RHAOACRWGXEIGT-RVIFUEJZNA-O
     RDKit          3D

 60 64  0  0  0  0  0  0  0  0999 V2000
  142.4237   80.8163  225.1152 H   0  0  0  0  0  0  0  0  0  0  0  0
  142.2140   80.3590  224.1370 C   0  0  0  0  0  0  0  0  0  0  0  0
  142.7810   80.8970  222.9800 C   0  0  0  0  0  0  0  0  0  0  0  0
  143.4402   81.7749  223.0490 H   0  0  0  0  0  0  0  0  0  0  0  0
  142.5130   80.3230  221.7350 C   0  0  0  0  0  0  0  0  0  0  0  0
  142.9673   80.7492  220.8283 H   0  0  0  0  0  0  0  0  0  0  0  0
  141.6680   79.2060  221.6320 C   0  0  0  0  0  0  0  0  0  0  0  0
  141.1140   78.6450  222.8120 C   0  0  0  0  0  0  0  0  0  0  0  0
  141.3810   79.2410  224.0540 C   0  0  0  0  0  0  0  0  0  0  0  0
  140.9315   78.8252  224.9678 H   0  0  0  0  0  0  0  0  0  0  0  0
  140.1620   77.4790  222.7390 C   0  0  0  0  0  0  0  0  0  0  0  0
  139.1279   77.8477  222.8073 H   0  0  0  0  0  0  0  0  0  0  0  0
  140.3676   76.7912  223.5724 H   0  0  0  0  0  0  0  0  0  0  0  0
  140.3410   76.7670  221.4710 N   0  0  0  0  0  0  0  0  0  0  0  0
  140.9120   75.4460  221.4150 C   0  0  0  0  0  0  0  0  0  0  0  0
  140.2440   74.4050  221.9770 N   0  0  0  0  0  0  0  0  0  0  0  0
  140.7510   73.1450  221.9230 C   0  0  0  0  0  0  0  0  0  0  0  0
  140.1120   72.1390  222.4520 N   0  0  0  0  0  0  0  0  0  0  0  0
  140.2420   71.9410  223.4720 H   0  0  0  0  0  0  0  0  0  0  0  0
  139.2740   71.2010  221.6970 C   0  0  0  0  0  0  0  0  0  0  0  0
  139.3268   71.4483  220.6265 H   0  0  0  0  0  0  0  0  0  0  0  0
  139.6408   70.1779  221.8666 H   0  0  0  0  0  0  0  0  0  0  0  0
  137.8120   71.2920  222.1670 C   0  0  2  0  0  0  0  0  0  0  0  0
  137.2651   70.8212  221.3368 H   0  0  0  0  0  0  0  0  0  0  0  0
  137.3430   72.7160  222.4280 C   0  0  0  0  0  0  0  0  0  0  0  0
  136.9499   73.1585  221.5008 H   0  0  0  0  0  0  0  0  0  0  0  0
  138.1768   73.3421  222.7785 H   0  0  0  0  0  0  0  0  0  0  0  0
  136.2860   72.6490  223.4380 N   0  0  0  0  0  0  0  0  0  0  0  0
  136.4520   73.3970  224.1520 H   0  0  0  0  0  0  0  0  0  0  0  0
  136.3890   71.3370  224.0870 C   0  0  0  0  0  0  0  0  0  0  0  0
  135.4701   70.7599  223.9068 H   0  0  0  0  0  0  0  0  0  0  0  0
  136.5212   71.4606  225.1720 H   0  0  0  0  0  0  0  0  0  0  0  0
  137.5810   70.6030  223.4950 C   0  0  0  0  0  0  0  0  0  0  0  0
  137.3505   69.5375  223.3479 H   0  0  0  0  0  0  0  0  0  0  0  0
  138.4654   70.6351  224.1483 H   0  0  0  0  0  0  0  0  0  0  0  0
  141.9380   72.9340  221.3000 N   0  0  0  0  0  0  0  0  0  0  0  0
  142.6180   73.9640  220.7320 C   0  0  0  0  0  0  0  0  0  0  0  0
  143.8660   73.7140  220.0590 N   0  0  0  0  0  0  0  0  0  0  0  0
  145.1090   73.6620  220.8330 C   0  0  0  0  0  0  0  0  0  0  0  0
  145.5451   74.6703  220.8900 H   0  0  0  0  0  0  0  0  0  0  0  0
  144.8887   73.2930  221.8456 H   0  0  0  0  0  0  0  0  0  0  0  0
  146.1080   72.7140  220.1580 C   0  0  0  0  0  0  0  0  0  0  0  0
  147.0783   72.7926  220.6702 H   0  0  0  0  0  0  0  0  0  0  0  0
  145.7133   71.6895  220.2254 H   0  0  0  0  0  0  0  0  0  0  0  0
  146.2880   73.0480  218.7390 N   0  0  0  0  0  0  0  0  0  0  0  0
  146.6630   74.0230  218.6630 H   0  0  0  0  0  0  0  0  0  0  0  0
  145.0100   72.9710  218.0160 C   0  0  0  0  0  0  0  0  0  0  0  0
  145.1781   73.2339  216.9612 H   0  0  0  0  0  0  0  0  0  0  0  0
  144.6218   71.9455  218.1030 H   0  0  0  0  0  0  0  0  0  0  0  0
  143.9760   73.9340  218.6130 C   0  0  0  0  0  0  0  0  0  0  0  0
  144.2917   74.9708  218.4247 H   0  0  0  0  0  0  0  0  0  0  0  0
  142.9980   73.7522  218.1434 H   0  0  0  0  0  0  0  0  0  0  0  0
  142.0930   75.2200  220.7750 N   0  0  0  0  0  0  0  0  0  0  0  0
  142.5690   75.9960  220.2670 H   0  0  0  0  0  0  0  0  0  0  0  0
  140.2800   77.5890  220.2630 C   0  0  0  0  0  0  0  0  0  0  0  0
  139.3329   78.1482  220.2438 H   0  0  0  0  0  0  0  0  0  0  0  0
  140.3358   76.9474  219.3712 H   0  0  0  0  0  0  0  0  0  0  0  0
  141.4560   78.5690  220.2730 C   0  0  0  0  0  0  0  0  0  0  0  0
  141.2598   79.3632  219.5377 H   0  0  0  0  0  0  0  0  0  0  0  0
  142.3655   78.0029  220.0232 H   0  0  0  0  0  0  0  0  0  0  0  0
  1  2  1  0
  2  3  2  0
  3  4  1  0
  3  5  1  0
  5  6  1  0
  5  7  2  0
  7  8  1  0
  8  9  2  0
  9 10  1  0
  8 11  1  0
 11 12  1  0
 11 13  1  0
 11 14  1  0
 14 15  1  0
 15 16  2  0
 16 17  1  0
 17 18  2  0
 18 19  1  0
 18 20  1  0
 20 21  1  0
 20 22  1  0
 20 23  1  0
 23 24  1  6
 23 25  1  0
 25 26  1  0
 25 27  1  0
 25 28  1  0
 28 29  1  0
 28 30  1  0
 30 31  1  0
 30 32  1  0
 30 33  1  0
 33 34  1  0
 33 35  1  0
 17 36  1  0
 36 37  2  0
 37 38  1  0
 38 39  1  0
 39 40  1  0
 39 41  1  0
 39 42  1  0
 42 43  1  0
 42 44  1  0
 42 45  1  0
 45 46  1  0
 45 47  1  0
 47 48  1  0
 47 49  1  0
 47 50  1  0
 50 51  1  0
 50 52  1  0
 37 53  1  0
 53 54  1  0
 14 55  1  0
 55 56  1  0
 55 57  1  0
 55 58  1  0
 58 59  1  0
 58 60  1  0
  9  2  1  0
 53 15  1  0
 58  7  1  0
 33 23  1  0
 50 38  1  0
M  CHG  1  18   1
M  END
>  <UniqueID>  (1) 
577

>  <SMILES>  (1) 
c1ccc2c(c1)CCN(c1n/c(=[NH+]\C[C@H]3CCNC3)nc(N3CCNCC3)[nH]1)C2

>  <Energy>  (1) 
69.15134877229967

>  <Genealogy>  (1) 
c1ccc2c(c1)CCN(c1nc([NH2+]CC3CCNC3)nc(N3CCNCC3)n1)C2 (protonated)
c1ccc2c(c1)CCN(c1nc(=[NH+]CC3CCNC3)nc(N3CCNCC3)[nH]1)C2 (tautomer)
c1ccc2c(c1)CCN(c1nc(=[NH+]C[C@H]3CCNC3)nc(N3CCNCC3)[nH]1)C2 (chirality)
c1ccc2c(c1)CCN(c1n/c(=[NH+]\C[C@H]3CCNC3)nc(N3CCNCC3)[nH]1)C2 (cis-trans isomerization)
c1ccc2c(c1)CCN(c1n/c(=[NH+]\C[C@H]3CCNC3)nc(N3CCNCC3)[nH]1)C2 (3D coordinates assigned)
c1ccc2c(c1)CCN(c1n/c(=[NH+]\C[C@H]3CCNC3)nc(N3CCNCC3)[nH]1)C2 (nonaromatic ring conformer: 69.15134877229967 kcal/mol)

>  <smiles>  (1) 
c1ccc2c(c1)CCN(c1nc(NCC3CCNC3)nc(N3CCNCC3)n1)C2

>  <score_type>  (1) 
oracle

>  <origin>  (1) 
autodockgpu

>  <m_score__min__energy>  (1) 
-9.3699999999999992

>  <m_primary>  (1) 
energy

>  <meeko>  (1) 
{"free_energy": -8.31, "intermolecular_energy": -9.8, "internal_energy": -0.54, "cluster_size": 20, "cluster_id": 1, "rank_in_cluster": 19}

>  <energy>  (1) 
-9.37

>  <cluster_rmsd>  (1) 
0.0

>  <rmsd>  (1) 
271.95

>  <cluster>  (1) 
1

$$$$
RHAOACRWGXEIGT-RVIFUEJZNA-O
     RDKit          3D

 60 64  0  0  0  0  0  0  0  0999 V2000
  141.8273   81.2018  224.8759 H   0  0  0  0  0  0  0  0  0  0  0  0
  141.7230   80.6840  223.9110 C   0  0  0  0  0  0  0  0  0  0  0  0
  142.4280   81.1400  222.7960 C   0  0  0  0  0  0  0  0  0  0  0  0
  143.0882   82.0154  222.8844 H   0  0  0  0  0  0  0  0  0  0  0  0
  142.2970   80.4870  221.5680 C   0  0  0  0  0  0  0  0  0  0  0  0
  142.8611   80.8477  220.6953 H   0  0  0  0  0  0  0  0  0  0  0  0
  141.4510   79.3740  221.4390 C   0  0  0  0  0  0  0  0  0  0  0  0
  140.7550   78.8970  222.5800 C   0  0  0  0  0  0  0  0  0  0  0  0
  140.8850   79.5710  223.8040 C   0  0  0  0  0  0  0  0  0  0  0  0
  140.3244   79.2214  224.6835 H   0  0  0  0  0  0  0  0  0  0  0  0
  139.7980   77.7380  222.4710 C   0  0  0  0  0  0  0  0  0  0  0  0
  138.7696   78.1205  222.3933 H   0  0  0  0  0  0  0  0  0  0  0  0
  139.8932   77.1049  223.3655 H   0  0  0  0  0  0  0  0  0  0  0  0
  140.1110   76.9420  221.2820 N   0  0  0  0  0  0  0  0  0  0  0  0
  140.6610   75.6150  221.3780 C   0  0  0  0  0  0  0  0  0  0  0  0
  139.9840   74.6570  222.0630 N   0  0  0  0  0  0  0  0  0  0  0  0
  140.4710   73.3930  222.1540 C   0  0  0  0  0  0  0  0  0  0  0  0
  139.8220   72.4650  222.8030 N   0  0  0  0  0  0  0  0  0  0  0  0
  138.8010   72.6020  222.9880 H   0  0  0  0  0  0  0  0  0  0  0  0
  140.4430   71.2630  223.3690 C   0  0  0  0  0  0  0  0  0  0  0  0
  140.1317   70.3847  222.7845 H   0  0  0  0  0  0  0  0  0  0  0  0
  141.5367   71.3744  223.3304 H   0  0  0  0  0  0  0  0  0  0  0  0
  140.0120   71.0760  224.8330 C   0  0  2  0  0  0  0  0  0  0  0  0
  139.1148   71.7089  224.8992 H   0  0  0  0  0  0  0  0  0  0  0  0
  141.0770   71.4850  225.8400 C   0  0  0  0  0  0  0  0  0  0  0  0
  140.9839   72.5563  226.0717 H   0  0  0  0  0  0  0  0  0  0  0  0
  142.0840   71.3094  225.4337 H   0  0  0  0  0  0  0  0  0  0  0  0
  140.8620   70.6910  227.0500 N   0  0  0  0  0  0  0  0  0  0  0  0
  141.7850   70.3280  227.3860 H   0  0  0  0  0  0  0  0  0  0  0  0
  140.0090   69.5560  226.6780 C   0  0  0  0  0  0  0  0  0  0  0  0
  139.0579   69.6097  227.2279 H   0  0  0  0  0  0  0  0  0  0  0  0
  140.5086   68.6086  226.9286 H   0  0  0  0  0  0  0  0  0  0  0  0
  139.7430   69.6280  225.1830 C   0  0  0  0  0  0  0  0  0  0  0  0
  138.7006   69.3584  224.9578 H   0  0  0  0  0  0  0  0  0  0  0  0
  140.3685   68.9298  224.6074 H   0  0  0  0  0  0  0  0  0  0  0  0
  141.6500   73.0910  221.5530 N   0  0  0  0  0  0  0  0  0  0  0  0
  142.3410   74.0370  220.8630 C   0  0  0  0  0  0  0  0  0  0  0  0
  143.5790   73.6900  220.2160 N   0  0  0  0  0  0  0  0  0  0  0  0
  144.8510   74.0510  220.8470 C   0  0  0  0  0  0  0  0  0  0  0  0
  145.1570   75.0505  220.5044 H   0  0  0  0  0  0  0  0  0  0  0  0
  144.7243   74.0541  221.9397 H   0  0  0  0  0  0  0  0  0  0  0  0
  145.9320   73.0310  220.4680 C   0  0  0  0  0  0  0  0  0  0  0  0
  146.9060   73.3892  220.8326 H   0  0  0  0  0  0  0  0  0  0  0  0
  145.6747   72.0657  220.9284 H   0  0  0  0  0  0  0  0  0  0  0  0
  146.0050   72.8450  219.0110 N   0  0  0  0  0  0  0  0  0  0  0  0
  146.2480   73.7600  218.5630 H   0  0  0  0  0  0  0  0  0  0  0  0
  144.7170   72.3790  218.4780 C   0  0  0  0  0  0  0  0  0  0  0  0
  144.8026   72.2569  217.3881 H   0  0  0  0  0  0  0  0  0  0  0  0
  144.4677   71.4206  218.9569 H   0  0  0  0  0  0  0  0  0  0  0  0
  143.5960   73.3810  218.7830 C   0  0  0  0  0  0  0  0  0  0  0  0
  143.7681   74.3056  218.2126 H   0  0  0  0  0  0  0  0  0  0  0  0
  142.6294   72.9414  218.4959 H   0  0  0  0  0  0  0  0  0  0  0  0
  141.8340   75.2960  220.7620 N   0  0  0  0  0  0  0  0  0  0  0  0
  142.3180   76.0000  220.1630 H   0  0  0  0  0  0  0  0  0  0  0  0
  140.2040   77.6830  220.0240 C   0  0  0  0  0  0  0  0  0  0  0  0
  139.2751   78.2484  219.8582 H   0  0  0  0  0  0  0  0  0  0  0  0
  140.3516   76.9837  219.1878 H   0  0  0  0  0  0  0  0  0  0  0  0
  141.3880   78.6510  220.1090 C   0  0  0  0  0  0  0  0  0  0  0  0
  141.2925   79.3968  219.3061 H   0  0  0  0  0  0  0  0  0  0  0  0
  142.3106   78.0611  220.0048 H   0  0  0  0  0  0  0  0  0  0  0  0
  1  2  1  0
  2  3  2  0
  3  4  1  0
  3  5  1  0
  5  6  1  0
  5  7  2  0
  7  8  1  0
  8  9  2  0
  9 10  1  0
  8 11  1  0
 11 12  1  0
 11 13  1  0
 11 14  1  0
 14 15  1  0
 15 16  2  0
 16 17  1  0
 17 18  2  0
 18 19  1  0
 18 20  1  0
 20 21  1  0
 20 22  1  0
 20 23  1  0
 23 24  1  1
 23 25  1  0
 25 26  1  0
 25 27  1  0
 25 28  1  0
 28 29  1  0
 28 30  1  0
 30 31  1  0
 30 32  1  0
 30 33  1  0
 33 34  1  0
 33 35  1  0
 17 36  1  0
 36 37  2  0
 37 38  1  0
 38 39  1  0
 39 40  1  0
 39 41  1  0
 39 42  1  0
 42 43  1  0
 42 44  1  0
 42 45  1  0
 45 46  1  0
 45 47  1  0
 47 48  1  0
 47 49  1  0
 47 50  1  0
 50 51  1  0
 50 52  1  0
 37 53  1  0
 53 54  1  0
 14 55  1  0
 55 56  1  0
 55 57  1  0
 55 58  1  0
 58 59  1  0
 58 60  1  0
  9  2  1  0
 53 15  1  0
 58  7  1  0
 33 23  1  0
 50 38  1  0
M  CHG  1  18   1
M  END
>  <UniqueID>  (2) 
577

>  <SMILES>  (2) 
c1ccc2c(c1)CCN(c1n/c(=[NH+]\C[C@H]3CCNC3)nc(N3CCNCC3)[nH]1)C2

>  <Energy>  (2) 
69.15134877229967

>  <Genealogy>  (2) 
c1ccc2c(c1)CCN(c1nc([NH2+]CC3CCNC3)nc(N3CCNCC3)n1)C2 (protonated)
c1ccc2c(c1)CCN(c1nc(=[NH+]CC3CCNC3)nc(N3CCNCC3)[nH]1)C2 (tautomer)
c1ccc2c(c1)CCN(c1nc(=[NH+]C[C@H]3CCNC3)nc(N3CCNCC3)[nH]1)C2 (chirality)
c1ccc2c(c1)CCN(c1n/c(=[NH+]\C[C@H]3CCNC3)nc(N3CCNCC3)[nH]1)C2 (cis-trans isomerization)
c1ccc2c(c1)CCN(c1n/c(=[NH+]\C[C@H]3CCNC3)nc(N3CCNCC3)[nH]1)C2 (3D coordinates assigned)
c1ccc2c(c1)CCN(c1n/c(=[NH+]\C[C@H]3CCNC3)nc(N3CCNCC3)[nH]1)C2 (nonaromatic ring conformer: 69.15134877229967 kcal/mol)

>  <smiles>  (2) 
c1ccc2c(c1)CCN(c1nc(NCC3CCNC3)nc(N3CCNCC3)n1)C2

>  <score_type>  (2) 
oracle

>  <origin>  (2) 
autodockgpu

>  <m_score__min__energy>  (2) 
-9.3699999999999992

>  <m_primary>  (2) 
energy

>  <meeko>  (2) 
{"free_energy": -9.37, "intermolecular_energy": -10.87, "internal_energy": -0.43, "cluster_size": 20, "cluster_id": 1, "rank_in_cluster": 1}

>  <energy>  (2) 
-9.37

>  <cluster_rmsd>  (2) 
0.06

>  <rmsd>  (2) 
271.92

>  <cluster>  (2) 
1

$$$$
RHAOACRWGXEIGT-RVIFUEJZNA-O
     RDKit          3D

 60 64  0  0  0  0  0  0  0  0999 V2000
  140.7737   80.8333  224.7664 H   0  0  0  0  0  0  0  0  0  0  0  0
  140.9800   80.2690  223.8450 C   0  0  0  0  0  0  0  0  0  0  0  0
  142.0290   80.6580  223.0100 C   0  0  0  0  0  0  0  0  0  0  0  0
  142.6490   81.5268  223.2760 H   0  0  0  0  0  0  0  0  0  0  0  0
  142.2930   79.9460  221.8370 C   0  0  0  0  0  0  0  0  0  0  0  0
  143.1254   80.2539  221.1871 H   0  0  0  0  0  0  0  0  0  0  0  0
  141.5040   78.8410  221.4820 C   0  0  0  0  0  0  0  0  0  0  0  0
  140.4540   78.4320  222.3450 C   0  0  0  0  0  0  0  0  0  0  0  0
  140.1920   79.1650  223.5130 C   0  0  0  0  0  0  0  0  0  0  0  0
  139.3615   78.8682  224.1704 H   0  0  0  0  0  0  0  0  0  0  0  0
  139.5520   77.2830  221.9730 C   0  0  0  0  0  0  0  0  0  0  0  0
  138.6196   77.6761  221.5415 H   0  0  0  0  0  0  0  0  0  0  0  0
  139.3254   76.6941  222.8740 H   0  0  0  0  0  0  0  0  0  0  0  0
  140.2180   76.4240  220.9900 N   0  0  0  0  0  0  0  0  0  0  0  0
  140.6640   75.0950  221.3210 C   0  0  0  0  0  0  0  0  0  0  0  0
  139.8680   74.2880  222.0690 N   0  0  0  0  0  0  0  0  0  0  0  0
  140.2570   73.0240  222.3800 C   0  0  0  0  0  0  0  0  0  0  0  0
  139.4940   72.2400  223.0910 N   0  0  0  0  0  0  0  0  0  0  0  0
  138.5160   72.5460  223.3020 H   0  0  0  0  0  0  0  0  0  0  0  0
  139.9370   70.9770  223.6910 C   0  0  0  0  0  0  0  0  0  0  0  0
  139.3604   70.1472  223.2562 H   0  0  0  0  0  0  0  0  0  0  0  0
  141.0090   70.8407  223.4853 H   0  0  0  0  0  0  0  0  0  0  0  0
  139.7200   71.0020  225.2140 C   0  0  2  0  0  0  0  0  0  0  0  0
  138.8709   71.6928  225.3224 H   0  0  0  0  0  0  0  0  0  0  0  0
  140.9390   71.4670  225.9960 C   0  0  0  0  0  0  0  0  0  0  0  0
  140.9275   72.5625  226.0943 H   0  0  0  0  0  0  0  0  0  0  0  0
  141.8660   71.1803  225.4779 H   0  0  0  0  0  0  0  0  0  0  0  0
  140.8720   70.8450  227.3190 N   0  0  0  0  0  0  0  0  0  0  0  0
  141.8180   70.4700  227.5660 H   0  0  0  0  0  0  0  0  0  0  0  0
  139.9250   69.7290  227.2260 C   0  0  0  0  0  0  0  0  0  0  0  0
  139.0695   69.9107  227.8931 H   0  0  0  0  0  0  0  0  0  0  0  0
  140.4142   68.7909  227.5271 H   0  0  0  0  0  0  0  0  0  0  0  0
  139.4430   69.6300  225.7870 C   0  0  0  0  0  0  0  0  0  0  0  0
  138.3679   69.4002  225.7495 H   0  0  0  0  0  0  0  0  0  0  0  0
  139.9447   68.8275  225.2264 H   0  0  0  0  0  0  0  0  0  0  0  0
  141.4570   72.5710  221.9360 N   0  0  0  0  0  0  0  0  0  0  0  0
  142.2650   73.3650  221.1850 C   0  0  0  0  0  0  0  0  0  0  0  0
  143.5240   72.8560  220.7070 N   0  0  0  0  0  0  0  0  0  0  0  0
  143.6730   71.4230  220.4440 C   0  0  0  0  0  0  0  0  0  0  0  0
  144.0189   70.9188  221.3584 H   0  0  0  0  0  0  0  0  0  0  0  0
  142.7016   71.0096  220.1349 H   0  0  0  0  0  0  0  0  0  0  0  0
  144.6960   71.1990  219.3220 C   0  0  0  0  0  0  0  0  0  0  0  0
  144.8990   70.1217  219.2318 H   0  0  0  0  0  0  0  0  0  0  0  0
  144.2769   71.5954  218.3854 H   0  0  0  0  0  0  0  0  0  0  0  0
  145.9560   71.9020  219.6010 N   0  0  0  0  0  0  0  0  0  0  0  0
  146.3640   71.5320  220.4920 H   0  0  0  0  0  0  0  0  0  0  0  0
  145.7300   73.3470  219.7440 C   0  0  0  0  0  0  0  0  0  0  0  0
  146.6893   73.8406  219.9586 H   0  0  0  0  0  0  0  0  0  0  0  0
  145.2997   73.7267  218.8056 H   0  0  0  0  0  0  0  0  0  0  0  0
  144.7480   73.6450  220.8840 C   0  0  0  0  0  0  0  0  0  0  0  0
  145.2147   73.3837  221.8452 H   0  0  0  0  0  0  0  0  0  0  0  0
  144.4940   74.7152  220.8730 H   0  0  0  0  0  0  0  0  0  0  0  0
  141.8570   74.6230  220.8630 N   0  0  0  0  0  0  0  0  0  0  0  0
  142.4360   75.2030  220.2180 H   0  0  0  0  0  0  0  0  0  0  0  0
  140.7450   77.0990  219.8060 C   0  0  0  0  0  0  0  0  0  0  0  0
  139.9412   77.6688  219.3169 H   0  0  0  0  0  0  0  0  0  0  0  0
  141.1405   76.3563  219.0975 H   0  0  0  0  0  0  0  0  0  0  0  0
  141.8630   78.0530  220.2380 C   0  0  0  0  0  0  0  0  0  0  0  0
  142.0611   78.7589  219.4180 H   0  0  0  0  0  0  0  0  0  0  0  0
  142.7499   77.4454  220.4711 H   0  0  0  0  0  0  0  0  0  0  0  0
  1  2  1  0
  2  3  2  0
  3  4  1  0
  3  5  1  0
  5  6  1  0
  5  7  2  0
  7  8  1  0
  8  9  2  0
  9 10  1  0
  8 11  1  0
 11 12  1  0
 11 13  1  0
 11 14  1  0
 14 15  1  0
 15 16  2  0
 16 17  1  0
 17 18  2  0
 18 19  1  0
 18 20  1  0
 20 21  1  0
 20 22  1  0
 20 23  1  0
 23 24  1  6
 23 25  1  0
 25 26  1  0
 25 27  1  0
 25 28  1  0
 28 29  1  0
 28 30  1  0
 30 31  1  0
 30 32  1  0
 30 33  1  0
 33 34  1  0
 33 35  1  0
 17 36  1  0
 36 37  2  0
 37 38  1  0
 38 39  1  0
 39 40  1  0
 39 41  1  0
 39 42  1  0
 42 43  1  0
 42 44  1  0
 42 45  1  0
 45 46  1  0
 45 47  1  0
 47 48  1  0
 47 49  1  0
 47 50  1  0
 50 51  1  0
 50 52  1  0
 37 53  1  0
 53 54  1  0
 14 55  1  0
 55 56  1  0
 55 57  1  0
 55 58  1  0
 58 59  1  0
 58 60  1  0
  9  2  1  0
 53 15  1  0
 58  7  1  0
 33 23  1  0
 50 38  1  0
M  CHG  1  18   1
M  END
>  <UniqueID>  (3) 
577

>  <SMILES>  (3) 
c1ccc2c(c1)CCN(c1n/c(=[NH+]\C[C@H]3CCNC3)nc(N3CCNCC3)[nH]1)C2

>  <Energy>  (3) 
69.15134877229967

>  <Genealogy>  (3) 
c1ccc2c(c1)CCN(c1nc([NH2+]CC3CCNC3)nc(N3CCNCC3)n1)C2 (protonated)
c1ccc2c(c1)CCN(c1nc(=[NH+]CC3CCNC3)nc(N3CCNCC3)[nH]1)C2 (tautomer)
c1ccc2c(c1)CCN(c1nc(=[NH+]C[C@H]3CCNC3)nc(N3CCNCC3)[nH]1)C2 (chirality)
c1ccc2c(c1)CCN(c1n/c(=[NH+]\C[C@H]3CCNC3)nc(N3CCNCC3)[nH]1)C2 (cis-trans isomerization)
c1ccc2c(c1)CCN(c1n/c(=[NH+]\C[C@H]3CCNC3)nc(N3CCNCC3)[nH]1)C2 (3D coordinates assigned)
c1ccc2c(c1)CCN(c1n/c(=[NH+]\C[C@H]3CCNC3)nc(N3CCNCC3)[nH]1)C2 (nonaromatic ring conformer: 69.15134877229967 kcal/mol)

>  <smiles>  (3) 
c1ccc2c(c1)CCN(c1nc(NCC3CCNC3)nc(N3CCNCC3)n1)C2

>  <score_type>  (3) 
oracle

>  <origin>  (3) 
autodockgpu

>  <m_score__min__energy>  (3) 
-9.3699999999999992

>  <m_primary>  (3) 
energy

>  <meeko>  (3) 
{"free_energy": -9.25, "intermolecular_energy": -10.74, "internal_energy": -0.46, "cluster_size": 20, "cluster_id": 1, "rank_in_cluster": 9}

>  <energy>  (3) 
-9.36

>  <cluster_rmsd>  (3) 
0.05

>  <rmsd>  (3) 
271.95

>  <cluster>  (3) 
1

$$$$
RHAOACRWGXEIGT-RVIFUEJZNA-O
     RDKit          3D

 60 64  0  0  0  0  0  0  0  0999 V2000
  142.4321   80.8328  224.7091 H   0  0  0  0  0  0  0  0  0  0  0  0
  142.1470   80.3230  223.7770 C   0  0  0  0  0  0  0  0  0  0  0  0
  142.5770   80.8260  222.5480 C   0  0  0  0  0  0  0  0  0  0  0  0
  143.2034   81.7296  222.5140 H   0  0  0  0  0  0  0  0  0  0  0  0
  142.2140   80.1850  221.3610 C   0  0  0  0  0  0  0  0  0  0  0  0
  142.5614   80.5841  220.3966 H   0  0  0  0  0  0  0  0  0  0  0  0
  141.4090   79.0350  221.3900 C   0  0  0  0  0  0  0  0  0  0  0  0
  140.9940   78.5100  222.6420 C   0  0  0  0  0  0  0  0  0  0  0  0
  141.3550   79.1730  223.8250 C   0  0  0  0  0  0  0  0  0  0  0  0
  141.0124   78.7851  224.7956 H   0  0  0  0  0  0  0  0  0  0  0  0
  140.0870   77.3090  222.7120 C   0  0  0  0  0  0  0  0  0  0  0  0
  139.0503   77.6436  222.8645 H   0  0  0  0  0  0  0  0  0  0  0  0
  140.3989   76.6687  223.5503 H   0  0  0  0  0  0  0  0  0  0  0  0
  140.1720   76.5450  221.4650 N   0  0  0  0  0  0  0  0  0  0  0  0
  140.7870   75.2440  221.4100 C   0  0  0  0  0  0  0  0  0  0  0  0
  140.1440   74.1770  221.9500 N   0  0  0  0  0  0  0  0  0  0  0  0
  140.6930   72.9350  221.8960 C   0  0  0  0  0  0  0  0  0  0  0  0
  140.0770   71.9030  222.4050 N   0  0  0  0  0  0  0  0  0  0  0  0
  139.8580   71.0910  221.7820 H   0  0  0  0  0  0  0  0  0  0  0  0
  139.5920   71.8280  223.7870 C   0  0  0  0  0  0  0  0  0  0  0  0
  139.6466   72.8266  224.2450 H   0  0  0  0  0  0  0  0  0  0  0  0
  138.5515   71.4713  223.7812 H   0  0  0  0  0  0  0  0  0  0  0  0
  140.4510   70.8480  224.6040 C   0  0  2  0  0  0  0  0  0  0  0  0
  141.2962   70.6518  223.9279 H   0  0  0  0  0  0  0  0  0  0  0  0
  139.7190   69.5710  224.9910 C   0  0  0  0  0  0  0  0  0  0  0  0
  139.8266   68.8196  224.1949 H   0  0  0  0  0  0  0  0  0  0  0  0
  138.6458   69.7658  225.1338 H   0  0  0  0  0  0  0  0  0  0  0  0
  140.3250   69.0790  226.2290 N   0  0  0  0  0  0  0  0  0  0  0  0
  139.5620   68.7970  226.8900 H   0  0  0  0  0  0  0  0  0  0  0  0
  141.0780   70.1930  226.8150 C   0  0  0  0  0  0  0  0  0  0  0  0
  142.1468   69.9365  226.8594 H   0  0  0  0  0  0  0  0  0  0  0  0
  140.7205   70.3960  227.8353 H   0  0  0  0  0  0  0  0  0  0  0  0
  140.8800   71.4190  225.9380 C   0  0  0  0  0  0  0  0  0  0  0  0
  141.8184   71.9842  225.8380 H   0  0  0  0  0  0  0  0  0  0  0  0
  140.1444   72.1232  226.3539 H   0  0  0  0  0  0  0  0  0  0  0  0
  141.8990   72.7690  221.2970 N   0  0  0  0  0  0  0  0  0  0  0  0
  142.5550   73.8260  220.7510 C   0  0  0  0  0  0  0  0  0  0  0  0
  143.8240   73.6230  220.1010 N   0  0  0  0  0  0  0  0  0  0  0  0
  145.0630   73.9360  220.8190 C   0  0  0  0  0  0  0  0  0  0  0  0
  145.3366   74.9852  220.6335 H   0  0  0  0  0  0  0  0  0  0  0  0
  144.9068   73.7765  221.8961 H   0  0  0  0  0  0  0  0  0  0  0  0
  146.1950   73.0220  220.3330 C   0  0  0  0  0  0  0  0  0  0  0  0
  147.1432   73.3587  220.7774 H   0  0  0  0  0  0  0  0  0  0  0  0
  145.9653   71.9912  220.6408 H   0  0  0  0  0  0  0  0  0  0  0  0
  146.3150   73.0530  218.8680 N   0  0  0  0  0  0  0  0  0  0  0  0
  146.5320   74.0310  218.5640 H   0  0  0  0  0  0  0  0  0  0  0  0
  145.0620   72.6220  218.2310 C   0  0  0  0  0  0  0  0  0  0  0  0
  145.1822   72.6631  217.1384 H   0  0  0  0  0  0  0  0  0  0  0  0
  144.8398   71.5956  218.5582 H   0  0  0  0  0  0  0  0  0  0  0  0
  143.8930   73.5260  218.6400 C   0  0  0  0  0  0  0  0  0  0  0  0
  144.0419   74.5294  218.2146 H   0  0  0  0  0  0  0  0  0  0  0  0
  142.9538   73.0967  218.2611 H   0  0  0  0  0  0  0  0  0  0  0  0
  141.9870   75.0630  220.7930 N   0  0  0  0  0  0  0  0  0  0  0  0
  142.4480   75.8590  220.3010 H   0  0  0  0  0  0  0  0  0  0  0  0
  139.9620   77.3070  220.2340 C   0  0  0  0  0  0  0  0  0  0  0  0
  138.9957   77.8302  220.2833 H   0  0  0  0  0  0  0  0  0  0  0  0
  139.9577   76.6268  219.3695 H   0  0  0  0  0  0  0  0  0  0  0  0
  141.0930   78.3280  220.0870 C   0  0  0  0  0  0  0  0  0  0  0  0
  140.7952   79.0795  219.3410 H   0  0  0  0  0  0  0  0  0  0  0  0
  141.9963   77.7838  219.7742 H   0  0  0  0  0  0  0  0  0  0  0  0
  1  2  1  0
  2  3  2  0
  3  4  1  0
  3  5  1  0
  5  6  1  0
  5  7  2  0
  7  8  1  0
  8  9  2  0
  9 10  1  0
  8 11  1  0
 11 12  1  0
 11 13  1  0
 11 14  1  0
 14 15  1  0
 15 16  2  0
 16 17  1  0
 17 18  2  0
 18 19  1  0
 18 20  1  0
 20 21  1  0
 20 22  1  0
 20 23  1  0
 23 24  1  6
 23 25  1  0
 25 26  1  0
 25 27  1  0
 25 28  1  0
 28 29  1  0
 28 30  1  0
 30 31  1  0
 30 32  1  0
 30 33  1  0
 33 34  1  0
 33 35  1  0
 17 36  1  0
 36 37  2  0
 37 38  1  0
 38 39  1  0
 39 40  1  0
 39 41  1  0
 39 42  1  0
 42 43  1  0
 42 44  1  0
 42 45  1  0
 45 46  1  0
 45 47  1  0
 47 48  1  0
 47 49  1  0
 47 50  1  0
 50 51  1  0
 50 52  1  0
 37 53  1  0
 53 54  1  0
 14 55  1  0
 55 56  1  0
 55 57  1  0
 55 58  1  0
 58 59  1  0
 58 60  1  0
  9  2  1  0
 53 15  1  0
 58  7  1  0
 33 23  1  0
 50 38  1  0
M  CHG  1  18   1
M  END
>  <UniqueID>  (4) 
577

>  <SMILES>  (4) 
c1ccc2c(c1)CCN(c1n/c(=[NH+]\C[C@H]3CCNC3)nc(N3CCNCC3)[nH]1)C2

>  <Energy>  (4) 
69.15134877229967

>  <Genealogy>  (4) 
c1ccc2c(c1)CCN(c1nc([NH2+]CC3CCNC3)nc(N3CCNCC3)n1)C2 (protonated)
c1ccc2c(c1)CCN(c1nc(=[NH+]CC3CCNC3)nc(N3CCNCC3)[nH]1)C2 (tautomer)
c1ccc2c(c1)CCN(c1nc(=[NH+]C[C@H]3CCNC3)nc(N3CCNCC3)[nH]1)C2 (chirality)
c1ccc2c(c1)CCN(c1n/c(=[NH+]\C[C@H]3CCNC3)nc(N3CCNCC3)[nH]1)C2 (cis-trans isomerization)
c1ccc2c(c1)CCN(c1n/c(=[NH+]\C[C@H]3CCNC3)nc(N3CCNCC3)[nH]1)C2 (3D coordinates assigned)
c1ccc2c(c1)CCN(c1n/c(=[NH+]\C[C@H]3CCNC3)nc(N3CCNCC3)[nH]1)C2 (nonaromatic ring conformer: 69.15134877229967 kcal/mol)

>  <smiles>  (4) 
c1ccc2c(c1)CCN(c1nc(NCC3CCNC3)nc(N3CCNCC3)n1)C2

>  <score_type>  (4) 
oracle

>  <origin>  (4) 
autodockgpu

>  <m_score__min__energy>  (4) 
-9.3699999999999992

>  <m_primary>  (4) 
energy

>  <meeko>  (4) 
{"free_energy": -9.21, "intermolecular_energy": -10.7, "internal_energy": -0.47, "cluster_size": 20, "cluster_id": 1, "rank_in_cluster": 10}

>  <energy>  (4) 
-9.36

>  <cluster_rmsd>  (4) 
0.08

>  <rmsd>  (4) 
271.91

>  <cluster>  (4) 
1

$$$$
RHAOACRWGXEIGT-RVIFUEJZNA-O
     RDKit          3D

 60 64  0  0  0  0  0  0  0  0999 V2000
  142.2754   80.8242  224.7595 H   0  0  0  0  0  0  0  0  0  0  0  0
  142.0260   80.3020  223.8240 C   0  0  0  0  0  0  0  0  0  0  0  0
  142.5090   80.7840  222.6070 C   0  0  0  0  0  0  0  0  0  0  0  0
  143.1413   81.6839  222.5857 H   0  0  0  0  0  0  0  0  0  0  0  0
  142.1920   80.1270  221.4150 C   0  0  0  0  0  0  0  0  0  0  0  0
  142.5814   80.5097  220.4601 H   0  0  0  0  0  0  0  0  0  0  0  0
  141.3800   78.9820  221.4280 C   0  0  0  0  0  0  0  0  0  0  0  0
  140.9110   78.4780  222.6690 C   0  0  0  0  0  0  0  0  0  0  0  0
  141.2260   79.1570  223.8560 C   0  0  0  0  0  0  0  0  0  0  0  0
  140.8409   78.7857  224.8171 H   0  0  0  0  0  0  0  0  0  0  0  0
  139.9940   77.2830  222.7200 C   0  0  0  0  0  0  0  0  0  0  0  0
  138.9540   77.6256  222.8245 H   0  0  0  0  0  0  0  0  0  0  0  0
  140.2666   76.6539  223.5802 H   0  0  0  0  0  0  0  0  0  0  0  0
  140.1260   76.5000  221.4890 N   0  0  0  0  0  0  0  0  0  0  0  0
  140.7360   75.1950  221.4800 C   0  0  0  0  0  0  0  0  0  0  0  0
  140.0840   74.1480  222.0480 N   0  0  0  0  0  0  0  0  0  0  0  0
  140.6280   72.9030  222.0370 C   0  0  0  0  0  0  0  0  0  0  0  0
  140.0040   71.8900  222.5740 N   0  0  0  0  0  0  0  0  0  0  0  0
  139.4790   71.2350  221.9500 H   0  0  0  0  0  0  0  0  0  0  0  0
  139.9180   71.6420  224.0170 C   0  0  0  0  0  0  0  0  0  0  0  0
  140.7302   72.1812  224.5265 H   0  0  0  0  0  0  0  0  0  0  0  0
  138.9424   71.9953  224.3823 H   0  0  0  0  0  0  0  0  0  0  0  0
  140.0460   70.1370  224.3110 C   0  0  2  0  0  0  0  0  0  0  0  0
  140.7573   69.8033  223.5411 H   0  0  0  0  0  0  0  0  0  0  0  0
  138.7250   69.3870  224.2340 C   0  0  0  0  0  0  0  0  0  0  0  0
  138.5423   69.0519  223.2024 H   0  0  0  0  0  0  0  0  0  0  0  0
  137.8904   70.0374  224.5348 H   0  0  0  0  0  0  0  0  0  0  0  0
  138.8270   68.2310  225.1250 N   0  0  0  0  0  0  0  0  0  0  0  0
  137.9470   68.1590  225.6890 H   0  0  0  0  0  0  0  0  0  0  0  0
  139.9550   68.4800  226.0300 C   0  0  0  0  0  0  0  0  0  0  0  0
  140.7300   67.7144  225.8775 H   0  0  0  0  0  0  0  0  0  0  0  0
  139.6176   68.4375  227.0761 H   0  0  0  0  0  0  0  0  0  0  0  0
  140.5230   69.8550  225.7190 C   0  0  0  0  0  0  0  0  0  0  0  0
  141.6220   69.8438  225.7648 H   0  0  0  0  0  0  0  0  0  0  0  0
  140.1970   70.6208  226.4382 H   0  0  0  0  0  0  0  0  0  0  0  0
  141.8370   72.7120  221.4510 N   0  0  0  0  0  0  0  0  0  0  0  0
  142.5020   73.7490  220.8770 C   0  0  0  0  0  0  0  0  0  0  0  0
  143.7740   73.5200  220.2420 N   0  0  0  0  0  0  0  0  0  0  0  0
  144.9840   74.1210  220.8090 C   0  0  0  0  0  0  0  0  0  0  0  0
  145.1404   75.1147  220.3639 H   0  0  0  0  0  0  0  0  0  0  0  0
  144.8645   74.2155  221.8984 H   0  0  0  0  0  0  0  0  0  0  0  0
  146.1990   73.2330  220.5100 C   0  0  0  0  0  0  0  0  0  0  0  0
  147.1132   73.7613  220.8183 H   0  0  0  0  0  0  0  0  0  0  0  0
  146.0860   72.2916  221.0677 H   0  0  0  0  0  0  0  0  0  0  0  0
  146.2900   72.9150  219.0780 N   0  0  0  0  0  0  0  0  0  0  0  0
  146.3960   73.8050  218.5370 H   0  0  0  0  0  0  0  0  0  0  0  0
  145.0790   72.2180  218.6190 C   0  0  0  0  0  0  0  0  0  0  0  0
  145.1753   72.0008  217.5450 H   0  0  0  0  0  0  0  0  0  0  0  0
  144.9735   71.2868  219.1950 H   0  0  0  0  0  0  0  0  0  0  0  0
  143.8270   73.0740  218.8460 C   0  0  0  0  0  0  0  0  0  0  0  0
  143.8601   73.9516  218.1837 H   0  0  0  0  0  0  0  0  0  0  0  0
  142.9325   72.4738  218.6232 H   0  0  0  0  0  0  0  0  0  0  0  0
  141.9390   74.9880  220.8760 N   0  0  0  0  0  0  0  0  0  0  0  0
  142.4070   75.7670  220.3620 H   0  0  0  0  0  0  0  0  0  0  0  0
  139.9720   77.2440  220.2400 C   0  0  0  0  0  0  0  0  0  0  0  0
  139.0075   77.7730  220.2415 H   0  0  0  0  0  0  0  0  0  0  0  0
  139.9999   76.5506  219.3865 H   0  0  0  0  0  0  0  0  0  0  0  0
  141.1140   78.2570  220.1240 C   0  0  0  0  0  0  0  0  0  0  0  0
  140.8513   78.9985  219.3551 H   0  0  0  0  0  0  0  0  0  0  0  0
  142.0263   77.7037  219.8565 H   0  0  0  0  0  0  0  0  0  0  0  0
  1  2  1  0
  2  3  2  0
  3  4  1  0
  3  5  1  0
  5  6  1  0
  5  7  2  0
  7  8  1  0
  8  9  2  0
  9 10  1  0
  8 11  1  0
 11 12  1  0
 11 13  1  0
 11 14  1  0
 14 15  1  0
 15 16  2  0
 16 17  1  0
 17 18  2  0
 18 19  1  0
 18 20  1  0
 20 21  1  0
 20 22  1  0
 20 23  1  0
 23 24  1  6
 23 25  1  0
 25 26  1  0
 25 27  1  0
 25 28  1  0
 28 29  1  0
 28 30  1  0
 30 31  1  0
 30 32  1  0
 30 33  1  0
 33 34  1  0
 33 35  1  0
 17 36  1  0
 36 37  2  0
 37 38  1  0
 38 39  1  0
 39 40  1  0
 39 41  1  0
 39 42  1  0
 42 43  1  0
 42 44  1  0
 42 45  1  0
 45 46  1  0
 45 47  1  0
 47 48  1  0
 47 49  1  0
 47 50  1  0
 50 51  1  0
 50 52  1  0
 37 53  1  0
 53 54  1  0
 14 55  1  0
 55 56  1  0
 55 57  1  0
 55 58  1  0
 58 59  1  0
 58 60  1  0
  9  2  1  0
 53 15  1  0
 58  7  1  0
 33 23  1  0
 50 38  1  0
M  CHG  1  18   1
M  END
>  <UniqueID>  (5) 
577

>  <SMILES>  (5) 
c1ccc2c(c1)CCN(c1n/c(=[NH+]\C[C@H]3CCNC3)nc(N3CCNCC3)[nH]1)C2

>  <Energy>  (5) 
69.15134877229967

>  <Genealogy>  (5) 
c1ccc2c(c1)CCN(c1nc([NH2+]CC3CCNC3)nc(N3CCNCC3)n1)C2 (protonated)
c1ccc2c(c1)CCN(c1nc(=[NH+]CC3CCNC3)nc(N3CCNCC3)[nH]1)C2 (tautomer)
c1ccc2c(c1)CCN(c1nc(=[NH+]C[C@H]3CCNC3)nc(N3CCNCC3)[nH]1)C2 (chirality)
c1ccc2c(c1)CCN(c1n/c(=[NH+]\C[C@H]3CCNC3)nc(N3CCNCC3)[nH]1)C2 (cis-trans isomerization)
c1ccc2c(c1)CCN(c1n/c(=[NH+]\C[C@H]3CCNC3)nc(N3CCNCC3)[nH]1)C2 (3D coordinates assigned)
c1ccc2c(c1)CCN(c1n/c(=[NH+]\C[C@H]3CCNC3)nc(N3CCNCC3)[nH]1)C2 (nonaromatic ring conformer: 69.15134877229967 kcal/mol)

>  <smiles>  (5) 
c1ccc2c(c1)CCN(c1nc(NCC3CCNC3)nc(N3CCNCC3)n1)C2

>  <score_type>  (5) 
oracle

>  <origin>  (5) 
autodockgpu

>  <m_score__min__energy>  (5) 
-9.3699999999999992

>  <m_primary>  (5) 
energy

>  <meeko>  (5) 
{"free_energy": -9.34, "intermolecular_energy": -10.83, "internal_energy": -0.41, "cluster_size": 20, "cluster_id": 1, "rank_in_cluster": 7}

>  <energy>  (5) 
-9.35

>  <cluster_rmsd>  (5) 
1.26

>  <rmsd>  (5) 
271.57

>  <cluster>  (5) 
1

$$$$
RHAOACRWGXEIGT-RVIFUEJZNA-O
     RDKit          3D

 60 64  0  0  0  0  0  0  0  0999 V2000
  143.3156   80.8137  224.4930 H   0  0  0  0  0  0  0  0  0  0  0  0
  142.7760   80.3500  223.6540 C   0  0  0  0  0  0  0  0  0  0  0  0
  142.8860   80.8900  222.3710 C   0  0  0  0  0  0  0  0  0  0  0  0
  143.5140   81.7769  222.2008 H   0  0  0  0  0  0  0  0  0  0  0  0
  142.2000   80.3060  221.3030 C   0  0  0  0  0  0  0  0  0  0  0  0
  142.2967   80.7321  220.2935 H   0  0  0  0  0  0  0  0  0  0  0  0
  141.3880   79.1790  221.5090 C   0  0  0  0  0  0  0  0  0  0  0  0
  141.2980   78.6170  222.8090 C   0  0  0  0  0  0  0  0  0  0  0  0
  141.9820   79.2220  223.8740 C   0  0  0  0  0  0  0  0  0  0  0  0
  141.8925   78.8057  224.8882 H   0  0  0  0  0  0  0  0  0  0  0  0
  140.3970   77.4390  223.0800 C   0  0  0  0  0  0  0  0  0  0  0  0
  139.4503   77.7959  223.5118 H   0  0  0  0  0  0  0  0  0  0  0  0
  140.8947   76.7577  223.7858 H   0  0  0  0  0  0  0  0  0  0  0  0
  140.1220   76.7230  221.8320 N   0  0  0  0  0  0  0  0  0  0  0  0
  140.6520   75.4090  221.5770 C   0  0  0  0  0  0  0  0  0  0  0  0
  139.8790   74.3180  221.8140 N   0  0  0  0  0  0  0  0  0  0  0  0
  140.3480   73.0670  221.5660 C   0  0  0  0  0  0  0  0  0  0  0  0
  139.6080   72.0140  221.7830 N   0  0  0  0  0  0  0  0  0  0  0  0
  139.2990   71.4390  220.9650 H   0  0  0  0  0  0  0  0  0  0  0  0
  139.1040   71.6150  223.1010 C   0  0  0  0  0  0  0  0  0  0  0  0
  138.7351   72.5046  223.6325 H   0  0  0  0  0  0  0  0  0  0  0  0
  138.2880   70.8897  222.9665 H   0  0  0  0  0  0  0  0  0  0  0  0
  140.2240   70.9590  223.9270 C   0  0  2  0  0  0  0  0  0  0  0  0
  141.0071   70.7875  223.1738 H   0  0  0  0  0  0  0  0  0  0  0  0
  139.7990   69.6700  224.6150 C   0  0  0  0  0  0  0  0  0  0  0  0
  139.9547   68.8148  223.9410 H   0  0  0  0  0  0  0  0  0  0  0  0
  138.7324   69.7048  224.8817 H   0  0  0  0  0  0  0  0  0  0  0  0
  140.6270   69.5210  225.8120 N   0  0  0  0  0  0  0  0  0  0  0  0
  140.0140   69.2410  226.6150 H   0  0  0  0  0  0  0  0  0  0  0  0
  141.2160   70.8340  226.0980 C   0  0  0  0  0  0  0  0  0  0  0  0
  142.3119   70.7737  226.0254 H   0  0  0  0  0  0  0  0  0  0  0  0
  140.9469   71.1566  227.1146 H   0  0  0  0  0  0  0  0  0  0  0  0
  140.6870   71.8280  225.0760 C   0  0  0  0  0  0  0  0  0  0  0  0
  141.4820   72.5153  224.7510 H   0  0  0  0  0  0  0  0  0  0  0  0
  139.8832   72.4621  225.4783 H   0  0  0  0  0  0  0  0  0  0  0  0
  141.6050   72.9150  221.0770 N   0  0  0  0  0  0  0  0  0  0  0  0
  142.3910   73.9960  220.8320 C   0  0  0  0  0  0  0  0  0  0  0  0
  143.7140   73.8120  220.2940 N   0  0  0  0  0  0  0  0  0  0  0  0
  144.8600   73.7320  221.2020 C   0  0  0  0  0  0  0  0  0  0  0  0
  145.2612   74.7420  221.3719 H   0  0  0  0  0  0  0  0  0  0  0  0
  144.5340   73.2944  222.1571 H   0  0  0  0  0  0  0  0  0  0  0  0
  145.9540   72.8470  220.5900 C   0  0  0  0  0  0  0  0  0  0  0  0
  146.8571   72.9100  221.2148 H   0  0  0  0  0  0  0  0  0  0  0  0
  145.5811   71.8130  220.5482 H   0  0  0  0  0  0  0  0  0  0  0  0
  146.2860   73.2760  219.2240 N   0  0  0  0  0  0  0  0  0  0  0  0
  146.6430   74.2610  219.2540 H   0  0  0  0  0  0  0  0  0  0  0  0
  145.1020   73.2230  218.3550 C   0  0  0  0  0  0  0  0  0  0  0  0
  145.3829   73.5567  217.3452 H   0  0  0  0  0  0  0  0  0  0  0  0
  144.7326   72.1871  218.3324 H   0  0  0  0  0  0  0  0  0  0  0  0
  143.9830   74.1260  218.8870 C   0  0  0  0  0  0  0  0  0  0  0  0
  144.2916   75.1783  218.8008 H   0  0  0  0  0  0  0  0  0  0  0  0
  143.0700   73.9565  218.2974 H   0  0  0  0  0  0  0  0  0  0  0  0
  141.9050   75.2450  221.0670 N   0  0  0  0  0  0  0  0  0  0  0  0
  142.4740   76.0780  220.8010 H   0  0  0  0  0  0  0  0  0  0  0  0
  139.6250   77.5390  220.7240 C   0  0  0  0  0  0  0  0  0  0  0  0
  138.7259   78.0868  221.0427 H   0  0  0  0  0  0  0  0  0  0  0  0
  139.3685   76.8939  219.8707 H   0  0  0  0  0  0  0  0  0  0  0  0
  140.7150   78.5330  220.3150 C   0  0  0  0  0  0  0  0  0  0  0  0
  140.2600   79.3212  219.6972 H   0  0  0  0  0  0  0  0  0  0  0  0
  141.4835   77.9765  219.7585 H   0  0  0  0  0  0  0  0  0  0  0  0
  1  2  1  0
  2  3  2  0
  3  4  1  0
  3  5  1  0
  5  6  1  0
  5  7  2  0
  7  8  1  0
  8  9  2  0
  9 10  1  0
  8 11  1  0
 11 12  1  0
 11 13  1  0
 11 14  1  0
 14 15  1  0
 15 16  2  0
 16 17  1  0
 17 18  2  0
 18 19  1  0
 18 20  1  0
 20 21  1  0
 20 22  1  0
 20 23  1  0
 23 24  1  6
 23 25  1  0
 25 26  1  0
 25 27  1  0
 25 28  1  0
 28 29  1  0
 28 30  1  0
 30 31  1  0
 30 32  1  0
 30 33  1  0
 33 34  1  0
 33 35  1  0
 17 36  1  0
 36 37  2  0
 37 38  1  0
 38 39  1  0
 39 40  1  0
 39 41  1  0
 39 42  1  0
 42 43  1  0
 42 44  1  0
 42 45  1  0
 45 46  1  0
 45 47  1  0
 47 48  1  0
 47 49  1  0
 47 50  1  0
 50 51  1  0
 50 52  1  0
 37 53  1  0
 53 54  1  0
 14 55  1  0
 55 56  1  0
 55 57  1  0
 55 58  1  0
 58 59  1  0
 58 60  1  0
  9  2  1  0
 53 15  1  0
 58  7  1  0
 33 23  1  0
 50 38  1  0
M  CHG  1  18   1
M  END
>  <UniqueID>  (6) 
577

>  <SMILES>  (6) 
c1ccc2c(c1)CCN(c1n/c(=[NH+]\C[C@H]3CCNC3)nc(N3CCNCC3)[nH]1)C2

>  <Energy>  (6) 
69.15134877229967

>  <Genealogy>  (6) 
c1ccc2c(c1)CCN(c1nc([NH2+]CC3CCNC3)nc(N3CCNCC3)n1)C2 (protonated)
c1ccc2c(c1)CCN(c1nc(=[NH+]CC3CCNC3)nc(N3CCNCC3)[nH]1)C2 (tautomer)
c1ccc2c(c1)CCN(c1nc(=[NH+]C[C@H]3CCNC3)nc(N3CCNCC3)[nH]1)C2 (chirality)
c1ccc2c(c1)CCN(c1n/c(=[NH+]\C[C@H]3CCNC3)nc(N3CCNCC3)[nH]1)C2 (cis-trans isomerization)
c1ccc2c(c1)CCN(c1n/c(=[NH+]\C[C@H]3CCNC3)nc(N3CCNCC3)[nH]1)C2 (3D coordinates assigned)
c1ccc2c(c1)CCN(c1n/c(=[NH+]\C[C@H]3CCNC3)nc(N3CCNCC3)[nH]1)C2 (nonaromatic ring conformer: 69.15134877229967 kcal/mol)

>  <smiles>  (6) 
c1ccc2c(c1)CCN(c1nc(NCC3CCNC3)nc(N3CCNCC3)n1)C2

>  <score_type>  (6) 
oracle

>  <origin>  (6) 
autodockgpu

>  <m_score__min__energy>  (6) 
-9.3699999999999992

>  <m_primary>  (6) 
energy

>  <meeko>  (6) 
{"free_energy": -8.3, "intermolecular_energy": -9.8, "internal_energy": -0.6, "cluster_size": 20, "cluster_id": 1, "rank_in_cluster": 20}

>  <energy>  (6) 
-9.35

>  <cluster_rmsd>  (6) 
1.24

>  <rmsd>  (6) 
271.62

>  <cluster>  (6) 
1

$$$$
RHAOACRWGXEIGT-RVIFUEJZNA-O
     RDKit          3D

 60 64  0  0  0  0  0  0  0  0999 V2000
  142.1851   80.8551  224.7721 H   0  0  0  0  0  0  0  0  0  0  0  0
  141.9610   80.3280  223.8330 C   0  0  0  0  0  0  0  0  0  0  0  0
  142.4760   80.8050  222.6260 C   0  0  0  0  0  0  0  0  0  0  0  0
  143.1067   81.7062  222.6164 H   0  0  0  0  0  0  0  0  0  0  0  0
  142.1920   80.1400  221.4300 C   0  0  0  0  0  0  0  0  0  0  0  0
  142.6063   80.5176  220.4835 H   0  0  0  0  0  0  0  0  0  0  0  0
  141.3820   78.9940  221.4280 C   0  0  0  0  0  0  0  0  0  0  0  0
  140.8810   78.4960  222.6590 C   0  0  0  0  0  0  0  0  0  0  0  0
  141.1620   79.1830  223.8500 C   0  0  0  0  0  0  0  0  0  0  0  0
  140.7505   78.8174  224.8024 H   0  0  0  0  0  0  0  0  0  0  0  0
  139.9650   77.3000  222.6920 C   0  0  0  0  0  0  0  0  0  0  0  0
  138.9220   77.6415  222.7667 H   0  0  0  0  0  0  0  0  0  0  0  0
  140.2156   76.6761  223.5626 H   0  0  0  0  0  0  0  0  0  0  0  0
  140.1310   76.5100  221.4690 N   0  0  0  0  0  0  0  0  0  0  0  0
  140.7420   75.2060  221.4840 C   0  0  0  0  0  0  0  0  0  0  0  0
  140.0980   74.1710  222.0830 N   0  0  0  0  0  0  0  0  0  0  0  0
  140.6430   72.9270  222.0950 C   0  0  0  0  0  0  0  0  0  0  0  0
  140.0260   71.9260  222.6600 N   0  0  0  0  0  0  0  0  0  0  0  0
  139.3940   71.3300  222.0770 H   0  0  0  0  0  0  0  0  0  0  0  0
  140.0930   71.6160  224.0930 C   0  0  0  0  0  0  0  0  0  0  0  0
  140.9974   72.0730  224.5211 H   0  0  0  0  0  0  0  0  0  0  0  0
  139.1967   72.0180  224.5880 H   0  0  0  0  0  0  0  0  0  0  0  0
  140.1430   70.0940  224.3090 C   0  0  2  0  0  0  0  0  0  0  0  0
  140.8255   69.7625  223.5125 H   0  0  0  0  0  0  0  0  0  0  0  0
  138.7820   69.4200  224.2150 C   0  0  0  0  0  0  0  0  0  0  0  0
  138.5689   69.1467  223.1710 H   0  0  0  0  0  0  0  0  0  0  0  0
  137.9876   70.0983  224.5596 H   0  0  0  0  0  0  0  0  0  0  0  0
  138.8320   68.2170  225.0470 N   0  0  0  0  0  0  0  0  0  0  0  0
  137.9560   68.1640  225.6200 H   0  0  0  0  0  0  0  0  0  0  0  0
  139.9830   68.3590  225.9460 C   0  0  0  0  0  0  0  0  0  0  0  0
  140.7132   67.5614  225.7442 H   0  0  0  0  0  0  0  0  0  0  0  0
  139.6573   68.2821  226.9938 H   0  0  0  0  0  0  0  0  0  0  0  0
  140.6210   69.7160  225.6940 C   0  0  0  0  0  0  0  0  0  0  0  0
  141.7182   69.6435  225.7227 H   0  0  0  0  0  0  0  0  0  0  0  0
  140.3455   70.4611  226.4549 H   0  0  0  0  0  0  0  0  0  0  0  0
  141.8470   72.7250  221.5020 N   0  0  0  0  0  0  0  0  0  0  0  0
  142.5050   73.7490  220.8980 C   0  0  0  0  0  0  0  0  0  0  0  0
  143.7720   73.5070  220.2560 N   0  0  0  0  0  0  0  0  0  0  0  0
  144.9930   74.0820  220.8270 C   0  0  0  0  0  0  0  0  0  0  0  0
  145.1639   75.0785  220.3936 H   0  0  0  0  0  0  0  0  0  0  0  0
  144.8777   74.1650  221.9178 H   0  0  0  0  0  0  0  0  0  0  0  0
  146.1930   73.1790  220.5140 C   0  0  0  0  0  0  0  0  0  0  0  0
  147.1163   73.6897  220.8250 H   0  0  0  0  0  0  0  0  0  0  0  0
  146.0676   72.2332  221.0616 H   0  0  0  0  0  0  0  0  0  0  0  0
  146.2740   72.8760  219.0780 N   0  0  0  0  0  0  0  0  0  0  0  0
  146.3930   73.7710  218.5470 H   0  0  0  0  0  0  0  0  0  0  0  0
  145.0520   72.2040  218.6150 C   0  0  0  0  0  0  0  0  0  0  0  0
  145.1421   71.9974  217.5383 H   0  0  0  0  0  0  0  0  0  0  0  0
  144.9333   71.2682  219.1809 H   0  0  0  0  0  0  0  0  0  0  0  0
  143.8140   73.0770  218.8550 C   0  0  0  0  0  0  0  0  0  0  0  0
  143.8593   73.9617  218.2029 H   0  0  0  0  0  0  0  0  0  0  0  0
  142.9094   72.4940  218.6273 H   0  0  0  0  0  0  0  0  0  0  0  0
  141.9410   74.9880  220.8740 N   0  0  0  0  0  0  0  0  0  0  0  0
  142.4020   75.7540  220.3380 H   0  0  0  0  0  0  0  0  0  0  0  0
  140.0090   77.2460  220.2120 C   0  0  0  0  0  0  0  0  0  0  0  0
  139.0438   77.7728  220.1843 H   0  0  0  0  0  0  0  0  0  0  0  0
  140.0611   76.5477  219.3637 H   0  0  0  0  0  0  0  0  0  0  0  0
  141.1520   78.2610  220.1210 C   0  0  0  0  0  0  0  0  0  0  0  0
  140.9085   78.9978  219.3413 H   0  0  0  0  0  0  0  0  0  0  0  0
  142.0721   77.7080  219.8811 H   0  0  0  0  0  0  0  0  0  0  0  0
  1  2  1  0
  2  3  2  0
  3  4  1  0
  3  5  1  0
  5  6  1  0
  5  7  2  0
  7  8  1  0
  8  9  2  0
  9 10  1  0
  8 11  1  0
 11 12  1  0
 11 13  1  0
 11 14  1  0
 14 15  1  0
 15 16  2  0
 16 17  1  0
 17 18  2  0
 18 19  1  0
 18 20  1  0
 20 21  1  0
 20 22  1  0
 20 23  1  0
 23 24  1  6
 23 25  1  0
 25 26  1  0
 25 27  1  0
 25 28  1  0
 28 29  1  0
 28 30  1  0
 30 31  1  0
 30 32  1  0
 30 33  1  0
 33 34  1  0
 33 35  1  0
 17 36  1  0
 36 37  2  0
 37 38  1  0
 38 39  1  0
 39 40  1  0
 39 41  1  0
 39 42  1  0
 42 43  1  0
 42 44  1  0
 42 45  1  0
 45 46  1  0
 45 47  1  0
 47 48  1  0
 47 49  1  0
 47 50  1  0
 50 51  1  0
 50 52  1  0
 37 53  1  0
 53 54  1  0
 14 55  1  0
 55 56  1  0
 55 57  1  0
 55 58  1  0
 58 59  1  0
 58 60  1  0
  9  2  1  0
 53 15  1  0
 58  7  1  0
 33 23  1  0
 50 38  1  0
M  CHG  1  18   1
M  END
>  <UniqueID>  (7) 
577

>  <SMILES>  (7) 
c1ccc2c(c1)CCN(c1n/c(=[NH+]\C[C@H]3CCNC3)nc(N3CCNCC3)[nH]1)C2

>  <Energy>  (7) 
69.15134877229967

>  <Genealogy>  (7) 
c1ccc2c(c1)CCN(c1nc([NH2+]CC3CCNC3)nc(N3CCNCC3)n1)C2 (protonated)
c1ccc2c(c1)CCN(c1nc(=[NH+]CC3CCNC3)nc(N3CCNCC3)[nH]1)C2 (tautomer)
c1ccc2c(c1)CCN(c1nc(=[NH+]C[C@H]3CCNC3)nc(N3CCNCC3)[nH]1)C2 (chirality)
c1ccc2c(c1)CCN(c1n/c(=[NH+]\C[C@H]3CCNC3)nc(N3CCNCC3)[nH]1)C2 (cis-trans isomerization)
c1ccc2c(c1)CCN(c1n/c(=[NH+]\C[C@H]3CCNC3)nc(N3CCNCC3)[nH]1)C2 (3D coordinates assigned)
c1ccc2c(c1)CCN(c1n/c(=[NH+]\C[C@H]3CCNC3)nc(N3CCNCC3)[nH]1)C2 (nonaromatic ring conformer: 69.15134877229967 kcal/mol)

>  <smiles>  (7) 
c1ccc2c(c1)CCN(c1nc(NCC3CCNC3)nc(N3CCNCC3)n1)C2

>  <score_type>  (7) 
oracle

>  <origin>  (7) 
autodockgpu

>  <m_score__min__energy>  (7) 
-9.3699999999999992

>  <m_primary>  (7) 
energy

>  <meeko>  (7) 
{"free_energy": -9.25, "intermolecular_energy": -10.75, "internal_energy": -0.41, "cluster_size": 20, "cluster_id": 1, "rank_in_cluster": 8}

>  <energy>  (7) 
-9.34

>  <cluster_rmsd>  (7) 
1.24

>  <rmsd>  (7) 
271.61

>  <cluster>  (7) 
1

$$$$
RHAOACRWGXEIGT-RVIFUEJZNA-O
     RDKit          3D

 60 64  0  0  0  0  0  0  0  0999 V2000
  141.8603   81.2221  224.8969 H   0  0  0  0  0  0  0  0  0  0  0  0
  141.7470   80.7080  223.9310 C   0  0  0  0  0  0  0  0  0  0  0  0
  142.4460   81.1650  222.8120 C   0  0  0  0  0  0  0  0  0  0  0  0
  143.1116   82.0364  222.8990 H   0  0  0  0  0  0  0  0  0  0  0  0
  142.3020   80.5180  221.5820 C   0  0  0  0  0  0  0  0  0  0  0  0
  142.8601   80.8800  220.7060 H   0  0  0  0  0  0  0  0  0  0  0  0
  141.4500   79.4090  221.4560 C   0  0  0  0  0  0  0  0  0  0  0  0
  140.7610   78.9310  222.6010 C   0  0  0  0  0  0  0  0  0  0  0  0
  140.9040   79.5990  223.8260 C   0  0  0  0  0  0  0  0  0  0  0  0
  140.3495   79.2478  224.7087 H   0  0  0  0  0  0  0  0  0  0  0  0
  139.7970   77.7760  222.4940 C   0  0  0  0  0  0  0  0  0  0  0  0
  138.7698   78.1636  222.4260 H   0  0  0  0  0  0  0  0  0  0  0  0
  139.8962   77.1384  223.3848 H   0  0  0  0  0  0  0  0  0  0  0  0
  140.0970   76.9840  221.2990 N   0  0  0  0  0  0  0  0  0  0  0  0
  140.6420   75.6540  221.3860 C   0  0  0  0  0  0  0  0  0  0  0  0
  139.9640   74.6960  222.0690 N   0  0  0  0  0  0  0  0  0  0  0  0
  140.4470   73.4280  222.1510 C   0  0  0  0  0  0  0  0  0  0  0  0
  139.7970   72.5000  222.7980 N   0  0  0  0  0  0  0  0  0  0  0  0
  138.7790   72.6440  222.9960 H   0  0  0  0  0  0  0  0  0  0  0  0
  140.4130   71.2870  223.3450 C   0  0  0  0  0  0  0  0  0  0  0  0
  140.0926   70.4182  222.7513 H   0  0  0  0  0  0  0  0  0  0  0  0
  141.5072   71.3910  223.3014 H   0  0  0  0  0  0  0  0  0  0  0  0
  139.9880   71.0850  224.8100 C   0  0  2  0  0  0  0  0  0  0  0  0
  139.0765   71.6967  224.8809 H   0  0  0  0  0  0  0  0  0  0  0  0
  141.0450   71.5150  225.8160 C   0  0  0  0  0  0  0  0  0  0  0  0
  140.9277   72.5830  226.0518 H   0  0  0  0  0  0  0  0  0  0  0  0
  142.0551   71.3646  225.4073 H   0  0  0  0  0  0  0  0  0  0  0  0
  140.8500   70.7110  227.0240 N   0  0  0  0  0  0  0  0  0  0  0  0
  141.7830   70.3680  227.3570 H   0  0  0  0  0  0  0  0  0  0  0  0
  140.0240   69.5580  226.6480 C   0  0  0  0  0  0  0  0  0  0  0  0
  139.0730   69.5863  227.2000 H   0  0  0  0  0  0  0  0  0  0  0  0
  140.5471   68.6219  226.8930 H   0  0  0  0  0  0  0  0  0  0  0  0
  139.7530   69.6300  225.1540 C   0  0  0  0  0  0  0  0  0  0  0  0
  138.7165   69.3375  224.9299 H   0  0  0  0  0  0  0  0  0  0  0  0
  140.3928   68.9487  224.5739 H   0  0  0  0  0  0  0  0  0  0  0  0
  141.6210   73.1250  221.5420 N   0  0  0  0  0  0  0  0  0  0  0  0
  142.3120   74.0720  220.8540 C   0  0  0  0  0  0  0  0  0  0  0  0
  143.5460   73.7230  220.1980 N   0  0  0  0  0  0  0  0  0  0  0  0
  144.8220   74.0860  220.8180 C   0  0  0  0  0  0  0  0  0  0  0  0
  145.1253   75.0844  220.4698 H   0  0  0  0  0  0  0  0  0  0  0  0
  144.7035   74.0927  221.9116 H   0  0  0  0  0  0  0  0  0  0  0  0
  145.9010   73.0640  220.4340 C   0  0  0  0  0  0  0  0  0  0  0  0
  146.8779   73.4234  220.7898 H   0  0  0  0  0  0  0  0  0  0  0  0
  145.6480   72.1001  220.8998 H   0  0  0  0  0  0  0  0  0  0  0  0
  145.9620   72.8740  218.9780 N   0  0  0  0  0  0  0  0  0  0  0  0
  146.2020   73.7870  218.5250 H   0  0  0  0  0  0  0  0  0  0  0  0
  144.6700   72.4070  218.4560 C   0  0  0  0  0  0  0  0  0  0  0  0
  144.7475   72.2818  217.3659 H   0  0  0  0  0  0  0  0  0  0  0  0
  144.4242   71.4502  218.9398 H   0  0  0  0  0  0  0  0  0  0  0  0
  143.5520   73.4090  218.7660 C   0  0  0  0  0  0  0  0  0  0  0  0
  143.7195   74.3317  218.1910 H   0  0  0  0  0  0  0  0  0  0  0  0
  142.5833   72.9681  218.4880 H   0  0  0  0  0  0  0  0  0  0  0  0
  141.8100   75.3340  220.7620 N   0  0  0  0  0  0  0  0  0  0  0  0
  142.2940   76.0390  220.1640 H   0  0  0  0  0  0  0  0  0  0  0  0
  140.1840   77.7300  220.0440 C   0  0  0  0  0  0  0  0  0  0  0  0
  139.2564   78.3002  219.8879 H   0  0  0  0  0  0  0  0  0  0  0  0
  140.3226   77.0333  219.2041 H   0  0  0  0  0  0  0  0  0  0  0  0
  141.3720   78.6920  220.1230 C   0  0  0  0  0  0  0  0  0  0  0  0
  141.2725   79.4418  219.3243 H   0  0  0  0  0  0  0  0  0  0  0  0
  142.2911   78.0986  220.0082 H   0  0  0  0  0  0  0  0  0  0  0  0
  1  2  1  0
  2  3  2  0
  3  4  1  0
  3  5  1  0
  5  6  1  0
  5  7  2  0
  7  8  1  0
  8  9  2  0
  9 10  1  0
  8 11  1  0
 11 12  1  0
 11 13  1  0
 11 14  1  0
 14 15  1  0
 15 16  2  0
 16 17  1  0
 17 18  2  0
 18 19  1  0
 18 20  1  0
 20 21  1  0
 20 22  1  0
 20 23  1  0
 23 24  1  1
 23 25  1  0
 25 26  1  0
 25 27  1  0
 25 28  1  0
 28 29  1  0
 28 30  1  0
 30 31  1  0
 30 32  1  0
 30 33  1  0
 33 34  1  0
 33 35  1  0
 17 36  1  0
 36 37  2  0
 37 38  1  0
 38 39  1  0
 39 40  1  0
 39 41  1  0
 39 42  1  0
 42 43  1  0
 42 44  1  0
 42 45  1  0
 45 46  1  0
 45 47  1  0
 47 48  1  0
 47 49  1  0
 47 50  1  0
 50 51  1  0
 50 52  1  0
 37 53  1  0
 53 54  1  0
 14 55  1  0
 55 56  1  0
 55 57  1  0
 55 58  1  0
 58 59  1  0
 58 60  1  0
  9  2  1  0
 53 15  1  0
 58  7  1  0
 33 23  1  0
 50 38  1  0
M  CHG  1  18   1
M  END
>  <UniqueID>  (8) 
577

>  <SMILES>  (8) 
c1ccc2c(c1)CCN(c1n/c(=[NH+]\C[C@H]3CCNC3)nc(N3CCNCC3)[nH]1)C2

>  <Energy>  (8) 
69.15134877229967

>  <Genealogy>  (8) 
c1ccc2c(c1)CCN(c1nc([NH2+]CC3CCNC3)nc(N3CCNCC3)n1)C2 (protonated)
c1ccc2c(c1)CCN(c1nc(=[NH+]CC3CCNC3)nc(N3CCNCC3)[nH]1)C2 (tautomer)
c1ccc2c(c1)CCN(c1nc(=[NH+]C[C@H]3CCNC3)nc(N3CCNCC3)[nH]1)C2 (chirality)
c1ccc2c(c1)CCN(c1n/c(=[NH+]\C[C@H]3CCNC3)nc(N3CCNCC3)[nH]1)C2 (cis-trans isomerization)
c1ccc2c(c1)CCN(c1n/c(=[NH+]\C[C@H]3CCNC3)nc(N3CCNCC3)[nH]1)C2 (3D coordinates assigned)
c1ccc2c(c1)CCN(c1n/c(=[NH+]\C[C@H]3CCNC3)nc(N3CCNCC3)[nH]1)C2 (nonaromatic ring conformer: 69.15134877229967 kcal/mol)

>  <smiles>  (8) 
c1ccc2c(c1)CCN(c1nc(NCC3CCNC3)nc(N3CCNCC3)n1)C2

>  <score_type>  (8) 
oracle

>  <origin>  (8) 
autodockgpu

>  <m_score__min__energy>  (8) 
-9.3699999999999992

>  <m_primary>  (8) 
energy

>  <meeko>  (8) 
{"free_energy": -9.36, "intermolecular_energy": -10.86, "internal_energy": -0.43, "cluster_size": 20, "cluster_id": 1, "rank_in_cluster": 3}

>  <energy>  (8) 
-9.25

>  <cluster_rmsd>  (8) 
1.24

>  <rmsd>  (8) 
271.62

>  <cluster>  (8) 
1

$$$$
RHAOACRWGXEIGT-RVIFUEJZNA-O
     RDKit          3D

 60 64  0  0  0  0  0  0  0  0999 V2000
  142.2389   80.8390  224.7963 H   0  0  0  0  0  0  0  0  0  0  0  0
  142.0010   80.3220  223.8550 C   0  0  0  0  0  0  0  0  0  0  0  0
  142.4920   80.8160  222.6450 C   0  0  0  0  0  0  0  0  0  0  0  0
  143.1183   81.7202  222.6355 H   0  0  0  0  0  0  0  0  0  0  0  0
  142.1900   80.1650  221.4460 C   0  0  0  0  0  0  0  0  0  0  0  0
  142.5858   80.5564  220.4972 H   0  0  0  0  0  0  0  0  0  0  0  0
  141.3850   79.0150  221.4440 C   0  0  0  0  0  0  0  0  0  0  0  0
  140.9080   78.5000  222.6770 C   0  0  0  0  0  0  0  0  0  0  0  0
  141.2080   79.1720  223.8720 C   0  0  0  0  0  0  0  0  0  0  0  0
  140.8167   78.7912  224.8269 H   0  0  0  0  0  0  0  0  0  0  0  0
  139.9980   77.2980  222.7110 C   0  0  0  0  0  0  0  0  0  0  0  0
  138.9547   77.6330  222.8080 H   0  0  0  0  0  0  0  0  0  0  0  0
  140.2665   76.6646  223.5693 H   0  0  0  0  0  0  0  0  0  0  0  0
  140.1470   76.5250  221.4760 N   0  0  0  0  0  0  0  0  0  0  0  0
  140.7640   75.2240  221.4630 C   0  0  0  0  0  0  0  0  0  0  0  0
  140.1210   74.1720  222.0330 N   0  0  0  0  0  0  0  0  0  0  0  0
  140.6730   72.9300  222.0190 C   0  0  0  0  0  0  0  0  0  0  0  0
  140.0580   71.9130  222.5570 N   0  0  0  0  0  0  0  0  0  0  0  0
  139.5400   71.2520  221.9330 H   0  0  0  0  0  0  0  0  0  0  0  0
  139.9710   71.6680  224.0010 C   0  0  0  0  0  0  0  0  0  0  0  0
  140.7887   72.2001  224.5091 H   0  0  0  0  0  0  0  0  0  0  0  0
  138.9994   72.0313  224.3672 H   0  0  0  0  0  0  0  0  0  0  0  0
  140.0850   70.1630  224.2960 C   0  0  2  0  0  0  0  0  0  0  0  0
  140.8118   69.8265  223.5420 H   0  0  0  0  0  0  0  0  0  0  0  0
  138.7620   69.4190  224.1890 C   0  0  0  0  0  0  0  0  0  0  0  0
  138.6012   69.0845  223.1535 H   0  0  0  0  0  0  0  0  0  0  0  0
  137.9239   70.0735  224.4706 H   0  0  0  0  0  0  0  0  0  0  0  0
  138.8380   68.2630  225.0820 N   0  0  0  0  0  0  0  0  0  0  0  0
  137.9450   68.1950  225.6260 H   0  0  0  0  0  0  0  0  0  0  0  0
  139.9460   68.5060  226.0120 C   0  0  0  0  0  0  0  0  0  0  0  0
  140.7204   67.7365  225.8767 H   0  0  0  0  0  0  0  0  0  0  0  0
  139.5846   68.4649  227.0501 H   0  0  0  0  0  0  0  0  0  0  0  0
  140.5280   69.8780  225.7150 C   0  0  0  0  0  0  0  0  0  0  0  0
  141.6256   69.8611  225.7863 H   0  0  0  0  0  0  0  0  0  0  0  0
  140.1894   70.6452  226.4269 H   0  0  0  0  0  0  0  0  0  0  0  0
  141.8810   72.7480  221.4280 N   0  0  0  0  0  0  0  0  0  0  0  0
  142.5370   73.7890  220.8520 C   0  0  0  0  0  0  0  0  0  0  0  0
  143.8080   73.5690  220.2120 N   0  0  0  0  0  0  0  0  0  0  0  0
  145.0290   74.0950  220.8280 C   0  0  0  0  0  0  0  0  0  0  0  0
  145.2170   75.1121  220.4536 H   0  0  0  0  0  0  0  0  0  0  0  0
  144.9018   74.1174  221.9204 H   0  0  0  0  0  0  0  0  0  0  0  0
  146.2220   73.1960  220.4780 C   0  0  0  0  0  0  0  0  0  0  0  0
  147.1475   73.6761  220.8287 H   0  0  0  0  0  0  0  0  0  0  0  0
  146.0786   72.2221  220.9689 H   0  0  0  0  0  0  0  0  0  0  0  0
  146.3170   72.9750  219.0280 N   0  0  0  0  0  0  0  0  0  0  0  0
  146.4530   73.8980  218.5500 H   0  0  0  0  0  0  0  0  0  0  0  0
  145.0920   72.3470  218.5120 C   0  0  0  0  0  0  0  0  0  0  0  0
  145.1926   72.2031  217.4261 H   0  0  0  0  0  0  0  0  0  0  0  0
  144.9551   71.3811  219.0203 H   0  0  0  0  0  0  0  0  0  0  0  0
  143.8620   73.2200  218.7890 C   0  0  0  0  0  0  0  0  0  0  0  0
  143.9256   74.1403  218.1899 H   0  0  0  0  0  0  0  0  0  0  0  0
  142.9535   72.6621  218.5182 H   0  0  0  0  0  0  0  0  0  0  0  0
  141.9670   75.0260  220.8550 N   0  0  0  0  0  0  0  0  0  0  0  0
  142.4280   75.8070  220.3390 H   0  0  0  0  0  0  0  0  0  0  0  0
  139.9990   77.2770  220.2300 C   0  0  0  0  0  0  0  0  0  0  0  0
  139.0312   77.7999  220.2264 H   0  0  0  0  0  0  0  0  0  0  0  0
  140.0385   76.5900  219.3718 H   0  0  0  0  0  0  0  0  0  0  0  0
  141.1360   78.2980  220.1320 C   0  0  0  0  0  0  0  0  0  0  0  0
  140.8760   79.0435  219.3661 H   0  0  0  0  0  0  0  0  0  0  0  0
  142.0542   77.7524  219.8690 H   0  0  0  0  0  0  0  0  0  0  0  0
  1  2  1  0
  2  3  2  0
  3  4  1  0
  3  5  1  0
  5  6  1  0
  5  7  2  0
  7  8  1  0
  8  9  2  0
  9 10  1  0
  8 11  1  0
 11 12  1  0
 11 13  1  0
 11 14  1  0
 14 15  1  0
 15 16  2  0
 16 17  1  0
 17 18  2  0
 18 19  1  0
 18 20  1  0
 20 21  1  0
 20 22  1  0
 20 23  1  0
 23 24  1  6
 23 25  1  0
 25 26  1  0
 25 27  1  0
 25 28  1  0
 28 29  1  0
 28 30  1  0
 30 31  1  0
 30 32  1  0
 30 33  1  0
 33 34  1  0
 33 35  1  0
 17 36  1  0
 36 37  2  0
 37 38  1  0
 38 39  1  0
 39 40  1  0
 39 41  1  0
 39 42  1  0
 42 43  1  0
 42 44  1  0
 42 45  1  0
 45 46  1  0
 45 47  1  0
 47 48  1  0
 47 49  1  0
 47 50  1  0
 50 51  1  0
 50 52  1  0
 37 53  1  0
 53 54  1  0
 14 55  1  0
 55 56  1  0
 55 57  1  0
 55 58  1  0
 58 59  1  0
 58 60  1  0
  9  2  1  0
 53 15  1  0
 58  7  1  0
 33 23  1  0
 50 38  1  0
M  CHG  1  18   1
M  END
>  <UniqueID>  (9) 
577

>  <SMILES>  (9) 
c1ccc2c(c1)CCN(c1n/c(=[NH+]\C[C@H]3CCNC3)nc(N3CCNCC3)[nH]1)C2

>  <Energy>  (9) 
69.15134877229967

>  <Genealogy>  (9) 
c1ccc2c(c1)CCN(c1nc([NH2+]CC3CCNC3)nc(N3CCNCC3)n1)C2 (protonated)
c1ccc2c(c1)CCN(c1nc(=[NH+]CC3CCNC3)nc(N3CCNCC3)[nH]1)C2 (tautomer)
c1ccc2c(c1)CCN(c1nc(=[NH+]C[C@H]3CCNC3)nc(N3CCNCC3)[nH]1)C2 (chirality)
c1ccc2c(c1)CCN(c1n/c(=[NH+]\C[C@H]3CCNC3)nc(N3CCNCC3)[nH]1)C2 (cis-trans isomerization)
c1ccc2c(c1)CCN(c1n/c(=[NH+]\C[C@H]3CCNC3)nc(N3CCNCC3)[nH]1)C2 (3D coordinates assigned)
c1ccc2c(c1)CCN(c1n/c(=[NH+]\C[C@H]3CCNC3)nc(N3CCNCC3)[nH]1)C2 (nonaromatic ring conformer: 69.15134877229967 kcal/mol)

>  <smiles>  (9) 
c1ccc2c(c1)CCN(c1nc(NCC3CCNC3)nc(N3CCNCC3)n1)C2

>  <score_type>  (9) 
oracle

>  <origin>  (9) 
autodockgpu

>  <m_score__min__energy>  (9) 
-9.3699999999999992

>  <m_primary>  (9) 
energy

>  <meeko>  (9) 
{"free_energy": -9.35, "intermolecular_energy": -10.84, "internal_energy": -0.41, "cluster_size": 20, "cluster_id": 1, "rank_in_cluster": 6}

>  <energy>  (9) 
-9.25

>  <cluster_rmsd>  (9) 
0.94

>  <rmsd>  (9) 
271.96

>  <cluster>  (9) 
1

$$$$
RHAOACRWGXEIGT-RVIFUEJZNA-O
     RDKit          3D

 60 64  0  0  0  0  0  0  0  0999 V2000
  142.3553   80.7276  224.6261 H   0  0  0  0  0  0  0  0  0  0  0  0
  142.0640   80.2050  223.7030 C   0  0  0  0  0  0  0  0  0  0  0  0
  142.4440   80.7190  222.4620 C   0  0  0  0  0  0  0  0  0  0  0  0
  143.0354   81.6450  222.4095 H   0  0  0  0  0  0  0  0  0  0  0  0
  142.0750   80.0600  221.2860 C   0  0  0  0  0  0  0  0  0  0  0  0
  142.3836   80.4669  220.3117 H   0  0  0  0  0  0  0  0  0  0  0  0
  141.3130   78.8820  221.3400 C   0  0  0  0  0  0  0  0  0  0  0  0
  140.9490   78.3480  222.6030 C   0  0  0  0  0  0  0  0  0  0  0  0
  141.3150   79.0290  223.7750 C   0  0  0  0  0  0  0  0  0  0  0  0
  141.0100   78.6338  224.7552 H   0  0  0  0  0  0  0  0  0  0  0  0
  140.0870   77.1150  222.7010 C   0  0  0  0  0  0  0  0  0  0  0  0
  139.0432   77.4128  222.8791 H   0  0  0  0  0  0  0  0  0  0  0  0
  140.4423   76.4898  223.5334 H   0  0  0  0  0  0  0  0  0  0  0  0
  140.1680   76.3500  221.4540 N   0  0  0  0  0  0  0  0  0  0  0  0
  140.8280   75.0710  221.3890 C   0  0  0  0  0  0  0  0  0  0  0  0
  140.2500   73.9890  221.9710 N   0  0  0  0  0  0  0  0  0  0  0  0
  140.8420   72.7680  221.9080 C   0  0  0  0  0  0  0  0  0  0  0  0
  140.2890   71.7210  222.4570 N   0  0  0  0  0  0  0  0  0  0  0  0
  140.2890   70.8170  221.9300 H   0  0  0  0  0  0  0  0  0  0  0  0
  139.5880   71.7370  223.7460 C   0  0  0  0  0  0  0  0  0  0  0  0
  140.3256   71.8045  224.5593 H   0  0  0  0  0  0  0  0  0  0  0  0
  138.9136   72.6055  223.7755 H   0  0  0  0  0  0  0  0  0  0  0  0
  138.7580   70.4530  223.9190 C   0  0  2  0  0  0  0  0  0  0  0  0
  137.7888   70.8411  224.2655 H   0  0  0  0  0  0  0  0  0  0  0  0
  139.3650   69.4630  224.9030 C   0  0  0  0  0  0  0  0  0  0  0  0
  139.0180   69.6855  225.9228 H   0  0  0  0  0  0  0  0  0  0  0  0
  140.4630   69.5291  224.8937 H   0  0  0  0  0  0  0  0  0  0  0  0
  138.9240   68.1260  224.5050 N   0  0  0  0  0  0  0  0  0  0  0  0
  139.7450   67.4750  224.5380 H   0  0  0  0  0  0  0  0  0  0  0  0
  138.4440   68.2220  223.1220 C   0  0  0  0  0  0  0  0  0  0  0  0
  137.3746   67.9674  223.0811 H   0  0  0  0  0  0  0  0  0  0  0  0
  138.9984   67.5222  222.4794 H   0  0  0  0  0  0  0  0  0  0  0  0
  138.6510   69.6490  222.6420 C   0  0  0  0  0  0  0  0  0  0  0  0
  137.7957   69.9863  222.0381 H   0  0  0  0  0  0  0  0  0  0  0  0
  139.5375   69.7551  221.9995 H   0  0  0  0  0  0  0  0  0  0  0  0
  142.0260   72.6370  221.2570 N   0  0  0  0  0  0  0  0  0  0  0  0
  142.6170   73.7090  220.6680 C   0  0  0  0  0  0  0  0  0  0  0  0
  143.8620   73.5440  219.9640 N   0  0  0  0  0  0  0  0  0  0  0  0
  145.1220   73.5400  220.7120 C   0  0  0  0  0  0  0  0  0  0  0  0
  145.5051   74.5685  220.7857 H   0  0  0  0  0  0  0  0  0  0  0  0
  144.9426   73.1355  221.7191 H   0  0  0  0  0  0  0  0  0  0  0  0
  146.1560   72.6630  219.9940 C   0  0  0  0  0  0  0  0  0  0  0  0
  147.1312   72.7807  220.4891 H   0  0  0  0  0  0  0  0  0  0  0  0
  145.8183   71.6173  220.0431 H   0  0  0  0  0  0  0  0  0  0  0  0
  146.2880   73.0420  218.5800 N   0  0  0  0  0  0  0  0  0  0  0  0
  146.6080   74.0380  218.5220 H   0  0  0  0  0  0  0  0  0  0  0  0
  145.0010   72.9130  217.8810 C   0  0  0  0  0  0  0  0  0  0  0  0
  145.1323   73.2095  216.8299 H   0  0  0  0  0  0  0  0  0  0  0  0
  144.6704   71.8662  217.9503 H   0  0  0  0  0  0  0  0  0  0  0  0
  143.9300   73.8040  218.5220 C   0  0  0  0  0  0  0  0  0  0  0  0
  144.1858   74.8605  218.3535 H   0  0  0  0  0  0  0  0  0  0  0  0
  142.9536   73.5808  218.0673 H   0  0  0  0  0  0  0  0  0  0  0  0
  142.0060   74.9250  220.7200 N   0  0  0  0  0  0  0  0  0  0  0  0
  142.4140   75.7300  220.1970 H   0  0  0  0  0  0  0  0  0  0  0  0
  139.9000   77.0980  220.2270 C   0  0  0  0  0  0  0  0  0  0  0  0
  138.9169   77.5863  220.2989 H   0  0  0  0  0  0  0  0  0  0  0  0
  139.8985   76.4144  219.3652 H   0  0  0  0  0  0  0  0  0  0  0  0
  140.9900   78.1590  220.0480 C   0  0  0  0  0  0  0  0  0  0  0  0
  140.6466   78.8963  219.3074 H   0  0  0  0  0  0  0  0  0  0  0  0
  141.9042   77.6464  219.7140 H   0  0  0  0  0  0  0  0  0  0  0  0
  1  2  1  0
  2  3  2  0
  3  4  1  0
  3  5  1  0
  5  6  1  0
  5  7  2  0
  7  8  1  0
  8  9  2  0
  9 10  1  0
  8 11  1  0
 11 12  1  0
 11 13  1  0
 11 14  1  0
 14 15  1  0
 15 16  2  0
 16 17  1  0
 17 18  2  0
 18 19  1  0
 18 20  1  0
 20 21  1  0
 20 22  1  0
 20 23  1  0
 23 24  1  1
 23 25  1  0
 25 26  1  0
 25 27  1  0
 25 28  1  0
 28 29  1  0
 28 30  1  0
 30 31  1  0
 30 32  1  0
 30 33  1  0
 33 34  1  0
 33 35  1  0
 17 36  1  0
 36 37  2  0
 37 38  1  0
 38 39  1  0
 39 40  1  0
 39 41  1  0
 39 42  1  0
 42 43  1  0
 42 44  1  0
 42 45  1  0
 45 46  1  0
 45 47  1  0
 47 48  1  0
 47 49  1  0
 47 50  1  0
 50 51  1  0
 50 52  1  0
 37 53  1  0
 53 54  1  0
 14 55  1  0
 55 56  1  0
 55 57  1  0
 55 58  1  0
 58 59  1  0
 58 60  1  0
  9  2  1  0
 53 15  1  0
 58  7  1  0
 33 23  1  0
 50 38  1  0
M  CHG  1  18   1
M  END
>  <UniqueID>  (10) 
577

>  <SMILES>  (10) 
c1ccc2c(c1)CCN(c1n/c(=[NH+]\C[C@H]3CCNC3)nc(N3CCNCC3)[nH]1)C2

>  <Energy>  (10) 
69.15134877229967

>  <Genealogy>  (10) 
c1ccc2c(c1)CCN(c1nc([NH2+]CC3CCNC3)nc(N3CCNCC3)n1)C2 (protonated)
c1ccc2c(c1)CCN(c1nc(=[NH+]CC3CCNC3)nc(N3CCNCC3)[nH]1)C2 (tautomer)
c1ccc2c(c1)CCN(c1nc(=[NH+]C[C@H]3CCNC3)nc(N3CCNCC3)[nH]1)C2 (chirality)
c1ccc2c(c1)CCN(c1n/c(=[NH+]\C[C@H]3CCNC3)nc(N3CCNCC3)[nH]1)C2 (cis-trans isomerization)
c1ccc2c(c1)CCN(c1n/c(=[NH+]\C[C@H]3CCNC3)nc(N3CCNCC3)[nH]1)C2 (3D coordinates assigned)
c1ccc2c(c1)CCN(c1n/c(=[NH+]\C[C@H]3CCNC3)nc(N3CCNCC3)[nH]1)C2 (nonaromatic ring conformer: 69.15134877229967 kcal/mol)

>  <smiles>  (10) 
c1ccc2c(c1)CCN(c1nc(NCC3CCNC3)nc(N3CCNCC3)n1)C2

>  <score_type>  (10) 
oracle

>  <origin>  (10) 
autodockgpu

>  <m_score__min__energy>  (10) 
-9.3699999999999992

>  <m_primary>  (10) 
energy

>  <meeko>  (10) 
{"free_energy": -8.56, "intermolecular_energy": -10.05, "internal_energy": -0.37, "cluster_size": 20, "cluster_id": 1, "rank_in_cluster": 17}

>  <energy>  (10) 
-9.21

>  <cluster_rmsd>  (10) 
0.85

>  <rmsd>  (10) 
271.82

>  <cluster>  (10) 
1

$$$$
RHAOACRWGXEIGT-RVIFUEJZNA-O
     RDKit          3D

 60 64  0  0  0  0  0  0  0  0999 V2000
  142.2568   80.9464  225.1884 H   0  0  0  0  0  0  0  0  0  0  0  0
  142.0870   80.4880  224.2030 C   0  0  0  0  0  0  0  0  0  0  0  0
  142.7620   80.9750  223.0820 C   0  0  0  0  0  0  0  0  0  0  0  0
  143.4663   81.8135  223.1868 H   0  0  0  0  0  0  0  0  0  0  0  0
  142.5450   80.4000  221.8280 C   0  0  0  0  0  0  0  0  0  0  0  0
  143.0836   80.7862  220.9501 H   0  0  0  0  0  0  0  0  0  0  0  0
  141.6450   79.3330  221.6790 C   0  0  0  0  0  0  0  0  0  0  0  0
  140.9800   78.8220  222.8240 C   0  0  0  0  0  0  0  0  0  0  0  0
  141.1960   79.4190  224.0750 C   0  0  0  0  0  0  0  0  0  0  0  0
  140.6612   79.0437  224.9599 H   0  0  0  0  0  0  0  0  0  0  0  0
  139.9670   77.7130  222.6980 C   0  0  0  0  0  0  0  0  0  0  0  0
  138.9545   78.1429  222.6904 H   0  0  0  0  0  0  0  0  0  0  0  0
  140.0732   77.0268  223.5512 H   0  0  0  0  0  0  0  0  0  0  0  0
  140.1900   76.9730  221.4530 N   0  0  0  0  0  0  0  0  0  0  0  0
  140.6830   75.6200  221.4500 C   0  0  0  0  0  0  0  0  0  0  0  0
  139.9420   74.6360  222.0220 N   0  0  0  0  0  0  0  0  0  0  0  0
  140.3750   73.3480  222.0170 C   0  0  0  0  0  0  0  0  0  0  0  0
  139.6650   72.3960  222.5560 N   0  0  0  0  0  0  0  0  0  0  0  0
  138.8310   72.6560  223.1340 H   0  0  0  0  0  0  0  0  0  0  0  0
  139.9970   70.9700  222.4770 C   0  0  0  0  0  0  0  0  0  0  0  0
  139.1383   70.4203  222.0642 H   0  0  0  0  0  0  0  0  0  0  0  0
  140.8749   70.8435  221.8264 H   0  0  0  0  0  0  0  0  0  0  0  0
  140.3280   70.4180  223.8750 C   0  0  2  0  0  0  0  0  0  0  0  0
  141.1890   69.7630  223.6757 H   0  0  0  0  0  0  0  0  0  0  0  0
  139.1750   69.6660  224.5220 C   0  0  0  0  0  0  0  0  0  0  0  0
  139.2031   68.6071  224.2255 H   0  0  0  0  0  0  0  0  0  0  0  0
  138.2095   70.0850  224.2022 H   0  0  0  0  0  0  0  0  0  0  0  0
  139.3350   69.7840  225.9710 N   0  0  0  0  0  0  0  0  0  0  0  0
  138.4060   70.0140  226.3970 H   0  0  0  0  0  0  0  0  0  0  0  0
  140.2610   70.8960  226.2160 C   0  0  0  0  0  0  0  0  0  0  0  0
  141.1655   70.5229  226.7187 H   0  0  0  0  0  0  0  0  0  0  0  0
  139.7853   71.6504  226.8599 H   0  0  0  0  0  0  0  0  0  0  0  0
  140.6340   71.5110  224.8760 C   0  0  0  0  0  0  0  0  0  0  0  0
  141.7011   71.7768  224.8510 H   0  0  0  0  0  0  0  0  0  0  0  0
  140.0846   72.4412  224.6690 H   0  0  0  0  0  0  0  0  0  0  0  0
  141.5650   73.0510  221.4350 N   0  0  0  0  0  0  0  0  0  0  0  0
  142.3180   74.0230  220.8580 C   0  0  0  0  0  0  0  0  0  0  0  0
  143.5670   73.6820  220.2270 N   0  0  0  0  0  0  0  0  0  0  0  0
  144.8270   74.1160  220.8360 C   0  0  0  0  0  0  0  0  0  0  0  0
  145.1010   75.1053  220.4408 H   0  0  0  0  0  0  0  0  0  0  0  0
  144.7004   74.1726  221.9272 H   0  0  0  0  0  0  0  0  0  0  0  0
  145.9400   73.1120  220.5090 C   0  0  0  0  0  0  0  0  0  0  0  0
  146.9022   73.5199  220.8522 H   0  0  0  0  0  0  0  0  0  0  0  0
  145.7132   72.1648  221.0202 H   0  0  0  0  0  0  0  0  0  0  0  0
  146.0190   72.8510  219.0650 N   0  0  0  0  0  0  0  0  0  0  0  0
  146.2330   73.7480  218.5680 H   0  0  0  0  0  0  0  0  0  0  0  0
  144.7460   72.3170  218.5600 C   0  0  0  0  0  0  0  0  0  0  0  0
  144.8353   72.1399  217.4780 H   0  0  0  0  0  0  0  0  0  0  0  0
  144.5274   71.3783  219.0901 H   0  0  0  0  0  0  0  0  0  0  0  0
  143.5940   73.2970  218.8130 C   0  0  0  0  0  0  0  0  0  0  0  0
  143.7362   74.1947  218.1934 H   0  0  0  0  0  0  0  0  0  0  0  0
  142.6421   72.8115  218.5520 H   0  0  0  0  0  0  0  0  0  0  0  0
  141.8660   75.3070  220.8510 N   0  0  0  0  0  0  0  0  0  0  0  0
  142.4010   76.0390  220.3350 H   0  0  0  0  0  0  0  0  0  0  0  0
  140.2600   77.7800  220.2350 C   0  0  0  0  0  0  0  0  0  0  0  0
  139.3512   78.3932  220.1450 H   0  0  0  0  0  0  0  0  0  0  0  0
  140.3382   77.1237  219.3557 H   0  0  0  0  0  0  0  0  0  0  0  0
  141.4890   78.6900  220.3160 C   0  0  0  0  0  0  0  0  0  0  0  0
  141.3910   79.4835  219.5606 H   0  0  0  0  0  0  0  0  0  0  0  0
  142.3782   78.0681  220.1356 H   0  0  0  0  0  0  0  0  0  0  0  0
  1  2  1  0
  2  3  2  0
  3  4  1  0
  3  5  1  0
  5  6  1  0
  5  7  2  0
  7  8  1  0
  8  9  2  0
  9 10  1  0
  8 11  1  0
 11 12  1  0
 11 13  1  0
 11 14  1  0
 14 15  1  0
 15 16  2  0
 16 17  1  0
 17 18  2  0
 18 19  1  0
 18 20  1  0
 20 21  1  0
 20 22  1  0
 20 23  1  0
 23 24  1  6
 23 25  1  0
 25 26  1  0
 25 27  1  0
 25 28  1  0
 28 29  1  0
 28 30  1  0
 30 31  1  0
 30 32  1  0
 30 33  1  0
 33 34  1  0
 33 35  1  0
 17 36  1  0
 36 37  2  0
 37 38  1  0
 38 39  1  0
 39 40  1  0
 39 41  1  0
 39 42  1  0
 42 43  1  0
 42 44  1  0
 42 45  1  0
 45 46  1  0
 45 47  1  0
 47 48  1  0
 47 49  1  0
 47 50  1  0
 50 51  1  0
 50 52  1  0
 37 53  1  0
 53 54  1  0
 14 55  1  0
 55 56  1  0
 55 57  1  0
 55 58  1  0
 58 59  1  0
 58 60  1  0
  9  2  1  0
 53 15  1  0
 58  7  1  0
 33 23  1  0
 50 38  1  0
M  CHG  1  18   1
M  END
>  <UniqueID>  (11) 
577

>  <SMILES>  (11) 
c1ccc2c(c1)CCN(c1n/c(=[NH+]\C[C@H]3CCNC3)nc(N3CCNCC3)[nH]1)C2

>  <Energy>  (11) 
69.15134877229967

>  <Genealogy>  (11) 
c1ccc2c(c1)CCN(c1nc([NH2+]CC3CCNC3)nc(N3CCNCC3)n1)C2 (protonated)
c1ccc2c(c1)CCN(c1nc(=[NH+]CC3CCNC3)nc(N3CCNCC3)[nH]1)C2 (tautomer)
c1ccc2c(c1)CCN(c1nc(=[NH+]C[C@H]3CCNC3)nc(N3CCNCC3)[nH]1)C2 (chirality)
c1ccc2c(c1)CCN(c1n/c(=[NH+]\C[C@H]3CCNC3)nc(N3CCNCC3)[nH]1)C2 (cis-trans isomerization)
c1ccc2c(c1)CCN(c1n/c(=[NH+]\C[C@H]3CCNC3)nc(N3CCNCC3)[nH]1)C2 (3D coordinates assigned)
c1ccc2c(c1)CCN(c1n/c(=[NH+]\C[C@H]3CCNC3)nc(N3CCNCC3)[nH]1)C2 (nonaromatic ring conformer: 69.15134877229967 kcal/mol)

>  <smiles>  (11) 
c1ccc2c(c1)CCN(c1nc(NCC3CCNC3)nc(N3CCNCC3)n1)C2

>  <score_type>  (11) 
oracle

>  <origin>  (11) 
autodockgpu

>  <m_score__min__energy>  (11) 
-9.3699999999999992

>  <m_primary>  (11) 
energy

>  <meeko>  (11) 
{"free_energy": -9.02, "intermolecular_energy": -10.51, "internal_energy": -0.53, "cluster_size": 20, "cluster_id": 1, "rank_in_cluster": 13}

>  <energy>  (11) 
-9.18

>  <cluster_rmsd>  (11) 
0.87

>  <rmsd>  (11) 
271.85

>  <cluster>  (11) 
1

$$$$
RHAOACRWGXEIGT-RVIFUEJZNA-O
     RDKit          3D

 60 64  0  0  0  0  0  0  0  0999 V2000
  142.4060   80.7955  224.6820 H   0  0  0  0  0  0  0  0  0  0  0  0
  142.1150   80.2780  223.7560 C   0  0  0  0  0  0  0  0  0  0  0  0
  142.5380   80.7710  222.5200 C   0  0  0  0  0  0  0  0  0  0  0  0
  143.1643   81.6741  222.4743 H   0  0  0  0  0  0  0  0  0  0  0  0
  142.1670   80.1190  221.3410 C   0  0  0  0  0  0  0  0  0  0  0  0
  142.5076   80.5099  220.3709 H   0  0  0  0  0  0  0  0  0  0  0  0
  141.3630   78.9690  221.3850 C   0  0  0  0  0  0  0  0  0  0  0  0
  140.9560   78.4560  222.6440 C   0  0  0  0  0  0  0  0  0  0  0  0
  141.3230   79.1290  223.8190 C   0  0  0  0  0  0  0  0  0  0  0  0
  140.9854   78.7500  224.7949 H   0  0  0  0  0  0  0  0  0  0  0  0
  140.0490   77.2550  222.7310 C   0  0  0  0  0  0  0  0  0  0  0  0
  139.0131   77.5909  222.8865 H   0  0  0  0  0  0  0  0  0  0  0  0
  140.3656   76.6226  223.5735 H   0  0  0  0  0  0  0  0  0  0  0  0
  140.1270   76.4800  221.4910 N   0  0  0  0  0  0  0  0  0  0  0  0
  140.7420   75.1780  221.4440 C   0  0  0  0  0  0  0  0  0  0  0  0
  140.0910   74.1110  221.9750 N   0  0  0  0  0  0  0  0  0  0  0  0
  140.6400   72.8690  221.9290 C   0  0  0  0  0  0  0  0  0  0  0  0
  140.0170   71.8380  222.4290 N   0  0  0  0  0  0  0  0  0  0  0  0
  139.6240   71.1220  221.7740 H   0  0  0  0  0  0  0  0  0  0  0  0
  139.7530   71.6430  223.8590 C   0  0  0  0  0  0  0  0  0  0  0  0
  140.4381   72.2746  224.4436 H   0  0  0  0  0  0  0  0  0  0  0  0
  138.7099   71.9207  224.0706 H   0  0  0  0  0  0  0  0  0  0  0  0
  139.9660   70.1700  224.2470 C   0  0  2  0  0  0  0  0  0  0  0  0
  140.7214   69.8381  223.5195 H   0  0  0  0  0  0  0  0  0  0  0  0
  138.6980   69.3320  224.1780 C   0  0  0  0  0  0  0  0  0  0  0  0
  138.5707   68.9250  223.1640 H   0  0  0  0  0  0  0  0  0  0  0  0
  137.8144   69.9432  224.4140 H   0  0  0  0  0  0  0  0  0  0  0  0
  138.8440   68.2400  225.1410 N   0  0  0  0  0  0  0  0  0  0  0  0
  137.9520   68.1450  225.6820 H   0  0  0  0  0  0  0  0  0  0  0  0
  139.9230   68.6160  226.0620 C   0  0  0  0  0  0  0  0  0  0  0  0
  140.7496   67.8948  225.9805 H   0  0  0  0  0  0  0  0  0  0  0  0
  139.5540   68.6145  227.0983 H   0  0  0  0  0  0  0  0  0  0  0  0
  140.4130   70.0040  225.6830 C   0  0  0  0  0  0  0  0  0  0  0  0
  141.5084   70.0670  225.7614 H   0  0  0  0  0  0  0  0  0  0  0  0
  140.0156   70.7885  226.3437 H   0  0  0  0  0  0  0  0  0  0  0  0
  141.8540   72.7020  221.3460 N   0  0  0  0  0  0  0  0  0  0  0  0
  142.5180   73.7590  220.8090 C   0  0  0  0  0  0  0  0  0  0  0  0
  143.7960   73.5550  220.1760 N   0  0  0  0  0  0  0  0  0  0  0  0
  145.0090   74.0720  220.8140 C   0  0  0  0  0  0  0  0  0  0  0  0
  145.1970   75.0973  220.4626 H   0  0  0  0  0  0  0  0  0  0  0  0
  144.8718   74.0716  221.9054 H   0  0  0  0  0  0  0  0  0  0  0  0
  146.2080   73.1840  220.4560 C   0  0  0  0  0  0  0  0  0  0  0  0
  147.1287   73.6596  220.8248 H   0  0  0  0  0  0  0  0  0  0  0  0
  146.0630   72.1998  220.9253 H   0  0  0  0  0  0  0  0  0  0  0  0
  146.3170   72.9930  219.0030 N   0  0  0  0  0  0  0  0  0  0  0  0
  146.4540   73.9260  218.5460 H   0  0  0  0  0  0  0  0  0  0  0  0
  145.0990   72.3710  218.4640 C   0  0  0  0  0  0  0  0  0  0  0  0
  145.2097   72.2484  217.3765 H   0  0  0  0  0  0  0  0  0  0  0  0
  144.9608   71.3949  218.9520 H   0  0  0  0  0  0  0  0  0  0  0  0
  143.8640   73.2350  218.7470 C   0  0  0  0  0  0  0  0  0  0  0  0
  143.9305   74.1674  218.1672 H   0  0  0  0  0  0  0  0  0  0  0  0
  142.9596   72.6803  218.4566 H   0  0  0  0  0  0  0  0  0  0  0  0
  141.9500   74.9960  220.8430 N   0  0  0  0  0  0  0  0  0  0  0  0
  142.4180   75.7920  220.3580 H   0  0  0  0  0  0  0  0  0  0  0  0
  139.9090   77.2300  220.2540 C   0  0  0  0  0  0  0  0  0  0  0  0
  138.9427   77.7533  220.3041 H   0  0  0  0  0  0  0  0  0  0  0  0
  139.8995   76.5418  219.3959 H   0  0  0  0  0  0  0  0  0  0  0  0
  141.0390   78.2500  220.0910 C   0  0  0  0  0  0  0  0  0  0  0  0
  140.7365   78.9946  219.3399 H   0  0  0  0  0  0  0  0  0  0  0  0
  141.9405   77.7029  219.7779 H   0  0  0  0  0  0  0  0  0  0  0  0
  1  2  1  0
  2  3  2  0
  3  4  1  0
  3  5  1  0
  5  6  1  0
  5  7  2  0
  7  8  1  0
  8  9  2  0
  9 10  1  0
  8 11  1  0
 11 12  1  0
 11 13  1  0
 11 14  1  0
 14 15  1  0
 15 16  2  0
 16 17  1  0
 17 18  2  0
 18 19  1  0
 18 20  1  0
 20 21  1  0
 20 22  1  0
 20 23  1  0
 23 24  1  6
 23 25  1  0
 25 26  1  0
 25 27  1  0
 25 28  1  0
 28 29  1  0
 28 30  1  0
 30 31  1  0
 30 32  1  0
 30 33  1  0
 33 34  1  0
 33 35  1  0
 17 36  1  0
 36 37  2  0
 37 38  1  0
 38 39  1  0
 39 40  1  0
 39 41  1  0
 39 42  1  0
 42 43  1  0
 42 44  1  0
 42 45  1  0
 45 46  1  0
 45 47  1  0
 47 48  1  0
 47 49  1  0
 47 50  1  0
 50 51  1  0
 50 52  1  0
 37 53  1  0
 53 54  1  0
 14 55  1  0
 55 56  1  0
 55 57  1  0
 55 58  1  0
 58 59  1  0
 58 60  1  0
  9  2  1  0
 53 15  1  0
 58  7  1  0
 33 23  1  0
 50 38  1  0
M  CHG  1  18   1
M  END
>  <UniqueID>  (12) 
577

>  <SMILES>  (12) 
c1ccc2c(c1)CCN(c1n/c(=[NH+]\C[C@H]3CCNC3)nc(N3CCNCC3)[nH]1)C2

>  <Energy>  (12) 
69.15134877229967

>  <Genealogy>  (12) 
c1ccc2c(c1)CCN(c1nc([NH2+]CC3CCNC3)nc(N3CCNCC3)n1)C2 (protonated)
c1ccc2c(c1)CCN(c1nc(=[NH+]CC3CCNC3)nc(N3CCNCC3)[nH]1)C2 (tautomer)
c1ccc2c(c1)CCN(c1nc(=[NH+]C[C@H]3CCNC3)nc(N3CCNCC3)[nH]1)C2 (chirality)
c1ccc2c(c1)CCN(c1n/c(=[NH+]\C[C@H]3CCNC3)nc(N3CCNCC3)[nH]1)C2 (cis-trans isomerization)
c1ccc2c(c1)CCN(c1n/c(=[NH+]\C[C@H]3CCNC3)nc(N3CCNCC3)[nH]1)C2 (3D coordinates assigned)
c1ccc2c(c1)CCN(c1n/c(=[NH+]\C[C@H]3CCNC3)nc(N3CCNCC3)[nH]1)C2 (nonaromatic ring conformer: 69.15134877229967 kcal/mol)

>  <smiles>  (12) 
c1ccc2c(c1)CCN(c1nc(NCC3CCNC3)nc(N3CCNCC3)n1)C2

>  <score_type>  (12) 
oracle

>  <origin>  (12) 
autodockgpu

>  <m_score__min__energy>  (12) 
-9.3699999999999992

>  <m_primary>  (12) 
energy

>  <meeko>  (12) 
{"free_energy": -9.35, "intermolecular_energy": -10.84, "internal_energy": -0.42, "cluster_size": 20, "cluster_id": 1, "rank_in_cluster": 5}

>  <energy>  (12) 
-9.07

>  <cluster_rmsd>  (12) 
0.92

>  <rmsd>  (12) 
271.89

>  <cluster>  (12) 
1

$$$$
RHAOACRWGXEIGT-RVIFUEJZNA-O
     RDKit          3D

 60 64  0  0  0  0  0  0  0  0999 V2000
  141.7226   81.2248  224.8507 H   0  0  0  0  0  0  0  0  0  0  0  0
  141.6320   80.7040  223.8860 C   0  0  0  0  0  0  0  0  0  0  0  0
  142.3490   81.1600  222.7780 C   0  0  0  0  0  0  0  0  0  0  0  0
  143.0065   82.0368  222.8725 H   0  0  0  0  0  0  0  0  0  0  0  0
  142.2330   80.5050  221.5500 C   0  0  0  0  0  0  0  0  0  0  0  0
  142.8046   80.8667  220.6825 H   0  0  0  0  0  0  0  0  0  0  0  0
  141.3930   79.3890  221.4140 C   0  0  0  0  0  0  0  0  0  0  0  0
  140.6850   78.9110  222.5480 C   0  0  0  0  0  0  0  0  0  0  0  0
  140.8000   79.5880  223.7720 C   0  0  0  0  0  0  0  0  0  0  0  0
  140.2318   79.2377  224.6463 H   0  0  0  0  0  0  0  0  0  0  0  0
  139.7330   77.7490  222.4300 C   0  0  0  0  0  0  0  0  0  0  0  0
  138.7044   78.1282  222.3399 H   0  0  0  0  0  0  0  0  0  0  0  0
  139.8199   77.1177  223.3266 H   0  0  0  0  0  0  0  0  0  0  0  0
  140.0620   76.9520  221.2460 N   0  0  0  0  0  0  0  0  0  0  0  0
  140.6160   75.6270  221.3500 C   0  0  0  0  0  0  0  0  0  0  0  0
  139.9430   74.6730  222.0450 N   0  0  0  0  0  0  0  0  0  0  0  0
  140.4340   73.4100  222.1440 C   0  0  0  0  0  0  0  0  0  0  0  0
  139.7900   72.4860  222.8020 N   0  0  0  0  0  0  0  0  0  0  0  0
  138.7670   72.6180  222.9840 H   0  0  0  0  0  0  0  0  0  0  0  0
  140.4170   71.2950  223.3850 C   0  0  0  0  0  0  0  0  0  0  0  0
  140.1258   70.4096  222.8008 H   0  0  0  0  0  0  0  0  0  0  0  0
  141.5096   71.4205  223.3629 H   0  0  0  0  0  0  0  0  0  0  0  0
  139.9660   71.1100  224.8440 C   0  0  2  0  0  0  0  0  0  0  0  0
  139.0699   71.7457  224.8987 H   0  0  0  0  0  0  0  0  0  0  0  0
  141.0190   71.5160  225.8630 C   0  0  0  0  0  0  0  0  0  0  0  0
  140.9272   72.5879  226.0922 H   0  0  0  0  0  0  0  0  0  0  0  0
  142.0305   71.3363  225.4699 H   0  0  0  0  0  0  0  0  0  0  0  0
  140.7850   70.7240  227.0710 N   0  0  0  0  0  0  0  0  0  0  0  0
  141.7030   70.3580  227.4190 H   0  0  0  0  0  0  0  0  0  0  0  0
  139.9340   69.5920  226.6890 C   0  0  0  0  0  0  0  0  0  0  0  0
  138.9762   69.6487  227.2269 H   0  0  0  0  0  0  0  0  0  0  0  0
  140.4277   68.6433  226.9463 H   0  0  0  0  0  0  0  0  0  0  0  0
  139.6870   69.6640  225.1910 C   0  0  0  0  0  0  0  0  0  0  0  0
  138.6464   69.3984  224.9529 H   0  0  0  0  0  0  0  0  0  0  0  0
  140.3167   68.9630  224.6235 H   0  0  0  0  0  0  0  0  0  0  0  0
  141.6120   73.1070  221.5420 N   0  0  0  0  0  0  0  0  0  0  0  0
  142.2970   74.0490  220.8420 C   0  0  0  0  0  0  0  0  0  0  0  0
  143.5340   73.7000  220.1920 N   0  0  0  0  0  0  0  0  0  0  0  0
  144.8080   74.0470  220.8280 C   0  0  0  0  0  0  0  0  0  0  0  0
  145.1210   75.0475  220.4948 H   0  0  0  0  0  0  0  0  0  0  0  0
  144.6799   74.0411  221.9205 H   0  0  0  0  0  0  0  0  0  0  0  0
  145.8830   73.0230  220.4410 C   0  0  0  0  0  0  0  0  0  0  0  0
  146.8590   73.3715  220.8097 H   0  0  0  0  0  0  0  0  0  0  0  0
  145.6191   72.0553  220.8926 H   0  0  0  0  0  0  0  0  0  0  0  0
  145.9560   72.8500  218.9830 N   0  0  0  0  0  0  0  0  0  0  0  0
  146.2050   73.7670  218.5430 H   0  0  0  0  0  0  0  0  0  0  0  0
  144.6650   72.3970  218.4440 C   0  0  0  0  0  0  0  0  0  0  0  0
  144.7511   72.2846  217.3532 H   0  0  0  0  0  0  0  0  0  0  0  0
  144.4091   71.4358  218.9138 H   0  0  0  0  0  0  0  0  0  0  0  0
  143.5500   73.4030  218.7570 C   0  0  0  0  0  0  0  0  0  0  0  0
  143.7280   74.3314  218.1944 H   0  0  0  0  0  0  0  0  0  0  0  0
  142.5810   72.9715  218.4658 H   0  0  0  0  0  0  0  0  0  0  0  0
  141.7870   75.3060  220.7320 N   0  0  0  0  0  0  0  0  0  0  0  0
  142.2670   76.0060  220.1260 H   0  0  0  0  0  0  0  0  0  0  0  0
  140.1670   77.6910  219.9880 C   0  0  0  0  0  0  0  0  0  0  0  0
  139.2381   78.2528  219.8106 H   0  0  0  0  0  0  0  0  0  0  0  0
  140.3269   76.9905  219.1551 H   0  0  0  0  0  0  0  0  0  0  0  0
  141.3460   78.6630  220.0840 C   0  0  0  0  0  0  0  0  0  0  0  0
  141.2562   79.4071  219.2789 H   0  0  0  0  0  0  0  0  0  0  0  0
  142.2716   78.0760  219.9907 H   0  0  0  0  0  0  0  0  0  0  0  0
  1  2  1  0
  2  3  2  0
  3  4  1  0
  3  5  1  0
  5  6  1  0
  5  7  2  0
  7  8  1  0
  8  9  2  0
  9 10  1  0
  8 11  1  0
 11 12  1  0
 11 13  1  0
 11 14  1  0
 14 15  1  0
 15 16  2  0
 16 17  1  0
 17 18  2  0
 18 19  1  0
 18 20  1  0
 20 21  1  0
 20 22  1  0
 20 23  1  0
 23 24  1  1
 23 25  1  0
 25 26  1  0
 25 27  1  0
 25 28  1  0
 28 29  1  0
 28 30  1  0
 30 31  1  0
 30 32  1  0
 30 33  1  0
 33 34  1  0
 33 35  1  0
 17 36  1  0
 36 37  2  0
 37 38  1  0
 38 39  1  0
 39 40  1  0
 39 41  1  0
 39 42  1  0
 42 43  1  0
 42 44  1  0
 42 45  1  0
 45 46  1  0
 45 47  1  0
 47 48  1  0
 47 49  1  0
 47 50  1  0
 50 51  1  0
 50 52  1  0
 37 53  1  0
 53 54  1  0
 14 55  1  0
 55 56  1  0
 55 57  1  0
 55 58  1  0
 58 59  1  0
 58 60  1  0
  9  2  1  0
 53 15  1  0
 58  7  1  0
 33 23  1  0
 50 38  1  0
M  CHG  1  18   1
M  END
>  <UniqueID>  (13) 
577

>  <SMILES>  (13) 
c1ccc2c(c1)CCN(c1n/c(=[NH+]\C[C@H]3CCNC3)nc(N3CCNCC3)[nH]1)C2

>  <Energy>  (13) 
69.15134877229967

>  <Genealogy>  (13) 
c1ccc2c(c1)CCN(c1nc([NH2+]CC3CCNC3)nc(N3CCNCC3)n1)C2 (protonated)
c1ccc2c(c1)CCN(c1nc(=[NH+]CC3CCNC3)nc(N3CCNCC3)[nH]1)C2 (tautomer)
c1ccc2c(c1)CCN(c1nc(=[NH+]C[C@H]3CCNC3)nc(N3CCNCC3)[nH]1)C2 (chirality)
c1ccc2c(c1)CCN(c1n/c(=[NH+]\C[C@H]3CCNC3)nc(N3CCNCC3)[nH]1)C2 (cis-trans isomerization)
c1ccc2c(c1)CCN(c1n/c(=[NH+]\C[C@H]3CCNC3)nc(N3CCNCC3)[nH]1)C2 (3D coordinates assigned)
c1ccc2c(c1)CCN(c1n/c(=[NH+]\C[C@H]3CCNC3)nc(N3CCNCC3)[nH]1)C2 (nonaromatic ring conformer: 69.15134877229967 kcal/mol)

>  <smiles>  (13) 
c1ccc2c(c1)CCN(c1nc(NCC3CCNC3)nc(N3CCNCC3)n1)C2

>  <score_type>  (13) 
oracle

>  <origin>  (13) 
autodockgpu

>  <m_score__min__energy>  (13) 
-9.3699999999999992

>  <m_primary>  (13) 
energy

>  <meeko>  (13) 
{"free_energy": -9.37, "intermolecular_energy": -10.86, "internal_energy": -0.42, "cluster_size": 20, "cluster_id": 1, "rank_in_cluster": 2}

>  <energy>  (13) 
-9.02

>  <cluster_rmsd>  (13) 
0.83

>  <rmsd>  (13) 
271.79

>  <cluster>  (13) 
1

$$$$
RHAOACRWGXEIGT-RVIFUEJZNA-O
     RDKit          3D

 60 64  0  0  0  0  0  0  0  0999 V2000
  142.0893   80.7309  224.7557 H   0  0  0  0  0  0  0  0  0  0  0  0
  141.8610   80.2030  223.8180 C   0  0  0  0  0  0  0  0  0  0  0  0
  142.2990   80.7250  222.6000 C   0  0  0  0  0  0  0  0  0  0  0  0
  142.8741   81.6625  222.5800 H   0  0  0  0  0  0  0  0  0  0  0  0
  142.0090   80.0600  221.4060 C   0  0  0  0  0  0  0  0  0  0  0  0
  142.3625   80.4745  220.4504 H   0  0  0  0  0  0  0  0  0  0  0  0
  141.2700   78.8670  221.4170 C   0  0  0  0  0  0  0  0  0  0  0  0
  140.8470   78.3240  222.6580 C   0  0  0  0  0  0  0  0  0  0  0  0
  141.1330   79.0110  223.8480 C   0  0  0  0  0  0  0  0  0  0  0  0
  140.7820   78.6086  224.8097 H   0  0  0  0  0  0  0  0  0  0  0  0
  140.0070   77.0740  222.7080 C   0  0  0  0  0  0  0  0  0  0  0  0
  138.9490   77.3502  222.8273 H   0  0  0  0  0  0  0  0  0  0  0  0
  140.3284   76.4558  223.5591 H   0  0  0  0  0  0  0  0  0  0  0  0
  140.1730   76.3110  221.4680 N   0  0  0  0  0  0  0  0  0  0  0  0
  140.8610   75.0470  221.4400 C   0  0  0  0  0  0  0  0  0  0  0  0
  140.3210   73.9760  222.0770 N   0  0  0  0  0  0  0  0  0  0  0  0
  140.9410   72.7670  222.0510 C   0  0  0  0  0  0  0  0  0  0  0  0
  140.4240   71.7320  222.6540 N   0  0  0  0  0  0  0  0  0  0  0  0
  140.3990   70.8160  222.1480 H   0  0  0  0  0  0  0  0  0  0  0  0
  139.7950   71.7740  223.9780 C   0  0  0  0  0  0  0  0  0  0  0  0
  139.7521   72.8166  224.3260 H   0  0  0  0  0  0  0  0  0  0  0  0
  138.7793   71.3582  223.9040 H   0  0  0  0  0  0  0  0  0  0  0  0
  140.6050   70.9370  224.9830 C   0  0  2  0  0  0  0  0  0  0  0  0
  141.5084   70.6839  224.4087 H   0  0  0  0  0  0  0  0  0  0  0  0
  139.8730   69.6970  225.4740 C   0  0  0  0  0  0  0  0  0  0  0  0
  140.0652   68.8531  224.7951 H   0  0  0  0  0  0  0  0  0  0  0  0
  138.7874   69.8720  225.5025 H   0  0  0  0  0  0  0  0  0  0  0  0
  140.3830   69.3900  226.8110 N   0  0  0  0  0  0  0  0  0  0  0  0
  139.5740   69.1700  227.4400 H   0  0  0  0  0  0  0  0  0  0  0  0
  141.0590   70.5960  227.3040 C   0  0  0  0  0  0  0  0  0  0  0  0
  142.1259   70.3836  227.4671 H   0  0  0  0  0  0  0  0  0  0  0  0
  140.6129   70.9171  228.2568 H   0  0  0  0  0  0  0  0  0  0  0  0
  140.9070   71.6900  226.2610 C   0  0  0  0  0  0  0  0  0  0  0  0
  141.8370   72.2692  226.1633 H   0  0  0  0  0  0  0  0  0  0  0  0
  140.1227   72.4165  226.5202 H   0  0  0  0  0  0  0  0  0  0  0  0
  142.1130   72.6370  221.3800 N   0  0  0  0  0  0  0  0  0  0  0  0
  142.6670   73.6980  220.7360 C   0  0  0  0  0  0  0  0  0  0  0  0
  143.9000   73.5320  220.0120 N   0  0  0  0  0  0  0  0  0  0  0  0
  145.1750   73.8040  220.6820 C   0  0  0  0  0  0  0  0  0  0  0  0
  145.4418   74.8620  220.5422 H   0  0  0  0  0  0  0  0  0  0  0  0
  145.0736   73.5840  221.7550 H   0  0  0  0  0  0  0  0  0  0  0  0
  146.2780   72.9190  220.0880 C   0  0  0  0  0  0  0  0  0  0  0  0
  147.2485   73.2302  220.5018 H   0  0  0  0  0  0  0  0  0  0  0  0
  146.0607   71.8726  220.3484 H   0  0  0  0  0  0  0  0  0  0  0  0
  146.3240   73.0320  218.6230 N   0  0  0  0  0  0  0  0  0  0  0  0
  146.5280   74.0270  218.3650 H   0  0  0  0  0  0  0  0  0  0  0  0
  145.0390   72.6380  218.0280 C   0  0  0  0  0  0  0  0  0  0  0  0
  145.1036   72.7403  216.9347 H   0  0  0  0  0  0  0  0  0  0  0  0
  144.8307   71.5950  218.3087 H   0  0  0  0  0  0  0  0  0  0  0  0
  143.8940   73.5180  218.5460 C   0  0  0  0  0  0  0  0  0  0  0  0
  144.0239   74.5439  218.1708 H   0  0  0  0  0  0  0  0  0  0  0  0
  142.9354   73.1112  218.1914 H   0  0  0  0  0  0  0  0  0  0  0  0
  142.0280   74.9000  220.7520 N   0  0  0  0  0  0  0  0  0  0  0  0
  142.4060   75.6920  220.1880 H   0  0  0  0  0  0  0  0  0  0  0  0
  139.9580   77.0550  220.2280 C   0  0  0  0  0  0  0  0  0  0  0  0
  138.9627   77.5231  220.2456 H   0  0  0  0  0  0  0  0  0  0  0  0
  140.0182   76.3724  219.3675 H   0  0  0  0  0  0  0  0  0  0  0  0
  141.0340   78.1380  220.1090 C   0  0  0  0  0  0  0  0  0  0  0  0
  140.7171   78.8685  219.3501 H   0  0  0  0  0  0  0  0  0  0  0  0
  141.9756   77.6445  219.8264 H   0  0  0  0  0  0  0  0  0  0  0  0
  1  2  1  0
  2  3  2  0
  3  4  1  0
  3  5  1  0
  5  6  1  0
  5  7  2  0
  7  8  1  0
  8  9  2  0
  9 10  1  0
  8 11  1  0
 11 12  1  0
 11 13  1  0
 11 14  1  0
 14 15  1  0
 15 16  2  0
 16 17  1  0
 17 18  2  0
 18 19  1  0
 18 20  1  0
 20 21  1  0
 20 22  1  0
 20 23  1  0
 23 24  1  6
 23 25  1  0
 25 26  1  0
 25 27  1  0
 25 28  1  0
 28 29  1  0
 28 30  1  0
 30 31  1  0
 30 32  1  0
 30 33  1  0
 33 34  1  0
 33 35  1  0
 17 36  1  0
 36 37  2  0
 37 38  1  0
 38 39  1  0
 39 40  1  0
 39 41  1  0
 39 42  1  0
 42 43  1  0
 42 44  1  0
 42 45  1  0
 45 46  1  0
 45 47  1  0
 47 48  1  0
 47 49  1  0
 47 50  1  0
 50 51  1  0
 50 52  1  0
 37 53  1  0
 53 54  1  0
 14 55  1  0
 55 56  1  0
 55 57  1  0
 55 58  1  0
 58 59  1  0
 58 60  1  0
  9  2  1  0
 53 15  1  0
 58  7  1  0
 33 23  1  0
 50 38  1  0
M  CHG  1  18   1
M  END
>  <UniqueID>  (14) 
577

>  <SMILES>  (14) 
c1ccc2c(c1)CCN(c1n/c(=[NH+]\C[C@H]3CCNC3)nc(N3CCNCC3)[nH]1)C2

>  <Energy>  (14) 
69.15134877229967

>  <Genealogy>  (14) 
c1ccc2c(c1)CCN(c1nc([NH2+]CC3CCNC3)nc(N3CCNCC3)n1)C2 (protonated)
c1ccc2c(c1)CCN(c1nc(=[NH+]CC3CCNC3)nc(N3CCNCC3)[nH]1)C2 (tautomer)
c1ccc2c(c1)CCN(c1nc(=[NH+]C[C@H]3CCNC3)nc(N3CCNCC3)[nH]1)C2 (chirality)
c1ccc2c(c1)CCN(c1n/c(=[NH+]\C[C@H]3CCNC3)nc(N3CCNCC3)[nH]1)C2 (cis-trans isomerization)
c1ccc2c(c1)CCN(c1n/c(=[NH+]\C[C@H]3CCNC3)nc(N3CCNCC3)[nH]1)C2 (3D coordinates assigned)
c1ccc2c(c1)CCN(c1n/c(=[NH+]\C[C@H]3CCNC3)nc(N3CCNCC3)[nH]1)C2 (nonaromatic ring conformer: 69.15134877229967 kcal/mol)

>  <smiles>  (14) 
c1ccc2c(c1)CCN(c1nc(NCC3CCNC3)nc(N3CCNCC3)n1)C2

>  <score_type>  (14) 
oracle

>  <origin>  (14) 
autodockgpu

>  <m_score__min__energy>  (14) 
-9.3699999999999992

>  <m_primary>  (14) 
energy

>  <meeko>  (14) 
{"free_energy": -9.07, "intermolecular_energy": -10.56, "internal_energy": -0.46, "cluster_size": 20, "cluster_id": 1, "rank_in_cluster": 12}

>  <energy>  (14) 
-8.76

>  <cluster_rmsd>  (14) 
0.89

>  <rmsd>  (14) 
271.66

>  <cluster>  (14) 
1

$$$$
RHAOACRWGXEIGT-RVIFUEJZNA-O
     RDKit          3D

 60 64  0  0  0  0  0  0  0  0999 V2000
  142.2882   80.8528  224.8034 H   0  0  0  0  0  0  0  0  0  0  0  0
  142.0450   80.3420  223.8600 C   0  0  0  0  0  0  0  0  0  0  0  0
  142.5050   80.8610  222.6480 C   0  0  0  0  0  0  0  0  0  0  0  0
  143.1121   81.7783  222.6390 H   0  0  0  0  0  0  0  0  0  0  0  0
  142.1960   80.2180  221.4470 C   0  0  0  0  0  0  0  0  0  0  0  0
  142.5663   80.6295  220.4965 H   0  0  0  0  0  0  0  0  0  0  0  0
  141.4160   79.0500  221.4440 C   0  0  0  0  0  0  0  0  0  0  0  0
  140.9720   78.5110  222.6790 C   0  0  0  0  0  0  0  0  0  0  0  0
  141.2770   79.1760  223.8770 C   0  0  0  0  0  0  0  0  0  0  0  0
  140.9092   78.7767  224.8337 H   0  0  0  0  0  0  0  0  0  0  0  0
  140.0880   77.2900  222.7150 C   0  0  0  0  0  0  0  0  0  0  0  0
  139.0398   77.6018  222.8337 H   0  0  0  0  0  0  0  0  0  0  0  0
  140.3842   76.6529  223.5614 H   0  0  0  0  0  0  0  0  0  0  0  0
  140.2320   76.5340  221.4680 N   0  0  0  0  0  0  0  0  0  0  0  0
  140.8770   75.2470  221.4290 C   0  0  0  0  0  0  0  0  0  0  0  0
  140.2930   74.1860  222.0450 N   0  0  0  0  0  0  0  0  0  0  0  0
  140.8700   72.9570  222.0090 C   0  0  0  0  0  0  0  0  0  0  0  0
  140.3110   71.9320  222.5910 N   0  0  0  0  0  0  0  0  0  0  0  0
  140.9170   71.1370  222.9000 H   0  0  0  0  0  0  0  0  0  0  0  0
  138.8650   71.7740  222.7770 C   0  0  0  0  0  0  0  0  0  0  0  0
  138.4127   72.7605  222.9564 H   0  0  0  0  0  0  0  0  0  0  0  0
  138.4361   71.3207  221.8711 H   0  0  0  0  0  0  0  0  0  0  0  0
  138.5760   70.8580  223.9780 C   0  0  2  0  0  0  0  0  0  0  0  0
  137.6457   71.2829  224.3829 H   0  0  0  0  0  0  0  0  0  0  0  0
  139.6940   70.8360  225.0100 C   0  0  0  0  0  0  0  0  0  0  0  0
  139.5476   71.6453  225.7404 H   0  0  0  0  0  0  0  0  0  0  0  0
  140.6714   70.9838  224.5274 H   0  0  0  0  0  0  0  0  0  0  0  0
  139.6410   69.5380  225.6840 N   0  0  0  0  0  0  0  0  0  0  0  0
  140.6130   69.1560  225.7600 H   0  0  0  0  0  0  0  0  0  0  0  0
  138.8400   68.6440  224.8390 C   0  0  0  0  0  0  0  0  0  0  0  0
  137.9392   68.3254  225.3840 H   0  0  0  0  0  0  0  0  0  0  0  0
  139.4246   67.7516  224.5712 H   0  0  0  0  0  0  0  0  0  0  0  0
  138.4400   69.4030  223.5850 C   0  0  0  0  0  0  0  0  0  0  0  0
  137.4031   69.1700  223.3011 H   0  0  0  0  0  0  0  0  0  0  0  0
  139.0600   69.1399  222.7153 H   0  0  0  0  0  0  0  0  0  0  0  0
  142.0450   72.7960  221.3490 N   0  0  0  0  0  0  0  0  0  0  0  0
  142.6430   73.8460  220.7260 C   0  0  0  0  0  0  0  0  0  0  0  0
  143.8790   73.6470  220.0140 N   0  0  0  0  0  0  0  0  0  0  0  0
  145.1380   74.0990  220.6120 C   0  0  0  0  0  0  0  0  0  0  0  0
  145.3346   75.1374  220.3068 H   0  0  0  0  0  0  0  0  0  0  0  0
  145.0593   74.0418  221.7077 H   0  0  0  0  0  0  0  0  0  0  0  0
  146.2920   73.2030  220.1410 C   0  0  0  0  0  0  0  0  0  0  0  0
  147.2439   73.6349  220.4837 H   0  0  0  0  0  0  0  0  0  0  0  0
  146.1462   72.1980  220.5637 H   0  0  0  0  0  0  0  0  0  0  0  0
  146.3170   73.0910  218.6760 N   0  0  0  0  0  0  0  0  0  0  0  0
  146.4550   74.0440  218.2630 H   0  0  0  0  0  0  0  0  0  0  0  0
  145.0560   72.5300  218.1710 C   0  0  0  0  0  0  0  0  0  0  0  0
  145.1055   72.4663  217.0740 H   0  0  0  0  0  0  0  0  0  0  0  0
  144.9177   71.5316  218.6116 H   0  0  0  0  0  0  0  0  0  0  0  0
  143.8610   73.4060  218.5680 C   0  0  0  0  0  0  0  0  0  0  0  0
  143.9209   74.3675  218.0370 H   0  0  0  0  0  0  0  0  0  0  0  0
  142.9277   72.8903  218.2979 H   0  0  0  0  0  0  0  0  0  0  0  0
  142.0460   75.0690  220.7530 N   0  0  0  0  0  0  0  0  0  0  0  0
  142.4580   75.8560  220.2050 H   0  0  0  0  0  0  0  0  0  0  0  0
  140.0470   77.2970  220.2340 C   0  0  0  0  0  0  0  0  0  0  0  0
  139.0684   77.7991  220.2530 H   0  0  0  0  0  0  0  0  0  0  0  0
  140.0865   76.6210  219.3672 H   0  0  0  0  0  0  0  0  0  0  0  0
  141.1600   78.3430  220.1290 C   0  0  0  0  0  0  0  0  0  0  0  0
  140.8712   79.0913  219.3763 H   0  0  0  0  0  0  0  0  0  0  0  0
  142.0850   77.8201  219.8445 H   0  0  0  0  0  0  0  0  0  0  0  0
  1  2  1  0
  2  3  2  0
  3  4  1  0
  3  5  1  0
  5  6  1  0
  5  7  2  0
  7  8  1  0
  8  9  2  0
  9 10  1  0
  8 11  1  0
 11 12  1  0
 11 13  1  0
 11 14  1  0
 14 15  1  0
 15 16  2  0
 16 17  1  0
 17 18  2  0
 18 19  1  0
 18 20  1  0
 20 21  1  0
 20 22  1  0
 20 23  1  0
 23 24  1  1
 23 25  1  0
 25 26  1  0
 25 27  1  0
 25 28  1  0
 28 29  1  0
 28 30  1  0
 30 31  1  0
 30 32  1  0
 30 33  1  0
 33 34  1  0
 33 35  1  0
 17 36  1  0
 36 37  2  0
 37 38  1  0
 38 39  1  0
 39 40  1  0
 39 41  1  0
 39 42  1  0
 42 43  1  0
 42 44  1  0
 42 45  1  0
 45 46  1  0
 45 47  1  0
 47 48  1  0
 47 49  1  0
 47 50  1  0
 50 51  1  0
 50 52  1  0
 37 53  1  0
 53 54  1  0
 14 55  1  0
 55 56  1  0
 55 57  1  0
 55 58  1  0
 58 59  1  0
 58 60  1  0
  9  2  1  0
 53 15  1  0
 58  7  1  0
 33 23  1  0
 50 38  1  0
M  CHG  1  18   1
M  END
>  <UniqueID>  (15) 
577

>  <SMILES>  (15) 
c1ccc2c(c1)CCN(c1n/c(=[NH+]\C[C@H]3CCNC3)nc(N3CCNCC3)[nH]1)C2

>  <Energy>  (15) 
69.15134877229967

>  <Genealogy>  (15) 
c1ccc2c(c1)CCN(c1nc([NH2+]CC3CCNC3)nc(N3CCNCC3)n1)C2 (protonated)
c1ccc2c(c1)CCN(c1nc(=[NH+]CC3CCNC3)nc(N3CCNCC3)[nH]1)C2 (tautomer)
c1ccc2c(c1)CCN(c1nc(=[NH+]C[C@H]3CCNC3)nc(N3CCNCC3)[nH]1)C2 (chirality)
c1ccc2c(c1)CCN(c1n/c(=[NH+]\C[C@H]3CCNC3)nc(N3CCNCC3)[nH]1)C2 (cis-trans isomerization)
c1ccc2c(c1)CCN(c1n/c(=[NH+]\C[C@H]3CCNC3)nc(N3CCNCC3)[nH]1)C2 (3D coordinates assigned)
c1ccc2c(c1)CCN(c1n/c(=[NH+]\C[C@H]3CCNC3)nc(N3CCNCC3)[nH]1)C2 (nonaromatic ring conformer: 69.15134877229967 kcal/mol)

>  <smiles>  (15) 
c1ccc2c(c1)CCN(c1nc(NCC3CCNC3)nc(N3CCNCC3)n1)C2

>  <score_type>  (15) 
oracle

>  <origin>  (15) 
autodockgpu

>  <m_score__min__energy>  (15) 
-9.3699999999999992

>  <m_primary>  (15) 
energy

>  <meeko>  (15) 
{"free_energy": -8.48, "intermolecular_energy": -9.97, "internal_energy": -0.45, "cluster_size": 20, "cluster_id": 1, "rank_in_cluster": 18}

>  <energy>  (15) 
-8.73

>  <cluster_rmsd>  (15) 
1.51

>  <rmsd>  (15) 
271.47

>  <cluster>  (15) 
1

$$$$
RHAOACRWGXEIGT-RVIFUEJZNA-O
     RDKit          3D

 60 64  0  0  0  0  0  0  0  0999 V2000
  141.7046   81.2655  224.8033 H   0  0  0  0  0  0  0  0  0  0  0  0
  141.6220   80.7390  223.8410 C   0  0  0  0  0  0  0  0  0  0  0  0
  142.3420   81.1930  222.7350 C   0  0  0  0  0  0  0  0  0  0  0  0
  142.9940   82.0740  222.8282 H   0  0  0  0  0  0  0  0  0  0  0  0
  142.2360   80.5300  221.5090 C   0  0  0  0  0  0  0  0  0  0  0  0
  142.8095   80.8901  220.6421 H   0  0  0  0  0  0  0  0  0  0  0  0
  141.4030   79.4080  221.3760 C   0  0  0  0  0  0  0  0  0  0  0  0
  140.6920   78.9340  222.5090 C   0  0  0  0  0  0  0  0  0  0  0  0
  140.7970   79.6180  223.7290 C   0  0  0  0  0  0  0  0  0  0  0  0
  140.2263   79.2694  224.6024 H   0  0  0  0  0  0  0  0  0  0  0  0
  139.7470   77.7650  222.3930 C   0  0  0  0  0  0  0  0  0  0  0  0
  138.7165   78.1374  222.2959 H   0  0  0  0  0  0  0  0  0  0  0  0
  139.8332   77.1392  223.2935 H   0  0  0  0  0  0  0  0  0  0  0  0
  140.0870   76.9630  221.2140 N   0  0  0  0  0  0  0  0  0  0  0  0
  140.6470   75.6420  221.3300 C   0  0  0  0  0  0  0  0  0  0  0  0
  139.9790   74.6900  222.0310 N   0  0  0  0  0  0  0  0  0  0  0  0
  140.4760   73.4300  222.1400 C   0  0  0  0  0  0  0  0  0  0  0  0
  139.8360   72.5080  222.8050 N   0  0  0  0  0  0  0  0  0  0  0  0
  138.8250   72.6610  223.0310 H   0  0  0  0  0  0  0  0  0  0  0  0
  140.4560   71.2890  223.3360 C   0  0  0  0  0  0  0  0  0  0  0  0
  140.1440   70.4283  222.7262 H   0  0  0  0  0  0  0  0  0  0  0  0
  141.5498   71.4002  223.3007 H   0  0  0  0  0  0  0  0  0  0  0  0
  140.0240   71.0600  224.7950 C   0  0  2  0  0  0  0  0  0  0  0  0
  139.1356   71.7024  224.8851 H   0  0  0  0  0  0  0  0  0  0  0  0
  141.0970   71.4210  225.8110 C   0  0  0  0  0  0  0  0  0  0  0  0
  141.0196   72.4853  226.0781 H   0  0  0  0  0  0  0  0  0  0  0  0
  142.1006   71.2454  225.3963 H   0  0  0  0  0  0  0  0  0  0  0  0
  140.8730   70.5900  226.9950 N   0  0  0  0  0  0  0  0  0  0  0  0
  141.7920   70.2040  227.3160 H   0  0  0  0  0  0  0  0  0  0  0  0
  140.0040   69.4810  226.5880 C   0  0  0  0  0  0  0  0  0  0  0  0
  139.0551   69.5296  227.1423 H   0  0  0  0  0  0  0  0  0  0  0  0
  140.4912   68.5190  226.8053 H   0  0  0  0  0  0  0  0  0  0  0  0
  139.7350   69.6060  225.0970 C   0  0  0  0  0  0  0  0  0  0  0  0
  138.6882   69.3591  224.8663 H   0  0  0  0  0  0  0  0  0  0  0  0
  140.3485   68.9182  224.4964 H   0  0  0  0  0  0  0  0  0  0  0  0
  141.6560   73.1290  221.5410 N   0  0  0  0  0  0  0  0  0  0  0  0
  142.3370   74.0690  220.8350 C   0  0  0  0  0  0  0  0  0  0  0  0
  143.5760   73.7210  220.1890 N   0  0  0  0  0  0  0  0  0  0  0  0
  144.8480   74.0540  220.8370 C   0  0  0  0  0  0  0  0  0  0  0  0
  145.1680   75.0568  220.5176 H   0  0  0  0  0  0  0  0  0  0  0  0
  144.7130   74.0356  221.9285 H   0  0  0  0  0  0  0  0  0  0  0  0
  145.9200   73.0300  220.4450 C   0  0  0  0  0  0  0  0  0  0  0  0
  146.8954   73.3697  220.8235 H   0  0  0  0  0  0  0  0  0  0  0  0
  145.6489   72.0585  220.8840 H   0  0  0  0  0  0  0  0  0  0  0  0
  146.0010   72.8730  218.9850 N   0  0  0  0  0  0  0  0  0  0  0  0
  146.2590   73.7940  218.5580 H   0  0  0  0  0  0  0  0  0  0  0  0
  144.7120   72.4340  218.4330 C   0  0  0  0  0  0  0  0  0  0  0  0
  144.8047   72.3336  217.3415 H   0  0  0  0  0  0  0  0  0  0  0  0
  144.4479   71.4691  218.8904 H   0  0  0  0  0  0  0  0  0  0  0  0
  143.6000   73.4420  218.7500 C   0  0  0  0  0  0  0  0  0  0  0  0
  143.7868   74.3763  218.2002 H   0  0  0  0  0  0  0  0  0  0  0  0
  142.6307   73.0199  218.4464 H   0  0  0  0  0  0  0  0  0  0  0  0
  141.8200   75.3230  220.7150 N   0  0  0  0  0  0  0  0  0  0  0  0
  142.2970   76.0210  220.1040 H   0  0  0  0  0  0  0  0  0  0  0  0
  140.1940   77.6960  219.9530 C   0  0  0  0  0  0  0  0  0  0  0  0
  139.2629   78.2517  219.7681 H   0  0  0  0  0  0  0  0  0  0  0  0
  140.3618   76.9922  219.1244 H   0  0  0  0  0  0  0  0  0  0  0  0
  141.3670   78.6750  220.0500 C   0  0  0  0  0  0  0  0  0  0  0  0
  141.2773   79.4144  219.2405 H   0  0  0  0  0  0  0  0  0  0  0  0
  142.2963   78.0927  219.9646 H   0  0  0  0  0  0  0  0  0  0  0  0
  1  2  1  0
  2  3  2  0
  3  4  1  0
  3  5  1  0
  5  6  1  0
  5  7  2  0
  7  8  1  0
  8  9  2  0
  9 10  1  0
  8 11  1  0
 11 12  1  0
 11 13  1  0
 11 14  1  0
 14 15  1  0
 15 16  2  0
 16 17  1  0
 17 18  2  0
 18 19  1  0
 18 20  1  0
 20 21  1  0
 20 22  1  0
 20 23  1  0
 23 24  1  1
 23 25  1  0
 25 26  1  0
 25 27  1  0
 25 28  1  0
 28 29  1  0
 28 30  1  0
 30 31  1  0
 30 32  1  0
 30 33  1  0
 33 34  1  0
 33 35  1  0
 17 36  1  0
 36 37  2  0
 37 38  1  0
 38 39  1  0
 39 40  1  0
 39 41  1  0
 39 42  1  0
 42 43  1  0
 42 44  1  0
 42 45  1  0
 45 46  1  0
 45 47  1  0
 47 48  1  0
 47 49  1  0
 47 50  1  0
 50 51  1  0
 50 52  1  0
 37 53  1  0
 53 54  1  0
 14 55  1  0
 55 56  1  0
 55 57  1  0
 55 58  1  0
 58 59  1  0
 58 60  1  0
  9  2  1  0
 53 15  1  0
 58  7  1  0
 33 23  1  0
 50 38  1  0
M  CHG  1  18   1
M  END
>  <UniqueID>  (16) 
577

>  <SMILES>  (16) 
c1ccc2c(c1)CCN(c1n/c(=[NH+]\C[C@H]3CCNC3)nc(N3CCNCC3)[nH]1)C2

>  <Energy>  (16) 
69.15134877229967

>  <Genealogy>  (16) 
c1ccc2c(c1)CCN(c1nc([NH2+]CC3CCNC3)nc(N3CCNCC3)n1)C2 (protonated)
c1ccc2c(c1)CCN(c1nc(=[NH+]CC3CCNC3)nc(N3CCNCC3)[nH]1)C2 (tautomer)
c1ccc2c(c1)CCN(c1nc(=[NH+]C[C@H]3CCNC3)nc(N3CCNCC3)[nH]1)C2 (chirality)
c1ccc2c(c1)CCN(c1n/c(=[NH+]\C[C@H]3CCNC3)nc(N3CCNCC3)[nH]1)C2 (cis-trans isomerization)
c1ccc2c(c1)CCN(c1n/c(=[NH+]\C[C@H]3CCNC3)nc(N3CCNCC3)[nH]1)C2 (3D coordinates assigned)
c1ccc2c(c1)CCN(c1n/c(=[NH+]\C[C@H]3CCNC3)nc(N3CCNCC3)[nH]1)C2 (nonaromatic ring conformer: 69.15134877229967 kcal/mol)

>  <smiles>  (16) 
c1ccc2c(c1)CCN(c1nc(NCC3CCNC3)nc(N3CCNCC3)n1)C2

>  <score_type>  (16) 
oracle

>  <origin>  (16) 
autodockgpu

>  <m_score__min__energy>  (16) 
-9.3699999999999992

>  <m_primary>  (16) 
energy

>  <meeko>  (16) 
{"free_energy": -9.36, "intermolecular_energy": -10.85, "internal_energy": -0.42, "cluster_size": 20, "cluster_id": 1, "rank_in_cluster": 4}

>  <energy>  (16) 
-8.65

>  <cluster_rmsd>  (16) 
1.36

>  <rmsd>  (16) 
271.59

>  <cluster>  (16) 
1

$$$$
RHAOACRWGXEIGT-RVIFUEJZNA-O
     RDKit          3D

 60 64  0  0  0  0  0  0  0  0999 V2000
  142.4770   80.7066  224.7078 H   0  0  0  0  0  0  0  0  0  0  0  0
  142.1690   80.2060  223.7780 C   0  0  0  0  0  0  0  0  0  0  0  0
  142.5690   80.7220  222.5440 C   0  0  0  0  0  0  0  0  0  0  0  0
  143.1949   81.6257  222.5038 H   0  0  0  0  0  0  0  0  0  0  0  0
  142.1760   80.0930  221.3600 C   0  0  0  0  0  0  0  0  0  0  0  0
  142.4985   80.5021  220.3912 H   0  0  0  0  0  0  0  0  0  0  0  0
  141.3720   78.9420  221.3980 C   0  0  0  0  0  0  0  0  0  0  0  0
  140.9880   78.4050  222.6540 C   0  0  0  0  0  0  0  0  0  0  0  0
  141.3790   79.0560  223.8350 C   0  0  0  0  0  0  0  0  0  0  0  0
  141.0614   78.6581  224.8101 H   0  0  0  0  0  0  0  0  0  0  0  0
  140.0830   77.2030  222.7360 C   0  0  0  0  0  0  0  0  0  0  0  0
  139.0506   77.5356  222.9188 H   0  0  0  0  0  0  0  0  0  0  0  0
  140.4162   76.5544  223.5596 H   0  0  0  0  0  0  0  0  0  0  0  0
  140.1360   76.4520  221.4790 N   0  0  0  0  0  0  0  0  0  0  0  0
  140.7490   75.1510  221.3960 C   0  0  0  0  0  0  0  0  0  0  0  0
  140.0940   74.0690  221.8900 N   0  0  0  0  0  0  0  0  0  0  0  0
  140.6410   72.8280  221.8080 C   0  0  0  0  0  0  0  0  0  0  0  0
  140.0140   71.7830  222.2730 N   0  0  0  0  0  0  0  0  0  0  0  0
  140.2800   70.8360  221.9150 H   0  0  0  0  0  0  0  0  0  0  0  0
  138.8920   71.8430  223.2160 C   0  0  0  0  0  0  0  0  0  0  0  0
  138.6476   72.8954  223.4225 H   0  0  0  0  0  0  0  0  0  0  0  0
  138.0238   71.3344  222.7716 H   0  0  0  0  0  0  0  0  0  0  0  0
  139.2630   71.1400  224.5340 C   0  0  2  0  0  0  0  0  0  0  0  0
  138.6603   71.6874  225.2737 H   0  0  0  0  0  0  0  0  0  0  0  0
  140.7490   71.1920  224.8560 C   0  0  0  0  0  0  0  0  0  0  0  0
  140.9807   72.1099  225.4162 H   0  0  0  0  0  0  0  0  0  0  0  0
  141.3472   71.1952  223.9329 H   0  0  0  0  0  0  0  0  0  0  0  0
  141.0600   70.0170  225.6700 N   0  0  0  0  0  0  0  0  0  0  0  0
  141.9430   69.5810  225.3110 H   0  0  0  0  0  0  0  0  0  0  0  0
  139.9540   69.0680  225.5010 C   0  0  0  0  0  0  0  0  0  0  0  0
  139.4562   68.9015  226.4677 H   0  0  0  0  0  0  0  0  0  0  0  0
  140.3350   68.1054  225.1291 H   0  0  0  0  0  0  0  0  0  0  0  0
  138.9650   69.6570  224.5090 C   0  0  0  0  0  0  0  0  0  0  0  0
  137.9299   69.4606  224.8251 H   0  0  0  0  0  0  0  0  0  0  0  0
  139.0630   69.2218  223.5035 H   0  0  0  0  0  0  0  0  0  0  0  0
  141.8580   72.6770  221.2270 N   0  0  0  0  0  0  0  0  0  0  0  0
  142.5270   73.7490  220.7270 C   0  0  0  0  0  0  0  0  0  0  0  0
  143.8080   73.5630  220.0960 N   0  0  0  0  0  0  0  0  0  0  0  0
  145.0320   73.8960  220.8290 C   0  0  0  0  0  0  0  0  0  0  0  0
  145.2925   74.9485  220.6438 H   0  0  0  0  0  0  0  0  0  0  0  0
  144.8634   73.7369  221.9043 H   0  0  0  0  0  0  0  0  0  0  0  0
  146.1840   72.9980  220.3620 C   0  0  0  0  0  0  0  0  0  0  0  0
  147.1207   73.3505  220.8184 H   0  0  0  0  0  0  0  0  0  0  0  0
  145.9656   71.9649  220.6701 H   0  0  0  0  0  0  0  0  0  0  0  0
  146.3240   73.0260  218.8990 N   0  0  0  0  0  0  0  0  0  0  0  0
  146.5310   74.0060  218.5950 H   0  0  0  0  0  0  0  0  0  0  0  0
  145.0860   72.5750  218.2460 C   0  0  0  0  0  0  0  0  0  0  0  0
  145.2211   72.6142  217.1550 H   0  0  0  0  0  0  0  0  0  0  0  0
  144.8741   71.5467  218.5741 H   0  0  0  0  0  0  0  0  0  0  0  0
  143.8980   73.4630  218.6350 C   0  0  0  0  0  0  0  0  0  0  0  0
  144.0379   74.4672  218.2084 H   0  0  0  0  0  0  0  0  0  0  0  0
  142.9704   73.0194  218.2441 H   0  0  0  0  0  0  0  0  0  0  0  0
  141.9610   74.9850  220.7970 N   0  0  0  0  0  0  0  0  0  0  0  0
  142.4330   75.7950  220.3380 H   0  0  0  0  0  0  0  0  0  0  0  0
  139.8950   77.2260  220.2620 C   0  0  0  0  0  0  0  0  0  0  0  0
  138.9306   77.7491  220.3412 H   0  0  0  0  0  0  0  0  0  0  0  0
  139.8679   76.5548  219.3909 H   0  0  0  0  0  0  0  0  0  0  0  0
  141.0230   78.2480  220.0970 C   0  0  0  0  0  0  0  0  0  0  0  0
  140.7073   79.0069  219.3660 H   0  0  0  0  0  0  0  0  0  0  0  0
  141.9178   77.7062  219.7567 H   0  0  0  0  0  0  0  0  0  0  0  0
  1  2  1  0
  2  3  2  0
  3  4  1  0
  3  5  1  0
  5  6  1  0
  5  7  2  0
  7  8  1  0
  8  9  2  0
  9 10  1  0
  8 11  1  0
 11 12  1  0
 11 13  1  0
 11 14  1  0
 14 15  1  0
 15 16  2  0
 16 17  1  0
 17 18  2  0
 18 19  1  0
 18 20  1  0
 20 21  1  0
 20 22  1  0
 20 23  1  0
 23 24  1  1
 23 25  1  0
 25 26  1  0
 25 27  1  0
 25 28  1  0
 28 29  1  0
 28 30  1  0
 30 31  1  0
 30 32  1  0
 30 33  1  0
 33 34  1  0
 33 35  1  0
 17 36  1  0
 36 37  2  0
 37 38  1  0
 38 39  1  0
 39 40  1  0
 39 41  1  0
 39 42  1  0
 42 43  1  0
 42 44  1  0
 42 45  1  0
 45 46  1  0
 45 47  1  0
 47 48  1  0
 47 49  1  0
 47 50  1  0
 50 51  1  0
 50 52  1  0
 37 53  1  0
 53 54  1  0
 14 55  1  0
 55 56  1  0
 55 57  1  0
 55 58  1  0
 58 59  1  0
 58 60  1  0
  9  2  1  0
 53 15  1  0
 58  7  1  0
 33 23  1  0
 50 38  1  0
M  CHG  1  18   1
M  END
>  <UniqueID>  (17) 
577

>  <SMILES>  (17) 
c1ccc2c(c1)CCN(c1n/c(=[NH+]\C[C@H]3CCNC3)nc(N3CCNCC3)[nH]1)C2

>  <Energy>  (17) 
69.15134877229967

>  <Genealogy>  (17) 
c1ccc2c(c1)CCN(c1nc([NH2+]CC3CCNC3)nc(N3CCNCC3)n1)C2 (protonated)
c1ccc2c(c1)CCN(c1nc(=[NH+]CC3CCNC3)nc(N3CCNCC3)[nH]1)C2 (tautomer)
c1ccc2c(c1)CCN(c1nc(=[NH+]C[C@H]3CCNC3)nc(N3CCNCC3)[nH]1)C2 (chirality)
c1ccc2c(c1)CCN(c1n/c(=[NH+]\C[C@H]3CCNC3)nc(N3CCNCC3)[nH]1)C2 (cis-trans isomerization)
c1ccc2c(c1)CCN(c1n/c(=[NH+]\C[C@H]3CCNC3)nc(N3CCNCC3)[nH]1)C2 (3D coordinates assigned)
c1ccc2c(c1)CCN(c1n/c(=[NH+]\C[C@H]3CCNC3)nc(N3CCNCC3)[nH]1)C2 (nonaromatic ring conformer: 69.15134877229967 kcal/mol)

>  <smiles>  (17) 
c1ccc2c(c1)CCN(c1nc(NCC3CCNC3)nc(N3CCNCC3)n1)C2

>  <score_type>  (17) 
oracle

>  <origin>  (17) 
autodockgpu

>  <m_score__min__energy>  (17) 
-9.3699999999999992

>  <m_primary>  (17) 
energy

>  <meeko>  (17) 
{"free_energy": -8.76, "intermolecular_energy": -10.25, "internal_energy": -0.52, "cluster_size": 20, "cluster_id": 1, "rank_in_cluster": 14}

>  <energy>  (17) 
-8.56

>  <cluster_rmsd>  (17) 
1.47

>  <rmsd>  (17) 
271.28

>  <cluster>  (17) 
1

$$$$
RHAOACRWGXEIGT-RVIFUEJZNA-O
     RDKit          3D

 60 64  0  0  0  0  0  0  0  0999 V2000
  141.3465   80.8329  224.8129 H   0  0  0  0  0  0  0  0  0  0  0  0
  141.4310   80.2660  223.8740 C   0  0  0  0  0  0  0  0  0  0  0  0
  142.3890   80.6290  222.9250 C   0  0  0  0  0  0  0  0  0  0  0  0
  143.0592   81.4794  223.1191 H   0  0  0  0  0  0  0  0  0  0  0  0
  142.4980   79.9140  221.7290 C   0  0  0  0  0  0  0  0  0  0  0  0
  143.2588   80.2015  220.9884 H   0  0  0  0  0  0  0  0  0  0  0  0
  141.6430   78.8310  221.4660 C   0  0  0  0  0  0  0  0  0  0  0  0
  140.6880   78.4490  222.4440 C   0  0  0  0  0  0  0  0  0  0  0  0
  140.5800   79.1850  223.6340 C   0  0  0  0  0  0  0  0  0  0  0  0
  139.8214   78.9091  224.3813 H   0  0  0  0  0  0  0  0  0  0  0  0
  139.7180   77.3260  222.1770 C   0  0  0  0  0  0  0  0  0  0  0  0
  138.7538   77.7460  221.8546 H   0  0  0  0  0  0  0  0  0  0  0  0
  139.5798   76.7407  223.0980 H   0  0  0  0  0  0  0  0  0  0  0  0
  140.2430   76.4520  221.1250 N   0  0  0  0  0  0  0  0  0  0  0  0
  140.6880   75.1110  221.4030 C   0  0  0  0  0  0  0  0  0  0  0  0
  139.8950   74.2790  222.1280 N   0  0  0  0  0  0  0  0  0  0  0  0
  140.2820   73.0030  222.3890 C   0  0  0  0  0  0  0  0  0  0  0  0
  139.5230   72.1970  223.0770 N   0  0  0  0  0  0  0  0  0  0  0  0
  138.4940   72.1870  222.8850 H   0  0  0  0  0  0  0  0  0  0  0  0
  139.9990   71.3450  224.1730 C   0  0  0  0  0  0  0  0  0  0  0  0
  141.0414   71.0526  223.9784 H   0  0  0  0  0  0  0  0  0  0  0  0
  139.9341   71.9073  225.1162 H   0  0  0  0  0  0  0  0  0  0  0  0
  139.1300   70.0800  224.2850 C   0  0  2  0  0  0  0  0  0  0  0  0
  138.1476   70.4892  224.5632 H   0  0  0  0  0  0  0  0  0  0  0  0
  139.6430   69.0770  225.3080 C   0  0  0  0  0  0  0  0  0  0  0  0
  139.2300   69.3075  226.3011 H   0  0  0  0  0  0  0  0  0  0  0  0
  140.7401   69.1177  225.3772 H   0  0  0  0  0  0  0  0  0  0  0  0
  139.2000   67.7510  224.8770 N   0  0  0  0  0  0  0  0  0  0  0  0
  140.0010   67.0810  224.9660 H   0  0  0  0  0  0  0  0  0  0  0  0
  138.8210   67.8580  223.4640 C   0  0  0  0  0  0  0  0  0  0  0  0
  137.7515   67.6288  223.3475 H   0  0  0  0  0  0  0  0  0  0  0  0
  139.4025   67.1452  222.8609 H   0  0  0  0  0  0  0  0  0  0  0  0
  139.0950   69.2800  223.0020 C   0  0  0  0  0  0  0  0  0  0  0  0
  138.2928   69.6376  222.3398 H   0  0  0  0  0  0  0  0  0  0  0  0
  140.0267   69.3656  222.4236 H   0  0  0  0  0  0  0  0  0  0  0  0
  141.4760   72.5630  221.9180 N   0  0  0  0  0  0  0  0  0  0  0  0
  142.2810   73.3810  221.1900 C   0  0  0  0  0  0  0  0  0  0  0  0
  143.5340   72.8860  220.6820 N   0  0  0  0  0  0  0  0  0  0  0  0
  143.6910   71.4540  220.4150 C   0  0  0  0  0  0  0  0  0  0  0  0
  144.0628   70.9530  221.3209 H   0  0  0  0  0  0  0  0  0  0  0  0
  142.7170   71.0309  220.1282 H   0  0  0  0  0  0  0  0  0  0  0  0
  144.6900   71.2410  219.2700 C   0  0  0  0  0  0  0  0  0  0  0  0
  144.9022   70.1658  219.1753 H   0  0  0  0  0  0  0  0  0  0  0  0
  144.2447   71.6335  218.3439 H   0  0  0  0  0  0  0  0  0  0  0  0
  145.9490   71.9570  219.5180 N   0  0  0  0  0  0  0  0  0  0  0  0
  146.3810   71.5910  220.4000 H   0  0  0  0  0  0  0  0  0  0  0  0
  145.7100   73.4000  219.6670 C   0  0  0  0  0  0  0  0  0  0  0  0
  146.6686   73.9044  219.8585 H   0  0  0  0  0  0  0  0  0  0  0  0
  145.2527   73.7746  218.7394 H   0  0  0  0  0  0  0  0  0  0  0  0
  144.7530   73.6870  220.8300 C   0  0  0  0  0  0  0  0  0  0  0  0
  145.2454   73.4300  221.7795 H   0  0  0  0  0  0  0  0  0  0  0  0
  144.4878   74.7545  220.8259 H   0  0  0  0  0  0  0  0  0  0  0  0
  141.8750   74.6520  220.9170 N   0  0  0  0  0  0  0  0  0  0  0  0
  142.4500   75.2530  220.2880 H   0  0  0  0  0  0  0  0  0  0  0  0
  140.6520   77.1160  219.8880 C   0  0  0  0  0  0  0  0  0  0  0  0
  139.8143   77.7092  219.4926 H   0  0  0  0  0  0  0  0  0  0  0  0
  140.9444   76.3645  219.1399 H   0  0  0  0  0  0  0  0  0  0  0  0
  141.8370   78.0370  220.1900 C   0  0  0  0  0  0  0  0  0  0  0  0
  141.9605   78.7394  219.3525 H   0  0  0  0  0  0  0  0  0  0  0  0
  142.7274   77.4046  220.3214 H   0  0  0  0  0  0  0  0  0  0  0  0
  1  2  1  0
  2  3  2  0
  3  4  1  0
  3  5  1  0
  5  6  1  0
  5  7  2  0
  7  8  1  0
  8  9  2  0
  9 10  1  0
  8 11  1  0
 11 12  1  0
 11 13  1  0
 11 14  1  0
 14 15  1  0
 15 16  2  0
 16 17  1  0
 17 18  2  0
 18 19  1  0
 18 20  1  0
 20 21  1  0
 20 22  1  0
 20 23  1  0
 23 24  1  1
 23 25  1  0
 25 26  1  0
 25 27  1  0
 25 28  1  0
 28 29  1  0
 28 30  1  0
 30 31  1  0
 30 32  1  0
 30 33  1  0
 33 34  1  0
 33 35  1  0
 17 36  1  0
 36 37  2  0
 37 38  1  0
 38 39  1  0
 39 40  1  0
 39 41  1  0
 39 42  1  0
 42 43  1  0
 42 44  1  0
 42 45  1  0
 45 46  1  0
 45 47  1  0
 47 48  1  0
 47 49  1  0
 47 50  1  0
 50 51  1  0
 50 52  1  0
 37 53  1  0
 53 54  1  0
 14 55  1  0
 55 56  1  0
 55 57  1  0
 55 58  1  0
 58 59  1  0
 58 60  1  0
  9  2  1  0
 53 15  1  0
 58  7  1  0
 33 23  1  0
 50 38  1  0
M  CHG  1  18   1
M  END
>  <UniqueID>  (18) 
577

>  <SMILES>  (18) 
c1ccc2c(c1)CCN(c1n/c(=[NH+]\C[C@H]3CCNC3)nc(N3CCNCC3)[nH]1)C2

>  <Energy>  (18) 
69.15134877229967

>  <Genealogy>  (18) 
c1ccc2c(c1)CCN(c1nc([NH2+]CC3CCNC3)nc(N3CCNCC3)n1)C2 (protonated)
c1ccc2c(c1)CCN(c1nc(=[NH+]CC3CCNC3)nc(N3CCNCC3)[nH]1)C2 (tautomer)
c1ccc2c(c1)CCN(c1nc(=[NH+]C[C@H]3CCNC3)nc(N3CCNCC3)[nH]1)C2 (chirality)
c1ccc2c(c1)CCN(c1n/c(=[NH+]\C[C@H]3CCNC3)nc(N3CCNCC3)[nH]1)C2 (cis-trans isomerization)
c1ccc2c(c1)CCN(c1n/c(=[NH+]\C[C@H]3CCNC3)nc(N3CCNCC3)[nH]1)C2 (3D coordinates assigned)
c1ccc2c(c1)CCN(c1n/c(=[NH+]\C[C@H]3CCNC3)nc(N3CCNCC3)[nH]1)C2 (nonaromatic ring conformer: 69.15134877229967 kcal/mol)

>  <smiles>  (18) 
c1ccc2c(c1)CCN(c1nc(NCC3CCNC3)nc(N3CCNCC3)n1)C2

>  <score_type>  (18) 
oracle

>  <origin>  (18) 
autodockgpu

>  <m_score__min__energy>  (18) 
-9.3699999999999992

>  <m_primary>  (18) 
energy

>  <meeko>  (18) 
{"free_energy": -8.73, "intermolecular_energy": -10.22, "internal_energy": -0.47, "cluster_size": 20, "cluster_id": 1, "rank_in_cluster": 15}

>  <energy>  (18) 
-8.48

>  <cluster_rmsd>  (18) 
1.02

>  <rmsd>  (18) 
271.57

>  <cluster>  (18) 
1

$$$$
RHAOACRWGXEIGT-RVIFUEJZNA-O
     RDKit          3D

 60 64  0  0  0  0  0  0  0  0999 V2000
  142.3560   80.8375  224.7790 H   0  0  0  0  0  0  0  0  0  0  0  0
  142.0900   80.3300  223.8400 C   0  0  0  0  0  0  0  0  0  0  0  0
  142.5470   80.8350  222.6210 C   0  0  0  0  0  0  0  0  0  0  0  0
  143.1747   81.7381  222.6021 H   0  0  0  0  0  0  0  0  0  0  0  0
  142.2090   80.1960  221.4250 C   0  0  0  0  0  0  0  0  0  0  0  0
  142.5776   80.5958  220.4688 H   0  0  0  0  0  0  0  0  0  0  0  0
  141.4020   79.0470  221.4360 C   0  0  0  0  0  0  0  0  0  0  0  0
  140.9600   78.5210  222.6780 C   0  0  0  0  0  0  0  0  0  0  0  0
  141.2960   79.1820  223.8690 C   0  0  0  0  0  0  0  0  0  0  0  0
  140.9317   78.7934  224.8314 H   0  0  0  0  0  0  0  0  0  0  0  0
  140.0500   77.3200  222.7270 C   0  0  0  0  0  0  0  0  0  0  0  0
  139.0106   77.6553  222.8579 H   0  0  0  0  0  0  0  0  0  0  0  0
  140.3433   76.6782  223.5708 H   0  0  0  0  0  0  0  0  0  0  0  0
  140.1610   76.5580  221.4810 N   0  0  0  0  0  0  0  0  0  0  0  0
  140.7760   75.2570  221.4380 C   0  0  0  0  0  0  0  0  0  0  0  0
  140.1250   74.1910  221.9720 N   0  0  0  0  0  0  0  0  0  0  0  0
  140.6740   72.9490  221.9290 C   0  0  0  0  0  0  0  0  0  0  0  0
  140.0510   71.9190  222.4330 N   0  0  0  0  0  0  0  0  0  0  0  0
  139.8080   71.1200  221.8020 H   0  0  0  0  0  0  0  0  0  0  0  0
  139.5890   71.8300  223.8220 C   0  0  0  0  0  0  0  0  0  0  0  0
  139.6835   72.8164  224.2995 H   0  0  0  0  0  0  0  0  0  0  0  0
  138.5377   71.5065  223.8288 H   0  0  0  0  0  0  0  0  0  0  0  0
  140.4320   70.8060  224.6020 C   0  0  2  0  0  0  0  0  0  0  0  0
  141.2602   70.6005  223.9078 H   0  0  0  0  0  0  0  0  0  0  0  0
  139.6680   69.5430  224.9720 C   0  0  0  0  0  0  0  0  0  0  0  0
  139.7404   68.8072  224.1575 H   0  0  0  0  0  0  0  0  0  0  0  0
  138.6036   69.7664  225.1367 H   0  0  0  0  0  0  0  0  0  0  0  0
  140.2780   69.0050  226.1880 N   0  0  0  0  0  0  0  0  0  0  0  0
  139.5180   68.7310  226.8550 H   0  0  0  0  0  0  0  0  0  0  0  0
  141.0740   70.0830  226.7870 C   0  0  0  0  0  0  0  0  0  0  0  0
  142.1351   69.7939  226.8082 H   0  0  0  0  0  0  0  0  0  0  0  0
  140.7393   70.2732  227.8174 H   0  0  0  0  0  0  0  0  0  0  0  0
  140.8990   71.3330  225.9410 C   0  0  0  0  0  0  0  0  0  0  0  0
  141.8523   71.8722  225.8381 H   0  0  0  0  0  0  0  0  0  0  0  0
  140.1913   72.0488  226.3845 H   0  0  0  0  0  0  0  0  0  0  0  0
  141.8870   72.7800  221.3450 N   0  0  0  0  0  0  0  0  0  0  0  0
  142.5510   73.8350  220.8040 C   0  0  0  0  0  0  0  0  0  0  0  0
  143.8280   73.6300  220.1710 N   0  0  0  0  0  0  0  0  0  0  0  0
  145.0420   73.5820  220.9900 C   0  0  0  0  0  0  0  0  0  0  0  0
  145.4542   74.5969  221.0906 H   0  0  0  0  0  0  0  0  0  0  0  0
  144.7924   73.1813  221.9835 H   0  0  0  0  0  0  0  0  0  0  0  0
  146.0850   72.6730  220.3270 C   0  0  0  0  0  0  0  0  0  0  0  0
  147.0340   72.7566  220.8769 H   0  0  0  0  0  0  0  0  0  0  0  0
  145.7095   71.6394  220.3518 H   0  0  0  0  0  0  0  0  0  0  0  0
  146.3100   73.0500  218.9250 N   0  0  0  0  0  0  0  0  0  0  0  0
  146.6660   74.0350  218.8890 H   0  0  0  0  0  0  0  0  0  0  0  0
  145.0610   72.9660  218.1530 C   0  0  0  0  0  0  0  0  0  0  0  0
  145.2616   73.2609  217.1124 H   0  0  0  0  0  0  0  0  0  0  0  0
  144.6922   71.9307  218.1979 H   0  0  0  0  0  0  0  0  0  0  0  0
  143.9860   73.8910  218.7370 C   0  0  0  0  0  0  0  0  0  0  0  0
  144.2862   74.9387  218.5879 H   0  0  0  0  0  0  0  0  0  0  0  0
  143.0298   73.7019  218.2271 H   0  0  0  0  0  0  0  0  0  0  0  0
  141.9840   75.0720  220.8360 N   0  0  0  0  0  0  0  0  0  0  0  0
  142.4510   75.8670  220.3470 H   0  0  0  0  0  0  0  0  0  0  0  0
  139.9780   77.3220  220.2470 C   0  0  0  0  0  0  0  0  0  0  0  0
  139.0114   77.8463  220.2767 H   0  0  0  0  0  0  0  0  0  0  0  0
  139.9913   76.6430  219.3817 H   0  0  0  0  0  0  0  0  0  0  0  0
  141.1130   78.3420  220.1250 C   0  0  0  0  0  0  0  0  0  0  0  0
  140.8318   79.0948  219.3739 H   0  0  0  0  0  0  0  0  0  0  0  0
  142.0222   77.7975  219.8303 H   0  0  0  0  0  0  0  0  0  0  0  0
  1  2  1  0
  2  3  2  0
  3  4  1  0
  3  5  1  0
  5  6  1  0
  5  7  2  0
  7  8  1  0
  8  9  2  0
  9 10  1  0
  8 11  1  0
 11 12  1  0
 11 13  1  0
 11 14  1  0
 14 15  1  0
 15 16  2  0
 16 17  1  0
 17 18  2  0
 18 19  1  0
 18 20  1  0
 20 21  1  0
 20 22  1  0
 20 23  1  0
 23 24  1  6
 23 25  1  0
 25 26  1  0
 25 27  1  0
 25 28  1  0
 28 29  1  0
 28 30  1  0
 30 31  1  0
 30 32  1  0
 30 33  1  0
 33 34  1  0
 33 35  1  0
 17 36  1  0
 36 37  2  0
 37 38  1  0
 38 39  1  0
 39 40  1  0
 39 41  1  0
 39 42  1  0
 42 43  1  0
 42 44  1  0
 42 45  1  0
 45 46  1  0
 45 47  1  0
 47 48  1  0
 47 49  1  0
 47 50  1  0
 50 51  1  0
 50 52  1  0
 37 53  1  0
 53 54  1  0
 14 55  1  0
 55 56  1  0
 55 57  1  0
 55 58  1  0
 58 59  1  0
 58 60  1  0
  9  2  1  0
 53 15  1  0
 58  7  1  0
 33 23  1  0
 50 38  1  0
M  CHG  1  18   1
M  END
>  <UniqueID>  (19) 
577

>  <SMILES>  (19) 
c1ccc2c(c1)CCN(c1n/c(=[NH+]\C[C@H]3CCNC3)nc(N3CCNCC3)[nH]1)C2

>  <Energy>  (19) 
69.15134877229967

>  <Genealogy>  (19) 
c1ccc2c(c1)CCN(c1nc([NH2+]CC3CCNC3)nc(N3CCNCC3)n1)C2 (protonated)
c1ccc2c(c1)CCN(c1nc(=[NH+]CC3CCNC3)nc(N3CCNCC3)[nH]1)C2 (tautomer)
c1ccc2c(c1)CCN(c1nc(=[NH+]C[C@H]3CCNC3)nc(N3CCNCC3)[nH]1)C2 (chirality)
c1ccc2c(c1)CCN(c1n/c(=[NH+]\C[C@H]3CCNC3)nc(N3CCNCC3)[nH]1)C2 (cis-trans isomerization)
c1ccc2c(c1)CCN(c1n/c(=[NH+]\C[C@H]3CCNC3)nc(N3CCNCC3)[nH]1)C2 (3D coordinates assigned)
c1ccc2c(c1)CCN(c1n/c(=[NH+]\C[C@H]3CCNC3)nc(N3CCNCC3)[nH]1)C2 (nonaromatic ring conformer: 69.15134877229967 kcal/mol)

>  <smiles>  (19) 
c1ccc2c(c1)CCN(c1nc(NCC3CCNC3)nc(N3CCNCC3)n1)C2

>  <score_type>  (19) 
oracle

>  <origin>  (19) 
autodockgpu

>  <m_score__min__energy>  (19) 
-9.3699999999999992

>  <m_primary>  (19) 
energy

>  <meeko>  (19) 
{"free_energy": -9.18, "intermolecular_energy": -10.67, "internal_energy": -0.47, "cluster_size": 20, "cluster_id": 1, "rank_in_cluster": 11}

>  <energy>  (19) 
-8.31

>  <cluster_rmsd>  (19) 
1.58

>  <rmsd>  (19) 
271.32

>  <cluster>  (19) 
1

$$$$
RHAOACRWGXEIGT-RVIFUEJZNA-O
     RDKit          3D

 60 64  0  0  0  0  0  0  0  0999 V2000
  142.2538   80.6108  224.7903 H   0  0  0  0  0  0  0  0  0  0  0  0
  142.0140   80.0910  223.8510 C   0  0  0  0  0  0  0  0  0  0  0  0
  142.5300   80.5620  222.6420 C   0  0  0  0  0  0  0  0  0  0  0  0
  143.1779   81.4509  222.6315 H   0  0  0  0  0  0  0  0  0  0  0  0
  142.2260   79.9080  221.4460 C   0  0  0  0  0  0  0  0  0  0  0  0
  142.6412   80.2815  220.4983 H   0  0  0  0  0  0  0  0  0  0  0  0
  141.3940   78.7770  221.4450 C   0  0  0  0  0  0  0  0  0  0  0  0
  140.8910   78.2850  222.6770 C   0  0  0  0  0  0  0  0  0  0  0  0
  141.1940   78.9610  223.8690 C   0  0  0  0  0  0  0  0  0  0  0  0
  140.7832   78.5986  224.8229 H   0  0  0  0  0  0  0  0  0  0  0  0
  139.9530   77.1050  222.7120 C   0  0  0  0  0  0  0  0  0  0  0  0
  138.9170   77.4651  222.7954 H   0  0  0  0  0  0  0  0  0  0  0  0
  140.1983   76.4733  223.5785 H   0  0  0  0  0  0  0  0  0  0  0  0
  140.0960   76.3170  221.4850 N   0  0  0  0  0  0  0  0  0  0  0  0
  140.6830   75.0020  221.4910 C   0  0  0  0  0  0  0  0  0  0  0  0
  139.9910   73.9620  222.0250 N   0  0  0  0  0  0  0  0  0  0  0  0
  140.5130   72.7080  222.0270 C   0  0  0  0  0  0  0  0  0  0  0  0
  139.8510   71.7030  222.5310 N   0  0  0  0  0  0  0  0  0  0  0  0
  139.3980   71.0210  221.8790 H   0  0  0  0  0  0  0  0  0  0  0  0
  139.6240   71.4980  223.9660 C   0  0  0  0  0  0  0  0  0  0  0  0
  140.2657   72.1856  224.5365 H   0  0  0  0  0  0  0  0  0  0  0  0
  138.5655   71.6945  224.1919 H   0  0  0  0  0  0  0  0  0  0  0  0
  139.9580   70.0490  224.3590 C   0  0  2  0  0  0  0  0  0  0  0  0
  140.7418   69.7804  223.6355 H   0  0  0  0  0  0  0  0  0  0  0  0
  138.7650   69.1070  224.2870 C   0  0  0  0  0  0  0  0  0  0  0  0
  138.6773   68.6878  223.2738 H   0  0  0  0  0  0  0  0  0  0  0  0
  137.8322   69.6427  224.5171 H   0  0  0  0  0  0  0  0  0  0  0  0
  138.9970   68.0340  225.2540 N   0  0  0  0  0  0  0  0  0  0  0  0
  138.1140   67.8660  225.7920 H   0  0  0  0  0  0  0  0  0  0  0  0
  140.0380   68.5010  226.1780 C   0  0  0  0  0  0  0  0  0  0  0  0
  140.9223   67.8514  226.1009 H   0  0  0  0  0  0  0  0  0  0  0  0
  139.6672   68.4707  227.2132 H   0  0  0  0  0  0  0  0  0  0  0  0
  140.4110   69.9240  225.7970 C   0  0  0  0  0  0  0  0  0  0  0  0
  141.4969   70.0790  225.8797 H   0  0  0  0  0  0  0  0  0  0  0  0
  139.9459   70.6737  226.4539 H   0  0  0  0  0  0  0  0  0  0  0  0
  141.7410   72.5000  221.4890 N   0  0  0  0  0  0  0  0  0  0  0  0
  142.4470   73.5290  220.9490 C   0  0  0  0  0  0  0  0  0  0  0  0
  143.7390   73.2820  220.3640 N   0  0  0  0  0  0  0  0  0  0  0  0
  143.8280   72.6570  219.0420 C   0  0  0  0  0  0  0  0  0  0  0  0
  143.8689   71.5639  219.1578 H   0  0  0  0  0  0  0  0  0  0  0  0
  142.9439   72.9365  218.4501 H   0  0  0  0  0  0  0  0  0  0  0  0
  145.0920   73.1390  218.3180 C   0  0  0  0  0  0  0  0  0  0  0  0
  145.2163   72.5608  217.3905 H   0  0  0  0  0  0  0  0  0  0  0  0
  144.9780   74.2103  218.0961 H   0  0  0  0  0  0  0  0  0  0  0  0
  146.2870   72.9630  219.1560 N   0  0  0  0  0  0  0  0  0  0  0  0
  146.4030   71.9450  219.3750 H   0  0  0  0  0  0  0  0  0  0  0  0
  146.1570   73.7100  220.4160 C   0  0  0  0  0  0  0  0  0  0  0  0
  147.0617   73.5523  221.0216 H   0  0  0  0  0  0  0  0  0  0  0  0
  146.0310   74.7764  220.1773 H   0  0  0  0  0  0  0  0  0  0  0  0
  144.9330   73.2430  221.2140 C   0  0  0  0  0  0  0  0  0  0  0  0
  145.0974   72.2136  221.5650 H   0  0  0  0  0  0  0  0  0  0  0  0
  144.7861   73.9106  222.0759 H   0  0  0  0  0  0  0  0  0  0  0  0
  141.9060   74.7780  220.9350 N   0  0  0  0  0  0  0  0  0  0  0  0
  142.4080   75.5510  220.4460 H   0  0  0  0  0  0  0  0  0  0  0  0
  139.9800   77.0610  220.2310 C   0  0  0  0  0  0  0  0  0  0  0  0
  139.0250   77.6066  220.2118 H   0  0  0  0  0  0  0  0  0  0  0  0
  140.0129   76.3655  219.3794 H   0  0  0  0  0  0  0  0  0  0  0  0
  141.1420   78.0540  220.1370 C   0  0  0  0  0  0  0  0  0  0  0  0
  140.9082   78.7984  219.3617 H   0  0  0  0  0  0  0  0  0  0  0  0
  142.0498   77.4842  219.8894 H   0  0  0  0  0  0  0  0  0  0  0  0
  1  2  1  0
  2  3  2  0
  3  4  1  0
  3  5  1  0
  5  6  1  0
  5  7  2  0
  7  8  1  0
  8  9  2  0
  9 10  1  0
  8 11  1  0
 11 12  1  0
 11 13  1  0
 11 14  1  0
 14 15  1  0
 15 16  2  0
 16 17  1  0
 17 18  2  0
 18 19  1  0
 18 20  1  0
 20 21  1  0
 20 22  1  0
 20 23  1  0
 23 24  1  6
 23 25  1  0
 25 26  1  0
 25 27  1  0
 25 28  1  0
 28 29  1  0
 28 30  1  0
 30 31  1  0
 30 32  1  0
 30 33  1  0
 33 34  1  0
 33 35  1  0
 17 36  1  0
 36 37  2  0
 37 38  1  0
 38 39  1  0
 39 40  1  0
 39 41  1  0
 39 42  1  0
 42 43  1  0
 42 44  1  0
 42 45  1  0
 45 46  1  0
 45 47  1  0
 47 48  1  0
 47 49  1  0
 47 50  1  0
 50 51  1  0
 50 52  1  0
 37 53  1  0
 53 54  1  0
 14 55  1  0
 55 56  1  0
 55 57  1  0
 55 58  1  0
 58 59  1  0
 58 60  1  0
  9  2  1  0
 53 15  1  0
 58  7  1  0
 33 23  1  0
 50 38  1  0
M  CHG  1  18   1
M  END
>  <UniqueID>  (20) 
577

>  <SMILES>  (20) 
c1ccc2c(c1)CCN(c1n/c(=[NH+]\C[C@H]3CCNC3)nc(N3CCNCC3)[nH]1)C2

>  <Energy>  (20) 
69.15134877229967

>  <Genealogy>  (20) 
c1ccc2c(c1)CCN(c1nc([NH2+]CC3CCNC3)nc(N3CCNCC3)n1)C2 (protonated)
c1ccc2c(c1)CCN(c1nc(=[NH+]CC3CCNC3)nc(N3CCNCC3)[nH]1)C2 (tautomer)
c1ccc2c(c1)CCN(c1nc(=[NH+]C[C@H]3CCNC3)nc(N3CCNCC3)[nH]1)C2 (chirality)
c1ccc2c(c1)CCN(c1n/c(=[NH+]\C[C@H]3CCNC3)nc(N3CCNCC3)[nH]1)C2 (cis-trans isomerization)
c1ccc2c(c1)CCN(c1n/c(=[NH+]\C[C@H]3CCNC3)nc(N3CCNCC3)[nH]1)C2 (3D coordinates assigned)
c1ccc2c(c1)CCN(c1n/c(=[NH+]\C[C@H]3CCNC3)nc(N3CCNCC3)[nH]1)C2 (nonaromatic ring conformer: 69.15134877229967 kcal/mol)

>  <smiles>  (20) 
c1ccc2c(c1)CCN(c1nc(NCC3CCNC3)nc(N3CCNCC3)n1)C2

>  <score_type>  (20) 
oracle

>  <origin>  (20) 
autodockgpu

>  <m_score__min__energy>  (20) 
-9.3699999999999992

>  <m_primary>  (20) 
energy

>  <meeko>  (20) 
{"free_energy": -8.65, "intermolecular_energy": -10.14, "internal_energy": -0.43, "cluster_size": 20, "cluster_id": 1, "rank_in_cluster": 16}

>  <energy>  (20) 
-8.3

>  <cluster_rmsd>  (20) 
0.95

>  <rmsd>  (20) 
271.82

>  <cluster>  (20) 
1

$$$$
RHAOACRWGXEIGT-JWZPSYEVNA-P
     RDKit          3D

 61 65  0  0  0  0  0  0  0  0999 V2000
  141.7170   69.5604  229.2598 H   0  0  0  0  0  0  0  0  0  0  0  0
  141.1420   69.4180  228.3330 C   0  0  0  0  0  0  0  0  0  0  0  0
  140.5530   68.1820  228.0610 C   0  0  0  0  0  0  0  0  0  0  0  0
  140.6616   67.3521  228.7748 H   0  0  0  0  0  0  0  0  0  0  0  0
  139.8260   67.9990  226.8830 C   0  0  0  0  0  0  0  0  0  0  0  0
  139.3515   67.0281  226.6777 H   0  0  0  0  0  0  0  0  0  0  0  0
  139.6980   69.0480  225.9600 C   0  0  0  0  0  0  0  0  0  0  0  0
  140.2860   70.2990  226.2340 C   0  0  0  0  0  0  0  0  0  0  0  0
  141.0020   70.4750  227.4290 C   0  0  0  0  0  0  0  0  0  0  0  0
  141.4558   71.4512  227.6553 H   0  0  0  0  0  0  0  0  0  0  0  0
  140.1080   71.4660  225.2900 C   0  0  0  0  0  0  0  0  0  0  0  0
  141.0634   72.0062  225.2171 H   0  0  0  0  0  0  0  0  0  0  0  0
  139.3070   72.0994  225.6988 H   0  0  0  0  0  0  0  0  0  0  0  0
  139.6970   71.0570  223.9380 N   0  0  0  0  0  0  0  0  0  0  0  0
  139.6930   72.0430  222.9030 C   0  0  0  0  0  0  0  0  0  0  0  0
  138.5160   72.5750  222.4850 N   0  0  0  0  0  0  0  0  0  0  0  0
  138.4950   73.4960  221.4870 C   0  0  0  0  0  0  0  0  0  0  0  0
  137.3560   73.9690  221.0630 N   0  0  0  0  0  0  0  0  0  0  0  0
  137.2290   75.0080  221.0270 H   0  0  0  0  0  0  0  0  0  0  0  0
  136.2400   73.1000  220.6690 C   0  0  0  0  0  0  0  0  0  0  0  0
  135.4976   73.6978  220.1199 H   0  0  0  0  0  0  0  0  0  0  0  0
  136.6368   72.2927  220.0359 H   0  0  0  0  0  0  0  0  0  0  0  0
  135.5620   72.4640  221.8970 C   0  0  2  0  0  0  0  0  0  0  0  0
  134.4900   72.4946  221.6521 H   0  0  0  0  0  0  0  0  0  0  0  0
  135.8560   73.2170  223.2030 C   0  0  0  0  0  0  0  0  0  0  0  0
  134.9496   73.7405  223.5412 H   0  0  0  0  0  0  0  0  0  0  0  0
  136.6539   73.9563  223.0394 H   0  0  0  0  0  0  0  0  0  0  0  0
  136.2740   72.2440  224.2200 N   0  0  0  0  0  0  0  0  0  0  0  0
  137.3080   72.3440  224.3670 H   0  0  0  0  0  0  0  0  0  0  0  0
  136.0290   70.9160  223.6570 C   0  0  0  0  0  0  0  0  0  0  0  0
  135.0458   70.5454  223.9825 H   0  0  0  0  0  0  0  0  0  0  0  0
  136.7940   70.2029  223.9979 H   0  0  0  0  0  0  0  0  0  0  0  0
  136.0580   71.0500  222.1490 C   0  0  0  0  0  0  0  0  0  0  0  0
  135.3921   70.3121  221.6778 H   0  0  0  0  0  0  0  0  0  0  0  0
  137.0576   70.8700  221.7267 H   0  0  0  0  0  0  0  0  0  0  0  0
  139.6670   73.8880  220.9170 N   0  0  0  0  0  0  0  0  0  0  0  0
  140.8470   73.3540  221.3220 C   0  0  0  0  0  0  0  0  0  0  0  0
  142.0690   73.7500  220.6860 N   0  0  0  0  0  0  0  0  0  0  0  0
  143.2150   72.8370  220.6980 C   0  0  0  0  0  0  0  0  0  0  0  0
  143.8013   72.9979  221.6147 H   0  0  0  0  0  0  0  0  0  0  0  0
  142.8540   71.7983  220.6684 H   0  0  0  0  0  0  0  0  0  0  0  0
  144.1000   73.1030  219.4730 C   0  0  0  0  0  0  0  0  0  0  0  0
  145.0225   72.5103  219.5606 H   0  0  0  0  0  0  0  0  0  0  0  0
  143.5416   72.8171  218.5694 H   0  0  0  0  0  0  0  0  0  0  0  0
  144.4520   74.5290  219.3740 N   0  0  0  0  0  0  0  0  0  0  0  0
  145.0270   74.6700  218.5110 H   0  0  0  0  0  0  0  0  0  0  0  0
  145.0260   74.8160  220.2000 H   0  0  0  0  0  0  0  0  0  0  0  0
  143.2530   75.3750  219.2720 C   0  0  0  0  0  0  0  0  0  0  0  0
  143.5607   76.4300  219.2230 H   0  0  0  0  0  0  0  0  0  0  0  0
  142.7009   75.0910  218.3639 H   0  0  0  0  0  0  0  0  0  0  0  0
  142.3340   75.1770  220.4830 C   0  0  0  0  0  0  0  0  0  0  0  0
  142.8204   75.5879  221.3799 H   0  0  0  0  0  0  0  0  0  0  0  0
  141.3822   75.6978  220.3017 H   0  0  0  0  0  0  0  0  0  0  0  0
  140.8580   72.4260  222.3170 N   0  0  0  0  0  0  0  0  0  0  0  0
  141.7630   72.0190  222.6440 H   0  0  0  0  0  0  0  0  0  0  0  0
  139.5280   69.6490  223.5610 C   0  0  0  0  0  0  0  0  0  0  0  0
  140.5115   69.2166  223.3247 H   0  0  0  0  0  0  0  0  0  0  0  0
  138.8687   69.5918  222.6824 H   0  0  0  0  0  0  0  0  0  0  0  0
  138.8960   68.8640  224.7050 C   0  0  0  0  0  0  0  0  0  0  0  0
  138.8700   67.7960  224.4429 H   0  0  0  0  0  0  0  0  0  0  0  0
  137.8733   69.2325  224.8734 H   0  0  0  0  0  0  0  0  0  0  0  0
  1  2  1  0
  2  3  2  0
  3  4  1  0
  3  5  1  0
  5  6  1  0
  5  7  2  0
  7  8  1  0
  8  9  2  0
  9 10  1  0
  8 11  1  0
 11 12  1  0
 11 13  1  0
 11 14  1  0
 14 15  1  0
 15 16  2  0
 16 17  1  0
 17 18  2  0
 18 19  1  0
 18 20  1  0
 20 21  1  0
 20 22  1  0
 20 23  1  0
 23 24  1  6
 23 25  1  0
 25 26  1  0
 25 27  1  0
 25 28  1  0
 28 29  1  0
 28 30  1  0
 30 31  1  0
 30 32  1  0
 30 33  1  0
 33 34  1  0
 33 35  1  0
 17 36  1  0
 36 37  2  0
 37 38  1  0
 38 39  1  0
 39 40  1  0
 39 41  1  0
 39 42  1  0
 42 43  1  0
 42 44  1  0
 42 45  1  0
 45 46  1  0
 45 47  1  0
 45 48  1  0
 48 49  1  0
 48 50  1  0
 48 51  1  0
 51 52  1  0
 51 53  1  0
 37 54  1  0
 54 55  1  0
 14 56  1  0
 56 57  1  0
 56 58  1  0
 56 59  1  0
 59 60  1  0
 59 61  1  0
  9  2  1  0
 54 15  1  0
 59  7  1  0
 33 23  1  0
 51 38  1  0
M  CHG  2  18   1  45   1
M  END
>  <UniqueID>  (21) 
578

>  <SMILES>  (21) 
c1ccc2c(c1)CCN(c1n/c(=[NH+]/C[C@H]3CCNC3)nc(N3CC[NH2+]CC3)[nH]1)C2

>  <Energy>  (21) 
72.33460781501547

>  <Genealogy>  (21) 
c1ccc2c(c1)CCN(c1nc([NH2+]CC3CCNC3)nc(N3CC[NH2+]CC3)n1)C2 (protonated)
c1ccc2c(c1)CCN(c1nc(=[NH+]CC3CCNC3)nc(N3CC[NH2+]CC3)[nH]1)C2 (tautomer)
c1ccc2c(c1)CCN(c1nc(=[NH+]C[C@H]3CCNC3)nc(N3CC[NH2+]CC3)[nH]1)C2 (chirality)
c1ccc2c(c1)CCN(c1n/c(=[NH+]/C[C@H]3CCNC3)nc(N3CC[NH2+]CC3)[nH]1)C2 (cis-trans isomerization)
c1ccc2c(c1)CCN(c1n/c(=[NH+]/C[C@H]3CCNC3)nc(N3CC[NH2+]CC3)[nH]1)C2 (3D coordinates assigned)
c1ccc2c(c1)CCN(c1n/c(=[NH+]/C[C@H]3CCNC3)nc(N3CC[NH2+]CC3)[nH]1)C2 (nonaromatic ring conformer: 72.33460781501547 kcal/mol)

>  <smiles>  (21) 
c1ccc2c(c1)CCN(c1nc(NCC3CCNC3)nc(N3CCNCC3)n1)C2

>  <score_type>  (21) 
oracle

>  <origin>  (21) 
autodockgpu

>  <m_score__min__energy>  (21) 
-8.1799999999999997

>  <m_primary>  (21) 
energy

>  <meeko>  (21) 
{"free_energy": -6.9, "intermolecular_energy": -8.39, "internal_energy": -1.01, "cluster_size": 1, "cluster_id": 6, "rank_in_cluster": 1}

>  <energy>  (21) 
-8.18

>  <cluster_rmsd>  (21) 
0.0

>  <rmsd>  (21) 
270.38

>  <cluster>  (21) 
1

$$$$
RHAOACRWGXEIGT-JWZPSYEVNA-P
     RDKit          3D

 61 65  0  0  0  0  0  0  0  0999 V2000
  141.4829   69.2778  228.8523 H   0  0  0  0  0  0  0  0  0  0  0  0
  140.9210   69.2540  227.9070 C   0  0  0  0  0  0  0  0  0  0  0  0
  140.0730   68.1810  227.6270 C   0  0  0  0  0  0  0  0  0  0  0  0
  139.9659   67.3611  228.3525 H   0  0  0  0  0  0  0  0  0  0  0  0
  139.3610   68.1480  226.4270 C   0  0  0  0  0  0  0  0  0  0  0  0
  138.6820   67.3088  226.2158 H   0  0  0  0  0  0  0  0  0  0  0  0
  139.5080   69.1820  225.4880 C   0  0  0  0  0  0  0  0  0  0  0  0
  140.3580   70.2690  225.7700 C   0  0  0  0  0  0  0  0  0  0  0  0
  141.0570   70.2980  226.9880 C   0  0  0  0  0  0  0  0  0  0  0  0
  141.7157   71.1479  227.2200 H   0  0  0  0  0  0  0  0  0  0  0  0
  140.4840   71.4290  224.8080 C   0  0  0  0  0  0  0  0  0  0  0  0
  141.5400   71.7337  224.7631 H   0  0  0  0  0  0  0  0  0  0  0  0
  139.8383   72.2373  225.1817 H   0  0  0  0  0  0  0  0  0  0  0  0
  140.0330   71.1000  223.4470 N   0  0  0  0  0  0  0  0  0  0  0  0
  140.2890   72.0430  222.4020 C   0  0  0  0  0  0  0  0  0  0  0  0
  140.8900   71.6320  221.2570 N   0  0  0  0  0  0  0  0  0  0  0  0
  141.1590   72.5210  220.2660 C   0  0  0  0  0  0  0  0  0  0  0  0
  141.7750   72.1240  219.1870 N   0  0  0  0  0  0  0  0  0  0  0  0
  141.2670   71.4930  218.5250 H   0  0  0  0  0  0  0  0  0  0  0  0
  143.1620   72.5040  218.8880 C   0  0  0  0  0  0  0  0  0  0  0  0
  143.6377   71.6971  218.3113 H   0  0  0  0  0  0  0  0  0  0  0  0
  143.1475   73.4403  218.3108 H   0  0  0  0  0  0  0  0  0  0  0  0
  143.9700   72.7420  220.1770 C   0  0  2  0  0  0  0  0  0  0  0  0
  143.3548   72.2812  220.9639 H   0  0  0  0  0  0  0  0  0  0  0  0
  144.2180   74.2310  220.4640 C   0  0  0  0  0  0  0  0  0  0  0  0
  143.6128   74.5481  221.3261 H   0  0  0  0  0  0  0  0  0  0  0  0
  143.9353   74.8347  219.5890 H   0  0  0  0  0  0  0  0  0  0  0  0
  145.6430   74.4190  220.7640 N   0  0  0  0  0  0  0  0  0  0  0  0
  146.0940   74.8870  219.9400 H   0  0  0  0  0  0  0  0  0  0  0  0
  146.2250   73.0830  220.8940 C   0  0  0  0  0  0  0  0  0  0  0  0
  146.2392   72.7805  221.9515 H   0  0  0  0  0  0  0  0  0  0  0  0
  147.2597   73.0725  220.5207 H   0  0  0  0  0  0  0  0  0  0  0  0
  145.3590   72.1310  220.0950 C   0  0  0  0  0  0  0  0  0  0  0  0
  145.3706   71.1249  220.5396 H   0  0  0  0  0  0  0  0  0  0  0  0
  145.7078   72.0091  219.0589 H   0  0  0  0  0  0  0  0  0  0  0  0
  140.8110   73.8260  220.4290 N   0  0  0  0  0  0  0  0  0  0  0  0
  140.2200   74.2470  221.5750 C   0  0  0  0  0  0  0  0  0  0  0  0
  139.8930   75.6330  221.7470 N   0  0  0  0  0  0  0  0  0  0  0  0
  138.4940   76.0570  221.6720 C   0  0  0  0  0  0  0  0  0  0  0  0
  138.2314   76.2675  220.6248 H   0  0  0  0  0  0  0  0  0  0  0  0
  137.8490   75.2551  222.0605 H   0  0  0  0  0  0  0  0  0  0  0  0
  138.2920   77.3240  222.5130 C   0  0  0  0  0  0  0  0  0  0  0  0
  137.2756   77.7093  222.3441 H   0  0  0  0  0  0  0  0  0  0  0  0
  138.4364   77.0671  223.5728 H   0  0  0  0  0  0  0  0  0  0  0  0
  139.2680   78.3640  222.1460 N   0  0  0  0  0  0  0  0  0  0  0  0
  139.1160   79.1950  222.7630 H   0  0  0  0  0  0  0  0  0  0  0  0
  139.1230   78.6610  221.1540 H   0  0  0  0  0  0  0  0  0  0  0  0
  140.6510   77.8960  222.3350 C   0  0  0  0  0  0  0  0  0  0  0  0
  141.3449   78.6926  222.0286 H   0  0  0  0  0  0  0  0  0  0  0  0
  140.7935   77.6466  223.3968 H   0  0  0  0  0  0  0  0  0  0  0  0
  140.9280   76.6420  221.4990 C   0  0  0  0  0  0  0  0  0  0  0  0
  140.9280   76.9087  220.4318 H   0  0  0  0  0  0  0  0  0  0  0  0
  141.9080   76.2299  221.7814 H   0  0  0  0  0  0  0  0  0  0  0  0
  139.9600   73.3520  222.5660 N   0  0  0  0  0  0  0  0  0  0  0  0
  139.4930   73.6650  223.4460 H   0  0  0  0  0  0  0  0  0  0  0  0
  139.5580   69.7630  223.0780 C   0  0  0  0  0  0  0  0  0  0  0  0
  140.4230   69.1125  222.8812 H   0  0  0  0  0  0  0  0  0  0  0  0
  138.9323   69.8426  222.1768 H   0  0  0  0  0  0  0  0  0  0  0  0
  138.7250   69.1640  224.2080 C   0  0  0  0  0  0  0  0  0  0  0  0
  138.4624   68.1259  223.9562 H   0  0  0  0  0  0  0  0  0  0  0  0
  137.8093   69.7598  224.3365 H   0  0  0  0  0  0  0  0  0  0  0  0
  1  2  1  0
  2  3  2  0
  3  4  1  0
  3  5  1  0
  5  6  1  0
  5  7  2  0
  7  8  1  0
  8  9  2  0
  9 10  1  0
  8 11  1  0
 11 12  1  0
 11 13  1  0
 11 14  1  0
 14 15  1  0
 15 16  2  0
 16 17  1  0
 17 18  2  0
 18 19  1  0
 18 20  1  0
 20 21  1  0
 20 22  1  0
 20 23  1  0
 23 24  1  1
 23 25  1  0
 25 26  1  0
 25 27  1  0
 25 28  1  0
 28 29  1  0
 28 30  1  0
 30 31  1  0
 30 32  1  0
 30 33  1  0
 33 34  1  0
 33 35  1  0
 17 36  1  0
 36 37  2  0
 37 38  1  0
 38 39  1  0
 39 40  1  0
 39 41  1  0
 39 42  1  0
 42 43  1  0
 42 44  1  0
 42 45  1  0
 45 46  1  0
 45 47  1  0
 45 48  1  0
 48 49  1  0
 48 50  1  0
 48 51  1  0
 51 52  1  0
 51 53  1  0
 37 54  1  0
 54 55  1  0
 14 56  1  0
 56 57  1  0
 56 58  1  0
 56 59  1  0
 59 60  1  0
 59 61  1  0
  9  2  1  0
 54 15  1  0
 59  7  1  0
 33 23  1  0
 51 38  1  0
M  CHG  2  18   1  45   1
M  END
>  <UniqueID>  (22) 
578

>  <SMILES>  (22) 
c1ccc2c(c1)CCN(c1n/c(=[NH+]/C[C@H]3CCNC3)nc(N3CC[NH2+]CC3)[nH]1)C2

>  <Energy>  (22) 
72.33460781501547

>  <Genealogy>  (22) 
c1ccc2c(c1)CCN(c1nc([NH2+]CC3CCNC3)nc(N3CC[NH2+]CC3)n1)C2 (protonated)
c1ccc2c(c1)CCN(c1nc(=[NH+]CC3CCNC3)nc(N3CC[NH2+]CC3)[nH]1)C2 (tautomer)
c1ccc2c(c1)CCN(c1nc(=[NH+]C[C@H]3CCNC3)nc(N3CC[NH2+]CC3)[nH]1)C2 (chirality)
c1ccc2c(c1)CCN(c1n/c(=[NH+]/C[C@H]3CCNC3)nc(N3CC[NH2+]CC3)[nH]1)C2 (cis-trans isomerization)
c1ccc2c(c1)CCN(c1n/c(=[NH+]/C[C@H]3CCNC3)nc(N3CC[NH2+]CC3)[nH]1)C2 (3D coordinates assigned)
c1ccc2c(c1)CCN(c1n/c(=[NH+]/C[C@H]3CCNC3)nc(N3CC[NH2+]CC3)[nH]1)C2 (nonaromatic ring conformer: 72.33460781501547 kcal/mol)

>  <smiles>  (22) 
c1ccc2c(c1)CCN(c1nc(NCC3CCNC3)nc(N3CCNCC3)n1)C2

>  <score_type>  (22) 
oracle

>  <origin>  (22) 
autodockgpu

>  <m_score__min__energy>  (22) 
-8.1799999999999997

>  <m_primary>  (22) 
energy

>  <meeko>  (22) 
{"free_energy": -7.87, "intermolecular_energy": -9.36, "internal_energy": -0.34, "cluster_size": 2, "cluster_id": 2, "rank_in_cluster": 2}

>  <energy>  (22) 
-8.09

>  <cluster_rmsd>  (22) 
1.76

>  <rmsd>  (22) 
270.76

>  <cluster>  (22) 
1

$$$$
RHAOACRWGXEIGT-JWZPSYEVNA-P
     RDKit          3D

 61 65  0  0  0  0  0  0  0  0999 V2000
  145.9978   72.8692  221.4471 H   0  0  0  0  0  0  0  0  0  0  0  0
  145.4490   73.2630  220.5790 C   0  0  0  0  0  0  0  0  0  0  0  0
  145.4400   72.5500  219.3790 C   0  0  0  0  0  0  0  0  0  0  0  0
  145.9796   71.5945  219.3024 H   0  0  0  0  0  0  0  0  0  0  0  0
  144.7450   73.0510  218.2750 C   0  0  0  0  0  0  0  0  0  0  0  0
  144.7261   72.4805  217.3347 H   0  0  0  0  0  0  0  0  0  0  0  0
  144.0710   74.2790  218.3610 C   0  0  0  0  0  0  0  0  0  0  0  0
  144.0740   74.9980  219.5720 C   0  0  0  0  0  0  0  0  0  0  0  0
  144.7630   74.4750  220.6800 C   0  0  0  0  0  0  0  0  0  0  0  0
  144.7617   75.0242  221.6331 H   0  0  0  0  0  0  0  0  0  0  0  0
  143.3000   76.2890  219.7140 C   0  0  0  0  0  0  0  0  0  0  0  0
  143.9060   76.9986  220.2964 H   0  0  0  0  0  0  0  0  0  0  0  0
  142.3511   76.0499  220.2165 H   0  0  0  0  0  0  0  0  0  0  0  0
  142.9690   76.9070  218.4200 N   0  0  0  0  0  0  0  0  0  0  0  0
  142.4200   78.2270  218.4200 C   0  0  0  0  0  0  0  0  0  0  0  0
  141.4250   78.5420  219.2880 N   0  0  0  0  0  0  0  0  0  0  0  0
  140.8790   79.7860  219.2840 C   0  0  0  0  0  0  0  0  0  0  0  0
  139.8940   80.0650  220.0910 N   0  0  0  0  0  0  0  0  0  0  0  0
  139.2210   80.8180  219.8160 H   0  0  0  0  0  0  0  0  0  0  0  0
  139.7180   79.3880  221.3820 C   0  0  0  0  0  0  0  0  0  0  0  0
  138.6557   79.4281  221.6648 H   0  0  0  0  0  0  0  0  0  0  0  0
  140.0554   78.3465  221.2746 H   0  0  0  0  0  0  0  0  0  0  0  0
  140.5560   80.0560  222.4880 C   0  0  2  0  0  0  0  0  0  0  0  0
  139.8221   80.6475  223.0550 H   0  0  0  0  0  0  0  0  0  0  0  0
  141.6800   80.9450  221.9350 C   0  0  0  0  0  0  0  0  0  0  0  0
  141.4360   82.0032  222.1103 H   0  0  0  0  0  0  0  0  0  0  0  0
  141.7922   80.7802  220.8532 H   0  0  0  0  0  0  0  0  0  0  0  0
  142.9290   80.6040  222.6270 N   0  0  0  0  0  0  0  0  0  0  0  0
  143.5370   80.0650  221.9630 H   0  0  0  0  0  0  0  0  0  0  0  0
  142.5690   79.7110  223.7280 C   0  0  0  0  0  0  0  0  0  0  0  0
  142.4391   80.2901  224.6542 H   0  0  0  0  0  0  0  0  0  0  0  0
  143.3604   78.9660  223.8973 H   0  0  0  0  0  0  0  0  0  0  0  0
  141.2680   79.0320  223.3560 C   0  0  0  0  0  0  0  0  0  0  0  0
  140.6763   78.8012  224.2541 H   0  0  0  0  0  0  0  0  0  0  0  0
  141.4226   78.0729  222.8400 H   0  0  0  0  0  0  0  0  0  0  0  0
  141.3460   80.7160  218.4080 N   0  0  0  0  0  0  0  0  0  0  0  0
  142.3330   80.4060  217.5300 C   0  0  0  0  0  0  0  0  0  0  0  0
  142.7890   81.3860  216.5870 N   0  0  0  0  0  0  0  0  0  0  0  0
  143.4090   82.6190  217.0750 C   0  0  0  0  0  0  0  0  0  0  0  0
  142.6281   83.3690  217.2692 H   0  0  0  0  0  0  0  0  0  0  0  0
  143.9575   82.4080  218.0048 H   0  0  0  0  0  0  0  0  0  0  0  0
  144.3840   83.1590  216.0210 C   0  0  0  0  0  0  0  0  0  0  0  0
  144.7418   84.1501  216.3369 H   0  0  0  0  0  0  0  0  0  0  0  0
  145.2245   82.4553  215.9298 H   0  0  0  0  0  0  0  0  0  0  0  0
  143.7310   83.2800  214.7070 N   0  0  0  0  0  0  0  0  0  0  0  0
  144.4390   83.6190  214.0150 H   0  0  0  0  0  0  0  0  0  0  0  0
  142.9550   83.9790  214.7540 H   0  0  0  0  0  0  0  0  0  0  0  0
  143.2150   81.9830  214.2410 C   0  0  0  0  0  0  0  0  0  0  0  0
  142.7165   82.1224  213.2704 H   0  0  0  0  0  0  0  0  0  0  0  0
  144.0596   81.2849  214.1449 H   0  0  0  0  0  0  0  0  0  0  0  0
  142.2110   81.3980  215.2400 C   0  0  0  0  0  0  0  0  0  0  0  0
  141.2987   82.0126  215.2411 H   0  0  0  0  0  0  0  0  0  0  0  0
  141.9675   80.3670  214.9437 H   0  0  0  0  0  0  0  0  0  0  0  0
  142.8700   79.1560  217.5350 N   0  0  0  0  0  0  0  0  0  0  0  0
  143.6400   78.9130  216.8720 H   0  0  0  0  0  0  0  0  0  0  0  0
  143.3980   76.3300  217.1420 C   0  0  0  0  0  0  0  0  0  0  0  0
  144.4401   76.6217  216.9445 H   0  0  0  0  0  0  0  0  0  0  0  0
  142.7417   76.7059  216.3433 H   0  0  0  0  0  0  0  0  0  0  0  0
  143.3020   74.8090  217.1850 C   0  0  0  0  0  0  0  0  0  0  0  0
  143.7208   74.3912  216.2576 H   0  0  0  0  0  0  0  0  0  0  0  0
  142.2461   74.5164  217.2824 H   0  0  0  0  0  0  0  0  0  0  0  0
  1  2  1  0
  2  3  2  0
  3  4  1  0
  3  5  1  0
  5  6  1  0
  5  7  2  0
  7  8  1  0
  8  9  2  0
  9 10  1  0
  8 11  1  0
 11 12  1  0
 11 13  1  0
 11 14  1  0
 14 15  1  0
 15 16  2  0
 16 17  1  0
 17 18  2  0
 18 19  1  0
 18 20  1  0
 20 21  1  0
 20 22  1  0
 20 23  1  0
 23 24  1  1
 23 25  1  0
 25 26  1  0
 25 27  1  0
 25 28  1  0
 28 29  1  0
 28 30  1  0
 30 31  1  0
 30 32  1  0
 30 33  1  0
 33 34  1  0
 33 35  1  0
 17 36  1  0
 36 37  2  0
 37 38  1  0
 38 39  1  0
 39 40  1  0
 39 41  1  0
 39 42  1  0
 42 43  1  0
 42 44  1  0
 42 45  1  0
 45 46  1  0
 45 47  1  0
 45 48  1  0
 48 49  1  0
 48 50  1  0
 48 51  1  0
 51 52  1  0
 51 53  1  0
 37 54  1  0
 54 55  1  0
 14 56  1  0
 56 57  1  0
 56 58  1  0
 56 59  1  0
 59 60  1  0
 59 61  1  0
  9  2  1  0
 54 15  1  0
 59  7  1  0
 33 23  1  0
 51 38  1  0
M  CHG  2  18   1  45   1
M  END
>  <UniqueID>  (23) 
578

>  <SMILES>  (23) 
c1ccc2c(c1)CCN(c1n/c(=[NH+]/C[C@H]3CCNC3)nc(N3CC[NH2+]CC3)[nH]1)C2

>  <Energy>  (23) 
72.33460781501547

>  <Genealogy>  (23) 
c1ccc2c(c1)CCN(c1nc([NH2+]CC3CCNC3)nc(N3CC[NH2+]CC3)n1)C2 (protonated)
c1ccc2c(c1)CCN(c1nc(=[NH+]CC3CCNC3)nc(N3CC[NH2+]CC3)[nH]1)C2 (tautomer)
c1ccc2c(c1)CCN(c1nc(=[NH+]C[C@H]3CCNC3)nc(N3CC[NH2+]CC3)[nH]1)C2 (chirality)
c1ccc2c(c1)CCN(c1n/c(=[NH+]/C[C@H]3CCNC3)nc(N3CC[NH2+]CC3)[nH]1)C2 (cis-trans isomerization)
c1ccc2c(c1)CCN(c1n/c(=[NH+]/C[C@H]3CCNC3)nc(N3CC[NH2+]CC3)[nH]1)C2 (3D coordinates assigned)
c1ccc2c(c1)CCN(c1n/c(=[NH+]/C[C@H]3CCNC3)nc(N3CC[NH2+]CC3)[nH]1)C2 (nonaromatic ring conformer: 72.33460781501547 kcal/mol)

>  <smiles>  (23) 
c1ccc2c(c1)CCN(c1nc(NCC3CCNC3)nc(N3CCNCC3)n1)C2

>  <score_type>  (23) 
oracle

>  <origin>  (23) 
autodockgpu

>  <m_score__min__energy>  (23) 
-8.1799999999999997

>  <m_primary>  (23) 
energy

>  <meeko>  (23) 
{"free_energy": -7.59, "intermolecular_energy": -9.08, "internal_energy": -0.26, "cluster_size": 8, "cluster_id": 4, "rank_in_cluster": 4}

>  <energy>  (23) 
-7.83

>  <cluster_rmsd>  (23) 
0.69

>  <rmsd>  (23) 
270.23

>  <cluster>  (23) 
1

$$$$
RHAOACRWGXEIGT-JWZPSYEVNA-P
     RDKit          3D

 61 65  0  0  0  0  0  0  0  0999 V2000
  143.8183   68.5633  218.1191 H   0  0  0  0  0  0  0  0  0  0  0  0
  144.2660   69.5110  218.4530 C   0  0  0  0  0  0  0  0  0  0  0  0
  145.5820   69.5340  218.9190 C   0  0  0  0  0  0  0  0  0  0  0  0
  146.1706   68.6052  218.9506 H   0  0  0  0  0  0  0  0  0  0  0  0
  146.1510   70.7360  219.3450 C   0  0  0  0  0  0  0  0  0  0  0  0
  147.1928   70.7546  219.6975 H   0  0  0  0  0  0  0  0  0  0  0  0
  145.3980   71.9210  219.3250 C   0  0  0  0  0  0  0  0  0  0  0  0
  144.0720   71.9020  218.8500 C   0  0  0  0  0  0  0  0  0  0  0  0
  143.5170   70.6890  218.4100 C   0  0  0  0  0  0  0  0  0  0  0  0
  142.4853   70.6667  218.0289 H   0  0  0  0  0  0  0  0  0  0  0  0
  143.2610   73.1750  218.7540 C   0  0  0  0  0  0  0  0  0  0  0  0
  142.2311   72.9593  219.0747 H   0  0  0  0  0  0  0  0  0  0  0  0
  143.3038   73.5137  217.7083 H   0  0  0  0  0  0  0  0  0  0  0  0
  143.7940   74.2620  219.5900 N   0  0  0  0  0  0  0  0  0  0  0  0
  143.0080   75.4460  219.7440 C   0  0  0  0  0  0  0  0  0  0  0  0
  142.2030   75.5830  220.8280 N   0  0  0  0  0  0  0  0  0  0  0  0
  141.4330   76.6930  220.9760 C   0  0  0  0  0  0  0  0  0  0  0  0
  140.6310   76.7950  221.9990 N   0  0  0  0  0  0  0  0  0  0  0  0
  140.5770   75.9970  222.6730 H   0  0  0  0  0  0  0  0  0  0  0  0
  139.7800   77.9720  222.2170 C   0  0  0  0  0  0  0  0  0  0  0  0
  139.3358   78.2749  221.2573 H   0  0  0  0  0  0  0  0  0  0  0  0
  138.9978   77.7035  222.9423 H   0  0  0  0  0  0  0  0  0  0  0  0
  140.5870   79.1520  222.7900 C   0  0  2  0  0  0  0  0  0  0  0  0
  139.8737   79.6641  223.4525 H   0  0  0  0  0  0  0  0  0  0  0  0
  141.1170   80.1000  221.7040 C   0  0  0  0  0  0  0  0  0  0  0  0
  140.5650   81.0508  221.7403 H   0  0  0  0  0  0  0  0  0  0  0  0
  140.9813   79.6472  220.7107 H   0  0  0  0  0  0  0  0  0  0  0  0
  142.5430   80.3460  221.9530 N   0  0  0  0  0  0  0  0  0  0  0  0
  143.0980   79.8180  221.2370 H   0  0  0  0  0  0  0  0  0  0  0  0
  142.8460   79.7730  223.2640 C   0  0  0  0  0  0  0  0  0  0  0  0
  142.7742   80.5500  224.0394 H   0  0  0  0  0  0  0  0  0  0  0  0
  143.8670   79.3641  223.2820 H   0  0  0  0  0  0  0  0  0  0  0  0
  141.8290   78.6820  223.5290 C   0  0  0  0  0  0  0  0  0  0  0  0
  141.6302   78.5858  224.6066 H   0  0  0  0  0  0  0  0  0  0  0  0
  142.1723   77.6920  223.1944 H   0  0  0  0  0  0  0  0  0  0  0  0
  141.4850   77.6700  220.0310 N   0  0  0  0  0  0  0  0  0  0  0  0
  142.2790   77.5360  218.9390 C   0  0  0  0  0  0  0  0  0  0  0  0
  142.2940   78.5580  217.9330 N   0  0  0  0  0  0  0  0  0  0  0  0
  142.5220   78.1870  216.5340 C   0  0  0  0  0  0  0  0  0  0  0  0
  143.6032   78.1662  216.3326 H   0  0  0  0  0  0  0  0  0  0  0  0
  142.0925   77.1919  216.3460 H   0  0  0  0  0  0  0  0  0  0  0  0
  141.8510   79.2130  215.6120 C   0  0  0  0  0  0  0  0  0  0  0  0
  142.1393   79.0035  214.5713 H   0  0  0  0  0  0  0  0  0  0  0  0
  140.7608   79.1327  215.7348 H   0  0  0  0  0  0  0  0  0  0  0  0
  142.2610   80.5850  215.9580 N   0  0  0  0  0  0  0  0  0  0  0  0
  141.7570   81.2510  215.3280 H   0  0  0  0  0  0  0  0  0  0  0  0
  143.2890   80.7020  215.8060 H   0  0  0  0  0  0  0  0  0  0  0  0
  141.9150   80.9160  217.3500 C   0  0  0  0  0  0  0  0  0  0  0  0
  142.2585   81.9370  217.5728 H   0  0  0  0  0  0  0  0  0  0  0  0
  140.8237   80.8419  217.4663 H   0  0  0  0  0  0  0  0  0  0  0  0
  142.5770   79.9400  218.3290 C   0  0  0  0  0  0  0  0  0  0  0  0
  143.6648   80.1036  218.3258 H   0  0  0  0  0  0  0  0  0  0  0  0
  142.1745   80.1144  219.3378 H   0  0  0  0  0  0  0  0  0  0  0  0
  143.0410   76.4180  218.7950 N   0  0  0  0  0  0  0  0  0  0  0  0
  143.6660   76.3130  217.9640 H   0  0  0  0  0  0  0  0  0  0  0  0
  144.9680   74.0870  220.4520 C   0  0  0  0  0  0  0  0  0  0  0  0
  144.6595   73.6022  221.3900 H   0  0  0  0  0  0  0  0  0  0  0  0
  145.4059   75.0740  220.6619 H   0  0  0  0  0  0  0  0  0  0  0  0
  146.0140   73.2200  219.7590 C   0  0  0  0  0  0  0  0  0  0  0  0
  146.8393   73.0166  220.4573 H   0  0  0  0  0  0  0  0  0  0  0  0
  146.3960   73.7518  218.8751 H   0  0  0  0  0  0  0  0  0  0  0  0
  1  2  1  0
  2  3  2  0
  3  4  1  0
  3  5  1  0
  5  6  1  0
  5  7  2  0
  7  8  1  0
  8  9  2  0
  9 10  1  0
  8 11  1  0
 11 12  1  0
 11 13  1  0
 11 14  1  0
 14 15  1  0
 15 16  2  0
 16 17  1  0
 17 18  2  0
 18 19  1  0
 18 20  1  0
 20 21  1  0
 20 22  1  0
 20 23  1  0
 23 24  1  1
 23 25  1  0
 25 26  1  0
 25 27  1  0
 25 28  1  0
 28 29  1  0
 28 30  1  0
 30 31  1  0
 30 32  1  0
 30 33  1  0
 33 34  1  0
 33 35  1  0
 17 36  1  0
 36 37  2  0
 37 38  1  0
 38 39  1  0
 39 40  1  0
 39 41  1  0
 39 42  1  0
 42 43  1  0
 42 44  1  0
 42 45  1  0
 45 46  1  0
 45 47  1  0
 45 48  1  0
 48 49  1  0
 48 50  1  0
 48 51  1  0
 51 52  1  0
 51 53  1  0
 37 54  1  0
 54 55  1  0
 14 56  1  0
 56 57  1  0
 56 58  1  0
 56 59  1  0
 59 60  1  0
 59 61  1  0
  9  2  1  0
 54 15  1  0
 59  7  1  0
 33 23  1  0
 51 38  1  0
M  CHG  2  18   1  45   1
M  END
>  <UniqueID>  (24) 
578

>  <SMILES>  (24) 
c1ccc2c(c1)CCN(c1n/c(=[NH+]/C[C@H]3CCNC3)nc(N3CC[NH2+]CC3)[nH]1)C2

>  <Energy>  (24) 
72.33460781501547

>  <Genealogy>  (24) 
c1ccc2c(c1)CCN(c1nc([NH2+]CC3CCNC3)nc(N3CC[NH2+]CC3)n1)C2 (protonated)
c1ccc2c(c1)CCN(c1nc(=[NH+]CC3CCNC3)nc(N3CC[NH2+]CC3)[nH]1)C2 (tautomer)
c1ccc2c(c1)CCN(c1nc(=[NH+]C[C@H]3CCNC3)nc(N3CC[NH2+]CC3)[nH]1)C2 (chirality)
c1ccc2c(c1)CCN(c1n/c(=[NH+]/C[C@H]3CCNC3)nc(N3CC[NH2+]CC3)[nH]1)C2 (cis-trans isomerization)
c1ccc2c(c1)CCN(c1n/c(=[NH+]/C[C@H]3CCNC3)nc(N3CC[NH2+]CC3)[nH]1)C2 (3D coordinates assigned)
c1ccc2c(c1)CCN(c1n/c(=[NH+]/C[C@H]3CCNC3)nc(N3CC[NH2+]CC3)[nH]1)C2 (nonaromatic ring conformer: 72.33460781501547 kcal/mol)

>  <smiles>  (24) 
c1ccc2c(c1)CCN(c1nc(NCC3CCNC3)nc(N3CCNCC3)n1)C2

>  <score_type>  (24) 
oracle

>  <origin>  (24) 
autodockgpu

>  <m_score__min__energy>  (24) 
-8.1799999999999997

>  <m_primary>  (24) 
energy

>  <meeko>  (24) 
{"free_energy": -7.94, "intermolecular_energy": -9.43, "internal_energy": -0.5, "cluster_size": 2, "cluster_id": 3, "rank_in_cluster": 1}

>  <energy>  (24) 
-7.77

>  <cluster_rmsd>  (24) 
1.88

>  <rmsd>  (24) 
269.61

>  <cluster>  (24) 
1

$$$$
RHAOACRWGXEIGT-JWZPSYEVNA-P
     RDKit          3D

 61 65  0  0  0  0  0  0  0  0999 V2000
  140.4348   72.9609  222.6336 H   0  0  0  0  0  0  0  0  0  0  0  0
  140.9580   73.4720  221.8120 C   0  0  0  0  0  0  0  0  0  0  0  0
  141.8650   72.7670  221.0190 C   0  0  0  0  0  0  0  0  0  0  0  0
  142.0553   71.7015  221.2150 H   0  0  0  0  0  0  0  0  0  0  0  0
  142.5310   73.4160  219.9760 C   0  0  0  0  0  0  0  0  0  0  0  0
  143.2337   72.8554  219.3421 H   0  0  0  0  0  0  0  0  0  0  0  0
  142.3070   74.7800  219.7340 C   0  0  0  0  0  0  0  0  0  0  0  0
  141.3880   75.4930  220.5290 C   0  0  0  0  0  0  0  0  0  0  0  0
  140.7130   74.8250  221.5650 C   0  0  0  0  0  0  0  0  0  0  0  0
  139.9871   75.3710  222.1854 H   0  0  0  0  0  0  0  0  0  0  0  0
  141.0770   76.9450  220.2480 C   0  0  0  0  0  0  0  0  0  0  0  0
  140.9956   77.4777  221.2069 H   0  0  0  0  0  0  0  0  0  0  0  0
  140.1358   76.9752  219.6795 H   0  0  0  0  0  0  0  0  0  0  0  0
  142.1060   77.6070  219.4300 N   0  0  0  0  0  0  0  0  0  0  0  0
  142.0320   79.0260  219.2660 C   0  0  0  0  0  0  0  0  0  0  0  0
  141.4750   79.7880  220.2400 N   0  0  0  0  0  0  0  0  0  0  0  0
  141.3780   81.1340  220.0880 C   0  0  0  0  0  0  0  0  0  0  0  0
  140.8020   81.8530  221.0110 N   0  0  0  0  0  0  0  0  0  0  0  0
  139.8440   82.2310  220.8250 H   0  0  0  0  0  0  0  0  0  0  0  0
  141.4620   82.1780  222.2820 C   0  0  0  0  0  0  0  0  0  0  0  0
  142.4865   82.5214  222.0758 H   0  0  0  0  0  0  0  0  0  0  0  0
  140.8799   82.9655  222.7830 H   0  0  0  0  0  0  0  0  0  0  0  0
  141.5220   80.9530  223.2130 C   0  0  2  0  0  0  0  0  0  0  0  0
  141.5706   81.3902  224.2212 H   0  0  0  0  0  0  0  0  0  0  0  0
  142.7330   80.0490  222.9400 C   0  0  0  0  0  0  0  0  0  0  0  0
  143.4570   80.1408  223.7630 H   0  0  0  0  0  0  0  0  0  0  0  0
  143.2213   80.3483  222.0009 H   0  0  0  0  0  0  0  0  0  0  0  0
  142.2680   78.6600  222.8430 N   0  0  0  0  0  0  0  0  0  0  0  0
  142.2970   78.3720  221.8350 H   0  0  0  0  0  0  0  0  0  0  0  0
  140.8690   78.6540  223.2690 C   0  0  0  0  0  0  0  0  0  0  0  0
  140.8024   78.3994  224.3370 H   0  0  0  0  0  0  0  0  0  0  0  0
  140.2939   77.9069  222.7024 H   0  0  0  0  0  0  0  0  0  0  0  0
  140.3170   80.0450  223.0330 C   0  0  0  0  0  0  0  0  0  0  0  0
  139.5335   80.2847  223.7670 H   0  0  0  0  0  0  0  0  0  0  0  0
  139.8491   80.1530  222.0434 H   0  0  0  0  0  0  0  0  0  0  0  0
  141.8530   81.7120  218.9510 N   0  0  0  0  0  0  0  0  0  0  0  0
  142.4020   80.9550  217.9670 C   0  0  0  0  0  0  0  0  0  0  0  0
  142.8640   81.5750  216.7590 N   0  0  0  0  0  0  0  0  0  0  0  0
  143.7910   82.7060  216.8410 C   0  0  0  0  0  0  0  0  0  0  0  0
  143.2198   83.6409  216.9391 H   0  0  0  0  0  0  0  0  0  0  0  0
  144.4443   82.5795  217.7169 H   0  0  0  0  0  0  0  0  0  0  0  0
  144.6490   82.7630  215.5700 C   0  0  0  0  0  0  0  0  0  0  0  0
  145.2444   83.6879  215.5796 H   0  0  0  0  0  0  0  0  0  0  0  0
  145.3058   81.8808  215.5518 H   0  0  0  0  0  0  0  0  0  0  0  0
  143.8080   82.7450  214.3620 N   0  0  0  0  0  0  0  0  0  0  0  0
  144.4330   82.7520  213.5230 H   0  0  0  0  0  0  0  0  0  0  0  0
  143.2050   83.5980  214.3300 H   0  0  0  0  0  0  0  0  0  0  0  0
  142.9730   81.5340  214.3040 C   0  0  0  0  0  0  0  0  0  0  0  0
  142.3462   81.5725  213.4009 H   0  0  0  0  0  0  0  0  0  0  0  0
  143.6333   80.6546  214.2784 H   0  0  0  0  0  0  0  0  0  0  0  0
  142.0690   81.4290  215.5370 C   0  0  0  0  0  0  0  0  0  0  0  0
  141.3097   82.2240  215.5000 H   0  0  0  0  0  0  0  0  0  0  0  0
  141.5800   80.4437  215.5416 H   0  0  0  0  0  0  0  0  0  0  0  0
  142.4890   79.6070  218.1250 N   0  0  0  0  0  0  0  0  0  0  0  0
  142.9220   79.0190  217.3780 H   0  0  0  0  0  0  0  0  0  0  0  0
  143.3210   76.9160  218.9860 C   0  0  0  0  0  0  0  0  0  0  0  0
  144.0577   76.9173  219.8028 H   0  0  0  0  0  0  0  0  0  0  0  0
  143.7286   77.4393  218.1085 H   0  0  0  0  0  0  0  0  0  0  0  0
  143.0020   75.4750  218.5990 C   0  0  0  0  0  0  0  0  0  0  0  0
  143.9372   74.9451  218.3654 H   0  0  0  0  0  0  0  0  0  0  0  0
  142.3431   75.4752  217.7182 H   0  0  0  0  0  0  0  0  0  0  0  0
  1  2  1  0
  2  3  2  0
  3  4  1  0
  3  5  1  0
  5  6  1  0
  5  7  2  0
  7  8  1  0
  8  9  2  0
  9 10  1  0
  8 11  1  0
 11 12  1  0
 11 13  1  0
 11 14  1  0
 14 15  1  0
 15 16  2  0
 16 17  1  0
 17 18  2  0
 18 19  1  0
 18 20  1  0
 20 21  1  0
 20 22  1  0
 20 23  1  0
 23 24  1  1
 23 25  1  0
 25 26  1  0
 25 27  1  0
 25 28  1  0
 28 29  1  0
 28 30  1  0
 30 31  1  0
 30 32  1  0
 30 33  1  0
 33 34  1  0
 33 35  1  0
 17 36  1  0
 36 37  2  0
 37 38  1  0
 38 39  1  0
 39 40  1  0
 39 41  1  0
 39 42  1  0
 42 43  1  0
 42 44  1  0
 42 45  1  0
 45 46  1  0
 45 47  1  0
 45 48  1  0
 48 49  1  0
 48 50  1  0
 48 51  1  0
 51 52  1  0
 51 53  1  0
 37 54  1  0
 54 55  1  0
 14 56  1  0
 56 57  1  0
 56 58  1  0
 56 59  1  0
 59 60  1  0
 59 61  1  0
  9  2  1  0
 54 15  1  0
 59  7  1  0
 33 23  1  0
 51 38  1  0
M  CHG  2  18   1  45   1
M  END
>  <UniqueID>  (25) 
578

>  <SMILES>  (25) 
c1ccc2c(c1)CCN(c1n/c(=[NH+]/C[C@H]3CCNC3)nc(N3CC[NH2+]CC3)[nH]1)C2

>  <Energy>  (25) 
72.33460781501547

>  <Genealogy>  (25) 
c1ccc2c(c1)CCN(c1nc([NH2+]CC3CCNC3)nc(N3CC[NH2+]CC3)n1)C2 (protonated)
c1ccc2c(c1)CCN(c1nc(=[NH+]CC3CCNC3)nc(N3CC[NH2+]CC3)[nH]1)C2 (tautomer)
c1ccc2c(c1)CCN(c1nc(=[NH+]C[C@H]3CCNC3)nc(N3CC[NH2+]CC3)[nH]1)C2 (chirality)
c1ccc2c(c1)CCN(c1n/c(=[NH+]/C[C@H]3CCNC3)nc(N3CC[NH2+]CC3)[nH]1)C2 (cis-trans isomerization)
c1ccc2c(c1)CCN(c1n/c(=[NH+]/C[C@H]3CCNC3)nc(N3CC[NH2+]CC3)[nH]1)C2 (3D coordinates assigned)
c1ccc2c(c1)CCN(c1n/c(=[NH+]/C[C@H]3CCNC3)nc(N3CC[NH2+]CC3)[nH]1)C2 (nonaromatic ring conformer: 72.33460781501547 kcal/mol)

>  <smiles>  (25) 
c1ccc2c(c1)CCN(c1nc(NCC3CCNC3)nc(N3CCNCC3)n1)C2

>  <score_type>  (25) 
oracle

>  <origin>  (25) 
autodockgpu

>  <m_score__min__energy>  (25) 
-8.1799999999999997

>  <m_primary>  (25) 
energy

>  <meeko>  (25) 
{"free_energy": -6.8, "intermolecular_energy": -8.29, "internal_energy": -1.19, "cluster_size": 8, "cluster_id": 4, "rank_in_cluster": 8}

>  <energy>  (25) 
-8.05

>  <cluster_rmsd>  (25) 
0.0

>  <rmsd>  (25) 
270.88

>  <cluster>  (25) 
2

$$$$
RHAOACRWGXEIGT-JWZPSYEVNA-P
     RDKit          3D

 61 65  0  0  0  0  0  0  0  0999 V2000
  141.6400   68.6959  228.3235 H   0  0  0  0  0  0  0  0  0  0  0  0
  141.0490   68.8030  227.4020 C   0  0  0  0  0  0  0  0  0  0  0  0
  140.3490   67.7090  226.8930 C   0  0  0  0  0  0  0  0  0  0  0  0
  140.3867   66.7412  227.4145 H   0  0  0  0  0  0  0  0  0  0  0  0
  139.6000   67.8420  225.7210 C   0  0  0  0  0  0  0  0  0  0  0  0
  139.0376   66.9817  225.3292 H   0  0  0  0  0  0  0  0  0  0  0  0
  139.5630   69.0700  225.0420 C   0  0  0  0  0  0  0  0  0  0  0  0
  140.2650   70.1780  225.5560 C   0  0  0  0  0  0  0  0  0  0  0  0
  141.0010   70.0340  226.7440 C   0  0  0  0  0  0  0  0  0  0  0  0
  141.5431   70.8966  227.1587 H   0  0  0  0  0  0  0  0  0  0  0  0
  140.1880   71.5290  224.8820 C   0  0  0  0  0  0  0  0  0  0  0  0
  141.1881   71.9867  224.8996 H   0  0  0  0  0  0  0  0  0  0  0  0
  139.4507   72.1300  225.4344 H   0  0  0  0  0  0  0  0  0  0  0  0
  139.7330   71.4510  223.4850 N   0  0  0  0  0  0  0  0  0  0  0  0
  139.8130   72.6300  222.6790 C   0  0  0  0  0  0  0  0  0  0  0  0
  141.0210   73.0710  222.2490 N   0  0  0  0  0  0  0  0  0  0  0  0
  141.1130   74.2030  221.5020 C   0  0  0  0  0  0  0  0  0  0  0  0
  142.2830   74.6420  221.1300 N   0  0  0  0  0  0  0  0  0  0  0  0
  142.9040   75.0820  221.8490 H   0  0  0  0  0  0  0  0  0  0  0  0
  142.7440   74.5710  219.7370 C   0  0  0  0  0  0  0  0  0  0  0  0
  142.2424   73.7295  219.2367 H   0  0  0  0  0  0  0  0  0  0  0  0
  142.4983   75.5225  219.2427 H   0  0  0  0  0  0  0  0  0  0  0  0
  144.2680   74.3640  219.6580 C   0  0  2  0  0  0  0  0  0  0  0  0
  144.6741   75.3862  219.6427 H   0  0  0  0  0  0  0  0  0  0  0  0
  144.7030   73.5750  218.4150 C   0  0  0  0  0  0  0  0  0  0  0  0
  145.2149   74.2468  217.7102 H   0  0  0  0  0  0  0  0  0  0  0  0
  143.8225   73.1411  217.9186 H   0  0  0  0  0  0  0  0  0  0  0  0
  145.6190   72.5070  218.8340 N   0  0  0  0  0  0  0  0  0  0  0  0
  145.1080   71.5930  218.7760 H   0  0  0  0  0  0  0  0  0  0  0  0
  145.9340   72.7530  220.2420 C   0  0  0  0  0  0  0  0  0  0  0  0
  146.8708   73.3238  220.3233 H   0  0  0  0  0  0  0  0  0  0  0  0
  146.0632   71.8035  220.7822 H   0  0  0  0  0  0  0  0  0  0  0  0
  144.7890   73.5510  220.8310 C   0  0  0  0  0  0  0  0  0  0  0  0
  145.1451   74.2101  221.6365 H   0  0  0  0  0  0  0  0  0  0  0  0
  144.0148   72.9125  221.2815 H   0  0  0  0  0  0  0  0  0  0  0  0
  139.9800   74.8840  221.1820 N   0  0  0  0  0  0  0  0  0  0  0  0
  138.7680   74.4550  221.6180 C   0  0  0  0  0  0  0  0  0  0  0  0
  137.5870   75.2050  221.3040 N   0  0  0  0  0  0  0  0  0  0  0  0
  137.2820   76.4180  222.0650 C   0  0  0  0  0  0  0  0  0  0  0  0
  136.7068   76.1509  222.9638 H   0  0  0  0  0  0  0  0  0  0  0  0
  138.2211   76.9090  222.3601 H   0  0  0  0  0  0  0  0  0  0  0  0
  136.4570   77.3780  221.1980 C   0  0  0  0  0  0  0  0  0  0  0  0
  136.1195   78.2219  221.8176 H   0  0  0  0  0  0  0  0  0  0  0  0
  137.0897   77.7342  220.3717 H   0  0  0  0  0  0  0  0  0  0  0  0
  135.2810   76.6990  220.6280 N   0  0  0  0  0  0  0  0  0  0  0  0
  134.7680   77.3790  220.0210 H   0  0  0  0  0  0  0  0  0  0  0  0
  134.6380   76.3920  221.3930 H   0  0  0  0  0  0  0  0  0  0  0  0
  135.6720   75.5460  219.8020 C   0  0  0  0  0  0  0  0  0  0  0  0
  134.7656   75.0563  219.4165 H   0  0  0  0  0  0  0  0  0  0  0  0
  136.2989   75.9065  218.9731 H   0  0  0  0  0  0  0  0  0  0  0  0
  136.4800   74.5320  220.6180 C   0  0  0  0  0  0  0  0  0  0  0  0
  135.8237   74.0593  221.3635 H   0  0  0  0  0  0  0  0  0  0  0  0
  136.8879   73.7677  219.9402 H   0  0  0  0  0  0  0  0  0  0  0  0
  138.6860   73.3260  222.3710 N   0  0  0  0  0  0  0  0  0  0  0  0
  137.7550   72.9810  222.7000 H   0  0  0  0  0  0  0  0  0  0  0  0
  139.4350   70.1750  222.8260 C   0  0  0  0  0  0  0  0  0  0  0  0
  140.3739   69.7175  222.4807 H   0  0  0  0  0  0  0  0  0  0  0  0
  138.7688   70.3621  221.9710 H   0  0  0  0  0  0  0  0  0  0  0  0
  138.7400   69.2250  223.7960 C   0  0  0  0  0  0  0  0  0  0  0  0
  138.6155   68.2425  223.3172 H   0  0  0  0  0  0  0  0  0  0  0  0
  137.7559   69.6378  224.0626 H   0  0  0  0  0  0  0  0  0  0  0  0
  1  2  1  0
  2  3  2  0
  3  4  1  0
  3  5  1  0
  5  6  1  0
  5  7  2  0
  7  8  1  0
  8  9  2  0
  9 10  1  0
  8 11  1  0
 11 12  1  0
 11 13  1  0
 11 14  1  0
 14 15  1  0
 15 16  2  0
 16 17  1  0
 17 18  2  0
 18 19  1  0
 18 20  1  0
 20 21  1  0
 20 22  1  0
 20 23  1  0
 23 24  1  6
 23 25  1  0
 25 26  1  0
 25 27  1  0
 25 28  1  0
 28 29  1  0
 28 30  1  0
 30 31  1  0
 30 32  1  0
 30 33  1  0
 33 34  1  0
 33 35  1  0
 17 36  1  0
 36 37  2  0
 37 38  1  0
 38 39  1  0
 39 40  1  0
 39 41  1  0
 39 42  1  0
 42 43  1  0
 42 44  1  0
 42 45  1  0
 45 46  1  0
 45 47  1  0
 45 48  1  0
 48 49  1  0
 48 50  1  0
 48 51  1  0
 51 52  1  0
 51 53  1  0
 37 54  1  0
 54 55  1  0
 14 56  1  0
 56 57  1  0
 56 58  1  0
 56 59  1  0
 59 60  1  0
 59 61  1  0
  9  2  1  0
 54 15  1  0
 59  7  1  0
 33 23  1  0
 51 38  1  0
M  CHG  2  18   1  45   1
M  END
>  <UniqueID>  (26) 
578

>  <SMILES>  (26) 
c1ccc2c(c1)CCN(c1n/c(=[NH+]/C[C@H]3CCNC3)nc(N3CC[NH2+]CC3)[nH]1)C2

>  <Energy>  (26) 
72.33460781501547

>  <Genealogy>  (26) 
c1ccc2c(c1)CCN(c1nc([NH2+]CC3CCNC3)nc(N3CC[NH2+]CC3)n1)C2 (protonated)
c1ccc2c(c1)CCN(c1nc(=[NH+]CC3CCNC3)nc(N3CC[NH2+]CC3)[nH]1)C2 (tautomer)
c1ccc2c(c1)CCN(c1nc(=[NH+]C[C@H]3CCNC3)nc(N3CC[NH2+]CC3)[nH]1)C2 (chirality)
c1ccc2c(c1)CCN(c1n/c(=[NH+]/C[C@H]3CCNC3)nc(N3CC[NH2+]CC3)[nH]1)C2 (cis-trans isomerization)
c1ccc2c(c1)CCN(c1n/c(=[NH+]/C[C@H]3CCNC3)nc(N3CC[NH2+]CC3)[nH]1)C2 (3D coordinates assigned)
c1ccc2c(c1)CCN(c1n/c(=[NH+]/C[C@H]3CCNC3)nc(N3CC[NH2+]CC3)[nH]1)C2 (nonaromatic ring conformer: 72.33460781501547 kcal/mol)

>  <smiles>  (26) 
c1ccc2c(c1)CCN(c1nc(NCC3CCNC3)nc(N3CCNCC3)n1)C2

>  <score_type>  (26) 
oracle

>  <origin>  (26) 
autodockgpu

>  <m_score__min__energy>  (26) 
-8.1799999999999997

>  <m_primary>  (26) 
energy

>  <meeko>  (26) 
{"free_energy": -7.83, "intermolecular_energy": -9.32, "internal_energy": -0.11, "cluster_size": 4, "cluster_id": 1, "rank_in_cluster": 3}

>  <energy>  (26) 
-7.87

>  <cluster_rmsd>  (26) 
0.91

>  <rmsd>  (26) 
270.95

>  <cluster>  (26) 
2

$$$$
RHAOACRWGXEIGT-JWZPSYEVNA-P
     RDKit          3D

 61 65  0  0  0  0  0  0  0  0999 V2000
  145.3975   72.1864  218.8924 H   0  0  0  0  0  0  0  0  0  0  0  0
  144.5790   72.7120  219.4060 C   0  0  0  0  0  0  0  0  0  0  0  0
  143.6680   71.9930  220.1810 C   0  0  0  0  0  0  0  0  0  0  0  0
  143.7700   70.9021  220.2790 H   0  0  0  0  0  0  0  0  0  0  0  0
  142.6270   72.6580  220.8320 C   0  0  0  0  0  0  0  0  0  0  0  0
  141.9188   72.0912  221.4543 H   0  0  0  0  0  0  0  0  0  0  0  0
  142.4810   74.0480  220.6950 C   0  0  0  0  0  0  0  0  0  0  0  0
  143.4030   74.7770  219.9180 C   0  0  0  0  0  0  0  0  0  0  0  0
  144.4540   74.0970  219.2810 C   0  0  0  0  0  0  0  0  0  0  0  0
  145.1835   74.6593  218.6796 H   0  0  0  0  0  0  0  0  0  0  0  0
  143.3090   76.2820  219.8080 C   0  0  0  0  0  0  0  0  0  0  0  0
  143.5242   76.5712  218.7687 H   0  0  0  0  0  0  0  0  0  0  0  0
  144.0373   76.7085  220.5135 H   0  0  0  0  0  0  0  0  0  0  0  0
  141.9840   76.8060  220.1750 N   0  0  0  0  0  0  0  0  0  0  0  0
  141.7060   78.1850  219.9200 C   0  0  0  0  0  0  0  0  0  0  0  0
  140.9400   78.8890  220.7910 N   0  0  0  0  0  0  0  0  0  0  0  0
  140.6490   80.1940  220.5490 C   0  0  0  0  0  0  0  0  0  0  0  0
  139.8760   80.8500  221.3690 N   0  0  0  0  0  0  0  0  0  0  0  0
  138.8410   80.8130  221.2180 H   0  0  0  0  0  0  0  0  0  0  0  0
  140.4070   81.6630  222.4710 C   0  0  0  0  0  0  0  0  0  0  0  0
  141.0116   82.4812  222.0527 H   0  0  0  0  0  0  0  0  0  0  0  0
  139.5586   82.0593  223.0481 H   0  0  0  0  0  0  0  0  0  0  0  0
  141.2860   80.8240  223.4170 C   0  0  2  0  0  0  0  0  0  0  0  0
  141.3963   81.4588  224.3085 H   0  0  0  0  0  0  0  0  0  0  0  0
  142.6530   80.4720  222.8110 C   0  0  0  0  0  0  0  0  0  0  0  0
  143.4427   81.0432  223.3209 H   0  0  0  0  0  0  0  0  0  0  0  0
  142.6661   80.7243  221.7404 H   0  0  0  0  0  0  0  0  0  0  0  0
  142.8880   79.0330  222.9910 N   0  0  0  0  0  0  0  0  0  0  0  0
  142.7730   78.5620  222.0610 H   0  0  0  0  0  0  0  0  0  0  0  0
  141.8310   78.5420  223.8750 C   0  0  0  0  0  0  0  0  0  0  0  0
  142.1857   78.5339  224.9162 H   0  0  0  0  0  0  0  0  0  0  0  0
  141.5434   77.5158  223.6026 H   0  0  0  0  0  0  0  0  0  0  0  0
  140.6510   79.4810  223.7380 C   0  0  0  0  0  0  0  0  0  0  0  0
  140.0810   79.5324  224.6774 H   0  0  0  0  0  0  0  0  0  0  0  0
  139.9373   79.1548  222.9671 H   0  0  0  0  0  0  0  0  0  0  0  0
  141.1430   80.7910  219.4310 N   0  0  0  0  0  0  0  0  0  0  0  0
  141.9010   80.0910  218.5500 C   0  0  0  0  0  0  0  0  0  0  0  0
  142.3830   80.7240  217.3560 N   0  0  0  0  0  0  0  0  0  0  0  0
  142.2060   80.0550  216.0660 C   0  0  0  0  0  0  0  0  0  0  0  0
  143.0549   79.3793  215.8850 H   0  0  0  0  0  0  0  0  0  0  0  0
  141.2703   79.4768  216.0809 H   0  0  0  0  0  0  0  0  0  0  0  0
  142.1390   81.1010  214.9460 C   0  0  0  0  0  0  0  0  0  0  0  0
  142.1424   80.5869  213.9735 H   0  0  0  0  0  0  0  0  0  0  0  0
  141.2165   81.6872  215.0699 H   0  0  0  0  0  0  0  0  0  0  0  0
  143.2890   82.0190  215.0090 N   0  0  0  0  0  0  0  0  0  0  0  0
  143.1870   82.7320  214.2510 H   0  0  0  0  0  0  0  0  0  0  0  0
  144.1780   81.4930  214.8470 H   0  0  0  0  0  0  0  0  0  0  0  0
  143.3470   82.7230  216.3000 C   0  0  0  0  0  0  0  0  0  0  0  0
  144.2306   83.3781  216.3126 H   0  0  0  0  0  0  0  0  0  0  0  0
  142.4263   83.3134  216.4177 H   0  0  0  0  0  0  0  0  0  0  0  0
  143.4420   81.7320  217.4650 C   0  0  0  0  0  0  0  0  0  0  0  0
  144.4225   81.2339  217.4400 H   0  0  0  0  0  0  0  0  0  0  0  0
  143.3237   82.2777  218.4127 H   0  0  0  0  0  0  0  0  0  0  0  0
  142.1810   78.7830  218.7950 N   0  0  0  0  0  0  0  0  0  0  0  0
  142.7760   78.2400  218.1290 H   0  0  0  0  0  0  0  0  0  0  0  0
  140.8730   75.9300  220.5610 C   0  0  0  0  0  0  0  0  0  0  0  0
  140.3945   75.5311  219.6544 H   0  0  0  0  0  0  0  0  0  0  0  0
  140.1472   76.5127  221.1473 H   0  0  0  0  0  0  0  0  0  0  0  0
  141.3790   74.7710  221.4130 C   0  0  0  0  0  0  0  0  0  0  0  0
  140.5513   74.0729  221.6067 H   0  0  0  0  0  0  0  0  0  0  0  0
  141.7659   75.1647  222.3645 H   0  0  0  0  0  0  0  0  0  0  0  0
  1  2  1  0
  2  3  2  0
  3  4  1  0
  3  5  1  0
  5  6  1  0
  5  7  2  0
  7  8  1  0
  8  9  2  0
  9 10  1  0
  8 11  1  0
 11 12  1  0
 11 13  1  0
 11 14  1  0
 14 15  1  0
 15 16  2  0
 16 17  1  0
 17 18  2  0
 18 19  1  0
 18 20  1  0
 20 21  1  0
 20 22  1  0
 20 23  1  0
 23 24  1  1
 23 25  1  0
 25 26  1  0
 25 27  1  0
 25 28  1  0
 28 29  1  0
 28 30  1  0
 30 31  1  0
 30 32  1  0
 30 33  1  0
 33 34  1  0
 33 35  1  0
 17 36  1  0
 36 37  2  0
 37 38  1  0
 38 39  1  0
 39 40  1  0
 39 41  1  0
 39 42  1  0
 42 43  1  0
 42 44  1  0
 42 45  1  0
 45 46  1  0
 45 47  1  0
 45 48  1  0
 48 49  1  0
 48 50  1  0
 48 51  1  0
 51 52  1  0
 51 53  1  0
 37 54  1  0
 54 55  1  0
 14 56  1  0
 56 57  1  0
 56 58  1  0
 56 59  1  0
 59 60  1  0
 59 61  1  0
  9  2  1  0
 54 15  1  0
 59  7  1  0
 33 23  1  0
 51 38  1  0
M  CHG  2  18   1  45   1
M  END
>  <UniqueID>  (27) 
578

>  <SMILES>  (27) 
c1ccc2c(c1)CCN(c1n/c(=[NH+]/C[C@H]3CCNC3)nc(N3CC[NH2+]CC3)[nH]1)C2

>  <Energy>  (27) 
72.33460781501547

>  <Genealogy>  (27) 
c1ccc2c(c1)CCN(c1nc([NH2+]CC3CCNC3)nc(N3CC[NH2+]CC3)n1)C2 (protonated)
c1ccc2c(c1)CCN(c1nc(=[NH+]CC3CCNC3)nc(N3CC[NH2+]CC3)[nH]1)C2 (tautomer)
c1ccc2c(c1)CCN(c1nc(=[NH+]C[C@H]3CCNC3)nc(N3CC[NH2+]CC3)[nH]1)C2 (chirality)
c1ccc2c(c1)CCN(c1n/c(=[NH+]/C[C@H]3CCNC3)nc(N3CC[NH2+]CC3)[nH]1)C2 (cis-trans isomerization)
c1ccc2c(c1)CCN(c1n/c(=[NH+]/C[C@H]3CCNC3)nc(N3CC[NH2+]CC3)[nH]1)C2 (3D coordinates assigned)
c1ccc2c(c1)CCN(c1n/c(=[NH+]/C[C@H]3CCNC3)nc(N3CC[NH2+]CC3)[nH]1)C2 (nonaromatic ring conformer: 72.33460781501547 kcal/mol)

>  <smiles>  (27) 
c1ccc2c(c1)CCN(c1nc(NCC3CCNC3)nc(N3CCNCC3)n1)C2

>  <score_type>  (27) 
oracle

>  <origin>  (27) 
autodockgpu

>  <m_score__min__energy>  (27) 
-8.1799999999999997

>  <m_primary>  (27) 
energy

>  <meeko>  (27) 
{"free_energy": -7.53, "intermolecular_energy": -9.02, "internal_energy": -1.06, "cluster_size": 8, "cluster_id": 4, "rank_in_cluster": 5}

>  <energy>  (27) 
-7.94

>  <cluster_rmsd>  (27) 
0.0

>  <rmsd>  (27) 
270.43

>  <cluster>  (27) 
3

$$$$
RHAOACRWGXEIGT-JWZPSYEVNA-P
     RDKit          3D

 61 65  0  0  0  0  0  0  0  0999 V2000
  145.9435   72.8217  221.1352 H   0  0  0  0  0  0  0  0  0  0  0  0
  145.3940   73.2930  220.3070 C   0  0  0  0  0  0  0  0  0  0  0  0
  145.3670   72.6820  219.0520 C   0  0  0  0  0  0  0  0  0  0  0  0
  145.8944   71.7300  218.8922 H   0  0  0  0  0  0  0  0  0  0  0  0
  144.6700   73.2800  217.9990 C   0  0  0  0  0  0  0  0  0  0  0  0
  144.6367   72.7891  217.0151 H   0  0  0  0  0  0  0  0  0  0  0  0
  144.0120   74.5050  218.1920 C   0  0  0  0  0  0  0  0  0  0  0  0
  144.0330   75.1210  219.4590 C   0  0  0  0  0  0  0  0  0  0  0  0
  144.7250   74.5010  220.5130 C   0  0  0  0  0  0  0  0  0  0  0  0
  144.7398   74.9707  221.5076 H   0  0  0  0  0  0  0  0  0  0  0  0
  143.2780   76.4060  219.7130 C   0  0  0  0  0  0  0  0  0  0  0  0
  143.8983   77.0573  220.3463 H   0  0  0  0  0  0  0  0  0  0  0  0
  142.3298   76.1383  220.2021 H   0  0  0  0  0  0  0  0  0  0  0  0
  142.9450   77.1330  218.4780 N   0  0  0  0  0  0  0  0  0  0  0  0
  142.4120   78.4550  218.5920 C   0  0  0  0  0  0  0  0  0  0  0  0
  141.4360   78.7110  219.4990 N   0  0  0  0  0  0  0  0  0  0  0  0
  140.9050   79.9580  219.6030 C   0  0  0  0  0  0  0  0  0  0  0  0
  139.9380   80.1830  220.4470 N   0  0  0  0  0  0  0  0  0  0  0  0
  139.0490   79.6400  220.3460 H   0  0  0  0  0  0  0  0  0  0  0  0
  140.0390   81.1930  221.5090 C   0  0  0  0  0  0  0  0  0  0  0  0
  140.4973   82.1031  221.0947 H   0  0  0  0  0  0  0  0  0  0  0  0
  139.0266   81.4018  221.8852 H   0  0  0  0  0  0  0  0  0  0  0  0
  140.8980   80.6900  222.6840 C   0  0  2  0  0  0  0  0  0  0  0  0
  140.6618   81.3872  223.5014 H   0  0  0  0  0  0  0  0  0  0  0  0
  142.4020   80.6880  222.3710 C   0  0  0  0  0  0  0  0  0  0  0  0
  142.9004   81.4855  222.9416 H   0  0  0  0  0  0  0  0  0  0  0  0
  142.5628   80.8646  221.2972 H   0  0  0  0  0  0  0  0  0  0  0  0
  142.9580   79.3840  222.7540 N   0  0  0  0  0  0  0  0  0  0  0  0
  143.1550   78.8400  221.8790 H   0  0  0  0  0  0  0  0  0  0  0  0
  141.9090   78.6800  223.4910 C   0  0  0  0  0  0  0  0  0  0  0  0
  142.0390   78.8372  224.5719 H   0  0  0  0  0  0  0  0  0  0  0  0
  141.9554   77.5988  223.2938 H   0  0  0  0  0  0  0  0  0  0  0  0
  140.5790   79.2480  223.0420 C   0  0  0  0  0  0  0  0  0  0  0  0
  139.8393   79.2012  223.8548 H   0  0  0  0  0  0  0  0  0  0  0  0
  140.1419   78.6895  222.2012 H   0  0  0  0  0  0  0  0  0  0  0  0
  141.3700   80.9480  218.7950 N   0  0  0  0  0  0  0  0  0  0  0  0
  142.3380   80.6980  217.8780 C   0  0  0  0  0  0  0  0  0  0  0  0
  142.7900   81.7440  217.0070 N   0  0  0  0  0  0  0  0  0  0  0  0
  142.9980   83.0890  217.5480 C   0  0  0  0  0  0  0  0  0  0  0  0
  142.0530   83.6504  217.5058 H   0  0  0  0  0  0  0  0  0  0  0  0
  143.3363   83.0136  218.5920 H   0  0  0  0  0  0  0  0  0  0  0  0
  144.0630   83.8200  216.7200 C   0  0  0  0  0  0  0  0  0  0  0  0
  144.1151   84.8690  217.0470 H   0  0  0  0  0  0  0  0  0  0  0  0
  145.0303   83.3193  216.8737 H   0  0  0  0  0  0  0  0  0  0  0  0
  143.7370   83.7790  215.2840 N   0  0  0  0  0  0  0  0  0  0  0  0
  144.5030   84.2590  214.7560 H   0  0  0  0  0  0  0  0  0  0  0  0
  142.8430   84.2910  215.1030 H   0  0  0  0  0  0  0  0  0  0  0  0
  143.6360   82.3950  214.7930 C   0  0  0  0  0  0  0  0  0  0  0  0
  143.3699   82.4107  213.7258 H   0  0  0  0  0  0  0  0  0  0  0  0
  144.6067   81.8994  214.9417 H   0  0  0  0  0  0  0  0  0  0  0  0
  142.5670   81.6140  215.5640 C   0  0  0  0  0  0  0  0  0  0  0  0
  141.5731   82.0124  215.3122 H   0  0  0  0  0  0  0  0  0  0  0  0
  142.6264   80.5516  215.2851 H   0  0  0  0  0  0  0  0  0  0  0  0
  142.8590   79.4460  217.7760 N   0  0  0  0  0  0  0  0  0  0  0  0
  143.6140   79.2470  217.0810 H   0  0  0  0  0  0  0  0  0  0  0  0
  143.3560   76.6580  217.1530 C   0  0  0  0  0  0  0  0  0  0  0  0
  144.4001   76.9524  216.9706 H   0  0  0  0  0  0  0  0  0  0  0  0
  142.6977   77.1062  216.3942 H   0  0  0  0  0  0  0  0  0  0  0  0
  143.2410   75.1390  217.0710 C   0  0  0  0  0  0  0  0  0  0  0  0
  143.6473   74.7943  216.1087 H   0  0  0  0  0  0  0  0  0  0  0  0
  142.1823   74.8519  217.1530 H   0  0  0  0  0  0  0  0  0  0  0  0
  1  2  1  0
  2  3  2  0
  3  4  1  0
  3  5  1  0
  5  6  1  0
  5  7  2  0
  7  8  1  0
  8  9  2  0
  9 10  1  0
  8 11  1  0
 11 12  1  0
 11 13  1  0
 11 14  1  0
 14 15  1  0
 15 16  2  0
 16 17  1  0
 17 18  2  0
 18 19  1  0
 18 20  1  0
 20 21  1  0
 20 22  1  0
 20 23  1  0
 23 24  1  1
 23 25  1  0
 25 26  1  0
 25 27  1  0
 25 28  1  0
 28 29  1  0
 28 30  1  0
 30 31  1  0
 30 32  1  0
 30 33  1  0
 33 34  1  0
 33 35  1  0
 17 36  1  0
 36 37  2  0
 37 38  1  0
 38 39  1  0
 39 40  1  0
 39 41  1  0
 39 42  1  0
 42 43  1  0
 42 44  1  0
 42 45  1  0
 45 46  1  0
 45 47  1  0
 45 48  1  0
 48 49  1  0
 48 50  1  0
 48 51  1  0
 51 52  1  0
 51 53  1  0
 37 54  1  0
 54 55  1  0
 14 56  1  0
 56 57  1  0
 56 58  1  0
 56 59  1  0
 59 60  1  0
 59 61  1  0
  9  2  1  0
 54 15  1  0
 59  7  1  0
 33 23  1  0
 51 38  1  0
M  CHG  2  18   1  45   1
M  END
>  <UniqueID>  (28) 
578

>  <SMILES>  (28) 
c1ccc2c(c1)CCN(c1n/c(=[NH+]/C[C@H]3CCNC3)nc(N3CC[NH2+]CC3)[nH]1)C2

>  <Energy>  (28) 
72.33460781501547

>  <Genealogy>  (28) 
c1ccc2c(c1)CCN(c1nc([NH2+]CC3CCNC3)nc(N3CC[NH2+]CC3)n1)C2 (protonated)
c1ccc2c(c1)CCN(c1nc(=[NH+]CC3CCNC3)nc(N3CC[NH2+]CC3)[nH]1)C2 (tautomer)
c1ccc2c(c1)CCN(c1nc(=[NH+]C[C@H]3CCNC3)nc(N3CC[NH2+]CC3)[nH]1)C2 (chirality)
c1ccc2c(c1)CCN(c1n/c(=[NH+]/C[C@H]3CCNC3)nc(N3CC[NH2+]CC3)[nH]1)C2 (cis-trans isomerization)
c1ccc2c(c1)CCN(c1n/c(=[NH+]/C[C@H]3CCNC3)nc(N3CC[NH2+]CC3)[nH]1)C2 (3D coordinates assigned)
c1ccc2c(c1)CCN(c1n/c(=[NH+]/C[C@H]3CCNC3)nc(N3CC[NH2+]CC3)[nH]1)C2 (nonaromatic ring conformer: 72.33460781501547 kcal/mol)

>  <smiles>  (28) 
c1ccc2c(c1)CCN(c1nc(NCC3CCNC3)nc(N3CCNCC3)n1)C2

>  <score_type>  (28) 
oracle

>  <origin>  (28) 
autodockgpu

>  <m_score__min__energy>  (28) 
-8.1799999999999997

>  <m_primary>  (28) 
energy

>  <meeko>  (28) 
{"free_energy": -7.78, "intermolecular_energy": -9.27, "internal_energy": -0.56, "cluster_size": 8, "cluster_id": 4, "rank_in_cluster": 2}

>  <energy>  (28) 
-7.77

>  <cluster_rmsd>  (28) 
1.1

>  <rmsd>  (28) 
270.82

>  <cluster>  (28) 
3

$$$$
RHAOACRWGXEIGT-JWZPSYEVNA-P
     RDKit          3D

 61 65  0  0  0  0  0  0  0  0999 V2000
  145.9911   72.4302  221.5004 H   0  0  0  0  0  0  0  0  0  0  0  0
  145.5010   72.9020  220.6360 C   0  0  0  0  0  0  0  0  0  0  0  0
  145.5960   72.3130  219.3740 C   0  0  0  0  0  0  0  0  0  0  0  0
  146.1583   71.3764  219.2450 H   0  0  0  0  0  0  0  0  0  0  0  0
  144.9770   72.9130  218.2750 C   0  0  0  0  0  0  0  0  0  0  0  0
  145.0422   72.4401  217.2840 H   0  0  0  0  0  0  0  0  0  0  0  0
  144.2720   74.1170  218.4300 C   0  0  0  0  0  0  0  0  0  0  0  0
  144.1700   74.7110  219.7040 C   0  0  0  0  0  0  0  0  0  0  0  0
  144.7850   74.0890  220.8030 C   0  0  0  0  0  0  0  0  0  0  0  0
  144.7019   74.5404  221.8027 H   0  0  0  0  0  0  0  0  0  0  0  0
  143.3610   75.9710  219.9130 C   0  0  0  0  0  0  0  0  0  0  0  0
  143.9064   76.6262  220.6082 H   0  0  0  0  0  0  0  0  0  0  0  0
  142.3819   75.6701  220.3141 H   0  0  0  0  0  0  0  0  0  0  0  0
  143.1160   76.7120  218.6650 N   0  0  0  0  0  0  0  0  0  0  0  0
  142.5410   78.0180  218.7540 C   0  0  0  0  0  0  0  0  0  0  0  0
  141.6150   78.2820  219.7100 N   0  0  0  0  0  0  0  0  0  0  0  0
  141.0440   79.5120  219.7920 C   0  0  0  0  0  0  0  0  0  0  0  0
  140.1240   79.7430  220.6860 N   0  0  0  0  0  0  0  0  0  0  0  0
  139.4710   80.5480  220.5350 H   0  0  0  0  0  0  0  0  0  0  0  0
  139.9930   78.9380  221.9070 C   0  0  0  0  0  0  0  0  0  0  0  0
  138.9327   78.8980  222.1971 H   0  0  0  0  0  0  0  0  0  0  0  0
  140.3796   77.9293  221.6994 H   0  0  0  0  0  0  0  0  0  0  0  0
  140.8070   79.5390  223.0670 C   0  0  2  0  0  0  0  0  0  0  0  0
  140.3825   79.0618  223.9626 H   0  0  0  0  0  0  0  0  0  0  0  0
  140.6990   81.0690  223.1480 C   0  0  0  0  0  0  0  0  0  0  0  0
  140.0977   81.3522  224.0245 H   0  0  0  0  0  0  0  0  0  0  0  0
  140.2136   81.4600  222.2416 H   0  0  0  0  0  0  0  0  0  0  0  0
  142.0510   81.6280  223.2740 N   0  0  0  0  0  0  0  0  0  0  0  0
  142.3130   82.0680  222.3580 H   0  0  0  0  0  0  0  0  0  0  0  0
  142.9530   80.4990  223.5010 C   0  0  0  0  0  0  0  0  0  0  0  0
  143.1171   80.3602  224.5798 H   0  0  0  0  0  0  0  0  0  0  0  0
  143.9286   80.6805  223.0265 H   0  0  0  0  0  0  0  0  0  0  0  0
  142.2950   79.2670  222.9150 C   0  0  0  0  0  0  0  0  0  0  0  0
  142.5868   78.3649  223.4727 H   0  0  0  0  0  0  0  0  0  0  0  0
  142.5883   79.0860  221.8704 H   0  0  0  0  0  0  0  0  0  0  0  0
  141.4180   80.4800  218.9120 N   0  0  0  0  0  0  0  0  0  0  0  0
  142.3360   80.2210  217.9460 C   0  0  0  0  0  0  0  0  0  0  0  0
  142.6910   81.2410  217.0030 N   0  0  0  0  0  0  0  0  0  0  0  0
  143.1600   82.5400  217.4900 C   0  0  0  0  0  0  0  0  0  0  0  0
  142.2963   83.1980  217.6662 H   0  0  0  0  0  0  0  0  0  0  0  0
  143.7142   82.3983  218.4296 H   0  0  0  0  0  0  0  0  0  0  0  0
  144.0840   83.1800  216.4470 C   0  0  0  0  0  0  0  0  0  0  0  0
  144.3218   84.2074  216.7599 H   0  0  0  0  0  0  0  0  0  0  0  0
  145.0006   82.5761  216.3746 H   0  0  0  0  0  0  0  0  0  0  0  0
  143.4420   83.2170  215.1220 N   0  0  0  0  0  0  0  0  0  0  0  0
  144.1170   83.6300  214.4380 H   0  0  0  0  0  0  0  0  0  0  0  0
  142.5910   83.8240  215.1510 H   0  0  0  0  0  0  0  0  0  0  0  0
  143.0840   81.8670  214.6580 C   0  0  0  0  0  0  0  0  0  0  0  0
  142.5882   81.9430  213.6790 H   0  0  0  0  0  0  0  0  0  0  0  0
  144.0037   81.2686  214.5794 H   0  0  0  0  0  0  0  0  0  0  0  0
  142.1370   81.1780  215.6470 C   0  0  0  0  0  0  0  0  0  0  0  0
  141.1608   81.6847  215.6290 H   0  0  0  0  0  0  0  0  0  0  0  0
  142.0173   80.1240  215.3558 H   0  0  0  0  0  0  0  0  0  0  0  0
  142.8970   78.9850  217.8670 N   0  0  0  0  0  0  0  0  0  0  0  0
  143.6150   78.7800  217.1350 H   0  0  0  0  0  0  0  0  0  0  0  0
  143.6510   76.2720  217.3720 C   0  0  0  0  0  0  0  0  0  0  0  0
  144.6984   76.5962  217.2839 H   0  0  0  0  0  0  0  0  0  0  0  0
  143.0485   76.7171  216.5665 H   0  0  0  0  0  0  0  0  0  0  0  0
  143.5840   74.7520  217.2580 C   0  0  0  0  0  0  0  0  0  0  0  0
  144.0801   74.4345  216.3290 H   0  0  0  0  0  0  0  0  0  0  0  0
  142.5299   74.4377  217.2454 H   0  0  0  0  0  0  0  0  0  0  0  0
  1  2  1  0
  2  3  2  0
  3  4  1  0
  3  5  1  0
  5  6  1  0
  5  7  2  0
  7  8  1  0
  8  9  2  0
  9 10  1  0
  8 11  1  0
 11 12  1  0
 11 13  1  0
 11 14  1  0
 14 15  1  0
 15 16  2  0
 16 17  1  0
 17 18  2  0
 18 19  1  0
 18 20  1  0
 20 21  1  0
 20 22  1  0
 20 23  1  0
 23 24  1  1
 23 25  1  0
 25 26  1  0
 25 27  1  0
 25 28  1  0
 28 29  1  0
 28 30  1  0
 30 31  1  0
 30 32  1  0
 30 33  1  0
 33 34  1  0
 33 35  1  0
 17 36  1  0
 36 37  2  0
 37 38  1  0
 38 39  1  0
 39 40  1  0
 39 41  1  0
 39 42  1  0
 42 43  1  0
 42 44  1  0
 42 45  1  0
 45 46  1  0
 45 47  1  0
 45 48  1  0
 48 49  1  0
 48 50  1  0
 48 51  1  0
 51 52  1  0
 51 53  1  0
 37 54  1  0
 54 55  1  0
 14 56  1  0
 56 57  1  0
 56 58  1  0
 56 59  1  0
 59 60  1  0
 59 61  1  0
  9  2  1  0
 54 15  1  0
 59  7  1  0
 33 23  1  0
 51 38  1  0
M  CHG  2  18   1  45   1
M  END
>  <UniqueID>  (29) 
578

>  <SMILES>  (29) 
c1ccc2c(c1)CCN(c1n/c(=[NH+]/C[C@H]3CCNC3)nc(N3CC[NH2+]CC3)[nH]1)C2

>  <Energy>  (29) 
72.33460781501547

>  <Genealogy>  (29) 
c1ccc2c(c1)CCN(c1nc([NH2+]CC3CCNC3)nc(N3CC[NH2+]CC3)n1)C2 (protonated)
c1ccc2c(c1)CCN(c1nc(=[NH+]CC3CCNC3)nc(N3CC[NH2+]CC3)[nH]1)C2 (tautomer)
c1ccc2c(c1)CCN(c1nc(=[NH+]C[C@H]3CCNC3)nc(N3CC[NH2+]CC3)[nH]1)C2 (chirality)
c1ccc2c(c1)CCN(c1n/c(=[NH+]/C[C@H]3CCNC3)nc(N3CC[NH2+]CC3)[nH]1)C2 (cis-trans isomerization)
c1ccc2c(c1)CCN(c1n/c(=[NH+]/C[C@H]3CCNC3)nc(N3CC[NH2+]CC3)[nH]1)C2 (3D coordinates assigned)
c1ccc2c(c1)CCN(c1n/c(=[NH+]/C[C@H]3CCNC3)nc(N3CC[NH2+]CC3)[nH]1)C2 (nonaromatic ring conformer: 72.33460781501547 kcal/mol)

>  <smiles>  (29) 
c1ccc2c(c1)CCN(c1nc(NCC3CCNC3)nc(N3CCNCC3)n1)C2

>  <score_type>  (29) 
oracle

>  <origin>  (29) 
autodockgpu

>  <m_score__min__energy>  (29) 
-8.1799999999999997

>  <m_primary>  (29) 
energy

>  <meeko>  (29) 
{"free_energy": -7.39, "intermolecular_energy": -8.88, "internal_energy": -0.37, "cluster_size": 8, "cluster_id": 4, "rank_in_cluster": 7}

>  <energy>  (29) 
-7.78

>  <cluster_rmsd>  (29) 
0.0

>  <rmsd>  (29) 
270.67

>  <cluster>  (29) 
4

$$$$
RHAOACRWGXEIGT-JWZPSYEVNA-P
     RDKit          3D

 61 65  0  0  0  0  0  0  0  0999 V2000
  141.4985   69.7560  229.2821 H   0  0  0  0  0  0  0  0  0  0  0  0
  140.9380   69.6230  228.3450 C   0  0  0  0  0  0  0  0  0  0  0  0
  140.1100   68.5120  228.1800 C   0  0  0  0  0  0  0  0  0  0  0  0
  140.0181   67.7703  228.9871 H   0  0  0  0  0  0  0  0  0  0  0  0
  139.3980   68.3410  226.9910 C   0  0  0  0  0  0  0  0  0  0  0  0
  138.7338   67.4726  226.8700 H   0  0  0  0  0  0  0  0  0  0  0  0
  139.5270   69.2740  225.9490 C   0  0  0  0  0  0  0  0  0  0  0  0
  140.3590   70.3990  226.1140 C   0  0  0  0  0  0  0  0  0  0  0  0
  141.0560   70.5670  227.3210 C   0  0  0  0  0  0  0  0  0  0  0  0
  141.6996   71.4479  227.4619 H   0  0  0  0  0  0  0  0  0  0  0  0
  140.4640   71.4540  225.0350 C   0  0  0  0  0  0  0  0  0  0  0  0
  141.5142   71.7717  224.9568 H   0  0  0  0  0  0  0  0  0  0  0  0
  139.8032   72.2850  225.3227 H   0  0  0  0  0  0  0  0  0  0  0  0
  140.0200   70.9760  223.7170 N   0  0  0  0  0  0  0  0  0  0  0  0
  140.2590   71.8080  222.5780 C   0  0  0  0  0  0  0  0  0  0  0  0
  140.7810   71.2690  221.4480 N   0  0  0  0  0  0  0  0  0  0  0  0
  141.0350   72.0520  220.3670 C   0  0  0  0  0  0  0  0  0  0  0  0
  141.5770   71.5320  219.3010 N   0  0  0  0  0  0  0  0  0  0  0  0
  140.9870   71.4250  218.4430 H   0  0  0  0  0  0  0  0  0  0  0  0
  142.9670   71.0620  219.2740 C   0  0  0  0  0  0  0  0  0  0  0  0
  143.1339   70.3897  220.1285 H   0  0  0  0  0  0  0  0  0  0  0  0
  143.1353   70.5349  218.3233 H   0  0  0  0  0  0  0  0  0  0  0  0
  143.9600   72.2360  219.3590 C   0  0  2  0  0  0  0  0  0  0  0  0
  143.5416   72.9858  218.6715 H   0  0  0  0  0  0  0  0  0  0  0  0
  145.3890   71.8450  218.9540 C   0  0  0  0  0  0  0  0  0  0  0  0
  145.6364   72.2996  217.9834 H   0  0  0  0  0  0  0  0  0  0  0  0
  145.4684   70.7514  218.8663 H   0  0  0  0  0  0  0  0  0  0  0  0
  146.3180   72.3340  219.9800 N   0  0  0  0  0  0  0  0  0  0  0  0
  146.6520   71.5130  220.5400 H   0  0  0  0  0  0  0  0  0  0  0  0
  145.5420   73.1970  220.8710 C   0  0  0  0  0  0  0  0  0  0  0  0
  145.6395   74.2465  220.5562 H   0  0  0  0  0  0  0  0  0  0  0  0
  145.9066   73.1138  221.9055 H   0  0  0  0  0  0  0  0  0  0  0  0
  144.0950   72.7620  220.7790 C   0  0  0  0  0  0  0  0  0  0  0  0
  143.4191   73.6135  220.9467 H   0  0  0  0  0  0  0  0  0  0  0  0
  143.8295   72.0100  221.5366 H   0  0  0  0  0  0  0  0  0  0  0  0
  140.7500   73.3810  220.4260 N   0  0  0  0  0  0  0  0  0  0  0  0
  140.2380   73.9300  221.5570 C   0  0  0  0  0  0  0  0  0  0  0  0
  139.9790   75.3390  221.6160 N   0  0  0  0  0  0  0  0  0  0  0  0
  138.5950   75.8170  221.6150 C   0  0  0  0  0  0  0  0  0  0  0  0
  138.2504   75.9373  220.5773 H   0  0  0  0  0  0  0  0  0  0  0  0
  137.9568   75.0865  222.1337 H   0  0  0  0  0  0  0  0  0  0  0  0
  138.5140   77.1670  222.3390 C   0  0  0  0  0  0  0  0  0  0  0  0
  137.5018   77.5801  222.2170 H   0  0  0  0  0  0  0  0  0  0  0  0
  138.7403   77.0070  223.4035 H   0  0  0  0  0  0  0  0  0  0  0  0
  139.4920   78.1210  221.7910 N   0  0  0  0  0  0  0  0  0  0  0  0
  139.4250   79.0130  222.3330 H   0  0  0  0  0  0  0  0  0  0  0  0
  139.2720   78.3270  220.7900 H   0  0  0  0  0  0  0  0  0  0  0  0
  140.8680   77.6120  221.9110 C   0  0  0  0  0  0  0  0  0  0  0  0
  141.5615   78.3434  221.4704 H   0  0  0  0  0  0  0  0  0  0  0  0
  141.0930   77.4601  222.9770 H   0  0  0  0  0  0  0  0  0  0  0  0
  141.0250   76.2720  221.1840 C   0  0  0  0  0  0  0  0  0  0  0  0
  140.9422   76.4346  220.0993 H   0  0  0  0  0  0  0  0  0  0  0  0
  142.0099   75.8452  221.4242 H   0  0  0  0  0  0  0  0  0  0  0  0
  139.9940   73.1400  222.6370 N   0  0  0  0  0  0  0  0  0  0  0  0
  139.5870   73.5520  223.5070 H   0  0  0  0  0  0  0  0  0  0  0  0
  139.5680   69.5990  223.4910 C   0  0  0  0  0  0  0  0  0  0  0  0
  140.4442   68.9466  223.3617 H   0  0  0  0  0  0  0  0  0  0  0  0
  138.9407   69.5733  222.5877 H   0  0  0  0  0  0  0  0  0  0  0  0
  138.7460   69.1070  224.6780 C   0  0  0  0  0  0  0  0  0  0  0  0
  138.5032   68.0434  224.5369 H   0  0  0  0  0  0  0  0  0  0  0  0
  137.8194   69.6961  224.7440 H   0  0  0  0  0  0  0  0  0  0  0  0
  1  2  1  0
  2  3  2  0
  3  4  1  0
  3  5  1  0
  5  6  1  0
  5  7  2  0
  7  8  1  0
  8  9  2  0
  9 10  1  0
  8 11  1  0
 11 12  1  0
 11 13  1  0
 11 14  1  0
 14 15  1  0
 15 16  2  0
 16 17  1  0
 17 18  2  0
 18 19  1  0
 18 20  1  0
 20 21  1  0
 20 22  1  0
 20 23  1  0
 23 24  1  6
 23 25  1  0
 25 26  1  0
 25 27  1  0
 25 28  1  0
 28 29  1  0
 28 30  1  0
 30 31  1  0
 30 32  1  0
 30 33  1  0
 33 34  1  0
 33 35  1  0
 17 36  1  0
 36 37  2  0
 37 38  1  0
 38 39  1  0
 39 40  1  0
 39 41  1  0
 39 42  1  0
 42 43  1  0
 42 44  1  0
 42 45  1  0
 45 46  1  0
 45 47  1  0
 45 48  1  0
 48 49  1  0
 48 50  1  0
 48 51  1  0
 51 52  1  0
 51 53  1  0
 37 54  1  0
 54 55  1  0
 14 56  1  0
 56 57  1  0
 56 58  1  0
 56 59  1  0
 59 60  1  0
 59 61  1  0
  9  2  1  0
 54 15  1  0
 59  7  1  0
 33 23  1  0
 51 38  1  0
M  CHG  2  18   1  45   1
M  END
>  <UniqueID>  (30) 
578

>  <SMILES>  (30) 
c1ccc2c(c1)CCN(c1n/c(=[NH+]/C[C@H]3CCNC3)nc(N3CC[NH2+]CC3)[nH]1)C2

>  <Energy>  (30) 
72.33460781501547

>  <Genealogy>  (30) 
c1ccc2c(c1)CCN(c1nc([NH2+]CC3CCNC3)nc(N3CC[NH2+]CC3)n1)C2 (protonated)
c1ccc2c(c1)CCN(c1nc(=[NH+]CC3CCNC3)nc(N3CC[NH2+]CC3)[nH]1)C2 (tautomer)
c1ccc2c(c1)CCN(c1nc(=[NH+]C[C@H]3CCNC3)nc(N3CC[NH2+]CC3)[nH]1)C2 (chirality)
c1ccc2c(c1)CCN(c1n/c(=[NH+]/C[C@H]3CCNC3)nc(N3CC[NH2+]CC3)[nH]1)C2 (cis-trans isomerization)
c1ccc2c(c1)CCN(c1n/c(=[NH+]/C[C@H]3CCNC3)nc(N3CC[NH2+]CC3)[nH]1)C2 (3D coordinates assigned)
c1ccc2c(c1)CCN(c1n/c(=[NH+]/C[C@H]3CCNC3)nc(N3CC[NH2+]CC3)[nH]1)C2 (nonaromatic ring conformer: 72.33460781501547 kcal/mol)

>  <smiles>  (30) 
c1ccc2c(c1)CCN(c1nc(NCC3CCNC3)nc(N3CCNCC3)n1)C2

>  <score_type>  (30) 
oracle

>  <origin>  (30) 
autodockgpu

>  <m_score__min__energy>  (30) 
-8.1799999999999997

>  <m_primary>  (30) 
energy

>  <meeko>  (30) 
{"free_energy": -8.05, "intermolecular_energy": -9.54, "internal_energy": -0.27, "cluster_size": 2, "cluster_id": 2, "rank_in_cluster": 1}

>  <energy>  (30) 
-7.78

>  <cluster_rmsd>  (30) 
0.1

>  <rmsd>  (30) 
270.66

>  <cluster>  (30) 
4

$$$$
RHAOACRWGXEIGT-JWZPSYEVNA-P
     RDKit          3D

 61 65  0  0  0  0  0  0  0  0999 V2000
  145.6479   72.2264  219.3676 H   0  0  0  0  0  0  0  0  0  0  0  0
  144.7370   72.7110  219.7490 C   0  0  0  0  0  0  0  0  0  0  0  0
  143.7350   71.9410  220.3400 C   0  0  0  0  0  0  0  0  0  0  0  0
  143.8567   70.8511  220.4256 H   0  0  0  0  0  0  0  0  0  0  0  0
  142.5770   72.5550  220.8230 C   0  0  0  0  0  0  0  0  0  0  0  0
  141.7946   71.9480  221.3020 H   0  0  0  0  0  0  0  0  0  0  0  0
  142.4070   73.9430  220.7000 C   0  0  0  0  0  0  0  0  0  0  0  0
  143.4200   74.7230  220.1080 C   0  0  0  0  0  0  0  0  0  0  0  0
  144.5870   74.0960  219.6400 C   0  0  0  0  0  0  0  0  0  0  0  0
  145.3870   74.6987  219.1853 H   0  0  0  0  0  0  0  0  0  0  0  0
  143.2940   76.2280  220.0220 C   0  0  0  0  0  0  0  0  0  0  0  0
  143.6699   76.5556  219.0415 H   0  0  0  0  0  0  0  0  0  0  0  0
  143.8791   76.6547  220.8500 H   0  0  0  0  0  0  0  0  0  0  0  0
  141.9090   76.6990  220.1740 N   0  0  0  0  0  0  0  0  0  0  0  0
  141.6290   78.0770  219.9110 C   0  0  0  0  0  0  0  0  0  0  0  0
  140.8590   78.7840  220.7750 N   0  0  0  0  0  0  0  0  0  0  0  0
  140.5670   80.0880  220.5260 C   0  0  0  0  0  0  0  0  0  0  0  0
  139.7900   80.7460  221.3400 N   0  0  0  0  0  0  0  0  0  0  0  0
  138.7530   80.6630  221.2190 H   0  0  0  0  0  0  0  0  0  0  0  0
  140.3160   81.6230  222.3940 C   0  0  0  0  0  0  0  0  0  0  0  0
  140.8834   82.4419  221.9278 H   0  0  0  0  0  0  0  0  0  0  0  0
  139.4669   82.0157  222.9727 H   0  0  0  0  0  0  0  0  0  0  0  0
  141.2430   80.8550  223.3550 C   0  0  2  0  0  0  0  0  0  0  0  0
  141.3904   81.5510  224.1939 H   0  0  0  0  0  0  0  0  0  0  0  0
  142.5830   80.4660  222.7140 C   0  0  0  0  0  0  0  0  0  0  0  0
  143.3912   81.0737  223.1470 H   0  0  0  0  0  0  0  0  0  0  0  0
  142.5462   80.6433  221.6290 H   0  0  0  0  0  0  0  0  0  0  0  0
  142.8350   79.0440  222.9820 N   0  0  0  0  0  0  0  0  0  0  0  0
  142.6810   78.5090  222.0940 H   0  0  0  0  0  0  0  0  0  0  0  0
  141.8230   78.6120  223.9460 C   0  0  0  0  0  0  0  0  0  0  0  0
  142.2247   78.6784  224.9679 H   0  0  0  0  0  0  0  0  0  0  0  0
  141.5305   77.5680  223.7603 H   0  0  0  0  0  0  0  0  0  0  0  0
  140.6310   79.5360  223.7970 C   0  0  0  0  0  0  0  0  0  0  0  0
  140.1031   79.6512  224.7552 H   0  0  0  0  0  0  0  0  0  0  0  0
  139.8855   79.1545  223.0838 H   0  0  0  0  0  0  0  0  0  0  0  0
  141.0630   80.6790  219.4060 N   0  0  0  0  0  0  0  0  0  0  0  0
  141.8260   79.9760  218.5310 C   0  0  0  0  0  0  0  0  0  0  0  0
  142.3110   80.6040  217.3360 N   0  0  0  0  0  0  0  0  0  0  0  0
  142.1890   79.9040  216.0560 C   0  0  0  0  0  0  0  0  0  0  0  0
  143.0669   79.2580  215.9074 H   0  0  0  0  0  0  0  0  0  0  0  0
  141.2758   79.2907  216.0618 H   0  0  0  0  0  0  0  0  0  0  0  0
  142.1080   80.9250  214.9140 C   0  0  0  0  0  0  0  0  0  0  0  0
  142.1525   80.3931  213.9522 H   0  0  0  0  0  0  0  0  0  0  0  0
  141.1616   81.4782  215.0051 H   0  0  0  0  0  0  0  0  0  0  0  0
  143.2220   81.8860  214.9850 N   0  0  0  0  0  0  0  0  0  0  0  0
  143.1100   82.5810  214.2100 H   0  0  0  0  0  0  0  0  0  0  0  0
  144.1330   81.3920  214.8530 H   0  0  0  0  0  0  0  0  0  0  0  0
  143.2240   82.6170  216.2620 C   0  0  0  0  0  0  0  0  0  0  0  0
  144.0821   83.3050  216.2810 H   0  0  0  0  0  0  0  0  0  0  0  0
  142.2798   83.1749  216.3472 H   0  0  0  0  0  0  0  0  0  0  0  0
  143.3290   81.6530  217.4480 C   0  0  0  0  0  0  0  0  0  0  0  0
  144.3276   81.1917  217.4547 H   0  0  0  0  0  0  0  0  0  0  0  0
  143.1688   82.2120  218.3817 H   0  0  0  0  0  0  0  0  0  0  0  0
  142.1070   78.6700  218.7840 N   0  0  0  0  0  0  0  0  0  0  0  0
  142.7050   78.1240  218.1230 H   0  0  0  0  0  0  0  0  0  0  0  0
  140.7800   75.7790  220.3440 C   0  0  0  0  0  0  0  0  0  0  0  0
  140.4750   75.3940  219.3597 H   0  0  0  0  0  0  0  0  0  0  0  0
  139.9458   76.3212  220.8132 H   0  0  0  0  0  0  0  0  0  0  0  0
  141.1760   74.6100  221.2400 C   0  0  0  0  0  0  0  0  0  0  0  0
  140.3523   73.8817  221.2739 H   0  0  0  0  0  0  0  0  0  0  0  0
  141.3839   74.9858  222.2527 H   0  0  0  0  0  0  0  0  0  0  0  0
  1  2  1  0
  2  3  2  0
  3  4  1  0
  3  5  1  0
  5  6  1  0
  5  7  2  0
  7  8  1  0
  8  9  2  0
  9 10  1  0
  8 11  1  0
 11 12  1  0
 11 13  1  0
 11 14  1  0
 14 15  1  0
 15 16  2  0
 16 17  1  0
 17 18  2  0
 18 19  1  0
 18 20  1  0
 20 21  1  0
 20 22  1  0
 20 23  1  0
 23 24  1  1
 23 25  1  0
 25 26  1  0
 25 27  1  0
 25 28  1  0
 28 29  1  0
 28 30  1  0
 30 31  1  0
 30 32  1  0
 30 33  1  0
 33 34  1  0
 33 35  1  0
 17 36  1  0
 36 37  2  0
 37 38  1  0
 38 39  1  0
 39 40  1  0
 39 41  1  0
 39 42  1  0
 42 43  1  0
 42 44  1  0
 42 45  1  0
 45 46  1  0
 45 47  1  0
 45 48  1  0
 48 49  1  0
 48 50  1  0
 48 51  1  0
 51 52  1  0
 51 53  1  0
 37 54  1  0
 54 55  1  0
 14 56  1  0
 56 57  1  0
 56 58  1  0
 56 59  1  0
 59 60  1  0
 59 61  1  0
  9  2  1  0
 54 15  1  0
 59  7  1  0
 33 23  1  0
 51 38  1  0
M  CHG  2  18   1  45   1
M  END
>  <UniqueID>  (31) 
578

>  <SMILES>  (31) 
c1ccc2c(c1)CCN(c1n/c(=[NH+]/C[C@H]3CCNC3)nc(N3CC[NH2+]CC3)[nH]1)C2

>  <Energy>  (31) 
72.33460781501547

>  <Genealogy>  (31) 
c1ccc2c(c1)CCN(c1nc([NH2+]CC3CCNC3)nc(N3CC[NH2+]CC3)n1)C2 (protonated)
c1ccc2c(c1)CCN(c1nc(=[NH+]CC3CCNC3)nc(N3CC[NH2+]CC3)[nH]1)C2 (tautomer)
c1ccc2c(c1)CCN(c1nc(=[NH+]C[C@H]3CCNC3)nc(N3CC[NH2+]CC3)[nH]1)C2 (chirality)
c1ccc2c(c1)CCN(c1n/c(=[NH+]/C[C@H]3CCNC3)nc(N3CC[NH2+]CC3)[nH]1)C2 (cis-trans isomerization)
c1ccc2c(c1)CCN(c1n/c(=[NH+]/C[C@H]3CCNC3)nc(N3CC[NH2+]CC3)[nH]1)C2 (3D coordinates assigned)
c1ccc2c(c1)CCN(c1n/c(=[NH+]/C[C@H]3CCNC3)nc(N3CC[NH2+]CC3)[nH]1)C2 (nonaromatic ring conformer: 72.33460781501547 kcal/mol)

>  <smiles>  (31) 
c1ccc2c(c1)CCN(c1nc(NCC3CCNC3)nc(N3CCNCC3)n1)C2

>  <score_type>  (31) 
oracle

>  <origin>  (31) 
autodockgpu

>  <m_score__min__energy>  (31) 
-8.1799999999999997

>  <m_primary>  (31) 
energy

>  <meeko>  (31) 
{"free_energy": -7.51, "intermolecular_energy": -9.0, "internal_energy": -1.02, "cluster_size": 8, "cluster_id": 4, "rank_in_cluster": 6}

>  <energy>  (31) 
-7.76

>  <cluster_rmsd>  (31) 
0.37

>  <rmsd>  (31) 
270.62

>  <cluster>  (31) 
4

$$$$
RHAOACRWGXEIGT-JWZPSYEVNA-P
     RDKit          3D

 61 65  0  0  0  0  0  0  0  0999 V2000
  145.9444   72.7907  221.1376 H   0  0  0  0  0  0  0  0  0  0  0  0
  145.3910   73.2620  220.3120 C   0  0  0  0  0  0  0  0  0  0  0  0
  145.3470   72.6450  219.0600 C   0  0  0  0  0  0  0  0  0  0  0  0
  145.8647   71.6877  218.9002 H   0  0  0  0  0  0  0  0  0  0  0  0
  144.6460   73.2430  218.0110 C   0  0  0  0  0  0  0  0  0  0  0  0
  144.6005   72.7475  217.0300 H   0  0  0  0  0  0  0  0  0  0  0  0
  143.9990   74.4740  218.2030 C   0  0  0  0  0  0  0  0  0  0  0  0
  144.0370   75.0970  219.4660 C   0  0  0  0  0  0  0  0  0  0  0  0
  144.7330   74.4770  220.5170 C   0  0  0  0  0  0  0  0  0  0  0  0
  144.7600   74.9519  221.5089 H   0  0  0  0  0  0  0  0  0  0  0  0
  143.2940   76.3890  219.7200 C   0  0  0  0  0  0  0  0  0  0  0  0
  143.9247   77.0392  220.3441 H   0  0  0  0  0  0  0  0  0  0  0  0
  142.3483   76.1318  220.2196 H   0  0  0  0  0  0  0  0  0  0  0  0
  142.9560   77.1110  218.4830 N   0  0  0  0  0  0  0  0  0  0  0  0
  142.4350   78.4390  218.5950 C   0  0  0  0  0  0  0  0  0  0  0  0
  141.4750   78.7100  219.5140 N   0  0  0  0  0  0  0  0  0  0  0  0
  140.9550   79.9610  219.6160 C   0  0  0  0  0  0  0  0  0  0  0  0
  140.0020   80.2010  220.4730 N   0  0  0  0  0  0  0  0  0  0  0  0
  139.1220   79.6370  220.4120 H   0  0  0  0  0  0  0  0  0  0  0  0
  140.1060   81.2530  221.4920 C   0  0  0  0  0  0  0  0  0  0  0  0
  140.5612   82.1461  221.0391 H   0  0  0  0  0  0  0  0  0  0  0  0
  139.0950   81.4758  221.8637 H   0  0  0  0  0  0  0  0  0  0  0  0
  140.9710   80.7990  222.6830 C   0  0  2  0  0  0  0  0  0  0  0  0
  140.6944   81.4927  223.4907 H   0  0  0  0  0  0  0  0  0  0  0  0
  142.4770   80.8600  222.3890 C   0  0  0  0  0  0  0  0  0  0  0  0
  142.9325   81.6842  222.9576 H   0  0  0  0  0  0  0  0  0  0  0  0
  142.6436   81.0329  221.3155 H   0  0  0  0  0  0  0  0  0  0  0  0
  143.0850   79.5860  222.7920 N   0  0  0  0  0  0  0  0  0  0  0  0
  143.3170   79.0430  221.9250 H   0  0  0  0  0  0  0  0  0  0  0  0
  142.0580   78.8430  223.5220 C   0  0  0  0  0  0  0  0  0  0  0  0
  142.1668   79.0151  224.6030 H   0  0  0  0  0  0  0  0  0  0  0  0
  142.1543   77.7633  223.3351 H   0  0  0  0  0  0  0  0  0  0  0  0
  140.7100   79.3480  223.0510 C   0  0  0  0  0  0  0  0  0  0  0  0
  139.9627   79.2766  223.8550 H   0  0  0  0  0  0  0  0  0  0  0  0
  140.3081   78.7631  222.2105 H   0  0  0  0  0  0  0  0  0  0  0  0
  141.4150   80.9420  218.7930 N   0  0  0  0  0  0  0  0  0  0  0  0
  142.3680   80.6760  217.8630 C   0  0  0  0  0  0  0  0  0  0  0  0
  142.8140   81.7130  216.9780 N   0  0  0  0  0  0  0  0  0  0  0  0
  143.0490   83.0580  217.5060 C   0  0  0  0  0  0  0  0  0  0  0  0
  142.1101   83.6305  217.4794 H   0  0  0  0  0  0  0  0  0  0  0  0
  143.4076   82.9846  218.5433 H   0  0  0  0  0  0  0  0  0  0  0  0
  144.1050   83.7710  216.6530 C   0  0  0  0  0  0  0  0  0  0  0  0
  144.1759   84.8211  216.9727 H   0  0  0  0  0  0  0  0  0  0  0  0
  145.0690   83.2592  216.7904 H   0  0  0  0  0  0  0  0  0  0  0  0
  143.7510   83.7260  215.2250 N   0  0  0  0  0  0  0  0  0  0  0  0
  144.5110   84.1930  214.6790 H   0  0  0  0  0  0  0  0  0  0  0  0
  142.8600   84.2470  215.0580 H   0  0  0  0  0  0  0  0  0  0  0  0
  143.6230   82.3410  214.7440 C   0  0  0  0  0  0  0  0  0  0  0  0
  143.3351   82.3544  213.6824 H   0  0  0  0  0  0  0  0  0  0  0  0
  144.5905   81.8344  214.8755 H   0  0  0  0  0  0  0  0  0  0  0  0
  142.5610   81.5770  215.5410 C   0  0  0  0  0  0  0  0  0  0  0  0
  141.5668   81.9852  215.3065 H   0  0  0  0  0  0  0  0  0  0  0  0
  142.6029   80.5123  215.2676 H   0  0  0  0  0  0  0  0  0  0  0  0
  142.8770   79.4200  217.7640 N   0  0  0  0  0  0  0  0  0  0  0  0
  143.6210   79.2100  217.0600 H   0  0  0  0  0  0  0  0  0  0  0  0
  143.3520   76.6270  217.1570 C   0  0  0  0  0  0  0  0  0  0  0  0
  144.3967   76.9122  216.9642 H   0  0  0  0  0  0  0  0  0  0  0  0
  142.6916   77.0769  216.4010 H   0  0  0  0  0  0  0  0  0  0  0  0
  143.2240   75.1080  217.0850 C   0  0  0  0  0  0  0  0  0  0  0  0
  143.6194   74.7544  216.1214 H   0  0  0  0  0  0  0  0  0  0  0  0
  142.1637   74.8302  217.1777 H   0  0  0  0  0  0  0  0  0  0  0  0
  1  2  1  0
  2  3  2  0
  3  4  1  0
  3  5  1  0
  5  6  1  0
  5  7  2  0
  7  8  1  0
  8  9  2  0
  9 10  1  0
  8 11  1  0
 11 12  1  0
 11 13  1  0
 11 14  1  0
 14 15  1  0
 15 16  2  0
 16 17  1  0
 17 18  2  0
 18 19  1  0
 18 20  1  0
 20 21  1  0
 20 22  1  0
 20 23  1  0
 23 24  1  1
 23 25  1  0
 25 26  1  0
 25 27  1  0
 25 28  1  0
 28 29  1  0
 28 30  1  0
 30 31  1  0
 30 32  1  0
 30 33  1  0
 33 34  1  0
 33 35  1  0
 17 36  1  0
 36 37  2  0
 37 38  1  0
 38 39  1  0
 39 40  1  0
 39 41  1  0
 39 42  1  0
 42 43  1  0
 42 44  1  0
 42 45  1  0
 45 46  1  0
 45 47  1  0
 45 48  1  0
 48 49  1  0
 48 50  1  0
 48 51  1  0
 51 52  1  0
 51 53  1  0
 37 54  1  0
 54 55  1  0
 14 56  1  0
 56 57  1  0
 56 58  1  0
 56 59  1  0
 59 60  1  0
 59 61  1  0
  9  2  1  0
 54 15  1  0
 59  7  1  0
 33 23  1  0
 51 38  1  0
M  CHG  2  18   1  45   1
M  END
>  <UniqueID>  (32) 
578

>  <SMILES>  (32) 
c1ccc2c(c1)CCN(c1n/c(=[NH+]/C[C@H]3CCNC3)nc(N3CC[NH2+]CC3)[nH]1)C2

>  <Energy>  (32) 
72.33460781501547

>  <Genealogy>  (32) 
c1ccc2c(c1)CCN(c1nc([NH2+]CC3CCNC3)nc(N3CC[NH2+]CC3)n1)C2 (protonated)
c1ccc2c(c1)CCN(c1nc(=[NH+]CC3CCNC3)nc(N3CC[NH2+]CC3)[nH]1)C2 (tautomer)
c1ccc2c(c1)CCN(c1nc(=[NH+]C[C@H]3CCNC3)nc(N3CC[NH2+]CC3)[nH]1)C2 (chirality)
c1ccc2c(c1)CCN(c1n/c(=[NH+]/C[C@H]3CCNC3)nc(N3CC[NH2+]CC3)[nH]1)C2 (cis-trans isomerization)
c1ccc2c(c1)CCN(c1n/c(=[NH+]/C[C@H]3CCNC3)nc(N3CC[NH2+]CC3)[nH]1)C2 (3D coordinates assigned)
c1ccc2c(c1)CCN(c1n/c(=[NH+]/C[C@H]3CCNC3)nc(N3CC[NH2+]CC3)[nH]1)C2 (nonaromatic ring conformer: 72.33460781501547 kcal/mol)

>  <smiles>  (32) 
c1ccc2c(c1)CCN(c1nc(NCC3CCNC3)nc(N3CCNCC3)n1)C2

>  <score_type>  (32) 
oracle

>  <origin>  (32) 
autodockgpu

>  <m_score__min__energy>  (32) 
-8.1799999999999997

>  <m_primary>  (32) 
energy

>  <meeko>  (32) 
{"free_energy": -7.78, "intermolecular_energy": -9.27, "internal_energy": -0.53, "cluster_size": 8, "cluster_id": 4, "rank_in_cluster": 1}

>  <energy>  (32) 
-7.59

>  <cluster_rmsd>  (32) 
0.69

>  <rmsd>  (32) 
270.49

>  <cluster>  (32) 
4

$$$$
RHAOACRWGXEIGT-JWZPSYEVNA-P
     RDKit          3D

 61 65  0  0  0  0  0  0  0  0999 V2000
  141.2181   68.8425  227.9782 H   0  0  0  0  0  0  0  0  0  0  0  0
  140.7150   69.0490  227.0220 C   0  0  0  0  0  0  0  0  0  0  0  0
  139.8580   68.0980  226.4660 C   0  0  0  0  0  0  0  0  0  0  0  0
  139.6844   67.1440  226.9853 H   0  0  0  0  0  0  0  0  0  0  0  0
  139.2210   68.3570  225.2510 C   0  0  0  0  0  0  0  0  0  0  0  0
  138.5349   67.6118  224.8220 H   0  0  0  0  0  0  0  0  0  0  0  0
  139.4530   69.5650  224.5750 C   0  0  0  0  0  0  0  0  0  0  0  0
  140.3130   70.5300  225.1360 C   0  0  0  0  0  0  0  0  0  0  0  0
  140.9350   70.2630  226.3660 C   0  0  0  0  0  0  0  0  0  0  0  0
  141.6000   71.0146  226.8164 H   0  0  0  0  0  0  0  0  0  0  0  0
  140.5290   71.8670  224.4630 C   0  0  0  0  0  0  0  0  0  0  0  0
  141.5933   72.1325  224.5447 H   0  0  0  0  0  0  0  0  0  0  0  0
  139.8829   72.5986  224.9702 H   0  0  0  0  0  0  0  0  0  0  0  0
  140.1550   71.8620  223.0400 N   0  0  0  0  0  0  0  0  0  0  0  0
  140.4990   73.0000  222.2450 C   0  0  0  0  0  0  0  0  0  0  0  0
  139.7720   74.1410  222.3520 N   0  0  0  0  0  0  0  0  0  0  0  0
  140.0740   75.2220  221.5870 C   0  0  0  0  0  0  0  0  0  0  0  0
  139.3430   76.2990  221.6660 N   0  0  0  0  0  0  0  0  0  0  0  0
  138.5240   76.3950  221.0210 H   0  0  0  0  0  0  0  0  0  0  0  0
  139.6460   77.3900  222.6010 C   0  0  0  0  0  0  0  0  0  0  0  0
  138.9158   78.1996  222.4550 H   0  0  0  0  0  0  0  0  0  0  0  0
  139.5896   76.9936  223.6256 H   0  0  0  0  0  0  0  0  0  0  0  0
  141.0640   77.9470  222.3740 C   0  0  2  0  0  0  0  0  0  0  0  0
  141.6543   77.0624  222.0931 H   0  0  0  0  0  0  0  0  0  0  0  0
  141.6460   78.6320  223.6190 C   0  0  0  0  0  0  0  0  0  0  0  0
  142.4498   78.0114  224.0418 H   0  0  0  0  0  0  0  0  0  0  0  0
  140.8603   78.7629  224.3777 H   0  0  0  0  0  0  0  0  0  0  0  0
  142.1860   79.9400  223.2250 N   0  0  0  0  0  0  0  0  0  0  0  0
  141.5370   80.6840  223.5780 H   0  0  0  0  0  0  0  0  0  0  0  0
  142.1610   79.9810  221.7620 C   0  0  0  0  0  0  0  0  0  0  0  0
  143.1373   79.6716  221.3605 H   0  0  0  0  0  0  0  0  0  0  0  0
  141.9519   81.0005  221.4057 H   0  0  0  0  0  0  0  0  0  0  0  0
  141.0840   79.0220  221.3000 C   0  0  0  0  0  0  0  0  0  0  0  0
  141.3380   78.5913  220.3202 H   0  0  0  0  0  0  0  0  0  0  0  0
  140.1072   79.5116  221.1727 H   0  0  0  0  0  0  0  0  0  0  0  0
  141.1200   75.1530  220.7190 N   0  0  0  0  0  0  0  0  0  0  0  0
  141.8450   74.0120  220.5990 C   0  0  0  0  0  0  0  0  0  0  0  0
  142.9200   73.9430  219.6520 N   0  0  0  0  0  0  0  0  0  0  0  0
  144.2980   73.8350  220.1350 C   0  0  0  0  0  0  0  0  0  0  0  0
  144.7027   74.8422  220.3134 H   0  0  0  0  0  0  0  0  0  0  0  0
  144.3109   73.2598  221.0725 H   0  0  0  0  0  0  0  0  0  0  0  0
  145.1590   73.1180  219.0880 C   0  0  0  0  0  0  0  0  0  0  0  0
  146.2134   73.1623  219.3984 H   0  0  0  0  0  0  0  0  0  0  0  0
  144.8216   72.0737  219.0137 H   0  0  0  0  0  0  0  0  0  0  0  0
  145.0200   73.7500  217.7650 N   0  0  0  0  0  0  0  0  0  0  0  0
  145.5960   73.2110  217.0780 H   0  0  0  0  0  0  0  0  0  0  0  0
  145.3790   74.7310  217.7960 H   0  0  0  0  0  0  0  0  0  0  0  0
  143.6220   73.7370  217.3050 C   0  0  0  0  0  0  0  0  0  0  0  0
  143.5606   74.2375  216.3274 H   0  0  0  0  0  0  0  0  0  0  0  0
  143.2897   72.6915  217.2250 H   0  0  0  0  0  0  0  0  0  0  0  0
  142.7090   74.4640  218.2980 C   0  0  0  0  0  0  0  0  0  0  0  0
  142.9382   75.5397  218.2824 H   0  0  0  0  0  0  0  0  0  0  0  0
  141.6604   74.3002  218.0089 H   0  0  0  0  0  0  0  0  0  0  0  0
  141.5310   72.9320  221.3630 N   0  0  0  0  0  0  0  0  0  0  0  0
  142.0930   72.0540  221.2860 H   0  0  0  0  0  0  0  0  0  0  0  0
  139.6680   70.6580  222.3590 C   0  0  0  0  0  0  0  0  0  0  0  0
  140.5258   70.0328  222.0705 H   0  0  0  0  0  0  0  0  0  0  0  0
  139.1014   70.9583  221.4652 H   0  0  0  0  0  0  0  0  0  0  0  0
  138.7510   69.8590  223.2810 C   0  0  0  0  0  0  0  0  0  0  0  0
  138.4776   68.9125  222.7917 H   0  0  0  0  0  0  0  0  0  0  0  0
  137.8451   70.4477  223.4876 H   0  0  0  0  0  0  0  0  0  0  0  0
  1  2  1  0
  2  3  2  0
  3  4  1  0
  3  5  1  0
  5  6  1  0
  5  7  2  0
  7  8  1  0
  8  9  2  0
  9 10  1  0
  8 11  1  0
 11 12  1  0
 11 13  1  0
 11 14  1  0
 14 15  1  0
 15 16  2  0
 16 17  1  0
 17 18  2  0
 18 19  1  0
 18 20  1  0
 20 21  1  0
 20 22  1  0
 20 23  1  0
 23 24  1  6
 23 25  1  0
 25 26  1  0
 25 27  1  0
 25 28  1  0
 28 29  1  0
 28 30  1  0
 30 31  1  0
 30 32  1  0
 30 33  1  0
 33 34  1  0
 33 35  1  0
 17 36  1  0
 36 37  2  0
 37 38  1  0
 38 39  1  0
 39 40  1  0
 39 41  1  0
 39 42  1  0
 42 43  1  0
 42 44  1  0
 42 45  1  0
 45 46  1  0
 45 47  1  0
 45 48  1  0
 48 49  1  0
 48 50  1  0
 48 51  1  0
 51 52  1  0
 51 53  1  0
 37 54  1  0
 54 55  1  0
 14 56  1  0
 56 57  1  0
 56 58  1  0
 56 59  1  0
 59 60  1  0
 59 61  1  0
  9  2  1  0
 54 15  1  0
 59  7  1  0
 33 23  1  0
 51 38  1  0
M  CHG  2  18   1  45   1
M  END
>  <UniqueID>  (33) 
578

>  <SMILES>  (33) 
c1ccc2c(c1)CCN(c1n/c(=[NH+]/C[C@H]3CCNC3)nc(N3CC[NH2+]CC3)[nH]1)C2

>  <Energy>  (33) 
72.33460781501547

>  <Genealogy>  (33) 
c1ccc2c(c1)CCN(c1nc([NH2+]CC3CCNC3)nc(N3CC[NH2+]CC3)n1)C2 (protonated)
c1ccc2c(c1)CCN(c1nc(=[NH+]CC3CCNC3)nc(N3CC[NH2+]CC3)[nH]1)C2 (tautomer)
c1ccc2c(c1)CCN(c1nc(=[NH+]C[C@H]3CCNC3)nc(N3CC[NH2+]CC3)[nH]1)C2 (chirality)
c1ccc2c(c1)CCN(c1n/c(=[NH+]/C[C@H]3CCNC3)nc(N3CC[NH2+]CC3)[nH]1)C2 (cis-trans isomerization)
c1ccc2c(c1)CCN(c1n/c(=[NH+]/C[C@H]3CCNC3)nc(N3CC[NH2+]CC3)[nH]1)C2 (3D coordinates assigned)
c1ccc2c(c1)CCN(c1n/c(=[NH+]/C[C@H]3CCNC3)nc(N3CC[NH2+]CC3)[nH]1)C2 (nonaromatic ring conformer: 72.33460781501547 kcal/mol)

>  <smiles>  (33) 
c1ccc2c(c1)CCN(c1nc(NCC3CCNC3)nc(N3CCNCC3)n1)C2

>  <score_type>  (33) 
oracle

>  <origin>  (33) 
autodockgpu

>  <m_score__min__energy>  (33) 
-8.1799999999999997

>  <m_primary>  (33) 
energy

>  <meeko>  (33) 
{"free_energy": -7.69, "intermolecular_energy": -9.18, "internal_energy": -0.21, "cluster_size": 2, "cluster_id": 5, "rank_in_cluster": 1}

>  <energy>  (33) 
-7.53

>  <cluster_rmsd>  (33) 
1.54

>  <rmsd>  (33) 
270.84

>  <cluster>  (33) 
4

$$$$
RHAOACRWGXEIGT-JWZPSYEVNA-P
     RDKit          3D

 61 65  0  0  0  0  0  0  0  0999 V2000
  141.5847   69.3410  228.9505 H   0  0  0  0  0  0  0  0  0  0  0  0
  141.0130   69.2620  228.0140 C   0  0  0  0  0  0  0  0  0  0  0  0
  140.2300   68.1330  227.7690 C   0  0  0  0  0  0  0  0  0  0  0  0
  140.1839   67.3239  228.5128 H   0  0  0  0  0  0  0  0  0  0  0  0
  139.5050   68.0300  226.5800 C   0  0  0  0  0  0  0  0  0  0  0  0
  138.8768   67.1460  226.3961 H   0  0  0  0  0  0  0  0  0  0  0  0
  139.5750   69.0510  225.6180 C   0  0  0  0  0  0  0  0  0  0  0  0
  140.3600   70.1940  225.8640 C   0  0  0  0  0  0  0  0  0  0  0  0
  141.0720   70.2920  227.0720 C   0  0  0  0  0  0  0  0  0  0  0  0
  141.6797   71.1857  227.2770 H   0  0  0  0  0  0  0  0  0  0  0  0
  140.4010   71.3380  224.8770 C   0  0  0  0  0  0  0  0  0  0  0  0
  141.4352   71.7068  224.8109 H   0  0  0  0  0  0  0  0  0  0  0  0
  139.7109   72.1125  225.2428 H   0  0  0  0  0  0  0  0  0  0  0  0
  139.9540   70.9520  223.5290 N   0  0  0  0  0  0  0  0  0  0  0  0
  140.1370   71.8860  222.4610 C   0  0  0  0  0  0  0  0  0  0  0  0
  140.7640   71.4930  221.3240 N   0  0  0  0  0  0  0  0  0  0  0  0
  140.9650   72.3760  220.3110 C   0  0  0  0  0  0  0  0  0  0  0  0
  141.6060   72.0000  219.2400 N   0  0  0  0  0  0  0  0  0  0  0  0
  141.1360   72.1120  218.3110 H   0  0  0  0  0  0  0  0  0  0  0  0
  142.9440   71.3970  219.2940 C   0  0  0  0  0  0  0  0  0  0  0  0
  143.0520   70.8506  220.2425 H   0  0  0  0  0  0  0  0  0  0  0  0
  143.0514   70.7166  218.4364 H   0  0  0  0  0  0  0  0  0  0  0  0
  144.0480   72.4670  219.2040 C   0  0  2  0  0  0  0  0  0  0  0  0
  143.7963   73.0312  218.2939 H   0  0  0  0  0  0  0  0  0  0  0  0
  145.4590   71.8680  219.1140 C   0  0  0  0  0  0  0  0  0  0  0  0
  145.8618   72.0189  218.1016 H   0  0  0  0  0  0  0  0  0  0  0  0
  145.4236   70.7892  219.3261 H   0  0  0  0  0  0  0  0  0  0  0  0
  146.3180   72.5440  220.0940 N   0  0  0  0  0  0  0  0  0  0  0  0
  146.4930   71.8840  220.8890 H   0  0  0  0  0  0  0  0  0  0  0  0
  145.5520   73.6770  220.6140 C   0  0  0  0  0  0  0  0  0  0  0  0
  145.8021   74.5892  220.0525 H   0  0  0  0  0  0  0  0  0  0  0  0
  145.7885   73.8517  221.6740 H   0  0  0  0  0  0  0  0  0  0  0  0
  144.0830   73.3490  220.4410 C   0  0  0  0  0  0  0  0  0  0  0  0
  143.4934   74.2645  220.2856 H   0  0  0  0  0  0  0  0  0  0  0  0
  143.6515   72.8567  221.3250 H   0  0  0  0  0  0  0  0  0  0  0  0
  140.5220   73.6550  220.4440 N   0  0  0  0  0  0  0  0  0  0  0  0
  139.9030   74.0580  221.5830 C   0  0  0  0  0  0  0  0  0  0  0  0
  139.4760   75.4200  221.7230 N   0  0  0  0  0  0  0  0  0  0  0  0
  138.0590   75.7500  221.5540 C   0  0  0  0  0  0  0  0  0  0  0  0
  137.8518   75.9393  220.4904 H   0  0  0  0  0  0  0  0  0  0  0  0
  137.4441   74.9084  221.9056 H   0  0  0  0  0  0  0  0  0  0  0  0
  137.7200   77.0040  222.3710 C   0  0  0  0  0  0  0  0  0  0  0  0
  136.6937   77.3210  222.1338 H   0  0  0  0  0  0  0  0  0  0  0  0
  137.8115   76.7606  223.4398 H   0  0  0  0  0  0  0  0  0  0  0  0
  138.6480   78.1050  222.0600 N   0  0  0  0  0  0  0  0  0  0  0  0
  138.4010   78.9260  222.6600 H   0  0  0  0  0  0  0  0  0  0  0  0
  138.5470   78.3880  221.0590 H   0  0  0  0  0  0  0  0  0  0  0  0
  140.0430   77.7310  222.3420 C   0  0  0  0  0  0  0  0  0  0  0  0
  140.7013   78.5709  222.0751 H   0  0  0  0  0  0  0  0  0  0  0  0
  140.1323   77.4954  223.4128 H   0  0  0  0  0  0  0  0  0  0  0  0
  140.4560   76.4950  221.5350 C   0  0  0  0  0  0  0  0  0  0  0  0
  140.5078   76.7577  220.4681 H   0  0  0  0  0  0  0  0  0  0  0  0
  141.4405   76.1498  221.8836 H   0  0  0  0  0  0  0  0  0  0  0  0
  139.7130   73.1710  222.5950 N   0  0  0  0  0  0  0  0  0  0  0  0
  139.2260   73.4690  223.4700 H   0  0  0  0  0  0  0  0  0  0  0  0
  139.5580   69.5800  223.1960 C   0  0  0  0  0  0  0  0  0  0  0  0
  140.4591   68.9801  223.0009 H   0  0  0  0  0  0  0  0  0  0  0  0
  138.9167   69.6010  222.3026 H   0  0  0  0  0  0  0  0  0  0  0  0
  138.7790   68.9560  224.3490 C   0  0  0  0  0  0  0  0  0  0  0  0
  138.5789   67.8982  224.1230 H   0  0  0  0  0  0  0  0  0  0  0  0
  137.8296   69.4965  224.4773 H   0  0  0  0  0  0  0  0  0  0  0  0
  1  2  1  0
  2  3  2  0
  3  4  1  0
  3  5  1  0
  5  6  1  0
  5  7  2  0
  7  8  1  0
  8  9  2  0
  9 10  1  0
  8 11  1  0
 11 12  1  0
 11 13  1  0
 11 14  1  0
 14 15  1  0
 15 16  2  0
 16 17  1  0
 17 18  2  0
 18 19  1  0
 18 20  1  0
 20 21  1  0
 20 22  1  0
 20 23  1  0
 23 24  1  6
 23 25  1  0
 25 26  1  0
 25 27  1  0
 25 28  1  0
 28 29  1  0
 28 30  1  0
 30 31  1  0
 30 32  1  0
 30 33  1  0
 33 34  1  0
 33 35  1  0
 17 36  1  0
 36 37  2  0
 37 38  1  0
 38 39  1  0
 39 40  1  0
 39 41  1  0
 39 42  1  0
 42 43  1  0
 42 44  1  0
 42 45  1  0
 45 46  1  0
 45 47  1  0
 45 48  1  0
 48 49  1  0
 48 50  1  0
 48 51  1  0
 51 52  1  0
 51 53  1  0
 37 54  1  0
 54 55  1  0
 14 56  1  0
 56 57  1  0
 56 58  1  0
 56 59  1  0
 59 60  1  0
 59 61  1  0
  9  2  1  0
 54 15  1  0
 59  7  1  0
 33 23  1  0
 51 38  1  0
M  CHG  2  18   1  45   1
M  END
>  <UniqueID>  (34) 
578

>  <SMILES>  (34) 
c1ccc2c(c1)CCN(c1n/c(=[NH+]/C[C@H]3CCNC3)nc(N3CC[NH2+]CC3)[nH]1)C2

>  <Energy>  (34) 
72.33460781501547

>  <Genealogy>  (34) 
c1ccc2c(c1)CCN(c1nc([NH2+]CC3CCNC3)nc(N3CC[NH2+]CC3)n1)C2 (protonated)
c1ccc2c(c1)CCN(c1nc(=[NH+]CC3CCNC3)nc(N3CC[NH2+]CC3)[nH]1)C2 (tautomer)
c1ccc2c(c1)CCN(c1nc(=[NH+]C[C@H]3CCNC3)nc(N3CC[NH2+]CC3)[nH]1)C2 (chirality)
c1ccc2c(c1)CCN(c1n/c(=[NH+]/C[C@H]3CCNC3)nc(N3CC[NH2+]CC3)[nH]1)C2 (cis-trans isomerization)
c1ccc2c(c1)CCN(c1n/c(=[NH+]/C[C@H]3CCNC3)nc(N3CC[NH2+]CC3)[nH]1)C2 (3D coordinates assigned)
c1ccc2c(c1)CCN(c1n/c(=[NH+]/C[C@H]3CCNC3)nc(N3CC[NH2+]CC3)[nH]1)C2 (nonaromatic ring conformer: 72.33460781501547 kcal/mol)

>  <smiles>  (34) 
c1ccc2c(c1)CCN(c1nc(NCC3CCNC3)nc(N3CCNCC3)n1)C2

>  <score_type>  (34) 
oracle

>  <origin>  (34) 
autodockgpu

>  <m_score__min__energy>  (34) 
-8.1799999999999997

>  <m_primary>  (34) 
energy

>  <meeko>  (34) 
{"free_energy": -8.09, "intermolecular_energy": -9.58, "internal_energy": -0.23, "cluster_size": 4, "cluster_id": 1, "rank_in_cluster": 2}

>  <energy>  (34) 
-7.51

>  <cluster_rmsd>  (34) 
1.6

>  <rmsd>  (34) 
270.8

>  <cluster>  (34) 
4

$$$$
RHAOACRWGXEIGT-JWZPSYEVNA-P
     RDKit          3D

 61 65  0  0  0  0  0  0  0  0999 V2000
  145.8714   72.5388  221.4833 H   0  0  0  0  0  0  0  0  0  0  0  0
  145.3880   73.0030  220.6110 C   0  0  0  0  0  0  0  0  0  0  0  0
  145.4890   72.4010  219.3560 C   0  0  0  0  0  0  0  0  0  0  0  0
  146.0493   71.4615  219.2403 H   0  0  0  0  0  0  0  0  0  0  0  0
  144.8790   72.9910  218.2470 C   0  0  0  0  0  0  0  0  0  0  0  0
  144.9478   72.5069  217.2616 H   0  0  0  0  0  0  0  0  0  0  0  0
  144.1780   74.2000  218.3850 C   0  0  0  0  0  0  0  0  0  0  0  0
  144.0690   74.8070  219.6520 C   0  0  0  0  0  0  0  0  0  0  0  0
  144.6740   74.1940  220.7610 C   0  0  0  0  0  0  0  0  0  0  0  0
  144.5849   74.6553  221.7556 H   0  0  0  0  0  0  0  0  0  0  0  0
  143.2630   76.0720  219.8420 C   0  0  0  0  0  0  0  0  0  0  0  0
  143.8064   76.7330  220.5332 H   0  0  0  0  0  0  0  0  0  0  0  0
  142.2805   75.7786  220.2402 H   0  0  0  0  0  0  0  0  0  0  0  0
  143.0280   76.8000  218.5850 N   0  0  0  0  0  0  0  0  0  0  0  0
  142.4570   78.1090  218.6570 C   0  0  0  0  0  0  0  0  0  0  0  0
  141.4940   78.3740  219.5760 N   0  0  0  0  0  0  0  0  0  0  0  0
  140.9270   79.6070  219.6400 C   0  0  0  0  0  0  0  0  0  0  0  0
  139.9720   79.8380  220.4970 N   0  0  0  0  0  0  0  0  0  0  0  0
  139.1460   79.1960  220.5100 H   0  0  0  0  0  0  0  0  0  0  0  0
  140.0010   80.9830  221.4170 C   0  0  0  0  0  0  0  0  0  0  0  0
  140.3730   81.8662  220.8771 H   0  0  0  0  0  0  0  0  0  0  0  0
  138.9799   81.1534  221.7889 H   0  0  0  0  0  0  0  0  0  0  0  0
  140.9170   80.7120  222.6250 C   0  0  2  0  0  0  0  0  0  0  0  0
  140.6018   81.4584  223.3689 H   0  0  0  0  0  0  0  0  0  0  0  0
  142.4090   80.8550  222.2910 C   0  0  0  0  0  0  0  0  0  0  0  0
  142.8102   81.7616  222.7676 H   0  0  0  0  0  0  0  0  0  0  0  0
  142.5444   80.9352  221.2023 H   0  0  0  0  0  0  0  0  0  0  0  0
  143.1180   79.6740  222.7990 N   0  0  0  0  0  0  0  0  0  0  0  0
  143.3770   79.0690  221.9830 H   0  0  0  0  0  0  0  0  0  0  0  0
  142.1630   78.9320  223.6210 C   0  0  0  0  0  0  0  0  0  0  0  0
  142.2765   79.2161  224.6776 H   0  0  0  0  0  0  0  0  0  0  0  0
  142.3377   77.8493  223.5364 H   0  0  0  0  0  0  0  0  0  0  0  0
  140.7730   79.2880  223.1360 C   0  0  0  0  0  0  0  0  0  0  0  0
  140.0466   79.2398  223.9606 H   0  0  0  0  0  0  0  0  0  0  0  0
  140.4029   78.5963  222.3649 H   0  0  0  0  0  0  0  0  0  0  0  0
  141.3410   80.5760  218.7800 N   0  0  0  0  0  0  0  0  0  0  0  0
  142.2960   80.3160  217.8520 C   0  0  0  0  0  0  0  0  0  0  0  0
  142.6950   81.3380  216.9280 N   0  0  0  0  0  0  0  0  0  0  0  0
  143.1350   82.6380  217.4390 C   0  0  0  0  0  0  0  0  0  0  0  0
  142.2615   83.2931  217.5724 H   0  0  0  0  0  0  0  0  0  0  0  0
  143.6419   82.4971  218.4050 H   0  0  0  0  0  0  0  0  0  0  0  0
  144.1080   83.2820  216.4440 C   0  0  0  0  0  0  0  0  0  0  0  0
  144.3278   84.3093  216.7700 H   0  0  0  0  0  0  0  0  0  0  0  0
  145.0285   82.6804  216.4159 H   0  0  0  0  0  0  0  0  0  0  0  0
  143.5320   83.3200  215.0890 N   0  0  0  0  0  0  0  0  0  0  0  0
  144.2390   83.7350  214.4390 H   0  0  0  0  0  0  0  0  0  0  0  0
  142.6790   83.9240  215.0770 H   0  0  0  0  0  0  0  0  0  0  0  0
  143.2010   81.9690  214.6070 C   0  0  0  0  0  0  0  0  0  0  0  0
  142.7546   82.0446  213.6045 H   0  0  0  0  0  0  0  0  0  0  0  0
  144.1253   81.3734  214.5748 H   0  0  0  0  0  0  0  0  0  0  0  0
  142.2080   81.2760  215.5460 C   0  0  0  0  0  0  0  0  0  0  0  0
  141.2327   81.7805  215.4808 H   0  0  0  0  0  0  0  0  0  0  0  0
  142.1047   80.2224  215.2473 H   0  0  0  0  0  0  0  0  0  0  0  0
  142.8540   79.0780  217.7890 N   0  0  0  0  0  0  0  0  0  0  0  0
  143.5990   78.8730  217.0860 H   0  0  0  0  0  0  0  0  0  0  0  0
  143.5700   76.3450  217.3010 C   0  0  0  0  0  0  0  0  0  0  0  0
  144.6191   76.6649  217.2169 H   0  0  0  0  0  0  0  0  0  0  0  0
  142.9740   76.7837  216.4872 H   0  0  0  0  0  0  0  0  0  0  0  0
  143.4990   74.8250  217.2010 C   0  0  0  0  0  0  0  0  0  0  0  0
  144.0003   74.4969  216.2785 H   0  0  0  0  0  0  0  0  0  0  0  0
  142.4442   74.5133  217.1837 H   0  0  0  0  0  0  0  0  0  0  0  0
  1  2  1  0
  2  3  2  0
  3  4  1  0
  3  5  1  0
  5  6  1  0
  5  7  2  0
  7  8  1  0
  8  9  2  0
  9 10  1  0
  8 11  1  0
 11 12  1  0
 11 13  1  0
 11 14  1  0
 14 15  1  0
 15 16  2  0
 16 17  1  0
 17 18  2  0
 18 19  1  0
 18 20  1  0
 20 21  1  0
 20 22  1  0
 20 23  1  0
 23 24  1  1
 23 25  1  0
 25 26  1  0
 25 27  1  0
 25 28  1  0
 28 29  1  0
 28 30  1  0
 30 31  1  0
 30 32  1  0
 30 33  1  0
 33 34  1  0
 33 35  1  0
 17 36  1  0
 36 37  2  0
 37 38  1  0
 38 39  1  0
 39 40  1  0
 39 41  1  0
 39 42  1  0
 42 43  1  0
 42 44  1  0
 42 45  1  0
 45 46  1  0
 45 47  1  0
 45 48  1  0
 48 49  1  0
 48 50  1  0
 48 51  1  0
 51 52  1  0
 51 53  1  0
 37 54  1  0
 54 55  1  0
 14 56  1  0
 56 57  1  0
 56 58  1  0
 56 59  1  0
 59 60  1  0
 59 61  1  0
  9  2  1  0
 54 15  1  0
 59  7  1  0
 33 23  1  0
 51 38  1  0
M  CHG  2  18   1  45   1
M  END
>  <UniqueID>  (35) 
578

>  <SMILES>  (35) 
c1ccc2c(c1)CCN(c1n/c(=[NH+]/C[C@H]3CCNC3)nc(N3CC[NH2+]CC3)[nH]1)C2

>  <Energy>  (35) 
72.33460781501547

>  <Genealogy>  (35) 
c1ccc2c(c1)CCN(c1nc([NH2+]CC3CCNC3)nc(N3CC[NH2+]CC3)n1)C2 (protonated)
c1ccc2c(c1)CCN(c1nc(=[NH+]CC3CCNC3)nc(N3CC[NH2+]CC3)[nH]1)C2 (tautomer)
c1ccc2c(c1)CCN(c1nc(=[NH+]C[C@H]3CCNC3)nc(N3CC[NH2+]CC3)[nH]1)C2 (chirality)
c1ccc2c(c1)CCN(c1n/c(=[NH+]/C[C@H]3CCNC3)nc(N3CC[NH2+]CC3)[nH]1)C2 (cis-trans isomerization)
c1ccc2c(c1)CCN(c1n/c(=[NH+]/C[C@H]3CCNC3)nc(N3CC[NH2+]CC3)[nH]1)C2 (3D coordinates assigned)
c1ccc2c(c1)CCN(c1n/c(=[NH+]/C[C@H]3CCNC3)nc(N3CC[NH2+]CC3)[nH]1)C2 (nonaromatic ring conformer: 72.33460781501547 kcal/mol)

>  <smiles>  (35) 
c1ccc2c(c1)CCN(c1nc(NCC3CCNC3)nc(N3CCNCC3)n1)C2

>  <score_type>  (35) 
oracle

>  <origin>  (35) 
autodockgpu

>  <m_score__min__energy>  (35) 
-8.1799999999999997

>  <m_primary>  (35) 
energy

>  <meeko>  (35) 
{"free_energy": -7.76, "intermolecular_energy": -9.25, "internal_energy": -0.49, "cluster_size": 8, "cluster_id": 4, "rank_in_cluster": 3}

>  <energy>  (35) 
-7.39

>  <cluster_rmsd>  (35) 
0.92

>  <rmsd>  (35) 
270.74

>  <cluster>  (35) 
4

$$$$
RHAOACRWGXEIGT-JWZPSYEVNA-P
     RDKit          3D

 61 65  0  0  0  0  0  0  0  0999 V2000
  146.9714   70.7636  218.8716 H   0  0  0  0  0  0  0  0  0  0  0  0
  145.9510   70.9890  219.2150 C   0  0  0  0  0  0  0  0  0  0  0  0
  145.0170   69.9600  219.3450 C   0  0  0  0  0  0  0  0  0  0  0  0
  145.3020   68.9249  219.1058 H   0  0  0  0  0  0  0  0  0  0  0  0
  143.7200   70.2450  219.7790 C   0  0  0  0  0  0  0  0  0  0  0  0
  142.9898   69.4306  219.8955 H   0  0  0  0  0  0  0  0  0  0  0  0
  143.3450   71.5670  220.0670 C   0  0  0  0  0  0  0  0  0  0  0  0
  144.2870   72.6070  219.9420 C   0  0  0  0  0  0  0  0  0  0  0  0
  145.5930   72.3050  219.5200 C   0  0  0  0  0  0  0  0  0  0  0  0
  146.3379   73.1093  219.4292 H   0  0  0  0  0  0  0  0  0  0  0  0
  143.9310   74.0290  220.3100 C   0  0  0  0  0  0  0  0  0  0  0  0
  144.3775   74.7055  219.5664 H   0  0  0  0  0  0  0  0  0  0  0  0
  144.3217   74.2142  221.3215 H   0  0  0  0  0  0  0  0  0  0  0  0
  142.4790   74.2680  220.3490 N   0  0  0  0  0  0  0  0  0  0  0  0
  142.0170   75.6140  220.4840 C   0  0  0  0  0  0  0  0  0  0  0  0
  141.2840   75.9680  221.5700 N   0  0  0  0  0  0  0  0  0  0  0  0
  140.8200   77.2380  221.7010 C   0  0  0  0  0  0  0  0  0  0  0  0
  140.0800   77.5570  222.7260 N   0  0  0  0  0  0  0  0  0  0  0  0
  139.8740   76.8210  223.4410 H   0  0  0  0  0  0  0  0  0  0  0  0
  139.5020   78.8970  222.8940 C   0  0  0  0  0  0  0  0  0  0  0  0
  139.0370   79.2075  221.9467 H   0  0  0  0  0  0  0  0  0  0  0  0
  138.7546   78.8529  223.6999 H   0  0  0  0  0  0  0  0  0  0  0  0
  140.5770   79.9280  223.2860 C   0  0  2  0  0  0  0  0  0  0  0  0
  140.0528   80.6087  223.9729 H   0  0  0  0  0  0  0  0  0  0  0  0
  141.1490   80.6870  222.0800 C   0  0  0  0  0  0  0  0  0  0  0  0
  140.7932   81.7277  222.0943 H   0  0  0  0  0  0  0  0  0  0  0  0
  140.8190   80.2107  221.1450 H   0  0  0  0  0  0  0  0  0  0  0  0
  142.6150   80.6640  222.1650 N   0  0  0  0  0  0  0  0  0  0  0  0
  142.9760   79.9960  221.4410 H   0  0  0  0  0  0  0  0  0  0  0  0
  142.9510   80.1220  223.4810 C   0  0  0  0  0  0  0  0  0  0  0  0
  143.1149   80.9429  224.1947 H   0  0  0  0  0  0  0  0  0  0  0  0
  143.8721   79.5229  223.4298 H   0  0  0  0  0  0  0  0  0  0  0  0
  141.7840   79.2690  223.9330 C   0  0  0  0  0  0  0  0  0  0  0  0
  141.6941   79.2781  225.0293 H   0  0  0  0  0  0  0  0  0  0  0  0
  141.8948   78.2127  223.6467 H   0  0  0  0  0  0  0  0  0  0  0  0
  141.1050   78.1540  220.7360 N   0  0  0  0  0  0  0  0  0  0  0  0
  141.8280   77.8050  219.6420 C   0  0  0  0  0  0  0  0  0  0  0  0
  142.0880   78.7730  218.6160 N   0  0  0  0  0  0  0  0  0  0  0  0
  142.6250   78.3290  217.3280 C   0  0  0  0  0  0  0  0  0  0  0  0
  143.7231   78.2946  217.3820 H   0  0  0  0  0  0  0  0  0  0  0  0
  142.2349   77.3268  217.0967 H   0  0  0  0  0  0  0  0  0  0  0  0
  142.1990   79.3070  216.2250 C   0  0  0  0  0  0  0  0  0  0  0  0
  142.7158   79.0424  215.2907 H   0  0  0  0  0  0  0  0  0  0  0  0
  141.1088   79.2363  216.0965 H   0  0  0  0  0  0  0  0  0  0  0  0
  142.5390   80.6930  216.5870 N   0  0  0  0  0  0  0  0  0  0  0  0
  142.2030   81.3270  215.8250 H   0  0  0  0  0  0  0  0  0  0  0  0
  143.5760   80.8000  216.6690 H   0  0  0  0  0  0  0  0  0  0  0  0
  141.8880   81.0980  217.8430 C   0  0  0  0  0  0  0  0  0  0  0  0
  142.1858   82.1286  218.0862 H   0  0  0  0  0  0  0  0  0  0  0  0
  140.7981   81.0326  217.7092 H   0  0  0  0  0  0  0  0  0  0  0  0
  142.2940   80.1740  218.9960 C   0  0  0  0  0  0  0  0  0  0  0  0
  143.3560   80.3340  219.2337 H   0  0  0  0  0  0  0  0  0  0  0  0
  141.6747   80.4030  219.8758 H   0  0  0  0  0  0  0  0  0  0  0  0
  142.2830   76.5300  219.5160 N   0  0  0  0  0  0  0  0  0  0  0  0
  142.8520   76.2560  218.6830 H   0  0  0  0  0  0  0  0  0  0  0  0
  141.5030   73.2250  220.0160 C   0  0  0  0  0  0  0  0  0  0  0  0
  141.4006   73.1605  218.9227 H   0  0  0  0  0  0  0  0  0  0  0  0
  140.5360   73.4832  220.4723 H   0  0  0  0  0  0  0  0  0  0  0  0
  141.9600   71.8750  220.5580 C   0  0  0  0  0  0  0  0  0  0  0  0
  141.2689   71.0914  220.2140 H   0  0  0  0  0  0  0  0  0  0  0  0
  141.9661   71.9105  221.6574 H   0  0  0  0  0  0  0  0  0  0  0  0
  1  2  1  0
  2  3  2  0
  3  4  1  0
  3  5  1  0
  5  6  1  0
  5  7  2  0
  7  8  1  0
  8  9  2  0
  9 10  1  0
  8 11  1  0
 11 12  1  0
 11 13  1  0
 11 14  1  0
 14 15  1  0
 15 16  2  0
 16 17  1  0
 17 18  2  0
 18 19  1  0
 18 20  1  0
 20 21  1  0
 20 22  1  0
 20 23  1  0
 23 24  1  1
 23 25  1  0
 25 26  1  0
 25 27  1  0
 25 28  1  0
 28 29  1  0
 28 30  1  0
 30 31  1  0
 30 32  1  0
 30 33  1  0
 33 34  1  0
 33 35  1  0
 17 36  1  0
 36 37  2  0
 37 38  1  0
 38 39  1  0
 39 40  1  0
 39 41  1  0
 39 42  1  0
 42 43  1  0
 42 44  1  0
 42 45  1  0
 45 46  1  0
 45 47  1  0
 45 48  1  0
 48 49  1  0
 48 50  1  0
 48 51  1  0
 51 52  1  0
 51 53  1  0
 37 54  1  0
 54 55  1  0
 14 56  1  0
 56 57  1  0
 56 58  1  0
 56 59  1  0
 59 60  1  0
 59 61  1  0
  9  2  1  0
 54 15  1  0
 59  7  1  0
 33 23  1  0
 51 38  1  0
M  CHG  2  18   1  45   1
M  END
>  <UniqueID>  (36) 
578

>  <SMILES>  (36) 
c1ccc2c(c1)CCN(c1n/c(=[NH+]/C[C@H]3CCNC3)nc(N3CC[NH2+]CC3)[nH]1)C2

>  <Energy>  (36) 
72.33460781501547

>  <Genealogy>  (36) 
c1ccc2c(c1)CCN(c1nc([NH2+]CC3CCNC3)nc(N3CC[NH2+]CC3)n1)C2 (protonated)
c1ccc2c(c1)CCN(c1nc(=[NH+]CC3CCNC3)nc(N3CC[NH2+]CC3)[nH]1)C2 (tautomer)
c1ccc2c(c1)CCN(c1nc(=[NH+]C[C@H]3CCNC3)nc(N3CC[NH2+]CC3)[nH]1)C2 (chirality)
c1ccc2c(c1)CCN(c1n/c(=[NH+]/C[C@H]3CCNC3)nc(N3CC[NH2+]CC3)[nH]1)C2 (cis-trans isomerization)
c1ccc2c(c1)CCN(c1n/c(=[NH+]/C[C@H]3CCNC3)nc(N3CC[NH2+]CC3)[nH]1)C2 (3D coordinates assigned)
c1ccc2c(c1)CCN(c1n/c(=[NH+]/C[C@H]3CCNC3)nc(N3CC[NH2+]CC3)[nH]1)C2 (nonaromatic ring conformer: 72.33460781501547 kcal/mol)

>  <smiles>  (36) 
c1ccc2c(c1)CCN(c1nc(NCC3CCNC3)nc(N3CCNCC3)n1)C2

>  <score_type>  (36) 
oracle

>  <origin>  (36) 
autodockgpu

>  <m_score__min__energy>  (36) 
-8.1799999999999997

>  <m_primary>  (36) 
energy

>  <meeko>  (36) 
{"free_energy": -7.77, "intermolecular_energy": -9.26, "internal_energy": -0.5, "cluster_size": 2, "cluster_id": 3, "rank_in_cluster": 2}

>  <energy>  (36) 
-6.8

>  <cluster_rmsd>  (36) 
1.78

>  <rmsd>  (36) 
270.72

>  <cluster>  (36) 
4

$$$$
RHAOACRWGXEIGT-JWZPSYEVNA-P
     RDKit          3D

 61 65  0  0  0  0  0  0  0  0999 V2000
  135.9261   79.4831  223.2473 H   0  0  0  0  0  0  0  0  0  0  0  0
  137.0220   79.5710  223.2130 C   0  0  0  0  0  0  0  0  0  0  0  0
  137.6710   80.5170  224.0090 C   0  0  0  0  0  0  0  0  0  0  0  0
  137.0862   81.1734  224.6702 H   0  0  0  0  0  0  0  0  0  0  0  0
  139.0620   80.6300  223.9660 C   0  0  0  0  0  0  0  0  0  0  0  0
  139.5721   81.3650  224.6060 H   0  0  0  0  0  0  0  0  0  0  0  0
  139.8120   79.8090  223.1090 C   0  0  0  0  0  0  0  0  0  0  0  0
  139.1620   78.8500  222.3080 C   0  0  0  0  0  0  0  0  0  0  0  0
  137.7630   78.7360  222.3730 C   0  0  0  0  0  0  0  0  0  0  0  0
  137.2474   77.9837  221.7580 H   0  0  0  0  0  0  0  0  0  0  0  0
  139.9500   77.9080  221.4270 C   0  0  0  0  0  0  0  0  0  0  0  0
  139.4201   77.7986  220.4693 H   0  0  0  0  0  0  0  0  0  0  0  0
  140.0341   76.9509  221.9626 H   0  0  0  0  0  0  0  0  0  0  0  0
  141.3160   78.3800  221.1550 N   0  0  0  0  0  0  0  0  0  0  0  0
  142.0910   77.6850  220.1750 C   0  0  0  0  0  0  0  0  0  0  0  0
  142.2510   78.2210  218.9390 N   0  0  0  0  0  0  0  0  0  0  0  0
  142.9660   77.5600  217.9910 C   0  0  0  0  0  0  0  0  0  0  0  0
  143.0780   78.0630  216.7930 N   0  0  0  0  0  0  0  0  0  0  0  0
  144.0370   78.2440  216.4150 H   0  0  0  0  0  0  0  0  0  0  0  0
  141.9110   78.4140  215.9740 C   0  0  0  0  0  0  0  0  0  0  0  0
  142.2349   78.5579  214.9326 H   0  0  0  0  0  0  0  0  0  0  0  0
  141.1791   77.5960  216.0458 H   0  0  0  0  0  0  0  0  0  0  0  0
  141.2420   79.7080  216.4740 C   0  0  2  0  0  0  0  0  0  0  0  0
  140.9564   80.2321  215.5500 H   0  0  0  0  0  0  0  0  0  0  0  0
  142.1730   80.5710  217.3370 C   0  0  0  0  0  0  0  0  0  0  0  0
  142.4623   81.4746  216.7804 H   0  0  0  0  0  0  0  0  0  0  0  0
  143.0804   80.0043  217.5930 H   0  0  0  0  0  0  0  0  0  0  0  0
  141.4580   80.9520  218.5610 N   0  0  0  0  0  0  0  0  0  0  0  0
  141.8490   80.3950  219.3590 H   0  0  0  0  0  0  0  0  0  0  0  0
  140.0640   80.5500  218.3760 C   0  0  0  0  0  0  0  0  0  0  0  0
  139.4753   81.3984  217.9971 H   0  0  0  0  0  0  0  0  0  0  0  0
  139.6234   80.2265  219.3306 H   0  0  0  0  0  0  0  0  0  0  0  0
  140.0480   79.4180  217.3690 C   0  0  0  0  0  0  0  0  0  0  0  0
  139.1135   79.4235  216.7888 H   0  0  0  0  0  0  0  0  0  0  0  0
  140.1043   78.4272  217.8436 H   0  0  0  0  0  0  0  0  0  0  0  0
  143.5280   76.3590  218.2970 N   0  0  0  0  0  0  0  0  0  0  0  0
  143.3630   75.8110  219.5270 C   0  0  0  0  0  0  0  0  0  0  0  0
  143.9300   74.5270  219.8220 N   0  0  0  0  0  0  0  0  0  0  0  0
  143.0640   73.3470  219.8470 C   0  0  0  0  0  0  0  0  0  0  0  0
  142.6305   73.2329  220.8515 H   0  0  0  0  0  0  0  0  0  0  0  0
  142.2581   73.4710  219.1087 H   0  0  0  0  0  0  0  0  0  0  0  0
  143.8830   72.0970  219.5000 C   0  0  0  0  0  0  0  0  0  0  0  0
  143.2586   71.2043  219.6524 H   0  0  0  0  0  0  0  0  0  0  0  0
  144.2037   72.1691  218.4503 H   0  0  0  0  0  0  0  0  0  0  0  0
  145.0810   71.9970  220.3500 N   0  0  0  0  0  0  0  0  0  0  0  0
  145.6250   71.1520  220.0580 H   0  0  0  0  0  0  0  0  0  0  0  0
  144.8040   71.8790  221.3510 H   0  0  0  0  0  0  0  0  0  0  0  0
  145.9480   73.1760  220.2010 C   0  0  0  0  0  0  0  0  0  0  0  0
  146.8167   73.0698  220.8674 H   0  0  0  0  0  0  0  0  0  0  0  0
  146.2717   73.2416  219.1517 H   0  0  0  0  0  0  0  0  0  0  0  0
  145.1960   74.4620  220.5600 C   0  0  0  0  0  0  0  0  0  0  0  0
  144.9887   74.4730  221.6402 H   0  0  0  0  0  0  0  0  0  0  0  0
  145.8159   75.3295  220.2896 H   0  0  0  0  0  0  0  0  0  0  0  0
  142.6400   76.4760  220.4680 N   0  0  0  0  0  0  0  0  0  0  0  0
  142.5200   76.0680  221.4220 H   0  0  0  0  0  0  0  0  0  0  0  0
  141.8200   79.6610  221.6620 C   0  0  0  0  0  0  0  0  0  0  0  0
  141.4750   80.4721  221.0039 H   0  0  0  0  0  0  0  0  0  0  0  0
  142.9194   79.6298  221.6796 H   0  0  0  0  0  0  0  0  0  0  0  0
  141.3100   79.9110  223.0770 C   0  0  0  0  0  0  0  0  0  0  0  0
  141.6135   80.9174  223.4010 H   0  0  0  0  0  0  0  0  0  0  0  0
  141.7377   79.1563  223.7534 H   0  0  0  0  0  0  0  0  0  0  0  0
  1  2  1  0
  2  3  2  0
  3  4  1  0
  3  5  1  0
  5  6  1  0
  5  7  2  0
  7  8  1  0
  8  9  2  0
  9 10  1  0
  8 11  1  0
 11 12  1  0
 11 13  1  0
 11 14  1  0
 14 15  1  0
 15 16  2  0
 16 17  1  0
 17 18  2  0
 18 19  1  0
 18 20  1  0
 20 21  1  0
 20 22  1  0
 20 23  1  0
 23 24  1  6
 23 25  1  0
 25 26  1  0
 25 27  1  0
 25 28  1  0
 28 29  1  0
 28 30  1  0
 30 31  1  0
 30 32  1  0
 30 33  1  0
 33 34  1  0
 33 35  1  0
 17 36  1  0
 36 37  2  0
 37 38  1  0
 38 39  1  0
 39 40  1  0
 39 41  1  0
 39 42  1  0
 42 43  1  0
 42 44  1  0
 42 45  1  0
 45 46  1  0
 45 47  1  0
 45 48  1  0
 48 49  1  0
 48 50  1  0
 48 51  1  0
 51 52  1  0
 51 53  1  0
 37 54  1  0
 54 55  1  0
 14 56  1  0
 56 57  1  0
 56 58  1  0
 56 59  1  0
 59 60  1  0
 59 61  1  0
  9  2  1  0
 54 15  1  0
 59  7  1  0
 33 23  1  0
 51 38  1  0
M  CHG  2  18   1  45   1
M  END
>  <UniqueID>  (37) 
578

>  <SMILES>  (37) 
c1ccc2c(c1)CCN(c1n/c(=[NH+]/C[C@H]3CCNC3)nc(N3CC[NH2+]CC3)[nH]1)C2

>  <Energy>  (37) 
72.33460781501547

>  <Genealogy>  (37) 
c1ccc2c(c1)CCN(c1nc([NH2+]CC3CCNC3)nc(N3CC[NH2+]CC3)n1)C2 (protonated)
c1ccc2c(c1)CCN(c1nc(=[NH+]CC3CCNC3)nc(N3CC[NH2+]CC3)[nH]1)C2 (tautomer)
c1ccc2c(c1)CCN(c1nc(=[NH+]C[C@H]3CCNC3)nc(N3CC[NH2+]CC3)[nH]1)C2 (chirality)
c1ccc2c(c1)CCN(c1n/c(=[NH+]/C[C@H]3CCNC3)nc(N3CC[NH2+]CC3)[nH]1)C2 (cis-trans isomerization)
c1ccc2c(c1)CCN(c1n/c(=[NH+]/C[C@H]3CCNC3)nc(N3CC[NH2+]CC3)[nH]1)C2 (3D coordinates assigned)
c1ccc2c(c1)CCN(c1n/c(=[NH+]/C[C@H]3CCNC3)nc(N3CC[NH2+]CC3)[nH]1)C2 (nonaromatic ring conformer: 72.33460781501547 kcal/mol)

>  <smiles>  (37) 
c1ccc2c(c1)CCN(c1nc(NCC3CCNC3)nc(N3CCNCC3)n1)C2

>  <score_type>  (37) 
oracle

>  <origin>  (37) 
autodockgpu

>  <m_score__min__energy>  (37) 
-8.1799999999999997

>  <m_primary>  (37) 
energy

>  <meeko>  (37) 
{"free_energy": -6.67, "intermolecular_energy": -8.16, "internal_energy": -1.1, "cluster_size": 1, "cluster_id": 7, "rank_in_cluster": 1}

>  <energy>  (37) 
-7.69

>  <cluster_rmsd>  (37) 
0.0

>  <rmsd>  (37) 
270.98

>  <cluster>  (37) 
5

$$$$
RHAOACRWGXEIGT-JWZPSYEVNA-P
     RDKit          3D

 61 65  0  0  0  0  0  0  0  0999 V2000
  141.3349   68.4142  228.1848 H   0  0  0  0  0  0  0  0  0  0  0  0
  140.7970   68.6390  227.2520 C   0  0  0  0  0  0  0  0  0  0  0  0
  139.9310   67.6930  226.7020 C   0  0  0  0  0  0  0  0  0  0  0  0
  139.7844   66.7246  227.2028 H   0  0  0  0  0  0  0  0  0  0  0  0
  139.2500   67.9760  225.5150 C   0  0  0  0  0  0  0  0  0  0  0  0
  138.5570   67.2346  225.0907 H   0  0  0  0  0  0  0  0  0  0  0  0
  139.4470   69.2030  224.8620 C   0  0  0  0  0  0  0  0  0  0  0  0
  140.3160   70.1620  225.4180 C   0  0  0  0  0  0  0  0  0  0  0  0
  140.9820   69.8710  226.6200 C   0  0  0  0  0  0  0  0  0  0  0  0
  141.6540   70.6185  227.0668 H   0  0  0  0  0  0  0  0  0  0  0  0
  140.4950   71.5180  224.7730 C   0  0  0  0  0  0  0  0  0  0  0  0
  141.5586   71.7935  224.8258 H   0  0  0  0  0  0  0  0  0  0  0  0
  139.8587   72.2290  225.3203 H   0  0  0  0  0  0  0  0  0  0  0  0
  140.0730   71.5450  223.3630 N   0  0  0  0  0  0  0  0  0  0  0  0
  140.3780   72.7060  222.5860 C   0  0  0  0  0  0  0  0  0  0  0  0
  139.6170   73.8220  222.7160 N   0  0  0  0  0  0  0  0  0  0  0  0
  139.8820   74.9240  221.9680 C   0  0  0  0  0  0  0  0  0  0  0  0
  139.1190   75.9760  222.0680 N   0  0  0  0  0  0  0  0  0  0  0  0
  138.1570   75.8590  222.4640 H   0  0  0  0  0  0  0  0  0  0  0  0
  139.5460   77.3060  221.6140 C   0  0  0  0  0  0  0  0  0  0  0  0
  139.9614   77.2213  220.5990 H   0  0  0  0  0  0  0  0  0  0  0  0
  138.6708   77.9723  221.6235 H   0  0  0  0  0  0  0  0  0  0  0  0
  140.6180   77.9010  222.5460 C   0  0  2  0  0  0  0  0  0  0  0  0
  140.9591   77.0402  223.1399 H   0  0  0  0  0  0  0  0  0  0  0  0
  140.0760   79.0190  223.4480 C   0  0  0  0  0  0  0  0  0  0  0  0
  140.0207   78.6627  224.4872 H   0  0  0  0  0  0  0  0  0  0  0  0
  139.0687   79.3129  223.1180 H   0  0  0  0  0  0  0  0  0  0  0  0
  140.9860   80.1690  223.3670 N   0  0  0  0  0  0  0  0  0  0  0  0
  140.5230   80.9160  222.7950 H   0  0  0  0  0  0  0  0  0  0  0  0
  142.1700   79.7160  222.6370 C   0  0  0  0  0  0  0  0  0  0  0  0
  142.9475   79.3938  223.3452 H   0  0  0  0  0  0  0  0  0  0  0  0
  142.5818   80.5303  222.0227 H   0  0  0  0  0  0  0  0  0  0  0  0
  141.7490   78.5510  221.7660 C   0  0  0  0  0  0  0  0  0  0  0  0
  142.5822   77.8468  221.6248 H   0  0  0  0  0  0  0  0  0  0  0  0
  141.4428   78.8647  220.7571 H   0  0  0  0  0  0  0  0  0  0  0  0
  140.9250   74.9020  221.0950 N   0  0  0  0  0  0  0  0  0  0  0  0
  141.6850   73.7860  220.9520 C   0  0  0  0  0  0  0  0  0  0  0  0
  142.7570   73.7660  220.0000 N   0  0  0  0  0  0  0  0  0  0  0  0
  142.4880   74.1250  218.6060 C   0  0  0  0  0  0  0  0  0  0  0  0
  142.1645   73.2303  218.0539 H   0  0  0  0  0  0  0  0  0  0  0  0
  141.6950   74.8866  218.5725 H   0  0  0  0  0  0  0  0  0  0  0  0
  143.7620   74.6890  217.9620 C   0  0  0  0  0  0  0  0  0  0  0  0
  143.5888   74.8286  216.8847 H   0  0  0  0  0  0  0  0  0  0  0  0
  144.0012   75.6494  218.4420 H   0  0  0  0  0  0  0  0  0  0  0  0
  144.9000   73.7740  218.1520 N   0  0  0  0  0  0  0  0  0  0  0  0
  145.7510   74.2110  217.7280 H   0  0  0  0  0  0  0  0  0  0  0  0
  144.7190   72.8680  217.6640 H   0  0  0  0  0  0  0  0  0  0  0  0
  145.1680   73.5340  219.5790 C   0  0  0  0  0  0  0  0  0  0  0  0
  146.0079   72.8299  219.6734 H   0  0  0  0  0  0  0  0  0  0  0  0
  145.4138   74.4947  220.0550 H   0  0  0  0  0  0  0  0  0  0  0  0
  143.9390   72.9440  220.2790 C   0  0  0  0  0  0  0  0  0  0  0  0
  143.7664   71.9219  219.9110 H   0  0  0  0  0  0  0  0  0  0  0  0
  144.1169   72.9260  221.3644 H   0  0  0  0  0  0  0  0  0  0  0  0
  141.4080   72.6840  221.6990 N   0  0  0  0  0  0  0  0  0  0  0  0
  141.9960   71.8260  221.6050 H   0  0  0  0  0  0  0  0  0  0  0  0
  139.5750   70.3530  222.6690 C   0  0  0  0  0  0  0  0  0  0  0  0
  140.4287   69.7446  222.3359 H   0  0  0  0  0  0  0  0  0  0  0  0
  138.9750   70.6694  221.8031 H   0  0  0  0  0  0  0  0  0  0  0  0
  138.6980   69.5210  223.6010 C   0  0  0  0  0  0  0  0  0  0  0  0
  138.4178   68.5840  223.0975 H   0  0  0  0  0  0  0  0  0  0  0  0
  137.7934   70.0940  223.8529 H   0  0  0  0  0  0  0  0  0  0  0  0
  1  2  1  0
  2  3  2  0
  3  4  1  0
  3  5  1  0
  5  6  1  0
  5  7  2  0
  7  8  1  0
  8  9  2  0
  9 10  1  0
  8 11  1  0
 11 12  1  0
 11 13  1  0
 11 14  1  0
 14 15  1  0
 15 16  2  0
 16 17  1  0
 17 18  2  0
 18 19  1  0
 18 20  1  0
 20 21  1  0
 20 22  1  0
 20 23  1  0
 23 24  1  1
 23 25  1  0
 25 26  1  0
 25 27  1  0
 25 28  1  0
 28 29  1  0
 28 30  1  0
 30 31  1  0
 30 32  1  0
 30 33  1  0
 33 34  1  0
 33 35  1  0
 17 36  1  0
 36 37  2  0
 37 38  1  0
 38 39  1  0
 39 40  1  0
 39 41  1  0
 39 42  1  0
 42 43  1  0
 42 44  1  0
 42 45  1  0
 45 46  1  0
 45 47  1  0
 45 48  1  0
 48 49  1  0
 48 50  1  0
 48 51  1  0
 51 52  1  0
 51 53  1  0
 37 54  1  0
 54 55  1  0
 14 56  1  0
 56 57  1  0
 56 58  1  0
 56 59  1  0
 59 60  1  0
 59 61  1  0
  9  2  1  0
 54 15  1  0
 59  7  1  0
 33 23  1  0
 51 38  1  0
M  CHG  2  18   1  45   1
M  END
>  <UniqueID>  (38) 
578

>  <SMILES>  (38) 
c1ccc2c(c1)CCN(c1n/c(=[NH+]/C[C@H]3CCNC3)nc(N3CC[NH2+]CC3)[nH]1)C2

>  <Energy>  (38) 
72.33460781501547

>  <Genealogy>  (38) 
c1ccc2c(c1)CCN(c1nc([NH2+]CC3CCNC3)nc(N3CC[NH2+]CC3)n1)C2 (protonated)
c1ccc2c(c1)CCN(c1nc(=[NH+]CC3CCNC3)nc(N3CC[NH2+]CC3)[nH]1)C2 (tautomer)
c1ccc2c(c1)CCN(c1nc(=[NH+]C[C@H]3CCNC3)nc(N3CC[NH2+]CC3)[nH]1)C2 (chirality)
c1ccc2c(c1)CCN(c1n/c(=[NH+]/C[C@H]3CCNC3)nc(N3CC[NH2+]CC3)[nH]1)C2 (cis-trans isomerization)
c1ccc2c(c1)CCN(c1n/c(=[NH+]/C[C@H]3CCNC3)nc(N3CC[NH2+]CC3)[nH]1)C2 (3D coordinates assigned)
c1ccc2c(c1)CCN(c1n/c(=[NH+]/C[C@H]3CCNC3)nc(N3CC[NH2+]CC3)[nH]1)C2 (nonaromatic ring conformer: 72.33460781501547 kcal/mol)

>  <smiles>  (38) 
c1ccc2c(c1)CCN(c1nc(NCC3CCNC3)nc(N3CCNCC3)n1)C2

>  <score_type>  (38) 
oracle

>  <origin>  (38) 
autodockgpu

>  <m_score__min__energy>  (38) 
-8.1799999999999997

>  <m_primary>  (38) 
energy

>  <meeko>  (38) 
{"free_energy": -7.68, "intermolecular_energy": -9.17, "internal_energy": -0.18, "cluster_size": 2, "cluster_id": 5, "rank_in_cluster": 2}

>  <energy>  (38) 
-7.68

>  <cluster_rmsd>  (38) 
0.77

>  <rmsd>  (38) 
271.06

>  <cluster>  (38) 
5

$$$$
RHAOACRWGXEIGT-JWZPSYEVNA-P
     RDKit          3D

 61 65  0  0  0  0  0  0  0  0999 V2000
  141.6937   69.3690  228.6565 H   0  0  0  0  0  0  0  0  0  0  0  0
  141.0650   69.3240  227.7550 C   0  0  0  0  0  0  0  0  0  0  0  0
  140.3100   68.1810  227.4890 C   0  0  0  0  0  0  0  0  0  0  0  0
  140.3423   67.3271  228.1817 H   0  0  0  0  0  0  0  0  0  0  0  0
  139.5130   68.1210  226.3430 C   0  0  0  0  0  0  0  0  0  0  0  0
  138.9077   67.2246  226.1427 H   0  0  0  0  0  0  0  0  0  0  0  0
  139.4820   69.2010  225.4460 C   0  0  0  0  0  0  0  0  0  0  0  0
  140.2390   70.3580  225.7150 C   0  0  0  0  0  0  0  0  0  0  0  0
  141.0240   70.4110  226.8790 C   0  0  0  0  0  0  0  0  0  0  0  0
  141.6102   71.3147  227.1019 H   0  0  0  0  0  0  0  0  0  0  0  0
  140.1730   71.5620  224.8020 C   0  0  0  0  0  0  0  0  0  0  0  0
  141.1863   71.9762  224.6944 H   0  0  0  0  0  0  0  0  0  0  0  0
  139.4805   72.2840  225.2594 H   0  0  0  0  0  0  0  0  0  0  0  0
  139.6530   71.2410  223.4630 N   0  0  0  0  0  0  0  0  0  0  0  0
  139.7310   72.2450  222.4480 C   0  0  0  0  0  0  0  0  0  0  0  0
  140.8450   73.0120  222.3440 N   0  0  0  0  0  0  0  0  0  0  0  0
  140.9240   73.9850  221.3980 C   0  0  0  0  0  0  0  0  0  0  0  0
  141.9810   74.7440  221.3340 N   0  0  0  0  0  0  0  0  0  0  0  0
  142.1790   75.3940  222.1300 H   0  0  0  0  0  0  0  0  0  0  0  0
  142.8820   74.7440  220.1730 C   0  0  0  0  0  0  0  0  0  0  0  0
  142.2815   74.8133  219.2540 H   0  0  0  0  0  0  0  0  0  0  0  0
  143.5608   75.6050  220.2616 H   0  0  0  0  0  0  0  0  0  0  0  0
  143.7310   73.4610  220.1210 C   0  0  2  0  0  0  0  0  0  0  0  0
  143.2847   72.8170  220.8931 H   0  0  0  0  0  0  0  0  0  0  0  0
  145.2200   73.7140  220.4000 C   0  0  0  0  0  0  0  0  0  0  0  0
  145.4866   73.3061  221.3862 H   0  0  0  0  0  0  0  0  0  0  0  0
  145.4248   74.7947  220.3938 H   0  0  0  0  0  0  0  0  0  0  0  0
  146.0120   73.0480  219.3590 N   0  0  0  0  0  0  0  0  0  0  0  0
  146.3920   73.7820  218.7130 H   0  0  0  0  0  0  0  0  0  0  0  0
  145.0840   72.2160  218.5930 C   0  0  0  0  0  0  0  0  0  0  0  0
  145.0893   71.1883  218.9851 H   0  0  0  0  0  0  0  0  0  0  0  0
  145.3788   72.1801  217.5339 H   0  0  0  0  0  0  0  0  0  0  0  0
  143.7030   72.8200  218.7430 C   0  0  0  0  0  0  0  0  0  0  0  0
  142.9276   72.0416  218.6893 H   0  0  0  0  0  0  0  0  0  0  0  0
  143.4663   73.5397  217.9455 H   0  0  0  0  0  0  0  0  0  0  0  0
  139.8770   74.1760  220.5510 N   0  0  0  0  0  0  0  0  0  0  0  0
  138.7540   73.4210  220.6560 C   0  0  0  0  0  0  0  0  0  0  0  0
  137.6440   73.6600  219.7800 N   0  0  0  0  0  0  0  0  0  0  0  0
  137.8000   73.4260  218.3420 C   0  0  0  0  0  0  0  0  0  0  0  0
  138.1958   74.3343  217.8642 H   0  0  0  0  0  0  0  0  0  0  0  0
  138.4981   72.5911  218.1817 H   0  0  0  0  0  0  0  0  0  0  0  0
  136.4390   73.0770  217.7260 C   0  0  0  0  0  0  0  0  0  0  0  0
  136.5402   73.0354  216.6315 H   0  0  0  0  0  0  0  0  0  0  0  0
  136.1160   72.1029  218.1219 H   0  0  0  0  0  0  0  0  0  0  0  0
  135.4240   74.0840  218.0770 N   0  0  0  0  0  0  0  0  0  0  0  0
  134.5080   73.7900  217.6650 H   0  0  0  0  0  0  0  0  0  0  0  0
  135.6830   75.0120  217.6730 H   0  0  0  0  0  0  0  0  0  0  0  0
  135.2580   74.1950  219.5350 C   0  0  0  0  0  0  0  0  0  0  0  0
  134.5093   74.9708  219.7533 H   0  0  0  0  0  0  0  0  0  0  0  0
  134.9295   73.2201  219.9244 H   0  0  0  0  0  0  0  0  0  0  0  0
  136.5800   74.5700  220.2140 C   0  0  0  0  0  0  0  0  0  0  0  0
  136.8494   75.6012  219.9417 H   0  0  0  0  0  0  0  0  0  0  0  0
  136.4603   74.4905  221.3046 H   0  0  0  0  0  0  0  0  0  0  0  0
  138.6810   72.4540  221.6100 N   0  0  0  0  0  0  0  0  0  0  0  0
  137.8260   71.8590  221.6890 H   0  0  0  0  0  0  0  0  0  0  0  0
  139.2870   69.8770  223.0690 C   0  0  0  0  0  0  0  0  0  0  0  0
  140.1950   69.3274  222.7800 H   0  0  0  0  0  0  0  0  0  0  0  0
  138.5884   69.9264  222.2207 H   0  0  0  0  0  0  0  0  0  0  0  0
  138.6080   69.1520  224.2270 C   0  0  0  0  0  0  0  0  0  0  0  0
  138.4319   68.1029  223.9469 H   0  0  0  0  0  0  0  0  0  0  0  0
  137.6499   69.6445  224.4495 H   0  0  0  0  0  0  0  0  0  0  0  0
  1  2  1  0
  2  3  2  0
  3  4  1  0
  3  5  1  0
  5  6  1  0
  5  7  2  0
  7  8  1  0
  8  9  2  0
  9 10  1  0
  8 11  1  0
 11 12  1  0
 11 13  1  0
 11 14  1  0
 14 15  1  0
 15 16  2  0
 16 17  1  0
 17 18  2  0
 18 19  1  0
 18 20  1  0
 20 21  1  0
 20 22  1  0
 20 23  1  0
 23 24  1  1
 23 25  1  0
 25 26  1  0
 25 27  1  0
 25 28  1  0
 28 29  1  0
 28 30  1  0
 30 31  1  0
 30 32  1  0
 30 33  1  0
 33 34  1  0
 33 35  1  0
 17 36  1  0
 36 37  2  0
 37 38  1  0
 38 39  1  0
 39 40  1  0
 39 41  1  0
 39 42  1  0
 42 43  1  0
 42 44  1  0
 42 45  1  0
 45 46  1  0
 45 47  1  0
 45 48  1  0
 48 49  1  0
 48 50  1  0
 48 51  1  0
 51 52  1  0
 51 53  1  0
 37 54  1  0
 54 55  1  0
 14 56  1  0
 56 57  1  0
 56 58  1  0
 56 59  1  0
 59 60  1  0
 59 61  1  0
  9  2  1  0
 54 15  1  0
 59  7  1  0
 33 23  1  0
 51 38  1  0
M  CHG  2  18   1  45   1
M  END
>  <UniqueID>  (39) 
578

>  <SMILES>  (39) 
c1ccc2c(c1)CCN(c1n/c(=[NH+]/C[C@H]3CCNC3)nc(N3CC[NH2+]CC3)[nH]1)C2

>  <Energy>  (39) 
72.33460781501547

>  <Genealogy>  (39) 
c1ccc2c(c1)CCN(c1nc([NH2+]CC3CCNC3)nc(N3CC[NH2+]CC3)n1)C2 (protonated)
c1ccc2c(c1)CCN(c1nc(=[NH+]CC3CCNC3)nc(N3CC[NH2+]CC3)[nH]1)C2 (tautomer)
c1ccc2c(c1)CCN(c1nc(=[NH+]C[C@H]3CCNC3)nc(N3CC[NH2+]CC3)[nH]1)C2 (chirality)
c1ccc2c(c1)CCN(c1n/c(=[NH+]/C[C@H]3CCNC3)nc(N3CC[NH2+]CC3)[nH]1)C2 (cis-trans isomerization)
c1ccc2c(c1)CCN(c1n/c(=[NH+]/C[C@H]3CCNC3)nc(N3CC[NH2+]CC3)[nH]1)C2 (3D coordinates assigned)
c1ccc2c(c1)CCN(c1n/c(=[NH+]/C[C@H]3CCNC3)nc(N3CC[NH2+]CC3)[nH]1)C2 (nonaromatic ring conformer: 72.33460781501547 kcal/mol)

>  <smiles>  (39) 
c1ccc2c(c1)CCN(c1nc(NCC3CCNC3)nc(N3CCNCC3)n1)C2

>  <score_type>  (39) 
oracle

>  <origin>  (39) 
autodockgpu

>  <m_score__min__energy>  (39) 
-8.1799999999999997

>  <m_primary>  (39) 
energy

>  <meeko>  (39) 
{"free_energy": -7.77, "intermolecular_energy": -9.26, "internal_energy": -0.19, "cluster_size": 4, "cluster_id": 1, "rank_in_cluster": 4}

>  <energy>  (39) 
-6.9

>  <cluster_rmsd>  (39) 
0.0

>  <rmsd>  (39) 
270.45

>  <cluster>  (39) 
6

$$$$
RHAOACRWGXEIGT-JWZPSYEVNA-P
     RDKit          3D

 61 65  0  0  0  0  0  0  0  0999 V2000
  141.6173   68.6006  228.1547 H   0  0  0  0  0  0  0  0  0  0  0  0
  141.0290   68.7420  227.2360 C   0  0  0  0  0  0  0  0  0  0  0  0
  140.2680   67.6880  226.7270 C   0  0  0  0  0  0  0  0  0  0  0  0
  140.2552   66.7182  227.2459 H   0  0  0  0  0  0  0  0  0  0  0  0
  139.5230   67.8650  225.5590 C   0  0  0  0  0  0  0  0  0  0  0  0
  138.9129   67.0377  225.1674 H   0  0  0  0  0  0  0  0  0  0  0  0
  139.5500   69.0950  224.8830 C   0  0  0  0  0  0  0  0  0  0  0  0
  140.3120   70.1630  225.3970 C   0  0  0  0  0  0  0  0  0  0  0  0
  141.0450   69.9760  226.5810 C   0  0  0  0  0  0  0  0  0  0  0  0
  141.6354   70.8067  226.9950 H   0  0  0  0  0  0  0  0  0  0  0  0
  140.3060   71.5180  224.7270 C   0  0  0  0  0  0  0  0  0  0  0  0
  141.3296   71.9206  224.7419 H   0  0  0  0  0  0  0  0  0  0  0  0
  139.6045   72.1565  225.2839 H   0  0  0  0  0  0  0  0  0  0  0  0
  139.8420   71.4690  223.3310 N   0  0  0  0  0  0  0  0  0  0  0  0
  139.9820   72.6440  222.5290 C   0  0  0  0  0  0  0  0  0  0  0  0
  141.1930   72.9630  222.0070 N   0  0  0  0  0  0  0  0  0  0  0  0
  141.3440   74.0880  221.2620 C   0  0  0  0  0  0  0  0  0  0  0  0
  142.5210   74.4090  220.8010 N   0  0  0  0  0  0  0  0  0  0  0  0
  143.2170   74.8340  221.4580 H   0  0  0  0  0  0  0  0  0  0  0  0
  142.8910   74.2260  219.3920 C   0  0  0  0  0  0  0  0  0  0  0  0
  142.3855   73.3298  219.0030 H   0  0  0  0  0  0  0  0  0  0  0  0
  142.5820   75.1223  218.8342 H   0  0  0  0  0  0  0  0  0  0  0  0
  144.4130   74.0540  219.2270 C   0  0  2  0  0  0  0  0  0  0  0  0
  144.6707   74.7443  218.4103 H   0  0  0  0  0  0  0  0  0  0  0  0
  144.8210   72.6130  218.8870 C   0  0  0  0  0  0  0  0  0  0  0  0
  145.1608   72.5607  217.8421 H   0  0  0  0  0  0  0  0  0  0  0  0
  143.9617   71.9385  219.0162 H   0  0  0  0  0  0  0  0  0  0  0  0
  145.9130   72.2120  219.7830 N   0  0  0  0  0  0  0  0  0  0  0  0
  145.5290   71.5390  220.4900 H   0  0  0  0  0  0  0  0  0  0  0  0
  146.3370   73.4170  220.4950 C   0  0  0  0  0  0  0  0  0  0  0  0
  147.1890   73.8803  219.9759 H   0  0  0  0  0  0  0  0  0  0  0  0
  146.6530   73.1717  221.5197 H   0  0  0  0  0  0  0  0  0  0  0  0
  145.1600   74.3710  220.5120 C   0  0  0  0  0  0  0  0  0  0  0  0
  145.5034   75.4160  220.5173 H   0  0  0  0  0  0  0  0  0  0  0  0
  144.5320   74.2535  221.4074 H   0  0  0  0  0  0  0  0  0  0  0  0
  140.2670   74.8880  221.0360 N   0  0  0  0  0  0  0  0  0  0  0  0
  139.0550   74.5820  221.5630 C   0  0  0  0  0  0  0  0  0  0  0  0
  137.9380   75.4550  221.3470 N   0  0  0  0  0  0  0  0  0  0  0  0
  137.4410   75.6640  219.9860 C   0  0  0  0  0  0  0  0  0  0  0  0
  137.9987   76.4872  219.5155 H   0  0  0  0  0  0  0  0  0  0  0  0
  137.5800   74.7423  219.4019 H   0  0  0  0  0  0  0  0  0  0  0  0
  135.9490   76.0180  220.0290 C   0  0  0  0  0  0  0  0  0  0  0  0
  135.6183   76.3037  219.0195 H   0  0  0  0  0  0  0  0  0  0  0  0
  135.3915   75.1388  220.3842 H   0  0  0  0  0  0  0  0  0  0  0  0
  135.6960   77.1360  220.9520 N   0  0  0  0  0  0  0  0  0  0  0  0
  134.6670   77.3220  220.9750 H   0  0  0  0  0  0  0  0  0  0  0  0
  136.1780   78.0000  220.6120 H   0  0  0  0  0  0  0  0  0  0  0  0
  136.1370   76.8170  222.3190 C   0  0  0  0  0  0  0  0  0  0  0  0
  135.9511   77.6853  222.9682 H   0  0  0  0  0  0  0  0  0  0  0  0
  135.5725   75.9417  222.6728 H   0  0  0  0  0  0  0  0  0  0  0  0
  137.6320   76.4780  222.3520 C   0  0  0  0  0  0  0  0  0  0  0  0
  138.2158   77.3852  222.1374 H   0  0  0  0  0  0  0  0  0  0  0  0
  137.8924   76.0931  223.3490 H   0  0  0  0  0  0  0  0  0  0  0  0
  138.9130   73.4570  222.3140 N   0  0  0  0  0  0  0  0  0  0  0  0
  137.9800   73.2060  222.7130 H   0  0  0  0  0  0  0  0  0  0  0  0
  139.4720   70.2130  222.6710 C   0  0  0  0  0  0  0  0  0  0  0  0
  140.3831   69.7065  222.3199 H   0  0  0  0  0  0  0  0  0  0  0  0
  138.8121   70.4390  221.8204 H   0  0  0  0  0  0  0  0  0  0  0  0
  138.7310   69.2980  223.6410 C   0  0  0  0  0  0  0  0  0  0  0  0
  138.5521   68.3252  223.1596 H   0  0  0  0  0  0  0  0  0  0  0  0
  137.7714   69.7617  223.9131 H   0  0  0  0  0  0  0  0  0  0  0  0
  1  2  1  0
  2  3  2  0
  3  4  1  0
  3  5  1  0
  5  6  1  0
  5  7  2  0
  7  8  1  0
  8  9  2  0
  9 10  1  0
  8 11  1  0
 11 12  1  0
 11 13  1  0
 11 14  1  0
 14 15  1  0
 15 16  2  0
 16 17  1  0
 17 18  2  0
 18 19  1  0
 18 20  1  0
 20 21  1  0
 20 22  1  0
 20 23  1  0
 23 24  1  6
 23 25  1  0
 25 26  1  0
 25 27  1  0
 25 28  1  0
 28 29  1  0
 28 30  1  0
 30 31  1  0
 30 32  1  0
 30 33  1  0
 33 34  1  0
 33 35  1  0
 17 36  1  0
 36 37  2  0
 37 38  1  0
 38 39  1  0
 39 40  1  0
 39 41  1  0
 39 42  1  0
 42 43  1  0
 42 44  1  0
 42 45  1  0
 45 46  1  0
 45 47  1  0
 45 48  1  0
 48 49  1  0
 48 50  1  0
 48 51  1  0
 51 52  1  0
 51 53  1  0
 37 54  1  0
 54 55  1  0
 14 56  1  0
 56 57  1  0
 56 58  1  0
 56 59  1  0
 59 60  1  0
 59 61  1  0
  9  2  1  0
 54 15  1  0
 59  7  1  0
 33 23  1  0
 51 38  1  0
M  CHG  2  18   1  45   1
M  END
>  <UniqueID>  (40) 
578

>  <SMILES>  (40) 
c1ccc2c(c1)CCN(c1n/c(=[NH+]/C[C@H]3CCNC3)nc(N3CC[NH2+]CC3)[nH]1)C2

>  <Energy>  (40) 
72.33460781501547

>  <Genealogy>  (40) 
c1ccc2c(c1)CCN(c1nc([NH2+]CC3CCNC3)nc(N3CC[NH2+]CC3)n1)C2 (protonated)
c1ccc2c(c1)CCN(c1nc(=[NH+]CC3CCNC3)nc(N3CC[NH2+]CC3)[nH]1)C2 (tautomer)
c1ccc2c(c1)CCN(c1nc(=[NH+]C[C@H]3CCNC3)nc(N3CC[NH2+]CC3)[nH]1)C2 (chirality)
c1ccc2c(c1)CCN(c1n/c(=[NH+]/C[C@H]3CCNC3)nc(N3CC[NH2+]CC3)[nH]1)C2 (cis-trans isomerization)
c1ccc2c(c1)CCN(c1n/c(=[NH+]/C[C@H]3CCNC3)nc(N3CC[NH2+]CC3)[nH]1)C2 (3D coordinates assigned)
c1ccc2c(c1)CCN(c1n/c(=[NH+]/C[C@H]3CCNC3)nc(N3CC[NH2+]CC3)[nH]1)C2 (nonaromatic ring conformer: 72.33460781501547 kcal/mol)

>  <smiles>  (40) 
c1ccc2c(c1)CCN(c1nc(NCC3CCNC3)nc(N3CCNCC3)n1)C2

>  <score_type>  (40) 
oracle

>  <origin>  (40) 
autodockgpu

>  <m_score__min__energy>  (40) 
-8.1799999999999997

>  <m_primary>  (40) 
energy

>  <meeko>  (40) 
{"free_energy": -8.18, "intermolecular_energy": -9.67, "internal_energy": -0.08, "cluster_size": 4, "cluster_id": 1, "rank_in_cluster": 1}

>  <energy>  (40) 
-6.67

>  <cluster_rmsd>  (40) 
0.0

>  <rmsd>  (40) 
270.68

>  <cluster>  (40) 
7

$$$$
RHAOACRWGXEIGT-RBAGJBRXNA-P
     RDKit          3D

 61 65  0  0  0  0  0  0  0  0999 V2000
  144.9897   72.1868  221.5045 H   0  0  0  0  0  0  0  0  0  0  0  0
  144.7230   72.7780  220.6160 C   0  0  0  0  0  0  0  0  0  0  0  0
  144.7310   72.1810  219.3540 C   0  0  0  0  0  0  0  0  0  0  0  0
  145.0076   71.1215  219.2491 H   0  0  0  0  0  0  0  0  0  0  0  0
  144.3880   72.9280  218.2240 C   0  0  0  0  0  0  0  0  0  0  0  0
  144.4055   72.4585  217.2294 H   0  0  0  0  0  0  0  0  0  0  0  0
  144.0210   74.2770  218.3560 C   0  0  0  0  0  0  0  0  0  0  0  0
  144.0170   74.8820  219.6260 C   0  0  0  0  0  0  0  0  0  0  0  0
  144.3770   74.1250  220.7530 C   0  0  0  0  0  0  0  0  0  0  0  0
  144.3866   74.5944  221.7478 H   0  0  0  0  0  0  0  0  0  0  0  0
  143.6990   76.3500  219.7870 C   0  0  0  0  0  0  0  0  0  0  0  0
  144.6443   76.8991  219.9093 H   0  0  0  0  0  0  0  0  0  0  0  0
  143.0439   76.4435  220.6657 H   0  0  0  0  0  0  0  0  0  0  0  0
  142.9700   76.9260  218.6410 N   0  0  0  0  0  0  0  0  0  0  0  0
  142.4880   78.2820  218.7440 C   0  0  0  0  0  0  0  0  0  0  0  0
  142.7650   79.1820  217.7690 N   0  0  0  0  0  0  0  0  0  0  0  0
  142.3290   80.4650  217.8520 C   0  0  0  0  0  0  0  0  0  0  0  0
  142.6510   81.4010  216.7960 N   0  0  0  0  0  0  0  0  0  0  0  0
  141.8750   81.4220  215.5470 C   0  0  0  0  0  0  0  0  0  0  0  0
  141.2239   80.5360  215.5133 H   0  0  0  0  0  0  0  0  0  0  0  0
  141.2744   82.3433  215.5235 H   0  0  0  0  0  0  0  0  0  0  0  0
  142.8060   81.4110  214.3160 C   0  0  0  0  0  0  0  0  0  0  0  0
  142.9527   80.3674  214.0008 H   0  0  0  0  0  0  0  0  0  0  0  0
  142.3195   82.0193  213.5393 H   0  0  0  0  0  0  0  0  0  0  0  0
  144.1320   82.0130  214.5690 N   0  0  0  0  0  0  0  0  0  0  0  0
  144.4800   82.4540  213.6860 H   0  0  0  0  0  0  0  0  0  0  0  0
  144.8120   81.2620  214.8380 H   0  0  0  0  0  0  0  0  0  0  0  0
  144.1010   83.0330  215.6250 C   0  0  0  0  0  0  0  0  0  0  0  0
  145.0936   83.4995  215.7096 H   0  0  0  0  0  0  0  0  0  0  0  0
  143.3502   83.7947  215.3679 H   0  0  0  0  0  0  0  0  0  0  0  0
  143.7260   82.3910  216.9670 C   0  0  0  0  0  0  0  0  0  0  0  0
  144.6116   81.8914  217.3867 H   0  0  0  0  0  0  0  0  0  0  0  0
  143.3707   83.1803  217.6459 H   0  0  0  0  0  0  0  0  0  0  0  0
  141.6010   80.8520  218.9420 N   0  0  0  0  0  0  0  0  0  0  0  0
  141.2570   81.8330  219.0010 H   0  0  0  0  0  0  0  0  0  0  0  0
  141.3160   79.9540  219.9350 C   0  0  0  0  0  0  0  0  0  0  0  0
  140.6240   80.2880  220.9950 N   0  0  0  0  0  0  0  0  0  0  0  0
  139.8180   79.6760  221.2600 H   0  0  0  0  0  0  0  0  0  0  0  0
  140.9140   81.4520  221.8420 C   0  0  0  0  0  0  0  0  0  0  0  0
  141.5423   82.1575  221.2785 H   0  0  0  0  0  0  0  0  0  0  0  0
  139.9603   81.9210  222.1258 H   0  0  0  0  0  0  0  0  0  0  0  0
  141.6560   81.0370  223.1320 C   0  0  2  0  0  0  0  0  0  0  0  0
  141.6791   81.9517  223.7425 H   0  0  0  0  0  0  0  0  0  0  0  0
  143.0490   80.4860  222.8390 C   0  0  0  0  0  0  0  0  0  0  0  0
  143.7285   80.7294  223.6691 H   0  0  0  0  0  0  0  0  0  0  0  0
  143.4492   80.9321  221.9166 H   0  0  0  0  0  0  0  0  0  0  0  0
  142.9420   79.0340  222.6950 N   0  0  0  0  0  0  0  0  0  0  0  0
  142.9360   78.8060  221.6730 H   0  0  0  0  0  0  0  0  0  0  0  0
  141.6530   78.6330  223.2670 C   0  0  0  0  0  0  0  0  0  0  0  0
  141.8157   77.9062  224.0765 H   0  0  0  0  0  0  0  0  0  0  0  0
  141.0249   78.1665  222.4938 H   0  0  0  0  0  0  0  0  0  0  0  0
  140.9670   79.8730  223.8200 C   0  0  0  0  0  0  0  0  0  0  0  0
  141.0983   79.9347  224.9104 H   0  0  0  0  0  0  0  0  0  0  0  0
  139.8826   79.8646  223.6354 H   0  0  0  0  0  0  0  0  0  0  0  0
  141.7640   78.6770  219.8220 N   0  0  0  0  0  0  0  0  0  0  0  0
  142.5900   76.1030  217.4800 C   0  0  0  0  0  0  0  0  0  0  0  0
  142.4262   76.7585  216.6119 H   0  0  0  0  0  0  0  0  0  0  0  0
  141.6694   75.5531  217.7251 H   0  0  0  0  0  0  0  0  0  0  0  0
  143.6870   75.0940  217.1450 C   0  0  0  0  0  0  0  0  0  0  0  0
  144.5860   75.6317  216.8094 H   0  0  0  0  0  0  0  0  0  0  0  0
  143.3310   74.4263  216.3466 H   0  0  0  0  0  0  0  0  0  0  0  0
  1  2  1  0
  2  3  2  0
  3  4  1  0
  3  5  1  0
  5  6  1  0
  5  7  2  0
  7  8  1  0
  8  9  2  0
  9 10  1  0
  8 11  1  0
 11 12  1  0
 11 13  1  0
 11 14  1  0
 14 15  1  0
 15 16  1  0
 16 17  2  0
 17 18  1  0
 18 19  1  0
 19 20  1  0
 19 21  1  0
 19 22  1  0
 22 23  1  0
 22 24  1  0
 22 25  1  0
 25 26  1  0
 25 27  1  0
 25 28  1  0
 28 29  1  0
 28 30  1  0
 28 31  1  0
 31 32  1  0
 31 33  1  0
 17 34  1  0
 34 35  1  0
 34 36  1  0
 36 37  2  0
 37 38  1  0
 37 39  1  0
 39 40  1  0
 39 41  1  0
 39 42  1  0
 42 43  1  1
 42 44  1  0
 44 45  1  0
 44 46  1  0
 44 47  1  0
 47 48  1  0
 47 49  1  0
 49 50  1  0
 49 51  1  0
 49 52  1  0
 52 53  1  0
 52 54  1  0
 36 55  1  0
 14 56  1  0
 56 57  1  0
 56 58  1  0
 56 59  1  0
 59 60  1  0
 59 61  1  0
  9  2  1  0
 55 15  2  0
 59  7  1  0
 31 18  1  0
 52 42  1  0
M  CHG  2  25   1  37   1
M  END
>  <UniqueID>  (41) 
579

>  <SMILES>  (41) 
c1ccc2c(c1)CCN(c1nc(N3CC[NH2+]CC3)[nH]/c(=[NH+]\C[C@H]3CCNC3)n1)C2

>  <Energy>  (41) 
73.46349485923871

>  <Genealogy>  (41) 
c1ccc2c(c1)CCN(c1nc([NH2+]CC3CCNC3)nc(N3CC[NH2+]CC3)n1)C2 (protonated)
c1ccc2c(c1)CCN(c1nc(N3CC[NH2+]CC3)[nH]c(=[NH+]CC3CCNC3)n1)C2 (tautomer)
c1ccc2c(c1)CCN(c1nc(N3CC[NH2+]CC3)[nH]c(=[NH+]C[C@H]3CCNC3)n1)C2 (chirality)
c1ccc2c(c1)CCN(c1nc(N3CC[NH2+]CC3)[nH]/c(=[NH+]\C[C@H]3CCNC3)n1)C2 (cis-trans isomerization)
c1ccc2c(c1)CCN(c1nc(N3CC[NH2+]CC3)[nH]/c(=[NH+]\C[C@H]3CCNC3)n1)C2 (3D coordinates assigned)
c1ccc2c(c1)CCN(c1nc(N3CC[NH2+]CC3)[nH]/c(=[NH+]\C[C@H]3CCNC3)n1)C2 (nonaromatic ring conformer: 73.46349485923871 kcal/mol)

>  <smiles>  (41) 
c1ccc2c(c1)CCN(c1nc(NCC3CCNC3)nc(N3CCNCC3)n1)C2

>  <score_type>  (41) 
oracle

>  <origin>  (41) 
autodockgpu

>  <m_score__min__energy>  (41) 
-8.4900000000000002

>  <m_primary>  (41) 
energy

>  <meeko>  (41) 
{"free_energy": -8.19, "intermolecular_energy": -9.69, "internal_energy": -0.86, "cluster_size": 19, "cluster_id": 2, "rank_in_cluster": 9}

>  <energy>  (41) 
-8.49

>  <cluster_rmsd>  (41) 
0.0

>  <rmsd>  (41) 
269.65

>  <cluster>  (41) 
1

$$$$
RHAOACRWGXEIGT-RBAGJBRXNA-P
     RDKit          3D

 61 65  0  0  0  0  0  0  0  0999 V2000
  145.0253   72.2016  221.4445 H   0  0  0  0  0  0  0  0  0  0  0  0
  144.7440   72.7920  220.5600 C   0  0  0  0  0  0  0  0  0  0  0  0
  144.7330   72.1950  219.2980 C   0  0  0  0  0  0  0  0  0  0  0  0
  145.0099   71.1360  219.1893 H   0  0  0  0  0  0  0  0  0  0  0  0
  144.3710   72.9400  218.1730 C   0  0  0  0  0  0  0  0  0  0  0  0
  144.3726   72.4691  217.1789 H   0  0  0  0  0  0  0  0  0  0  0  0
  144.0050   74.2890  218.3090 C   0  0  0  0  0  0  0  0  0  0  0  0
  144.0200   74.8950  219.5790 C   0  0  0  0  0  0  0  0  0  0  0  0
  144.3980   74.1390  220.7010 C   0  0  0  0  0  0  0  0  0  0  0  0
  144.4218   74.6092  221.6952 H   0  0  0  0  0  0  0  0  0  0  0  0
  143.7030   76.3630  219.7440 C   0  0  0  0  0  0  0  0  0  0  0  0
  144.6495   76.9133  219.8507 H   0  0  0  0  0  0  0  0  0  0  0  0
  143.0621   76.4567  220.6331 H   0  0  0  0  0  0  0  0  0  0  0  0
  142.9550   76.9370  218.6090 N   0  0  0  0  0  0  0  0  0  0  0  0
  142.4730   78.2920  218.7190 C   0  0  0  0  0  0  0  0  0  0  0  0
  142.7670   79.2030  217.7580 N   0  0  0  0  0  0  0  0  0  0  0  0
  142.3320   80.4850  217.8470 C   0  0  0  0  0  0  0  0  0  0  0  0
  142.6720   81.4320  216.8070 N   0  0  0  0  0  0  0  0  0  0  0  0
  141.8930   81.4930  215.5610 C   0  0  0  0  0  0  0  0  0  0  0  0
  141.2208   80.6235  215.5143 H   0  0  0  0  0  0  0  0  0  0  0  0
  141.3145   82.4286  215.5552 H   0  0  0  0  0  0  0  0  0  0  0  0
  142.8200   81.4810  214.3270 C   0  0  0  0  0  0  0  0  0  0  0  0
  142.9418   80.4397  213.9941 H   0  0  0  0  0  0  0  0  0  0  0  0
  142.3455   82.1131  213.5619 H   0  0  0  0  0  0  0  0  0  0  0  0
  144.1600   82.0480  214.5860 N   0  0  0  0  0  0  0  0  0  0  0  0
  144.5160   82.4970  213.7090 H   0  0  0  0  0  0  0  0  0  0  0  0
  144.8240   81.2780  214.8390 H   0  0  0  0  0  0  0  0  0  0  0  0
  144.1560   83.0510  215.6590 C   0  0  0  0  0  0  0  0  0  0  0  0
  145.1593   83.4930  215.7483 H   0  0  0  0  0  0  0  0  0  0  0  0
  143.4232   83.8351  215.4177 H   0  0  0  0  0  0  0  0  0  0  0  0
  143.7700   82.3930  216.9910 C   0  0  0  0  0  0  0  0  0  0  0  0
  144.6451   81.8653  217.3982 H   0  0  0  0  0  0  0  0  0  0  0  0
  143.4352   83.1781  217.6850 H   0  0  0  0  0  0  0  0  0  0  0  0
  141.5870   80.8620  218.9300 N   0  0  0  0  0  0  0  0  0  0  0  0
  141.2430   81.8430  218.9930 H   0  0  0  0  0  0  0  0  0  0  0  0
  141.2840   79.9530  219.9080 C   0  0  0  0  0  0  0  0  0  0  0  0
  140.5760   80.2770  220.9590 N   0  0  0  0  0  0  0  0  0  0  0  0
  139.7660   79.6620  221.2070 H   0  0  0  0  0  0  0  0  0  0  0  0
  140.8510   81.4330  221.8220 C   0  0  0  0  0  0  0  0  0  0  0  0
  141.4721   82.1530  221.2689 H   0  0  0  0  0  0  0  0  0  0  0  0
  139.8911   81.8865  222.1100 H   0  0  0  0  0  0  0  0  0  0  0  0
  141.5950   81.0110  223.1080 C   0  0  2  0  0  0  0  0  0  0  0  0
  141.5956   81.9146  223.7353 H   0  0  0  0  0  0  0  0  0  0  0  0
  143.0010   80.4940  222.8110 C   0  0  0  0  0  0  0  0  0  0  0  0
  143.6720   80.7370  223.6481 H   0  0  0  0  0  0  0  0  0  0  0  0
  143.3947   80.9645  221.8980 H   0  0  0  0  0  0  0  0  0  0  0  0
  142.9260   79.0430  222.6410 N   0  0  0  0  0  0  0  0  0  0  0  0
  142.9290   78.8340  221.6150 H   0  0  0  0  0  0  0  0  0  0  0  0
  141.6430   78.6050  223.1990 C   0  0  0  0  0  0  0  0  0  0  0  0
  141.8171   77.8671  223.9960 H   0  0  0  0  0  0  0  0  0  0  0  0
  141.0286   78.1399  222.4140 H   0  0  0  0  0  0  0  0  0  0  0  0
  140.9280   79.8200  223.7710 C   0  0  0  0  0  0  0  0  0  0  0  0
  141.0528   79.8644  224.8630 H   0  0  0  0  0  0  0  0  0  0  0  0
  139.8450   79.7919  223.5806 H   0  0  0  0  0  0  0  0  0  0  0  0
  141.7330   78.6780  219.7890 N   0  0  0  0  0  0  0  0  0  0  0  0
  142.5590   76.1130  217.4550 C   0  0  0  0  0  0  0  0  0  0  0  0
  142.3819   76.7678  216.5891 H   0  0  0  0  0  0  0  0  0  0  0  0
  141.6429   75.5623  217.7148 H   0  0  0  0  0  0  0  0  0  0  0  0
  143.6500   75.1050  217.1040 C   0  0  0  0  0  0  0  0  0  0  0  0
  144.5430   75.6430  216.7532 H   0  0  0  0  0  0  0  0  0  0  0  0
  143.2806   74.4361  216.3127 H   0  0  0  0  0  0  0  0  0  0  0  0
  1  2  1  0
  2  3  2  0
  3  4  1  0
  3  5  1  0
  5  6  1  0
  5  7  2  0
  7  8  1  0
  8  9  2  0
  9 10  1  0
  8 11  1  0
 11 12  1  0
 11 13  1  0
 11 14  1  0
 14 15  1  0
 15 16  1  0
 16 17  2  0
 17 18  1  0
 18 19  1  0
 19 20  1  0
 19 21  1  0
 19 22  1  0
 22 23  1  0
 22 24  1  0
 22 25  1  0
 25 26  1  0
 25 27  1  0
 25 28  1  0
 28 29  1  0
 28 30  1  0
 28 31  1  0
 31 32  1  0
 31 33  1  0
 17 34  1  0
 34 35  1  0
 34 36  1  0
 36 37  2  0
 37 38  1  0
 37 39  1  0
 39 40  1  0
 39 41  1  0
 39 42  1  0
 42 43  1  1
 42 44  1  0
 44 45  1  0
 44 46  1  0
 44 47  1  0
 47 48  1  0
 47 49  1  0
 49 50  1  0
 49 51  1  0
 49 52  1  0
 52 53  1  0
 52 54  1  0
 36 55  1  0
 14 56  1  0
 56 57  1  0
 56 58  1  0
 56 59  1  0
 59 60  1  0
 59 61  1  0
  9  2  1  0
 55 15  2  0
 59  7  1  0
 31 18  1  0
 52 42  1  0
M  CHG  2  25   1  37   1
M  END
>  <UniqueID>  (42) 
579

>  <SMILES>  (42) 
c1ccc2c(c1)CCN(c1nc(N3CC[NH2+]CC3)[nH]/c(=[NH+]\C[C@H]3CCNC3)n1)C2

>  <Energy>  (42) 
73.46349485923871

>  <Genealogy>  (42) 
c1ccc2c(c1)CCN(c1nc([NH2+]CC3CCNC3)nc(N3CC[NH2+]CC3)n1)C2 (protonated)
c1ccc2c(c1)CCN(c1nc(N3CC[NH2+]CC3)[nH]c(=[NH+]CC3CCNC3)n1)C2 (tautomer)
c1ccc2c(c1)CCN(c1nc(N3CC[NH2+]CC3)[nH]c(=[NH+]C[C@H]3CCNC3)n1)C2 (chirality)
c1ccc2c(c1)CCN(c1nc(N3CC[NH2+]CC3)[nH]/c(=[NH+]\C[C@H]3CCNC3)n1)C2 (cis-trans isomerization)
c1ccc2c(c1)CCN(c1nc(N3CC[NH2+]CC3)[nH]/c(=[NH+]\C[C@H]3CCNC3)n1)C2 (3D coordinates assigned)
c1ccc2c(c1)CCN(c1nc(N3CC[NH2+]CC3)[nH]/c(=[NH+]\C[C@H]3CCNC3)n1)C2 (nonaromatic ring conformer: 73.46349485923871 kcal/mol)

>  <smiles>  (42) 
c1ccc2c(c1)CCN(c1nc(NCC3CCNC3)nc(N3CCNCC3)n1)C2

>  <score_type>  (42) 
oracle

>  <origin>  (42) 
autodockgpu

>  <m_score__min__energy>  (42) 
-8.4900000000000002

>  <m_primary>  (42) 
energy

>  <meeko>  (42) 
{"free_energy": -8.19, "intermolecular_energy": -9.68, "internal_energy": -0.87, "cluster_size": 19, "cluster_id": 2, "rank_in_cluster": 11}

>  <energy>  (42) 
-8.35

>  <cluster_rmsd>  (42) 
0.0

>  <rmsd>  (42) 
270.25

>  <cluster>  (42) 
2

$$$$
RHAOACRWGXEIGT-RBAGJBRXNA-P
     RDKit          3D

 61 65  0  0  0  0  0  0  0  0999 V2000
  146.2864   72.6785  221.0668 H   0  0  0  0  0  0  0  0  0  0  0  0
  145.2800   73.0730  220.8630 C   0  0  0  0  0  0  0  0  0  0  0  0
  144.1590   72.2710  221.0830 C   0  0  0  0  0  0  0  0  0  0  0  0
  144.2839   71.2442  221.4573 H   0  0  0  0  0  0  0  0  0  0  0  0
  142.8790   72.7690  220.8290 C   0  0  0  0  0  0  0  0  0  0  0  0
  141.9985   72.1305  220.9933 H   0  0  0  0  0  0  0  0  0  0  0  0
  142.7150   74.0840  220.3640 C   0  0  0  0  0  0  0  0  0  0  0  0
  143.8420   74.8940  220.1370 C   0  0  0  0  0  0  0  0  0  0  0  0
  145.1250   74.3770  220.3840 C   0  0  0  0  0  0  0  0  0  0  0  0
  146.0116   75.0014  220.1995 H   0  0  0  0  0  0  0  0  0  0  0  0
  143.6990   76.2860  219.5660 C   0  0  0  0  0  0  0  0  0  0  0  0
  143.9385   76.2486  218.4930 H   0  0  0  0  0  0  0  0  0  0  0  0
  144.3875   76.9373  220.1244 H   0  0  0  0  0  0  0  0  0  0  0  0
  142.3440   76.8500  219.7230 N   0  0  0  0  0  0  0  0  0  0  0  0
  142.1260   78.2260  219.3450 C   0  0  0  0  0  0  0  0  0  0  0  0
  142.1190   78.5830  218.0370 N   0  0  0  0  0  0  0  0  0  0  0  0
  141.9260   79.8730  217.6610 C   0  0  0  0  0  0  0  0  0  0  0  0
  141.9330   80.2190  216.2560 N   0  0  0  0  0  0  0  0  0  0  0  0
  141.5820   79.2220  215.2340 C   0  0  0  0  0  0  0  0  0  0  0  0
  141.5337   78.2282  215.7030 H   0  0  0  0  0  0  0  0  0  0  0  0
  140.6075   79.4927  214.8014 H   0  0  0  0  0  0  0  0  0  0  0  0
  142.6310   79.1950  214.1020 C   0  0  0  0  0  0  0  0  0  0  0  0
  143.3806   78.4264  214.3415 H   0  0  0  0  0  0  0  0  0  0  0  0
  142.0910   78.9782  213.1685 H   0  0  0  0  0  0  0  0  0  0  0  0
  143.3290   80.4830  213.9080 N   0  0  0  0  0  0  0  0  0  0  0  0
  143.5820   80.5860  212.8980 H   0  0  0  0  0  0  0  0  0  0  0  0
  144.2200   80.4860  214.4600 H   0  0  0  0  0  0  0  0  0  0  0  0
  142.5130   81.6370  214.3080 C   0  0  0  0  0  0  0  0  0  0  0  0
  143.0509   82.5652  214.0648 H   0  0  0  0  0  0  0  0  0  0  0  0
  141.5560   81.6073  213.7665 H   0  0  0  0  0  0  0  0  0  0  0  0
  142.2390   81.5890  215.8180 C   0  0  0  0  0  0  0  0  0  0  0  0
  143.1284   81.9483  216.3563 H   0  0  0  0  0  0  0  0  0  0  0  0
  141.3710   82.2283  216.0366 H   0  0  0  0  0  0  0  0  0  0  0  0
  141.7390   80.8260  218.6220 N   0  0  0  0  0  0  0  0  0  0  0  0
  141.5790   81.8140  218.3340 H   0  0  0  0  0  0  0  0  0  0  0  0
  141.7450   80.4790  219.9470 C   0  0  0  0  0  0  0  0  0  0  0  0
  141.5720   81.3640  220.8960 N   0  0  0  0  0  0  0  0  0  0  0  0
  142.2210   82.1850  220.9170 H   0  0  0  0  0  0  0  0  0  0  0  0
  140.5220   81.2890  221.9190 C   0  0  0  0  0  0  0  0  0  0  0  0
  140.0124   82.2619  221.9811 H   0  0  0  0  0  0  0  0  0  0  0  0
  139.8151   80.4963  221.6328 H   0  0  0  0  0  0  0  0  0  0  0  0
  141.1100   80.9400  223.3040 C   0  0  2  0  0  0  0  0  0  0  0  0
  140.7451   81.7380  223.9673 H   0  0  0  0  0  0  0  0  0  0  0  0
  142.6340   80.8470  223.2710 C   0  0  0  0  0  0  0  0  0  0  0  0
  143.0480   81.1651  224.2392 H   0  0  0  0  0  0  0  0  0  0  0  0
  143.0388   81.5013  222.4849 H   0  0  0  0  0  0  0  0  0  0  0  0
  142.9990   79.4540  223.0090 N   0  0  0  0  0  0  0  0  0  0  0  0
  143.2450   79.3660  221.9950 H   0  0  0  0  0  0  0  0  0  0  0  0
  141.8100   78.6360  223.2690 C   0  0  0  0  0  0  0  0  0  0  0  0
  142.0364   77.8867  224.0419 H   0  0  0  0  0  0  0  0  0  0  0  0
  141.5016   78.1152  222.3505 H   0  0  0  0  0  0  0  0  0  0  0  0
  140.6940   79.5500  223.7510 C   0  0  0  0  0  0  0  0  0  0  0  0
  140.6033   79.5063  224.8464 H   0  0  0  0  0  0  0  0  0  0  0  0
  139.7144   79.2590  223.3440 H   0  0  0  0  0  0  0  0  0  0  0  0
  141.9400   79.1810  220.2910 N   0  0  0  0  0  0  0  0  0  0  0  0
  141.2720   76.1000  220.3970 C   0  0  0  0  0  0  0  0  0  0  0  0
  140.2977   76.4950  220.0733 H   0  0  0  0  0  0  0  0  0  0  0  0
  141.3917   76.2163  221.4843 H   0  0  0  0  0  0  0  0  0  0  0  0
  141.3480   74.6140  220.0540 C   0  0  0  0  0  0  0  0  0  0  0  0
  141.1386   74.4765  218.9829 H   0  0  0  0  0  0  0  0  0  0  0  0
  140.6051   74.0674  220.6534 H   0  0  0  0  0  0  0  0  0  0  0  0
  1  2  1  0
  2  3  2  0
  3  4  1  0
  3  5  1  0
  5  6  1  0
  5  7  2  0
  7  8  1  0
  8  9  2  0
  9 10  1  0
  8 11  1  0
 11 12  1  0
 11 13  1  0
 11 14  1  0
 14 15  1  0
 15 16  1  0
 16 17  2  0
 17 18  1  0
 18 19  1  0
 19 20  1  0
 19 21  1  0
 19 22  1  0
 22 23  1  0
 22 24  1  0
 22 25  1  0
 25 26  1  0
 25 27  1  0
 25 28  1  0
 28 29  1  0
 28 30  1  0
 28 31  1  0
 31 32  1  0
 31 33  1  0
 17 34  1  0
 34 35  1  0
 34 36  1  0
 36 37  2  0
 37 38  1  0
 37 39  1  0
 39 40  1  0
 39 41  1  0
 39 42  1  0
 42 43  1  1
 42 44  1  0
 44 45  1  0
 44 46  1  0
 44 47  1  0
 47 48  1  0
 47 49  1  0
 49 50  1  0
 49 51  1  0
 49 52  1  0
 52 53  1  0
 52 54  1  0
 36 55  1  0
 14 56  1  0
 56 57  1  0
 56 58  1  0
 56 59  1  0
 59 60  1  0
 59 61  1  0
  9  2  1  0
 55 15  2  0
 59  7  1  0
 31 18  1  0
 52 42  1  0
M  CHG  2  25   1  37   1
M  END
>  <UniqueID>  (43) 
579

>  <SMILES>  (43) 
c1ccc2c(c1)CCN(c1nc(N3CC[NH2+]CC3)[nH]/c(=[NH+]\C[C@H]3CCNC3)n1)C2

>  <Energy>  (43) 
73.46349485923871

>  <Genealogy>  (43) 
c1ccc2c(c1)CCN(c1nc([NH2+]CC3CCNC3)nc(N3CC[NH2+]CC3)n1)C2 (protonated)
c1ccc2c(c1)CCN(c1nc(N3CC[NH2+]CC3)[nH]c(=[NH+]CC3CCNC3)n1)C2 (tautomer)
c1ccc2c(c1)CCN(c1nc(N3CC[NH2+]CC3)[nH]c(=[NH+]C[C@H]3CCNC3)n1)C2 (chirality)
c1ccc2c(c1)CCN(c1nc(N3CC[NH2+]CC3)[nH]/c(=[NH+]\C[C@H]3CCNC3)n1)C2 (cis-trans isomerization)
c1ccc2c(c1)CCN(c1nc(N3CC[NH2+]CC3)[nH]/c(=[NH+]\C[C@H]3CCNC3)n1)C2 (3D coordinates assigned)
c1ccc2c(c1)CCN(c1nc(N3CC[NH2+]CC3)[nH]/c(=[NH+]\C[C@H]3CCNC3)n1)C2 (nonaromatic ring conformer: 73.46349485923871 kcal/mol)

>  <smiles>  (43) 
c1ccc2c(c1)CCN(c1nc(NCC3CCNC3)nc(N3CCNCC3)n1)C2

>  <score_type>  (43) 
oracle

>  <origin>  (43) 
autodockgpu

>  <m_score__min__energy>  (43) 
-8.4900000000000002

>  <m_primary>  (43) 
energy

>  <meeko>  (43) 
{"free_energy": -8.33, "intermolecular_energy": -9.82, "internal_energy": -0.91, "cluster_size": 19, "cluster_id": 2, "rank_in_cluster": 4}

>  <energy>  (43) 
-8.34

>  <cluster_rmsd>  (43) 
0.08

>  <rmsd>  (43) 
270.25

>  <cluster>  (43) 
2

$$$$
RHAOACRWGXEIGT-RBAGJBRXNA-P
     RDKit          3D

 61 65  0  0  0  0  0  0  0  0999 V2000
  146.2859   72.6802  221.0383 H   0  0  0  0  0  0  0  0  0  0  0  0
  145.2770   73.0720  220.8420 C   0  0  0  0  0  0  0  0  0  0  0  0
  144.1600   72.2660  221.0710 C   0  0  0  0  0  0  0  0  0  0  0  0
  144.2905   71.2400  221.4456 H   0  0  0  0  0  0  0  0  0  0  0  0
  142.8770   72.7610  220.8250 C   0  0  0  0  0  0  0  0  0  0  0  0
  141.9993   72.1202  220.9951 H   0  0  0  0  0  0  0  0  0  0  0  0
  142.7060   74.0750  220.3610 C   0  0  0  0  0  0  0  0  0  0  0  0
  143.8300   74.8880  220.1250 C   0  0  0  0  0  0  0  0  0  0  0  0
  145.1160   74.3750  220.3640 C   0  0  0  0  0  0  0  0  0  0  0  0
  145.9997   75.0018  220.1740 H   0  0  0  0  0  0  0  0  0  0  0  0
  143.6780   76.2790  219.5550 C   0  0  0  0  0  0  0  0  0  0  0  0
  143.9096   76.2416  218.4803 H   0  0  0  0  0  0  0  0  0  0  0  0
  144.3683   76.9318  220.1094 H   0  0  0  0  0  0  0  0  0  0  0  0
  142.3240   76.8410  219.7210 N   0  0  0  0  0  0  0  0  0  0  0  0
  142.0990   78.2160  219.3440 C   0  0  0  0  0  0  0  0  0  0  0  0
  142.1030   78.5750  218.0370 N   0  0  0  0  0  0  0  0  0  0  0  0
  141.9040   79.8650  217.6620 C   0  0  0  0  0  0  0  0  0  0  0  0
  141.9240   80.2150  216.2580 N   0  0  0  0  0  0  0  0  0  0  0  0
  141.5430   79.2320  215.2330 C   0  0  0  0  0  0  0  0  0  0  0  0
  141.4627   78.2390  215.6994 H   0  0  0  0  0  0  0  0  0  0  0  0
  140.5781   79.5341  214.7999 H   0  0  0  0  0  0  0  0  0  0  0  0
  142.5920   79.1750  214.1030 C   0  0  0  0  0  0  0  0  0  0  0  0
  143.3174   78.3833  214.3420 H   0  0  0  0  0  0  0  0  0  0  0  0
  142.0474   78.9765  213.1681 H   0  0  0  0  0  0  0  0  0  0  0  0
  143.3300   80.4430  213.9130 N   0  0  0  0  0  0  0  0  0  0  0  0
  143.5870   80.5400  212.9030 H   0  0  0  0  0  0  0  0  0  0  0  0
  144.2200   80.4160  214.4660 H   0  0  0  0  0  0  0  0  0  0  0  0
  142.5490   81.6200  214.3160 C   0  0  0  0  0  0  0  0  0  0  0  0
  143.1152   82.5321  214.0763 H   0  0  0  0  0  0  0  0  0  0  0  0
  141.5921   81.6208  213.7735 H   0  0  0  0  0  0  0  0  0  0  0  0
  142.2720   81.5760  215.8240 C   0  0  0  0  0  0  0  0  0  0  0  0
  143.1713   81.9066  216.3644 H   0  0  0  0  0  0  0  0  0  0  0  0
  141.4234   82.2407  216.0432 H   0  0  0  0  0  0  0  0  0  0  0  0
  141.7000   80.8140  218.6240 N   0  0  0  0  0  0  0  0  0  0  0  0
  141.5350   81.8020  218.3370 H   0  0  0  0  0  0  0  0  0  0  0  0
  141.6950   80.4640  219.9480 C   0  0  0  0  0  0  0  0  0  0  0  0
  141.5050   81.3450  220.8970 N   0  0  0  0  0  0  0  0  0  0  0  0
  142.1250   82.1870  220.9080 H   0  0  0  0  0  0  0  0  0  0  0  0
  140.4710   81.2380  221.9350 C   0  0  0  0  0  0  0  0  0  0  0  0
  139.9316   82.1943  222.0030 H   0  0  0  0  0  0  0  0  0  0  0  0
  139.7860   80.4227  221.6591 H   0  0  0  0  0  0  0  0  0  0  0  0
  141.0880   80.9100  223.3120 C   0  0  2  0  0  0  0  0  0  0  0  0
  140.7373   81.7184  223.9705 H   0  0  0  0  0  0  0  0  0  0  0  0
  142.6110   80.8160  223.2480 C   0  0  0  0  0  0  0  0  0  0  0  0
  143.0457   81.1488  224.2021 H   0  0  0  0  0  0  0  0  0  0  0  0
  142.9995   81.4581  222.4438 H   0  0  0  0  0  0  0  0  0  0  0  0
  142.9690   79.4190  223.0000 N   0  0  0  0  0  0  0  0  0  0  0  0
  143.1940   79.3140  221.9830 H   0  0  0  0  0  0  0  0  0  0  0  0
  141.7860   78.6060  223.2990 C   0  0  0  0  0  0  0  0  0  0  0  0
  142.0290   77.8694  224.0789 H   0  0  0  0  0  0  0  0  0  0  0  0
  141.4577   78.0704  222.3960 H   0  0  0  0  0  0  0  0  0  0  0  0
  140.6810   79.5280  223.7900 C   0  0  0  0  0  0  0  0  0  0  0  0
  140.6137   79.5019  224.8876 H   0  0  0  0  0  0  0  0  0  0  0  0
  139.6927   79.2312  223.4089 H   0  0  0  0  0  0  0  0  0  0  0  0
  141.8950   79.1660  220.2910 N   0  0  0  0  0  0  0  0  0  0  0  0
  141.2580   76.0880  220.4030 C   0  0  0  0  0  0  0  0  0  0  0  0
  140.2805   76.4798  220.0853 H   0  0  0  0  0  0  0  0  0  0  0  0
  141.3845   76.2057  221.4893 H   0  0  0  0  0  0  0  0  0  0  0  0
  141.3360   74.6020  220.0610 C   0  0  0  0  0  0  0  0  0  0  0  0
  141.1190   74.4631  218.9916 H   0  0  0  0  0  0  0  0  0  0  0  0
  140.5993   74.0543  220.6671 H   0  0  0  0  0  0  0  0  0  0  0  0
  1  2  1  0
  2  3  2  0
  3  4  1  0
  3  5  1  0
  5  6  1  0
  5  7  2  0
  7  8  1  0
  8  9  2  0
  9 10  1  0
  8 11  1  0
 11 12  1  0
 11 13  1  0
 11 14  1  0
 14 15  1  0
 15 16  1  0
 16 17  2  0
 17 18  1  0
 18 19  1  0
 19 20  1  0
 19 21  1  0
 19 22  1  0
 22 23  1  0
 22 24  1  0
 22 25  1  0
 25 26  1  0
 25 27  1  0
 25 28  1  0
 28 29  1  0
 28 30  1  0
 28 31  1  0
 31 32  1  0
 31 33  1  0
 17 34  1  0
 34 35  1  0
 34 36  1  0
 36 37  2  0
 37 38  1  0
 37 39  1  0
 39 40  1  0
 39 41  1  0
 39 42  1  0
 42 43  1  1
 42 44  1  0
 44 45  1  0
 44 46  1  0
 44 47  1  0
 47 48  1  0
 47 49  1  0
 49 50  1  0
 49 51  1  0
 49 52  1  0
 52 53  1  0
 52 54  1  0
 36 55  1  0
 14 56  1  0
 56 57  1  0
 56 58  1  0
 56 59  1  0
 59 60  1  0
 59 61  1  0
  9  2  1  0
 55 15  2  0
 59  7  1  0
 31 18  1  0
 52 42  1  0
M  CHG  2  25   1  37   1
M  END
>  <UniqueID>  (44) 
579

>  <SMILES>  (44) 
c1ccc2c(c1)CCN(c1nc(N3CC[NH2+]CC3)[nH]/c(=[NH+]\C[C@H]3CCNC3)n1)C2

>  <Energy>  (44) 
73.46349485923871

>  <Genealogy>  (44) 
c1ccc2c(c1)CCN(c1nc([NH2+]CC3CCNC3)nc(N3CC[NH2+]CC3)n1)C2 (protonated)
c1ccc2c(c1)CCN(c1nc(N3CC[NH2+]CC3)[nH]c(=[NH+]CC3CCNC3)n1)C2 (tautomer)
c1ccc2c(c1)CCN(c1nc(N3CC[NH2+]CC3)[nH]c(=[NH+]C[C@H]3CCNC3)n1)C2 (chirality)
c1ccc2c(c1)CCN(c1nc(N3CC[NH2+]CC3)[nH]/c(=[NH+]\C[C@H]3CCNC3)n1)C2 (cis-trans isomerization)
c1ccc2c(c1)CCN(c1nc(N3CC[NH2+]CC3)[nH]/c(=[NH+]\C[C@H]3CCNC3)n1)C2 (3D coordinates assigned)
c1ccc2c(c1)CCN(c1nc(N3CC[NH2+]CC3)[nH]/c(=[NH+]\C[C@H]3CCNC3)n1)C2 (nonaromatic ring conformer: 73.46349485923871 kcal/mol)

>  <smiles>  (44) 
c1ccc2c(c1)CCN(c1nc(NCC3CCNC3)nc(N3CCNCC3)n1)C2

>  <score_type>  (44) 
oracle

>  <origin>  (44) 
autodockgpu

>  <m_score__min__energy>  (44) 
-8.4900000000000002

>  <m_primary>  (44) 
energy

>  <meeko>  (44) 
{"free_energy": -8.33, "intermolecular_energy": -9.82, "internal_energy": -0.92, "cluster_size": 19, "cluster_id": 2, "rank_in_cluster": 5}

>  <energy>  (44) 
-8.34

>  <cluster_rmsd>  (44) 
0.05

>  <rmsd>  (44) 
270.27

>  <cluster>  (44) 
2

$$$$
RHAOACRWGXEIGT-RBAGJBRXNA-P
     RDKit          3D

 61 65  0  0  0  0  0  0  0  0999 V2000
  146.2454   72.4438  221.0998 H   0  0  0  0  0  0  0  0  0  0  0  0
  145.2530   72.8320  220.8270 C   0  0  0  0  0  0  0  0  0  0  0  0
  144.1450   71.9820  220.8370 C   0  0  0  0  0  0  0  0  0  0  0  0
  144.2665   70.9248  221.1155 H   0  0  0  0  0  0  0  0  0  0  0  0
  142.8830   72.4720  220.4940 C   0  0  0  0  0  0  0  0  0  0  0  0
  142.0142   71.7973  220.4918 H   0  0  0  0  0  0  0  0  0  0  0  0
  142.7210   73.8240  220.1520 C   0  0  0  0  0  0  0  0  0  0  0  0
  143.8360   74.6820  220.1370 C   0  0  0  0  0  0  0  0  0  0  0  0
  145.1030   74.1750  220.4710 C   0  0  0  0  0  0  0  0  0  0  0  0
  145.9806   74.8380  220.4522 H   0  0  0  0  0  0  0  0  0  0  0  0
  143.7030   76.1230  219.7010 C   0  0  0  0  0  0  0  0  0  0  0  0
  144.0592   76.2068  218.6636 H   0  0  0  0  0  0  0  0  0  0  0  0
  144.3010   76.7277  220.3987 H   0  0  0  0  0  0  0  0  0  0  0  0
  142.3200   76.6330  219.7620 N   0  0  0  0  0  0  0  0  0  0  0  0
  142.0930   78.0350  219.5070 C   0  0  0  0  0  0  0  0  0  0  0  0
  142.0480   78.4990  218.2330 N   0  0  0  0  0  0  0  0  0  0  0  0
  141.8460   79.8160  217.9720 C   0  0  0  0  0  0  0  0  0  0  0  0
  141.8120   80.2770  216.6000 N   0  0  0  0  0  0  0  0  0  0  0  0
  141.5370   79.3430  215.4990 C   0  0  0  0  0  0  0  0  0  0  0  0
  141.5758   78.3130  215.8831 H   0  0  0  0  0  0  0  0  0  0  0  0
  140.5396   79.5656  215.0919 H   0  0  0  0  0  0  0  0  0  0  0  0
  142.5750   79.4990  214.3680 C   0  0  0  0  0  0  0  0  0  0  0  0
  143.3889   78.7798  214.5420 H   0  0  0  0  0  0  0  0  0  0  0  0
  142.0479   79.3150  213.4202 H   0  0  0  0  0  0  0  0  0  0  0  0
  143.1600   80.8540  214.2810 N   0  0  0  0  0  0  0  0  0  0  0  0
  143.3940   81.0610  213.2830 H   0  0  0  0  0  0  0  0  0  0  0  0
  144.0520   80.8870  214.8300 H   0  0  0  0  0  0  0  0  0  0  0  0
  142.2530   81.8970  214.7780 C   0  0  0  0  0  0  0  0  0  0  0  0
  142.7085   82.8845  214.6125 H   0  0  0  0  0  0  0  0  0  0  0  0
  141.2972   81.8308  214.2376 H   0  0  0  0  0  0  0  0  0  0  0  0
  141.9970   81.7010  216.2780 C   0  0  0  0  0  0  0  0  0  0  0  0
  142.8572   82.0888  216.8434 H   0  0  0  0  0  0  0  0  0  0  0  0
  141.0800   82.2439  216.5508 H   0  0  0  0  0  0  0  0  0  0  0  0
  141.6890   80.6860  219.0140 N   0  0  0  0  0  0  0  0  0  0  0  0
  141.5230   81.6940  218.8140 H   0  0  0  0  0  0  0  0  0  0  0  0
  141.7350   80.2310  220.3050 C   0  0  0  0  0  0  0  0  0  0  0  0
  141.5920   81.0330  221.3280 N   0  0  0  0  0  0  0  0  0  0  0  0
  140.9280   81.8360  221.2260 H   0  0  0  0  0  0  0  0  0  0  0  0
  142.2870   80.8740  222.6120 C   0  0  0  0  0  0  0  0  0  0  0  0
  143.1918   80.2680  222.4568 H   0  0  0  0  0  0  0  0  0  0  0  0
  142.5475   81.8731  222.9914 H   0  0  0  0  0  0  0  0  0  0  0  0
  141.3870   80.1760  223.6560 C   0  0  2  0  0  0  0  0  0  0  0  0
  141.4211   80.8364  224.5350 H   0  0  0  0  0  0  0  0  0  0  0  0
  141.8610   78.7570  223.9630 C   0  0  0  0  0  0  0  0  0  0  0  0
  141.6314   78.5053  225.0089 H   0  0  0  0  0  0  0  0  0  0  0  0
  142.9480   78.6777  223.8142 H   0  0  0  0  0  0  0  0  0  0  0  0
  141.1580   77.8390  223.0660 N   0  0  0  0  0  0  0  0  0  0  0  0
  141.8040   77.5910  222.2800 H   0  0  0  0  0  0  0  0  0  0  0  0
  140.0110   78.5650  222.5120 C   0  0  0  0  0  0  0  0  0  0  0  0
  139.0804   78.0329  222.7587 H   0  0  0  0  0  0  0  0  0  0  0  0
  140.1005   78.6338  221.4178 H   0  0  0  0  0  0  0  0  0  0  0  0
  139.9830   79.9580  223.1220 C   0  0  0  0  0  0  0  0  0  0  0  0
  139.2461   80.0093  223.9371 H   0  0  0  0  0  0  0  0  0  0  0  0
  139.6935   80.7261  222.3897 H   0  0  0  0  0  0  0  0  0  0  0  0
  141.9370   78.9080  220.5340 N   0  0  0  0  0  0  0  0  0  0  0  0
  141.2100   75.7880  220.2310 C   0  0  0  0  0  0  0  0  0  0  0  0
  140.2626   76.1902  219.8429 H   0  0  0  0  0  0  0  0  0  0  0  0
  141.2075   75.7908  221.3310 H   0  0  0  0  0  0  0  0  0  0  0  0
  141.3770   74.3490  219.7480 C   0  0  0  0  0  0  0  0  0  0  0  0
  141.2895   74.3205  218.6519 H   0  0  0  0  0  0  0  0  0  0  0  0
  140.5943   73.7233  220.2018 H   0  0  0  0  0  0  0  0  0  0  0  0
  1  2  1  0
  2  3  2  0
  3  4  1  0
  3  5  1  0
  5  6  1  0
  5  7  2  0
  7  8  1  0
  8  9  2  0
  9 10  1  0
  8 11  1  0
 11 12  1  0
 11 13  1  0
 11 14  1  0
 14 15  1  0
 15 16  1  0
 16 17  2  0
 17 18  1  0
 18 19  1  0
 19 20  1  0
 19 21  1  0
 19 22  1  0
 22 23  1  0
 22 24  1  0
 22 25  1  0
 25 26  1  0
 25 27  1  0
 25 28  1  0
 28 29  1  0
 28 30  1  0
 28 31  1  0
 31 32  1  0
 31 33  1  0
 17 34  1  0
 34 35  1  0
 34 36  1  0
 36 37  2  0
 37 38  1  0
 37 39  1  0
 39 40  1  0
 39 41  1  0
 39 42  1  0
 42 43  1  1
 42 44  1  0
 44 45  1  0
 44 46  1  0
 44 47  1  0
 47 48  1  0
 47 49  1  0
 49 50  1  0
 49 51  1  0
 49 52  1  0
 52 53  1  0
 52 54  1  0
 36 55  1  0
 14 56  1  0
 56 57  1  0
 56 58  1  0
 56 59  1  0
 59 60  1  0
 59 61  1  0
  9  2  1  0
 55 15  2  0
 59  7  1  0
 31 18  1  0
 52 42  1  0
M  CHG  2  25   1  37   1
M  END
>  <UniqueID>  (45) 
579

>  <SMILES>  (45) 
c1ccc2c(c1)CCN(c1nc(N3CC[NH2+]CC3)[nH]/c(=[NH+]\C[C@H]3CCNC3)n1)C2

>  <Energy>  (45) 
73.46349485923871

>  <Genealogy>  (45) 
c1ccc2c(c1)CCN(c1nc([NH2+]CC3CCNC3)nc(N3CC[NH2+]CC3)n1)C2 (protonated)
c1ccc2c(c1)CCN(c1nc(N3CC[NH2+]CC3)[nH]c(=[NH+]CC3CCNC3)n1)C2 (tautomer)
c1ccc2c(c1)CCN(c1nc(N3CC[NH2+]CC3)[nH]c(=[NH+]C[C@H]3CCNC3)n1)C2 (chirality)
c1ccc2c(c1)CCN(c1nc(N3CC[NH2+]CC3)[nH]/c(=[NH+]\C[C@H]3CCNC3)n1)C2 (cis-trans isomerization)
c1ccc2c(c1)CCN(c1nc(N3CC[NH2+]CC3)[nH]/c(=[NH+]\C[C@H]3CCNC3)n1)C2 (3D coordinates assigned)
c1ccc2c(c1)CCN(c1nc(N3CC[NH2+]CC3)[nH]/c(=[NH+]\C[C@H]3CCNC3)n1)C2 (nonaromatic ring conformer: 73.46349485923871 kcal/mol)

>  <smiles>  (45) 
c1ccc2c(c1)CCN(c1nc(NCC3CCNC3)nc(N3CCNCC3)n1)C2

>  <score_type>  (45) 
oracle

>  <origin>  (45) 
autodockgpu

>  <m_score__min__energy>  (45) 
-8.4900000000000002

>  <m_primary>  (45) 
energy

>  <meeko>  (45) 
{"free_energy": -8.1, "intermolecular_energy": -9.59, "internal_energy": -0.77, "cluster_size": 19, "cluster_id": 2, "rank_in_cluster": 13}

>  <energy>  (45) 
-8.33

>  <cluster_rmsd>  (45) 
0.2

>  <rmsd>  (45) 
270.25

>  <cluster>  (45) 
2

$$$$
RHAOACRWGXEIGT-RBAGJBRXNA-P
     RDKit          3D

 61 65  0  0  0  0  0  0  0  0999 V2000
  146.1156   72.6643  221.1438 H   0  0  0  0  0  0  0  0  0  0  0  0
  145.1370   73.0760  220.8560 C   0  0  0  0  0  0  0  0  0  0  0  0
  144.0010   72.2650  220.8950 C   0  0  0  0  0  0  0  0  0  0  0  0
  144.0865   71.2146  221.2103 H   0  0  0  0  0  0  0  0  0  0  0  0
  142.7560   72.7860  220.5340 C   0  0  0  0  0  0  0  0  0  0  0  0
  141.8646   72.1418  220.5546 H   0  0  0  0  0  0  0  0  0  0  0  0
  142.6400   74.1300  220.1450 C   0  0  0  0  0  0  0  0  0  0  0  0
  143.7840   74.9490  220.1010 C   0  0  0  0  0  0  0  0  0  0  0  0
  145.0330   74.4100  220.4520 C   0  0  0  0  0  0  0  0  0  0  0  0
  145.9332   75.0407  220.4087 H   0  0  0  0  0  0  0  0  0  0  0  0
  143.7010   76.3770  219.6140 C   0  0  0  0  0  0  0  0  0  0  0  0
  144.0586   76.4115  218.5743 H   0  0  0  0  0  0  0  0  0  0  0  0
  144.3208   76.9853  220.2892 H   0  0  0  0  0  0  0  0  0  0  0  0
  142.3360   76.9360  219.6570 N   0  0  0  0  0  0  0  0  0  0  0  0
  142.1570   78.3350  219.3530 C   0  0  0  0  0  0  0  0  0  0  0  0
  142.1600   78.7600  218.0650 N   0  0  0  0  0  0  0  0  0  0  0  0
  142.0030   80.0730  217.7580 C   0  0  0  0  0  0  0  0  0  0  0  0
  142.0190   80.4930  216.3730 N   0  0  0  0  0  0  0  0  0  0  0  0
  141.4110   79.6570  215.3270 C   0  0  0  0  0  0  0  0  0  0  0  0
  141.1686   78.6712  215.7505 H   0  0  0  0  0  0  0  0  0  0  0  0
  140.5001   80.1566  214.9655 H   0  0  0  0  0  0  0  0  0  0  0  0
  142.3740   79.4710  214.1360 C   0  0  0  0  0  0  0  0  0  0  0  0
  142.9489   78.5468  214.2951 H   0  0  0  0  0  0  0  0  0  0  0  0
  141.7567   79.4296  213.2265 H   0  0  0  0  0  0  0  0  0  0  0  0
  143.3260   80.5890  213.9620 N   0  0  0  0  0  0  0  0  0  0  0  0
  143.5470   80.6940  212.9450 H   0  0  0  0  0  0  0  0  0  0  0  0
  144.2210   80.3660  214.4600 H   0  0  0  0  0  0  0  0  0  0  0  0
  142.8020   81.8650  214.4650 C   0  0  0  0  0  0  0  0  0  0  0  0
  143.5176   82.6682  214.2351 H   0  0  0  0  0  0  0  0  0  0  0  0
  141.8368   82.0740  213.9806 H   0  0  0  0  0  0  0  0  0  0  0  0
  142.5960   81.7880  215.9830 C   0  0  0  0  0  0  0  0  0  0  0  0
  143.5669   81.9145  216.4844 H   0  0  0  0  0  0  0  0  0  0  0  0
  141.9000   82.5854  216.2824 H   0  0  0  0  0  0  0  0  0  0  0  0
  141.8440   80.9800  218.7690 N   0  0  0  0  0  0  0  0  0  0  0  0
  141.7130   81.9850  218.5330 H   0  0  0  0  0  0  0  0  0  0  0  0
  141.8420   80.5640  220.0740 C   0  0  0  0  0  0  0  0  0  0  0  0
  141.6950   81.4020  221.0680 N   0  0  0  0  0  0  0  0  0  0  0  0
  142.3940   82.1760  221.1560 H   0  0  0  0  0  0  0  0  0  0  0  0
  140.6090   81.3380  222.0540 C   0  0  0  0  0  0  0  0  0  0  0  0
  140.1721   82.3407  222.1713 H   0  0  0  0  0  0  0  0  0  0  0  0
  139.8541   80.6241  221.6928 H   0  0  0  0  0  0  0  0  0  0  0  0
  141.1240   80.8500  223.4260 C   0  0  2  0  0  0  0  0  0  0  0  0
  140.7423   81.5921  224.1427 H   0  0  0  0  0  0  0  0  0  0  0  0
  142.6460   80.7260  223.4550 C   0  0  0  0  0  0  0  0  0  0  0  0
  143.0185   80.9436  224.4669 H   0  0  0  0  0  0  0  0  0  0  0  0
  143.0999   81.4411  222.7531 H   0  0  0  0  0  0  0  0  0  0  0  0
  142.9980   79.3560  223.0810 N   0  0  0  0  0  0  0  0  0  0  0  0
  143.2910   79.3560  222.0760 H   0  0  0  0  0  0  0  0  0  0  0  0
  141.7830   78.5440  223.2100 C   0  0  0  0  0  0  0  0  0  0  0  0
  141.9589   77.7224  223.9200 H   0  0  0  0  0  0  0  0  0  0  0  0
  141.5091   78.1161  222.2343 H   0  0  0  0  0  0  0  0  0  0  0  0
  140.6620   79.4350  223.7230 C   0  0  0  0  0  0  0  0  0  0  0  0
  140.5185   79.2933  224.8044 H   0  0  0  0  0  0  0  0  0  0  0  0
  139.6977   79.2046  223.2465 H   0  0  0  0  0  0  0  0  0  0  0  0
  141.9990   79.2440  220.3480 N   0  0  0  0  0  0  0  0  0  0  0  0
  141.1970   76.1470  220.1550 C   0  0  0  0  0  0  0  0  0  0  0  0
  140.2639   76.5676  219.7519 H   0  0  0  0  0  0  0  0  0  0  0  0
  141.1941   76.1891  221.2542 H   0  0  0  0  0  0  0  0  0  0  0  0
  141.3150   74.6870  219.7230 C   0  0  0  0  0  0  0  0  0  0  0  0
  141.2256   74.6232  218.6285 H   0  0  0  0  0  0  0  0  0  0  0  0
  140.5121   74.1050  220.1990 H   0  0  0  0  0  0  0  0  0  0  0  0
  1  2  1  0
  2  3  2  0
  3  4  1  0
  3  5  1  0
  5  6  1  0
  5  7  2  0
  7  8  1  0
  8  9  2  0
  9 10  1  0
  8 11  1  0
 11 12  1  0
 11 13  1  0
 11 14  1  0
 14 15  1  0
 15 16  1  0
 16 17  2  0
 17 18  1  0
 18 19  1  0
 19 20  1  0
 19 21  1  0
 19 22  1  0
 22 23  1  0
 22 24  1  0
 22 25  1  0
 25 26  1  0
 25 27  1  0
 25 28  1  0
 28 29  1  0
 28 30  1  0
 28 31  1  0
 31 32  1  0
 31 33  1  0
 17 34  1  0
 34 35  1  0
 34 36  1  0
 36 37  2  0
 37 38  1  0
 37 39  1  0
 39 40  1  0
 39 41  1  0
 39 42  1  0
 42 43  1  1
 42 44  1  0
 44 45  1  0
 44 46  1  0
 44 47  1  0
 47 48  1  0
 47 49  1  0
 49 50  1  0
 49 51  1  0
 49 52  1  0
 52 53  1  0
 52 54  1  0
 36 55  1  0
 14 56  1  0
 56 57  1  0
 56 58  1  0
 56 59  1  0
 59 60  1  0
 59 61  1  0
  9  2  1  0
 55 15  2  0
 59  7  1  0
 31 18  1  0
 52 42  1  0
M  CHG  2  25   1  37   1
M  END
>  <UniqueID>  (46) 
579

>  <SMILES>  (46) 
c1ccc2c(c1)CCN(c1nc(N3CC[NH2+]CC3)[nH]/c(=[NH+]\C[C@H]3CCNC3)n1)C2

>  <Energy>  (46) 
73.46349485923871

>  <Genealogy>  (46) 
c1ccc2c(c1)CCN(c1nc([NH2+]CC3CCNC3)nc(N3CC[NH2+]CC3)n1)C2 (protonated)
c1ccc2c(c1)CCN(c1nc(N3CC[NH2+]CC3)[nH]c(=[NH+]CC3CCNC3)n1)C2 (tautomer)
c1ccc2c(c1)CCN(c1nc(N3CC[NH2+]CC3)[nH]c(=[NH+]C[C@H]3CCNC3)n1)C2 (chirality)
c1ccc2c(c1)CCN(c1nc(N3CC[NH2+]CC3)[nH]/c(=[NH+]\C[C@H]3CCNC3)n1)C2 (cis-trans isomerization)
c1ccc2c(c1)CCN(c1nc(N3CC[NH2+]CC3)[nH]/c(=[NH+]\C[C@H]3CCNC3)n1)C2 (3D coordinates assigned)
c1ccc2c(c1)CCN(c1nc(N3CC[NH2+]CC3)[nH]/c(=[NH+]\C[C@H]3CCNC3)n1)C2 (nonaromatic ring conformer: 73.46349485923871 kcal/mol)

>  <smiles>  (46) 
c1ccc2c(c1)CCN(c1nc(NCC3CCNC3)nc(N3CCNCC3)n1)C2

>  <score_type>  (46) 
oracle

>  <origin>  (46) 
autodockgpu

>  <m_score__min__energy>  (46) 
-8.4900000000000002

>  <m_primary>  (46) 
energy

>  <meeko>  (46) 
{"free_energy": -8.31, "intermolecular_energy": -9.81, "internal_energy": -0.91, "cluster_size": 19, "cluster_id": 2, "rank_in_cluster": 7}

>  <energy>  (46) 
-8.33

>  <cluster_rmsd>  (46) 
0.21

>  <rmsd>  (46) 
270.23

>  <cluster>  (46) 
2

$$$$
RHAOACRWGXEIGT-RBAGJBRXNA-P
     RDKit          3D

 61 65  0  0  0  0  0  0  0  0999 V2000
  144.9877   72.2014  221.4401 H   0  0  0  0  0  0  0  0  0  0  0  0
  144.7220   72.8010  220.5570 C   0  0  0  0  0  0  0  0  0  0  0  0
  144.7310   72.2160  219.2890 C   0  0  0  0  0  0  0  0  0  0  0  0
  145.0078   71.1576  219.1744 H   0  0  0  0  0  0  0  0  0  0  0  0
  144.3890   72.9730  218.1660 C   0  0  0  0  0  0  0  0  0  0  0  0
  144.4072   72.5126  217.1672 H   0  0  0  0  0  0  0  0  0  0  0  0
  144.0220   74.3210  218.3100 C   0  0  0  0  0  0  0  0  0  0  0  0
  144.0170   74.9140  219.5850 C   0  0  0  0  0  0  0  0  0  0  0  0
  144.3760   74.1470  220.7060 C   0  0  0  0  0  0  0  0  0  0  0  0
  144.3848   74.6076  221.7049 H   0  0  0  0  0  0  0  0  0  0  0  0
  143.6990   76.3810  219.7600 C   0  0  0  0  0  0  0  0  0  0  0  0
  144.6441   76.9289  219.8890 H   0  0  0  0  0  0  0  0  0  0  0  0
  143.0430   76.4667  220.6388 H   0  0  0  0  0  0  0  0  0  0  0  0
  142.9720   76.9670  218.6180 N   0  0  0  0  0  0  0  0  0  0  0  0
  142.4890   78.3220  218.7330 C   0  0  0  0  0  0  0  0  0  0  0  0
  142.7970   79.2410  217.7840 N   0  0  0  0  0  0  0  0  0  0  0  0
  142.3620   80.5230  217.8790 C   0  0  0  0  0  0  0  0  0  0  0  0
  142.7160   81.4790  216.8520 N   0  0  0  0  0  0  0  0  0  0  0  0
  141.9160   81.5940  215.6230 C   0  0  0  0  0  0  0  0  0  0  0  0
  141.2121   80.7502  215.5719 H   0  0  0  0  0  0  0  0  0  0  0  0
  141.3717   82.5496  215.6478 H   0  0  0  0  0  0  0  0  0  0  0  0
  142.8180   81.5750  214.3710 C   0  0  0  0  0  0  0  0  0  0  0  0
  142.8941   80.5374  214.0139 H   0  0  0  0  0  0  0  0  0  0  0  0
  142.3525   82.2416  213.6300 H   0  0  0  0  0  0  0  0  0  0  0  0
  144.1830   82.0860  214.6130 N   0  0  0  0  0  0  0  0  0  0  0  0
  144.5380   82.5400  213.7400 H   0  0  0  0  0  0  0  0  0  0  0  0
  144.8220   81.2860  214.8380 H   0  0  0  0  0  0  0  0  0  0  0  0
  144.2370   83.0650  215.7070 C   0  0  0  0  0  0  0  0  0  0  0  0
  145.2576   83.4678  215.7850 H   0  0  0  0  0  0  0  0  0  0  0  0
  143.5287   83.8799  215.4969 H   0  0  0  0  0  0  0  0  0  0  0  0
  143.8530   82.3940  217.0330 C   0  0  0  0  0  0  0  0  0  0  0  0
  144.7154   81.8254  217.4112 H   0  0  0  0  0  0  0  0  0  0  0  0
  143.5621   83.1761  217.7497 H   0  0  0  0  0  0  0  0  0  0  0  0
  141.6030   80.8910  218.9550 N   0  0  0  0  0  0  0  0  0  0  0  0
  141.2590   81.8720  219.0220 H   0  0  0  0  0  0  0  0  0  0  0  0
  141.2870   79.9740  219.9210 C   0  0  0  0  0  0  0  0  0  0  0  0
  140.5650   80.2900  220.9660 N   0  0  0  0  0  0  0  0  0  0  0  0
  139.7530   79.6720  221.1990 H   0  0  0  0  0  0  0  0  0  0  0  0
  140.8280   81.4400  221.8400 C   0  0  0  0  0  0  0  0  0  0  0  0
  141.4462   82.1692  221.2959 H   0  0  0  0  0  0  0  0  0  0  0  0
  139.8637   81.8840  222.1279 H   0  0  0  0  0  0  0  0  0  0  0  0
  141.5700   81.0120  223.1260 C   0  0  2  0  0  0  0  0  0  0  0  0
  141.5562   81.9081  223.7638 H   0  0  0  0  0  0  0  0  0  0  0  0
  142.9840   80.5160  222.8320 C   0  0  0  0  0  0  0  0  0  0  0  0
  143.6467   80.7568  223.6763 H   0  0  0  0  0  0  0  0  0  0  0  0
  143.3782   81.0024  221.9276 H   0  0  0  0  0  0  0  0  0  0  0  0
  142.9270   79.0660  222.6440 N   0  0  0  0  0  0  0  0  0  0  0  0
  142.9400   78.8690  221.6160 H   0  0  0  0  0  0  0  0  0  0  0  0
  141.6460   78.6060  223.1890 C   0  0  0  0  0  0  0  0  0  0  0  0
  141.8243   77.8607  223.9782 H   0  0  0  0  0  0  0  0  0  0  0  0
  141.0420   78.1431  222.3947 H   0  0  0  0  0  0  0  0  0  0  0  0
  140.9130   79.8050  223.7710 C   0  0  0  0  0  0  0  0  0  0  0  0
  141.0307   79.8378  224.8642 H   0  0  0  0  0  0  0  0  0  0  0  0
  139.8315   79.7662  223.5738 H   0  0  0  0  0  0  0  0  0  0  0  0
  141.7350   78.6990  219.7970 N   0  0  0  0  0  0  0  0  0  0  0  0
  142.5930   76.1550  217.4490 C   0  0  0  0  0  0  0  0  0  0  0  0
  142.4306   76.8186  216.5869 H   0  0  0  0  0  0  0  0  0  0  0  0
  141.6719   75.6033  217.6880 H   0  0  0  0  0  0  0  0  0  0  0  0
  143.6890   75.1490  217.1060 C   0  0  0  0  0  0  0  0  0  0  0  0
  144.5885   75.6892  216.7756 H   0  0  0  0  0  0  0  0  0  0  0  0
  143.3330   74.4885  216.3016 H   0  0  0  0  0  0  0  0  0  0  0  0
  1  2  1  0
  2  3  2  0
  3  4  1  0
  3  5  1  0
  5  6  1  0
  5  7  2  0
  7  8  1  0
  8  9  2  0
  9 10  1  0
  8 11  1  0
 11 12  1  0
 11 13  1  0
 11 14  1  0
 14 15  1  0
 15 16  1  0
 16 17  2  0
 17 18  1  0
 18 19  1  0
 19 20  1  0
 19 21  1  0
 19 22  1  0
 22 23  1  0
 22 24  1  0
 22 25  1  0
 25 26  1  0
 25 27  1  0
 25 28  1  0
 28 29  1  0
 28 30  1  0
 28 31  1  0
 31 32  1  0
 31 33  1  0
 17 34  1  0
 34 35  1  0
 34 36  1  0
 36 37  2  0
 37 38  1  0
 37 39  1  0
 39 40  1  0
 39 41  1  0
 39 42  1  0
 42 43  1  1
 42 44  1  0
 44 45  1  0
 44 46  1  0
 44 47  1  0
 47 48  1  0
 47 49  1  0
 49 50  1  0
 49 51  1  0
 49 52  1  0
 52 53  1  0
 52 54  1  0
 36 55  1  0
 14 56  1  0
 56 57  1  0
 56 58  1  0
 56 59  1  0
 59 60  1  0
 59 61  1  0
  9  2  1  0
 55 15  2  0
 59  7  1  0
 31 18  1  0
 52 42  1  0
M  CHG  2  25   1  37   1
M  END
>  <UniqueID>  (47) 
579

>  <SMILES>  (47) 
c1ccc2c(c1)CCN(c1nc(N3CC[NH2+]CC3)[nH]/c(=[NH+]\C[C@H]3CCNC3)n1)C2

>  <Energy>  (47) 
73.46349485923871

>  <Genealogy>  (47) 
c1ccc2c(c1)CCN(c1nc([NH2+]CC3CCNC3)nc(N3CC[NH2+]CC3)n1)C2 (protonated)
c1ccc2c(c1)CCN(c1nc(N3CC[NH2+]CC3)[nH]c(=[NH+]CC3CCNC3)n1)C2 (tautomer)
c1ccc2c(c1)CCN(c1nc(N3CC[NH2+]CC3)[nH]c(=[NH+]C[C@H]3CCNC3)n1)C2 (chirality)
c1ccc2c(c1)CCN(c1nc(N3CC[NH2+]CC3)[nH]/c(=[NH+]\C[C@H]3CCNC3)n1)C2 (cis-trans isomerization)
c1ccc2c(c1)CCN(c1nc(N3CC[NH2+]CC3)[nH]/c(=[NH+]\C[C@H]3CCNC3)n1)C2 (3D coordinates assigned)
c1ccc2c(c1)CCN(c1nc(N3CC[NH2+]CC3)[nH]/c(=[NH+]\C[C@H]3CCNC3)n1)C2 (nonaromatic ring conformer: 73.46349485923871 kcal/mol)

>  <smiles>  (47) 
c1ccc2c(c1)CCN(c1nc(NCC3CCNC3)nc(N3CCNCC3)n1)C2

>  <score_type>  (47) 
oracle

>  <origin>  (47) 
autodockgpu

>  <m_score__min__energy>  (47) 
-8.4900000000000002

>  <m_primary>  (47) 
energy

>  <meeko>  (47) 
{"free_energy": -8.19, "intermolecular_energy": -9.68, "internal_energy": -0.88, "cluster_size": 19, "cluster_id": 2, "rank_in_cluster": 12}

>  <energy>  (47) 
-8.32

>  <cluster_rmsd>  (47) 
0.1

>  <rmsd>  (47) 
270.3

>  <cluster>  (47) 
2

$$$$
RHAOACRWGXEIGT-RBAGJBRXNA-P
     RDKit          3D

 61 65  0  0  0  0  0  0  0  0999 V2000
  146.1868   72.6915  221.1198 H   0  0  0  0  0  0  0  0  0  0  0  0
  145.1960   73.0900  220.8560 C   0  0  0  0  0  0  0  0  0  0  0  0
  144.0670   72.2750  220.9580 C   0  0  0  0  0  0  0  0  0  0  0  0
  144.1699   71.2344  221.2995 H   0  0  0  0  0  0  0  0  0  0  0  0
  142.8070   72.7790  220.6270 C   0  0  0  0  0  0  0  0  0  0  0  0
  141.9209   72.1311  220.6978 H   0  0  0  0  0  0  0  0  0  0  0  0
  142.6690   74.1110  220.2040 C   0  0  0  0  0  0  0  0  0  0  0  0
  143.8050   74.9330  220.0960 C   0  0  0  0  0  0  0  0  0  0  0  0
  145.0690   74.4120  220.4190 C   0  0  0  0  0  0  0  0  0  0  0  0
  145.9627   75.0469  220.3277 H   0  0  0  0  0  0  0  0  0  0  0  0
  143.6960   76.3460  219.5720 C   0  0  0  0  0  0  0  0  0  0  0  0
  144.0168   76.3527  218.5198 H   0  0  0  0  0  0  0  0  0  0  0  0
  144.3351   76.9765  220.2076 H   0  0  0  0  0  0  0  0  0  0  0  0
  142.3300   76.8990  219.6470 N   0  0  0  0  0  0  0  0  0  0  0  0
  142.1320   78.2880  219.3090 C   0  0  0  0  0  0  0  0  0  0  0  0
  142.1410   78.6840  218.0120 N   0  0  0  0  0  0  0  0  0  0  0  0
  141.9660   79.9870  217.6740 C   0  0  0  0  0  0  0  0  0  0  0  0
  141.9900   80.3750  216.2800 N   0  0  0  0  0  0  0  0  0  0  0  0
  141.5440   79.4440  215.2320 C   0  0  0  0  0  0  0  0  0  0  0  0
  141.4139   78.4439  215.6712 H   0  0  0  0  0  0  0  0  0  0  0  0
  140.5927   79.8111  214.8195 H   0  0  0  0  0  0  0  0  0  0  0  0
  142.5760   79.3620  214.0880 C   0  0  0  0  0  0  0  0  0  0  0  0
  143.2590   78.5251  214.2958 H   0  0  0  0  0  0  0  0  0  0  0  0
  142.0109   79.2209  213.1549 H   0  0  0  0  0  0  0  0  0  0  0  0
  143.3810   80.5920  213.9240 N   0  0  0  0  0  0  0  0  0  0  0  0
  143.6320   80.7030  212.9150 H   0  0  0  0  0  0  0  0  0  0  0  0
  144.2740   80.5000  214.4650 H   0  0  0  0  0  0  0  0  0  0  0  0
  142.6720   81.7980  214.3700 C   0  0  0  0  0  0  0  0  0  0  0  0
  143.2858   82.6836  214.1489 H   0  0  0  0  0  0  0  0  0  0  0  0
  141.7106   81.8671  213.8400 H   0  0  0  0  0  0  0  0  0  0  0  0
  142.4090   81.7270  215.8800 C   0  0  0  0  0  0  0  0  0  0  0  0
  143.3310   81.9917  216.4184 H   0  0  0  0  0  0  0  0  0  0  0  0
  141.6015   82.4315  216.1282 H   0  0  0  0  0  0  0  0  0  0  0  0
  141.7820   80.9130  218.6620 N   0  0  0  0  0  0  0  0  0  0  0  0
  141.6370   81.9110  218.4030 H   0  0  0  0  0  0  0  0  0  0  0  0
  141.7730   80.5270  219.9760 C   0  0  0  0  0  0  0  0  0  0  0  0
  141.6020   81.3850  220.9490 N   0  0  0  0  0  0  0  0  0  0  0  0
  142.2580   82.1990  220.9990 H   0  0  0  0  0  0  0  0  0  0  0  0
  140.5440   81.2900  221.9630 C   0  0  0  0  0  0  0  0  0  0  0  0
  140.0440   82.2658  222.0514 H   0  0  0  0  0  0  0  0  0  0  0  0
  139.8308   80.5139  221.6485 H   0  0  0  0  0  0  0  0  0  0  0  0
  141.1200   80.8930  223.3410 C   0  0  2  0  0  0  0  0  0  0  0  0
  140.7570   81.6726  224.0269 H   0  0  0  0  0  0  0  0  0  0  0  0
  142.6430   80.7890  223.3150 C   0  0  0  0  0  0  0  0  0  0  0  0
  143.0529   81.0734  224.2954 H   0  0  0  0  0  0  0  0  0  0  0  0
  143.0580   81.4644  222.5524 H   0  0  0  0  0  0  0  0  0  0  0  0
  142.9990   79.4030  223.0120 N   0  0  0  0  0  0  0  0  0  0  0  0
  143.2520   79.3440  221.9980 H   0  0  0  0  0  0  0  0  0  0  0  0
  141.8030   78.5860  223.2390 C   0  0  0  0  0  0  0  0  0  0  0  0
  142.0187   77.8122  223.9905 H   0  0  0  0  0  0  0  0  0  0  0  0
  141.4973   78.0948  222.3034 H   0  0  0  0  0  0  0  0  0  0  0  0
  140.6900   79.4940  223.7410 C   0  0  0  0  0  0  0  0  0  0  0  0
  140.5904   79.4169  224.8338 H   0  0  0  0  0  0  0  0  0  0  0  0
  139.7114   79.2238  223.3176 H   0  0  0  0  0  0  0  0  0  0  0  0
  141.9480   79.2160  220.2820 N   0  0  0  0  0  0  0  0  0  0  0  0
  141.2140   76.1190  220.2070 C   0  0  0  0  0  0  0  0  0  0  0  0
  140.2648   76.5229  219.8250 H   0  0  0  0  0  0  0  0  0  0  0  0
  141.2491   76.1928  221.3040 H   0  0  0  0  0  0  0  0  0  0  0  0
  141.3260   74.6480  219.8130 C   0  0  0  0  0  0  0  0  0  0  0  0
  141.1987   74.5522  218.7246 H   0  0  0  0  0  0  0  0  0  0  0  0
  140.5440   74.0754  220.3332 H   0  0  0  0  0  0  0  0  0  0  0  0
  1  2  1  0
  2  3  2  0
  3  4  1  0
  3  5  1  0
  5  6  1  0
  5  7  2  0
  7  8  1  0
  8  9  2  0
  9 10  1  0
  8 11  1  0
 11 12  1  0
 11 13  1  0
 11 14  1  0
 14 15  1  0
 15 16  1  0
 16 17  2  0
 17 18  1  0
 18 19  1  0
 19 20  1  0
 19 21  1  0
 19 22  1  0
 22 23  1  0
 22 24  1  0
 22 25  1  0
 25 26  1  0
 25 27  1  0
 25 28  1  0
 28 29  1  0
 28 30  1  0
 28 31  1  0
 31 32  1  0
 31 33  1  0
 17 34  1  0
 34 35  1  0
 34 36  1  0
 36 37  2  0
 37 38  1  0
 37 39  1  0
 39 40  1  0
 39 41  1  0
 39 42  1  0
 42 43  1  1
 42 44  1  0
 44 45  1  0
 44 46  1  0
 44 47  1  0
 47 48  1  0
 47 49  1  0
 49 50  1  0
 49 51  1  0
 49 52  1  0
 52 53  1  0
 52 54  1  0
 36 55  1  0
 14 56  1  0
 56 57  1  0
 56 58  1  0
 56 59  1  0
 59 60  1  0
 59 61  1  0
  9  2  1  0
 55 15  2  0
 59  7  1  0
 31 18  1  0
 52 42  1  0
M  CHG  2  25   1  37   1
M  END
>  <UniqueID>  (48) 
579

>  <SMILES>  (48) 
c1ccc2c(c1)CCN(c1nc(N3CC[NH2+]CC3)[nH]/c(=[NH+]\C[C@H]3CCNC3)n1)C2

>  <Energy>  (48) 
73.46349485923871

>  <Genealogy>  (48) 
c1ccc2c(c1)CCN(c1nc([NH2+]CC3CCNC3)nc(N3CC[NH2+]CC3)n1)C2 (protonated)
c1ccc2c(c1)CCN(c1nc(N3CC[NH2+]CC3)[nH]c(=[NH+]CC3CCNC3)n1)C2 (tautomer)
c1ccc2c(c1)CCN(c1nc(N3CC[NH2+]CC3)[nH]c(=[NH+]C[C@H]3CCNC3)n1)C2 (chirality)
c1ccc2c(c1)CCN(c1nc(N3CC[NH2+]CC3)[nH]/c(=[NH+]\C[C@H]3CCNC3)n1)C2 (cis-trans isomerization)
c1ccc2c(c1)CCN(c1nc(N3CC[NH2+]CC3)[nH]/c(=[NH+]\C[C@H]3CCNC3)n1)C2 (3D coordinates assigned)
c1ccc2c(c1)CCN(c1nc(N3CC[NH2+]CC3)[nH]/c(=[NH+]\C[C@H]3CCNC3)n1)C2 (nonaromatic ring conformer: 73.46349485923871 kcal/mol)

>  <smiles>  (48) 
c1ccc2c(c1)CCN(c1nc(NCC3CCNC3)nc(N3CCNCC3)n1)C2

>  <score_type>  (48) 
oracle

>  <origin>  (48) 
autodockgpu

>  <m_score__min__energy>  (48) 
-8.4900000000000002

>  <m_primary>  (48) 
energy

>  <meeko>  (48) 
{"free_energy": -8.34, "intermolecular_energy": -9.84, "internal_energy": -0.92, "cluster_size": 19, "cluster_id": 2, "rank_in_cluster": 2}

>  <energy>  (48) 
-8.31

>  <cluster_rmsd>  (48) 
0.11

>  <rmsd>  (48) 
270.3

>  <cluster>  (48) 
2

$$$$
RHAOACRWGXEIGT-RBAGJBRXNA-P
     RDKit          3D

 61 65  0  0  0  0  0  0  0  0999 V2000
  146.1449   72.7307  221.1810 H   0  0  0  0  0  0  0  0  0  0  0  0
  145.1650   73.1250  220.8740 C   0  0  0  0  0  0  0  0  0  0  0  0
  144.0410   72.2970  220.8990 C   0  0  0  0  0  0  0  0  0  0  0  0
  144.1375   71.2503  221.2233 H   0  0  0  0  0  0  0  0  0  0  0  0
  142.7940   72.7950  220.5130 C   0  0  0  0  0  0  0  0  0  0  0  0
  141.9127   72.1368  220.5233 H   0  0  0  0  0  0  0  0  0  0  0  0
  142.6640   74.1340  220.1120 C   0  0  0  0  0  0  0  0  0  0  0  0
  143.7950   74.9700  220.0810 C   0  0  0  0  0  0  0  0  0  0  0  0
  145.0460   74.4550  220.4590 C   0  0  0  0  0  0  0  0  0  0  0  0
  145.9360   75.1008  220.4284 H   0  0  0  0  0  0  0  0  0  0  0  0
  143.6970   76.3930  219.5820 C   0  0  0  0  0  0  0  0  0  0  0  0
  144.0713   76.4256  218.5481 H   0  0  0  0  0  0  0  0  0  0  0  0
  144.2954   77.0158  220.2632 H   0  0  0  0  0  0  0  0  0  0  0  0
  142.3230   76.9310  219.5980 N   0  0  0  0  0  0  0  0  0  0  0  0
  142.1270   78.3250  219.2800 C   0  0  0  0  0  0  0  0  0  0  0  0
  142.1540   78.7420  217.9900 N   0  0  0  0  0  0  0  0  0  0  0  0
  141.9810   80.0500  217.6700 C   0  0  0  0  0  0  0  0  0  0  0  0
  142.0250   80.4610  216.2830 N   0  0  0  0  0  0  0  0  0  0  0  0
  141.5190   79.5780  215.2210 C   0  0  0  0  0  0  0  0  0  0  0  0
  141.3288   78.5802  215.6431 H   0  0  0  0  0  0  0  0  0  0  0  0
  140.5907   80.0100  214.8191 H   0  0  0  0  0  0  0  0  0  0  0  0
  142.5410   79.4530  214.0710 C   0  0  0  0  0  0  0  0  0  0  0  0
  143.1717   78.5720  214.2611 H   0  0  0  0  0  0  0  0  0  0  0  0
  141.9657   79.3636  213.1377 H   0  0  0  0  0  0  0  0  0  0  0  0
  143.4190   80.6330  213.9260 N   0  0  0  0  0  0  0  0  0  0  0  0
  143.6730   80.7470  212.9170 H   0  0  0  0  0  0  0  0  0  0  0  0
  144.3060   80.4780  214.4610 H   0  0  0  0  0  0  0  0  0  0  0  0
  142.7860   81.8730  214.3950 C   0  0  0  0  0  0  0  0  0  0  0  0
  143.4518   82.7234  214.1861 H   0  0  0  0  0  0  0  0  0  0  0  0
  141.8290   82.0105  213.8703 H   0  0  0  0  0  0  0  0  0  0  0  0
  142.5250   81.7910  215.9050 C   0  0  0  0  0  0  0  0  0  0  0  0
  143.4637   81.9885  216.4433 H   0  0  0  0  0  0  0  0  0  0  0  0
  141.7635   82.5394  216.1696 H   0  0  0  0  0  0  0  0  0  0  0  0
  141.7820   80.9590  218.6700 N   0  0  0  0  0  0  0  0  0  0  0  0
  141.6380   81.9610  218.4250 H   0  0  0  0  0  0  0  0  0  0  0  0
  141.7540   80.5520  219.9770 C   0  0  0  0  0  0  0  0  0  0  0  0
  141.5680   81.3930  220.9620 N   0  0  0  0  0  0  0  0  0  0  0  0
  142.2080   82.2190  221.0220 H   0  0  0  0  0  0  0  0  0  0  0  0
  140.5130   81.2650  221.9760 C   0  0  0  0  0  0  0  0  0  0  0  0
  139.9916   82.2286  222.0740 H   0  0  0  0  0  0  0  0  0  0  0  0
  139.8170   80.4762  221.6545 H   0  0  0  0  0  0  0  0  0  0  0  0
  141.0980   80.8680  223.3490 C   0  0  2  0  0  0  0  0  0  0  0  0
  140.7304   81.6417  224.0391 H   0  0  0  0  0  0  0  0  0  0  0  0
  142.6220   80.7780  223.3170 C   0  0  0  0  0  0  0  0  0  0  0  0
  143.0328   81.0615  224.2972 H   0  0  0  0  0  0  0  0  0  0  0  0
  143.0279   81.4607  222.5560 H   0  0  0  0  0  0  0  0  0  0  0  0
  142.9900   79.3960  223.0060 N   0  0  0  0  0  0  0  0  0  0  0  0
  143.2390   79.3440  221.9910 H   0  0  0  0  0  0  0  0  0  0  0  0
  141.8020   78.5680  223.2340 C   0  0  0  0  0  0  0  0  0  0  0  0
  142.0276   77.7924  223.9807 H   0  0  0  0  0  0  0  0  0  0  0  0
  141.4967   78.0793  222.2970 H   0  0  0  0  0  0  0  0  0  0  0  0
  140.6830   79.4630  223.7450 C   0  0  0  0  0  0  0  0  0  0  0  0
  140.5893   79.3803  224.8379 H   0  0  0  0  0  0  0  0  0  0  0  0
  139.7050   79.1853  223.3250 H   0  0  0  0  0  0  0  0  0  0  0  0
  141.9280   79.2360  220.2640 N   0  0  0  0  0  0  0  0  0  0  0  0
  141.1880   76.1270  220.0820 C   0  0  0  0  0  0  0  0  0  0  0  0
  140.2554   76.5298  219.6601 H   0  0  0  0  0  0  0  0  0  0  0  0
  141.1653   76.1764  221.1807 H   0  0  0  0  0  0  0  0  0  0  0  0
  141.3370   74.6660  219.6620 C   0  0  0  0  0  0  0  0  0  0  0  0
  141.2684   74.5934  218.5665 H   0  0  0  0  0  0  0  0  0  0  0  0
  140.5350   74.0739  220.1271 H   0  0  0  0  0  0  0  0  0  0  0  0
  1  2  1  0
  2  3  2  0
  3  4  1  0
  3  5  1  0
  5  6  1  0
  5  7  2  0
  7  8  1  0
  8  9  2  0
  9 10  1  0
  8 11  1  0
 11 12  1  0
 11 13  1  0
 11 14  1  0
 14 15  1  0
 15 16  1  0
 16 17  2  0
 17 18  1  0
 18 19  1  0
 19 20  1  0
 19 21  1  0
 19 22  1  0
 22 23  1  0
 22 24  1  0
 22 25  1  0
 25 26  1  0
 25 27  1  0
 25 28  1  0
 28 29  1  0
 28 30  1  0
 28 31  1  0
 31 32  1  0
 31 33  1  0
 17 34  1  0
 34 35  1  0
 34 36  1  0
 36 37  2  0
 37 38  1  0
 37 39  1  0
 39 40  1  0
 39 41  1  0
 39 42  1  0
 42 43  1  1
 42 44  1  0
 44 45  1  0
 44 46  1  0
 44 47  1  0
 47 48  1  0
 47 49  1  0
 49 50  1  0
 49 51  1  0
 49 52  1  0
 52 53  1  0
 52 54  1  0
 36 55  1  0
 14 56  1  0
 56 57  1  0
 56 58  1  0
 56 59  1  0
 59 60  1  0
 59 61  1  0
  9  2  1  0
 55 15  2  0
 59  7  1  0
 31 18  1  0
 52 42  1  0
M  CHG  2  25   1  37   1
M  END
>  <UniqueID>  (49) 
579

>  <SMILES>  (49) 
c1ccc2c(c1)CCN(c1nc(N3CC[NH2+]CC3)[nH]/c(=[NH+]\C[C@H]3CCNC3)n1)C2

>  <Energy>  (49) 
73.46349485923871

>  <Genealogy>  (49) 
c1ccc2c(c1)CCN(c1nc([NH2+]CC3CCNC3)nc(N3CC[NH2+]CC3)n1)C2 (protonated)
c1ccc2c(c1)CCN(c1nc(N3CC[NH2+]CC3)[nH]c(=[NH+]CC3CCNC3)n1)C2 (tautomer)
c1ccc2c(c1)CCN(c1nc(N3CC[NH2+]CC3)[nH]c(=[NH+]C[C@H]3CCNC3)n1)C2 (chirality)
c1ccc2c(c1)CCN(c1nc(N3CC[NH2+]CC3)[nH]/c(=[NH+]\C[C@H]3CCNC3)n1)C2 (cis-trans isomerization)
c1ccc2c(c1)CCN(c1nc(N3CC[NH2+]CC3)[nH]/c(=[NH+]\C[C@H]3CCNC3)n1)C2 (3D coordinates assigned)
c1ccc2c(c1)CCN(c1nc(N3CC[NH2+]CC3)[nH]/c(=[NH+]\C[C@H]3CCNC3)n1)C2 (nonaromatic ring conformer: 73.46349485923871 kcal/mol)

>  <smiles>  (49) 
c1ccc2c(c1)CCN(c1nc(NCC3CCNC3)nc(N3CCNCC3)n1)C2

>  <score_type>  (49) 
oracle

>  <origin>  (49) 
autodockgpu

>  <m_score__min__energy>  (49) 
-8.4900000000000002

>  <m_primary>  (49) 
energy

>  <meeko>  (49) 
{"free_energy": -8.35, "intermolecular_energy": -9.84, "internal_energy": -0.92, "cluster_size": 19, "cluster_id": 2, "rank_in_cluster": 1}

>  <energy>  (49) 
-8.19

>  <cluster_rmsd>  (49) 
1.44

>  <rmsd>  (49) 
270.3

>  <cluster>  (49) 
2

$$$$
RHAOACRWGXEIGT-RBAGJBRXNA-P
     RDKit          3D

 61 65  0  0  0  0  0  0  0  0999 V2000
  146.5164   72.9026  221.0656 H   0  0  0  0  0  0  0  0  0  0  0  0
  145.4730   73.1840  220.8600 C   0  0  0  0  0  0  0  0  0  0  0  0
  144.4540   72.2410  221.0100 C   0  0  0  0  0  0  0  0  0  0  0  0
  144.6962   71.2171  221.3309 H   0  0  0  0  0  0  0  0  0  0  0  0
  143.1270   72.5960  220.7530 C   0  0  0  0  0  0  0  0  0  0  0  0
  142.3278   71.8480  220.8611 H   0  0  0  0  0  0  0  0  0  0  0  0
  142.8120   73.9060  220.3570 C   0  0  0  0  0  0  0  0  0  0  0  0
  143.8370   74.8570  220.2010 C   0  0  0  0  0  0  0  0  0  0  0  0
  145.1690   74.4850  220.4490 C   0  0  0  0  0  0  0  0  0  0  0  0
  145.9762   75.2209  220.3192 H   0  0  0  0  0  0  0  0  0  0  0  0
  143.5350   76.2520  219.7030 C   0  0  0  0  0  0  0  0  0  0  0  0
  143.7952   76.3043  218.6355 H   0  0  0  0  0  0  0  0  0  0  0  0
  144.1295   76.9484  220.3126 H   0  0  0  0  0  0  0  0  0  0  0  0
  142.1200   76.6400  219.8580 N   0  0  0  0  0  0  0  0  0  0  0  0
  141.7430   77.9980  219.5510 C   0  0  0  0  0  0  0  0  0  0  0  0
  141.7860   78.4470  218.2720 N   0  0  0  0  0  0  0  0  0  0  0  0
  141.4450   79.7240  217.9630 C   0  0  0  0  0  0  0  0  0  0  0  0
  141.5110   80.1720  216.5890 N   0  0  0  0  0  0  0  0  0  0  0  0
  140.8210   79.4300  215.5220 C   0  0  0  0  0  0  0  0  0  0  0  0
  140.4733   78.4659  215.9214 H   0  0  0  0  0  0  0  0  0  0  0  0
  139.9696   80.0318  215.1712 H   0  0  0  0  0  0  0  0  0  0  0  0
  141.7640   79.1710  214.3290 C   0  0  0  0  0  0  0  0  0  0  0  0
  142.2364   78.1873  214.4670 H   0  0  0  0  0  0  0  0  0  0  0  0
  141.1496   79.2176  213.4178 H   0  0  0  0  0  0  0  0  0  0  0  0
  142.8310   80.1850  214.1830 N   0  0  0  0  0  0  0  0  0  0  0  0
  143.0650   80.2890  213.1680 H   0  0  0  0  0  0  0  0  0  0  0  0
  143.6950   79.8570  214.6770 H   0  0  0  0  0  0  0  0  0  0  0  0
  142.4430   81.4980  214.7150 C   0  0  0  0  0  0  0  0  0  0  0  0
  143.2405   82.2260  214.5053 H   0  0  0  0  0  0  0  0  0  0  0  0
  141.5076   81.8200  214.2341 H   0  0  0  0  0  0  0  0  0  0  0  0
  142.2240   81.4070  216.2310 C   0  0  0  0  0  0  0  0  0  0  0  0
  143.2009   81.4174  216.7365 H   0  0  0  0  0  0  0  0  0  0  0  0
  141.6156   82.2666  216.5486 H   0  0  0  0  0  0  0  0  0  0  0  0
  141.0550   80.5700  218.9640 N   0  0  0  0  0  0  0  0  0  0  0  0
  140.7830   81.5470  218.7260 H   0  0  0  0  0  0  0  0  0  0  0  0
  141.0090   80.1300  220.2600 C   0  0  0  0  0  0  0  0  0  0  0  0
  140.6440   80.9110  221.2440 N   0  0  0  0  0  0  0  0  0  0  0  0
  139.6440   80.8710  221.5500 H   0  0  0  0  0  0  0  0  0  0  0  0
  141.5450   81.8260  221.9570 C   0  0  0  0  0  0  0  0  0  0  0  0
  142.4431   81.9939  221.3444 H   0  0  0  0  0  0  0  0  0  0  0  0
  141.0109   82.7714  222.1330 H   0  0  0  0  0  0  0  0  0  0  0  0
  141.9700   81.2450  223.3240 C   0  0  2  0  0  0  0  0  0  0  0  0
  142.0828   82.1246  223.9749 H   0  0  0  0  0  0  0  0  0  0  0  0
  143.2490   80.4180  223.2210 C   0  0  0  0  0  0  0  0  0  0  0  0
  143.8230   80.5006  224.1557 H   0  0  0  0  0  0  0  0  0  0  0  0
  143.8742   80.7837  222.3931 H   0  0  0  0  0  0  0  0  0  0  0  0
  142.8700   79.0230  222.9930 N   0  0  0  0  0  0  0  0  0  0  0  0
  142.9800   78.8160  221.9730 H   0  0  0  0  0  0  0  0  0  0  0  0
  141.4510   78.8940  223.3410 C   0  0  0  0  0  0  0  0  0  0  0  0
  141.3293   78.1373  224.1301 H   0  0  0  0  0  0  0  0  0  0  0  0
  140.8724   78.5817  222.4591 H   0  0  0  0  0  0  0  0  0  0  0  0
  140.9550   80.2420  223.8410 C   0  0  0  0  0  0  0  0  0  0  0  0
  140.9195   80.2583  224.9403 H   0  0  0  0  0  0  0  0  0  0  0  0
  139.9360   80.4650  223.4917 H   0  0  0  0  0  0  0  0  0  0  0  0
  141.3540   78.8470  220.5360 N   0  0  0  0  0  0  0  0  0  0  0  0
  141.1350   75.7290  220.4660 C   0  0  0  0  0  0  0  0  0  0  0  0
  140.1255   76.0214  220.1414 H   0  0  0  0  0  0  0  0  0  0  0  0
  141.2212   75.7975  221.5605 H   0  0  0  0  0  0  0  0  0  0  0  0
  141.3970   74.2850  220.0450 C   0  0  0  0  0  0  0  0  0  0  0  0
  141.2235   74.1843  218.9634 H   0  0  0  0  0  0  0  0  0  0  0  0
  140.7164   73.6202  220.5970 H   0  0  0  0  0  0  0  0  0  0  0  0
  1  2  1  0
  2  3  2  0
  3  4  1  0
  3  5  1  0
  5  6  1  0
  5  7  2  0
  7  8  1  0
  8  9  2  0
  9 10  1  0
  8 11  1  0
 11 12  1  0
 11 13  1  0
 11 14  1  0
 14 15  1  0
 15 16  1  0
 16 17  2  0
 17 18  1  0
 18 19  1  0
 19 20  1  0
 19 21  1  0
 19 22  1  0
 22 23  1  0
 22 24  1  0
 22 25  1  0
 25 26  1  0
 25 27  1  0
 25 28  1  0
 28 29  1  0
 28 30  1  0
 28 31  1  0
 31 32  1  0
 31 33  1  0
 17 34  1  0
 34 35  1  0
 34 36  1  0
 36 37  2  0
 37 38  1  0
 37 39  1  0
 39 40  1  0
 39 41  1  0
 39 42  1  0
 42 43  1  1
 42 44  1  0
 44 45  1  0
 44 46  1  0
 44 47  1  0
 47 48  1  0
 47 49  1  0
 49 50  1  0
 49 51  1  0
 49 52  1  0
 52 53  1  0
 52 54  1  0
 36 55  1  0
 14 56  1  0
 56 57  1  0
 56 58  1  0
 56 59  1  0
 59 60  1  0
 59 61  1  0
  9  2  1  0
 55 15  2  0
 59  7  1  0
 31 18  1  0
 52 42  1  0
M  CHG  2  25   1  37   1
M  END
>  <UniqueID>  (50) 
579

>  <SMILES>  (50) 
c1ccc2c(c1)CCN(c1nc(N3CC[NH2+]CC3)[nH]/c(=[NH+]\C[C@H]3CCNC3)n1)C2

>  <Energy>  (50) 
73.46349485923871

>  <Genealogy>  (50) 
c1ccc2c(c1)CCN(c1nc([NH2+]CC3CCNC3)nc(N3CC[NH2+]CC3)n1)C2 (protonated)
c1ccc2c(c1)CCN(c1nc(N3CC[NH2+]CC3)[nH]c(=[NH+]CC3CCNC3)n1)C2 (tautomer)
c1ccc2c(c1)CCN(c1nc(N3CC[NH2+]CC3)[nH]c(=[NH+]C[C@H]3CCNC3)n1)C2 (chirality)
c1ccc2c(c1)CCN(c1nc(N3CC[NH2+]CC3)[nH]/c(=[NH+]\C[C@H]3CCNC3)n1)C2 (cis-trans isomerization)
c1ccc2c(c1)CCN(c1nc(N3CC[NH2+]CC3)[nH]/c(=[NH+]\C[C@H]3CCNC3)n1)C2 (3D coordinates assigned)
c1ccc2c(c1)CCN(c1nc(N3CC[NH2+]CC3)[nH]/c(=[NH+]\C[C@H]3CCNC3)n1)C2 (nonaromatic ring conformer: 73.46349485923871 kcal/mol)

>  <smiles>  (50) 
c1ccc2c(c1)CCN(c1nc(NCC3CCNC3)nc(N3CCNCC3)n1)C2

>  <score_type>  (50) 
oracle

>  <origin>  (50) 
autodockgpu

>  <m_score__min__energy>  (50) 
-8.4900000000000002

>  <m_primary>  (50) 
energy

>  <meeko>  (50) 
{"free_energy": -7.91, "intermolecular_energy": -9.4, "internal_energy": -0.79, "cluster_size": 19, "cluster_id": 2, "rank_in_cluster": 19}

>  <energy>  (50) 
-8.19

>  <cluster_rmsd>  (50) 
1.4

>  <rmsd>  (50) 
270.27

>  <cluster>  (50) 
2

$$$$
RHAOACRWGXEIGT-RBAGJBRXNA-P
     RDKit          3D

 61 65  0  0  0  0  0  0  0  0999 V2000
  146.1143   72.7081  221.1628 H   0  0  0  0  0  0  0  0  0  0  0  0
  145.1370   73.1120  220.8600 C   0  0  0  0  0  0  0  0  0  0  0  0
  144.0070   72.2930  220.8840 C   0  0  0  0  0  0  0  0  0  0  0  0
  144.0959   71.2442  221.2034 H   0  0  0  0  0  0  0  0  0  0  0  0
  142.7630   72.8030  220.5030 C   0  0  0  0  0  0  0  0  0  0  0  0
  141.8762   72.1522  220.5117 H   0  0  0  0  0  0  0  0  0  0  0  0
  142.6440   74.1460  220.1090 C   0  0  0  0  0  0  0  0  0  0  0  0
  143.7820   74.9720  220.0790 C   0  0  0  0  0  0  0  0  0  0  0  0
  145.0290   74.4440  220.4520 C   0  0  0  0  0  0  0  0  0  0  0  0
  145.9246   75.0820  220.4228 H   0  0  0  0  0  0  0  0  0  0  0  0
  143.6950   76.3990  219.5880 C   0  0  0  0  0  0  0  0  0  0  0  0
  144.0681   76.4343  218.5538 H   0  0  0  0  0  0  0  0  0  0  0  0
  144.2995   77.0130  220.2718 H   0  0  0  0  0  0  0  0  0  0  0  0
  142.3260   76.9480  219.6090 N   0  0  0  0  0  0  0  0  0  0  0  0
  142.1410   78.3450  219.2980 C   0  0  0  0  0  0  0  0  0  0  0  0
  142.1520   78.7650  218.0090 N   0  0  0  0  0  0  0  0  0  0  0  0
  141.9910   80.0770  217.6960 C   0  0  0  0  0  0  0  0  0  0  0  0
  142.0170   80.4910  216.3090 N   0  0  0  0  0  0  0  0  0  0  0  0
  141.5020   79.6090  215.2510 C   0  0  0  0  0  0  0  0  0  0  0  0
  141.3206   78.6094  215.6727 H   0  0  0  0  0  0  0  0  0  0  0  0
  140.5673   80.0384  214.8611 H   0  0  0  0  0  0  0  0  0  0  0  0
  142.5110   79.4910  214.0890 C   0  0  0  0  0  0  0  0  0  0  0  0
  143.1472   78.6119  214.2693 H   0  0  0  0  0  0  0  0  0  0  0  0
  141.9252   79.4019  213.1622 H   0  0  0  0  0  0  0  0  0  0  0  0
  143.3830   80.6750  213.9370 N   0  0  0  0  0  0  0  0  0  0  0  0
  143.6260   80.7920  212.9260 H   0  0  0  0  0  0  0  0  0  0  0  0
  144.2770   80.5210  214.4620 H   0  0  0  0  0  0  0  0  0  0  0  0
  142.7520   81.9110  214.4170 C   0  0  0  0  0  0  0  0  0  0  0  0
  143.4130   82.7639  214.2034 H   0  0  0  0  0  0  0  0  0  0  0  0
  141.7887   82.0470  213.9036 H   0  0  0  0  0  0  0  0  0  0  0  0
  142.5080   81.8240  215.9290 C   0  0  0  0  0  0  0  0  0  0  0  0
  143.4518   82.0236  216.4575 H   0  0  0  0  0  0  0  0  0  0  0  0
  141.7466   82.5688  216.2040 H   0  0  0  0  0  0  0  0  0  0  0  0
  141.8180   80.9850  218.7020 N   0  0  0  0  0  0  0  0  0  0  0  0
  141.6820   81.9890  218.4620 H   0  0  0  0  0  0  0  0  0  0  0  0
  141.8060   80.5740  220.0080 C   0  0  0  0  0  0  0  0  0  0  0  0
  141.6450   81.4150  220.9980 N   0  0  0  0  0  0  0  0  0  0  0  0
  142.3210   82.2100  221.0730 H   0  0  0  0  0  0  0  0  0  0  0  0
  140.5730   81.3250  221.9970 C   0  0  0  0  0  0  0  0  0  0  0  0
  140.0948   82.3104  222.0986 H   0  0  0  0  0  0  0  0  0  0  0  0
  139.8464   80.5718  221.6584 H   0  0  0  0  0  0  0  0  0  0  0  0
  141.1210   80.8880  223.3730 C   0  0  2  0  0  0  0  0  0  0  0  0
  140.7556   81.6554  224.0713 H   0  0  0  0  0  0  0  0  0  0  0  0
  142.6440   80.7660  223.3690 C   0  0  0  0  0  0  0  0  0  0  0  0
  143.0414   81.0221  224.3622 H   0  0  0  0  0  0  0  0  0  0  0  0
  143.0800   81.4541  222.6298 H   0  0  0  0  0  0  0  0  0  0  0  0
  142.9870   79.3830  223.0390 N   0  0  0  0  0  0  0  0  0  0  0  0
  143.2560   79.3460  222.0270 H   0  0  0  0  0  0  0  0  0  0  0  0
  141.7780   78.5760  223.2270 C   0  0  0  0  0  0  0  0  0  0  0  0
  141.9722   77.7817  223.9628 H   0  0  0  0  0  0  0  0  0  0  0  0
  141.4817   78.1115  222.2749 H   0  0  0  0  0  0  0  0  0  0  0  0
  140.6680   79.4850  223.7330 C   0  0  0  0  0  0  0  0  0  0  0  0
  140.5502   79.3834  224.8219 H   0  0  0  0  0  0  0  0  0  0  0  0
  139.6930   79.2367  223.2883 H   0  0  0  0  0  0  0  0  0  0  0  0
  141.9680   79.2560  220.2880 N   0  0  0  0  0  0  0  0  0  0  0  0
  141.1850   76.1510  220.0910 C   0  0  0  0  0  0  0  0  0  0  0  0
  140.2551   76.5635  219.6725 H   0  0  0  0  0  0  0  0  0  0  0  0
  141.1645   76.1954  221.1899 H   0  0  0  0  0  0  0  0  0  0  0  0
  141.3210   74.6910  219.6640 C   0  0  0  0  0  0  0  0  0  0  0  0
  141.2498   74.6241  218.5683 H   0  0  0  0  0  0  0  0  0  0  0  0
  140.5149   74.1034  220.1277 H   0  0  0  0  0  0  0  0  0  0  0  0
  1  2  1  0
  2  3  2  0
  3  4  1  0
  3  5  1  0
  5  6  1  0
  5  7  2  0
  7  8  1  0
  8  9  2  0
  9 10  1  0
  8 11  1  0
 11 12  1  0
 11 13  1  0
 11 14  1  0
 14 15  1  0
 15 16  1  0
 16 17  2  0
 17 18  1  0
 18 19  1  0
 19 20  1  0
 19 21  1  0
 19 22  1  0
 22 23  1  0
 22 24  1  0
 22 25  1  0
 25 26  1  0
 25 27  1  0
 25 28  1  0
 28 29  1  0
 28 30  1  0
 28 31  1  0
 31 32  1  0
 31 33  1  0
 17 34  1  0
 34 35  1  0
 34 36  1  0
 36 37  2  0
 37 38  1  0
 37 39  1  0
 39 40  1  0
 39 41  1  0
 39 42  1  0
 42 43  1  1
 42 44  1  0
 44 45  1  0
 44 46  1  0
 44 47  1  0
 47 48  1  0
 47 49  1  0
 49 50  1  0
 49 51  1  0
 49 52  1  0
 52 53  1  0
 52 54  1  0
 36 55  1  0
 14 56  1  0
 56 57  1  0
 56 58  1  0
 56 59  1  0
 59 60  1  0
 59 61  1  0
  9  2  1  0
 55 15  2  0
 59  7  1  0
 31 18  1  0
 52 42  1  0
M  CHG  2  25   1  37   1
M  END
>  <UniqueID>  (51) 
579

>  <SMILES>  (51) 
c1ccc2c(c1)CCN(c1nc(N3CC[NH2+]CC3)[nH]/c(=[NH+]\C[C@H]3CCNC3)n1)C2

>  <Energy>  (51) 
73.46349485923871

>  <Genealogy>  (51) 
c1ccc2c(c1)CCN(c1nc([NH2+]CC3CCNC3)nc(N3CC[NH2+]CC3)n1)C2 (protonated)
c1ccc2c(c1)CCN(c1nc(N3CC[NH2+]CC3)[nH]c(=[NH+]CC3CCNC3)n1)C2 (tautomer)
c1ccc2c(c1)CCN(c1nc(N3CC[NH2+]CC3)[nH]c(=[NH+]C[C@H]3CCNC3)n1)C2 (chirality)
c1ccc2c(c1)CCN(c1nc(N3CC[NH2+]CC3)[nH]/c(=[NH+]\C[C@H]3CCNC3)n1)C2 (cis-trans isomerization)
c1ccc2c(c1)CCN(c1nc(N3CC[NH2+]CC3)[nH]/c(=[NH+]\C[C@H]3CCNC3)n1)C2 (3D coordinates assigned)
c1ccc2c(c1)CCN(c1nc(N3CC[NH2+]CC3)[nH]/c(=[NH+]\C[C@H]3CCNC3)n1)C2 (nonaromatic ring conformer: 73.46349485923871 kcal/mol)

>  <smiles>  (51) 
c1ccc2c(c1)CCN(c1nc(NCC3CCNC3)nc(N3CCNCC3)n1)C2

>  <score_type>  (51) 
oracle

>  <origin>  (51) 
autodockgpu

>  <m_score__min__energy>  (51) 
-8.4900000000000002

>  <m_primary>  (51) 
energy

>  <meeko>  (51) 
{"free_energy": -8.34, "intermolecular_energy": -9.83, "internal_energy": -0.91, "cluster_size": 19, "cluster_id": 2, "rank_in_cluster": 3}

>  <energy>  (51) 
-8.19

>  <cluster_rmsd>  (51) 
1.46

>  <rmsd>  (51) 
270.3

>  <cluster>  (51) 
2

$$$$
RHAOACRWGXEIGT-RBAGJBRXNA-P
     RDKit          3D

 61 65  0  0  0  0  0  0  0  0999 V2000
  146.0711   72.6677  221.1530 H   0  0  0  0  0  0  0  0  0  0  0  0
  145.0990   73.0860  220.8530 C   0  0  0  0  0  0  0  0  0  0  0  0
  143.9570   72.2830  220.8760 C   0  0  0  0  0  0  0  0  0  0  0  0
  144.0320   71.2316  221.1904 H   0  0  0  0  0  0  0  0  0  0  0  0
  142.7200   72.8110  220.5010 C   0  0  0  0  0  0  0  0  0  0  0  0
  141.8244   72.1723  220.5102 H   0  0  0  0  0  0  0  0  0  0  0  0
  142.6180   74.1570  220.1120 C   0  0  0  0  0  0  0  0  0  0  0  0
  143.7670   74.9680  220.0820 C   0  0  0  0  0  0  0  0  0  0  0  0
  145.0080   74.4210  220.4490 C   0  0  0  0  0  0  0  0  0  0  0  0
  145.9124   75.0464  220.4183 H   0  0  0  0  0  0  0  0  0  0  0  0
  143.6980   76.3970  219.5960 C   0  0  0  0  0  0  0  0  0  0  0  0
  144.0683   76.4305  218.5608 H   0  0  0  0  0  0  0  0  0  0  0  0
  144.3129   77.0005  220.2799 H   0  0  0  0  0  0  0  0  0  0  0  0
  142.3360   76.9650  219.6230 N   0  0  0  0  0  0  0  0  0  0  0  0
  142.1700   78.3650  219.3170 C   0  0  0  0  0  0  0  0  0  0  0  0
  142.1760   78.7890  218.0290 N   0  0  0  0  0  0  0  0  0  0  0  0
  142.0310   80.1030  217.7210 C   0  0  0  0  0  0  0  0  0  0  0  0
  142.0500   80.5210  216.3350 N   0  0  0  0  0  0  0  0  0  0  0  0
  141.5110   79.6510  215.2800 C   0  0  0  0  0  0  0  0  0  0  0  0
  141.3171   78.6534  215.7010 H   0  0  0  0  0  0  0  0  0  0  0  0
  140.5802   80.0974  214.9001 H   0  0  0  0  0  0  0  0  0  0  0  0
  142.5060   79.5190  214.1080 C   0  0  0  0  0  0  0  0  0  0  0  0
  143.1289   78.6288  214.2798 H   0  0  0  0  0  0  0  0  0  0  0  0
  141.9095   79.4424  213.1869 H   0  0  0  0  0  0  0  0  0  0  0  0
  143.3970   80.6890  213.9500 N   0  0  0  0  0  0  0  0  0  0  0  0
  143.6310   80.8050  212.9370 H   0  0  0  0  0  0  0  0  0  0  0  0
  144.2930   80.5190  214.4660 H   0  0  0  0  0  0  0  0  0  0  0  0
  142.7910   81.9340  214.4400 C   0  0  0  0  0  0  0  0  0  0  0  0
  143.4639   82.7765  214.2224 H   0  0  0  0  0  0  0  0  0  0  0  0
  141.8251   82.0870  213.9364 H   0  0  0  0  0  0  0  0  0  0  0  0
  142.5600   81.8470  215.9540 C   0  0  0  0  0  0  0  0  0  0  0  0
  143.5121   82.0291  216.4740 H   0  0  0  0  0  0  0  0  0  0  0  0
  141.8141   82.6039  216.2383 H   0  0  0  0  0  0  0  0  0  0  0  0
  141.8810   81.0120  218.7310 N   0  0  0  0  0  0  0  0  0  0  0  0
  141.7580   82.0180  218.4950 H   0  0  0  0  0  0  0  0  0  0  0  0
  141.8750   80.5970  220.0360 C   0  0  0  0  0  0  0  0  0  0  0  0
  141.7360   81.4370  221.0300 N   0  0  0  0  0  0  0  0  0  0  0  0
  142.4480   82.1980  221.1250 H   0  0  0  0  0  0  0  0  0  0  0  0
  140.6410   81.3930  222.0070 C   0  0  0  0  0  0  0  0  0  0  0  0
  140.2116   82.4005  222.1094 H   0  0  0  0  0  0  0  0  0  0  0  0
  139.8833   80.6814  221.6471 H   0  0  0  0  0  0  0  0  0  0  0  0
  141.1400   80.9160  223.3890 C   0  0  2  0  0  0  0  0  0  0  0  0
  140.7612   81.6705  224.0941 H   0  0  0  0  0  0  0  0  0  0  0  0
  142.6600   80.7760  223.4310 C   0  0  0  0  0  0  0  0  0  0  0  0
  143.0275   81.0023  224.4428 H   0  0  0  0  0  0  0  0  0  0  0  0
  143.1271   81.4772  222.7238 H   0  0  0  0  0  0  0  0  0  0  0  0
  142.9990   79.3980  223.0770 N   0  0  0  0  0  0  0  0  0  0  0  0
  143.3000   79.3820  222.0740 H   0  0  0  0  0  0  0  0  0  0  0  0
  141.7750   78.6010  223.2060 C   0  0  0  0  0  0  0  0  0  0  0  0
  141.9364   77.7863  223.9273 H   0  0  0  0  0  0  0  0  0  0  0  0
  141.5042   78.1641  222.2335 H   0  0  0  0  0  0  0  0  0  0  0  0
  140.6600   79.5100  223.6990 C   0  0  0  0  0  0  0  0  0  0  0  0
  140.5062   79.3828  224.7807 H   0  0  0  0  0  0  0  0  0  0  0  0
  139.6971   79.2845  223.2174 H   0  0  0  0  0  0  0  0  0  0  0  0
  142.0200   79.2760  220.3120 N   0  0  0  0  0  0  0  0  0  0  0  0
  141.1870   76.1820  220.1050 C   0  0  0  0  0  0  0  0  0  0  0  0
  140.2616   76.6086  219.6908 H   0  0  0  0  0  0  0  0  0  0  0  0
  141.1712   76.2224  221.2041 H   0  0  0  0  0  0  0  0  0  0  0  0
  141.3010   74.7220  219.6730 C   0  0  0  0  0  0  0  0  0  0  0  0
  141.2253   74.6597  218.5774 H   0  0  0  0  0  0  0  0  0  0  0  0
  140.4883   74.1443  220.1375 H   0  0  0  0  0  0  0  0  0  0  0  0
  1  2  1  0
  2  3  2  0
  3  4  1  0
  3  5  1  0
  5  6  1  0
  5  7  2  0
  7  8  1  0
  8  9  2  0
  9 10  1  0
  8 11  1  0
 11 12  1  0
 11 13  1  0
 11 14  1  0
 14 15  1  0
 15 16  1  0
 16 17  2  0
 17 18  1  0
 18 19  1  0
 19 20  1  0
 19 21  1  0
 19 22  1  0
 22 23  1  0
 22 24  1  0
 22 25  1  0
 25 26  1  0
 25 27  1  0
 25 28  1  0
 28 29  1  0
 28 30  1  0
 28 31  1  0
 31 32  1  0
 31 33  1  0
 17 34  1  0
 34 35  1  0
 34 36  1  0
 36 37  2  0
 37 38  1  0
 37 39  1  0
 39 40  1  0
 39 41  1  0
 39 42  1  0
 42 43  1  1
 42 44  1  0
 44 45  1  0
 44 46  1  0
 44 47  1  0
 47 48  1  0
 47 49  1  0
 49 50  1  0
 49 51  1  0
 49 52  1  0
 52 53  1  0
 52 54  1  0
 36 55  1  0
 14 56  1  0
 56 57  1  0
 56 58  1  0
 56 59  1  0
 59 60  1  0
 59 61  1  0
  9  2  1  0
 55 15  2  0
 59  7  1  0
 31 18  1  0
 52 42  1  0
M  CHG  2  25   1  37   1
M  END
>  <UniqueID>  (52) 
579

>  <SMILES>  (52) 
c1ccc2c(c1)CCN(c1nc(N3CC[NH2+]CC3)[nH]/c(=[NH+]\C[C@H]3CCNC3)n1)C2

>  <Energy>  (52) 
73.46349485923871

>  <Genealogy>  (52) 
c1ccc2c(c1)CCN(c1nc([NH2+]CC3CCNC3)nc(N3CC[NH2+]CC3)n1)C2 (protonated)
c1ccc2c(c1)CCN(c1nc(N3CC[NH2+]CC3)[nH]c(=[NH+]CC3CCNC3)n1)C2 (tautomer)
c1ccc2c(c1)CCN(c1nc(N3CC[NH2+]CC3)[nH]c(=[NH+]C[C@H]3CCNC3)n1)C2 (chirality)
c1ccc2c(c1)CCN(c1nc(N3CC[NH2+]CC3)[nH]/c(=[NH+]\C[C@H]3CCNC3)n1)C2 (cis-trans isomerization)
c1ccc2c(c1)CCN(c1nc(N3CC[NH2+]CC3)[nH]/c(=[NH+]\C[C@H]3CCNC3)n1)C2 (3D coordinates assigned)
c1ccc2c(c1)CCN(c1nc(N3CC[NH2+]CC3)[nH]/c(=[NH+]\C[C@H]3CCNC3)n1)C2 (nonaromatic ring conformer: 73.46349485923871 kcal/mol)

>  <smiles>  (52) 
c1ccc2c(c1)CCN(c1nc(NCC3CCNC3)nc(N3CCNCC3)n1)C2

>  <score_type>  (52) 
oracle

>  <origin>  (52) 
autodockgpu

>  <m_score__min__energy>  (52) 
-8.4900000000000002

>  <m_primary>  (52) 
energy

>  <meeko>  (52) 
{"free_energy": -8.32, "intermolecular_energy": -9.81, "internal_energy": -0.9, "cluster_size": 19, "cluster_id": 2, "rank_in_cluster": 6}

>  <energy>  (52) 
-8.19

>  <cluster_rmsd>  (52) 
1.43

>  <rmsd>  (52) 
270.25

>  <cluster>  (52) 
2

$$$$
RHAOACRWGXEIGT-RBAGJBRXNA-P
     RDKit          3D

 61 65  0  0  0  0  0  0  0  0999 V2000
  146.4860   72.9157  221.2184 H   0  0  0  0  0  0  0  0  0  0  0  0
  145.4790   73.2070  220.8850 C   0  0  0  0  0  0  0  0  0  0  0  0
  144.4480   72.2650  220.8750 C   0  0  0  0  0  0  0  0  0  0  0  0
  144.6451   71.2320  221.1977 H   0  0  0  0  0  0  0  0  0  0  0  0
  143.1670   72.6320  220.4560 C   0  0  0  0  0  0  0  0  0  0  0  0
  142.3599   71.8849  220.4386 H   0  0  0  0  0  0  0  0  0  0  0  0
  142.9080   73.9530  220.0570 C   0  0  0  0  0  0  0  0  0  0  0  0
  143.9450   74.9040  220.0610 C   0  0  0  0  0  0  0  0  0  0  0  0
  145.2330   74.5190  220.4720 C   0  0  0  0  0  0  0  0  0  0  0  0
  146.0512   75.2542  220.4685 H   0  0  0  0  0  0  0  0  0  0  0  0
  143.7120   76.3120  219.5660 C   0  0  0  0  0  0  0  0  0  0  0  0
  144.1096   76.3913  218.5434 H   0  0  0  0  0  0  0  0  0  0  0  0
  144.2223   76.9889  220.2671 H   0  0  0  0  0  0  0  0  0  0  0  0
  142.2900   76.7030  219.5450 N   0  0  0  0  0  0  0  0  0  0  0  0
  141.9570   78.0710  219.2280 C   0  0  0  0  0  0  0  0  0  0  0  0
  142.0330   78.5130  217.9480 N   0  0  0  0  0  0  0  0  0  0  0  0
  141.7340   79.7980  217.6290 C   0  0  0  0  0  0  0  0  0  0  0  0
  141.8340   80.2380  216.2540 N   0  0  0  0  0  0  0  0  0  0  0  0
  141.2660   79.4310  215.1640 C   0  0  0  0  0  0  0  0  0  0  0  0
  140.9814   78.4442  215.5580 H   0  0  0  0  0  0  0  0  0  0  0  0
  140.3859   79.9548  214.7627 H   0  0  0  0  0  0  0  0  0  0  0  0
  142.2880   79.2430  214.0230 C   0  0  0  0  0  0  0  0  0  0  0  0
  142.8339   78.3040  214.1969 H   0  0  0  0  0  0  0  0  0  0  0  0
  141.7197   79.2297  213.0813 H   0  0  0  0  0  0  0  0  0  0  0  0
  143.2710   80.3420  213.9190 N   0  0  0  0  0  0  0  0  0  0  0  0
  143.5490   80.4580  212.9170 H   0  0  0  0  0  0  0  0  0  0  0  0
  144.1330   80.0930  214.4610 H   0  0  0  0  0  0  0  0  0  0  0  0
  142.7470   81.6220  214.4130 C   0  0  0  0  0  0  0  0  0  0  0  0
  143.4904   82.4130  214.2347 H   0  0  0  0  0  0  0  0  0  0  0  0
  141.8141   81.8596  213.8807 H   0  0  0  0  0  0  0  0  0  0  0  0
  142.4580   81.5260  215.9170 C   0  0  0  0  0  0  0  0  0  0  0  0
  143.4030   81.6236  216.4715 H   0  0  0  0  0  0  0  0  0  0  0  0
  141.7637   82.3336  216.1920 H   0  0  0  0  0  0  0  0  0  0  0  0
  141.3550   80.6590  218.6210 N   0  0  0  0  0  0  0  0  0  0  0  0
  141.1150   81.6420  218.3760 H   0  0  0  0  0  0  0  0  0  0  0  0
  141.2760   80.2260  219.9180 C   0  0  0  0  0  0  0  0  0  0  0  0
  140.9190   81.0210  220.8930 N   0  0  0  0  0  0  0  0  0  0  0  0
  139.8950   81.1780  221.0420 H   0  0  0  0  0  0  0  0  0  0  0  0
  141.8570   81.6940  221.8020 C   0  0  0  0  0  0  0  0  0  0  0  0
  142.8789   81.5785  221.4117 H   0  0  0  0  0  0  0  0  0  0  0  0
  141.5800   82.7569  221.8611 H   0  0  0  0  0  0  0  0  0  0  0  0
  141.7910   81.0940  223.2240 C   0  0  2  0  0  0  0  0  0  0  0  0
  141.9603   81.9504  223.8933 H   0  0  0  0  0  0  0  0  0  0  0  0
  142.8140   79.9770  223.4210 C   0  0  0  0  0  0  0  0  0  0  0  0
  143.1540   79.9627  224.4671 H   0  0  0  0  0  0  0  0  0  0  0  0
  143.6868   80.1401  222.7717 H   0  0  0  0  0  0  0  0  0  0  0  0
  142.1670   78.7060  223.0920 N   0  0  0  0  0  0  0  0  0  0  0  0
  142.4610   78.4300  222.1260 H   0  0  0  0  0  0  0  0  0  0  0  0
  140.7200   78.9410  223.0870 C   0  0  0  0  0  0  0  0  0  0  0  0
  140.2329   78.2748  223.8142 H   0  0  0  0  0  0  0  0  0  0  0  0
  140.3072   78.7365  222.0881 H   0  0  0  0  0  0  0  0  0  0  0  0
  140.4680   80.3920  223.4700 C   0  0  0  0  0  0  0  0  0  0  0  0
  140.1797   80.4687  224.5288 H   0  0  0  0  0  0  0  0  0  0  0  0
  139.6473   80.8380  222.8890 H   0  0  0  0  0  0  0  0  0  0  0  0
  141.5790   78.9340  220.2030 N   0  0  0  0  0  0  0  0  0  0  0  0
  141.2330   75.7810  219.9940 C   0  0  0  0  0  0  0  0  0  0  0  0
  140.2751   76.0868  219.5480 H   0  0  0  0  0  0  0  0  0  0  0  0
  141.1759   75.8201  221.0918 H   0  0  0  0  0  0  0  0  0  0  0  0
  141.5450   74.3470  219.5730 C   0  0  0  0  0  0  0  0  0  0  0  0
  141.5136   74.2749  218.4758 H   0  0  0  0  0  0  0  0  0  0  0  0
  140.7972   73.6715  220.0140 H   0  0  0  0  0  0  0  0  0  0  0  0
  1  2  1  0
  2  3  2  0
  3  4  1  0
  3  5  1  0
  5  6  1  0
  5  7  2  0
  7  8  1  0
  8  9  2  0
  9 10  1  0
  8 11  1  0
 11 12  1  0
 11 13  1  0
 11 14  1  0
 14 15  1  0
 15 16  1  0
 16 17  2  0
 17 18  1  0
 18 19  1  0
 19 20  1  0
 19 21  1  0
 19 22  1  0
 22 23  1  0
 22 24  1  0
 22 25  1  0
 25 26  1  0
 25 27  1  0
 25 28  1  0
 28 29  1  0
 28 30  1  0
 28 31  1  0
 31 32  1  0
 31 33  1  0
 17 34  1  0
 34 35  1  0
 34 36  1  0
 36 37  2  0
 37 38  1  0
 37 39  1  0
 39 40  1  0
 39 41  1  0
 39 42  1  0
 42 43  1  1
 42 44  1  0
 44 45  1  0
 44 46  1  0
 44 47  1  0
 47 48  1  0
 47 49  1  0
 49 50  1  0
 49 51  1  0
 49 52  1  0
 52 53  1  0
 52 54  1  0
 36 55  1  0
 14 56  1  0
 56 57  1  0
 56 58  1  0
 56 59  1  0
 59 60  1  0
 59 61  1  0
  9  2  1  0
 55 15  2  0
 59  7  1  0
 31 18  1  0
 52 42  1  0
M  CHG  2  25   1  37   1
M  END
>  <UniqueID>  (53) 
579

>  <SMILES>  (53) 
c1ccc2c(c1)CCN(c1nc(N3CC[NH2+]CC3)[nH]/c(=[NH+]\C[C@H]3CCNC3)n1)C2

>  <Energy>  (53) 
73.46349485923871

>  <Genealogy>  (53) 
c1ccc2c(c1)CCN(c1nc([NH2+]CC3CCNC3)nc(N3CC[NH2+]CC3)n1)C2 (protonated)
c1ccc2c(c1)CCN(c1nc(N3CC[NH2+]CC3)[nH]c(=[NH+]CC3CCNC3)n1)C2 (tautomer)
c1ccc2c(c1)CCN(c1nc(N3CC[NH2+]CC3)[nH]c(=[NH+]C[C@H]3CCNC3)n1)C2 (chirality)
c1ccc2c(c1)CCN(c1nc(N3CC[NH2+]CC3)[nH]/c(=[NH+]\C[C@H]3CCNC3)n1)C2 (cis-trans isomerization)
c1ccc2c(c1)CCN(c1nc(N3CC[NH2+]CC3)[nH]/c(=[NH+]\C[C@H]3CCNC3)n1)C2 (3D coordinates assigned)
c1ccc2c(c1)CCN(c1nc(N3CC[NH2+]CC3)[nH]/c(=[NH+]\C[C@H]3CCNC3)n1)C2 (nonaromatic ring conformer: 73.46349485923871 kcal/mol)

>  <smiles>  (53) 
c1ccc2c(c1)CCN(c1nc(NCC3CCNC3)nc(N3CCNCC3)n1)C2

>  <score_type>  (53) 
oracle

>  <origin>  (53) 
autodockgpu

>  <m_score__min__energy>  (53) 
-8.4900000000000002

>  <m_primary>  (53) 
energy

>  <meeko>  (53) 
{"free_energy": -7.98, "intermolecular_energy": -9.47, "internal_energy": -0.87, "cluster_size": 19, "cluster_id": 2, "rank_in_cluster": 16}

>  <energy>  (53) 
-8.19

>  <cluster_rmsd>  (53) 
1.43

>  <rmsd>  (53) 
270.28

>  <cluster>  (53) 
2

$$$$
RHAOACRWGXEIGT-RBAGJBRXNA-P
     RDKit          3D

 61 65  0  0  0  0  0  0  0  0999 V2000
  144.9676   72.1866  221.4037 H   0  0  0  0  0  0  0  0  0  0  0  0
  144.7050   72.7940  220.5250 C   0  0  0  0  0  0  0  0  0  0  0  0
  144.7130   72.2190  219.2530 C   0  0  0  0  0  0  0  0  0  0  0  0
  144.9841   71.1600  219.1306 H   0  0  0  0  0  0  0  0  0  0  0  0
  144.3770   72.9870  218.1350 C   0  0  0  0  0  0  0  0  0  0  0  0
  144.3954   72.5346  217.1325 H   0  0  0  0  0  0  0  0  0  0  0  0
  144.0160   74.3350  218.2890 C   0  0  0  0  0  0  0  0  0  0  0  0
  144.0110   74.9180  219.5700 C   0  0  0  0  0  0  0  0  0  0  0  0
  144.3640   74.1400  220.6840 C   0  0  0  0  0  0  0  0  0  0  0  0
  144.3722   74.5920  221.6868 H   0  0  0  0  0  0  0  0  0  0  0  0
  143.7000   76.3850  219.7550 C   0  0  0  0  0  0  0  0  0  0  0  0
  144.6477   76.9271  219.8890 H   0  0  0  0  0  0  0  0  0  0  0  0
  143.0431   76.4670  220.6335 H   0  0  0  0  0  0  0  0  0  0  0  0
  142.9770   76.9840  218.6170 N   0  0  0  0  0  0  0  0  0  0  0  0
  142.5000   78.3400  218.7420 C   0  0  0  0  0  0  0  0  0  0  0  0
  142.8120   79.2640  217.8000 N   0  0  0  0  0  0  0  0  0  0  0  0
  142.3820   80.5480  217.9050 C   0  0  0  0  0  0  0  0  0  0  0  0
  142.7420   81.5090  216.8850 N   0  0  0  0  0  0  0  0  0  0  0  0
  141.9290   81.6540  215.6680 C   0  0  0  0  0  0  0  0  0  0  0  0
  141.2091   80.8240  215.6154 H   0  0  0  0  0  0  0  0  0  0  0  0
  141.4024   82.6188  215.7113 H   0  0  0  0  0  0  0  0  0  0  0  0
  142.8160   81.6340  214.4040 C   0  0  0  0  0  0  0  0  0  0  0  0
  142.8700   80.5995  214.0339 H   0  0  0  0  0  0  0  0  0  0  0  0
  142.3535   82.3165  213.6757 H   0  0  0  0  0  0  0  0  0  0  0  0
  144.1930   82.1190  214.6370 N   0  0  0  0  0  0  0  0  0  0  0  0
  144.5450   82.5770  213.7640 H   0  0  0  0  0  0  0  0  0  0  0  0
  144.8200   81.3050  214.8440 H   0  0  0  0  0  0  0  0  0  0  0  0
  144.2760   83.0830  215.7420 C   0  0  0  0  0  0  0  0  0  0  0  0
  145.3042   83.4675  215.8131 H   0  0  0  0  0  0  0  0  0  0  0  0
  143.5792   83.9122  215.5500 H   0  0  0  0  0  0  0  0  0  0  0  0
  143.8960   82.4030  217.0630 C   0  0  0  0  0  0  0  0  0  0  0  0
  144.7531   81.8158  217.4244 H   0  0  0  0  0  0  0  0  0  0  0  0
  143.6260   83.1814  217.7918 H   0  0  0  0  0  0  0  0  0  0  0  0
  141.6250   80.9110  218.9830 N   0  0  0  0  0  0  0  0  0  0  0  0
  141.2860   81.8920  219.0580 H   0  0  0  0  0  0  0  0  0  0  0  0
  141.3040   79.9880  219.9420 C   0  0  0  0  0  0  0  0  0  0  0  0
  140.5840   80.2990  220.9890 N   0  0  0  0  0  0  0  0  0  0  0  0
  139.7750   79.6760  221.2240 H   0  0  0  0  0  0  0  0  0  0  0  0
  140.8430   81.4500  221.8640 C   0  0  0  0  0  0  0  0  0  0  0  0
  141.4538   82.1843  221.3184 H   0  0  0  0  0  0  0  0  0  0  0  0
  139.8770   81.8872  222.1568 H   0  0  0  0  0  0  0  0  0  0  0  0
  141.5930   81.0250  223.1450 C   0  0  2  0  0  0  0  0  0  0  0  0
  141.5854   81.9239  223.7789 H   0  0  0  0  0  0  0  0  0  0  0  0
  143.0040   80.5240  222.8420 C   0  0  0  0  0  0  0  0  0  0  0  0
  143.6739   80.7670  223.6800 H   0  0  0  0  0  0  0  0  0  0  0  0
  143.3922   81.0054  221.9323 H   0  0  0  0  0  0  0  0  0  0  0  0
  142.9420   79.0730  222.6610 N   0  0  0  0  0  0  0  0  0  0  0  0
  142.9450   78.8720  221.6330 H   0  0  0  0  0  0  0  0  0  0  0  0
  141.6640   78.6190  223.2180 C   0  0  0  0  0  0  0  0  0  0  0  0
  141.8464   77.8763  224.0087 H   0  0  0  0  0  0  0  0  0  0  0  0
  141.0524   78.1549  222.4303 H   0  0  0  0  0  0  0  0  0  0  0  0
  140.9390   79.8220  223.8010 C   0  0  0  0  0  0  0  0  0  0  0  0
  141.0663   79.8593  224.8930 H   0  0  0  0  0  0  0  0  0  0  0  0
  139.8558   79.7848  223.6133 H   0  0  0  0  0  0  0  0  0  0  0  0
  141.7480   78.7120  219.8080 N   0  0  0  0  0  0  0  0  0  0  0  0
  142.5970   76.1830  217.4410 C   0  0  0  0  0  0  0  0  0  0  0  0
  142.4393   76.8542  216.5839 H   0  0  0  0  0  0  0  0  0  0  0  0
  141.6731   75.6334  217.6740 H   0  0  0  0  0  0  0  0  0  0  0  0
  143.6890   75.1750  217.0920 C   0  0  0  0  0  0  0  0  0  0  0  0
  144.5916   75.7139  216.7682 H   0  0  0  0  0  0  0  0  0  0  0  0
  143.3314   74.5230  216.2814 H   0  0  0  0  0  0  0  0  0  0  0  0
  1  2  1  0
  2  3  2  0
  3  4  1  0
  3  5  1  0
  5  6  1  0
  5  7  2  0
  7  8  1  0
  8  9  2  0
  9 10  1  0
  8 11  1  0
 11 12  1  0
 11 13  1  0
 11 14  1  0
 14 15  1  0
 15 16  1  0
 16 17  2  0
 17 18  1  0
 18 19  1  0
 19 20  1  0
 19 21  1  0
 19 22  1  0
 22 23  1  0
 22 24  1  0
 22 25  1  0
 25 26  1  0
 25 27  1  0
 25 28  1  0
 28 29  1  0
 28 30  1  0
 28 31  1  0
 31 32  1  0
 31 33  1  0
 17 34  1  0
 34 35  1  0
 34 36  1  0
 36 37  2  0
 37 38  1  0
 37 39  1  0
 39 40  1  0
 39 41  1  0
 39 42  1  0
 42 43  1  1
 42 44  1  0
 44 45  1  0
 44 46  1  0
 44 47  1  0
 47 48  1  0
 47 49  1  0
 49 50  1  0
 49 51  1  0
 49 52  1  0
 52 53  1  0
 52 54  1  0
 36 55  1  0
 14 56  1  0
 56 57  1  0
 56 58  1  0
 56 59  1  0
 59 60  1  0
 59 61  1  0
  9  2  1  0
 55 15  2  0
 59  7  1  0
 31 18  1  0
 52 42  1  0
M  CHG  2  25   1  37   1
M  END
>  <UniqueID>  (54) 
579

>  <SMILES>  (54) 
c1ccc2c(c1)CCN(c1nc(N3CC[NH2+]CC3)[nH]/c(=[NH+]\C[C@H]3CCNC3)n1)C2

>  <Energy>  (54) 
73.46349485923871

>  <Genealogy>  (54) 
c1ccc2c(c1)CCN(c1nc([NH2+]CC3CCNC3)nc(N3CC[NH2+]CC3)n1)C2 (protonated)
c1ccc2c(c1)CCN(c1nc(N3CC[NH2+]CC3)[nH]c(=[NH+]CC3CCNC3)n1)C2 (tautomer)
c1ccc2c(c1)CCN(c1nc(N3CC[NH2+]CC3)[nH]c(=[NH+]C[C@H]3CCNC3)n1)C2 (chirality)
c1ccc2c(c1)CCN(c1nc(N3CC[NH2+]CC3)[nH]/c(=[NH+]\C[C@H]3CCNC3)n1)C2 (cis-trans isomerization)
c1ccc2c(c1)CCN(c1nc(N3CC[NH2+]CC3)[nH]/c(=[NH+]\C[C@H]3CCNC3)n1)C2 (3D coordinates assigned)
c1ccc2c(c1)CCN(c1nc(N3CC[NH2+]CC3)[nH]/c(=[NH+]\C[C@H]3CCNC3)n1)C2 (nonaromatic ring conformer: 73.46349485923871 kcal/mol)

>  <smiles>  (54) 
c1ccc2c(c1)CCN(c1nc(NCC3CCNC3)nc(N3CCNCC3)n1)C2

>  <score_type>  (54) 
oracle

>  <origin>  (54) 
autodockgpu

>  <m_score__min__energy>  (54) 
-8.4900000000000002

>  <m_primary>  (54) 
energy

>  <meeko>  (54) 
{"free_energy": -8.19, "intermolecular_energy": -9.69, "internal_energy": -0.87, "cluster_size": 19, "cluster_id": 2, "rank_in_cluster": 8}

>  <energy>  (54) 
-8.1

>  <cluster_rmsd>  (54) 
0.83

>  <rmsd>  (54) 
270.19

>  <cluster>  (54) 
2

$$$$
RHAOACRWGXEIGT-RBAGJBRXNA-P
     RDKit          3D

 61 65  0  0  0  0  0  0  0  0999 V2000
  144.9066   72.1718  221.3782 H   0  0  0  0  0  0  0  0  0  0  0  0
  144.6560   72.7850  220.5000 C   0  0  0  0  0  0  0  0  0  0  0  0
  144.6630   72.2140  219.2260 C   0  0  0  0  0  0  0  0  0  0  0  0
  144.9231   71.1525  219.1013 H   0  0  0  0  0  0  0  0  0  0  0  0
  144.3400   72.9890  218.1090 C   0  0  0  0  0  0  0  0  0  0  0  0
  144.3561   72.5389  217.1054 H   0  0  0  0  0  0  0  0  0  0  0  0
  143.9950   74.3410  218.2650 C   0  0  0  0  0  0  0  0  0  0  0  0
  143.9920   74.9200  219.5470 C   0  0  0  0  0  0  0  0  0  0  0  0
  144.3310   74.1350  220.6610 C   0  0  0  0  0  0  0  0  0  0  0  0
  144.3408   74.5845  221.6649 H   0  0  0  0  0  0  0  0  0  0  0  0
  143.6970   76.3900  219.7360 C   0  0  0  0  0  0  0  0  0  0  0  0
  144.6502   76.9208  219.8763 H   0  0  0  0  0  0  0  0  0  0  0  0
  143.0372   76.4767  220.6118 H   0  0  0  0  0  0  0  0  0  0  0  0
  142.9860   77.0010  218.5960 N   0  0  0  0  0  0  0  0  0  0  0  0
  142.5250   78.3620  218.7240 C   0  0  0  0  0  0  0  0  0  0  0  0
  142.8600   79.2870  217.7900 N   0  0  0  0  0  0  0  0  0  0  0  0
  142.4450   80.5750  217.8970 C   0  0  0  0  0  0  0  0  0  0  0  0
  142.8290   81.5380  216.8860 N   0  0  0  0  0  0  0  0  0  0  0  0
  142.0210   81.7140  215.6700 C   0  0  0  0  0  0  0  0  0  0  0  0
  141.2814   80.9020  215.6093 H   0  0  0  0  0  0  0  0  0  0  0  0
  141.5185   82.6911  215.7225 H   0  0  0  0  0  0  0  0  0  0  0  0
  142.9060   81.6850  214.4070 C   0  0  0  0  0  0  0  0  0  0  0  0
  142.9341   80.6534  214.0261 H   0  0  0  0  0  0  0  0  0  0  0  0
  142.4608   82.3862  213.6859 H   0  0  0  0  0  0  0  0  0  0  0  0
  144.2950   82.1330  214.6450 N   0  0  0  0  0  0  0  0  0  0  0  0
  144.6590   82.5910  213.7770 H   0  0  0  0  0  0  0  0  0  0  0  0
  144.9020   81.3030  214.8440 H   0  0  0  0  0  0  0  0  0  0  0  0
  144.4020   83.0840  215.7590 C   0  0  0  0  0  0  0  0  0  0  0  0
  145.4394   83.4421  215.8335 H   0  0  0  0  0  0  0  0  0  0  0  0
  143.7261   83.9321  215.5750 H   0  0  0  0  0  0  0  0  0  0  0  0
  144.0050   82.4010  217.0740 C   0  0  0  0  0  0  0  0  0  0  0  0
  144.8470   81.7891  217.4299 H   0  0  0  0  0  0  0  0  0  0  0  0
  143.7548   83.1784  217.8109 H   0  0  0  0  0  0  0  0  0  0  0  0
  141.6800   80.9420  218.9680 N   0  0  0  0  0  0  0  0  0  0  0  0
  141.3520   81.9280  219.0440 H   0  0  0  0  0  0  0  0  0  0  0  0
  141.3360   80.0190  219.9190 C   0  0  0  0  0  0  0  0  0  0  0  0
  140.6070   80.3330  220.9590 N   0  0  0  0  0  0  0  0  0  0  0  0
  139.7740   79.7340  221.1660 H   0  0  0  0  0  0  0  0  0  0  0  0
  140.8890   81.4570  221.8610 C   0  0  0  0  0  0  0  0  0  0  0  0
  141.5429   82.1753  221.3447 H   0  0  0  0  0  0  0  0  0  0  0  0
  139.9342   81.9282  222.1371 H   0  0  0  0  0  0  0  0  0  0  0  0
  141.5880   80.9790  223.1530 C   0  0  2  0  0  0  0  0  0  0  0  0
  141.5734   81.8572  223.8153 H   0  0  0  0  0  0  0  0  0  0  0  0
  143.0000   80.4650  222.8830 C   0  0  0  0  0  0  0  0  0  0  0  0
  143.6438   80.6700  223.7510 H   0  0  0  0  0  0  0  0  0  0  0  0
  143.4273   80.9687  222.0034 H   0  0  0  0  0  0  0  0  0  0  0  0
  142.9220   79.0220  222.6530 N   0  0  0  0  0  0  0  0  0  0  0  0
  142.9580   78.8530  221.6200 H   0  0  0  0  0  0  0  0  0  0  0  0
  141.6180   78.5710  223.1500 C   0  0  0  0  0  0  0  0  0  0  0  0
  141.7607   77.8007  223.9221 H   0  0  0  0  0  0  0  0  0  0  0  0
  141.0275   78.1416  222.3273 H   0  0  0  0  0  0  0  0  0  0  0  0
  140.8920   79.7680  223.7460 C   0  0  0  0  0  0  0  0  0  0  0  0
  140.9809   79.7684  224.8424 H   0  0  0  0  0  0  0  0  0  0  0  0
  139.8157   79.7556  223.5192 H   0  0  0  0  0  0  0  0  0  0  0  0
  141.7650   78.7380  219.7830 N   0  0  0  0  0  0  0  0  0  0  0  0
  142.6010   76.2080  217.4170 C   0  0  0  0  0  0  0  0  0  0  0  0
  142.4548   76.8833  216.5611 H   0  0  0  0  0  0  0  0  0  0  0  0
  141.6697   75.6691  217.6454 H   0  0  0  0  0  0  0  0  0  0  0  0
  143.6820   75.1870  217.0690 C   0  0  0  0  0  0  0  0  0  0  0  0
  144.5921   75.7155  216.7489 H   0  0  0  0  0  0  0  0  0  0  0  0
  143.3189   74.5410  216.2561 H   0  0  0  0  0  0  0  0  0  0  0  0
  1  2  1  0
  2  3  2  0
  3  4  1  0
  3  5  1  0
  5  6  1  0
  5  7  2  0
  7  8  1  0
  8  9  2  0
  9 10  1  0
  8 11  1  0
 11 12  1  0
 11 13  1  0
 11 14  1  0
 14 15  1  0
 15 16  1  0
 16 17  2  0
 17 18  1  0
 18 19  1  0
 19 20  1  0
 19 21  1  0
 19 22  1  0
 22 23  1  0
 22 24  1  0
 22 25  1  0
 25 26  1  0
 25 27  1  0
 25 28  1  0
 28 29  1  0
 28 30  1  0
 28 31  1  0
 31 32  1  0
 31 33  1  0
 17 34  1  0
 34 35  1  0
 34 36  1  0
 36 37  2  0
 37 38  1  0
 37 39  1  0
 39 40  1  0
 39 41  1  0
 39 42  1  0
 42 43  1  1
 42 44  1  0
 44 45  1  0
 44 46  1  0
 44 47  1  0
 47 48  1  0
 47 49  1  0
 49 50  1  0
 49 51  1  0
 49 52  1  0
 52 53  1  0
 52 54  1  0
 36 55  1  0
 14 56  1  0
 56 57  1  0
 56 58  1  0
 56 59  1  0
 59 60  1  0
 59 61  1  0
  9  2  1  0
 55 15  2  0
 59  7  1  0
 31 18  1  0
 52 42  1  0
M  CHG  2  25   1  37   1
M  END
>  <UniqueID>  (55) 
579

>  <SMILES>  (55) 
c1ccc2c(c1)CCN(c1nc(N3CC[NH2+]CC3)[nH]/c(=[NH+]\C[C@H]3CCNC3)n1)C2

>  <Energy>  (55) 
73.46349485923871

>  <Genealogy>  (55) 
c1ccc2c(c1)CCN(c1nc([NH2+]CC3CCNC3)nc(N3CC[NH2+]CC3)n1)C2 (protonated)
c1ccc2c(c1)CCN(c1nc(N3CC[NH2+]CC3)[nH]c(=[NH+]CC3CCNC3)n1)C2 (tautomer)
c1ccc2c(c1)CCN(c1nc(N3CC[NH2+]CC3)[nH]c(=[NH+]C[C@H]3CCNC3)n1)C2 (chirality)
c1ccc2c(c1)CCN(c1nc(N3CC[NH2+]CC3)[nH]/c(=[NH+]\C[C@H]3CCNC3)n1)C2 (cis-trans isomerization)
c1ccc2c(c1)CCN(c1nc(N3CC[NH2+]CC3)[nH]/c(=[NH+]\C[C@H]3CCNC3)n1)C2 (3D coordinates assigned)
c1ccc2c(c1)CCN(c1nc(N3CC[NH2+]CC3)[nH]/c(=[NH+]\C[C@H]3CCNC3)n1)C2 (nonaromatic ring conformer: 73.46349485923871 kcal/mol)

>  <smiles>  (55) 
c1ccc2c(c1)CCN(c1nc(NCC3CCNC3)nc(N3CCNCC3)n1)C2

>  <score_type>  (55) 
oracle

>  <origin>  (55) 
autodockgpu

>  <m_score__min__energy>  (55) 
-8.4900000000000002

>  <m_primary>  (55) 
energy

>  <meeko>  (55) 
{"free_energy": -8.19, "intermolecular_energy": -9.68, "internal_energy": -0.88, "cluster_size": 19, "cluster_id": 2, "rank_in_cluster": 10}

>  <energy>  (55) 
-8.09

>  <cluster_rmsd>  (55) 
1.2

>  <rmsd>  (55) 
270.44

>  <cluster>  (55) 
2

$$$$
RHAOACRWGXEIGT-RBAGJBRXNA-P
     RDKit          3D

 61 65  0  0  0  0  0  0  0  0999 V2000
  145.2769   72.6484  221.2050 H   0  0  0  0  0  0  0  0  0  0  0  0
  144.6590   73.1550  220.4490 C   0  0  0  0  0  0  0  0  0  0  0  0
  144.0190   72.4090  219.4570 C   0  0  0  0  0  0  0  0  0  0  0  0
  144.1363   71.3156  219.4306 H   0  0  0  0  0  0  0  0  0  0  0  0
  143.2300   73.0490  218.4980 C   0  0  0  0  0  0  0  0  0  0  0  0
  142.7356   72.4597  217.7117 H   0  0  0  0  0  0  0  0  0  0  0  0
  143.0670   74.4430  218.5360 C   0  0  0  0  0  0  0  0  0  0  0  0
  143.7140   75.1980  219.5310 C   0  0  0  0  0  0  0  0  0  0  0  0
  144.5150   74.5450  220.4820 C   0  0  0  0  0  0  0  0  0  0  0  0
  145.0317   75.1304  221.2568 H   0  0  0  0  0  0  0  0  0  0  0  0
  143.6160   76.7060  219.5500 C   0  0  0  0  0  0  0  0  0  0  0  0
  144.5402   77.1200  219.1206 H   0  0  0  0  0  0  0  0  0  0  0  0
  143.4705   77.0067  220.5980 H   0  0  0  0  0  0  0  0  0  0  0  0
  142.4690   77.2330  218.7850 N   0  0  0  0  0  0  0  0  0  0  0  0
  142.1920   78.6470  218.8500 C   0  0  0  0  0  0  0  0  0  0  0  0
  142.5220   79.4570  217.8140 N   0  0  0  0  0  0  0  0  0  0  0  0
  142.2790   80.7920  217.8590 C   0  0  0  0  0  0  0  0  0  0  0  0
  142.6530   81.6270  216.7380 N   0  0  0  0  0  0  0  0  0  0  0  0
  141.9200   81.5510  215.4660 C   0  0  0  0  0  0  0  0  0  0  0  0
  141.2535   80.6762  215.4869 H   0  0  0  0  0  0  0  0  0  0  0  0
  141.3385   82.4764  215.3414 H   0  0  0  0  0  0  0  0  0  0  0  0
  142.8910   81.4170  214.2740 C   0  0  0  0  0  0  0  0  0  0  0  0
  143.0292   80.3475  214.0571 H   0  0  0  0  0  0  0  0  0  0  0  0
  142.4417   81.9616  213.4304 H   0  0  0  0  0  0  0  0  0  0  0  0
  144.2190   82.0190  214.5190 N   0  0  0  0  0  0  0  0  0  0  0  0
  144.6040   82.3760  213.6140 H   0  0  0  0  0  0  0  0  0  0  0  0
  144.8750   81.2850  214.8760 H   0  0  0  0  0  0  0  0  0  0  0  0
  144.1710   83.1280  215.4800 C   0  0  0  0  0  0  0  0  0  0  0  0
  145.1685   83.5850  215.5586 H   0  0  0  0  0  0  0  0  0  0  0  0
  143.4437   83.8760  215.1313 H   0  0  0  0  0  0  0  0  0  0  0  0
  143.7390   82.6110  216.8590 C   0  0  0  0  0  0  0  0  0  0  0  0
  144.6008   82.1365  217.3511 H   0  0  0  0  0  0  0  0  0  0  0  0
  143.3753   83.4621  217.4534 H   0  0  0  0  0  0  0  0  0  0  0  0
  141.6940   81.3250  218.9730 N   0  0  0  0  0  0  0  0  0  0  0  0
  141.4970   82.3470  219.0040 H   0  0  0  0  0  0  0  0  0  0  0  0
  141.3570   80.5190  220.0280 C   0  0  0  0  0  0  0  0  0  0  0  0
  140.7980   80.9930  221.1120 N   0  0  0  0  0  0  0  0  0  0  0  0
  139.8190   80.6890  221.3250 H   0  0  0  0  0  0  0  0  0  0  0  0
  141.4560   81.9070  222.0540 C   0  0  0  0  0  0  0  0  0  0  0  0
  142.3287   82.3612  221.5620 H   0  0  0  0  0  0  0  0  0  0  0  0
  140.7313   82.6790  222.3519 H   0  0  0  0  0  0  0  0  0  0  0  0
  141.9250   81.1630  223.3240 C   0  0  2  0  0  0  0  0  0  0  0  0
  142.0331   81.9530  224.0818 H   0  0  0  0  0  0  0  0  0  0  0  0
  143.2200   80.3880  223.0880 C   0  0  0  0  0  0  0  0  0  0  0  0
  143.8134   80.3621  224.0138 H   0  0  0  0  0  0  0  0  0  0  0  0
  143.8181   80.8739  222.3030 H   0  0  0  0  0  0  0  0  0  0  0  0
  142.8660   79.0260  222.6870 N   0  0  0  0  0  0  0  0  0  0  0  0
  142.9580   78.9580  221.6460 H   0  0  0  0  0  0  0  0  0  0  0  0
  141.4600   78.8180  223.0420 C   0  0  0  0  0  0  0  0  0  0  0  0
  141.3726   77.9611  223.7262 H   0  0  0  0  0  0  0  0  0  0  0  0
  140.8689   78.6111  222.1377 H   0  0  0  0  0  0  0  0  0  0  0  0
  140.9450   80.0760  223.7260 C   0  0  0  0  0  0  0  0  0  0  0  0
  140.9355   79.9472  224.8184 H   0  0  0  0  0  0  0  0  0  0  0  0
  139.9130   80.3168  223.4311 H   0  0  0  0  0  0  0  0  0  0  0  0
  141.6110   79.1880  219.9510 N   0  0  0  0  0  0  0  0  0  0  0  0
  141.5240   76.3350  218.1020 C   0  0  0  0  0  0  0  0  0  0  0  0
  141.0114   76.8917  217.3037 H   0  0  0  0  0  0  0  0  0  0  0  0
  140.7973   75.9634  218.8394 H   0  0  0  0  0  0  0  0  0  0  0  0
  142.2520   75.1400  217.4900 C   0  0  0  0  0  0  0  0  0  0  0  0
  142.9155   75.4910  216.6859 H   0  0  0  0  0  0  0  0  0  0  0  0
  141.5106   74.4365  217.0832 H   0  0  0  0  0  0  0  0  0  0  0  0
  1  2  1  0
  2  3  2  0
  3  4  1  0
  3  5  1  0
  5  6  1  0
  5  7  2  0
  7  8  1  0
  8  9  2  0
  9 10  1  0
  8 11  1  0
 11 12  1  0
 11 13  1  0
 11 14  1  0
 14 15  1  0
 15 16  1  0
 16 17  2  0
 17 18  1  0
 18 19  1  0
 19 20  1  0
 19 21  1  0
 19 22  1  0
 22 23  1  0
 22 24  1  0
 22 25  1  0
 25 26  1  0
 25 27  1  0
 25 28  1  0
 28 29  1  0
 28 30  1  0
 28 31  1  0
 31 32  1  0
 31 33  1  0
 17 34  1  0
 34 35  1  0
 34 36  1  0
 36 37  2  0
 37 38  1  0
 37 39  1  0
 39 40  1  0
 39 41  1  0
 39 42  1  0
 42 43  1  1
 42 44  1  0
 44 45  1  0
 44 46  1  0
 44 47  1  0
 47 48  1  0
 47 49  1  0
 49 50  1  0
 49 51  1  0
 49 52  1  0
 52 53  1  0
 52 54  1  0
 36 55  1  0
 14 56  1  0
 56 57  1  0
 56 58  1  0
 56 59  1  0
 59 60  1  0
 59 61  1  0
  9  2  1  0
 55 15  2  0
 59  7  1  0
 31 18  1  0
 52 42  1  0
M  CHG  2  25   1  37   1
M  END
>  <UniqueID>  (56) 
579

>  <SMILES>  (56) 
c1ccc2c(c1)CCN(c1nc(N3CC[NH2+]CC3)[nH]/c(=[NH+]\C[C@H]3CCNC3)n1)C2

>  <Energy>  (56) 
73.46349485923871

>  <Genealogy>  (56) 
c1ccc2c(c1)CCN(c1nc([NH2+]CC3CCNC3)nc(N3CC[NH2+]CC3)n1)C2 (protonated)
c1ccc2c(c1)CCN(c1nc(N3CC[NH2+]CC3)[nH]c(=[NH+]CC3CCNC3)n1)C2 (tautomer)
c1ccc2c(c1)CCN(c1nc(N3CC[NH2+]CC3)[nH]c(=[NH+]C[C@H]3CCNC3)n1)C2 (chirality)
c1ccc2c(c1)CCN(c1nc(N3CC[NH2+]CC3)[nH]/c(=[NH+]\C[C@H]3CCNC3)n1)C2 (cis-trans isomerization)
c1ccc2c(c1)CCN(c1nc(N3CC[NH2+]CC3)[nH]/c(=[NH+]\C[C@H]3CCNC3)n1)C2 (3D coordinates assigned)
c1ccc2c(c1)CCN(c1nc(N3CC[NH2+]CC3)[nH]/c(=[NH+]\C[C@H]3CCNC3)n1)C2 (nonaromatic ring conformer: 73.46349485923871 kcal/mol)

>  <smiles>  (56) 
c1ccc2c(c1)CCN(c1nc(NCC3CCNC3)nc(N3CCNCC3)n1)C2

>  <score_type>  (56) 
oracle

>  <origin>  (56) 
autodockgpu

>  <m_score__min__energy>  (56) 
-8.4900000000000002

>  <m_primary>  (56) 
energy

>  <meeko>  (56) 
{"free_energy": -7.97, "intermolecular_energy": -9.47, "internal_energy": -0.89, "cluster_size": 19, "cluster_id": 2, "rank_in_cluster": 17}

>  <energy>  (56) 
-8.05

>  <cluster_rmsd>  (56) 
1.23

>  <rmsd>  (56) 
270.44

>  <cluster>  (56) 
2

$$$$
RHAOACRWGXEIGT-RBAGJBRXNA-P
     RDKit          3D

 61 65  0  0  0  0  0  0  0  0999 V2000
  146.0342   72.5570  221.1635 H   0  0  0  0  0  0  0  0  0  0  0  0
  145.1170   72.9630  220.7120 C   0  0  0  0  0  0  0  0  0  0  0  0
  144.0870   72.1010  220.3290 C   0  0  0  0  0  0  0  0  0  0  0  0
  144.1961   71.0163  220.4759 H   0  0  0  0  0  0  0  0  0  0  0  0
  142.9190   72.6130  219.7600 C   0  0  0  0  0  0  0  0  0  0  0  0
  142.1143   71.9301  219.4499 H   0  0  0  0  0  0  0  0  0  0  0  0
  142.7700   73.9980  219.5830 C   0  0  0  0  0  0  0  0  0  0  0  0
  143.8080   74.8690  219.9620 C   0  0  0  0  0  0  0  0  0  0  0  0
  144.9830   74.3410  220.5220 C   0  0  0  0  0  0  0  0  0  0  0  0
  145.8019   75.0156  220.8125 H   0  0  0  0  0  0  0  0  0  0  0  0
  143.7050   76.3560  219.7140 C   0  0  0  0  0  0  0  0  0  0  0  0
  144.2938   76.6009  218.8177 H   0  0  0  0  0  0  0  0  0  0  0  0
  144.0852   76.8607  220.6144 H   0  0  0  0  0  0  0  0  0  0  0  0
  142.3210   76.8250  219.5060 N   0  0  0  0  0  0  0  0  0  0  0  0
  142.0860   78.2450  219.4030 C   0  0  0  0  0  0  0  0  0  0  0  0
  142.0920   78.8530  218.1900 N   0  0  0  0  0  0  0  0  0  0  0  0
  141.8830   80.1890  218.0720 C   0  0  0  0  0  0  0  0  0  0  0  0
  141.9050   80.8050  216.7630 N   0  0  0  0  0  0  0  0  0  0  0  0
  141.2630   80.1520  215.6130 C   0  0  0  0  0  0  0  0  0  0  0  0
  140.9897   79.1232  215.8904 H   0  0  0  0  0  0  0  0  0  0  0  0
  140.3676   80.7290  215.3384 H   0  0  0  0  0  0  0  0  0  0  0  0
  142.2120   80.1110  214.3970 C   0  0  0  0  0  0  0  0  0  0  0  0
  142.7556   79.1548  214.4127 H   0  0  0  0  0  0  0  0  0  0  0  0
  141.5881   80.2242  213.4982 H   0  0  0  0  0  0  0  0  0  0  0  0
  143.2010   81.2100  214.3780 N   0  0  0  0  0  0  0  0  0  0  0  0
  143.4190   81.4550  213.3840 H   0  0  0  0  0  0  0  0  0  0  0  0
  144.0900   80.8880  214.8280 H   0  0  0  0  0  0  0  0  0  0  0  0
  142.7230   82.4160  215.0670 C   0  0  0  0  0  0  0  0  0  0  0  0
  143.4640   83.2204  214.9494 H   0  0  0  0  0  0  0  0  0  0  0  0
  141.7630   82.7255  214.6282 H   0  0  0  0  0  0  0  0  0  0  0  0
  142.5230   82.1240  216.5600 C   0  0  0  0  0  0  0  0  0  0  0  0
  143.5004   82.1443  217.0642 H   0  0  0  0  0  0  0  0  0  0  0  0
  141.8556   82.8910  216.9798 H   0  0  0  0  0  0  0  0  0  0  0  0
  141.6660   80.9310  219.1990 N   0  0  0  0  0  0  0  0  0  0  0  0
  141.4950   81.9540  219.1080 H   0  0  0  0  0  0  0  0  0  0  0  0
  141.6590   80.3310  220.4300 C   0  0  0  0  0  0  0  0  0  0  0  0
  141.4580   81.0090  221.5310 N   0  0  0  0  0  0  0  0  0  0  0  0
  140.7320   81.7620  221.5100 H   0  0  0  0  0  0  0  0  0  0  0  0
  142.1690   80.7720  222.7940 C   0  0  0  0  0  0  0  0  0  0  0  0
  143.0984   80.2223  222.5842 H   0  0  0  0  0  0  0  0  0  0  0  0
  142.3885   81.7455  223.2568 H   0  0  0  0  0  0  0  0  0  0  0  0
  141.3080   79.9480  223.7770 C   0  0  2  0  0  0  0  0  0  0  0  0
  141.3436   80.5170  224.7177 H   0  0  0  0  0  0  0  0  0  0  0  0
  141.8240   78.5190  223.9290 C   0  0  0  0  0  0  0  0  0  0  0  0
  141.6241   78.1566  224.9482 H   0  0  0  0  0  0  0  0  0  0  0  0
  142.9091   78.4844  223.7519 H   0  0  0  0  0  0  0  0  0  0  0  0
  141.1240   77.6780  222.9570 N   0  0  0  0  0  0  0  0  0  0  0  0
  141.7590   77.5280  222.1380 H   0  0  0  0  0  0  0  0  0  0  0  0
  139.9480   78.4260  222.5010 C   0  0  0  0  0  0  0  0  0  0  0  0
  139.0360   77.8471  222.7088 H   0  0  0  0  0  0  0  0  0  0  0  0
  140.0127   78.6082  221.4181 H   0  0  0  0  0  0  0  0  0  0  0  0
  139.8990   79.7480  223.2510 C   0  0  0  0  0  0  0  0  0  0  0  0
  139.1793   79.6960  224.0812 H   0  0  0  0  0  0  0  0  0  0  0  0
  139.5745   80.5787  222.6071 H   0  0  0  0  0  0  0  0  0  0  0  0
  141.8700   78.9920  220.5140 N   0  0  0  0  0  0  0  0  0  0  0  0
  141.1780   75.8990  219.5650 C   0  0  0  0  0  0  0  0  0  0  0  0
  140.3309   76.3371  219.0169 H   0  0  0  0  0  0  0  0  0  0  0  0
  140.9108   75.7373  220.6197 H   0  0  0  0  0  0  0  0  0  0  0  0
  141.5350   74.5520  218.9400 C   0  0  0  0  0  0  0  0  0  0  0  0
  141.7144   74.6866  217.8631 H   0  0  0  0  0  0  0  0  0  0  0  0
  140.7021   73.8505  219.0955 H   0  0  0  0  0  0  0  0  0  0  0  0
  1  2  1  0
  2  3  2  0
  3  4  1  0
  3  5  1  0
  5  6  1  0
  5  7  2  0
  7  8  1  0
  8  9  2  0
  9 10  1  0
  8 11  1  0
 11 12  1  0
 11 13  1  0
 11 14  1  0
 14 15  1  0
 15 16  1  0
 16 17  2  0
 17 18  1  0
 18 19  1  0
 19 20  1  0
 19 21  1  0
 19 22  1  0
 22 23  1  0
 22 24  1  0
 22 25  1  0
 25 26  1  0
 25 27  1  0
 25 28  1  0
 28 29  1  0
 28 30  1  0
 28 31  1  0
 31 32  1  0
 31 33  1  0
 17 34  1  0
 34 35  1  0
 34 36  1  0
 36 37  2  0
 37 38  1  0
 37 39  1  0
 39 40  1  0
 39 41  1  0
 39 42  1  0
 42 43  1  1
 42 44  1  0
 44 45  1  0
 44 46  1  0
 44 47  1  0
 47 48  1  0
 47 49  1  0
 49 50  1  0
 49 51  1  0
 49 52  1  0
 52 53  1  0
 52 54  1  0
 36 55  1  0
 14 56  1  0
 56 57  1  0
 56 58  1  0
 56 59  1  0
 59 60  1  0
 59 61  1  0
  9  2  1  0
 55 15  2  0
 59  7  1  0
 31 18  1  0
 52 42  1  0
M  CHG  2  25   1  37   1
M  END
>  <UniqueID>  (57) 
579

>  <SMILES>  (57) 
c1ccc2c(c1)CCN(c1nc(N3CC[NH2+]CC3)[nH]/c(=[NH+]\C[C@H]3CCNC3)n1)C2

>  <Energy>  (57) 
73.46349485923871

>  <Genealogy>  (57) 
c1ccc2c(c1)CCN(c1nc([NH2+]CC3CCNC3)nc(N3CC[NH2+]CC3)n1)C2 (protonated)
c1ccc2c(c1)CCN(c1nc(N3CC[NH2+]CC3)[nH]c(=[NH+]CC3CCNC3)n1)C2 (tautomer)
c1ccc2c(c1)CCN(c1nc(N3CC[NH2+]CC3)[nH]c(=[NH+]C[C@H]3CCNC3)n1)C2 (chirality)
c1ccc2c(c1)CCN(c1nc(N3CC[NH2+]CC3)[nH]/c(=[NH+]\C[C@H]3CCNC3)n1)C2 (cis-trans isomerization)
c1ccc2c(c1)CCN(c1nc(N3CC[NH2+]CC3)[nH]/c(=[NH+]\C[C@H]3CCNC3)n1)C2 (3D coordinates assigned)
c1ccc2c(c1)CCN(c1nc(N3CC[NH2+]CC3)[nH]/c(=[NH+]\C[C@H]3CCNC3)n1)C2 (nonaromatic ring conformer: 73.46349485923871 kcal/mol)

>  <smiles>  (57) 
c1ccc2c(c1)CCN(c1nc(NCC3CCNC3)nc(N3CCNCC3)n1)C2

>  <score_type>  (57) 
oracle

>  <origin>  (57) 
autodockgpu

>  <m_score__min__energy>  (57) 
-8.4900000000000002

>  <m_primary>  (57) 
energy

>  <meeko>  (57) 
{"free_energy": -7.97, "intermolecular_energy": -9.46, "internal_energy": -0.84, "cluster_size": 19, "cluster_id": 2, "rank_in_cluster": 18}

>  <energy>  (57) 
-7.98

>  <cluster_rmsd>  (57) 
0.72

>  <rmsd>  (57) 
270.08

>  <cluster>  (57) 
2

$$$$
RHAOACRWGXEIGT-RBAGJBRXNA-P
     RDKit          3D

 61 65  0  0  0  0  0  0  0  0999 V2000
  138.4192   79.4397  225.1107 H   0  0  0  0  0  0  0  0  0  0  0  0
  138.8610   79.8000  224.1700 C   0  0  0  0  0  0  0  0  0  0  0  0
  138.8560   81.1640  223.8750 C   0  0  0  0  0  0  0  0  0  0  0  0
  138.4060   81.8765  224.5820 H   0  0  0  0  0  0  0  0  0  0  0  0
  139.4210   81.6270  222.6840 C   0  0  0  0  0  0  0  0  0  0  0  0
  139.4060   82.7018  222.4503 H   0  0  0  0  0  0  0  0  0  0  0  0
  140.0080   80.7220  221.7850 C   0  0  0  0  0  0  0  0  0  0  0  0
  140.0100   79.3450  222.0770 C   0  0  0  0  0  0  0  0  0  0  0  0
  139.4270   78.8910  223.2710 C   0  0  0  0  0  0  0  0  0  0  0  0
  139.4155   77.8152  223.5001 H   0  0  0  0  0  0  0  0  0  0  0  0
  140.5680   78.3430  221.0930 C   0  0  0  0  0  0  0  0  0  0  0  0
  139.7279   77.8769  220.5573 H   0  0  0  0  0  0  0  0  0  0  0  0
  141.1517   77.6127  221.6726 H   0  0  0  0  0  0  0  0  0  0  0  0
  141.4830   78.9370  220.0990 N   0  0  0  0  0  0  0  0  0  0  0  0
  142.1860   78.0540  219.2000 C   0  0  0  0  0  0  0  0  0  0  0  0
  142.2080   78.3110  217.8680 N   0  0  0  0  0  0  0  0  0  0  0  0
  142.8560   77.4880  217.0040 C   0  0  0  0  0  0  0  0  0  0  0  0
  142.8500   77.7870  215.5890 N   0  0  0  0  0  0  0  0  0  0  0  0
  143.5490   76.9160  214.6330 C   0  0  0  0  0  0  0  0  0  0  0  0
  144.1763   76.2033  215.1884 H   0  0  0  0  0  0  0  0  0  0  0  0
  142.7977   76.3827  214.0320 H   0  0  0  0  0  0  0  0  0  0  0  0
  144.4430   77.7400  213.6820 C   0  0  0  0  0  0  0  0  0  0  0  0
  145.4551   77.7871  214.1102 H   0  0  0  0  0  0  0  0  0  0  0  0
  144.4246   77.2354  212.7048 H   0  0  0  0  0  0  0  0  0  0  0  0
  143.9630   79.1210  213.4650 N   0  0  0  0  0  0  0  0  0  0  0  0
  144.2280   79.4260  212.4990 H   0  0  0  0  0  0  0  0  0  0  0  0
  144.4360   79.7660  214.1420 H   0  0  0  0  0  0  0  0  0  0  0  0
  142.5080   79.2480  213.6170 C   0  0  0  0  0  0  0  0  0  0  0  0
  142.2037   80.2743  213.3640 H   0  0  0  0  0  0  0  0  0  0  0  0
  142.0112   78.5344  212.9432 H   0  0  0  0  0  0  0  0  0  0  0  0
  142.1020   78.9400  215.0640 C   0  0  0  0  0  0  0  0  0  0  0  0
  142.3107   79.8195  215.6908 H   0  0  0  0  0  0  0  0  0  0  0  0
  141.0290   78.6986  215.0824 H   0  0  0  0  0  0  0  0  0  0  0  0
  143.4930   76.3810  217.4900 N   0  0  0  0  0  0  0  0  0  0  0  0
  144.0000   75.7550  216.8290 H   0  0  0  0  0  0  0  0  0  0  0  0
  143.4780   76.1100  218.8330 C   0  0  0  0  0  0  0  0  0  0  0  0
  144.0750   75.0590  219.3340 N   0  0  0  0  0  0  0  0  0  0  0  0
  145.0000   74.7870  218.9280 H   0  0  0  0  0  0  0  0  0  0  0  0
  143.5420   74.2480  220.4360 C   0  0  0  0  0  0  0  0  0  0  0  0
  143.4325   74.8832  221.3274 H   0  0  0  0  0  0  0  0  0  0  0  0
  142.5689   73.8394  220.1260 H   0  0  0  0  0  0  0  0  0  0  0  0
  144.4800   73.0680  220.7720 C   0  0  2  0  0  0  0  0  0  0  0  0
  144.2520   72.8242  221.8201 H   0  0  0  0  0  0  0  0  0  0  0  0
  145.9490   73.4250  220.5520 C   0  0  0  0  0  0  0  0  0  0  0  0
  146.5770   72.8802  221.2723 H   0  0  0  0  0  0  0  0  0  0  0  0
  146.1048   74.5042  220.6974 H   0  0  0  0  0  0  0  0  0  0  0  0
  146.3110   73.0400  219.1880 N   0  0  0  0  0  0  0  0  0  0  0  0
  146.2970   73.8990  218.5910 H   0  0  0  0  0  0  0  0  0  0  0  0
  145.2750   72.1220  218.7050 C   0  0  0  0  0  0  0  0  0  0  0  0
  145.7318   71.1621  218.4224 H   0  0  0  0  0  0  0  0  0  0  0  0
  144.7733   72.5485  217.8238 H   0  0  0  0  0  0  0  0  0  0  0  0
  144.2680   71.9020  219.8240 C   0  0  0  0  0  0  0  0  0  0  0  0
  144.4597   70.9472  220.3354 H   0  0  0  0  0  0  0  0  0  0  0  0
  143.2349   71.8545  219.4492 H   0  0  0  0  0  0  0  0  0  0  0  0
  142.8230   76.9530  219.6710 N   0  0  0  0  0  0  0  0  0  0  0  0
  141.8090   80.3730  220.1160 C   0  0  0  0  0  0  0  0  0  0  0  0
  142.1591   80.6748  219.1178 H   0  0  0  0  0  0  0  0  0  0  0  0
  142.5939   80.5466  220.8669 H   0  0  0  0  0  0  0  0  0  0  0  0
  140.5840   81.2050  220.4890 C   0  0  0  0  0  0  0  0  0  0  0  0
  139.8263   81.1119  219.6971 H   0  0  0  0  0  0  0  0  0  0  0  0
  140.8839   82.2576  220.5987 H   0  0  0  0  0  0  0  0  0  0  0  0
  1  2  1  0
  2  3  2  0
  3  4  1  0
  3  5  1  0
  5  6  1  0
  5  7  2  0
  7  8  1  0
  8  9  2  0
  9 10  1  0
  8 11  1  0
 11 12  1  0
 11 13  1  0
 11 14  1  0
 14 15  1  0
 15 16  1  0
 16 17  2  0
 17 18  1  0
 18 19  1  0
 19 20  1  0
 19 21  1  0
 19 22  1  0
 22 23  1  0
 22 24  1  0
 22 25  1  0
 25 26  1  0
 25 27  1  0
 25 28  1  0
 28 29  1  0
 28 30  1  0
 28 31  1  0
 31 32  1  0
 31 33  1  0
 17 34  1  0
 34 35  1  0
 34 36  1  0
 36 37  2  0
 37 38  1  0
 37 39  1  0
 39 40  1  0
 39 41  1  0
 39 42  1  0
 42 43  1  1
 42 44  1  0
 44 45  1  0
 44 46  1  0
 44 47  1  0
 47 48  1  0
 47 49  1  0
 49 50  1  0
 49 51  1  0
 49 52  1  0
 52 53  1  0
 52 54  1  0
 36 55  1  0
 14 56  1  0
 56 57  1  0
 56 58  1  0
 56 59  1  0
 59 60  1  0
 59 61  1  0
  9  2  1  0
 55 15  2  0
 59  7  1  0
 31 18  1  0
 52 42  1  0
M  CHG  2  25   1  37   1
M  END
>  <UniqueID>  (58) 
579

>  <SMILES>  (58) 
c1ccc2c(c1)CCN(c1nc(N3CC[NH2+]CC3)[nH]/c(=[NH+]\C[C@H]3CCNC3)n1)C2

>  <Energy>  (58) 
73.46349485923871

>  <Genealogy>  (58) 
c1ccc2c(c1)CCN(c1nc([NH2+]CC3CCNC3)nc(N3CC[NH2+]CC3)n1)C2 (protonated)
c1ccc2c(c1)CCN(c1nc(N3CC[NH2+]CC3)[nH]c(=[NH+]CC3CCNC3)n1)C2 (tautomer)
c1ccc2c(c1)CCN(c1nc(N3CC[NH2+]CC3)[nH]c(=[NH+]C[C@H]3CCNC3)n1)C2 (chirality)
c1ccc2c(c1)CCN(c1nc(N3CC[NH2+]CC3)[nH]/c(=[NH+]\C[C@H]3CCNC3)n1)C2 (cis-trans isomerization)
c1ccc2c(c1)CCN(c1nc(N3CC[NH2+]CC3)[nH]/c(=[NH+]\C[C@H]3CCNC3)n1)C2 (3D coordinates assigned)
c1ccc2c(c1)CCN(c1nc(N3CC[NH2+]CC3)[nH]/c(=[NH+]\C[C@H]3CCNC3)n1)C2 (nonaromatic ring conformer: 73.46349485923871 kcal/mol)

>  <smiles>  (58) 
c1ccc2c(c1)CCN(c1nc(NCC3CCNC3)nc(N3CCNCC3)n1)C2

>  <score_type>  (58) 
oracle

>  <origin>  (58) 
autodockgpu

>  <m_score__min__energy>  (58) 
-8.4900000000000002

>  <m_primary>  (58) 
energy

>  <meeko>  (58) 
{"free_energy": -8.49, "intermolecular_energy": -9.98, "internal_energy": -0.46, "cluster_size": 1, "cluster_id": 1, "rank_in_cluster": 1}

>  <energy>  (58) 
-7.97

>  <cluster_rmsd>  (58) 
1.27

>  <rmsd>  (58) 
270.3

>  <cluster>  (58) 
2

$$$$
RHAOACRWGXEIGT-RBAGJBRXNA-P
     RDKit          3D

 61 65  0  0  0  0  0  0  0  0999 V2000
  141.0478   72.7732  221.8780 H   0  0  0  0  0  0  0  0  0  0  0  0
  141.5840   73.4020  221.1520 C   0  0  0  0  0  0  0  0  0  0  0  0
  142.3990   72.8110  220.1850 C   0  0  0  0  0  0  0  0  0  0  0  0
  142.5070   71.7168  220.1527 H   0  0  0  0  0  0  0  0  0  0  0  0
  143.0780   73.6060  219.2580 C   0  0  0  0  0  0  0  0  0  0  0  0
  143.7276   73.1376  218.5039 H   0  0  0  0  0  0  0  0  0  0  0  0
  142.9320   75.0020  219.2880 C   0  0  0  0  0  0  0  0  0  0  0  0
  142.1160   75.6020  220.2640 C   0  0  0  0  0  0  0  0  0  0  0  0
  141.4490   74.7930  221.1980 C   0  0  0  0  0  0  0  0  0  0  0  0
  140.8169   75.2560  221.9700 H   0  0  0  0  0  0  0  0  0  0  0  0
  142.0010   77.1050  220.3650 C   0  0  0  0  0  0  0  0  0  0  0  0
  142.6449   77.4485  221.1881 H   0  0  0  0  0  0  0  0  0  0  0  0
  140.9398   77.3363  220.5394 H   0  0  0  0  0  0  0  0  0  0  0  0
  142.4010   77.8120  219.1340 N   0  0  0  0  0  0  0  0  0  0  0  0
  142.1970   79.2390  219.0640 C   0  0  0  0  0  0  0  0  0  0  0  0
  142.5840   79.9320  217.9640 N   0  0  0  0  0  0  0  0  0  0  0  0
  142.4100   81.2760  217.8820 C   0  0  0  0  0  0  0  0  0  0  0  0
  142.8430   81.9840  216.6970 N   0  0  0  0  0  0  0  0  0  0  0  0
  142.0740   81.8970  215.4460 C   0  0  0  0  0  0  0  0  0  0  0  0
  141.3187   81.1032  215.5429 H   0  0  0  0  0  0  0  0  0  0  0  0
  141.5919   82.8687  215.2635 H   0  0  0  0  0  0  0  0  0  0  0  0
  142.9940   81.5740  214.2510 C   0  0  0  0  0  0  0  0  0  0  0  0
  143.0118   80.4831  214.1112 H   0  0  0  0  0  0  0  0  0  0  0  0
  142.5842   82.1021  213.3774 H   0  0  0  0  0  0  0  0  0  0  0  0
  144.3850   82.0450  214.4280 N   0  0  0  0  0  0  0  0  0  0  0  0
  144.7830   82.2930  213.4920 H   0  0  0  0  0  0  0  0  0  0  0  0
  144.9680   81.2710  214.8260 H   0  0  0  0  0  0  0  0  0  0  0  0
  144.4800   83.2180  215.3060 C   0  0  0  0  0  0  0  0  0  0  0  0
  145.5222   83.5689  215.3332 H   0  0  0  0  0  0  0  0  0  0  0  0
  143.8278   84.0136  214.9165 H   0  0  0  0  0  0  0  0  0  0  0  0
  144.0310   82.8500  216.7260 C   0  0  0  0  0  0  0  0  0  0  0  0
  144.8494   82.3205  217.2358 H   0  0  0  0  0  0  0  0  0  0  0  0
  143.7761   83.7755  217.2631 H   0  0  0  0  0  0  0  0  0  0  0  0
  141.8390   81.9380  218.9330 N   0  0  0  0  0  0  0  0  0  0  0  0
  141.6950   82.9670  218.8660 H   0  0  0  0  0  0  0  0  0  0  0  0
  141.4460   81.2510  220.0500 C   0  0  0  0  0  0  0  0  0  0  0  0
  140.8970   81.8510  221.0750 N   0  0  0  0  0  0  0  0  0  0  0  0
  141.0100   82.8890  221.1470 H   0  0  0  0  0  0  0  0  0  0  0  0
  140.1240   81.1690  222.1200 C   0  0  0  0  0  0  0  0  0  0  0  0
  139.2790   81.8085  222.4152 H   0  0  0  0  0  0  0  0  0  0  0  0
  139.7654   80.2107  221.7160 H   0  0  0  0  0  0  0  0  0  0  0  0
  140.9930   80.8780  223.3640 C   0  0  2  0  0  0  0  0  0  0  0  0
  140.6983   81.6480  224.0922 H   0  0  0  0  0  0  0  0  0  0  0  0
  142.4850   80.9100  223.0390 C   0  0  0  0  0  0  0  0  0  0  0  0
  143.0496   81.2683  223.9124 H   0  0  0  0  0  0  0  0  0  0  0  0
  142.6777   81.5895  222.1957 H   0  0  0  0  0  0  0  0  0  0  0  0
  142.9040   79.5490  222.7010 N   0  0  0  0  0  0  0  0  0  0  0  0
  142.9580   79.4740  221.6570 H   0  0  0  0  0  0  0  0  0  0  0  0
  141.8580   78.6390  223.1770 C   0  0  0  0  0  0  0  0  0  0  0  0
  142.2885   77.9168  223.8863 H   0  0  0  0  0  0  0  0  0  0  0  0
  141.4231   78.0874  222.3305 H   0  0  0  0  0  0  0  0  0  0  0  0
  140.7840   79.4630  223.8710 C   0  0  0  0  0  0  0  0  0  0  0  0
  140.9082   79.4204  224.9631 H   0  0  0  0  0  0  0  0  0  0  0  0
  139.7715   79.0904  223.6566 H   0  0  0  0  0  0  0  0  0  0  0  0
  141.6310   79.9070  220.1000 N   0  0  0  0  0  0  0  0  0  0  0  0
  142.8440   77.0790  217.9360 C   0  0  0  0  0  0  0  0  0  0  0  0
  143.4470   77.7494  217.3060 H   0  0  0  0  0  0  0  0  0  0  0  0
  141.9558   76.7323  217.3875 H   0  0  0  0  0  0  0  0  0  0  0  0
  143.6850   75.8640  218.3210 C   0  0  0  0  0  0  0  0  0  0  0  0
  144.6213   76.2030  218.7885 H   0  0  0  0  0  0  0  0  0  0  0  0
  143.9085   75.2796  217.4163 H   0  0  0  0  0  0  0  0  0  0  0  0
  1  2  1  0
  2  3  2  0
  3  4  1  0
  3  5  1  0
  5  6  1  0
  5  7  2  0
  7  8  1  0
  8  9  2  0
  9 10  1  0
  8 11  1  0
 11 12  1  0
 11 13  1  0
 11 14  1  0
 14 15  1  0
 15 16  1  0
 16 17  2  0
 17 18  1  0
 18 19  1  0
 19 20  1  0
 19 21  1  0
 19 22  1  0
 22 23  1  0
 22 24  1  0
 22 25  1  0
 25 26  1  0
 25 27  1  0
 25 28  1  0
 28 29  1  0
 28 30  1  0
 28 31  1  0
 31 32  1  0
 31 33  1  0
 17 34  1  0
 34 35  1  0
 34 36  1  0
 36 37  2  0
 37 38  1  0
 37 39  1  0
 39 40  1  0
 39 41  1  0
 39 42  1  0
 42 43  1  1
 42 44  1  0
 44 45  1  0
 44 46  1  0
 44 47  1  0
 47 48  1  0
 47 49  1  0
 49 50  1  0
 49 51  1  0
 49 52  1  0
 52 53  1  0
 52 54  1  0
 36 55  1  0
 14 56  1  0
 56 57  1  0
 56 58  1  0
 56 59  1  0
 59 60  1  0
 59 61  1  0
  9  2  1  0
 55 15  2  0
 59  7  1  0
 31 18  1  0
 52 42  1  0
M  CHG  2  25   1  37   1
M  END
>  <UniqueID>  (59) 
579

>  <SMILES>  (59) 
c1ccc2c(c1)CCN(c1nc(N3CC[NH2+]CC3)[nH]/c(=[NH+]\C[C@H]3CCNC3)n1)C2

>  <Energy>  (59) 
73.46349485923871

>  <Genealogy>  (59) 
c1ccc2c(c1)CCN(c1nc([NH2+]CC3CCNC3)nc(N3CC[NH2+]CC3)n1)C2 (protonated)
c1ccc2c(c1)CCN(c1nc(N3CC[NH2+]CC3)[nH]c(=[NH+]CC3CCNC3)n1)C2 (tautomer)
c1ccc2c(c1)CCN(c1nc(N3CC[NH2+]CC3)[nH]c(=[NH+]C[C@H]3CCNC3)n1)C2 (chirality)
c1ccc2c(c1)CCN(c1nc(N3CC[NH2+]CC3)[nH]/c(=[NH+]\C[C@H]3CCNC3)n1)C2 (cis-trans isomerization)
c1ccc2c(c1)CCN(c1nc(N3CC[NH2+]CC3)[nH]/c(=[NH+]\C[C@H]3CCNC3)n1)C2 (3D coordinates assigned)
c1ccc2c(c1)CCN(c1nc(N3CC[NH2+]CC3)[nH]/c(=[NH+]\C[C@H]3CCNC3)n1)C2 (nonaromatic ring conformer: 73.46349485923871 kcal/mol)

>  <smiles>  (59) 
c1ccc2c(c1)CCN(c1nc(NCC3CCNC3)nc(N3CCNCC3)n1)C2

>  <score_type>  (59) 
oracle

>  <origin>  (59) 
autodockgpu

>  <m_score__min__energy>  (59) 
-8.4900000000000002

>  <m_primary>  (59) 
energy

>  <meeko>  (59) 
{"free_energy": -8.05, "intermolecular_energy": -9.55, "internal_energy": -1.0, "cluster_size": 19, "cluster_id": 2, "rank_in_cluster": 15}

>  <energy>  (59) 
-7.97

>  <cluster_rmsd>  (59) 
0.92

>  <rmsd>  (59) 
270.19

>  <cluster>  (59) 
2

$$$$
RHAOACRWGXEIGT-RBAGJBRXNA-P
     RDKit          3D

 61 65  0  0  0  0  0  0  0  0999 V2000
  140.7724   72.7869  221.8479 H   0  0  0  0  0  0  0  0  0  0  0  0
  141.3580   73.4090  221.1550 C   0  0  0  0  0  0  0  0  0  0  0  0
  142.2190   72.8070  220.2370 C   0  0  0  0  0  0  0  0  0  0  0  0
  142.3129   71.7114  220.2093 H   0  0  0  0  0  0  0  0  0  0  0  0
  142.9620   73.5930  219.3530 C   0  0  0  0  0  0  0  0  0  0  0  0
  143.6487   73.1158  218.6383 H   0  0  0  0  0  0  0  0  0  0  0  0
  142.8340   74.9910  219.3750 C   0  0  0  0  0  0  0  0  0  0  0  0
  141.9700   75.6020  220.3030 C   0  0  0  0  0  0  0  0  0  0  0  0
  141.2380   74.8010  221.1960 C   0  0  0  0  0  0  0  0  0  0  0  0
  140.5677   75.2715  221.9304 H   0  0  0  0  0  0  0  0  0  0  0  0
  141.8700   77.1060  220.3990 C   0  0  0  0  0  0  0  0  0  0  0  0
  142.4696   77.4403  221.2585 H   0  0  0  0  0  0  0  0  0  0  0  0
  140.8038   77.3520  220.5120 H   0  0  0  0  0  0  0  0  0  0  0  0
  142.3510   77.8080  219.1930 N   0  0  0  0  0  0  0  0  0  0  0  0
  142.1710   79.2380  219.1130 C   0  0  0  0  0  0  0  0  0  0  0  0
  142.5190   79.9080  217.9870 N   0  0  0  0  0  0  0  0  0  0  0  0
  142.3670   81.2540  217.8950 C   0  0  0  0  0  0  0  0  0  0  0  0
  142.7570   81.9380  216.6810 N   0  0  0  0  0  0  0  0  0  0  0  0
  141.9950   81.7550  215.4370 C   0  0  0  0  0  0  0  0  0  0  0  0
  141.2887   80.9218  215.5675 H   0  0  0  0  0  0  0  0  0  0  0  0
  141.4554   82.6880  215.2170 H   0  0  0  0  0  0  0  0  0  0  0  0
  142.9330   81.4400  214.2530 C   0  0  0  0  0  0  0  0  0  0  0  0
  143.0154   80.3474  214.1563 H   0  0  0  0  0  0  0  0  0  0  0  0
  142.4926   81.9080  213.3603 H   0  0  0  0  0  0  0  0  0  0  0  0
  144.2930   81.9990  214.4080 N   0  0  0  0  0  0  0  0  0  0  0  0
  144.6760   82.2330  213.4620 H   0  0  0  0  0  0  0  0  0  0  0  0
  144.9220   81.2780  214.8360 H   0  0  0  0  0  0  0  0  0  0  0  0
  144.3180   83.2110  215.2380 C   0  0  0  0  0  0  0  0  0  0  0  0
  145.3375   83.6238  215.2488 H   0  0  0  0  0  0  0  0  0  0  0  0
  143.6199   83.9500  214.8179 H   0  0  0  0  0  0  0  0  0  0  0  0
  143.8910   82.8750  216.6730 C   0  0  0  0  0  0  0  0  0  0  0  0
  144.7394   82.4171  217.2027 H   0  0  0  0  0  0  0  0  0  0  0  0
  143.5805   83.8046  217.1725 H   0  0  0  0  0  0  0  0  0  0  0  0
  141.8580   81.9410  218.9610 N   0  0  0  0  0  0  0  0  0  0  0  0
  141.7310   82.9720  218.8870 H   0  0  0  0  0  0  0  0  0  0  0  0
  141.5050   81.2770  220.1050 C   0  0  0  0  0  0  0  0  0  0  0  0
  141.0160   81.9010  221.1460 N   0  0  0  0  0  0  0  0  0  0  0  0
  141.2190   82.9230  221.2380 H   0  0  0  0  0  0  0  0  0  0  0  0
  140.1910   81.2660  222.1830 C   0  0  0  0  0  0  0  0  0  0  0  0
  139.3995   81.9657  222.4895 H   0  0  0  0  0  0  0  0  0  0  0  0
  139.7567   80.3456  221.7657 H   0  0  0  0  0  0  0  0  0  0  0  0
  141.0360   80.8890  223.4200 C   0  0  2  0  0  0  0  0  0  0  0  0
  140.7570   81.6329  224.1808 H   0  0  0  0  0  0  0  0  0  0  0  0
  142.5320   80.8890  223.1140 C   0  0  0  0  0  0  0  0  0  0  0  0
  143.0962   81.1852  224.0106 H   0  0  0  0  0  0  0  0  0  0  0  0
  142.7565   81.6028  222.3078 H   0  0  0  0  0  0  0  0  0  0  0  0
  142.9130   79.5340  222.7130 N   0  0  0  0  0  0  0  0  0  0  0  0
  142.9780   79.5080  221.6690 H   0  0  0  0  0  0  0  0  0  0  0  0
  141.8340   78.6360  223.1330 C   0  0  0  0  0  0  0  0  0  0  0  0
  142.2335   77.8672  223.8108 H   0  0  0  0  0  0  0  0  0  0  0  0
  141.3925   78.1404  222.2558 H   0  0  0  0  0  0  0  0  0  0  0  0
  140.7770   79.4580  223.8550 C   0  0  0  0  0  0  0  0  0  0  0  0
  140.8862   79.3584  224.9450 H   0  0  0  0  0  0  0  0  0  0  0  0
  139.7562   79.1280  223.6119 H   0  0  0  0  0  0  0  0  0  0  0  0
  141.6670   79.9300  220.1650 N   0  0  0  0  0  0  0  0  0  0  0  0
  142.8530   77.0690  218.0230 C   0  0  0  0  0  0  0  0  0  0  0  0
  143.5004   77.7313  217.4294 H   0  0  0  0  0  0  0  0  0  0  0  0
  141.9935   76.7338  217.4240 H   0  0  0  0  0  0  0  0  0  0  0  0
  143.6540   75.8430  218.4550 C   0  0  0  0  0  0  0  0  0  0  0  0
  144.5656   76.1693  218.9770 H   0  0  0  0  0  0  0  0  0  0  0  0
  143.9229   75.2561  217.5643 H   0  0  0  0  0  0  0  0  0  0  0  0
  1  2  1  0
  2  3  2  0
  3  4  1  0
  3  5  1  0
  5  6  1  0
  5  7  2  0
  7  8  1  0
  8  9  2  0
  9 10  1  0
  8 11  1  0
 11 12  1  0
 11 13  1  0
 11 14  1  0
 14 15  1  0
 15 16  1  0
 16 17  2  0
 17 18  1  0
 18 19  1  0
 19 20  1  0
 19 21  1  0
 19 22  1  0
 22 23  1  0
 22 24  1  0
 22 25  1  0
 25 26  1  0
 25 27  1  0
 25 28  1  0
 28 29  1  0
 28 30  1  0
 28 31  1  0
 31 32  1  0
 31 33  1  0
 17 34  1  0
 34 35  1  0
 34 36  1  0
 36 37  2  0
 37 38  1  0
 37 39  1  0
 39 40  1  0
 39 41  1  0
 39 42  1  0
 42 43  1  1
 42 44  1  0
 44 45  1  0
 44 46  1  0
 44 47  1  0
 47 48  1  0
 47 49  1  0
 49 50  1  0
 49 51  1  0
 49 52  1  0
 52 53  1  0
 52 54  1  0
 36 55  1  0
 14 56  1  0
 56 57  1  0
 56 58  1  0
 56 59  1  0
 59 60  1  0
 59 61  1  0
  9  2  1  0
 55 15  2  0
 59  7  1  0
 31 18  1  0
 52 42  1  0
M  CHG  2  25   1  37   1
M  END
>  <UniqueID>  (60) 
579

>  <SMILES>  (60) 
c1ccc2c(c1)CCN(c1nc(N3CC[NH2+]CC3)[nH]/c(=[NH+]\C[C@H]3CCNC3)n1)C2

>  <Energy>  (60) 
73.46349485923871

>  <Genealogy>  (60) 
c1ccc2c(c1)CCN(c1nc([NH2+]CC3CCNC3)nc(N3CC[NH2+]CC3)n1)C2 (protonated)
c1ccc2c(c1)CCN(c1nc(N3CC[NH2+]CC3)[nH]c(=[NH+]CC3CCNC3)n1)C2 (tautomer)
c1ccc2c(c1)CCN(c1nc(N3CC[NH2+]CC3)[nH]c(=[NH+]C[C@H]3CCNC3)n1)C2 (chirality)
c1ccc2c(c1)CCN(c1nc(N3CC[NH2+]CC3)[nH]/c(=[NH+]\C[C@H]3CCNC3)n1)C2 (cis-trans isomerization)
c1ccc2c(c1)CCN(c1nc(N3CC[NH2+]CC3)[nH]/c(=[NH+]\C[C@H]3CCNC3)n1)C2 (3D coordinates assigned)
c1ccc2c(c1)CCN(c1nc(N3CC[NH2+]CC3)[nH]/c(=[NH+]\C[C@H]3CCNC3)n1)C2 (nonaromatic ring conformer: 73.46349485923871 kcal/mol)

>  <smiles>  (60) 
c1ccc2c(c1)CCN(c1nc(NCC3CCNC3)nc(N3CCNCC3)n1)C2

>  <score_type>  (60) 
oracle

>  <origin>  (60) 
autodockgpu

>  <m_score__min__energy>  (60) 
-8.4900000000000002

>  <m_primary>  (60) 
energy

>  <meeko>  (60) 
{"free_energy": -8.09, "intermolecular_energy": -9.58, "internal_energy": -0.97, "cluster_size": 19, "cluster_id": 2, "rank_in_cluster": 14}

>  <energy>  (60) 
-7.91

>  <cluster_rmsd>  (60) 
0.84

>  <rmsd>  (60) 
270.2

>  <cluster>  (60) 
2

$$$$
RHAOACRWGXEIGT-RBAGJBRXNA-P
     RDKit          3D

 61 65  0  0  0  0  0  0  0  0999 V2000
  144.9897   72.1868  221.5045 H   0  0  0  0  0  0  0  0  0  0  0  0
  144.7230   72.7780  220.6160 C   0  0  0  0  0  0  0  0  0  0  0  0
  144.7310   72.1810  219.3540 C   0  0  0  0  0  0  0  0  0  0  0  0
  145.0076   71.1215  219.2491 H   0  0  0  0  0  0  0  0  0  0  0  0
  144.3880   72.9280  218.2240 C   0  0  0  0  0  0  0  0  0  0  0  0
  144.4055   72.4585  217.2294 H   0  0  0  0  0  0  0  0  0  0  0  0
  144.0210   74.2770  218.3560 C   0  0  0  0  0  0  0  0  0  0  0  0
  144.0170   74.8820  219.6260 C   0  0  0  0  0  0  0  0  0  0  0  0
  144.3770   74.1250  220.7530 C   0  0  0  0  0  0  0  0  0  0  0  0
  144.3866   74.5944  221.7478 H   0  0  0  0  0  0  0  0  0  0  0  0
  143.6990   76.3500  219.7870 C   0  0  0  0  0  0  0  0  0  0  0  0
  144.6443   76.8991  219.9093 H   0  0  0  0  0  0  0  0  0  0  0  0
  143.0439   76.4435  220.6657 H   0  0  0  0  0  0  0  0  0  0  0  0
  142.9700   76.9260  218.6410 N   0  0  0  0  0  0  0  0  0  0  0  0
  142.4880   78.2820  218.7440 C   0  0  0  0  0  0  0  0  0  0  0  0
  142.7650   79.1820  217.7690 N   0  0  0  0  0  0  0  0  0  0  0  0
  142.3290   80.4650  217.8520 C   0  0  0  0  0  0  0  0  0  0  0  0
  142.6510   81.4010  216.7960 N   0  0  0  0  0  0  0  0  0  0  0  0
  141.8750   81.4220  215.5470 C   0  0  0  0  0  0  0  0  0  0  0  0
  141.2239   80.5360  215.5133 H   0  0  0  0  0  0  0  0  0  0  0  0
  141.2744   82.3433  215.5235 H   0  0  0  0  0  0  0  0  0  0  0  0
  142.8060   81.4110  214.3160 C   0  0  0  0  0  0  0  0  0  0  0  0
  142.9527   80.3674  214.0008 H   0  0  0  0  0  0  0  0  0  0  0  0
  142.3195   82.0193  213.5393 H   0  0  0  0  0  0  0  0  0  0  0  0
  144.1320   82.0130  214.5690 N   0  0  0  0  0  0  0  0  0  0  0  0
  144.4800   82.4540  213.6860 H   0  0  0  0  0  0  0  0  0  0  0  0
  144.8120   81.2620  214.8380 H   0  0  0  0  0  0  0  0  0  0  0  0
  144.1010   83.0330  215.6250 C   0  0  0  0  0  0  0  0  0  0  0  0
  145.0936   83.4995  215.7096 H   0  0  0  0  0  0  0  0  0  0  0  0
  143.3502   83.7947  215.3679 H   0  0  0  0  0  0  0  0  0  0  0  0
  143.7260   82.3910  216.9670 C   0  0  0  0  0  0  0  0  0  0  0  0
  144.6116   81.8914  217.3867 H   0  0  0  0  0  0  0  0  0  0  0  0
  143.3707   83.1803  217.6459 H   0  0  0  0  0  0  0  0  0  0  0  0
  141.6010   80.8520  218.9420 N   0  0  0  0  0  0  0  0  0  0  0  0
  141.2570   81.8330  219.0010 H   0  0  0  0  0  0  0  0  0  0  0  0
  141.3160   79.9540  219.9350 C   0  0  0  0  0  0  0  0  0  0  0  0
  140.6240   80.2880  220.9950 N   0  0  0  0  0  0  0  0  0  0  0  0
  139.8180   79.6760  221.2600 H   0  0  0  0  0  0  0  0  0  0  0  0
  140.9140   81.4520  221.8420 C   0  0  0  0  0  0  0  0  0  0  0  0
  141.5423   82.1575  221.2785 H   0  0  0  0  0  0  0  0  0  0  0  0
  139.9603   81.9210  222.1258 H   0  0  0  0  0  0  0  0  0  0  0  0
  141.6560   81.0370  223.1320 C   0  0  2  0  0  0  0  0  0  0  0  0
  141.6791   81.9517  223.7425 H   0  0  0  0  0  0  0  0  0  0  0  0
  143.0490   80.4860  222.8390 C   0  0  0  0  0  0  0  0  0  0  0  0
  143.7285   80.7294  223.6691 H   0  0  0  0  0  0  0  0  0  0  0  0
  143.4492   80.9321  221.9166 H   0  0  0  0  0  0  0  0  0  0  0  0
  142.9420   79.0340  222.6950 N   0  0  0  0  0  0  0  0  0  0  0  0
  142.9360   78.8060  221.6730 H   0  0  0  0  0  0  0  0  0  0  0  0
  141.6530   78.6330  223.2670 C   0  0  0  0  0  0  0  0  0  0  0  0
  141.8157   77.9062  224.0765 H   0  0  0  0  0  0  0  0  0  0  0  0
  141.0249   78.1665  222.4938 H   0  0  0  0  0  0  0  0  0  0  0  0
  140.9670   79.8730  223.8200 C   0  0  0  0  0  0  0  0  0  0  0  0
  141.0983   79.9347  224.9104 H   0  0  0  0  0  0  0  0  0  0  0  0
  139.8826   79.8646  223.6354 H   0  0  0  0  0  0  0  0  0  0  0  0
  141.7640   78.6770  219.8220 N   0  0  0  0  0  0  0  0  0  0  0  0
  142.5900   76.1030  217.4800 C   0  0  0  0  0  0  0  0  0  0  0  0
  142.4262   76.7585  216.6119 H   0  0  0  0  0  0  0  0  0  0  0  0
  141.6694   75.5531  217.7251 H   0  0  0  0  0  0  0  0  0  0  0  0
  143.6870   75.0940  217.1450 C   0  0  0  0  0  0  0  0  0  0  0  0
  144.5860   75.6317  216.8094 H   0  0  0  0  0  0  0  0  0  0  0  0
  143.3310   74.4263  216.3466 H   0  0  0  0  0  0  0  0  0  0  0  0
  1  2  1  0
  2  3  2  0
  3  4  1  0
  3  5  1  0
  5  6  1  0
  5  7  2  0
  7  8  1  0
  8  9  2  0
  9 10  1  0
  8 11  1  0
 11 12  1  0
 11 13  1  0
 11 14  1  0
 14 15  1  0
 15 16  1  0
 16 17  2  0
 17 18  1  0
 18 19  1  0
 19 20  1  0
 19 21  1  0
 19 22  1  0
 22 23  1  0
 22 24  1  0
 22 25  1  0
 25 26  1  0
 25 27  1  0
 25 28  1  0
 28 29  1  0
 28 30  1  0
 28 31  1  0
 31 32  1  0
 31 33  1  0
 17 34  1  0
 34 35  1  0
 34 36  1  0
 36 37  2  0
 37 38  1  0
 37 39  1  0
 39 40  1  0
 39 41  1  0
 39 42  1  0
 42 43  1  1
 42 44  1  0
 44 45  1  0
 44 46  1  0
 44 47  1  0
 47 48  1  0
 47 49  1  0
 49 50  1  0
 49 51  1  0
 49 52  1  0
 52 53  1  0
 52 54  1  0
 36 55  1  0
 14 56  1  0
 56 57  1  0
 56 58  1  0
 56 59  1  0
 59 60  1  0
 59 61  1  0
  9  2  1  0
 55 15  2  0
 59  7  1  0
 31 18  1  0
 52 42  1  0
M  CHG  2  25   1  37   1
M  END
>  <UniqueID>  (61) 
580

>  <SMILES>  (61) 
c1ccc2c(c1)CCN(c1nc(N3CC[NH2+]CC3)[nH]/c(=[NH+]\C[C@H]3CCNC3)n1)C2

>  <Energy>  (61) 
73.55451655840196

>  <Genealogy>  (61) 
c1ccc2c(c1)CCN(c1nc([NH2+]CC3CCNC3)nc(N3CC[NH2+]CC3)n1)C2 (protonated)
c1ccc2c(c1)CCN(c1nc(N3CC[NH2+]CC3)[nH]c(=[NH+]CC3CCNC3)n1)C2 (tautomer)
c1ccc2c(c1)CCN(c1nc(N3CC[NH2+]CC3)[nH]c(=[NH+]C[C@H]3CCNC3)n1)C2 (chirality)
c1ccc2c(c1)CCN(c1nc(N3CC[NH2+]CC3)[nH]/c(=[NH+]\C[C@H]3CCNC3)n1)C2 (cis-trans isomerization)
c1ccc2c(c1)CCN(c1nc(N3CC[NH2+]CC3)[nH]/c(=[NH+]\C[C@H]3CCNC3)n1)C2 (3D coordinates assigned)
c1ccc2c(c1)CCN(c1nc(N3CC[NH2+]CC3)[nH]/c(=[NH+]\C[C@H]3CCNC3)n1)C2 (nonaromatic ring conformer: 73.55451655840196 kcal/mol)

>  <smiles>  (61) 
c1ccc2c(c1)CCN(c1nc(NCC3CCNC3)nc(N3CCNCC3)n1)C2

>  <score_type>  (61) 
oracle

>  <origin>  (61) 
autodockgpu

>  <m_score__min__energy>  (61) 
-8.4900000000000002

>  <m_primary>  (61) 
energy

>  <meeko>  (61) 
{"free_energy": -8.19, "intermolecular_energy": -9.69, "internal_energy": -0.86, "cluster_size": 19, "cluster_id": 2, "rank_in_cluster": 9}

>  <energy>  (61) 
-8.49

>  <cluster_rmsd>  (61) 
0.0

>  <rmsd>  (61) 
269.65

>  <cluster>  (61) 
1

$$$$
RHAOACRWGXEIGT-RBAGJBRXNA-P
     RDKit          3D

 61 65  0  0  0  0  0  0  0  0999 V2000
  145.0253   72.2016  221.4445 H   0  0  0  0  0  0  0  0  0  0  0  0
  144.7440   72.7920  220.5600 C   0  0  0  0  0  0  0  0  0  0  0  0
  144.7330   72.1950  219.2980 C   0  0  0  0  0  0  0  0  0  0  0  0
  145.0099   71.1360  219.1893 H   0  0  0  0  0  0  0  0  0  0  0  0
  144.3710   72.9400  218.1730 C   0  0  0  0  0  0  0  0  0  0  0  0
  144.3726   72.4691  217.1789 H   0  0  0  0  0  0  0  0  0  0  0  0
  144.0050   74.2890  218.3090 C   0  0  0  0  0  0  0  0  0  0  0  0
  144.0200   74.8950  219.5790 C   0  0  0  0  0  0  0  0  0  0  0  0
  144.3980   74.1390  220.7010 C   0  0  0  0  0  0  0  0  0  0  0  0
  144.4218   74.6092  221.6952 H   0  0  0  0  0  0  0  0  0  0  0  0
  143.7030   76.3630  219.7440 C   0  0  0  0  0  0  0  0  0  0  0  0
  144.6495   76.9133  219.8507 H   0  0  0  0  0  0  0  0  0  0  0  0
  143.0621   76.4567  220.6331 H   0  0  0  0  0  0  0  0  0  0  0  0
  142.9550   76.9370  218.6090 N   0  0  0  0  0  0  0  0  0  0  0  0
  142.4730   78.2920  218.7190 C   0  0  0  0  0  0  0  0  0  0  0  0
  142.7670   79.2030  217.7580 N   0  0  0  0  0  0  0  0  0  0  0  0
  142.3320   80.4850  217.8470 C   0  0  0  0  0  0  0  0  0  0  0  0
  142.6720   81.4320  216.8070 N   0  0  0  0  0  0  0  0  0  0  0  0
  141.8930   81.4930  215.5610 C   0  0  0  0  0  0  0  0  0  0  0  0
  141.2208   80.6235  215.5143 H   0  0  0  0  0  0  0  0  0  0  0  0
  141.3145   82.4286  215.5552 H   0  0  0  0  0  0  0  0  0  0  0  0
  142.8200   81.4810  214.3270 C   0  0  0  0  0  0  0  0  0  0  0  0
  142.9418   80.4397  213.9941 H   0  0  0  0  0  0  0  0  0  0  0  0
  142.3455   82.1131  213.5619 H   0  0  0  0  0  0  0  0  0  0  0  0
  144.1600   82.0480  214.5860 N   0  0  0  0  0  0  0  0  0  0  0  0
  144.5160   82.4970  213.7090 H   0  0  0  0  0  0  0  0  0  0  0  0
  144.8240   81.2780  214.8390 H   0  0  0  0  0  0  0  0  0  0  0  0
  144.1560   83.0510  215.6590 C   0  0  0  0  0  0  0  0  0  0  0  0
  145.1593   83.4930  215.7483 H   0  0  0  0  0  0  0  0  0  0  0  0
  143.4232   83.8351  215.4177 H   0  0  0  0  0  0  0  0  0  0  0  0
  143.7700   82.3930  216.9910 C   0  0  0  0  0  0  0  0  0  0  0  0
  144.6451   81.8653  217.3982 H   0  0  0  0  0  0  0  0  0  0  0  0
  143.4352   83.1781  217.6850 H   0  0  0  0  0  0  0  0  0  0  0  0
  141.5870   80.8620  218.9300 N   0  0  0  0  0  0  0  0  0  0  0  0
  141.2430   81.8430  218.9930 H   0  0  0  0  0  0  0  0  0  0  0  0
  141.2840   79.9530  219.9080 C   0  0  0  0  0  0  0  0  0  0  0  0
  140.5760   80.2770  220.9590 N   0  0  0  0  0  0  0  0  0  0  0  0
  139.7660   79.6620  221.2070 H   0  0  0  0  0  0  0  0  0  0  0  0
  140.8510   81.4330  221.8220 C   0  0  0  0  0  0  0  0  0  0  0  0
  141.4721   82.1530  221.2689 H   0  0  0  0  0  0  0  0  0  0  0  0
  139.8911   81.8865  222.1100 H   0  0  0  0  0  0  0  0  0  0  0  0
  141.5950   81.0110  223.1080 C   0  0  2  0  0  0  0  0  0  0  0  0
  141.5956   81.9146  223.7353 H   0  0  0  0  0  0  0  0  0  0  0  0
  143.0010   80.4940  222.8110 C   0  0  0  0  0  0  0  0  0  0  0  0
  143.6720   80.7370  223.6481 H   0  0  0  0  0  0  0  0  0  0  0  0
  143.3947   80.9645  221.8980 H   0  0  0  0  0  0  0  0  0  0  0  0
  142.9260   79.0430  222.6410 N   0  0  0  0  0  0  0  0  0  0  0  0
  142.9290   78.8340  221.6150 H   0  0  0  0  0  0  0  0  0  0  0  0
  141.6430   78.6050  223.1990 C   0  0  0  0  0  0  0  0  0  0  0  0
  141.8171   77.8671  223.9960 H   0  0  0  0  0  0  0  0  0  0  0  0
  141.0286   78.1399  222.4140 H   0  0  0  0  0  0  0  0  0  0  0  0
  140.9280   79.8200  223.7710 C   0  0  0  0  0  0  0  0  0  0  0  0
  141.0528   79.8644  224.8630 H   0  0  0  0  0  0  0  0  0  0  0  0
  139.8450   79.7919  223.5806 H   0  0  0  0  0  0  0  0  0  0  0  0
  141.7330   78.6780  219.7890 N   0  0  0  0  0  0  0  0  0  0  0  0
  142.5590   76.1130  217.4550 C   0  0  0  0  0  0  0  0  0  0  0  0
  142.3819   76.7678  216.5891 H   0  0  0  0  0  0  0  0  0  0  0  0
  141.6429   75.5623  217.7148 H   0  0  0  0  0  0  0  0  0  0  0  0
  143.6500   75.1050  217.1040 C   0  0  0  0  0  0  0  0  0  0  0  0
  144.5430   75.6430  216.7532 H   0  0  0  0  0  0  0  0  0  0  0  0
  143.2806   74.4361  216.3127 H   0  0  0  0  0  0  0  0  0  0  0  0
  1  2  1  0
  2  3  2  0
  3  4  1  0
  3  5  1  0
  5  6  1  0
  5  7  2  0
  7  8  1  0
  8  9  2  0
  9 10  1  0
  8 11  1  0
 11 12  1  0
 11 13  1  0
 11 14  1  0
 14 15  1  0
 15 16  1  0
 16 17  2  0
 17 18  1  0
 18 19  1  0
 19 20  1  0
 19 21  1  0
 19 22  1  0
 22 23  1  0
 22 24  1  0
 22 25  1  0
 25 26  1  0
 25 27  1  0
 25 28  1  0
 28 29  1  0
 28 30  1  0
 28 31  1  0
 31 32  1  0
 31 33  1  0
 17 34  1  0
 34 35  1  0
 34 36  1  0
 36 37  2  0
 37 38  1  0
 37 39  1  0
 39 40  1  0
 39 41  1  0
 39 42  1  0
 42 43  1  1
 42 44  1  0
 44 45  1  0
 44 46  1  0
 44 47  1  0
 47 48  1  0
 47 49  1  0
 49 50  1  0
 49 51  1  0
 49 52  1  0
 52 53  1  0
 52 54  1  0
 36 55  1  0
 14 56  1  0
 56 57  1  0
 56 58  1  0
 56 59  1  0
 59 60  1  0
 59 61  1  0
  9  2  1  0
 55 15  2  0
 59  7  1  0
 31 18  1  0
 52 42  1  0
M  CHG  2  25   1  37   1
M  END
>  <UniqueID>  (62) 
580

>  <SMILES>  (62) 
c1ccc2c(c1)CCN(c1nc(N3CC[NH2+]CC3)[nH]/c(=[NH+]\C[C@H]3CCNC3)n1)C2

>  <Energy>  (62) 
73.55451655840196

>  <Genealogy>  (62) 
c1ccc2c(c1)CCN(c1nc([NH2+]CC3CCNC3)nc(N3CC[NH2+]CC3)n1)C2 (protonated)
c1ccc2c(c1)CCN(c1nc(N3CC[NH2+]CC3)[nH]c(=[NH+]CC3CCNC3)n1)C2 (tautomer)
c1ccc2c(c1)CCN(c1nc(N3CC[NH2+]CC3)[nH]c(=[NH+]C[C@H]3CCNC3)n1)C2 (chirality)
c1ccc2c(c1)CCN(c1nc(N3CC[NH2+]CC3)[nH]/c(=[NH+]\C[C@H]3CCNC3)n1)C2 (cis-trans isomerization)
c1ccc2c(c1)CCN(c1nc(N3CC[NH2+]CC3)[nH]/c(=[NH+]\C[C@H]3CCNC3)n1)C2 (3D coordinates assigned)
c1ccc2c(c1)CCN(c1nc(N3CC[NH2+]CC3)[nH]/c(=[NH+]\C[C@H]3CCNC3)n1)C2 (nonaromatic ring conformer: 73.55451655840196 kcal/mol)

>  <smiles>  (62) 
c1ccc2c(c1)CCN(c1nc(NCC3CCNC3)nc(N3CCNCC3)n1)C2

>  <score_type>  (62) 
oracle

>  <origin>  (62) 
autodockgpu

>  <m_score__min__energy>  (62) 
-8.4900000000000002

>  <m_primary>  (62) 
energy

>  <meeko>  (62) 
{"free_energy": -8.19, "intermolecular_energy": -9.68, "internal_energy": -0.87, "cluster_size": 19, "cluster_id": 2, "rank_in_cluster": 11}

>  <energy>  (62) 
-8.35

>  <cluster_rmsd>  (62) 
0.0

>  <rmsd>  (62) 
270.25

>  <cluster>  (62) 
2

$$$$
RHAOACRWGXEIGT-RBAGJBRXNA-P
     RDKit          3D

 61 65  0  0  0  0  0  0  0  0999 V2000
  146.2864   72.6785  221.0668 H   0  0  0  0  0  0  0  0  0  0  0  0
  145.2800   73.0730  220.8630 C   0  0  0  0  0  0  0  0  0  0  0  0
  144.1590   72.2710  221.0830 C   0  0  0  0  0  0  0  0  0  0  0  0
  144.2839   71.2442  221.4573 H   0  0  0  0  0  0  0  0  0  0  0  0
  142.8790   72.7690  220.8290 C   0  0  0  0  0  0  0  0  0  0  0  0
  141.9985   72.1305  220.9933 H   0  0  0  0  0  0  0  0  0  0  0  0
  142.7150   74.0840  220.3640 C   0  0  0  0  0  0  0  0  0  0  0  0
  143.8420   74.8940  220.1370 C   0  0  0  0  0  0  0  0  0  0  0  0
  145.1250   74.3770  220.3840 C   0  0  0  0  0  0  0  0  0  0  0  0
  146.0116   75.0014  220.1995 H   0  0  0  0  0  0  0  0  0  0  0  0
  143.6990   76.2860  219.5660 C   0  0  0  0  0  0  0  0  0  0  0  0
  143.9385   76.2486  218.4930 H   0  0  0  0  0  0  0  0  0  0  0  0
  144.3875   76.9373  220.1244 H   0  0  0  0  0  0  0  0  0  0  0  0
  142.3440   76.8500  219.7230 N   0  0  0  0  0  0  0  0  0  0  0  0
  142.1260   78.2260  219.3450 C   0  0  0  0  0  0  0  0  0  0  0  0
  142.1190   78.5830  218.0370 N   0  0  0  0  0  0  0  0  0  0  0  0
  141.9260   79.8730  217.6610 C   0  0  0  0  0  0  0  0  0  0  0  0
  141.9330   80.2190  216.2560 N   0  0  0  0  0  0  0  0  0  0  0  0
  141.5820   79.2220  215.2340 C   0  0  0  0  0  0  0  0  0  0  0  0
  141.5337   78.2282  215.7030 H   0  0  0  0  0  0  0  0  0  0  0  0
  140.6075   79.4927  214.8014 H   0  0  0  0  0  0  0  0  0  0  0  0
  142.6310   79.1950  214.1020 C   0  0  0  0  0  0  0  0  0  0  0  0
  143.3806   78.4264  214.3415 H   0  0  0  0  0  0  0  0  0  0  0  0
  142.0910   78.9782  213.1685 H   0  0  0  0  0  0  0  0  0  0  0  0
  143.3290   80.4830  213.9080 N   0  0  0  0  0  0  0  0  0  0  0  0
  143.5820   80.5860  212.8980 H   0  0  0  0  0  0  0  0  0  0  0  0
  144.2200   80.4860  214.4600 H   0  0  0  0  0  0  0  0  0  0  0  0
  142.5130   81.6370  214.3080 C   0  0  0  0  0  0  0  0  0  0  0  0
  143.0509   82.5652  214.0648 H   0  0  0  0  0  0  0  0  0  0  0  0
  141.5560   81.6073  213.7665 H   0  0  0  0  0  0  0  0  0  0  0  0
  142.2390   81.5890  215.8180 C   0  0  0  0  0  0  0  0  0  0  0  0
  143.1284   81.9483  216.3563 H   0  0  0  0  0  0  0  0  0  0  0  0
  141.3710   82.2283  216.0366 H   0  0  0  0  0  0  0  0  0  0  0  0
  141.7390   80.8260  218.6220 N   0  0  0  0  0  0  0  0  0  0  0  0
  141.5790   81.8140  218.3340 H   0  0  0  0  0  0  0  0  0  0  0  0
  141.7450   80.4790  219.9470 C   0  0  0  0  0  0  0  0  0  0  0  0
  141.5720   81.3640  220.8960 N   0  0  0  0  0  0  0  0  0  0  0  0
  142.2210   82.1850  220.9170 H   0  0  0  0  0  0  0  0  0  0  0  0
  140.5220   81.2890  221.9190 C   0  0  0  0  0  0  0  0  0  0  0  0
  140.0124   82.2619  221.9811 H   0  0  0  0  0  0  0  0  0  0  0  0
  139.8151   80.4963  221.6328 H   0  0  0  0  0  0  0  0  0  0  0  0
  141.1100   80.9400  223.3040 C   0  0  2  0  0  0  0  0  0  0  0  0
  140.7451   81.7380  223.9673 H   0  0  0  0  0  0  0  0  0  0  0  0
  142.6340   80.8470  223.2710 C   0  0  0  0  0  0  0  0  0  0  0  0
  143.0480   81.1651  224.2392 H   0  0  0  0  0  0  0  0  0  0  0  0
  143.0388   81.5013  222.4849 H   0  0  0  0  0  0  0  0  0  0  0  0
  142.9990   79.4540  223.0090 N   0  0  0  0  0  0  0  0  0  0  0  0
  143.2450   79.3660  221.9950 H   0  0  0  0  0  0  0  0  0  0  0  0
  141.8100   78.6360  223.2690 C   0  0  0  0  0  0  0  0  0  0  0  0
  142.0364   77.8867  224.0419 H   0  0  0  0  0  0  0  0  0  0  0  0
  141.5016   78.1152  222.3505 H   0  0  0  0  0  0  0  0  0  0  0  0
  140.6940   79.5500  223.7510 C   0  0  0  0  0  0  0  0  0  0  0  0
  140.6033   79.5063  224.8464 H   0  0  0  0  0  0  0  0  0  0  0  0
  139.7144   79.2590  223.3440 H   0  0  0  0  0  0  0  0  0  0  0  0
  141.9400   79.1810  220.2910 N   0  0  0  0  0  0  0  0  0  0  0  0
  141.2720   76.1000  220.3970 C   0  0  0  0  0  0  0  0  0  0  0  0
  140.2977   76.4950  220.0733 H   0  0  0  0  0  0  0  0  0  0  0  0
  141.3917   76.2163  221.4843 H   0  0  0  0  0  0  0  0  0  0  0  0
  141.3480   74.6140  220.0540 C   0  0  0  0  0  0  0  0  0  0  0  0
  141.1386   74.4765  218.9829 H   0  0  0  0  0  0  0  0  0  0  0  0
  140.6051   74.0674  220.6534 H   0  0  0  0  0  0  0  0  0  0  0  0
  1  2  1  0
  2  3  2  0
  3  4  1  0
  3  5  1  0
  5  6  1  0
  5  7  2  0
  7  8  1  0
  8  9  2  0
  9 10  1  0
  8 11  1  0
 11 12  1  0
 11 13  1  0
 11 14  1  0
 14 15  1  0
 15 16  1  0
 16 17  2  0
 17 18  1  0
 18 19  1  0
 19 20  1  0
 19 21  1  0
 19 22  1  0
 22 23  1  0
 22 24  1  0
 22 25  1  0
 25 26  1  0
 25 27  1  0
 25 28  1  0
 28 29  1  0
 28 30  1  0
 28 31  1  0
 31 32  1  0
 31 33  1  0
 17 34  1  0
 34 35  1  0
 34 36  1  0
 36 37  2  0
 37 38  1  0
 37 39  1  0
 39 40  1  0
 39 41  1  0
 39 42  1  0
 42 43  1  1
 42 44  1  0
 44 45  1  0
 44 46  1  0
 44 47  1  0
 47 48  1  0
 47 49  1  0
 49 50  1  0
 49 51  1  0
 49 52  1  0
 52 53  1  0
 52 54  1  0
 36 55  1  0
 14 56  1  0
 56 57  1  0
 56 58  1  0
 56 59  1  0
 59 60  1  0
 59 61  1  0
  9  2  1  0
 55 15  2  0
 59  7  1  0
 31 18  1  0
 52 42  1  0
M  CHG  2  25   1  37   1
M  END
>  <UniqueID>  (63) 
580

>  <SMILES>  (63) 
c1ccc2c(c1)CCN(c1nc(N3CC[NH2+]CC3)[nH]/c(=[NH+]\C[C@H]3CCNC3)n1)C2

>  <Energy>  (63) 
73.55451655840196

>  <Genealogy>  (63) 
c1ccc2c(c1)CCN(c1nc([NH2+]CC3CCNC3)nc(N3CC[NH2+]CC3)n1)C2 (protonated)
c1ccc2c(c1)CCN(c1nc(N3CC[NH2+]CC3)[nH]c(=[NH+]CC3CCNC3)n1)C2 (tautomer)
c1ccc2c(c1)CCN(c1nc(N3CC[NH2+]CC3)[nH]c(=[NH+]C[C@H]3CCNC3)n1)C2 (chirality)
c1ccc2c(c1)CCN(c1nc(N3CC[NH2+]CC3)[nH]/c(=[NH+]\C[C@H]3CCNC3)n1)C2 (cis-trans isomerization)
c1ccc2c(c1)CCN(c1nc(N3CC[NH2+]CC3)[nH]/c(=[NH+]\C[C@H]3CCNC3)n1)C2 (3D coordinates assigned)
c1ccc2c(c1)CCN(c1nc(N3CC[NH2+]CC3)[nH]/c(=[NH+]\C[C@H]3CCNC3)n1)C2 (nonaromatic ring conformer: 73.55451655840196 kcal/mol)

>  <smiles>  (63) 
c1ccc2c(c1)CCN(c1nc(NCC3CCNC3)nc(N3CCNCC3)n1)C2

>  <score_type>  (63) 
oracle

>  <origin>  (63) 
autodockgpu

>  <m_score__min__energy>  (63) 
-8.4900000000000002

>  <m_primary>  (63) 
energy

>  <meeko>  (63) 
{"free_energy": -8.33, "intermolecular_energy": -9.82, "internal_energy": -0.91, "cluster_size": 19, "cluster_id": 2, "rank_in_cluster": 4}

>  <energy>  (63) 
-8.34

>  <cluster_rmsd>  (63) 
0.08

>  <rmsd>  (63) 
270.25

>  <cluster>  (63) 
2

$$$$
RHAOACRWGXEIGT-RBAGJBRXNA-P
     RDKit          3D

 61 65  0  0  0  0  0  0  0  0999 V2000
  146.2859   72.6802  221.0383 H   0  0  0  0  0  0  0  0  0  0  0  0
  145.2770   73.0720  220.8420 C   0  0  0  0  0  0  0  0  0  0  0  0
  144.1600   72.2660  221.0710 C   0  0  0  0  0  0  0  0  0  0  0  0
  144.2905   71.2400  221.4456 H   0  0  0  0  0  0  0  0  0  0  0  0
  142.8770   72.7610  220.8250 C   0  0  0  0  0  0  0  0  0  0  0  0
  141.9993   72.1202  220.9951 H   0  0  0  0  0  0  0  0  0  0  0  0
  142.7060   74.0750  220.3610 C   0  0  0  0  0  0  0  0  0  0  0  0
  143.8300   74.8880  220.1250 C   0  0  0  0  0  0  0  0  0  0  0  0
  145.1160   74.3750  220.3640 C   0  0  0  0  0  0  0  0  0  0  0  0
  145.9997   75.0018  220.1740 H   0  0  0  0  0  0  0  0  0  0  0  0
  143.6780   76.2790  219.5550 C   0  0  0  0  0  0  0  0  0  0  0  0
  143.9096   76.2416  218.4803 H   0  0  0  0  0  0  0  0  0  0  0  0
  144.3683   76.9318  220.1094 H   0  0  0  0  0  0  0  0  0  0  0  0
  142.3240   76.8410  219.7210 N   0  0  0  0  0  0  0  0  0  0  0  0
  142.0990   78.2160  219.3440 C   0  0  0  0  0  0  0  0  0  0  0  0
  142.1030   78.5750  218.0370 N   0  0  0  0  0  0  0  0  0  0  0  0
  141.9040   79.8650  217.6620 C   0  0  0  0  0  0  0  0  0  0  0  0
  141.9240   80.2150  216.2580 N   0  0  0  0  0  0  0  0  0  0  0  0
  141.5430   79.2320  215.2330 C   0  0  0  0  0  0  0  0  0  0  0  0
  141.4627   78.2390  215.6994 H   0  0  0  0  0  0  0  0  0  0  0  0
  140.5781   79.5341  214.7999 H   0  0  0  0  0  0  0  0  0  0  0  0
  142.5920   79.1750  214.1030 C   0  0  0  0  0  0  0  0  0  0  0  0
  143.3174   78.3833  214.3420 H   0  0  0  0  0  0  0  0  0  0  0  0
  142.0474   78.9765  213.1681 H   0  0  0  0  0  0  0  0  0  0  0  0
  143.3300   80.4430  213.9130 N   0  0  0  0  0  0  0  0  0  0  0  0
  143.5870   80.5400  212.9030 H   0  0  0  0  0  0  0  0  0  0  0  0
  144.2200   80.4160  214.4660 H   0  0  0  0  0  0  0  0  0  0  0  0
  142.5490   81.6200  214.3160 C   0  0  0  0  0  0  0  0  0  0  0  0
  143.1152   82.5321  214.0763 H   0  0  0  0  0  0  0  0  0  0  0  0
  141.5921   81.6208  213.7735 H   0  0  0  0  0  0  0  0  0  0  0  0
  142.2720   81.5760  215.8240 C   0  0  0  0  0  0  0  0  0  0  0  0
  143.1713   81.9066  216.3644 H   0  0  0  0  0  0  0  0  0  0  0  0
  141.4234   82.2407  216.0432 H   0  0  0  0  0  0  0  0  0  0  0  0
  141.7000   80.8140  218.6240 N   0  0  0  0  0  0  0  0  0  0  0  0
  141.5350   81.8020  218.3370 H   0  0  0  0  0  0  0  0  0  0  0  0
  141.6950   80.4640  219.9480 C   0  0  0  0  0  0  0  0  0  0  0  0
  141.5050   81.3450  220.8970 N   0  0  0  0  0  0  0  0  0  0  0  0
  142.1250   82.1870  220.9080 H   0  0  0  0  0  0  0  0  0  0  0  0
  140.4710   81.2380  221.9350 C   0  0  0  0  0  0  0  0  0  0  0  0
  139.9316   82.1943  222.0030 H   0  0  0  0  0  0  0  0  0  0  0  0
  139.7860   80.4227  221.6591 H   0  0  0  0  0  0  0  0  0  0  0  0
  141.0880   80.9100  223.3120 C   0  0  2  0  0  0  0  0  0  0  0  0
  140.7373   81.7184  223.9705 H   0  0  0  0  0  0  0  0  0  0  0  0
  142.6110   80.8160  223.2480 C   0  0  0  0  0  0  0  0  0  0  0  0
  143.0457   81.1488  224.2021 H   0  0  0  0  0  0  0  0  0  0  0  0
  142.9995   81.4581  222.4438 H   0  0  0  0  0  0  0  0  0  0  0  0
  142.9690   79.4190  223.0000 N   0  0  0  0  0  0  0  0  0  0  0  0
  143.1940   79.3140  221.9830 H   0  0  0  0  0  0  0  0  0  0  0  0
  141.7860   78.6060  223.2990 C   0  0  0  0  0  0  0  0  0  0  0  0
  142.0290   77.8694  224.0789 H   0  0  0  0  0  0  0  0  0  0  0  0
  141.4577   78.0704  222.3960 H   0  0  0  0  0  0  0  0  0  0  0  0
  140.6810   79.5280  223.7900 C   0  0  0  0  0  0  0  0  0  0  0  0
  140.6137   79.5019  224.8876 H   0  0  0  0  0  0  0  0  0  0  0  0
  139.6927   79.2312  223.4089 H   0  0  0  0  0  0  0  0  0  0  0  0
  141.8950   79.1660  220.2910 N   0  0  0  0  0  0  0  0  0  0  0  0
  141.2580   76.0880  220.4030 C   0  0  0  0  0  0  0  0  0  0  0  0
  140.2805   76.4798  220.0853 H   0  0  0  0  0  0  0  0  0  0  0  0
  141.3845   76.2057  221.4893 H   0  0  0  0  0  0  0  0  0  0  0  0
  141.3360   74.6020  220.0610 C   0  0  0  0  0  0  0  0  0  0  0  0
  141.1190   74.4631  218.9916 H   0  0  0  0  0  0  0  0  0  0  0  0
  140.5993   74.0543  220.6671 H   0  0  0  0  0  0  0  0  0  0  0  0
  1  2  1  0
  2  3  2  0
  3  4  1  0
  3  5  1  0
  5  6  1  0
  5  7  2  0
  7  8  1  0
  8  9  2  0
  9 10  1  0
  8 11  1  0
 11 12  1  0
 11 13  1  0
 11 14  1  0
 14 15  1  0
 15 16  1  0
 16 17  2  0
 17 18  1  0
 18 19  1  0
 19 20  1  0
 19 21  1  0
 19 22  1  0
 22 23  1  0
 22 24  1  0
 22 25  1  0
 25 26  1  0
 25 27  1  0
 25 28  1  0
 28 29  1  0
 28 30  1  0
 28 31  1  0
 31 32  1  0
 31 33  1  0
 17 34  1  0
 34 35  1  0
 34 36  1  0
 36 37  2  0
 37 38  1  0
 37 39  1  0
 39 40  1  0
 39 41  1  0
 39 42  1  0
 42 43  1  1
 42 44  1  0
 44 45  1  0
 44 46  1  0
 44 47  1  0
 47 48  1  0
 47 49  1  0
 49 50  1  0
 49 51  1  0
 49 52  1  0
 52 53  1  0
 52 54  1  0
 36 55  1  0
 14 56  1  0
 56 57  1  0
 56 58  1  0
 56 59  1  0
 59 60  1  0
 59 61  1  0
  9  2  1  0
 55 15  2  0
 59  7  1  0
 31 18  1  0
 52 42  1  0
M  CHG  2  25   1  37   1
M  END
>  <UniqueID>  (64) 
580

>  <SMILES>  (64) 
c1ccc2c(c1)CCN(c1nc(N3CC[NH2+]CC3)[nH]/c(=[NH+]\C[C@H]3CCNC3)n1)C2

>  <Energy>  (64) 
73.55451655840196

>  <Genealogy>  (64) 
c1ccc2c(c1)CCN(c1nc([NH2+]CC3CCNC3)nc(N3CC[NH2+]CC3)n1)C2 (protonated)
c1ccc2c(c1)CCN(c1nc(N3CC[NH2+]CC3)[nH]c(=[NH+]CC3CCNC3)n1)C2 (tautomer)
c1ccc2c(c1)CCN(c1nc(N3CC[NH2+]CC3)[nH]c(=[NH+]C[C@H]3CCNC3)n1)C2 (chirality)
c1ccc2c(c1)CCN(c1nc(N3CC[NH2+]CC3)[nH]/c(=[NH+]\C[C@H]3CCNC3)n1)C2 (cis-trans isomerization)
c1ccc2c(c1)CCN(c1nc(N3CC[NH2+]CC3)[nH]/c(=[NH+]\C[C@H]3CCNC3)n1)C2 (3D coordinates assigned)
c1ccc2c(c1)CCN(c1nc(N3CC[NH2+]CC3)[nH]/c(=[NH+]\C[C@H]3CCNC3)n1)C2 (nonaromatic ring conformer: 73.55451655840196 kcal/mol)

>  <smiles>  (64) 
c1ccc2c(c1)CCN(c1nc(NCC3CCNC3)nc(N3CCNCC3)n1)C2

>  <score_type>  (64) 
oracle

>  <origin>  (64) 
autodockgpu

>  <m_score__min__energy>  (64) 
-8.4900000000000002

>  <m_primary>  (64) 
energy

>  <meeko>  (64) 
{"free_energy": -8.33, "intermolecular_energy": -9.82, "internal_energy": -0.92, "cluster_size": 19, "cluster_id": 2, "rank_in_cluster": 5}

>  <energy>  (64) 
-8.34

>  <cluster_rmsd>  (64) 
0.05

>  <rmsd>  (64) 
270.27

>  <cluster>  (64) 
2

$$$$
RHAOACRWGXEIGT-RBAGJBRXNA-P
     RDKit          3D

 61 65  0  0  0  0  0  0  0  0999 V2000
  146.2454   72.4438  221.0998 H   0  0  0  0  0  0  0  0  0  0  0  0
  145.2530   72.8320  220.8270 C   0  0  0  0  0  0  0  0  0  0  0  0
  144.1450   71.9820  220.8370 C   0  0  0  0  0  0  0  0  0  0  0  0
  144.2665   70.9248  221.1155 H   0  0  0  0  0  0  0  0  0  0  0  0
  142.8830   72.4720  220.4940 C   0  0  0  0  0  0  0  0  0  0  0  0
  142.0142   71.7973  220.4918 H   0  0  0  0  0  0  0  0  0  0  0  0
  142.7210   73.8240  220.1520 C   0  0  0  0  0  0  0  0  0  0  0  0
  143.8360   74.6820  220.1370 C   0  0  0  0  0  0  0  0  0  0  0  0
  145.1030   74.1750  220.4710 C   0  0  0  0  0  0  0  0  0  0  0  0
  145.9806   74.8380  220.4522 H   0  0  0  0  0  0  0  0  0  0  0  0
  143.7030   76.1230  219.7010 C   0  0  0  0  0  0  0  0  0  0  0  0
  144.0592   76.2068  218.6636 H   0  0  0  0  0  0  0  0  0  0  0  0
  144.3010   76.7277  220.3987 H   0  0  0  0  0  0  0  0  0  0  0  0
  142.3200   76.6330  219.7620 N   0  0  0  0  0  0  0  0  0  0  0  0
  142.0930   78.0350  219.5070 C   0  0  0  0  0  0  0  0  0  0  0  0
  142.0480   78.4990  218.2330 N   0  0  0  0  0  0  0  0  0  0  0  0
  141.8460   79.8160  217.9720 C   0  0  0  0  0  0  0  0  0  0  0  0
  141.8120   80.2770  216.6000 N   0  0  0  0  0  0  0  0  0  0  0  0
  141.5370   79.3430  215.4990 C   0  0  0  0  0  0  0  0  0  0  0  0
  141.5758   78.3130  215.8831 H   0  0  0  0  0  0  0  0  0  0  0  0
  140.5396   79.5656  215.0919 H   0  0  0  0  0  0  0  0  0  0  0  0
  142.5750   79.4990  214.3680 C   0  0  0  0  0  0  0  0  0  0  0  0
  143.3889   78.7798  214.5420 H   0  0  0  0  0  0  0  0  0  0  0  0
  142.0479   79.3150  213.4202 H   0  0  0  0  0  0  0  0  0  0  0  0
  143.1600   80.8540  214.2810 N   0  0  0  0  0  0  0  0  0  0  0  0
  143.3940   81.0610  213.2830 H   0  0  0  0  0  0  0  0  0  0  0  0
  144.0520   80.8870  214.8300 H   0  0  0  0  0  0  0  0  0  0  0  0
  142.2530   81.8970  214.7780 C   0  0  0  0  0  0  0  0  0  0  0  0
  142.7085   82.8845  214.6125 H   0  0  0  0  0  0  0  0  0  0  0  0
  141.2972   81.8308  214.2376 H   0  0  0  0  0  0  0  0  0  0  0  0
  141.9970   81.7010  216.2780 C   0  0  0  0  0  0  0  0  0  0  0  0
  142.8572   82.0888  216.8434 H   0  0  0  0  0  0  0  0  0  0  0  0
  141.0800   82.2439  216.5508 H   0  0  0  0  0  0  0  0  0  0  0  0
  141.6890   80.6860  219.0140 N   0  0  0  0  0  0  0  0  0  0  0  0
  141.5230   81.6940  218.8140 H   0  0  0  0  0  0  0  0  0  0  0  0
  141.7350   80.2310  220.3050 C   0  0  0  0  0  0  0  0  0  0  0  0
  141.5920   81.0330  221.3280 N   0  0  0  0  0  0  0  0  0  0  0  0
  140.9280   81.8360  221.2260 H   0  0  0  0  0  0  0  0  0  0  0  0
  142.2870   80.8740  222.6120 C   0  0  0  0  0  0  0  0  0  0  0  0
  143.1918   80.2680  222.4568 H   0  0  0  0  0  0  0  0  0  0  0  0
  142.5475   81.8731  222.9914 H   0  0  0  0  0  0  0  0  0  0  0  0
  141.3870   80.1760  223.6560 C   0  0  2  0  0  0  0  0  0  0  0  0
  141.4211   80.8364  224.5350 H   0  0  0  0  0  0  0  0  0  0  0  0
  141.8610   78.7570  223.9630 C   0  0  0  0  0  0  0  0  0  0  0  0
  141.6314   78.5053  225.0089 H   0  0  0  0  0  0  0  0  0  0  0  0
  142.9480   78.6777  223.8142 H   0  0  0  0  0  0  0  0  0  0  0  0
  141.1580   77.8390  223.0660 N   0  0  0  0  0  0  0  0  0  0  0  0
  141.8040   77.5910  222.2800 H   0  0  0  0  0  0  0  0  0  0  0  0
  140.0110   78.5650  222.5120 C   0  0  0  0  0  0  0  0  0  0  0  0
  139.0804   78.0329  222.7587 H   0  0  0  0  0  0  0  0  0  0  0  0
  140.1005   78.6338  221.4178 H   0  0  0  0  0  0  0  0  0  0  0  0
  139.9830   79.9580  223.1220 C   0  0  0  0  0  0  0  0  0  0  0  0
  139.2461   80.0093  223.9371 H   0  0  0  0  0  0  0  0  0  0  0  0
  139.6935   80.7261  222.3897 H   0  0  0  0  0  0  0  0  0  0  0  0
  141.9370   78.9080  220.5340 N   0  0  0  0  0  0  0  0  0  0  0  0
  141.2100   75.7880  220.2310 C   0  0  0  0  0  0  0  0  0  0  0  0
  140.2626   76.1902  219.8429 H   0  0  0  0  0  0  0  0  0  0  0  0
  141.2075   75.7908  221.3310 H   0  0  0  0  0  0  0  0  0  0  0  0
  141.3770   74.3490  219.7480 C   0  0  0  0  0  0  0  0  0  0  0  0
  141.2895   74.3205  218.6519 H   0  0  0  0  0  0  0  0  0  0  0  0
  140.5943   73.7233  220.2018 H   0  0  0  0  0  0  0  0  0  0  0  0
  1  2  1  0
  2  3  2  0
  3  4  1  0
  3  5  1  0
  5  6  1  0
  5  7  2  0
  7  8  1  0
  8  9  2  0
  9 10  1  0
  8 11  1  0
 11 12  1  0
 11 13  1  0
 11 14  1  0
 14 15  1  0
 15 16  1  0
 16 17  2  0
 17 18  1  0
 18 19  1  0
 19 20  1  0
 19 21  1  0
 19 22  1  0
 22 23  1  0
 22 24  1  0
 22 25  1  0
 25 26  1  0
 25 27  1  0
 25 28  1  0
 28 29  1  0
 28 30  1  0
 28 31  1  0
 31 32  1  0
 31 33  1  0
 17 34  1  0
 34 35  1  0
 34 36  1  0
 36 37  2  0
 37 38  1  0
 37 39  1  0
 39 40  1  0
 39 41  1  0
 39 42  1  0
 42 43  1  1
 42 44  1  0
 44 45  1  0
 44 46  1  0
 44 47  1  0
 47 48  1  0
 47 49  1  0
 49 50  1  0
 49 51  1  0
 49 52  1  0
 52 53  1  0
 52 54  1  0
 36 55  1  0
 14 56  1  0
 56 57  1  0
 56 58  1  0
 56 59  1  0
 59 60  1  0
 59 61  1  0
  9  2  1  0
 55 15  2  0
 59  7  1  0
 31 18  1  0
 52 42  1  0
M  CHG  2  25   1  37   1
M  END
>  <UniqueID>  (65) 
580

>  <SMILES>  (65) 
c1ccc2c(c1)CCN(c1nc(N3CC[NH2+]CC3)[nH]/c(=[NH+]\C[C@H]3CCNC3)n1)C2

>  <Energy>  (65) 
73.55451655840196

>  <Genealogy>  (65) 
c1ccc2c(c1)CCN(c1nc([NH2+]CC3CCNC3)nc(N3CC[NH2+]CC3)n1)C2 (protonated)
c1ccc2c(c1)CCN(c1nc(N3CC[NH2+]CC3)[nH]c(=[NH+]CC3CCNC3)n1)C2 (tautomer)
c1ccc2c(c1)CCN(c1nc(N3CC[NH2+]CC3)[nH]c(=[NH+]C[C@H]3CCNC3)n1)C2 (chirality)
c1ccc2c(c1)CCN(c1nc(N3CC[NH2+]CC3)[nH]/c(=[NH+]\C[C@H]3CCNC3)n1)C2 (cis-trans isomerization)
c1ccc2c(c1)CCN(c1nc(N3CC[NH2+]CC3)[nH]/c(=[NH+]\C[C@H]3CCNC3)n1)C2 (3D coordinates assigned)
c1ccc2c(c1)CCN(c1nc(N3CC[NH2+]CC3)[nH]/c(=[NH+]\C[C@H]3CCNC3)n1)C2 (nonaromatic ring conformer: 73.55451655840196 kcal/mol)

>  <smiles>  (65) 
c1ccc2c(c1)CCN(c1nc(NCC3CCNC3)nc(N3CCNCC3)n1)C2

>  <score_type>  (65) 
oracle

>  <origin>  (65) 
autodockgpu

>  <m_score__min__energy>  (65) 
-8.4900000000000002

>  <m_primary>  (65) 
energy

>  <meeko>  (65) 
{"free_energy": -8.1, "intermolecular_energy": -9.59, "internal_energy": -0.77, "cluster_size": 19, "cluster_id": 2, "rank_in_cluster": 13}

>  <energy>  (65) 
-8.33

>  <cluster_rmsd>  (65) 
0.2

>  <rmsd>  (65) 
270.25

>  <cluster>  (65) 
2

$$$$
RHAOACRWGXEIGT-RBAGJBRXNA-P
     RDKit          3D

 61 65  0  0  0  0  0  0  0  0999 V2000
  146.1156   72.6643  221.1438 H   0  0  0  0  0  0  0  0  0  0  0  0
  145.1370   73.0760  220.8560 C   0  0  0  0  0  0  0  0  0  0  0  0
  144.0010   72.2650  220.8950 C   0  0  0  0  0  0  0  0  0  0  0  0
  144.0865   71.2146  221.2103 H   0  0  0  0  0  0  0  0  0  0  0  0
  142.7560   72.7860  220.5340 C   0  0  0  0  0  0  0  0  0  0  0  0
  141.8646   72.1418  220.5546 H   0  0  0  0  0  0  0  0  0  0  0  0
  142.6400   74.1300  220.1450 C   0  0  0  0  0  0  0  0  0  0  0  0
  143.7840   74.9490  220.1010 C   0  0  0  0  0  0  0  0  0  0  0  0
  145.0330   74.4100  220.4520 C   0  0  0  0  0  0  0  0  0  0  0  0
  145.9332   75.0407  220.4087 H   0  0  0  0  0  0  0  0  0  0  0  0
  143.7010   76.3770  219.6140 C   0  0  0  0  0  0  0  0  0  0  0  0
  144.0586   76.4115  218.5743 H   0  0  0  0  0  0  0  0  0  0  0  0
  144.3208   76.9853  220.2892 H   0  0  0  0  0  0  0  0  0  0  0  0
  142.3360   76.9360  219.6570 N   0  0  0  0  0  0  0  0  0  0  0  0
  142.1570   78.3350  219.3530 C   0  0  0  0  0  0  0  0  0  0  0  0
  142.1600   78.7600  218.0650 N   0  0  0  0  0  0  0  0  0  0  0  0
  142.0030   80.0730  217.7580 C   0  0  0  0  0  0  0  0  0  0  0  0
  142.0190   80.4930  216.3730 N   0  0  0  0  0  0  0  0  0  0  0  0
  141.4110   79.6570  215.3270 C   0  0  0  0  0  0  0  0  0  0  0  0
  141.1686   78.6712  215.7505 H   0  0  0  0  0  0  0  0  0  0  0  0
  140.5001   80.1566  214.9655 H   0  0  0  0  0  0  0  0  0  0  0  0
  142.3740   79.4710  214.1360 C   0  0  0  0  0  0  0  0  0  0  0  0
  142.9489   78.5468  214.2951 H   0  0  0  0  0  0  0  0  0  0  0  0
  141.7567   79.4296  213.2265 H   0  0  0  0  0  0  0  0  0  0  0  0
  143.3260   80.5890  213.9620 N   0  0  0  0  0  0  0  0  0  0  0  0
  143.5470   80.6940  212.9450 H   0  0  0  0  0  0  0  0  0  0  0  0
  144.2210   80.3660  214.4600 H   0  0  0  0  0  0  0  0  0  0  0  0
  142.8020   81.8650  214.4650 C   0  0  0  0  0  0  0  0  0  0  0  0
  143.5176   82.6682  214.2351 H   0  0  0  0  0  0  0  0  0  0  0  0
  141.8368   82.0740  213.9806 H   0  0  0  0  0  0  0  0  0  0  0  0
  142.5960   81.7880  215.9830 C   0  0  0  0  0  0  0  0  0  0  0  0
  143.5669   81.9145  216.4844 H   0  0  0  0  0  0  0  0  0  0  0  0
  141.9000   82.5854  216.2824 H   0  0  0  0  0  0  0  0  0  0  0  0
  141.8440   80.9800  218.7690 N   0  0  0  0  0  0  0  0  0  0  0  0
  141.7130   81.9850  218.5330 H   0  0  0  0  0  0  0  0  0  0  0  0
  141.8420   80.5640  220.0740 C   0  0  0  0  0  0  0  0  0  0  0  0
  141.6950   81.4020  221.0680 N   0  0  0  0  0  0  0  0  0  0  0  0
  142.3940   82.1760  221.1560 H   0  0  0  0  0  0  0  0  0  0  0  0
  140.6090   81.3380  222.0540 C   0  0  0  0  0  0  0  0  0  0  0  0
  140.1721   82.3407  222.1713 H   0  0  0  0  0  0  0  0  0  0  0  0
  139.8541   80.6241  221.6928 H   0  0  0  0  0  0  0  0  0  0  0  0
  141.1240   80.8500  223.4260 C   0  0  2  0  0  0  0  0  0  0  0  0
  140.7423   81.5921  224.1427 H   0  0  0  0  0  0  0  0  0  0  0  0
  142.6460   80.7260  223.4550 C   0  0  0  0  0  0  0  0  0  0  0  0
  143.0185   80.9436  224.4669 H   0  0  0  0  0  0  0  0  0  0  0  0
  143.0999   81.4411  222.7531 H   0  0  0  0  0  0  0  0  0  0  0  0
  142.9980   79.3560  223.0810 N   0  0  0  0  0  0  0  0  0  0  0  0
  143.2910   79.3560  222.0760 H   0  0  0  0  0  0  0  0  0  0  0  0
  141.7830   78.5440  223.2100 C   0  0  0  0  0  0  0  0  0  0  0  0
  141.9589   77.7224  223.9200 H   0  0  0  0  0  0  0  0  0  0  0  0
  141.5091   78.1161  222.2343 H   0  0  0  0  0  0  0  0  0  0  0  0
  140.6620   79.4350  223.7230 C   0  0  0  0  0  0  0  0  0  0  0  0
  140.5185   79.2933  224.8044 H   0  0  0  0  0  0  0  0  0  0  0  0
  139.6977   79.2046  223.2465 H   0  0  0  0  0  0  0  0  0  0  0  0
  141.9990   79.2440  220.3480 N   0  0  0  0  0  0  0  0  0  0  0  0
  141.1970   76.1470  220.1550 C   0  0  0  0  0  0  0  0  0  0  0  0
  140.2639   76.5676  219.7519 H   0  0  0  0  0  0  0  0  0  0  0  0
  141.1941   76.1891  221.2542 H   0  0  0  0  0  0  0  0  0  0  0  0
  141.3150   74.6870  219.7230 C   0  0  0  0  0  0  0  0  0  0  0  0
  141.2256   74.6232  218.6285 H   0  0  0  0  0  0  0  0  0  0  0  0
  140.5121   74.1050  220.1990 H   0  0  0  0  0  0  0  0  0  0  0  0
  1  2  1  0
  2  3  2  0
  3  4  1  0
  3  5  1  0
  5  6  1  0
  5  7  2  0
  7  8  1  0
  8  9  2  0
  9 10  1  0
  8 11  1  0
 11 12  1  0
 11 13  1  0
 11 14  1  0
 14 15  1  0
 15 16  1  0
 16 17  2  0
 17 18  1  0
 18 19  1  0
 19 20  1  0
 19 21  1  0
 19 22  1  0
 22 23  1  0
 22 24  1  0
 22 25  1  0
 25 26  1  0
 25 27  1  0
 25 28  1  0
 28 29  1  0
 28 30  1  0
 28 31  1  0
 31 32  1  0
 31 33  1  0
 17 34  1  0
 34 35  1  0
 34 36  1  0
 36 37  2  0
 37 38  1  0
 37 39  1  0
 39 40  1  0
 39 41  1  0
 39 42  1  0
 42 43  1  1
 42 44  1  0
 44 45  1  0
 44 46  1  0
 44 47  1  0
 47 48  1  0
 47 49  1  0
 49 50  1  0
 49 51  1  0
 49 52  1  0
 52 53  1  0
 52 54  1  0
 36 55  1  0
 14 56  1  0
 56 57  1  0
 56 58  1  0
 56 59  1  0
 59 60  1  0
 59 61  1  0
  9  2  1  0
 55 15  2  0
 59  7  1  0
 31 18  1  0
 52 42  1  0
M  CHG  2  25   1  37   1
M  END
>  <UniqueID>  (66) 
580

>  <SMILES>  (66) 
c1ccc2c(c1)CCN(c1nc(N3CC[NH2+]CC3)[nH]/c(=[NH+]\C[C@H]3CCNC3)n1)C2

>  <Energy>  (66) 
73.55451655840196

>  <Genealogy>  (66) 
c1ccc2c(c1)CCN(c1nc([NH2+]CC3CCNC3)nc(N3CC[NH2+]CC3)n1)C2 (protonated)
c1ccc2c(c1)CCN(c1nc(N3CC[NH2+]CC3)[nH]c(=[NH+]CC3CCNC3)n1)C2 (tautomer)
c1ccc2c(c1)CCN(c1nc(N3CC[NH2+]CC3)[nH]c(=[NH+]C[C@H]3CCNC3)n1)C2 (chirality)
c1ccc2c(c1)CCN(c1nc(N3CC[NH2+]CC3)[nH]/c(=[NH+]\C[C@H]3CCNC3)n1)C2 (cis-trans isomerization)
c1ccc2c(c1)CCN(c1nc(N3CC[NH2+]CC3)[nH]/c(=[NH+]\C[C@H]3CCNC3)n1)C2 (3D coordinates assigned)
c1ccc2c(c1)CCN(c1nc(N3CC[NH2+]CC3)[nH]/c(=[NH+]\C[C@H]3CCNC3)n1)C2 (nonaromatic ring conformer: 73.55451655840196 kcal/mol)

>  <smiles>  (66) 
c1ccc2c(c1)CCN(c1nc(NCC3CCNC3)nc(N3CCNCC3)n1)C2

>  <score_type>  (66) 
oracle

>  <origin>  (66) 
autodockgpu

>  <m_score__min__energy>  (66) 
-8.4900000000000002

>  <m_primary>  (66) 
energy

>  <meeko>  (66) 
{"free_energy": -8.31, "intermolecular_energy": -9.81, "internal_energy": -0.91, "cluster_size": 19, "cluster_id": 2, "rank_in_cluster": 7}

>  <energy>  (66) 
-8.33

>  <cluster_rmsd>  (66) 
0.21

>  <rmsd>  (66) 
270.23

>  <cluster>  (66) 
2

$$$$
RHAOACRWGXEIGT-RBAGJBRXNA-P
     RDKit          3D

 61 65  0  0  0  0  0  0  0  0999 V2000
  144.9877   72.2014  221.4401 H   0  0  0  0  0  0  0  0  0  0  0  0
  144.7220   72.8010  220.5570 C   0  0  0  0  0  0  0  0  0  0  0  0
  144.7310   72.2160  219.2890 C   0  0  0  0  0  0  0  0  0  0  0  0
  145.0078   71.1576  219.1744 H   0  0  0  0  0  0  0  0  0  0  0  0
  144.3890   72.9730  218.1660 C   0  0  0  0  0  0  0  0  0  0  0  0
  144.4072   72.5126  217.1672 H   0  0  0  0  0  0  0  0  0  0  0  0
  144.0220   74.3210  218.3100 C   0  0  0  0  0  0  0  0  0  0  0  0
  144.0170   74.9140  219.5850 C   0  0  0  0  0  0  0  0  0  0  0  0
  144.3760   74.1470  220.7060 C   0  0  0  0  0  0  0  0  0  0  0  0
  144.3848   74.6076  221.7049 H   0  0  0  0  0  0  0  0  0  0  0  0
  143.6990   76.3810  219.7600 C   0  0  0  0  0  0  0  0  0  0  0  0
  144.6441   76.9289  219.8890 H   0  0  0  0  0  0  0  0  0  0  0  0
  143.0430   76.4667  220.6388 H   0  0  0  0  0  0  0  0  0  0  0  0
  142.9720   76.9670  218.6180 N   0  0  0  0  0  0  0  0  0  0  0  0
  142.4890   78.3220  218.7330 C   0  0  0  0  0  0  0  0  0  0  0  0
  142.7970   79.2410  217.7840 N   0  0  0  0  0  0  0  0  0  0  0  0
  142.3620   80.5230  217.8790 C   0  0  0  0  0  0  0  0  0  0  0  0
  142.7160   81.4790  216.8520 N   0  0  0  0  0  0  0  0  0  0  0  0
  141.9160   81.5940  215.6230 C   0  0  0  0  0  0  0  0  0  0  0  0
  141.2121   80.7502  215.5719 H   0  0  0  0  0  0  0  0  0  0  0  0
  141.3717   82.5496  215.6478 H   0  0  0  0  0  0  0  0  0  0  0  0
  142.8180   81.5750  214.3710 C   0  0  0  0  0  0  0  0  0  0  0  0
  142.8941   80.5374  214.0139 H   0  0  0  0  0  0  0  0  0  0  0  0
  142.3525   82.2416  213.6300 H   0  0  0  0  0  0  0  0  0  0  0  0
  144.1830   82.0860  214.6130 N   0  0  0  0  0  0  0  0  0  0  0  0
  144.5380   82.5400  213.7400 H   0  0  0  0  0  0  0  0  0  0  0  0
  144.8220   81.2860  214.8380 H   0  0  0  0  0  0  0  0  0  0  0  0
  144.2370   83.0650  215.7070 C   0  0  0  0  0  0  0  0  0  0  0  0
  145.2576   83.4678  215.7850 H   0  0  0  0  0  0  0  0  0  0  0  0
  143.5287   83.8799  215.4969 H   0  0  0  0  0  0  0  0  0  0  0  0
  143.8530   82.3940  217.0330 C   0  0  0  0  0  0  0  0  0  0  0  0
  144.7154   81.8254  217.4112 H   0  0  0  0  0  0  0  0  0  0  0  0
  143.5621   83.1761  217.7497 H   0  0  0  0  0  0  0  0  0  0  0  0
  141.6030   80.8910  218.9550 N   0  0  0  0  0  0  0  0  0  0  0  0
  141.2590   81.8720  219.0220 H   0  0  0  0  0  0  0  0  0  0  0  0
  141.2870   79.9740  219.9210 C   0  0  0  0  0  0  0  0  0  0  0  0
  140.5650   80.2900  220.9660 N   0  0  0  0  0  0  0  0  0  0  0  0
  139.7530   79.6720  221.1990 H   0  0  0  0  0  0  0  0  0  0  0  0
  140.8280   81.4400  221.8400 C   0  0  0  0  0  0  0  0  0  0  0  0
  141.4462   82.1692  221.2959 H   0  0  0  0  0  0  0  0  0  0  0  0
  139.8637   81.8840  222.1279 H   0  0  0  0  0  0  0  0  0  0  0  0
  141.5700   81.0120  223.1260 C   0  0  2  0  0  0  0  0  0  0  0  0
  141.5562   81.9081  223.7638 H   0  0  0  0  0  0  0  0  0  0  0  0
  142.9840   80.5160  222.8320 C   0  0  0  0  0  0  0  0  0  0  0  0
  143.6467   80.7568  223.6763 H   0  0  0  0  0  0  0  0  0  0  0  0
  143.3782   81.0024  221.9276 H   0  0  0  0  0  0  0  0  0  0  0  0
  142.9270   79.0660  222.6440 N   0  0  0  0  0  0  0  0  0  0  0  0
  142.9400   78.8690  221.6160 H   0  0  0  0  0  0  0  0  0  0  0  0
  141.6460   78.6060  223.1890 C   0  0  0  0  0  0  0  0  0  0  0  0
  141.8243   77.8607  223.9782 H   0  0  0  0  0  0  0  0  0  0  0  0
  141.0420   78.1431  222.3947 H   0  0  0  0  0  0  0  0  0  0  0  0
  140.9130   79.8050  223.7710 C   0  0  0  0  0  0  0  0  0  0  0  0
  141.0307   79.8378  224.8642 H   0  0  0  0  0  0  0  0  0  0  0  0
  139.8315   79.7662  223.5738 H   0  0  0  0  0  0  0  0  0  0  0  0
  141.7350   78.6990  219.7970 N   0  0  0  0  0  0  0  0  0  0  0  0
  142.5930   76.1550  217.4490 C   0  0  0  0  0  0  0  0  0  0  0  0
  142.4306   76.8186  216.5869 H   0  0  0  0  0  0  0  0  0  0  0  0
  141.6719   75.6033  217.6880 H   0  0  0  0  0  0  0  0  0  0  0  0
  143.6890   75.1490  217.1060 C   0  0  0  0  0  0  0  0  0  0  0  0
  144.5885   75.6892  216.7756 H   0  0  0  0  0  0  0  0  0  0  0  0
  143.3330   74.4885  216.3016 H   0  0  0  0  0  0  0  0  0  0  0  0
  1  2  1  0
  2  3  2  0
  3  4  1  0
  3  5  1  0
  5  6  1  0
  5  7  2  0
  7  8  1  0
  8  9  2  0
  9 10  1  0
  8 11  1  0
 11 12  1  0
 11 13  1  0
 11 14  1  0
 14 15  1  0
 15 16  1  0
 16 17  2  0
 17 18  1  0
 18 19  1  0
 19 20  1  0
 19 21  1  0
 19 22  1  0
 22 23  1  0
 22 24  1  0
 22 25  1  0
 25 26  1  0
 25 27  1  0
 25 28  1  0
 28 29  1  0
 28 30  1  0
 28 31  1  0
 31 32  1  0
 31 33  1  0
 17 34  1  0
 34 35  1  0
 34 36  1  0
 36 37  2  0
 37 38  1  0
 37 39  1  0
 39 40  1  0
 39 41  1  0
 39 42  1  0
 42 43  1  1
 42 44  1  0
 44 45  1  0
 44 46  1  0
 44 47  1  0
 47 48  1  0
 47 49  1  0
 49 50  1  0
 49 51  1  0
 49 52  1  0
 52 53  1  0
 52 54  1  0
 36 55  1  0
 14 56  1  0
 56 57  1  0
 56 58  1  0
 56 59  1  0
 59 60  1  0
 59 61  1  0
  9  2  1  0
 55 15  2  0
 59  7  1  0
 31 18  1  0
 52 42  1  0
M  CHG  2  25   1  37   1
M  END
>  <UniqueID>  (67) 
580

>  <SMILES>  (67) 
c1ccc2c(c1)CCN(c1nc(N3CC[NH2+]CC3)[nH]/c(=[NH+]\C[C@H]3CCNC3)n1)C2

>  <Energy>  (67) 
73.55451655840196

>  <Genealogy>  (67) 
c1ccc2c(c1)CCN(c1nc([NH2+]CC3CCNC3)nc(N3CC[NH2+]CC3)n1)C2 (protonated)
c1ccc2c(c1)CCN(c1nc(N3CC[NH2+]CC3)[nH]c(=[NH+]CC3CCNC3)n1)C2 (tautomer)
c1ccc2c(c1)CCN(c1nc(N3CC[NH2+]CC3)[nH]c(=[NH+]C[C@H]3CCNC3)n1)C2 (chirality)
c1ccc2c(c1)CCN(c1nc(N3CC[NH2+]CC3)[nH]/c(=[NH+]\C[C@H]3CCNC3)n1)C2 (cis-trans isomerization)
c1ccc2c(c1)CCN(c1nc(N3CC[NH2+]CC3)[nH]/c(=[NH+]\C[C@H]3CCNC3)n1)C2 (3D coordinates assigned)
c1ccc2c(c1)CCN(c1nc(N3CC[NH2+]CC3)[nH]/c(=[NH+]\C[C@H]3CCNC3)n1)C2 (nonaromatic ring conformer: 73.55451655840196 kcal/mol)

>  <smiles>  (67) 
c1ccc2c(c1)CCN(c1nc(NCC3CCNC3)nc(N3CCNCC3)n1)C2

>  <score_type>  (67) 
oracle

>  <origin>  (67) 
autodockgpu

>  <m_score__min__energy>  (67) 
-8.4900000000000002

>  <m_primary>  (67) 
energy

>  <meeko>  (67) 
{"free_energy": -8.19, "intermolecular_energy": -9.68, "internal_energy": -0.88, "cluster_size": 19, "cluster_id": 2, "rank_in_cluster": 12}

>  <energy>  (67) 
-8.32

>  <cluster_rmsd>  (67) 
0.1

>  <rmsd>  (67) 
270.3

>  <cluster>  (67) 
2

$$$$
RHAOACRWGXEIGT-RBAGJBRXNA-P
     RDKit          3D

 61 65  0  0  0  0  0  0  0  0999 V2000
  146.1868   72.6915  221.1198 H   0  0  0  0  0  0  0  0  0  0  0  0
  145.1960   73.0900  220.8560 C   0  0  0  0  0  0  0  0  0  0  0  0
  144.0670   72.2750  220.9580 C   0  0  0  0  0  0  0  0  0  0  0  0
  144.1699   71.2344  221.2995 H   0  0  0  0  0  0  0  0  0  0  0  0
  142.8070   72.7790  220.6270 C   0  0  0  0  0  0  0  0  0  0  0  0
  141.9209   72.1311  220.6978 H   0  0  0  0  0  0  0  0  0  0  0  0
  142.6690   74.1110  220.2040 C   0  0  0  0  0  0  0  0  0  0  0  0
  143.8050   74.9330  220.0960 C   0  0  0  0  0  0  0  0  0  0  0  0
  145.0690   74.4120  220.4190 C   0  0  0  0  0  0  0  0  0  0  0  0
  145.9627   75.0469  220.3277 H   0  0  0  0  0  0  0  0  0  0  0  0
  143.6960   76.3460  219.5720 C   0  0  0  0  0  0  0  0  0  0  0  0
  144.0168   76.3527  218.5198 H   0  0  0  0  0  0  0  0  0  0  0  0
  144.3351   76.9765  220.2076 H   0  0  0  0  0  0  0  0  0  0  0  0
  142.3300   76.8990  219.6470 N   0  0  0  0  0  0  0  0  0  0  0  0
  142.1320   78.2880  219.3090 C   0  0  0  0  0  0  0  0  0  0  0  0
  142.1410   78.6840  218.0120 N   0  0  0  0  0  0  0  0  0  0  0  0
  141.9660   79.9870  217.6740 C   0  0  0  0  0  0  0  0  0  0  0  0
  141.9900   80.3750  216.2800 N   0  0  0  0  0  0  0  0  0  0  0  0
  141.5440   79.4440  215.2320 C   0  0  0  0  0  0  0  0  0  0  0  0
  141.4139   78.4439  215.6712 H   0  0  0  0  0  0  0  0  0  0  0  0
  140.5927   79.8111  214.8195 H   0  0  0  0  0  0  0  0  0  0  0  0
  142.5760   79.3620  214.0880 C   0  0  0  0  0  0  0  0  0  0  0  0
  143.2590   78.5251  214.2958 H   0  0  0  0  0  0  0  0  0  0  0  0
  142.0109   79.2209  213.1549 H   0  0  0  0  0  0  0  0  0  0  0  0
  143.3810   80.5920  213.9240 N   0  0  0  0  0  0  0  0  0  0  0  0
  143.6320   80.7030  212.9150 H   0  0  0  0  0  0  0  0  0  0  0  0
  144.2740   80.5000  214.4650 H   0  0  0  0  0  0  0  0  0  0  0  0
  142.6720   81.7980  214.3700 C   0  0  0  0  0  0  0  0  0  0  0  0
  143.2858   82.6836  214.1489 H   0  0  0  0  0  0  0  0  0  0  0  0
  141.7106   81.8671  213.8400 H   0  0  0  0  0  0  0  0  0  0  0  0
  142.4090   81.7270  215.8800 C   0  0  0  0  0  0  0  0  0  0  0  0
  143.3310   81.9917  216.4184 H   0  0  0  0  0  0  0  0  0  0  0  0
  141.6015   82.4315  216.1282 H   0  0  0  0  0  0  0  0  0  0  0  0
  141.7820   80.9130  218.6620 N   0  0  0  0  0  0  0  0  0  0  0  0
  141.6370   81.9110  218.4030 H   0  0  0  0  0  0  0  0  0  0  0  0
  141.7730   80.5270  219.9760 C   0  0  0  0  0  0  0  0  0  0  0  0
  141.6020   81.3850  220.9490 N   0  0  0  0  0  0  0  0  0  0  0  0
  142.2580   82.1990  220.9990 H   0  0  0  0  0  0  0  0  0  0  0  0
  140.5440   81.2900  221.9630 C   0  0  0  0  0  0  0  0  0  0  0  0
  140.0440   82.2658  222.0514 H   0  0  0  0  0  0  0  0  0  0  0  0
  139.8308   80.5139  221.6485 H   0  0  0  0  0  0  0  0  0  0  0  0
  141.1200   80.8930  223.3410 C   0  0  2  0  0  0  0  0  0  0  0  0
  140.7570   81.6726  224.0269 H   0  0  0  0  0  0  0  0  0  0  0  0
  142.6430   80.7890  223.3150 C   0  0  0  0  0  0  0  0  0  0  0  0
  143.0529   81.0734  224.2954 H   0  0  0  0  0  0  0  0  0  0  0  0
  143.0580   81.4644  222.5524 H   0  0  0  0  0  0  0  0  0  0  0  0
  142.9990   79.4030  223.0120 N   0  0  0  0  0  0  0  0  0  0  0  0
  143.2520   79.3440  221.9980 H   0  0  0  0  0  0  0  0  0  0  0  0
  141.8030   78.5860  223.2390 C   0  0  0  0  0  0  0  0  0  0  0  0
  142.0187   77.8122  223.9905 H   0  0  0  0  0  0  0  0  0  0  0  0
  141.4973   78.0948  222.3034 H   0  0  0  0  0  0  0  0  0  0  0  0
  140.6900   79.4940  223.7410 C   0  0  0  0  0  0  0  0  0  0  0  0
  140.5904   79.4169  224.8338 H   0  0  0  0  0  0  0  0  0  0  0  0
  139.7114   79.2238  223.3176 H   0  0  0  0  0  0  0  0  0  0  0  0
  141.9480   79.2160  220.2820 N   0  0  0  0  0  0  0  0  0  0  0  0
  141.2140   76.1190  220.2070 C   0  0  0  0  0  0  0  0  0  0  0  0
  140.2648   76.5229  219.8250 H   0  0  0  0  0  0  0  0  0  0  0  0
  141.2491   76.1928  221.3040 H   0  0  0  0  0  0  0  0  0  0  0  0
  141.3260   74.6480  219.8130 C   0  0  0  0  0  0  0  0  0  0  0  0
  141.1987   74.5522  218.7246 H   0  0  0  0  0  0  0  0  0  0  0  0
  140.5440   74.0754  220.3332 H   0  0  0  0  0  0  0  0  0  0  0  0
  1  2  1  0
  2  3  2  0
  3  4  1  0
  3  5  1  0
  5  6  1  0
  5  7  2  0
  7  8  1  0
  8  9  2  0
  9 10  1  0
  8 11  1  0
 11 12  1  0
 11 13  1  0
 11 14  1  0
 14 15  1  0
 15 16  1  0
 16 17  2  0
 17 18  1  0
 18 19  1  0
 19 20  1  0
 19 21  1  0
 19 22  1  0
 22 23  1  0
 22 24  1  0
 22 25  1  0
 25 26  1  0
 25 27  1  0
 25 28  1  0
 28 29  1  0
 28 30  1  0
 28 31  1  0
 31 32  1  0
 31 33  1  0
 17 34  1  0
 34 35  1  0
 34 36  1  0
 36 37  2  0
 37 38  1  0
 37 39  1  0
 39 40  1  0
 39 41  1  0
 39 42  1  0
 42 43  1  1
 42 44  1  0
 44 45  1  0
 44 46  1  0
 44 47  1  0
 47 48  1  0
 47 49  1  0
 49 50  1  0
 49 51  1  0
 49 52  1  0
 52 53  1  0
 52 54  1  0
 36 55  1  0
 14 56  1  0
 56 57  1  0
 56 58  1  0
 56 59  1  0
 59 60  1  0
 59 61  1  0
  9  2  1  0
 55 15  2  0
 59  7  1  0
 31 18  1  0
 52 42  1  0
M  CHG  2  25   1  37   1
M  END
>  <UniqueID>  (68) 
580

>  <SMILES>  (68) 
c1ccc2c(c1)CCN(c1nc(N3CC[NH2+]CC3)[nH]/c(=[NH+]\C[C@H]3CCNC3)n1)C2

>  <Energy>  (68) 
73.55451655840196

>  <Genealogy>  (68) 
c1ccc2c(c1)CCN(c1nc([NH2+]CC3CCNC3)nc(N3CC[NH2+]CC3)n1)C2 (protonated)
c1ccc2c(c1)CCN(c1nc(N3CC[NH2+]CC3)[nH]c(=[NH+]CC3CCNC3)n1)C2 (tautomer)
c1ccc2c(c1)CCN(c1nc(N3CC[NH2+]CC3)[nH]c(=[NH+]C[C@H]3CCNC3)n1)C2 (chirality)
c1ccc2c(c1)CCN(c1nc(N3CC[NH2+]CC3)[nH]/c(=[NH+]\C[C@H]3CCNC3)n1)C2 (cis-trans isomerization)
c1ccc2c(c1)CCN(c1nc(N3CC[NH2+]CC3)[nH]/c(=[NH+]\C[C@H]3CCNC3)n1)C2 (3D coordinates assigned)
c1ccc2c(c1)CCN(c1nc(N3CC[NH2+]CC3)[nH]/c(=[NH+]\C[C@H]3CCNC3)n1)C2 (nonaromatic ring conformer: 73.55451655840196 kcal/mol)

>  <smiles>  (68) 
c1ccc2c(c1)CCN(c1nc(NCC3CCNC3)nc(N3CCNCC3)n1)C2

>  <score_type>  (68) 
oracle

>  <origin>  (68) 
autodockgpu

>  <m_score__min__energy>  (68) 
-8.4900000000000002

>  <m_primary>  (68) 
energy

>  <meeko>  (68) 
{"free_energy": -8.34, "intermolecular_energy": -9.84, "internal_energy": -0.92, "cluster_size": 19, "cluster_id": 2, "rank_in_cluster": 2}

>  <energy>  (68) 
-8.31

>  <cluster_rmsd>  (68) 
0.11

>  <rmsd>  (68) 
270.3

>  <cluster>  (68) 
2

$$$$
RHAOACRWGXEIGT-RBAGJBRXNA-P
     RDKit          3D

 61 65  0  0  0  0  0  0  0  0999 V2000
  146.1449   72.7307  221.1810 H   0  0  0  0  0  0  0  0  0  0  0  0
  145.1650   73.1250  220.8740 C   0  0  0  0  0  0  0  0  0  0  0  0
  144.0410   72.2970  220.8990 C   0  0  0  0  0  0  0  0  0  0  0  0
  144.1375   71.2503  221.2233 H   0  0  0  0  0  0  0  0  0  0  0  0
  142.7940   72.7950  220.5130 C   0  0  0  0  0  0  0  0  0  0  0  0
  141.9127   72.1368  220.5233 H   0  0  0  0  0  0  0  0  0  0  0  0
  142.6640   74.1340  220.1120 C   0  0  0  0  0  0  0  0  0  0  0  0
  143.7950   74.9700  220.0810 C   0  0  0  0  0  0  0  0  0  0  0  0
  145.0460   74.4550  220.4590 C   0  0  0  0  0  0  0  0  0  0  0  0
  145.9360   75.1008  220.4284 H   0  0  0  0  0  0  0  0  0  0  0  0
  143.6970   76.3930  219.5820 C   0  0  0  0  0  0  0  0  0  0  0  0
  144.0713   76.4256  218.5481 H   0  0  0  0  0  0  0  0  0  0  0  0
  144.2954   77.0158  220.2632 H   0  0  0  0  0  0  0  0  0  0  0  0
  142.3230   76.9310  219.5980 N   0  0  0  0  0  0  0  0  0  0  0  0
  142.1270   78.3250  219.2800 C   0  0  0  0  0  0  0  0  0  0  0  0
  142.1540   78.7420  217.9900 N   0  0  0  0  0  0  0  0  0  0  0  0
  141.9810   80.0500  217.6700 C   0  0  0  0  0  0  0  0  0  0  0  0
  142.0250   80.4610  216.2830 N   0  0  0  0  0  0  0  0  0  0  0  0
  141.5190   79.5780  215.2210 C   0  0  0  0  0  0  0  0  0  0  0  0
  141.3288   78.5802  215.6431 H   0  0  0  0  0  0  0  0  0  0  0  0
  140.5907   80.0100  214.8191 H   0  0  0  0  0  0  0  0  0  0  0  0
  142.5410   79.4530  214.0710 C   0  0  0  0  0  0  0  0  0  0  0  0
  143.1717   78.5720  214.2611 H   0  0  0  0  0  0  0  0  0  0  0  0
  141.9657   79.3636  213.1377 H   0  0  0  0  0  0  0  0  0  0  0  0
  143.4190   80.6330  213.9260 N   0  0  0  0  0  0  0  0  0  0  0  0
  143.6730   80.7470  212.9170 H   0  0  0  0  0  0  0  0  0  0  0  0
  144.3060   80.4780  214.4610 H   0  0  0  0  0  0  0  0  0  0  0  0
  142.7860   81.8730  214.3950 C   0  0  0  0  0  0  0  0  0  0  0  0
  143.4518   82.7234  214.1861 H   0  0  0  0  0  0  0  0  0  0  0  0
  141.8290   82.0105  213.8703 H   0  0  0  0  0  0  0  0  0  0  0  0
  142.5250   81.7910  215.9050 C   0  0  0  0  0  0  0  0  0  0  0  0
  143.4637   81.9885  216.4433 H   0  0  0  0  0  0  0  0  0  0  0  0
  141.7635   82.5394  216.1696 H   0  0  0  0  0  0  0  0  0  0  0  0
  141.7820   80.9590  218.6700 N   0  0  0  0  0  0  0  0  0  0  0  0
  141.6380   81.9610  218.4250 H   0  0  0  0  0  0  0  0  0  0  0  0
  141.7540   80.5520  219.9770 C   0  0  0  0  0  0  0  0  0  0  0  0
  141.5680   81.3930  220.9620 N   0  0  0  0  0  0  0  0  0  0  0  0
  142.2080   82.2190  221.0220 H   0  0  0  0  0  0  0  0  0  0  0  0
  140.5130   81.2650  221.9760 C   0  0  0  0  0  0  0  0  0  0  0  0
  139.9916   82.2286  222.0740 H   0  0  0  0  0  0  0  0  0  0  0  0
  139.8170   80.4762  221.6545 H   0  0  0  0  0  0  0  0  0  0  0  0
  141.0980   80.8680  223.3490 C   0  0  2  0  0  0  0  0  0  0  0  0
  140.7304   81.6417  224.0391 H   0  0  0  0  0  0  0  0  0  0  0  0
  142.6220   80.7780  223.3170 C   0  0  0  0  0  0  0  0  0  0  0  0
  143.0328   81.0615  224.2972 H   0  0  0  0  0  0  0  0  0  0  0  0
  143.0279   81.4607  222.5560 H   0  0  0  0  0  0  0  0  0  0  0  0
  142.9900   79.3960  223.0060 N   0  0  0  0  0  0  0  0  0  0  0  0
  143.2390   79.3440  221.9910 H   0  0  0  0  0  0  0  0  0  0  0  0
  141.8020   78.5680  223.2340 C   0  0  0  0  0  0  0  0  0  0  0  0
  142.0276   77.7924  223.9807 H   0  0  0  0  0  0  0  0  0  0  0  0
  141.4967   78.0793  222.2970 H   0  0  0  0  0  0  0  0  0  0  0  0
  140.6830   79.4630  223.7450 C   0  0  0  0  0  0  0  0  0  0  0  0
  140.5893   79.3803  224.8379 H   0  0  0  0  0  0  0  0  0  0  0  0
  139.7050   79.1853  223.3250 H   0  0  0  0  0  0  0  0  0  0  0  0
  141.9280   79.2360  220.2640 N   0  0  0  0  0  0  0  0  0  0  0  0
  141.1880   76.1270  220.0820 C   0  0  0  0  0  0  0  0  0  0  0  0
  140.2554   76.5298  219.6601 H   0  0  0  0  0  0  0  0  0  0  0  0
  141.1653   76.1764  221.1807 H   0  0  0  0  0  0  0  0  0  0  0  0
  141.3370   74.6660  219.6620 C   0  0  0  0  0  0  0  0  0  0  0  0
  141.2684   74.5934  218.5665 H   0  0  0  0  0  0  0  0  0  0  0  0
  140.5350   74.0739  220.1271 H   0  0  0  0  0  0  0  0  0  0  0  0
  1  2  1  0
  2  3  2  0
  3  4  1  0
  3  5  1  0
  5  6  1  0
  5  7  2  0
  7  8  1  0
  8  9  2  0
  9 10  1  0
  8 11  1  0
 11 12  1  0
 11 13  1  0
 11 14  1  0
 14 15  1  0
 15 16  1  0
 16 17  2  0
 17 18  1  0
 18 19  1  0
 19 20  1  0
 19 21  1  0
 19 22  1  0
 22 23  1  0
 22 24  1  0
 22 25  1  0
 25 26  1  0
 25 27  1  0
 25 28  1  0
 28 29  1  0
 28 30  1  0
 28 31  1  0
 31 32  1  0
 31 33  1  0
 17 34  1  0
 34 35  1  0
 34 36  1  0
 36 37  2  0
 37 38  1  0
 37 39  1  0
 39 40  1  0
 39 41  1  0
 39 42  1  0
 42 43  1  1
 42 44  1  0
 44 45  1  0
 44 46  1  0
 44 47  1  0
 47 48  1  0
 47 49  1  0
 49 50  1  0
 49 51  1  0
 49 52  1  0
 52 53  1  0
 52 54  1  0
 36 55  1  0
 14 56  1  0
 56 57  1  0
 56 58  1  0
 56 59  1  0
 59 60  1  0
 59 61  1  0
  9  2  1  0
 55 15  2  0
 59  7  1  0
 31 18  1  0
 52 42  1  0
M  CHG  2  25   1  37   1
M  END
>  <UniqueID>  (69) 
580

>  <SMILES>  (69) 
c1ccc2c(c1)CCN(c1nc(N3CC[NH2+]CC3)[nH]/c(=[NH+]\C[C@H]3CCNC3)n1)C2

>  <Energy>  (69) 
73.55451655840196

>  <Genealogy>  (69) 
c1ccc2c(c1)CCN(c1nc([NH2+]CC3CCNC3)nc(N3CC[NH2+]CC3)n1)C2 (protonated)
c1ccc2c(c1)CCN(c1nc(N3CC[NH2+]CC3)[nH]c(=[NH+]CC3CCNC3)n1)C2 (tautomer)
c1ccc2c(c1)CCN(c1nc(N3CC[NH2+]CC3)[nH]c(=[NH+]C[C@H]3CCNC3)n1)C2 (chirality)
c1ccc2c(c1)CCN(c1nc(N3CC[NH2+]CC3)[nH]/c(=[NH+]\C[C@H]3CCNC3)n1)C2 (cis-trans isomerization)
c1ccc2c(c1)CCN(c1nc(N3CC[NH2+]CC3)[nH]/c(=[NH+]\C[C@H]3CCNC3)n1)C2 (3D coordinates assigned)
c1ccc2c(c1)CCN(c1nc(N3CC[NH2+]CC3)[nH]/c(=[NH+]\C[C@H]3CCNC3)n1)C2 (nonaromatic ring conformer: 73.55451655840196 kcal/mol)

>  <smiles>  (69) 
c1ccc2c(c1)CCN(c1nc(NCC3CCNC3)nc(N3CCNCC3)n1)C2

>  <score_type>  (69) 
oracle

>  <origin>  (69) 
autodockgpu

>  <m_score__min__energy>  (69) 
-8.4900000000000002

>  <m_primary>  (69) 
energy

>  <meeko>  (69) 
{"free_energy": -8.35, "intermolecular_energy": -9.84, "internal_energy": -0.92, "cluster_size": 19, "cluster_id": 2, "rank_in_cluster": 1}

>  <energy>  (69) 
-8.19

>  <cluster_rmsd>  (69) 
1.44

>  <rmsd>  (69) 
270.3

>  <cluster>  (69) 
2

$$$$
RHAOACRWGXEIGT-RBAGJBRXNA-P
     RDKit          3D

 61 65  0  0  0  0  0  0  0  0999 V2000
  146.5164   72.9026  221.0656 H   0  0  0  0  0  0  0  0  0  0  0  0
  145.4730   73.1840  220.8600 C   0  0  0  0  0  0  0  0  0  0  0  0
  144.4540   72.2410  221.0100 C   0  0  0  0  0  0  0  0  0  0  0  0
  144.6962   71.2171  221.3309 H   0  0  0  0  0  0  0  0  0  0  0  0
  143.1270   72.5960  220.7530 C   0  0  0  0  0  0  0  0  0  0  0  0
  142.3278   71.8480  220.8611 H   0  0  0  0  0  0  0  0  0  0  0  0
  142.8120   73.9060  220.3570 C   0  0  0  0  0  0  0  0  0  0  0  0
  143.8370   74.8570  220.2010 C   0  0  0  0  0  0  0  0  0  0  0  0
  145.1690   74.4850  220.4490 C   0  0  0  0  0  0  0  0  0  0  0  0
  145.9762   75.2209  220.3192 H   0  0  0  0  0  0  0  0  0  0  0  0
  143.5350   76.2520  219.7030 C   0  0  0  0  0  0  0  0  0  0  0  0
  143.7952   76.3043  218.6355 H   0  0  0  0  0  0  0  0  0  0  0  0
  144.1295   76.9484  220.3126 H   0  0  0  0  0  0  0  0  0  0  0  0
  142.1200   76.6400  219.8580 N   0  0  0  0  0  0  0  0  0  0  0  0
  141.7430   77.9980  219.5510 C   0  0  0  0  0  0  0  0  0  0  0  0
  141.7860   78.4470  218.2720 N   0  0  0  0  0  0  0  0  0  0  0  0
  141.4450   79.7240  217.9630 C   0  0  0  0  0  0  0  0  0  0  0  0
  141.5110   80.1720  216.5890 N   0  0  0  0  0  0  0  0  0  0  0  0
  140.8210   79.4300  215.5220 C   0  0  0  0  0  0  0  0  0  0  0  0
  140.4733   78.4659  215.9214 H   0  0  0  0  0  0  0  0  0  0  0  0
  139.9696   80.0318  215.1712 H   0  0  0  0  0  0  0  0  0  0  0  0
  141.7640   79.1710  214.3290 C   0  0  0  0  0  0  0  0  0  0  0  0
  142.2364   78.1873  214.4670 H   0  0  0  0  0  0  0  0  0  0  0  0
  141.1496   79.2176  213.4178 H   0  0  0  0  0  0  0  0  0  0  0  0
  142.8310   80.1850  214.1830 N   0  0  0  0  0  0  0  0  0  0  0  0
  143.0650   80.2890  213.1680 H   0  0  0  0  0  0  0  0  0  0  0  0
  143.6950   79.8570  214.6770 H   0  0  0  0  0  0  0  0  0  0  0  0
  142.4430   81.4980  214.7150 C   0  0  0  0  0  0  0  0  0  0  0  0
  143.2405   82.2260  214.5053 H   0  0  0  0  0  0  0  0  0  0  0  0
  141.5076   81.8200  214.2341 H   0  0  0  0  0  0  0  0  0  0  0  0
  142.2240   81.4070  216.2310 C   0  0  0  0  0  0  0  0  0  0  0  0
  143.2009   81.4174  216.7365 H   0  0  0  0  0  0  0  0  0  0  0  0
  141.6156   82.2666  216.5486 H   0  0  0  0  0  0  0  0  0  0  0  0
  141.0550   80.5700  218.9640 N   0  0  0  0  0  0  0  0  0  0  0  0
  140.7830   81.5470  218.7260 H   0  0  0  0  0  0  0  0  0  0  0  0
  141.0090   80.1300  220.2600 C   0  0  0  0  0  0  0  0  0  0  0  0
  140.6440   80.9110  221.2440 N   0  0  0  0  0  0  0  0  0  0  0  0
  139.6440   80.8710  221.5500 H   0  0  0  0  0  0  0  0  0  0  0  0
  141.5450   81.8260  221.9570 C   0  0  0  0  0  0  0  0  0  0  0  0
  142.4431   81.9939  221.3444 H   0  0  0  0  0  0  0  0  0  0  0  0
  141.0109   82.7714  222.1330 H   0  0  0  0  0  0  0  0  0  0  0  0
  141.9700   81.2450  223.3240 C   0  0  2  0  0  0  0  0  0  0  0  0
  142.0828   82.1246  223.9749 H   0  0  0  0  0  0  0  0  0  0  0  0
  143.2490   80.4180  223.2210 C   0  0  0  0  0  0  0  0  0  0  0  0
  143.8230   80.5006  224.1557 H   0  0  0  0  0  0  0  0  0  0  0  0
  143.8742   80.7837  222.3931 H   0  0  0  0  0  0  0  0  0  0  0  0
  142.8700   79.0230  222.9930 N   0  0  0  0  0  0  0  0  0  0  0  0
  142.9800   78.8160  221.9730 H   0  0  0  0  0  0  0  0  0  0  0  0
  141.4510   78.8940  223.3410 C   0  0  0  0  0  0  0  0  0  0  0  0
  141.3293   78.1373  224.1301 H   0  0  0  0  0  0  0  0  0  0  0  0
  140.8724   78.5817  222.4591 H   0  0  0  0  0  0  0  0  0  0  0  0
  140.9550   80.2420  223.8410 C   0  0  0  0  0  0  0  0  0  0  0  0
  140.9195   80.2583  224.9403 H   0  0  0  0  0  0  0  0  0  0  0  0
  139.9360   80.4650  223.4917 H   0  0  0  0  0  0  0  0  0  0  0  0
  141.3540   78.8470  220.5360 N   0  0  0  0  0  0  0  0  0  0  0  0
  141.1350   75.7290  220.4660 C   0  0  0  0  0  0  0  0  0  0  0  0
  140.1255   76.0214  220.1414 H   0  0  0  0  0  0  0  0  0  0  0  0
  141.2212   75.7975  221.5605 H   0  0  0  0  0  0  0  0  0  0  0  0
  141.3970   74.2850  220.0450 C   0  0  0  0  0  0  0  0  0  0  0  0
  141.2235   74.1843  218.9634 H   0  0  0  0  0  0  0  0  0  0  0  0
  140.7164   73.6202  220.5970 H   0  0  0  0  0  0  0  0  0  0  0  0
  1  2  1  0
  2  3  2  0
  3  4  1  0
  3  5  1  0
  5  6  1  0
  5  7  2  0
  7  8  1  0
  8  9  2  0
  9 10  1  0
  8 11  1  0
 11 12  1  0
 11 13  1  0
 11 14  1  0
 14 15  1  0
 15 16  1  0
 16 17  2  0
 17 18  1  0
 18 19  1  0
 19 20  1  0
 19 21  1  0
 19 22  1  0
 22 23  1  0
 22 24  1  0
 22 25  1  0
 25 26  1  0
 25 27  1  0
 25 28  1  0
 28 29  1  0
 28 30  1  0
 28 31  1  0
 31 32  1  0
 31 33  1  0
 17 34  1  0
 34 35  1  0
 34 36  1  0
 36 37  2  0
 37 38  1  0
 37 39  1  0
 39 40  1  0
 39 41  1  0
 39 42  1  0
 42 43  1  1
 42 44  1  0
 44 45  1  0
 44 46  1  0
 44 47  1  0
 47 48  1  0
 47 49  1  0
 49 50  1  0
 49 51  1  0
 49 52  1  0
 52 53  1  0
 52 54  1  0
 36 55  1  0
 14 56  1  0
 56 57  1  0
 56 58  1  0
 56 59  1  0
 59 60  1  0
 59 61  1  0
  9  2  1  0
 55 15  2  0
 59  7  1  0
 31 18  1  0
 52 42  1  0
M  CHG  2  25   1  37   1
M  END
>  <UniqueID>  (70) 
580

>  <SMILES>  (70) 
c1ccc2c(c1)CCN(c1nc(N3CC[NH2+]CC3)[nH]/c(=[NH+]\C[C@H]3CCNC3)n1)C2

>  <Energy>  (70) 
73.55451655840196

>  <Genealogy>  (70) 
c1ccc2c(c1)CCN(c1nc([NH2+]CC3CCNC3)nc(N3CC[NH2+]CC3)n1)C2 (protonated)
c1ccc2c(c1)CCN(c1nc(N3CC[NH2+]CC3)[nH]c(=[NH+]CC3CCNC3)n1)C2 (tautomer)
c1ccc2c(c1)CCN(c1nc(N3CC[NH2+]CC3)[nH]c(=[NH+]C[C@H]3CCNC3)n1)C2 (chirality)
c1ccc2c(c1)CCN(c1nc(N3CC[NH2+]CC3)[nH]/c(=[NH+]\C[C@H]3CCNC3)n1)C2 (cis-trans isomerization)
c1ccc2c(c1)CCN(c1nc(N3CC[NH2+]CC3)[nH]/c(=[NH+]\C[C@H]3CCNC3)n1)C2 (3D coordinates assigned)
c1ccc2c(c1)CCN(c1nc(N3CC[NH2+]CC3)[nH]/c(=[NH+]\C[C@H]3CCNC3)n1)C2 (nonaromatic ring conformer: 73.55451655840196 kcal/mol)

>  <smiles>  (70) 
c1ccc2c(c1)CCN(c1nc(NCC3CCNC3)nc(N3CCNCC3)n1)C2

>  <score_type>  (70) 
oracle

>  <origin>  (70) 
autodockgpu

>  <m_score__min__energy>  (70) 
-8.4900000000000002

>  <m_primary>  (70) 
energy

>  <meeko>  (70) 
{"free_energy": -7.91, "intermolecular_energy": -9.4, "internal_energy": -0.79, "cluster_size": 19, "cluster_id": 2, "rank_in_cluster": 19}

>  <energy>  (70) 
-8.19

>  <cluster_rmsd>  (70) 
1.4

>  <rmsd>  (70) 
270.27

>  <cluster>  (70) 
2

$$$$
RHAOACRWGXEIGT-RBAGJBRXNA-P
     RDKit          3D

 61 65  0  0  0  0  0  0  0  0999 V2000
  146.1143   72.7081  221.1628 H   0  0  0  0  0  0  0  0  0  0  0  0
  145.1370   73.1120  220.8600 C   0  0  0  0  0  0  0  0  0  0  0  0
  144.0070   72.2930  220.8840 C   0  0  0  0  0  0  0  0  0  0  0  0
  144.0959   71.2442  221.2034 H   0  0  0  0  0  0  0  0  0  0  0  0
  142.7630   72.8030  220.5030 C   0  0  0  0  0  0  0  0  0  0  0  0
  141.8762   72.1522  220.5117 H   0  0  0  0  0  0  0  0  0  0  0  0
  142.6440   74.1460  220.1090 C   0  0  0  0  0  0  0  0  0  0  0  0
  143.7820   74.9720  220.0790 C   0  0  0  0  0  0  0  0  0  0  0  0
  145.0290   74.4440  220.4520 C   0  0  0  0  0  0  0  0  0  0  0  0
  145.9246   75.0820  220.4228 H   0  0  0  0  0  0  0  0  0  0  0  0
  143.6950   76.3990  219.5880 C   0  0  0  0  0  0  0  0  0  0  0  0
  144.0681   76.4343  218.5538 H   0  0  0  0  0  0  0  0  0  0  0  0
  144.2995   77.0130  220.2718 H   0  0  0  0  0  0  0  0  0  0  0  0
  142.3260   76.9480  219.6090 N   0  0  0  0  0  0  0  0  0  0  0  0
  142.1410   78.3450  219.2980 C   0  0  0  0  0  0  0  0  0  0  0  0
  142.1520   78.7650  218.0090 N   0  0  0  0  0  0  0  0  0  0  0  0
  141.9910   80.0770  217.6960 C   0  0  0  0  0  0  0  0  0  0  0  0
  142.0170   80.4910  216.3090 N   0  0  0  0  0  0  0  0  0  0  0  0
  141.5020   79.6090  215.2510 C   0  0  0  0  0  0  0  0  0  0  0  0
  141.3206   78.6094  215.6727 H   0  0  0  0  0  0  0  0  0  0  0  0
  140.5673   80.0384  214.8611 H   0  0  0  0  0  0  0  0  0  0  0  0
  142.5110   79.4910  214.0890 C   0  0  0  0  0  0  0  0  0  0  0  0
  143.1472   78.6119  214.2693 H   0  0  0  0  0  0  0  0  0  0  0  0
  141.9252   79.4019  213.1622 H   0  0  0  0  0  0  0  0  0  0  0  0
  143.3830   80.6750  213.9370 N   0  0  0  0  0  0  0  0  0  0  0  0
  143.6260   80.7920  212.9260 H   0  0  0  0  0  0  0  0  0  0  0  0
  144.2770   80.5210  214.4620 H   0  0  0  0  0  0  0  0  0  0  0  0
  142.7520   81.9110  214.4170 C   0  0  0  0  0  0  0  0  0  0  0  0
  143.4130   82.7639  214.2034 H   0  0  0  0  0  0  0  0  0  0  0  0
  141.7887   82.0470  213.9036 H   0  0  0  0  0  0  0  0  0  0  0  0
  142.5080   81.8240  215.9290 C   0  0  0  0  0  0  0  0  0  0  0  0
  143.4518   82.0236  216.4575 H   0  0  0  0  0  0  0  0  0  0  0  0
  141.7466   82.5688  216.2040 H   0  0  0  0  0  0  0  0  0  0  0  0
  141.8180   80.9850  218.7020 N   0  0  0  0  0  0  0  0  0  0  0  0
  141.6820   81.9890  218.4620 H   0  0  0  0  0  0  0  0  0  0  0  0
  141.8060   80.5740  220.0080 C   0  0  0  0  0  0  0  0  0  0  0  0
  141.6450   81.4150  220.9980 N   0  0  0  0  0  0  0  0  0  0  0  0
  142.3210   82.2100  221.0730 H   0  0  0  0  0  0  0  0  0  0  0  0
  140.5730   81.3250  221.9970 C   0  0  0  0  0  0  0  0  0  0  0  0
  140.0948   82.3104  222.0986 H   0  0  0  0  0  0  0  0  0  0  0  0
  139.8464   80.5718  221.6584 H   0  0  0  0  0  0  0  0  0  0  0  0
  141.1210   80.8880  223.3730 C   0  0  2  0  0  0  0  0  0  0  0  0
  140.7556   81.6554  224.0713 H   0  0  0  0  0  0  0  0  0  0  0  0
  142.6440   80.7660  223.3690 C   0  0  0  0  0  0  0  0  0  0  0  0
  143.0414   81.0221  224.3622 H   0  0  0  0  0  0  0  0  0  0  0  0
  143.0800   81.4541  222.6298 H   0  0  0  0  0  0  0  0  0  0  0  0
  142.9870   79.3830  223.0390 N   0  0  0  0  0  0  0  0  0  0  0  0
  143.2560   79.3460  222.0270 H   0  0  0  0  0  0  0  0  0  0  0  0
  141.7780   78.5760  223.2270 C   0  0  0  0  0  0  0  0  0  0  0  0
  141.9722   77.7817  223.9628 H   0  0  0  0  0  0  0  0  0  0  0  0
  141.4817   78.1115  222.2749 H   0  0  0  0  0  0  0  0  0  0  0  0
  140.6680   79.4850  223.7330 C   0  0  0  0  0  0  0  0  0  0  0  0
  140.5502   79.3834  224.8219 H   0  0  0  0  0  0  0  0  0  0  0  0
  139.6930   79.2367  223.2883 H   0  0  0  0  0  0  0  0  0  0  0  0
  141.9680   79.2560  220.2880 N   0  0  0  0  0  0  0  0  0  0  0  0
  141.1850   76.1510  220.0910 C   0  0  0  0  0  0  0  0  0  0  0  0
  140.2551   76.5635  219.6725 H   0  0  0  0  0  0  0  0  0  0  0  0
  141.1645   76.1954  221.1899 H   0  0  0  0  0  0  0  0  0  0  0  0
  141.3210   74.6910  219.6640 C   0  0  0  0  0  0  0  0  0  0  0  0
  141.2498   74.6241  218.5683 H   0  0  0  0  0  0  0  0  0  0  0  0
  140.5149   74.1034  220.1277 H   0  0  0  0  0  0  0  0  0  0  0  0
  1  2  1  0
  2  3  2  0
  3  4  1  0
  3  5  1  0
  5  6  1  0
  5  7  2  0
  7  8  1  0
  8  9  2  0
  9 10  1  0
  8 11  1  0
 11 12  1  0
 11 13  1  0
 11 14  1  0
 14 15  1  0
 15 16  1  0
 16 17  2  0
 17 18  1  0
 18 19  1  0
 19 20  1  0
 19 21  1  0
 19 22  1  0
 22 23  1  0
 22 24  1  0
 22 25  1  0
 25 26  1  0
 25 27  1  0
 25 28  1  0
 28 29  1  0
 28 30  1  0
 28 31  1  0
 31 32  1  0
 31 33  1  0
 17 34  1  0
 34 35  1  0
 34 36  1  0
 36 37  2  0
 37 38  1  0
 37 39  1  0
 39 40  1  0
 39 41  1  0
 39 42  1  0
 42 43  1  1
 42 44  1  0
 44 45  1  0
 44 46  1  0
 44 47  1  0
 47 48  1  0
 47 49  1  0
 49 50  1  0
 49 51  1  0
 49 52  1  0
 52 53  1  0
 52 54  1  0
 36 55  1  0
 14 56  1  0
 56 57  1  0
 56 58  1  0
 56 59  1  0
 59 60  1  0
 59 61  1  0
  9  2  1  0
 55 15  2  0
 59  7  1  0
 31 18  1  0
 52 42  1  0
M  CHG  2  25   1  37   1
M  END
>  <UniqueID>  (71) 
580

>  <SMILES>  (71) 
c1ccc2c(c1)CCN(c1nc(N3CC[NH2+]CC3)[nH]/c(=[NH+]\C[C@H]3CCNC3)n1)C2

>  <Energy>  (71) 
73.55451655840196

>  <Genealogy>  (71) 
c1ccc2c(c1)CCN(c1nc([NH2+]CC3CCNC3)nc(N3CC[NH2+]CC3)n1)C2 (protonated)
c1ccc2c(c1)CCN(c1nc(N3CC[NH2+]CC3)[nH]c(=[NH+]CC3CCNC3)n1)C2 (tautomer)
c1ccc2c(c1)CCN(c1nc(N3CC[NH2+]CC3)[nH]c(=[NH+]C[C@H]3CCNC3)n1)C2 (chirality)
c1ccc2c(c1)CCN(c1nc(N3CC[NH2+]CC3)[nH]/c(=[NH+]\C[C@H]3CCNC3)n1)C2 (cis-trans isomerization)
c1ccc2c(c1)CCN(c1nc(N3CC[NH2+]CC3)[nH]/c(=[NH+]\C[C@H]3CCNC3)n1)C2 (3D coordinates assigned)
c1ccc2c(c1)CCN(c1nc(N3CC[NH2+]CC3)[nH]/c(=[NH+]\C[C@H]3CCNC3)n1)C2 (nonaromatic ring conformer: 73.55451655840196 kcal/mol)

>  <smiles>  (71) 
c1ccc2c(c1)CCN(c1nc(NCC3CCNC3)nc(N3CCNCC3)n1)C2

>  <score_type>  (71) 
oracle

>  <origin>  (71) 
autodockgpu

>  <m_score__min__energy>  (71) 
-8.4900000000000002

>  <m_primary>  (71) 
energy

>  <meeko>  (71) 
{"free_energy": -8.34, "intermolecular_energy": -9.83, "internal_energy": -0.91, "cluster_size": 19, "cluster_id": 2, "rank_in_cluster": 3}

>  <energy>  (71) 
-8.19

>  <cluster_rmsd>  (71) 
1.46

>  <rmsd>  (71) 
270.3

>  <cluster>  (71) 
2

$$$$
RHAOACRWGXEIGT-RBAGJBRXNA-P
     RDKit          3D

 61 65  0  0  0  0  0  0  0  0999 V2000
  146.0711   72.6677  221.1530 H   0  0  0  0  0  0  0  0  0  0  0  0
  145.0990   73.0860  220.8530 C   0  0  0  0  0  0  0  0  0  0  0  0
  143.9570   72.2830  220.8760 C   0  0  0  0  0  0  0  0  0  0  0  0
  144.0320   71.2316  221.1904 H   0  0  0  0  0  0  0  0  0  0  0  0
  142.7200   72.8110  220.5010 C   0  0  0  0  0  0  0  0  0  0  0  0
  141.8244   72.1723  220.5102 H   0  0  0  0  0  0  0  0  0  0  0  0
  142.6180   74.1570  220.1120 C   0  0  0  0  0  0  0  0  0  0  0  0
  143.7670   74.9680  220.0820 C   0  0  0  0  0  0  0  0  0  0  0  0
  145.0080   74.4210  220.4490 C   0  0  0  0  0  0  0  0  0  0  0  0
  145.9124   75.0464  220.4183 H   0  0  0  0  0  0  0  0  0  0  0  0
  143.6980   76.3970  219.5960 C   0  0  0  0  0  0  0  0  0  0  0  0
  144.0683   76.4305  218.5608 H   0  0  0  0  0  0  0  0  0  0  0  0
  144.3129   77.0005  220.2799 H   0  0  0  0  0  0  0  0  0  0  0  0
  142.3360   76.9650  219.6230 N   0  0  0  0  0  0  0  0  0  0  0  0
  142.1700   78.3650  219.3170 C   0  0  0  0  0  0  0  0  0  0  0  0
  142.1760   78.7890  218.0290 N   0  0  0  0  0  0  0  0  0  0  0  0
  142.0310   80.1030  217.7210 C   0  0  0  0  0  0  0  0  0  0  0  0
  142.0500   80.5210  216.3350 N   0  0  0  0  0  0  0  0  0  0  0  0
  141.5110   79.6510  215.2800 C   0  0  0  0  0  0  0  0  0  0  0  0
  141.3171   78.6534  215.7010 H   0  0  0  0  0  0  0  0  0  0  0  0
  140.5802   80.0974  214.9001 H   0  0  0  0  0  0  0  0  0  0  0  0
  142.5060   79.5190  214.1080 C   0  0  0  0  0  0  0  0  0  0  0  0
  143.1289   78.6288  214.2798 H   0  0  0  0  0  0  0  0  0  0  0  0
  141.9095   79.4424  213.1869 H   0  0  0  0  0  0  0  0  0  0  0  0
  143.3970   80.6890  213.9500 N   0  0  0  0  0  0  0  0  0  0  0  0
  143.6310   80.8050  212.9370 H   0  0  0  0  0  0  0  0  0  0  0  0
  144.2930   80.5190  214.4660 H   0  0  0  0  0  0  0  0  0  0  0  0
  142.7910   81.9340  214.4400 C   0  0  0  0  0  0  0  0  0  0  0  0
  143.4639   82.7765  214.2224 H   0  0  0  0  0  0  0  0  0  0  0  0
  141.8251   82.0870  213.9364 H   0  0  0  0  0  0  0  0  0  0  0  0
  142.5600   81.8470  215.9540 C   0  0  0  0  0  0  0  0  0  0  0  0
  143.5121   82.0291  216.4740 H   0  0  0  0  0  0  0  0  0  0  0  0
  141.8141   82.6039  216.2383 H   0  0  0  0  0  0  0  0  0  0  0  0
  141.8810   81.0120  218.7310 N   0  0  0  0  0  0  0  0  0  0  0  0
  141.7580   82.0180  218.4950 H   0  0  0  0  0  0  0  0  0  0  0  0
  141.8750   80.5970  220.0360 C   0  0  0  0  0  0  0  0  0  0  0  0
  141.7360   81.4370  221.0300 N   0  0  0  0  0  0  0  0  0  0  0  0
  142.4480   82.1980  221.1250 H   0  0  0  0  0  0  0  0  0  0  0  0
  140.6410   81.3930  222.0070 C   0  0  0  0  0  0  0  0  0  0  0  0
  140.2116   82.4005  222.1094 H   0  0  0  0  0  0  0  0  0  0  0  0
  139.8833   80.6814  221.6471 H   0  0  0  0  0  0  0  0  0  0  0  0
  141.1400   80.9160  223.3890 C   0  0  2  0  0  0  0  0  0  0  0  0
  140.7612   81.6705  224.0941 H   0  0  0  0  0  0  0  0  0  0  0  0
  142.6600   80.7760  223.4310 C   0  0  0  0  0  0  0  0  0  0  0  0
  143.0275   81.0023  224.4428 H   0  0  0  0  0  0  0  0  0  0  0  0
  143.1271   81.4772  222.7238 H   0  0  0  0  0  0  0  0  0  0  0  0
  142.9990   79.3980  223.0770 N   0  0  0  0  0  0  0  0  0  0  0  0
  143.3000   79.3820  222.0740 H   0  0  0  0  0  0  0  0  0  0  0  0
  141.7750   78.6010  223.2060 C   0  0  0  0  0  0  0  0  0  0  0  0
  141.9364   77.7863  223.9273 H   0  0  0  0  0  0  0  0  0  0  0  0
  141.5042   78.1641  222.2335 H   0  0  0  0  0  0  0  0  0  0  0  0
  140.6600   79.5100  223.6990 C   0  0  0  0  0  0  0  0  0  0  0  0
  140.5062   79.3828  224.7807 H   0  0  0  0  0  0  0  0  0  0  0  0
  139.6971   79.2845  223.2174 H   0  0  0  0  0  0  0  0  0  0  0  0
  142.0200   79.2760  220.3120 N   0  0  0  0  0  0  0  0  0  0  0  0
  141.1870   76.1820  220.1050 C   0  0  0  0  0  0  0  0  0  0  0  0
  140.2616   76.6086  219.6908 H   0  0  0  0  0  0  0  0  0  0  0  0
  141.1712   76.2224  221.2041 H   0  0  0  0  0  0  0  0  0  0  0  0
  141.3010   74.7220  219.6730 C   0  0  0  0  0  0  0  0  0  0  0  0
  141.2253   74.6597  218.5774 H   0  0  0  0  0  0  0  0  0  0  0  0
  140.4883   74.1443  220.1375 H   0  0  0  0  0  0  0  0  0  0  0  0
  1  2  1  0
  2  3  2  0
  3  4  1  0
  3  5  1  0
  5  6  1  0
  5  7  2  0
  7  8  1  0
  8  9  2  0
  9 10  1  0
  8 11  1  0
 11 12  1  0
 11 13  1  0
 11 14  1  0
 14 15  1  0
 15 16  1  0
 16 17  2  0
 17 18  1  0
 18 19  1  0
 19 20  1  0
 19 21  1  0
 19 22  1  0
 22 23  1  0
 22 24  1  0
 22 25  1  0
 25 26  1  0
 25 27  1  0
 25 28  1  0
 28 29  1  0
 28 30  1  0
 28 31  1  0
 31 32  1  0
 31 33  1  0
 17 34  1  0
 34 35  1  0
 34 36  1  0
 36 37  2  0
 37 38  1  0
 37 39  1  0
 39 40  1  0
 39 41  1  0
 39 42  1  0
 42 43  1  1
 42 44  1  0
 44 45  1  0
 44 46  1  0
 44 47  1  0
 47 48  1  0
 47 49  1  0
 49 50  1  0
 49 51  1  0
 49 52  1  0
 52 53  1  0
 52 54  1  0
 36 55  1  0
 14 56  1  0
 56 57  1  0
 56 58  1  0
 56 59  1  0
 59 60  1  0
 59 61  1  0
  9  2  1  0
 55 15  2  0
 59  7  1  0
 31 18  1  0
 52 42  1  0
M  CHG  2  25   1  37   1
M  END
>  <UniqueID>  (72) 
580

>  <SMILES>  (72) 
c1ccc2c(c1)CCN(c1nc(N3CC[NH2+]CC3)[nH]/c(=[NH+]\C[C@H]3CCNC3)n1)C2

>  <Energy>  (72) 
73.55451655840196

>  <Genealogy>  (72) 
c1ccc2c(c1)CCN(c1nc([NH2+]CC3CCNC3)nc(N3CC[NH2+]CC3)n1)C2 (protonated)
c1ccc2c(c1)CCN(c1nc(N3CC[NH2+]CC3)[nH]c(=[NH+]CC3CCNC3)n1)C2 (tautomer)
c1ccc2c(c1)CCN(c1nc(N3CC[NH2+]CC3)[nH]c(=[NH+]C[C@H]3CCNC3)n1)C2 (chirality)
c1ccc2c(c1)CCN(c1nc(N3CC[NH2+]CC3)[nH]/c(=[NH+]\C[C@H]3CCNC3)n1)C2 (cis-trans isomerization)
c1ccc2c(c1)CCN(c1nc(N3CC[NH2+]CC3)[nH]/c(=[NH+]\C[C@H]3CCNC3)n1)C2 (3D coordinates assigned)
c1ccc2c(c1)CCN(c1nc(N3CC[NH2+]CC3)[nH]/c(=[NH+]\C[C@H]3CCNC3)n1)C2 (nonaromatic ring conformer: 73.55451655840196 kcal/mol)

>  <smiles>  (72) 
c1ccc2c(c1)CCN(c1nc(NCC3CCNC3)nc(N3CCNCC3)n1)C2

>  <score_type>  (72) 
oracle

>  <origin>  (72) 
autodockgpu

>  <m_score__min__energy>  (72) 
-8.4900000000000002

>  <m_primary>  (72) 
energy

>  <meeko>  (72) 
{"free_energy": -8.32, "intermolecular_energy": -9.81, "internal_energy": -0.9, "cluster_size": 19, "cluster_id": 2, "rank_in_cluster": 6}

>  <energy>  (72) 
-8.19

>  <cluster_rmsd>  (72) 
1.43

>  <rmsd>  (72) 
270.25

>  <cluster>  (72) 
2

$$$$
RHAOACRWGXEIGT-RBAGJBRXNA-P
     RDKit          3D

 61 65  0  0  0  0  0  0  0  0999 V2000
  146.4860   72.9157  221.2184 H   0  0  0  0  0  0  0  0  0  0  0  0
  145.4790   73.2070  220.8850 C   0  0  0  0  0  0  0  0  0  0  0  0
  144.4480   72.2650  220.8750 C   0  0  0  0  0  0  0  0  0  0  0  0
  144.6451   71.2320  221.1977 H   0  0  0  0  0  0  0  0  0  0  0  0
  143.1670   72.6320  220.4560 C   0  0  0  0  0  0  0  0  0  0  0  0
  142.3599   71.8849  220.4386 H   0  0  0  0  0  0  0  0  0  0  0  0
  142.9080   73.9530  220.0570 C   0  0  0  0  0  0  0  0  0  0  0  0
  143.9450   74.9040  220.0610 C   0  0  0  0  0  0  0  0  0  0  0  0
  145.2330   74.5190  220.4720 C   0  0  0  0  0  0  0  0  0  0  0  0
  146.0512   75.2542  220.4685 H   0  0  0  0  0  0  0  0  0  0  0  0
  143.7120   76.3120  219.5660 C   0  0  0  0  0  0  0  0  0  0  0  0
  144.1096   76.3913  218.5434 H   0  0  0  0  0  0  0  0  0  0  0  0
  144.2223   76.9889  220.2671 H   0  0  0  0  0  0  0  0  0  0  0  0
  142.2900   76.7030  219.5450 N   0  0  0  0  0  0  0  0  0  0  0  0
  141.9570   78.0710  219.2280 C   0  0  0  0  0  0  0  0  0  0  0  0
  142.0330   78.5130  217.9480 N   0  0  0  0  0  0  0  0  0  0  0  0
  141.7340   79.7980  217.6290 C   0  0  0  0  0  0  0  0  0  0  0  0
  141.8340   80.2380  216.2540 N   0  0  0  0  0  0  0  0  0  0  0  0
  141.2660   79.4310  215.1640 C   0  0  0  0  0  0  0  0  0  0  0  0
  140.9814   78.4442  215.5580 H   0  0  0  0  0  0  0  0  0  0  0  0
  140.3859   79.9548  214.7627 H   0  0  0  0  0  0  0  0  0  0  0  0
  142.2880   79.2430  214.0230 C   0  0  0  0  0  0  0  0  0  0  0  0
  142.8339   78.3040  214.1969 H   0  0  0  0  0  0  0  0  0  0  0  0
  141.7197   79.2297  213.0813 H   0  0  0  0  0  0  0  0  0  0  0  0
  143.2710   80.3420  213.9190 N   0  0  0  0  0  0  0  0  0  0  0  0
  143.5490   80.4580  212.9170 H   0  0  0  0  0  0  0  0  0  0  0  0
  144.1330   80.0930  214.4610 H   0  0  0  0  0  0  0  0  0  0  0  0
  142.7470   81.6220  214.4130 C   0  0  0  0  0  0  0  0  0  0  0  0
  143.4904   82.4130  214.2347 H   0  0  0  0  0  0  0  0  0  0  0  0
  141.8141   81.8596  213.8807 H   0  0  0  0  0  0  0  0  0  0  0  0
  142.4580   81.5260  215.9170 C   0  0  0  0  0  0  0  0  0  0  0  0
  143.4030   81.6236  216.4715 H   0  0  0  0  0  0  0  0  0  0  0  0
  141.7637   82.3336  216.1920 H   0  0  0  0  0  0  0  0  0  0  0  0
  141.3550   80.6590  218.6210 N   0  0  0  0  0  0  0  0  0  0  0  0
  141.1150   81.6420  218.3760 H   0  0  0  0  0  0  0  0  0  0  0  0
  141.2760   80.2260  219.9180 C   0  0  0  0  0  0  0  0  0  0  0  0
  140.9190   81.0210  220.8930 N   0  0  0  0  0  0  0  0  0  0  0  0
  139.8950   81.1780  221.0420 H   0  0  0  0  0  0  0  0  0  0  0  0
  141.8570   81.6940  221.8020 C   0  0  0  0  0  0  0  0  0  0  0  0
  142.8789   81.5785  221.4117 H   0  0  0  0  0  0  0  0  0  0  0  0
  141.5800   82.7569  221.8611 H   0  0  0  0  0  0  0  0  0  0  0  0
  141.7910   81.0940  223.2240 C   0  0  2  0  0  0  0  0  0  0  0  0
  141.9603   81.9504  223.8933 H   0  0  0  0  0  0  0  0  0  0  0  0
  142.8140   79.9770  223.4210 C   0  0  0  0  0  0  0  0  0  0  0  0
  143.1540   79.9627  224.4671 H   0  0  0  0  0  0  0  0  0  0  0  0
  143.6868   80.1401  222.7717 H   0  0  0  0  0  0  0  0  0  0  0  0
  142.1670   78.7060  223.0920 N   0  0  0  0  0  0  0  0  0  0  0  0
  142.4610   78.4300  222.1260 H   0  0  0  0  0  0  0  0  0  0  0  0
  140.7200   78.9410  223.0870 C   0  0  0  0  0  0  0  0  0  0  0  0
  140.2329   78.2748  223.8142 H   0  0  0  0  0  0  0  0  0  0  0  0
  140.3072   78.7365  222.0881 H   0  0  0  0  0  0  0  0  0  0  0  0
  140.4680   80.3920  223.4700 C   0  0  0  0  0  0  0  0  0  0  0  0
  140.1797   80.4687  224.5288 H   0  0  0  0  0  0  0  0  0  0  0  0
  139.6473   80.8380  222.8890 H   0  0  0  0  0  0  0  0  0  0  0  0
  141.5790   78.9340  220.2030 N   0  0  0  0  0  0  0  0  0  0  0  0
  141.2330   75.7810  219.9940 C   0  0  0  0  0  0  0  0  0  0  0  0
  140.2751   76.0868  219.5480 H   0  0  0  0  0  0  0  0  0  0  0  0
  141.1759   75.8201  221.0918 H   0  0  0  0  0  0  0  0  0  0  0  0
  141.5450   74.3470  219.5730 C   0  0  0  0  0  0  0  0  0  0  0  0
  141.5136   74.2749  218.4758 H   0  0  0  0  0  0  0  0  0  0  0  0
  140.7972   73.6715  220.0140 H   0  0  0  0  0  0  0  0  0  0  0  0
  1  2  1  0
  2  3  2  0
  3  4  1  0
  3  5  1  0
  5  6  1  0
  5  7  2  0
  7  8  1  0
  8  9  2  0
  9 10  1  0
  8 11  1  0
 11 12  1  0
 11 13  1  0
 11 14  1  0
 14 15  1  0
 15 16  1  0
 16 17  2  0
 17 18  1  0
 18 19  1  0
 19 20  1  0
 19 21  1  0
 19 22  1  0
 22 23  1  0
 22 24  1  0
 22 25  1  0
 25 26  1  0
 25 27  1  0
 25 28  1  0
 28 29  1  0
 28 30  1  0
 28 31  1  0
 31 32  1  0
 31 33  1  0
 17 34  1  0
 34 35  1  0
 34 36  1  0
 36 37  2  0
 37 38  1  0
 37 39  1  0
 39 40  1  0
 39 41  1  0
 39 42  1  0
 42 43  1  1
 42 44  1  0
 44 45  1  0
 44 46  1  0
 44 47  1  0
 47 48  1  0
 47 49  1  0
 49 50  1  0
 49 51  1  0
 49 52  1  0
 52 53  1  0
 52 54  1  0
 36 55  1  0
 14 56  1  0
 56 57  1  0
 56 58  1  0
 56 59  1  0
 59 60  1  0
 59 61  1  0
  9  2  1  0
 55 15  2  0
 59  7  1  0
 31 18  1  0
 52 42  1  0
M  CHG  2  25   1  37   1
M  END
>  <UniqueID>  (73) 
580

>  <SMILES>  (73) 
c1ccc2c(c1)CCN(c1nc(N3CC[NH2+]CC3)[nH]/c(=[NH+]\C[C@H]3CCNC3)n1)C2

>  <Energy>  (73) 
73.55451655840196

>  <Genealogy>  (73) 
c1ccc2c(c1)CCN(c1nc([NH2+]CC3CCNC3)nc(N3CC[NH2+]CC3)n1)C2 (protonated)
c1ccc2c(c1)CCN(c1nc(N3CC[NH2+]CC3)[nH]c(=[NH+]CC3CCNC3)n1)C2 (tautomer)
c1ccc2c(c1)CCN(c1nc(N3CC[NH2+]CC3)[nH]c(=[NH+]C[C@H]3CCNC3)n1)C2 (chirality)
c1ccc2c(c1)CCN(c1nc(N3CC[NH2+]CC3)[nH]/c(=[NH+]\C[C@H]3CCNC3)n1)C2 (cis-trans isomerization)
c1ccc2c(c1)CCN(c1nc(N3CC[NH2+]CC3)[nH]/c(=[NH+]\C[C@H]3CCNC3)n1)C2 (3D coordinates assigned)
c1ccc2c(c1)CCN(c1nc(N3CC[NH2+]CC3)[nH]/c(=[NH+]\C[C@H]3CCNC3)n1)C2 (nonaromatic ring conformer: 73.55451655840196 kcal/mol)

>  <smiles>  (73) 
c1ccc2c(c1)CCN(c1nc(NCC3CCNC3)nc(N3CCNCC3)n1)C2

>  <score_type>  (73) 
oracle

>  <origin>  (73) 
autodockgpu

>  <m_score__min__energy>  (73) 
-8.4900000000000002

>  <m_primary>  (73) 
energy

>  <meeko>  (73) 
{"free_energy": -7.98, "intermolecular_energy": -9.47, "internal_energy": -0.87, "cluster_size": 19, "cluster_id": 2, "rank_in_cluster": 16}

>  <energy>  (73) 
-8.19

>  <cluster_rmsd>  (73) 
1.43

>  <rmsd>  (73) 
270.28

>  <cluster>  (73) 
2

$$$$
RHAOACRWGXEIGT-RBAGJBRXNA-P
     RDKit          3D

 61 65  0  0  0  0  0  0  0  0999 V2000
  144.9676   72.1866  221.4037 H   0  0  0  0  0  0  0  0  0  0  0  0
  144.7050   72.7940  220.5250 C   0  0  0  0  0  0  0  0  0  0  0  0
  144.7130   72.2190  219.2530 C   0  0  0  0  0  0  0  0  0  0  0  0
  144.9841   71.1600  219.1306 H   0  0  0  0  0  0  0  0  0  0  0  0
  144.3770   72.9870  218.1350 C   0  0  0  0  0  0  0  0  0  0  0  0
  144.3954   72.5346  217.1325 H   0  0  0  0  0  0  0  0  0  0  0  0
  144.0160   74.3350  218.2890 C   0  0  0  0  0  0  0  0  0  0  0  0
  144.0110   74.9180  219.5700 C   0  0  0  0  0  0  0  0  0  0  0  0
  144.3640   74.1400  220.6840 C   0  0  0  0  0  0  0  0  0  0  0  0
  144.3722   74.5920  221.6868 H   0  0  0  0  0  0  0  0  0  0  0  0
  143.7000   76.3850  219.7550 C   0  0  0  0  0  0  0  0  0  0  0  0
  144.6477   76.9271  219.8890 H   0  0  0  0  0  0  0  0  0  0  0  0
  143.0431   76.4670  220.6335 H   0  0  0  0  0  0  0  0  0  0  0  0
  142.9770   76.9840  218.6170 N   0  0  0  0  0  0  0  0  0  0  0  0
  142.5000   78.3400  218.7420 C   0  0  0  0  0  0  0  0  0  0  0  0
  142.8120   79.2640  217.8000 N   0  0  0  0  0  0  0  0  0  0  0  0
  142.3820   80.5480  217.9050 C   0  0  0  0  0  0  0  0  0  0  0  0
  142.7420   81.5090  216.8850 N   0  0  0  0  0  0  0  0  0  0  0  0
  141.9290   81.6540  215.6680 C   0  0  0  0  0  0  0  0  0  0  0  0
  141.2091   80.8240  215.6154 H   0  0  0  0  0  0  0  0  0  0  0  0
  141.4024   82.6188  215.7113 H   0  0  0  0  0  0  0  0  0  0  0  0
  142.8160   81.6340  214.4040 C   0  0  0  0  0  0  0  0  0  0  0  0
  142.8700   80.5995  214.0339 H   0  0  0  0  0  0  0  0  0  0  0  0
  142.3535   82.3165  213.6757 H   0  0  0  0  0  0  0  0  0  0  0  0
  144.1930   82.1190  214.6370 N   0  0  0  0  0  0  0  0  0  0  0  0
  144.5450   82.5770  213.7640 H   0  0  0  0  0  0  0  0  0  0  0  0
  144.8200   81.3050  214.8440 H   0  0  0  0  0  0  0  0  0  0  0  0
  144.2760   83.0830  215.7420 C   0  0  0  0  0  0  0  0  0  0  0  0
  145.3042   83.4675  215.8131 H   0  0  0  0  0  0  0  0  0  0  0  0
  143.5792   83.9122  215.5500 H   0  0  0  0  0  0  0  0  0  0  0  0
  143.8960   82.4030  217.0630 C   0  0  0  0  0  0  0  0  0  0  0  0
  144.7531   81.8158  217.4244 H   0  0  0  0  0  0  0  0  0  0  0  0
  143.6260   83.1814  217.7918 H   0  0  0  0  0  0  0  0  0  0  0  0
  141.6250   80.9110  218.9830 N   0  0  0  0  0  0  0  0  0  0  0  0
  141.2860   81.8920  219.0580 H   0  0  0  0  0  0  0  0  0  0  0  0
  141.3040   79.9880  219.9420 C   0  0  0  0  0  0  0  0  0  0  0  0
  140.5840   80.2990  220.9890 N   0  0  0  0  0  0  0  0  0  0  0  0
  139.7750   79.6760  221.2240 H   0  0  0  0  0  0  0  0  0  0  0  0
  140.8430   81.4500  221.8640 C   0  0  0  0  0  0  0  0  0  0  0  0
  141.4538   82.1843  221.3184 H   0  0  0  0  0  0  0  0  0  0  0  0
  139.8770   81.8872  222.1568 H   0  0  0  0  0  0  0  0  0  0  0  0
  141.5930   81.0250  223.1450 C   0  0  2  0  0  0  0  0  0  0  0  0
  141.5854   81.9239  223.7789 H   0  0  0  0  0  0  0  0  0  0  0  0
  143.0040   80.5240  222.8420 C   0  0  0  0  0  0  0  0  0  0  0  0
  143.6739   80.7670  223.6800 H   0  0  0  0  0  0  0  0  0  0  0  0
  143.3922   81.0054  221.9323 H   0  0  0  0  0  0  0  0  0  0  0  0
  142.9420   79.0730  222.6610 N   0  0  0  0  0  0  0  0  0  0  0  0
  142.9450   78.8720  221.6330 H   0  0  0  0  0  0  0  0  0  0  0  0
  141.6640   78.6190  223.2180 C   0  0  0  0  0  0  0  0  0  0  0  0
  141.8464   77.8763  224.0087 H   0  0  0  0  0  0  0  0  0  0  0  0
  141.0524   78.1549  222.4303 H   0  0  0  0  0  0  0  0  0  0  0  0
  140.9390   79.8220  223.8010 C   0  0  0  0  0  0  0  0  0  0  0  0
  141.0663   79.8593  224.8930 H   0  0  0  0  0  0  0  0  0  0  0  0
  139.8558   79.7848  223.6133 H   0  0  0  0  0  0  0  0  0  0  0  0
  141.7480   78.7120  219.8080 N   0  0  0  0  0  0  0  0  0  0  0  0
  142.5970   76.1830  217.4410 C   0  0  0  0  0  0  0  0  0  0  0  0
  142.4393   76.8542  216.5839 H   0  0  0  0  0  0  0  0  0  0  0  0
  141.6731   75.6334  217.6740 H   0  0  0  0  0  0  0  0  0  0  0  0
  143.6890   75.1750  217.0920 C   0  0  0  0  0  0  0  0  0  0  0  0
  144.5916   75.7139  216.7682 H   0  0  0  0  0  0  0  0  0  0  0  0
  143.3314   74.5230  216.2814 H   0  0  0  0  0  0  0  0  0  0  0  0
  1  2  1  0
  2  3  2  0
  3  4  1  0
  3  5  1  0
  5  6  1  0
  5  7  2  0
  7  8  1  0
  8  9  2  0
  9 10  1  0
  8 11  1  0
 11 12  1  0
 11 13  1  0
 11 14  1  0
 14 15  1  0
 15 16  1  0
 16 17  2  0
 17 18  1  0
 18 19  1  0
 19 20  1  0
 19 21  1  0
 19 22  1  0
 22 23  1  0
 22 24  1  0
 22 25  1  0
 25 26  1  0
 25 27  1  0
 25 28  1  0
 28 29  1  0
 28 30  1  0
 28 31  1  0
 31 32  1  0
 31 33  1  0
 17 34  1  0
 34 35  1  0
 34 36  1  0
 36 37  2  0
 37 38  1  0
 37 39  1  0
 39 40  1  0
 39 41  1  0
 39 42  1  0
 42 43  1  1
 42 44  1  0
 44 45  1  0
 44 46  1  0
 44 47  1  0
 47 48  1  0
 47 49  1  0
 49 50  1  0
 49 51  1  0
 49 52  1  0
 52 53  1  0
 52 54  1  0
 36 55  1  0
 14 56  1  0
 56 57  1  0
 56 58  1  0
 56 59  1  0
 59 60  1  0
 59 61  1  0
  9  2  1  0
 55 15  2  0
 59  7  1  0
 31 18  1  0
 52 42  1  0
M  CHG  2  25   1  37   1
M  END
>  <UniqueID>  (74) 
580

>  <SMILES>  (74) 
c1ccc2c(c1)CCN(c1nc(N3CC[NH2+]CC3)[nH]/c(=[NH+]\C[C@H]3CCNC3)n1)C2

>  <Energy>  (74) 
73.55451655840196

>  <Genealogy>  (74) 
c1ccc2c(c1)CCN(c1nc([NH2+]CC3CCNC3)nc(N3CC[NH2+]CC3)n1)C2 (protonated)
c1ccc2c(c1)CCN(c1nc(N3CC[NH2+]CC3)[nH]c(=[NH+]CC3CCNC3)n1)C2 (tautomer)
c1ccc2c(c1)CCN(c1nc(N3CC[NH2+]CC3)[nH]c(=[NH+]C[C@H]3CCNC3)n1)C2 (chirality)
c1ccc2c(c1)CCN(c1nc(N3CC[NH2+]CC3)[nH]/c(=[NH+]\C[C@H]3CCNC3)n1)C2 (cis-trans isomerization)
c1ccc2c(c1)CCN(c1nc(N3CC[NH2+]CC3)[nH]/c(=[NH+]\C[C@H]3CCNC3)n1)C2 (3D coordinates assigned)
c1ccc2c(c1)CCN(c1nc(N3CC[NH2+]CC3)[nH]/c(=[NH+]\C[C@H]3CCNC3)n1)C2 (nonaromatic ring conformer: 73.55451655840196 kcal/mol)

>  <smiles>  (74) 
c1ccc2c(c1)CCN(c1nc(NCC3CCNC3)nc(N3CCNCC3)n1)C2

>  <score_type>  (74) 
oracle

>  <origin>  (74) 
autodockgpu

>  <m_score__min__energy>  (74) 
-8.4900000000000002

>  <m_primary>  (74) 
energy

>  <meeko>  (74) 
{"free_energy": -8.19, "intermolecular_energy": -9.69, "internal_energy": -0.87, "cluster_size": 19, "cluster_id": 2, "rank_in_cluster": 8}

>  <energy>  (74) 
-8.1

>  <cluster_rmsd>  (74) 
0.83

>  <rmsd>  (74) 
270.19

>  <cluster>  (74) 
2

$$$$
RHAOACRWGXEIGT-RBAGJBRXNA-P
     RDKit          3D

 61 65  0  0  0  0  0  0  0  0999 V2000
  144.9066   72.1718  221.3782 H   0  0  0  0  0  0  0  0  0  0  0  0
  144.6560   72.7850  220.5000 C   0  0  0  0  0  0  0  0  0  0  0  0
  144.6630   72.2140  219.2260 C   0  0  0  0  0  0  0  0  0  0  0  0
  144.9231   71.1525  219.1013 H   0  0  0  0  0  0  0  0  0  0  0  0
  144.3400   72.9890  218.1090 C   0  0  0  0  0  0  0  0  0  0  0  0
  144.3561   72.5389  217.1054 H   0  0  0  0  0  0  0  0  0  0  0  0
  143.9950   74.3410  218.2650 C   0  0  0  0  0  0  0  0  0  0  0  0
  143.9920   74.9200  219.5470 C   0  0  0  0  0  0  0  0  0  0  0  0
  144.3310   74.1350  220.6610 C   0  0  0  0  0  0  0  0  0  0  0  0
  144.3408   74.5845  221.6649 H   0  0  0  0  0  0  0  0  0  0  0  0
  143.6970   76.3900  219.7360 C   0  0  0  0  0  0  0  0  0  0  0  0
  144.6502   76.9208  219.8763 H   0  0  0  0  0  0  0  0  0  0  0  0
  143.0372   76.4767  220.6118 H   0  0  0  0  0  0  0  0  0  0  0  0
  142.9860   77.0010  218.5960 N   0  0  0  0  0  0  0  0  0  0  0  0
  142.5250   78.3620  218.7240 C   0  0  0  0  0  0  0  0  0  0  0  0
  142.8600   79.2870  217.7900 N   0  0  0  0  0  0  0  0  0  0  0  0
  142.4450   80.5750  217.8970 C   0  0  0  0  0  0  0  0  0  0  0  0
  142.8290   81.5380  216.8860 N   0  0  0  0  0  0  0  0  0  0  0  0
  142.0210   81.7140  215.6700 C   0  0  0  0  0  0  0  0  0  0  0  0
  141.2814   80.9020  215.6093 H   0  0  0  0  0  0  0  0  0  0  0  0
  141.5185   82.6911  215.7225 H   0  0  0  0  0  0  0  0  0  0  0  0
  142.9060   81.6850  214.4070 C   0  0  0  0  0  0  0  0  0  0  0  0
  142.9341   80.6534  214.0261 H   0  0  0  0  0  0  0  0  0  0  0  0
  142.4608   82.3862  213.6859 H   0  0  0  0  0  0  0  0  0  0  0  0
  144.2950   82.1330  214.6450 N   0  0  0  0  0  0  0  0  0  0  0  0
  144.6590   82.5910  213.7770 H   0  0  0  0  0  0  0  0  0  0  0  0
  144.9020   81.3030  214.8440 H   0  0  0  0  0  0  0  0  0  0  0  0
  144.4020   83.0840  215.7590 C   0  0  0  0  0  0  0  0  0  0  0  0
  145.4394   83.4421  215.8335 H   0  0  0  0  0  0  0  0  0  0  0  0
  143.7261   83.9321  215.5750 H   0  0  0  0  0  0  0  0  0  0  0  0
  144.0050   82.4010  217.0740 C   0  0  0  0  0  0  0  0  0  0  0  0
  144.8470   81.7891  217.4299 H   0  0  0  0  0  0  0  0  0  0  0  0
  143.7548   83.1784  217.8109 H   0  0  0  0  0  0  0  0  0  0  0  0
  141.6800   80.9420  218.9680 N   0  0  0  0  0  0  0  0  0  0  0  0
  141.3520   81.9280  219.0440 H   0  0  0  0  0  0  0  0  0  0  0  0
  141.3360   80.0190  219.9190 C   0  0  0  0  0  0  0  0  0  0  0  0
  140.6070   80.3330  220.9590 N   0  0  0  0  0  0  0  0  0  0  0  0
  139.7740   79.7340  221.1660 H   0  0  0  0  0  0  0  0  0  0  0  0
  140.8890   81.4570  221.8610 C   0  0  0  0  0  0  0  0  0  0  0  0
  141.5429   82.1753  221.3447 H   0  0  0  0  0  0  0  0  0  0  0  0
  139.9342   81.9282  222.1371 H   0  0  0  0  0  0  0  0  0  0  0  0
  141.5880   80.9790  223.1530 C   0  0  2  0  0  0  0  0  0  0  0  0
  141.5734   81.8572  223.8153 H   0  0  0  0  0  0  0  0  0  0  0  0
  143.0000   80.4650  222.8830 C   0  0  0  0  0  0  0  0  0  0  0  0
  143.6438   80.6700  223.7510 H   0  0  0  0  0  0  0  0  0  0  0  0
  143.4273   80.9687  222.0034 H   0  0  0  0  0  0  0  0  0  0  0  0
  142.9220   79.0220  222.6530 N   0  0  0  0  0  0  0  0  0  0  0  0
  142.9580   78.8530  221.6200 H   0  0  0  0  0  0  0  0  0  0  0  0
  141.6180   78.5710  223.1500 C   0  0  0  0  0  0  0  0  0  0  0  0
  141.7607   77.8007  223.9221 H   0  0  0  0  0  0  0  0  0  0  0  0
  141.0275   78.1416  222.3273 H   0  0  0  0  0  0  0  0  0  0  0  0
  140.8920   79.7680  223.7460 C   0  0  0  0  0  0  0  0  0  0  0  0
  140.9809   79.7684  224.8424 H   0  0  0  0  0  0  0  0  0  0  0  0
  139.8157   79.7556  223.5192 H   0  0  0  0  0  0  0  0  0  0  0  0
  141.7650   78.7380  219.7830 N   0  0  0  0  0  0  0  0  0  0  0  0
  142.6010   76.2080  217.4170 C   0  0  0  0  0  0  0  0  0  0  0  0
  142.4548   76.8833  216.5611 H   0  0  0  0  0  0  0  0  0  0  0  0
  141.6697   75.6691  217.6454 H   0  0  0  0  0  0  0  0  0  0  0  0
  143.6820   75.1870  217.0690 C   0  0  0  0  0  0  0  0  0  0  0  0
  144.5921   75.7155  216.7489 H   0  0  0  0  0  0  0  0  0  0  0  0
  143.3189   74.5410  216.2561 H   0  0  0  0  0  0  0  0  0  0  0  0
  1  2  1  0
  2  3  2  0
  3  4  1  0
  3  5  1  0
  5  6  1  0
  5  7  2  0
  7  8  1  0
  8  9  2  0
  9 10  1  0
  8 11  1  0
 11 12  1  0
 11 13  1  0
 11 14  1  0
 14 15  1  0
 15 16  1  0
 16 17  2  0
 17 18  1  0
 18 19  1  0
 19 20  1  0
 19 21  1  0
 19 22  1  0
 22 23  1  0
 22 24  1  0
 22 25  1  0
 25 26  1  0
 25 27  1  0
 25 28  1  0
 28 29  1  0
 28 30  1  0
 28 31  1  0
 31 32  1  0
 31 33  1  0
 17 34  1  0
 34 35  1  0
 34 36  1  0
 36 37  2  0
 37 38  1  0
 37 39  1  0
 39 40  1  0
 39 41  1  0
 39 42  1  0
 42 43  1  1
 42 44  1  0
 44 45  1  0
 44 46  1  0
 44 47  1  0
 47 48  1  0
 47 49  1  0
 49 50  1  0
 49 51  1  0
 49 52  1  0
 52 53  1  0
 52 54  1  0
 36 55  1  0
 14 56  1  0
 56 57  1  0
 56 58  1  0
 56 59  1  0
 59 60  1  0
 59 61  1  0
  9  2  1  0
 55 15  2  0
 59  7  1  0
 31 18  1  0
 52 42  1  0
M  CHG  2  25   1  37   1
M  END
>  <UniqueID>  (75) 
580

>  <SMILES>  (75) 
c1ccc2c(c1)CCN(c1nc(N3CC[NH2+]CC3)[nH]/c(=[NH+]\C[C@H]3CCNC3)n1)C2

>  <Energy>  (75) 
73.55451655840196

>  <Genealogy>  (75) 
c1ccc2c(c1)CCN(c1nc([NH2+]CC3CCNC3)nc(N3CC[NH2+]CC3)n1)C2 (protonated)
c1ccc2c(c1)CCN(c1nc(N3CC[NH2+]CC3)[nH]c(=[NH+]CC3CCNC3)n1)C2 (tautomer)
c1ccc2c(c1)CCN(c1nc(N3CC[NH2+]CC3)[nH]c(=[NH+]C[C@H]3CCNC3)n1)C2 (chirality)
c1ccc2c(c1)CCN(c1nc(N3CC[NH2+]CC3)[nH]/c(=[NH+]\C[C@H]3CCNC3)n1)C2 (cis-trans isomerization)
c1ccc2c(c1)CCN(c1nc(N3CC[NH2+]CC3)[nH]/c(=[NH+]\C[C@H]3CCNC3)n1)C2 (3D coordinates assigned)
c1ccc2c(c1)CCN(c1nc(N3CC[NH2+]CC3)[nH]/c(=[NH+]\C[C@H]3CCNC3)n1)C2 (nonaromatic ring conformer: 73.55451655840196 kcal/mol)

>  <smiles>  (75) 
c1ccc2c(c1)CCN(c1nc(NCC3CCNC3)nc(N3CCNCC3)n1)C2

>  <score_type>  (75) 
oracle

>  <origin>  (75) 
autodockgpu

>  <m_score__min__energy>  (75) 
-8.4900000000000002

>  <m_primary>  (75) 
energy

>  <meeko>  (75) 
{"free_energy": -8.19, "intermolecular_energy": -9.68, "internal_energy": -0.88, "cluster_size": 19, "cluster_id": 2, "rank_in_cluster": 10}

>  <energy>  (75) 
-8.09

>  <cluster_rmsd>  (75) 
1.2

>  <rmsd>  (75) 
270.44

>  <cluster>  (75) 
2

$$$$
RHAOACRWGXEIGT-RBAGJBRXNA-P
     RDKit          3D

 61 65  0  0  0  0  0  0  0  0999 V2000
  145.2769   72.6484  221.2050 H   0  0  0  0  0  0  0  0  0  0  0  0
  144.6590   73.1550  220.4490 C   0  0  0  0  0  0  0  0  0  0  0  0
  144.0190   72.4090  219.4570 C   0  0  0  0  0  0  0  0  0  0  0  0
  144.1363   71.3156  219.4306 H   0  0  0  0  0  0  0  0  0  0  0  0
  143.2300   73.0490  218.4980 C   0  0  0  0  0  0  0  0  0  0  0  0
  142.7356   72.4597  217.7117 H   0  0  0  0  0  0  0  0  0  0  0  0
  143.0670   74.4430  218.5360 C   0  0  0  0  0  0  0  0  0  0  0  0
  143.7140   75.1980  219.5310 C   0  0  0  0  0  0  0  0  0  0  0  0
  144.5150   74.5450  220.4820 C   0  0  0  0  0  0  0  0  0  0  0  0
  145.0317   75.1304  221.2568 H   0  0  0  0  0  0  0  0  0  0  0  0
  143.6160   76.7060  219.5500 C   0  0  0  0  0  0  0  0  0  0  0  0
  144.5402   77.1200  219.1206 H   0  0  0  0  0  0  0  0  0  0  0  0
  143.4705   77.0067  220.5980 H   0  0  0  0  0  0  0  0  0  0  0  0
  142.4690   77.2330  218.7850 N   0  0  0  0  0  0  0  0  0  0  0  0
  142.1920   78.6470  218.8500 C   0  0  0  0  0  0  0  0  0  0  0  0
  142.5220   79.4570  217.8140 N   0  0  0  0  0  0  0  0  0  0  0  0
  142.2790   80.7920  217.8590 C   0  0  0  0  0  0  0  0  0  0  0  0
  142.6530   81.6270  216.7380 N   0  0  0  0  0  0  0  0  0  0  0  0
  141.9200   81.5510  215.4660 C   0  0  0  0  0  0  0  0  0  0  0  0
  141.2535   80.6762  215.4869 H   0  0  0  0  0  0  0  0  0  0  0  0
  141.3385   82.4764  215.3414 H   0  0  0  0  0  0  0  0  0  0  0  0
  142.8910   81.4170  214.2740 C   0  0  0  0  0  0  0  0  0  0  0  0
  143.0292   80.3475  214.0571 H   0  0  0  0  0  0  0  0  0  0  0  0
  142.4417   81.9616  213.4304 H   0  0  0  0  0  0  0  0  0  0  0  0
  144.2190   82.0190  214.5190 N   0  0  0  0  0  0  0  0  0  0  0  0
  144.6040   82.3760  213.6140 H   0  0  0  0  0  0  0  0  0  0  0  0
  144.8750   81.2850  214.8760 H   0  0  0  0  0  0  0  0  0  0  0  0
  144.1710   83.1280  215.4800 C   0  0  0  0  0  0  0  0  0  0  0  0
  145.1685   83.5850  215.5586 H   0  0  0  0  0  0  0  0  0  0  0  0
  143.4437   83.8760  215.1313 H   0  0  0  0  0  0  0  0  0  0  0  0
  143.7390   82.6110  216.8590 C   0  0  0  0  0  0  0  0  0  0  0  0
  144.6008   82.1365  217.3511 H   0  0  0  0  0  0  0  0  0  0  0  0
  143.3753   83.4621  217.4534 H   0  0  0  0  0  0  0  0  0  0  0  0
  141.6940   81.3250  218.9730 N   0  0  0  0  0  0  0  0  0  0  0  0
  141.4970   82.3470  219.0040 H   0  0  0  0  0  0  0  0  0  0  0  0
  141.3570   80.5190  220.0280 C   0  0  0  0  0  0  0  0  0  0  0  0
  140.7980   80.9930  221.1120 N   0  0  0  0  0  0  0  0  0  0  0  0
  139.8190   80.6890  221.3250 H   0  0  0  0  0  0  0  0  0  0  0  0
  141.4560   81.9070  222.0540 C   0  0  0  0  0  0  0  0  0  0  0  0
  142.3287   82.3612  221.5620 H   0  0  0  0  0  0  0  0  0  0  0  0
  140.7313   82.6790  222.3519 H   0  0  0  0  0  0  0  0  0  0  0  0
  141.9250   81.1630  223.3240 C   0  0  2  0  0  0  0  0  0  0  0  0
  142.0331   81.9530  224.0818 H   0  0  0  0  0  0  0  0  0  0  0  0
  143.2200   80.3880  223.0880 C   0  0  0  0  0  0  0  0  0  0  0  0
  143.8134   80.3621  224.0138 H   0  0  0  0  0  0  0  0  0  0  0  0
  143.8181   80.8739  222.3030 H   0  0  0  0  0  0  0  0  0  0  0  0
  142.8660   79.0260  222.6870 N   0  0  0  0  0  0  0  0  0  0  0  0
  142.9580   78.9580  221.6460 H   0  0  0  0  0  0  0  0  0  0  0  0
  141.4600   78.8180  223.0420 C   0  0  0  0  0  0  0  0  0  0  0  0
  141.3726   77.9611  223.7262 H   0  0  0  0  0  0  0  0  0  0  0  0
  140.8689   78.6111  222.1377 H   0  0  0  0  0  0  0  0  0  0  0  0
  140.9450   80.0760  223.7260 C   0  0  0  0  0  0  0  0  0  0  0  0
  140.9355   79.9472  224.8184 H   0  0  0  0  0  0  0  0  0  0  0  0
  139.9130   80.3168  223.4311 H   0  0  0  0  0  0  0  0  0  0  0  0
  141.6110   79.1880  219.9510 N   0  0  0  0  0  0  0  0  0  0  0  0
  141.5240   76.3350  218.1020 C   0  0  0  0  0  0  0  0  0  0  0  0
  141.0114   76.8917  217.3037 H   0  0  0  0  0  0  0  0  0  0  0  0
  140.7973   75.9634  218.8394 H   0  0  0  0  0  0  0  0  0  0  0  0
  142.2520   75.1400  217.4900 C   0  0  0  0  0  0  0  0  0  0  0  0
  142.9155   75.4910  216.6859 H   0  0  0  0  0  0  0  0  0  0  0  0
  141.5106   74.4365  217.0832 H   0  0  0  0  0  0  0  0  0  0  0  0
  1  2  1  0
  2  3  2  0
  3  4  1  0
  3  5  1  0
  5  6  1  0
  5  7  2  0
  7  8  1  0
  8  9  2  0
  9 10  1  0
  8 11  1  0
 11 12  1  0
 11 13  1  0
 11 14  1  0
 14 15  1  0
 15 16  1  0
 16 17  2  0
 17 18  1  0
 18 19  1  0
 19 20  1  0
 19 21  1  0
 19 22  1  0
 22 23  1  0
 22 24  1  0
 22 25  1  0
 25 26  1  0
 25 27  1  0
 25 28  1  0
 28 29  1  0
 28 30  1  0
 28 31  1  0
 31 32  1  0
 31 33  1  0
 17 34  1  0
 34 35  1  0
 34 36  1  0
 36 37  2  0
 37 38  1  0
 37 39  1  0
 39 40  1  0
 39 41  1  0
 39 42  1  0
 42 43  1  1
 42 44  1  0
 44 45  1  0
 44 46  1  0
 44 47  1  0
 47 48  1  0
 47 49  1  0
 49 50  1  0
 49 51  1  0
 49 52  1  0
 52 53  1  0
 52 54  1  0
 36 55  1  0
 14 56  1  0
 56 57  1  0
 56 58  1  0
 56 59  1  0
 59 60  1  0
 59 61  1  0
  9  2  1  0
 55 15  2  0
 59  7  1  0
 31 18  1  0
 52 42  1  0
M  CHG  2  25   1  37   1
M  END
>  <UniqueID>  (76) 
580

>  <SMILES>  (76) 
c1ccc2c(c1)CCN(c1nc(N3CC[NH2+]CC3)[nH]/c(=[NH+]\C[C@H]3CCNC3)n1)C2

>  <Energy>  (76) 
73.55451655840196

>  <Genealogy>  (76) 
c1ccc2c(c1)CCN(c1nc([NH2+]CC3CCNC3)nc(N3CC[NH2+]CC3)n1)C2 (protonated)
c1ccc2c(c1)CCN(c1nc(N3CC[NH2+]CC3)[nH]c(=[NH+]CC3CCNC3)n1)C2 (tautomer)
c1ccc2c(c1)CCN(c1nc(N3CC[NH2+]CC3)[nH]c(=[NH+]C[C@H]3CCNC3)n1)C2 (chirality)
c1ccc2c(c1)CCN(c1nc(N3CC[NH2+]CC3)[nH]/c(=[NH+]\C[C@H]3CCNC3)n1)C2 (cis-trans isomerization)
c1ccc2c(c1)CCN(c1nc(N3CC[NH2+]CC3)[nH]/c(=[NH+]\C[C@H]3CCNC3)n1)C2 (3D coordinates assigned)
c1ccc2c(c1)CCN(c1nc(N3CC[NH2+]CC3)[nH]/c(=[NH+]\C[C@H]3CCNC3)n1)C2 (nonaromatic ring conformer: 73.55451655840196 kcal/mol)

>  <smiles>  (76) 
c1ccc2c(c1)CCN(c1nc(NCC3CCNC3)nc(N3CCNCC3)n1)C2

>  <score_type>  (76) 
oracle

>  <origin>  (76) 
autodockgpu

>  <m_score__min__energy>  (76) 
-8.4900000000000002

>  <m_primary>  (76) 
energy

>  <meeko>  (76) 
{"free_energy": -7.97, "intermolecular_energy": -9.47, "internal_energy": -0.89, "cluster_size": 19, "cluster_id": 2, "rank_in_cluster": 17}

>  <energy>  (76) 
-8.05

>  <cluster_rmsd>  (76) 
1.23

>  <rmsd>  (76) 
270.44

>  <cluster>  (76) 
2

$$$$
RHAOACRWGXEIGT-RBAGJBRXNA-P
     RDKit          3D

 61 65  0  0  0  0  0  0  0  0999 V2000
  146.0342   72.5570  221.1635 H   0  0  0  0  0  0  0  0  0  0  0  0
  145.1170   72.9630  220.7120 C   0  0  0  0  0  0  0  0  0  0  0  0
  144.0870   72.1010  220.3290 C   0  0  0  0  0  0  0  0  0  0  0  0
  144.1961   71.0163  220.4759 H   0  0  0  0  0  0  0  0  0  0  0  0
  142.9190   72.6130  219.7600 C   0  0  0  0  0  0  0  0  0  0  0  0
  142.1143   71.9301  219.4499 H   0  0  0  0  0  0  0  0  0  0  0  0
  142.7700   73.9980  219.5830 C   0  0  0  0  0  0  0  0  0  0  0  0
  143.8080   74.8690  219.9620 C   0  0  0  0  0  0  0  0  0  0  0  0
  144.9830   74.3410  220.5220 C   0  0  0  0  0  0  0  0  0  0  0  0
  145.8019   75.0156  220.8125 H   0  0  0  0  0  0  0  0  0  0  0  0
  143.7050   76.3560  219.7140 C   0  0  0  0  0  0  0  0  0  0  0  0
  144.2938   76.6009  218.8177 H   0  0  0  0  0  0  0  0  0  0  0  0
  144.0852   76.8607  220.6144 H   0  0  0  0  0  0  0  0  0  0  0  0
  142.3210   76.8250  219.5060 N   0  0  0  0  0  0  0  0  0  0  0  0
  142.0860   78.2450  219.4030 C   0  0  0  0  0  0  0  0  0  0  0  0
  142.0920   78.8530  218.1900 N   0  0  0  0  0  0  0  0  0  0  0  0
  141.8830   80.1890  218.0720 C   0  0  0  0  0  0  0  0  0  0  0  0
  141.9050   80.8050  216.7630 N   0  0  0  0  0  0  0  0  0  0  0  0
  141.2630   80.1520  215.6130 C   0  0  0  0  0  0  0  0  0  0  0  0
  140.9897   79.1232  215.8904 H   0  0  0  0  0  0  0  0  0  0  0  0
  140.3676   80.7290  215.3384 H   0  0  0  0  0  0  0  0  0  0  0  0
  142.2120   80.1110  214.3970 C   0  0  0  0  0  0  0  0  0  0  0  0
  142.7556   79.1548  214.4127 H   0  0  0  0  0  0  0  0  0  0  0  0
  141.5881   80.2242  213.4982 H   0  0  0  0  0  0  0  0  0  0  0  0
  143.2010   81.2100  214.3780 N   0  0  0  0  0  0  0  0  0  0  0  0
  143.4190   81.4550  213.3840 H   0  0  0  0  0  0  0  0  0  0  0  0
  144.0900   80.8880  214.8280 H   0  0  0  0  0  0  0  0  0  0  0  0
  142.7230   82.4160  215.0670 C   0  0  0  0  0  0  0  0  0  0  0  0
  143.4640   83.2204  214.9494 H   0  0  0  0  0  0  0  0  0  0  0  0
  141.7630   82.7255  214.6282 H   0  0  0  0  0  0  0  0  0  0  0  0
  142.5230   82.1240  216.5600 C   0  0  0  0  0  0  0  0  0  0  0  0
  143.5004   82.1443  217.0642 H   0  0  0  0  0  0  0  0  0  0  0  0
  141.8556   82.8910  216.9798 H   0  0  0  0  0  0  0  0  0  0  0  0
  141.6660   80.9310  219.1990 N   0  0  0  0  0  0  0  0  0  0  0  0
  141.4950   81.9540  219.1080 H   0  0  0  0  0  0  0  0  0  0  0  0
  141.6590   80.3310  220.4300 C   0  0  0  0  0  0  0  0  0  0  0  0
  141.4580   81.0090  221.5310 N   0  0  0  0  0  0  0  0  0  0  0  0
  140.7320   81.7620  221.5100 H   0  0  0  0  0  0  0  0  0  0  0  0
  142.1690   80.7720  222.7940 C   0  0  0  0  0  0  0  0  0  0  0  0
  143.0984   80.2223  222.5842 H   0  0  0  0  0  0  0  0  0  0  0  0
  142.3885   81.7455  223.2568 H   0  0  0  0  0  0  0  0  0  0  0  0
  141.3080   79.9480  223.7770 C   0  0  2  0  0  0  0  0  0  0  0  0
  141.3436   80.5170  224.7177 H   0  0  0  0  0  0  0  0  0  0  0  0
  141.8240   78.5190  223.9290 C   0  0  0  0  0  0  0  0  0  0  0  0
  141.6241   78.1566  224.9482 H   0  0  0  0  0  0  0  0  0  0  0  0
  142.9091   78.4844  223.7519 H   0  0  0  0  0  0  0  0  0  0  0  0
  141.1240   77.6780  222.9570 N   0  0  0  0  0  0  0  0  0  0  0  0
  141.7590   77.5280  222.1380 H   0  0  0  0  0  0  0  0  0  0  0  0
  139.9480   78.4260  222.5010 C   0  0  0  0  0  0  0  0  0  0  0  0
  139.0360   77.8471  222.7088 H   0  0  0  0  0  0  0  0  0  0  0  0
  140.0127   78.6082  221.4181 H   0  0  0  0  0  0  0  0  0  0  0  0
  139.8990   79.7480  223.2510 C   0  0  0  0  0  0  0  0  0  0  0  0
  139.1793   79.6960  224.0812 H   0  0  0  0  0  0  0  0  0  0  0  0
  139.5745   80.5787  222.6071 H   0  0  0  0  0  0  0  0  0  0  0  0
  141.8700   78.9920  220.5140 N   0  0  0  0  0  0  0  0  0  0  0  0
  141.1780   75.8990  219.5650 C   0  0  0  0  0  0  0  0  0  0  0  0
  140.3309   76.3371  219.0169 H   0  0  0  0  0  0  0  0  0  0  0  0
  140.9108   75.7373  220.6197 H   0  0  0  0  0  0  0  0  0  0  0  0
  141.5350   74.5520  218.9400 C   0  0  0  0  0  0  0  0  0  0  0  0
  141.7144   74.6866  217.8631 H   0  0  0  0  0  0  0  0  0  0  0  0
  140.7021   73.8505  219.0955 H   0  0  0  0  0  0  0  0  0  0  0  0
  1  2  1  0
  2  3  2  0
  3  4  1  0
  3  5  1  0
  5  6  1  0
  5  7  2  0
  7  8  1  0
  8  9  2  0
  9 10  1  0
  8 11  1  0
 11 12  1  0
 11 13  1  0
 11 14  1  0
 14 15  1  0
 15 16  1  0
 16 17  2  0
 17 18  1  0
 18 19  1  0
 19 20  1  0
 19 21  1  0
 19 22  1  0
 22 23  1  0
 22 24  1  0
 22 25  1  0
 25 26  1  0
 25 27  1  0
 25 28  1  0
 28 29  1  0
 28 30  1  0
 28 31  1  0
 31 32  1  0
 31 33  1  0
 17 34  1  0
 34 35  1  0
 34 36  1  0
 36 37  2  0
 37 38  1  0
 37 39  1  0
 39 40  1  0
 39 41  1  0
 39 42  1  0
 42 43  1  1
 42 44  1  0
 44 45  1  0
 44 46  1  0
 44 47  1  0
 47 48  1  0
 47 49  1  0
 49 50  1  0
 49 51  1  0
 49 52  1  0
 52 53  1  0
 52 54  1  0
 36 55  1  0
 14 56  1  0
 56 57  1  0
 56 58  1  0
 56 59  1  0
 59 60  1  0
 59 61  1  0
  9  2  1  0
 55 15  2  0
 59  7  1  0
 31 18  1  0
 52 42  1  0
M  CHG  2  25   1  37   1
M  END
>  <UniqueID>  (77) 
580

>  <SMILES>  (77) 
c1ccc2c(c1)CCN(c1nc(N3CC[NH2+]CC3)[nH]/c(=[NH+]\C[C@H]3CCNC3)n1)C2

>  <Energy>  (77) 
73.55451655840196

>  <Genealogy>  (77) 
c1ccc2c(c1)CCN(c1nc([NH2+]CC3CCNC3)nc(N3CC[NH2+]CC3)n1)C2 (protonated)
c1ccc2c(c1)CCN(c1nc(N3CC[NH2+]CC3)[nH]c(=[NH+]CC3CCNC3)n1)C2 (tautomer)
c1ccc2c(c1)CCN(c1nc(N3CC[NH2+]CC3)[nH]c(=[NH+]C[C@H]3CCNC3)n1)C2 (chirality)
c1ccc2c(c1)CCN(c1nc(N3CC[NH2+]CC3)[nH]/c(=[NH+]\C[C@H]3CCNC3)n1)C2 (cis-trans isomerization)
c1ccc2c(c1)CCN(c1nc(N3CC[NH2+]CC3)[nH]/c(=[NH+]\C[C@H]3CCNC3)n1)C2 (3D coordinates assigned)
c1ccc2c(c1)CCN(c1nc(N3CC[NH2+]CC3)[nH]/c(=[NH+]\C[C@H]3CCNC3)n1)C2 (nonaromatic ring conformer: 73.55451655840196 kcal/mol)

>  <smiles>  (77) 
c1ccc2c(c1)CCN(c1nc(NCC3CCNC3)nc(N3CCNCC3)n1)C2

>  <score_type>  (77) 
oracle

>  <origin>  (77) 
autodockgpu

>  <m_score__min__energy>  (77) 
-8.4900000000000002

>  <m_primary>  (77) 
energy

>  <meeko>  (77) 
{"free_energy": -7.97, "intermolecular_energy": -9.46, "internal_energy": -0.84, "cluster_size": 19, "cluster_id": 2, "rank_in_cluster": 18}

>  <energy>  (77) 
-7.98

>  <cluster_rmsd>  (77) 
0.72

>  <rmsd>  (77) 
270.08

>  <cluster>  (77) 
2

$$$$
RHAOACRWGXEIGT-RBAGJBRXNA-P
     RDKit          3D

 61 65  0  0  0  0  0  0  0  0999 V2000
  138.4192   79.4397  225.1107 H   0  0  0  0  0  0  0  0  0  0  0  0
  138.8610   79.8000  224.1700 C   0  0  0  0  0  0  0  0  0  0  0  0
  138.8560   81.1640  223.8750 C   0  0  0  0  0  0  0  0  0  0  0  0
  138.4060   81.8765  224.5820 H   0  0  0  0  0  0  0  0  0  0  0  0
  139.4210   81.6270  222.6840 C   0  0  0  0  0  0  0  0  0  0  0  0
  139.4060   82.7018  222.4503 H   0  0  0  0  0  0  0  0  0  0  0  0
  140.0080   80.7220  221.7850 C   0  0  0  0  0  0  0  0  0  0  0  0
  140.0100   79.3450  222.0770 C   0  0  0  0  0  0  0  0  0  0  0  0
  139.4270   78.8910  223.2710 C   0  0  0  0  0  0  0  0  0  0  0  0
  139.4155   77.8152  223.5001 H   0  0  0  0  0  0  0  0  0  0  0  0
  140.5680   78.3430  221.0930 C   0  0  0  0  0  0  0  0  0  0  0  0
  139.7279   77.8769  220.5573 H   0  0  0  0  0  0  0  0  0  0  0  0
  141.1517   77.6127  221.6726 H   0  0  0  0  0  0  0  0  0  0  0  0
  141.4830   78.9370  220.0990 N   0  0  0  0  0  0  0  0  0  0  0  0
  142.1860   78.0540  219.2000 C   0  0  0  0  0  0  0  0  0  0  0  0
  142.2080   78.3110  217.8680 N   0  0  0  0  0  0  0  0  0  0  0  0
  142.8560   77.4880  217.0040 C   0  0  0  0  0  0  0  0  0  0  0  0
  142.8500   77.7870  215.5890 N   0  0  0  0  0  0  0  0  0  0  0  0
  143.5490   76.9160  214.6330 C   0  0  0  0  0  0  0  0  0  0  0  0
  144.1763   76.2033  215.1884 H   0  0  0  0  0  0  0  0  0  0  0  0
  142.7977   76.3827  214.0320 H   0  0  0  0  0  0  0  0  0  0  0  0
  144.4430   77.7400  213.6820 C   0  0  0  0  0  0  0  0  0  0  0  0
  145.4551   77.7871  214.1102 H   0  0  0  0  0  0  0  0  0  0  0  0
  144.4246   77.2354  212.7048 H   0  0  0  0  0  0  0  0  0  0  0  0
  143.9630   79.1210  213.4650 N   0  0  0  0  0  0  0  0  0  0  0  0
  144.2280   79.4260  212.4990 H   0  0  0  0  0  0  0  0  0  0  0  0
  144.4360   79.7660  214.1420 H   0  0  0  0  0  0  0  0  0  0  0  0
  142.5080   79.2480  213.6170 C   0  0  0  0  0  0  0  0  0  0  0  0
  142.2037   80.2743  213.3640 H   0  0  0  0  0  0  0  0  0  0  0  0
  142.0112   78.5344  212.9432 H   0  0  0  0  0  0  0  0  0  0  0  0
  142.1020   78.9400  215.0640 C   0  0  0  0  0  0  0  0  0  0  0  0
  142.3107   79.8195  215.6908 H   0  0  0  0  0  0  0  0  0  0  0  0
  141.0290   78.6986  215.0824 H   0  0  0  0  0  0  0  0  0  0  0  0
  143.4930   76.3810  217.4900 N   0  0  0  0  0  0  0  0  0  0  0  0
  144.0000   75.7550  216.8290 H   0  0  0  0  0  0  0  0  0  0  0  0
  143.4780   76.1100  218.8330 C   0  0  0  0  0  0  0  0  0  0  0  0
  144.0750   75.0590  219.3340 N   0  0  0  0  0  0  0  0  0  0  0  0
  145.0000   74.7870  218.9280 H   0  0  0  0  0  0  0  0  0  0  0  0
  143.5420   74.2480  220.4360 C   0  0  0  0  0  0  0  0  0  0  0  0
  143.4325   74.8832  221.3274 H   0  0  0  0  0  0  0  0  0  0  0  0
  142.5689   73.8394  220.1260 H   0  0  0  0  0  0  0  0  0  0  0  0
  144.4800   73.0680  220.7720 C   0  0  2  0  0  0  0  0  0  0  0  0
  144.2520   72.8242  221.8201 H   0  0  0  0  0  0  0  0  0  0  0  0
  145.9490   73.4250  220.5520 C   0  0  0  0  0  0  0  0  0  0  0  0
  146.5770   72.8802  221.2723 H   0  0  0  0  0  0  0  0  0  0  0  0
  146.1048   74.5042  220.6974 H   0  0  0  0  0  0  0  0  0  0  0  0
  146.3110   73.0400  219.1880 N   0  0  0  0  0  0  0  0  0  0  0  0
  146.2970   73.8990  218.5910 H   0  0  0  0  0  0  0  0  0  0  0  0
  145.2750   72.1220  218.7050 C   0  0  0  0  0  0  0  0  0  0  0  0
  145.7318   71.1621  218.4224 H   0  0  0  0  0  0  0  0  0  0  0  0
  144.7733   72.5485  217.8238 H   0  0  0  0  0  0  0  0  0  0  0  0
  144.2680   71.9020  219.8240 C   0  0  0  0  0  0  0  0  0  0  0  0
  144.4597   70.9472  220.3354 H   0  0  0  0  0  0  0  0  0  0  0  0
  143.2349   71.8545  219.4492 H   0  0  0  0  0  0  0  0  0  0  0  0
  142.8230   76.9530  219.6710 N   0  0  0  0  0  0  0  0  0  0  0  0
  141.8090   80.3730  220.1160 C   0  0  0  0  0  0  0  0  0  0  0  0
  142.1591   80.6748  219.1178 H   0  0  0  0  0  0  0  0  0  0  0  0
  142.5939   80.5466  220.8669 H   0  0  0  0  0  0  0  0  0  0  0  0
  140.5840   81.2050  220.4890 C   0  0  0  0  0  0  0  0  0  0  0  0
  139.8263   81.1119  219.6971 H   0  0  0  0  0  0  0  0  0  0  0  0
  140.8839   82.2576  220.5987 H   0  0  0  0  0  0  0  0  0  0  0  0
  1  2  1  0
  2  3  2  0
  3  4  1  0
  3  5  1  0
  5  6  1  0
  5  7  2  0
  7  8  1  0
  8  9  2  0
  9 10  1  0
  8 11  1  0
 11 12  1  0
 11 13  1  0
 11 14  1  0
 14 15  1  0
 15 16  1  0
 16 17  2  0
 17 18  1  0
 18 19  1  0
 19 20  1  0
 19 21  1  0
 19 22  1  0
 22 23  1  0
 22 24  1  0
 22 25  1  0
 25 26  1  0
 25 27  1  0
 25 28  1  0
 28 29  1  0
 28 30  1  0
 28 31  1  0
 31 32  1  0
 31 33  1  0
 17 34  1  0
 34 35  1  0
 34 36  1  0
 36 37  2  0
 37 38  1  0
 37 39  1  0
 39 40  1  0
 39 41  1  0
 39 42  1  0
 42 43  1  1
 42 44  1  0
 44 45  1  0
 44 46  1  0
 44 47  1  0
 47 48  1  0
 47 49  1  0
 49 50  1  0
 49 51  1  0
 49 52  1  0
 52 53  1  0
 52 54  1  0
 36 55  1  0
 14 56  1  0
 56 57  1  0
 56 58  1  0
 56 59  1  0
 59 60  1  0
 59 61  1  0
  9  2  1  0
 55 15  2  0
 59  7  1  0
 31 18  1  0
 52 42  1  0
M  CHG  2  25   1  37   1
M  END
>  <UniqueID>  (78) 
580

>  <SMILES>  (78) 
c1ccc2c(c1)CCN(c1nc(N3CC[NH2+]CC3)[nH]/c(=[NH+]\C[C@H]3CCNC3)n1)C2

>  <Energy>  (78) 
73.55451655840196

>  <Genealogy>  (78) 
c1ccc2c(c1)CCN(c1nc([NH2+]CC3CCNC3)nc(N3CC[NH2+]CC3)n1)C2 (protonated)
c1ccc2c(c1)CCN(c1nc(N3CC[NH2+]CC3)[nH]c(=[NH+]CC3CCNC3)n1)C2 (tautomer)
c1ccc2c(c1)CCN(c1nc(N3CC[NH2+]CC3)[nH]c(=[NH+]C[C@H]3CCNC3)n1)C2 (chirality)
c1ccc2c(c1)CCN(c1nc(N3CC[NH2+]CC3)[nH]/c(=[NH+]\C[C@H]3CCNC3)n1)C2 (cis-trans isomerization)
c1ccc2c(c1)CCN(c1nc(N3CC[NH2+]CC3)[nH]/c(=[NH+]\C[C@H]3CCNC3)n1)C2 (3D coordinates assigned)
c1ccc2c(c1)CCN(c1nc(N3CC[NH2+]CC3)[nH]/c(=[NH+]\C[C@H]3CCNC3)n1)C2 (nonaromatic ring conformer: 73.55451655840196 kcal/mol)

>  <smiles>  (78) 
c1ccc2c(c1)CCN(c1nc(NCC3CCNC3)nc(N3CCNCC3)n1)C2

>  <score_type>  (78) 
oracle

>  <origin>  (78) 
autodockgpu

>  <m_score__min__energy>  (78) 
-8.4900000000000002

>  <m_primary>  (78) 
energy

>  <meeko>  (78) 
{"free_energy": -8.49, "intermolecular_energy": -9.98, "internal_energy": -0.46, "cluster_size": 1, "cluster_id": 1, "rank_in_cluster": 1}

>  <energy>  (78) 
-7.97

>  <cluster_rmsd>  (78) 
1.27

>  <rmsd>  (78) 
270.3

>  <cluster>  (78) 
2

$$$$
RHAOACRWGXEIGT-RBAGJBRXNA-P
     RDKit          3D

 61 65  0  0  0  0  0  0  0  0999 V2000
  141.0478   72.7732  221.8780 H   0  0  0  0  0  0  0  0  0  0  0  0
  141.5840   73.4020  221.1520 C   0  0  0  0  0  0  0  0  0  0  0  0
  142.3990   72.8110  220.1850 C   0  0  0  0  0  0  0  0  0  0  0  0
  142.5070   71.7168  220.1527 H   0  0  0  0  0  0  0  0  0  0  0  0
  143.0780   73.6060  219.2580 C   0  0  0  0  0  0  0  0  0  0  0  0
  143.7276   73.1376  218.5039 H   0  0  0  0  0  0  0  0  0  0  0  0
  142.9320   75.0020  219.2880 C   0  0  0  0  0  0  0  0  0  0  0  0
  142.1160   75.6020  220.2640 C   0  0  0  0  0  0  0  0  0  0  0  0
  141.4490   74.7930  221.1980 C   0  0  0  0  0  0  0  0  0  0  0  0
  140.8169   75.2560  221.9700 H   0  0  0  0  0  0  0  0  0  0  0  0
  142.0010   77.1050  220.3650 C   0  0  0  0  0  0  0  0  0  0  0  0
  142.6449   77.4485  221.1881 H   0  0  0  0  0  0  0  0  0  0  0  0
  140.9398   77.3363  220.5394 H   0  0  0  0  0  0  0  0  0  0  0  0
  142.4010   77.8120  219.1340 N   0  0  0  0  0  0  0  0  0  0  0  0
  142.1970   79.2390  219.0640 C   0  0  0  0  0  0  0  0  0  0  0  0
  142.5840   79.9320  217.9640 N   0  0  0  0  0  0  0  0  0  0  0  0
  142.4100   81.2760  217.8820 C   0  0  0  0  0  0  0  0  0  0  0  0
  142.8430   81.9840  216.6970 N   0  0  0  0  0  0  0  0  0  0  0  0
  142.0740   81.8970  215.4460 C   0  0  0  0  0  0  0  0  0  0  0  0
  141.3187   81.1032  215.5429 H   0  0  0  0  0  0  0  0  0  0  0  0
  141.5919   82.8687  215.2635 H   0  0  0  0  0  0  0  0  0  0  0  0
  142.9940   81.5740  214.2510 C   0  0  0  0  0  0  0  0  0  0  0  0
  143.0118   80.4831  214.1112 H   0  0  0  0  0  0  0  0  0  0  0  0
  142.5842   82.1021  213.3774 H   0  0  0  0  0  0  0  0  0  0  0  0
  144.3850   82.0450  214.4280 N   0  0  0  0  0  0  0  0  0  0  0  0
  144.7830   82.2930  213.4920 H   0  0  0  0  0  0  0  0  0  0  0  0
  144.9680   81.2710  214.8260 H   0  0  0  0  0  0  0  0  0  0  0  0
  144.4800   83.2180  215.3060 C   0  0  0  0  0  0  0  0  0  0  0  0
  145.5222   83.5689  215.3332 H   0  0  0  0  0  0  0  0  0  0  0  0
  143.8278   84.0136  214.9165 H   0  0  0  0  0  0  0  0  0  0  0  0
  144.0310   82.8500  216.7260 C   0  0  0  0  0  0  0  0  0  0  0  0
  144.8494   82.3205  217.2358 H   0  0  0  0  0  0  0  0  0  0  0  0
  143.7761   83.7755  217.2631 H   0  0  0  0  0  0  0  0  0  0  0  0
  141.8390   81.9380  218.9330 N   0  0  0  0  0  0  0  0  0  0  0  0
  141.6950   82.9670  218.8660 H   0  0  0  0  0  0  0  0  0  0  0  0
  141.4460   81.2510  220.0500 C   0  0  0  0  0  0  0  0  0  0  0  0
  140.8970   81.8510  221.0750 N   0  0  0  0  0  0  0  0  0  0  0  0
  141.0100   82.8890  221.1470 H   0  0  0  0  0  0  0  0  0  0  0  0
  140.1240   81.1690  222.1200 C   0  0  0  0  0  0  0  0  0  0  0  0
  139.2790   81.8085  222.4152 H   0  0  0  0  0  0  0  0  0  0  0  0
  139.7654   80.2107  221.7160 H   0  0  0  0  0  0  0  0  0  0  0  0
  140.9930   80.8780  223.3640 C   0  0  2  0  0  0  0  0  0  0  0  0
  140.6983   81.6480  224.0922 H   0  0  0  0  0  0  0  0  0  0  0  0
  142.4850   80.9100  223.0390 C   0  0  0  0  0  0  0  0  0  0  0  0
  143.0496   81.2683  223.9124 H   0  0  0  0  0  0  0  0  0  0  0  0
  142.6777   81.5895  222.1957 H   0  0  0  0  0  0  0  0  0  0  0  0
  142.9040   79.5490  222.7010 N   0  0  0  0  0  0  0  0  0  0  0  0
  142.9580   79.4740  221.6570 H   0  0  0  0  0  0  0  0  0  0  0  0
  141.8580   78.6390  223.1770 C   0  0  0  0  0  0  0  0  0  0  0  0
  142.2885   77.9168  223.8863 H   0  0  0  0  0  0  0  0  0  0  0  0
  141.4231   78.0874  222.3305 H   0  0  0  0  0  0  0  0  0  0  0  0
  140.7840   79.4630  223.8710 C   0  0  0  0  0  0  0  0  0  0  0  0
  140.9082   79.4204  224.9631 H   0  0  0  0  0  0  0  0  0  0  0  0
  139.7715   79.0904  223.6566 H   0  0  0  0  0  0  0  0  0  0  0  0
  141.6310   79.9070  220.1000 N   0  0  0  0  0  0  0  0  0  0  0  0
  142.8440   77.0790  217.9360 C   0  0  0  0  0  0  0  0  0  0  0  0
  143.4470   77.7494  217.3060 H   0  0  0  0  0  0  0  0  0  0  0  0
  141.9558   76.7323  217.3875 H   0  0  0  0  0  0  0  0  0  0  0  0
  143.6850   75.8640  218.3210 C   0  0  0  0  0  0  0  0  0  0  0  0
  144.6213   76.2030  218.7885 H   0  0  0  0  0  0  0  0  0  0  0  0
  143.9085   75.2796  217.4163 H   0  0  0  0  0  0  0  0  0  0  0  0
  1  2  1  0
  2  3  2  0
  3  4  1  0
  3  5  1  0
  5  6  1  0
  5  7  2  0
  7  8  1  0
  8  9  2  0
  9 10  1  0
  8 11  1  0
 11 12  1  0
 11 13  1  0
 11 14  1  0
 14 15  1  0
 15 16  1  0
 16 17  2  0
 17 18  1  0
 18 19  1  0
 19 20  1  0
 19 21  1  0
 19 22  1  0
 22 23  1  0
 22 24  1  0
 22 25  1  0
 25 26  1  0
 25 27  1  0
 25 28  1  0
 28 29  1  0
 28 30  1  0
 28 31  1  0
 31 32  1  0
 31 33  1  0
 17 34  1  0
 34 35  1  0
 34 36  1  0
 36 37  2  0
 37 38  1  0
 37 39  1  0
 39 40  1  0
 39 41  1  0
 39 42  1  0
 42 43  1  1
 42 44  1  0
 44 45  1  0
 44 46  1  0
 44 47  1  0
 47 48  1  0
 47 49  1  0
 49 50  1  0
 49 51  1  0
 49 52  1  0
 52 53  1  0
 52 54  1  0
 36 55  1  0
 14 56  1  0
 56 57  1  0
 56 58  1  0
 56 59  1  0
 59 60  1  0
 59 61  1  0
  9  2  1  0
 55 15  2  0
 59  7  1  0
 31 18  1  0
 52 42  1  0
M  CHG  2  25   1  37   1
M  END
>  <UniqueID>  (79) 
580

>  <SMILES>  (79) 
c1ccc2c(c1)CCN(c1nc(N3CC[NH2+]CC3)[nH]/c(=[NH+]\C[C@H]3CCNC3)n1)C2

>  <Energy>  (79) 
73.55451655840196

>  <Genealogy>  (79) 
c1ccc2c(c1)CCN(c1nc([NH2+]CC3CCNC3)nc(N3CC[NH2+]CC3)n1)C2 (protonated)
c1ccc2c(c1)CCN(c1nc(N3CC[NH2+]CC3)[nH]c(=[NH+]CC3CCNC3)n1)C2 (tautomer)
c1ccc2c(c1)CCN(c1nc(N3CC[NH2+]CC3)[nH]c(=[NH+]C[C@H]3CCNC3)n1)C2 (chirality)
c1ccc2c(c1)CCN(c1nc(N3CC[NH2+]CC3)[nH]/c(=[NH+]\C[C@H]3CCNC3)n1)C2 (cis-trans isomerization)
c1ccc2c(c1)CCN(c1nc(N3CC[NH2+]CC3)[nH]/c(=[NH+]\C[C@H]3CCNC3)n1)C2 (3D coordinates assigned)
c1ccc2c(c1)CCN(c1nc(N3CC[NH2+]CC3)[nH]/c(=[NH+]\C[C@H]3CCNC3)n1)C2 (nonaromatic ring conformer: 73.55451655840196 kcal/mol)

>  <smiles>  (79) 
c1ccc2c(c1)CCN(c1nc(NCC3CCNC3)nc(N3CCNCC3)n1)C2

>  <score_type>  (79) 
oracle

>  <origin>  (79) 
autodockgpu

>  <m_score__min__energy>  (79) 
-8.4900000000000002

>  <m_primary>  (79) 
energy

>  <meeko>  (79) 
{"free_energy": -8.05, "intermolecular_energy": -9.55, "internal_energy": -1.0, "cluster_size": 19, "cluster_id": 2, "rank_in_cluster": 15}

>  <energy>  (79) 
-7.97

>  <cluster_rmsd>  (79) 
0.92

>  <rmsd>  (79) 
270.19

>  <cluster>  (79) 
2

$$$$
RHAOACRWGXEIGT-RBAGJBRXNA-P
     RDKit          3D

 61 65  0  0  0  0  0  0  0  0999 V2000
  140.7724   72.7869  221.8479 H   0  0  0  0  0  0  0  0  0  0  0  0
  141.3580   73.4090  221.1550 C   0  0  0  0  0  0  0  0  0  0  0  0
  142.2190   72.8070  220.2370 C   0  0  0  0  0  0  0  0  0  0  0  0
  142.3129   71.7114  220.2093 H   0  0  0  0  0  0  0  0  0  0  0  0
  142.9620   73.5930  219.3530 C   0  0  0  0  0  0  0  0  0  0  0  0
  143.6487   73.1158  218.6383 H   0  0  0  0  0  0  0  0  0  0  0  0
  142.8340   74.9910  219.3750 C   0  0  0  0  0  0  0  0  0  0  0  0
  141.9700   75.6020  220.3030 C   0  0  0  0  0  0  0  0  0  0  0  0
  141.2380   74.8010  221.1960 C   0  0  0  0  0  0  0  0  0  0  0  0
  140.5677   75.2715  221.9304 H   0  0  0  0  0  0  0  0  0  0  0  0
  141.8700   77.1060  220.3990 C   0  0  0  0  0  0  0  0  0  0  0  0
  142.4696   77.4403  221.2585 H   0  0  0  0  0  0  0  0  0  0  0  0
  140.8038   77.3520  220.5120 H   0  0  0  0  0  0  0  0  0  0  0  0
  142.3510   77.8080  219.1930 N   0  0  0  0  0  0  0  0  0  0  0  0
  142.1710   79.2380  219.1130 C   0  0  0  0  0  0  0  0  0  0  0  0
  142.5190   79.9080  217.9870 N   0  0  0  0  0  0  0  0  0  0  0  0
  142.3670   81.2540  217.8950 C   0  0  0  0  0  0  0  0  0  0  0  0
  142.7570   81.9380  216.6810 N   0  0  0  0  0  0  0  0  0  0  0  0
  141.9950   81.7550  215.4370 C   0  0  0  0  0  0  0  0  0  0  0  0
  141.2887   80.9218  215.5675 H   0  0  0  0  0  0  0  0  0  0  0  0
  141.4554   82.6880  215.2170 H   0  0  0  0  0  0  0  0  0  0  0  0
  142.9330   81.4400  214.2530 C   0  0  0  0  0  0  0  0  0  0  0  0
  143.0154   80.3474  214.1563 H   0  0  0  0  0  0  0  0  0  0  0  0
  142.4926   81.9080  213.3603 H   0  0  0  0  0  0  0  0  0  0  0  0
  144.2930   81.9990  214.4080 N   0  0  0  0  0  0  0  0  0  0  0  0
  144.6760   82.2330  213.4620 H   0  0  0  0  0  0  0  0  0  0  0  0
  144.9220   81.2780  214.8360 H   0  0  0  0  0  0  0  0  0  0  0  0
  144.3180   83.2110  215.2380 C   0  0  0  0  0  0  0  0  0  0  0  0
  145.3375   83.6238  215.2488 H   0  0  0  0  0  0  0  0  0  0  0  0
  143.6199   83.9500  214.8179 H   0  0  0  0  0  0  0  0  0  0  0  0
  143.8910   82.8750  216.6730 C   0  0  0  0  0  0  0  0  0  0  0  0
  144.7394   82.4171  217.2027 H   0  0  0  0  0  0  0  0  0  0  0  0
  143.5805   83.8046  217.1725 H   0  0  0  0  0  0  0  0  0  0  0  0
  141.8580   81.9410  218.9610 N   0  0  0  0  0  0  0  0  0  0  0  0
  141.7310   82.9720  218.8870 H   0  0  0  0  0  0  0  0  0  0  0  0
  141.5050   81.2770  220.1050 C   0  0  0  0  0  0  0  0  0  0  0  0
  141.0160   81.9010  221.1460 N   0  0  0  0  0  0  0  0  0  0  0  0
  141.2190   82.9230  221.2380 H   0  0  0  0  0  0  0  0  0  0  0  0
  140.1910   81.2660  222.1830 C   0  0  0  0  0  0  0  0  0  0  0  0
  139.3995   81.9657  222.4895 H   0  0  0  0  0  0  0  0  0  0  0  0
  139.7567   80.3456  221.7657 H   0  0  0  0  0  0  0  0  0  0  0  0
  141.0360   80.8890  223.4200 C   0  0  2  0  0  0  0  0  0  0  0  0
  140.7570   81.6329  224.1808 H   0  0  0  0  0  0  0  0  0  0  0  0
  142.5320   80.8890  223.1140 C   0  0  0  0  0  0  0  0  0  0  0  0
  143.0962   81.1852  224.0106 H   0  0  0  0  0  0  0  0  0  0  0  0
  142.7565   81.6028  222.3078 H   0  0  0  0  0  0  0  0  0  0  0  0
  142.9130   79.5340  222.7130 N   0  0  0  0  0  0  0  0  0  0  0  0
  142.9780   79.5080  221.6690 H   0  0  0  0  0  0  0  0  0  0  0  0
  141.8340   78.6360  223.1330 C   0  0  0  0  0  0  0  0  0  0  0  0
  142.2335   77.8672  223.8108 H   0  0  0  0  0  0  0  0  0  0  0  0
  141.3925   78.1404  222.2558 H   0  0  0  0  0  0  0  0  0  0  0  0
  140.7770   79.4580  223.8550 C   0  0  0  0  0  0  0  0  0  0  0  0
  140.8862   79.3584  224.9450 H   0  0  0  0  0  0  0  0  0  0  0  0
  139.7562   79.1280  223.6119 H   0  0  0  0  0  0  0  0  0  0  0  0
  141.6670   79.9300  220.1650 N   0  0  0  0  0  0  0  0  0  0  0  0
  142.8530   77.0690  218.0230 C   0  0  0  0  0  0  0  0  0  0  0  0
  143.5004   77.7313  217.4294 H   0  0  0  0  0  0  0  0  0  0  0  0
  141.9935   76.7338  217.4240 H   0  0  0  0  0  0  0  0  0  0  0  0
  143.6540   75.8430  218.4550 C   0  0  0  0  0  0  0  0  0  0  0  0
  144.5656   76.1693  218.9770 H   0  0  0  0  0  0  0  0  0  0  0  0
  143.9229   75.2561  217.5643 H   0  0  0  0  0  0  0  0  0  0  0  0
  1  2  1  0
  2  3  2  0
  3  4  1  0
  3  5  1  0
  5  6  1  0
  5  7  2  0
  7  8  1  0
  8  9  2  0
  9 10  1  0
  8 11  1  0
 11 12  1  0
 11 13  1  0
 11 14  1  0
 14 15  1  0
 15 16  1  0
 16 17  2  0
 17 18  1  0
 18 19  1  0
 19 20  1  0
 19 21  1  0
 19 22  1  0
 22 23  1  0
 22 24  1  0
 22 25  1  0
 25 26  1  0
 25 27  1  0
 25 28  1  0
 28 29  1  0
 28 30  1  0
 28 31  1  0
 31 32  1  0
 31 33  1  0
 17 34  1  0
 34 35  1  0
 34 36  1  0
 36 37  2  0
 37 38  1  0
 37 39  1  0
 39 40  1  0
 39 41  1  0
 39 42  1  0
 42 43  1  1
 42 44  1  0
 44 45  1  0
 44 46  1  0
 44 47  1  0
 47 48  1  0
 47 49  1  0
 49 50  1  0
 49 51  1  0
 49 52  1  0
 52 53  1  0
 52 54  1  0
 36 55  1  0
 14 56  1  0
 56 57  1  0
 56 58  1  0
 56 59  1  0
 59 60  1  0
 59 61  1  0
  9  2  1  0
 55 15  2  0
 59  7  1  0
 31 18  1  0
 52 42  1  0
M  CHG  2  25   1  37   1
M  END
>  <UniqueID>  (80) 
580

>  <SMILES>  (80) 
c1ccc2c(c1)CCN(c1nc(N3CC[NH2+]CC3)[nH]/c(=[NH+]\C[C@H]3CCNC3)n1)C2

>  <Energy>  (80) 
73.55451655840196

>  <Genealogy>  (80) 
c1ccc2c(c1)CCN(c1nc([NH2+]CC3CCNC3)nc(N3CC[NH2+]CC3)n1)C2 (protonated)
c1ccc2c(c1)CCN(c1nc(N3CC[NH2+]CC3)[nH]c(=[NH+]CC3CCNC3)n1)C2 (tautomer)
c1ccc2c(c1)CCN(c1nc(N3CC[NH2+]CC3)[nH]c(=[NH+]C[C@H]3CCNC3)n1)C2 (chirality)
c1ccc2c(c1)CCN(c1nc(N3CC[NH2+]CC3)[nH]/c(=[NH+]\C[C@H]3CCNC3)n1)C2 (cis-trans isomerization)
c1ccc2c(c1)CCN(c1nc(N3CC[NH2+]CC3)[nH]/c(=[NH+]\C[C@H]3CCNC3)n1)C2 (3D coordinates assigned)
c1ccc2c(c1)CCN(c1nc(N3CC[NH2+]CC3)[nH]/c(=[NH+]\C[C@H]3CCNC3)n1)C2 (nonaromatic ring conformer: 73.55451655840196 kcal/mol)

>  <smiles>  (80) 
c1ccc2c(c1)CCN(c1nc(NCC3CCNC3)nc(N3CCNCC3)n1)C2

>  <score_type>  (80) 
oracle

>  <origin>  (80) 
autodockgpu

>  <m_score__min__energy>  (80) 
-8.4900000000000002

>  <m_primary>  (80) 
energy

>  <meeko>  (80) 
{"free_energy": -8.09, "intermolecular_energy": -9.58, "internal_energy": -0.97, "cluster_size": 19, "cluster_id": 2, "rank_in_cluster": 14}

>  <energy>  (80) 
-7.91

>  <cluster_rmsd>  (80) 
0.84

>  <rmsd>  (80) 
270.2

>  <cluster>  (80) 
2

$$$$
