
     RDKit          3D

 59 62  0  0  0  0  0  0  0  0999 V2000
  134.1400   83.8270  228.3150 C   0  0  0  0  0  0  0  0  0  0  0  0
  133.2350   83.9370  227.2860 O   0  0  0  0  0  0  0  0  0  0  0  0
  133.1560   82.8380  226.4850 C   0  0  0  0  0  0  0  0  0  0  0  0
  133.7080   81.5520  226.8820 C   0  0  1  0  0  0  0  0  0  0  0  0
  132.9150   80.4020  227.1050 N   0  0  0  0  0  0  0  0  0  0  0  0
  132.8140   79.6900  228.3110 C   0  0  0  0  0  0  0  0  0  0  0  0
  133.5050   80.1470  229.2910 O   0  0  0  0  0  0  0  0  0  0  0  0
  132.0200   78.4920  228.5810 C   0  0  0  0  0  0  0  0  0  0  0  0
  132.4720   77.2700  228.0130 N   0  0  0  0  0  0  0  0  0  0  0  0
  133.0980   77.1170  226.7490 C   0  0  0  0  0  0  0  0  0  0  0  0
  133.3130   78.0860  225.9840 O   0  0  0  0  0  0  0  0  0  0  0  0
  133.5270   75.7860  226.2830 C   0  0  0  0  0  0  0  0  0  0  0  0
  134.3480   75.6270  225.2050 C   0  0  0  0  0  0  0  0  0  0  0  0
  134.7770   74.4060  224.7270 C   0  0  0  0  0  0  0  0  0  0  0  0
  134.3400   73.2550  225.3940 C   0  0  0  0  0  0  0  0  0  0  0  0
  134.7500   72.0170  224.9430 C   0  0  0  0  0  0  0  0  0  0  0  0
  134.3120   70.8810  225.6140 C   0  0  0  0  0  0  0  0  0  0  0  0
  134.7330   69.6810  225.1460 F   0  0  0  0  0  0  0  0  0  0  0  0
  133.4770   71.0050  226.7140 C   0  0  0  0  0  0  0  0  0  0  0  0
  133.0760   72.2730  227.1510 C   0  0  0  0  0  0  0  0  0  0  0  0
  133.5110   73.4230  226.4860 C   0  0  0  0  0  0  0  0  0  0  0  0
  133.1180   74.6540  226.9130 N   0  0  0  0  0  0  0  0  0  0  0  0
  134.9590   81.2000  226.0850 C   0  0  0  0  0  0  0  0  0  0  0  0
  134.8800   80.4730  224.9190 C   0  0  0  0  0  0  0  0  0  0  0  0
  136.0040   80.1490  224.1910 C   0  0  0  0  0  0  0  0  0  0  0  0
  137.2250   80.5690  224.6560 C   0  0  0  0  0  0  0  0  0  0  0  0
  138.4490   80.2630  223.9350 C   0  0  0  0  0  0  0  0  0  0  0  0
  139.4040   81.2570  223.7710 C   0  0  0  0  0  0  0  0  0  0  0  0
  140.5800   80.9790  223.0850 C   0  0  0  0  0  0  0  0  0  0  0  0
  140.7990   79.7350  222.5710 C   0  0  0  0  0  0  0  0  0  0  0  0
  142.0380   79.3550  221.8190 C   0  0  0  0  0  0  0  0  0  0  0  0
  142.2400   80.2370  220.7810 F   0  0  0  0  0  0  0  0  0  0  0  0
  143.1060   79.4400  222.7050 F   0  0  0  0  0  0  0  0  0  0  0  0
  141.8470   78.0780  221.3540 F   0  0  0  0  0  0  0  0  0  0  0  0
  139.8800   78.7650  222.7240 N   0  0  0  0  0  0  0  0  0  0  0  0
  138.7390   79.0360  223.3920 C   0  0  0  0  0  0  0  0  0  0  0  0
  137.3140   81.2780  225.7900 N   0  0  0  0  0  0  0  0  0  0  0  0
  136.2050   81.6020  226.5150 C   0  0  0  0  0  0  0  0  0  0  0  0
  133.6108   83.8913  229.2772 H   0  0  0  0  0  0  0  0  0  0  0  0
  134.6583   82.8593  228.2456 H   0  0  0  0  0  0  0  0  0  0  0  0
  134.8750   84.6424  228.2456 H   0  0  0  0  0  0  0  0  0  0  0  0
  132.0850   82.6690  226.2994 H   0  0  0  0  0  0  0  0  0  0  0  0
  133.8074   83.1185  225.6441 H   0  0  0  0  0  0  0  0  0  0  0  0
  133.9045   81.8150  227.9319 H   0  0  0  0  0  0  0  0  0  0  0  0
  132.3460   80.0330  226.2830 H   0  0  0  0  0  0  0  0  0  0  0  0
  131.9860   78.3568  229.6721 H   0  0  0  0  0  0  0  0  0  0  0  0
  131.0477   78.6834  228.1034 H   0  0  0  0  0  0  0  0  0  0  0  0
  132.3470   76.3600  228.5580 H   0  0  0  0  0  0  0  0  0  0  0  0
  134.6906   76.5323  224.6824 H   0  0  0  0  0  0  0  0  0  0  0  0
  135.4398   74.3390  223.8517 H   0  0  0  0  0  0  0  0  0  0  0  0
  135.4115   71.9306  224.0683 H   0  0  0  0  0  0  0  0  0  0  0  0
  133.1293   70.1059  227.2439 H   0  0  0  0  0  0  0  0  0  0  0  0
  132.4136   72.3651  228.0243 H   0  0  0  0  0  0  0  0  0  0  0  0
  133.8945   80.1423  224.5592 H   0  0  0  0  0  0  0  0  0  0  0  0
  135.9247   79.5682  223.2602 H   0  0  0  0  0  0  0  0  0  0  0  0
  139.2303   82.2620  224.1830 H   0  0  0  0  0  0  0  0  0  0  0  0
  141.3377   81.7659  222.9560 H   0  0  0  0  0  0  0  0  0  0  0  0
  138.0005   78.2290  223.5077 H   0  0  0  0  0  0  0  0  0  0  0  0
  136.3052   82.1842  227.4429 H   0  0  0  0  0  0  0  0  0  0  0  0
  1  2  1  0
  2  3  1  0
  3  4  1  0
  4  5  1  0
  5  6  1  0
  6  7  2  0
  6  8  1  0
  8  9  1  0
  9 10  1  0
 10 11  2  0
 10 12  1  0
 12 13  2  0
 13 14  1  0
 14 15  2  0
 15 16  1  0
 16 17  2  0
 17 18  1  0
 17 19  1  0
 19 20  2  0
 20 21  1  0
 21 22  2  0
  4 23  1  0
 23 24  2  0
 24 25  1  0
 25 26  2  0
 26 27  1  0
 27 28  2  0
 28 29  1  0
 29 30  2  0
 30 31  1  0
 31 32  1  0
 31 33  1  0
 31 34  1  0
 30 35  1  0
 35 36  2  0
 26 37  1  0
 37 38  2  0
 22 12  1  0
 38 23  1  0
 21 15  1  0
 36 27  1  0
  1 39  1  0
  1 40  1  0
  1 41  1  0
  3 42  1  0
  3 43  1  0
  4 44  1  1
  5 45  1  0
  8 46  1  0
  8 47  1  0
  9 48  1  0
 13 49  1  0
 14 50  1  0
 16 51  1  0
 19 52  1  0
 20 53  1  0
 24 54  1  0
 25 55  1  0
 28 56  1  0
 29 57  1  0
 36 58  1  0
 38 59  1  0
M  END
>  <smiles>  (1) 
COC[C@@H](NC(=O)CNC(=O)c1ccc2cc(F)ccc2n1)c1ccc(-c2ccc(C(F)(F)F)nc2)nc1

>  <score_type>  (1) 
oracle

>  <origin>  (1) 
autodockgpu

>  <m_score__min__energy>  (1) 
-8.4199999999999999

>  <m_primary>  (1) 
energy

>  <meeko>  (1) 
{"free_energy": -5.83, "intermolecular_energy": -8.52, "internal_energy": -2.69, "cluster_size": 1, "cluster_id": 8, "rank_in_cluster": 1}

>  <energy>  (1) 
-8.42

>  <cluster_rmsd>  (1) 
0.0

>  <rmsd>  (1) 
272.31

>  <cluster>  (1) 
1

$$$$

     RDKit          3D

 59 62  0  0  0  0  0  0  0  0999 V2000
  144.5610   73.4730  220.0640 C   0  0  0  0  0  0  0  0  0  0  0  0
  144.0290   74.5060  220.7970 O   0  0  0  0  0  0  0  0  0  0  0  0
  143.0580   75.2120  220.1540 C   0  0  0  0  0  0  0  0  0  0  0  0
  141.6450   74.9100  220.3210 C   0  0  1  0  0  0  0  0  0  0  0  0
  141.1640   73.6400  220.7210 N   0  0  0  0  0  0  0  0  0  0  0  0
  140.7470   72.6090  219.8630 C   0  0  0  0  0  0  0  0  0  0  0  0
  140.8280   72.8580  218.6070 O   0  0  0  0  0  0  0  0  0  0  0  0
  140.2320   71.2910  220.2320 C   0  0  0  0  0  0  0  0  0  0  0  0
  140.3710   70.8930  221.5900 N   0  0  0  0  0  0  0  0  0  0  0  0
  140.0660   71.6850  222.7270 C   0  0  0  0  0  0  0  0  0  0  0  0
  139.6340   72.8580  222.6340 O   0  0  0  0  0  0  0  0  0  0  0  0
  140.2500   71.1430  224.0860 C   0  0  0  0  0  0  0  0  0  0  0  0
  140.7480   71.9020  225.1050 C   0  0  0  0  0  0  0  0  0  0  0  0
  140.9410   71.4440  226.3920 C   0  0  0  0  0  0  0  0  0  0  0  0
  140.6020   70.1140  226.6700 C   0  0  0  0  0  0  0  0  0  0  0  0
  140.7820   69.6240  227.9460 C   0  0  0  0  0  0  0  0  0  0  0  0
  140.4410   68.3030  228.2110 C   0  0  0  0  0  0  0  0  0  0  0  0
  140.6290   67.8520  229.4740 F   0  0  0  0  0  0  0  0  0  0  0  0
  139.9310   67.5030  227.1990 C   0  0  0  0  0  0  0  0  0  0  0  0
  139.7590   68.0250  225.9110 C   0  0  0  0  0  0  0  0  0  0  0  0
  140.0970   69.3530  225.6330 C   0  0  0  0  0  0  0  0  0  0  0  0
  139.9280   69.8570  224.3810 N   0  0  0  0  0  0  0  0  0  0  0  0
  140.9090   76.0220  221.0590 C   0  0  0  0  0  0  0  0  0  0  0  0
  141.4390   77.2890  221.1520 C   0  0  0  0  0  0  0  0  0  0  0  0
  140.7810   78.3020  221.8160 C   0  0  0  0  0  0  0  0  0  0  0  0
  139.5690   78.0210  222.3950 C   0  0  0  0  0  0  0  0  0  0  0  0
  138.8230   79.0440  223.1080 C   0  0  0  0  0  0  0  0  0  0  0  0
  139.5160   80.0210  223.8090 C   0  0  0  0  0  0  0  0  0  0  0  0
  138.8170   81.0070  224.4960 C   0  0  0  0  0  0  0  0  0  0  0  0
  137.4530   81.0170  224.4840 C   0  0  0  0  0  0  0  0  0  0  0  0
  136.6260   82.0420  225.1990 C   0  0  0  0  0  0  0  0  0  0  0  0
  137.2060   82.3470  226.4090 F   0  0  0  0  0  0  0  0  0  0  0  0
  136.6000   83.1830  224.4050 F   0  0  0  0  0  0  0  0  0  0  0  0
  135.3780   81.4990  225.3700 F   0  0  0  0  0  0  0  0  0  0  0  0
  136.7730   80.0750  223.8080 N   0  0  0  0  0  0  0  0  0  0  0  0
  137.4530   79.1200  223.1410 C   0  0  0  0  0  0  0  0  0  0  0  0
  139.0430   76.7910  222.3120 N   0  0  0  0  0  0  0  0  0  0  0  0
  139.6880   75.7850  221.6550 C   0  0  0  0  0  0  0  0  0  0  0  0
  144.9563   72.7054  220.7455 H   0  0  0  0  0  0  0  0  0  0  0  0
  143.7778   73.0320  219.4298 H   0  0  0  0  0  0  0  0  0  0  0  0
  145.3748   73.8545  219.4298 H   0  0  0  0  0  0  0  0  0  0  0  0
  143.1866   76.2608  220.4598 H   0  0  0  0  0  0  0  0  0  0  0  0
  143.2299   74.9357  219.1032 H   0  0  0  0  0  0  0  0  0  0  0  0
  141.4007   74.8441  219.2505 H   0  0  0  0  0  0  0  0  0  0  0  0
  141.1020   73.4470  221.7670 H   0  0  0  0  0  0  0  0  0  0  0  0
  139.1587   71.2766  219.9917 H   0  0  0  0  0  0  0  0  0  0  0  0
  140.8482   70.5782  219.6645 H   0  0  0  0  0  0  0  0  0  0  0  0
  140.7350   69.9160  221.8150 H   0  0  0  0  0  0  0  0  0  0  0  0
  141.0128   72.9469  224.8859 H   0  0  0  0  0  0  0  0  0  0  0  0
  141.3478   72.1019  227.1741 H   0  0  0  0  0  0  0  0  0  0  0  0
  141.1884   70.2673  228.7404 H   0  0  0  0  0  0  0  0  0  0  0  0
  139.6614   66.4573  227.4085 H   0  0  0  0  0  0  0  0  0  0  0  0
  139.3551   67.3857  225.1122 H   0  0  0  0  0  0  0  0  0  0  0  0
  142.4124   77.4984  220.6845 H   0  0  0  0  0  0  0  0  0  0  0  0
  141.2164   79.3101  221.8801 H   0  0  0  0  0  0  0  0  0  0  0  0
  140.6159   80.0152  223.8210 H   0  0  0  0  0  0  0  0  0  0  0  0
  139.3658   81.7819  225.0513 H   0  0  0  0  0  0  0  0  0  0  0  0
  136.8774   78.3596  222.5929 H   0  0  0  0  0  0  0  0  0  0  0  0
  139.2344   74.7844  221.6004 H   0  0  0  0  0  0  0  0  0  0  0  0
  1  2  1  0
  2  3  1  0
  3  4  1  0
  4  5  1  0
  5  6  1  0
  6  7  2  0
  6  8  1  0
  8  9  1  0
  9 10  1  0
 10 11  2  0
 10 12  1  0
 12 13  2  0
 13 14  1  0
 14 15  2  0
 15 16  1  0
 16 17  2  0
 17 18  1  0
 17 19  1  0
 19 20  2  0
 20 21  1  0
 21 22  2  0
  4 23  1  0
 23 24  2  0
 24 25  1  0
 25 26  2  0
 26 27  1  0
 27 28  2  0
 28 29  1  0
 29 30  2  0
 30 31  1  0
 31 32  1  0
 31 33  1  0
 31 34  1  0
 30 35  1  0
 35 36  2  0
 26 37  1  0
 37 38  2  0
 22 12  1  0
 38 23  1  0
 21 15  1  0
 36 27  1  0
  1 39  1  0
  1 40  1  0
  1 41  1  0
  3 42  1  0
  3 43  1  0
  4 44  1  6
  5 45  1  0
  8 46  1  0
  8 47  1  0
  9 48  1  0
 13 49  1  0
 14 50  1  0
 16 51  1  0
 19 52  1  0
 20 53  1  0
 24 54  1  0
 25 55  1  0
 28 56  1  0
 29 57  1  0
 36 58  1  0
 38 59  1  0
M  END
>  <smiles>  (2) 
COC[C@@H](NC(=O)CNC(=O)c1ccc2cc(F)ccc2n1)c1ccc(-c2ccc(C(F)(F)F)nc2)nc1

>  <score_type>  (2) 
oracle

>  <origin>  (2) 
autodockgpu

>  <m_score__min__energy>  (2) 
-8.4199999999999999

>  <m_primary>  (2) 
energy

>  <meeko>  (2) 
{"free_energy": -7.47, "intermolecular_energy": -10.15, "internal_energy": -2.44, "cluster_size": 3, "cluster_id": 3, "rank_in_cluster": 3}

>  <energy>  (2) 
-7.84

>  <cluster_rmsd>  (2) 
1.3

>  <rmsd>  (2) 
272.06

>  <cluster>  (2) 
1

$$$$

     RDKit          3D

 59 62  0  0  0  0  0  0  0  0999 V2000
  139.8600   67.6200  226.0350 C   0  0  0  0  0  0  0  0  0  0  0  0
  138.8610   67.8460  225.1180 O   0  0  0  0  0  0  0  0  0  0  0  0
  138.1330   68.9740  225.3450 C   0  0  0  0  0  0  0  0  0  0  0  0
  137.4410   69.6750  224.2740 C   0  0  1  0  0  0  0  0  0  0  0  0
  136.1390   70.2100  224.4110 N   0  0  0  0  0  0  0  0  0  0  0  0
  135.0270   69.5480  224.9560 C   0  0  0  0  0  0  0  0  0  0  0  0
  135.2360   68.3520  225.3720 O   0  0  0  0  0  0  0  0  0  0  0  0
  133.6640   70.0570  225.1030 C   0  0  0  0  0  0  0  0  0  0  0  0
  133.5140   71.3950  225.5560 N   0  0  0  0  0  0  0  0  0  0  0  0
  134.1520   72.5390  225.0090 C   0  0  0  0  0  0  0  0  0  0  0  0
  134.9450   72.4680  224.0410 O   0  0  0  0  0  0  0  0  0  0  0  0
  133.8990   73.8770  225.5720 C   0  0  0  0  0  0  0  0  0  0  0  0
  134.6220   74.9700  225.1910 C   0  0  0  0  0  0  0  0  0  0  0  0
  134.4270   76.2430  225.6870 C   0  0  0  0  0  0  0  0  0  0  0  0
  133.4220   76.4230  226.6450 C   0  0  0  0  0  0  0  0  0  0  0  0
  133.2000   77.6820  227.1630 C   0  0  0  0  0  0  0  0  0  0  0  0
  132.1990   77.8500  228.1120 C   0  0  0  0  0  0  0  0  0  0  0  0
  132.0060   79.0990  228.6000 F   0  0  0  0  0  0  0  0  0  0  0  0
  131.4440   76.7610  228.5230 C   0  0  0  0  0  0  0  0  0  0  0  0
  131.6900   75.4930  227.9820 C   0  0  0  0  0  0  0  0  0  0  0  0
  132.6940   75.3120  227.0260 C   0  0  0  0  0  0  0  0  0  0  0  0
  132.9300   74.0790  226.5020 N   0  0  0  0  0  0  0  0  0  0  0  0
  138.3570   70.6580  223.5550 C   0  0  0  0  0  0  0  0  0  0  0  0
  139.6450   70.8800  223.9840 C   0  0  0  0  0  0  0  0  0  0  0  0
  140.4810   71.7660  223.3400 C   0  0  0  0  0  0  0  0  0  0  0  0
  139.9980   72.4380  222.2450 C   0  0  0  0  0  0  0  0  0  0  0  0
  140.8280   73.3850  221.5200 C   0  0  0  0  0  0  0  0  0  0  0  0
  140.4730   74.7270  221.5120 C   0  0  0  0  0  0  0  0  0  0  0  0
  141.2570   75.6450  220.8240 C   0  0  0  0  0  0  0  0  0  0  0  0
  142.3720   75.2330  220.1560 C   0  0  0  0  0  0  0  0  0  0  0  0
  143.2690   76.1580  219.3900 C   0  0  0  0  0  0  0  0  0  0  0  0
  144.4360   76.3610  220.0900 F   0  0  0  0  0  0  0  0  0  0  0  0
  143.5640   75.5430  218.1790 F   0  0  0  0  0  0  0  0  0  0  0  0
  142.5810   77.3330  219.2230 F   0  0  0  0  0  0  0  0  0  0  0  0
  142.7250   73.9360  220.1580 N   0  0  0  0  0  0  0  0  0  0  0  0
  141.9630   73.0450  220.8270 C   0  0  0  0  0  0  0  0  0  0  0  0
  138.7450   72.2310  221.8170 N   0  0  0  0  0  0  0  0  0  0  0  0
  137.9130   71.3540  222.4500 C   0  0  0  0  0  0  0  0  0  0  0  0
  139.4517   67.7124  227.0522 H   0  0  0  0  0  0  0  0  0  0  0  0
  140.2656   66.6074  225.8932 H   0  0  0  0  0  0  0  0  0  0  0  0
  140.6620   68.3594  225.8932 H   0  0  0  0  0  0  0  0  0  0  0  0
  137.3630   68.7002  226.0813 H   0  0  0  0  0  0  0  0  0  0  0  0
  138.9116   69.6975  225.6285 H   0  0  0  0  0  0  0  0  0  0  0  0
  137.1845   68.7850  223.6806 H   0  0  0  0  0  0  0  0  0  0  0  0
  135.9790   71.2040  224.0610 H   0  0  0  0  0  0  0  0  0  0  0  0
  133.1762   69.9843  224.1198 H   0  0  0  0  0  0  0  0  0  0  0  0
  133.2153   69.4387  225.8944 H   0  0  0  0  0  0  0  0  0  0  0  0
  132.8690   71.6010  226.3810 H   0  0  0  0  0  0  0  0  0  0  0  0
  135.4121   74.8269  224.4391 H   0  0  0  0  0  0  0  0  0  0  0  0
  135.0406   77.0879  225.3412 H   0  0  0  0  0  0  0  0  0  0  0  0
  133.8050   78.5384  226.8305 H   0  0  0  0  0  0  0  0  0  0  0  0
  130.6516   76.8937  229.2743 H   0  0  0  0  0  0  0  0  0  0  0  0
  131.0888   74.6329  228.3117 H   0  0  0  0  0  0  0  0  0  0  0  0
  140.0174   70.3358  224.8644 H   0  0  0  0  0  0  0  0  0  0  0  0
  141.5093   71.9305  223.6944 H   0  0  0  0  0  0  0  0  0  0  0  0
  139.5735   75.0627  222.0488 H   0  0  0  0  0  0  0  0  0  0  0  0
  140.9769   76.7087  220.8182 H   0  0  0  0  0  0  0  0  0  0  0  0
  142.2684   71.9883  220.8162 H   0  0  0  0  0  0  0  0  0  0  0  0
  136.8886   71.2021  222.0792 H   0  0  0  0  0  0  0  0  0  0  0  0
  1  2  1  0
  2  3  1  0
  3  4  1  0
  4  5  1  0
  5  6  1  0
  6  7  2  0
  6  8  1  0
  8  9  1  0
  9 10  1  0
 10 11  2  0
 10 12  1  0
 12 13  2  0
 13 14  1  0
 14 15  2  0
 15 16  1  0
 16 17  2  0
 17 18  1  0
 17 19  1  0
 19 20  2  0
 20 21  1  0
 21 22  2  0
  4 23  1  0
 23 24  2  0
 24 25  1  0
 25 26  2  0
 26 27  1  0
 27 28  2  0
 28 29  1  0
 29 30  2  0
 30 31  1  0
 31 32  1  0
 31 33  1  0
 31 34  1  0
 30 35  1  0
 35 36  2  0
 26 37  1  0
 37 38  2  0
 22 12  1  0
 38 23  1  0
 21 15  1  0
 36 27  1  0
  1 39  1  0
  1 40  1  0
  1 41  1  0
  3 42  1  0
  3 43  1  0
  4 44  1  6
  5 45  1  0
  8 46  1  0
  8 47  1  0
  9 48  1  0
 13 49  1  0
 14 50  1  0
 16 51  1  0
 19 52  1  0
 20 53  1  0
 24 54  1  0
 25 55  1  0
 28 56  1  0
 29 57  1  0
 36 58  1  0
 38 59  1  0
M  END
>  <smiles>  (3) 
COC[C@@H](NC(=O)CNC(=O)c1ccc2cc(F)ccc2n1)c1ccc(-c2ccc(C(F)(F)F)nc2)nc1

>  <score_type>  (3) 
oracle

>  <origin>  (3) 
autodockgpu

>  <m_score__min__energy>  (3) 
-8.4199999999999999

>  <m_primary>  (3) 
energy

>  <meeko>  (3) 
{"free_energy": -6.78, "intermolecular_energy": -9.47, "internal_energy": -2.49, "cluster_size": 3, "cluster_id": 5, "rank_in_cluster": 3}

>  <energy>  (3) 
-7.75

>  <cluster_rmsd>  (3) 
1.17

>  <rmsd>  (3) 
271.88

>  <cluster>  (3) 
1

$$$$

     RDKit          3D

 59 62  0  0  0  0  0  0  0  0999 V2000
  139.9740   67.4530  226.1780 C   0  0  0  0  0  0  0  0  0  0  0  0
  138.9290   67.7500  225.3350 O   0  0  0  0  0  0  0  0  0  0  0  0
  138.2640   68.8980  225.6450 C   0  0  0  0  0  0  0  0  0  0  0  0
  137.4640   69.6150  224.6650 C   0  0  1  0  0  0  0  0  0  0  0  0
  136.1880   70.1550  224.9500 N   0  0  0  0  0  0  0  0  0  0  0  0
  134.9840   69.4350  225.0220 C   0  0  0  0  0  0  0  0  0  0  0  0
  135.0740   68.1720  224.8180 O   0  0  0  0  0  0  0  0  0  0  0  0
  133.6450   69.9540  225.2990 C   0  0  0  0  0  0  0  0  0  0  0  0
  133.5460   71.3050  225.7300 N   0  0  0  0  0  0  0  0  0  0  0  0
  134.1790   72.4230  225.1280 C   0  0  0  0  0  0  0  0  0  0  0  0
  134.9200   72.3150  224.1220 O   0  0  0  0  0  0  0  0  0  0  0  0
  133.9830   73.7770  225.6740 C   0  0  0  0  0  0  0  0  0  0  0  0
  134.7760   74.8260  225.3090 C   0  0  0  0  0  0  0  0  0  0  0  0
  134.6370   76.1110  225.7910 C   0  0  0  0  0  0  0  0  0  0  0  0
  133.6140   76.3540  226.7160 C   0  0  0  0  0  0  0  0  0  0  0  0
  133.4460   77.6280  227.2180 C   0  0  0  0  0  0  0  0  0  0  0  0
  132.4260   77.8570  228.1340 C   0  0  0  0  0  0  0  0  0  0  0  0
  132.2880   79.1190  228.6080 F   0  0  0  0  0  0  0  0  0  0  0  0
  131.6010   76.8140  228.5280 C   0  0  0  0  0  0  0  0  0  0  0  0
  131.7930   75.5310  228.0030 C   0  0  0  0  0  0  0  0  0  0  0  0
  132.8140   75.2870  227.0800 C   0  0  0  0  0  0  0  0  0  0  0  0
  132.9980   74.0390  226.5720 N   0  0  0  0  0  0  0  0  0  0  0  0
  138.3010   70.6030  223.8610 C   0  0  0  0  0  0  0  0  0  0  0  0
  137.9140   71.0090  222.6040 C   0  0  0  0  0  0  0  0  0  0  0  0
  138.6630   71.9020  221.8690 C   0  0  0  0  0  0  0  0  0  0  0  0
  139.8230   72.3870  222.4200 C   0  0  0  0  0  0  0  0  0  0  0  0
  140.6580   73.3320  221.6990 C   0  0  0  0  0  0  0  0  0  0  0  0
  141.5970   72.8530  220.7950 C   0  0  0  0  0  0  0  0  0  0  0  0
  142.4020   73.7450  220.0970 C   0  0  0  0  0  0  0  0  0  0  0  0
  142.2750   75.0890  220.2960 C   0  0  0  0  0  0  0  0  0  0  0  0
  143.1040   76.1150  219.5860 C   0  0  0  0  0  0  0  0  0  0  0  0
  144.3320   76.2250  220.1990 F   0  0  0  0  0  0  0  0  0  0  0  0
  143.2830   75.6740  218.2800 F   0  0  0  0  0  0  0  0  0  0  0  0
  142.4130   77.2980  219.6460 F   0  0  0  0  0  0  0  0  0  0  0  0
  141.3680   75.5620  221.1700 N   0  0  0  0  0  0  0  0  0  0  0  0
  140.5860   74.6960  221.8460 C   0  0  0  0  0  0  0  0  0  0  0  0
  140.2110   71.9990  223.6430 N   0  0  0  0  0  0  0  0  0  0  0  0
  139.4740   71.1160  224.3750 C   0  0  0  0  0  0  0  0  0  0  0  0
  139.6411   67.5476  227.2221 H   0  0  0  0  0  0  0  0  0  0  0  0
  140.3129   66.4230  225.9931 H   0  0  0  0  0  0  0  0  0  0  0  0
  140.8040   68.1508  225.9931 H   0  0  0  0  0  0  0  0  0  0  0  0
  137.5841   68.6459  226.4721 H   0  0  0  0  0  0  0  0  0  0  0  0
  139.0903   69.6010  225.8267 H   0  0  0  0  0  0  0  0  0  0  0  0
  137.1399   68.7329  224.0933 H   0  0  0  0  0  0  0  0  0  0  0  0
  136.1270   71.2060  225.1170 H   0  0  0  0  0  0  0  0  0  0  0  0
  133.0556   69.8578  224.3752 H   0  0  0  0  0  0  0  0  0  0  0  0
  133.2817   69.3587  226.1497 H   0  0  0  0  0  0  0  0  0  0  0  0
  132.9480   71.5410  226.5820 H   0  0  0  0  0  0  0  0  0  0  0  0
  135.5792   74.6341  224.5823 H   0  0  0  0  0  0  0  0  0  0  0  0
  135.3073   76.9179  225.4598 H   0  0  0  0  0  0  0  0  0  0  0  0
  134.1070   78.4474  226.8992 H   0  0  0  0  0  0  0  0  0  0  0  0
  130.7948   76.9955  229.2540 H   0  0  0  0  0  0  0  0  0  0  0  0
  131.1352   74.7080  228.3192 H   0  0  0  0  0  0  0  0  0  0  0  0
  136.9828   70.6103  222.1752 H   0  0  0  0  0  0  0  0  0  0  0  0
  138.3396   72.2182  220.8663 H   0  0  0  0  0  0  0  0  0  0  0  0
  141.7033   71.7704  220.6319 H   0  0  0  0  0  0  0  0  0  0  0  0
  143.1454   73.3658  219.3804 H   0  0  0  0  0  0  0  0  0  0  0  0
  139.8499   75.1042  222.5541 H   0  0  0  0  0  0  0  0  0  0  0  0
  139.8148   70.8125  225.3759 H   0  0  0  0  0  0  0  0  0  0  0  0
  1  2  1  0
  2  3  1  0
  3  4  1  0
  4  5  1  0
  5  6  1  0
  6  7  2  0
  6  8  1  0
  8  9  1  0
  9 10  1  0
 10 11  2  0
 10 12  1  0
 12 13  2  0
 13 14  1  0
 14 15  2  0
 15 16  1  0
 16 17  2  0
 17 18  1  0
 17 19  1  0
 19 20  2  0
 20 21  1  0
 21 22  2  0
  4 23  1  0
 23 24  2  0
 24 25  1  0
 25 26  2  0
 26 27  1  0
 27 28  2  0
 28 29  1  0
 29 30  2  0
 30 31  1  0
 31 32  1  0
 31 33  1  0
 31 34  1  0
 30 35  1  0
 35 36  2  0
 26 37  1  0
 37 38  2  0
 22 12  1  0
 38 23  1  0
 21 15  1  0
 36 27  1  0
  1 39  1  0
  1 40  1  0
  1 41  1  0
  3 42  1  0
  3 43  1  0
  4 44  1  6
  5 45  1  0
  8 46  1  0
  8 47  1  0
  9 48  1  0
 13 49  1  0
 14 50  1  0
 16 51  1  0
 19 52  1  0
 20 53  1  0
 24 54  1  0
 25 55  1  0
 28 56  1  0
 29 57  1  0
 36 58  1  0
 38 59  1  0
M  END
>  <smiles>  (4) 
COC[C@@H](NC(=O)CNC(=O)c1ccc2cc(F)ccc2n1)c1ccc(-c2ccc(C(F)(F)F)nc2)nc1

>  <score_type>  (4) 
oracle

>  <origin>  (4) 
autodockgpu

>  <m_score__min__energy>  (4) 
-8.4199999999999999

>  <m_primary>  (4) 
energy

>  <meeko>  (4) 
{"free_energy": -6.86, "intermolecular_energy": -9.55, "internal_energy": -2.52, "cluster_size": 3, "cluster_id": 5, "rank_in_cluster": 2}

>  <energy>  (4) 
-7.5

>  <cluster_rmsd>  (4) 
1.2

>  <rmsd>  (4) 
271.84

>  <cluster>  (4) 
1

$$$$

     RDKit          3D

 59 62  0  0  0  0  0  0  0  0999 V2000
  146.0990   73.0500  221.6020 C   0  0  0  0  0  0  0  0  0  0  0  0
  145.1520   72.9980  220.6070 O   0  0  0  0  0  0  0  0  0  0  0  0
  144.4300   74.1430  220.4560 C   0  0  0  0  0  0  0  0  0  0  0  0
  143.0000   74.1240  220.1910 C   0  0  1  0  0  0  0  0  0  0  0  0
  142.1400   73.0960  220.6440 N   0  0  0  0  0  0  0  0  0  0  0  0
  141.1730   72.4290  219.8730 C   0  0  0  0  0  0  0  0  0  0  0  0
  141.0860   72.7950  218.6460 O   0  0  0  0  0  0  0  0  0  0  0  0
  140.2560   71.3740  220.3020 C   0  0  0  0  0  0  0  0  0  0  0  0
  140.3410   70.9490  221.6560 N   0  0  0  0  0  0  0  0  0  0  0  0
  140.3680   71.7930  222.7960 C   0  0  0  0  0  0  0  0  0  0  0  0
  140.3250   73.0430  222.7090 O   0  0  0  0  0  0  0  0  0  0  0  0
  140.4480   71.2170  224.1510 C   0  0  0  0  0  0  0  0  0  0  0  0
  140.9410   71.9250  225.2090 C   0  0  0  0  0  0  0  0  0  0  0  0
  141.0400   71.4330  226.4940 C   0  0  0  0  0  0  0  0  0  0  0  0
  140.6050   70.1230  226.7270 C   0  0  0  0  0  0  0  0  0  0  0  0
  140.6890   69.6000  228.0010 C   0  0  0  0  0  0  0  0  0  0  0  0
  140.2540   68.2980  228.2200 C   0  0  0  0  0  0  0  0  0  0  0  0
  140.3490   67.8140  229.4820 F   0  0  0  0  0  0  0  0  0  0  0  0
  139.7470   67.5500  227.1680 C   0  0  0  0  0  0  0  0  0  0  0  0
  139.6730   68.1050  225.8850 C   0  0  0  0  0  0  0  0  0  0  0  0
  140.1060   69.4130  225.6510 C   0  0  0  0  0  0  0  0  0  0  0  0
  140.0330   69.9490  224.4030 N   0  0  0  0  0  0  0  0  0  0  0  0
  142.3640   75.4930  220.4040 C   0  0  0  0  0  0  0  0  0  0  0  0
  141.3840   75.6850  221.3510 C   0  0  0  0  0  0  0  0  0  0  0  0
  140.8030   76.9180  221.5520 C   0  0  0  0  0  0  0  0  0  0  0  0
  141.2230   77.9690  220.7770 C   0  0  0  0  0  0  0  0  0  0  0  0
  140.6520   79.2960  220.9390 C   0  0  0  0  0  0  0  0  0  0  0  0
  141.4550   80.3240  221.4150 C   0  0  0  0  0  0  0  0  0  0  0  0
  140.9230   81.5980  221.5740 C   0  0  0  0  0  0  0  0  0  0  0  0
  139.6180   81.8430  221.2650 C   0  0  0  0  0  0  0  0  0  0  0  0
  138.9690   83.1860  221.4090 C   0  0  0  0  0  0  0  0  0  0  0  0
  139.9350   84.1530  221.5810 F   0  0  0  0  0  0  0  0  0  0  0  0
  138.2730   83.4400  220.2340 F   0  0  0  0  0  0  0  0  0  0  0  0
  138.1400   83.1140  222.5000 F   0  0  0  0  0  0  0  0  0  0  0  0
  138.8320   80.8540  220.8030 N   0  0  0  0  0  0  0  0  0  0  0  0
  139.3500   79.6180  220.6480 C   0  0  0  0  0  0  0  0  0  0  0  0
  142.1760   77.7950  219.8510 N   0  0  0  0  0  0  0  0  0  0  0  0
  142.7560   76.5770  219.6490 C   0  0  0  0  0  0  0  0  0  0  0  0
  145.6020   73.0227  222.5830 H   0  0  0  0  0  0  0  0  0  0  0  0
  146.7756   72.1877  221.5096 H   0  0  0  0  0  0  0  0  0  0  0  0
  146.6771   73.9812  221.5096 H   0  0  0  0  0  0  0  0  0  0  0  0
  144.5631   74.7156  221.3857 H   0  0  0  0  0  0  0  0  0  0  0  0
  144.8333   74.5477  219.5160 H   0  0  0  0  0  0  0  0  0  0  0  0
  143.0688   73.8209  219.1358 H   0  0  0  0  0  0  0  0  0  0  0  0
  142.2230   72.8020  221.6650 H   0  0  0  0  0  0  0  0  0  0  0  0
  139.2316   71.7374  220.1331 H   0  0  0  0  0  0  0  0  0  0  0  0
  140.5422   70.4922  219.7100 H   0  0  0  0  0  0  0  0  0  0  0  0
  140.3880   69.9060  221.8760 H   0  0  0  0  0  0  0  0  0  0  0  0
  141.2814   72.9547  225.0249 H   0  0  0  0  0  0  0  0  0  0  0  0
  141.4473   72.0497  227.3087 H   0  0  0  0  0  0  0  0  0  0  0  0
  141.0928   70.2022  228.8282 H   0  0  0  0  0  0  0  0  0  0  0  0
  139.4027   66.5198  227.3419 H   0  0  0  0  0  0  0  0  0  0  0  0
  139.2708   67.5067  225.0542 H   0  0  0  0  0  0  0  0  0  0  0  0
  141.0561   74.8320  221.9633 H   0  0  0  0  0  0  0  0  0  0  0  0
  140.0223   77.0561  222.3145 H   0  0  0  0  0  0  0  0  0  0  0  0
  142.5085   80.1306  221.6653 H   0  0  0  0  0  0  0  0  0  0  0  0
  141.5582   82.4130  221.9512 H   0  0  0  0  0  0  0  0  0  0  0  0
  138.6917   78.8234  220.2669 H   0  0  0  0  0  0  0  0  0  0  0  0
  143.5369   76.4601  218.8831 H   0  0  0  0  0  0  0  0  0  0  0  0
  1  2  1  0
  2  3  1  0
  3  4  1  0
  4  5  1  0
  5  6  1  0
  6  7  2  0
  6  8  1  0
  8  9  1  0
  9 10  1  0
 10 11  2  0
 10 12  1  0
 12 13  2  0
 13 14  1  0
 14 15  2  0
 15 16  1  0
 16 17  2  0
 17 18  1  0
 17 19  1  0
 19 20  2  0
 20 21  1  0
 21 22  2  0
  4 23  1  0
 23 24  2  0
 24 25  1  0
 25 26  2  0
 26 27  1  0
 27 28  2  0
 28 29  1  0
 29 30  2  0
 30 31  1  0
 31 32  1  0
 31 33  1  0
 31 34  1  0
 30 35  1  0
 35 36  2  0
 26 37  1  0
 37 38  2  0
 22 12  1  0
 38 23  1  0
 21 15  1  0
 36 27  1  0
  1 39  1  0
  1 40  1  0
  1 41  1  0
  3 42  1  0
  3 43  1  0
  4 44  1  6
  5 45  1  0
  8 46  1  0
  8 47  1  0
  9 48  1  0
 13 49  1  0
 14 50  1  0
 16 51  1  0
 19 52  1  0
 20 53  1  0
 24 54  1  0
 25 55  1  0
 28 56  1  0
 29 57  1  0
 36 58  1  0
 38 59  1  0
M  END
>  <smiles>  (5) 
COC[C@@H](NC(=O)CNC(=O)c1ccc2cc(F)ccc2n1)c1ccc(-c2ccc(C(F)(F)F)nc2)nc1

>  <score_type>  (5) 
oracle

>  <origin>  (5) 
autodockgpu

>  <m_score__min__energy>  (5) 
-8.4199999999999999

>  <m_primary>  (5) 
energy

>  <meeko>  (5) 
{"free_energy": -7.48, "intermolecular_energy": -10.16, "internal_energy": -2.63, "cluster_size": 6, "cluster_id": 2, "rank_in_cluster": 5}

>  <energy>  (5) 
-7.83

>  <cluster_rmsd>  (5) 
0.0

>  <rmsd>  (5) 
271.18

>  <cluster>  (5) 
2

$$$$

     RDKit          3D

 59 62  0  0  0  0  0  0  0  0999 V2000
  146.0660   73.3590  221.5800 C   0  0  0  0  0  0  0  0  0  0  0  0
  144.8940   72.7400  221.2140 O   0  0  0  0  0  0  0  0  0  0  0  0
  144.3690   73.1790  220.0360 C   0  0  0  0  0  0  0  0  0  0  0  0
  142.9430   73.4100  219.8650 C   0  0  1  0  0  0  0  0  0  0  0  0
  141.9480   72.5690  220.4200 N   0  0  0  0  0  0  0  0  0  0  0  0
  140.6450   72.3960  219.9260 C   0  0  0  0  0  0  0  0  0  0  0  0
  140.3540   73.0620  218.8680 O   0  0  0  0  0  0  0  0  0  0  0  0
  139.5840   71.5520  220.4740 C   0  0  0  0  0  0  0  0  0  0  0  0
  139.7410   71.0920  221.8090 N   0  0  0  0  0  0  0  0  0  0  0  0
  140.3320   71.8160  222.8780 C   0  0  0  0  0  0  0  0  0  0  0  0
  140.7950   72.9720  222.7320 O   0  0  0  0  0  0  0  0  0  0  0  0
  140.4250   71.2210  224.2230 C   0  0  0  0  0  0  0  0  0  0  0  0
  140.9700   71.8970  225.2760 C   0  0  0  0  0  0  0  0  0  0  0  0
  141.0810   71.3870  226.5530 C   0  0  0  0  0  0  0  0  0  0  0  0
  140.6030   70.0910  226.7820 C   0  0  0  0  0  0  0  0  0  0  0  0
  140.6990   69.5500  228.0470 C   0  0  0  0  0  0  0  0  0  0  0  0
  140.2200   68.2630  228.2630 C   0  0  0  0  0  0  0  0  0  0  0  0
  140.3280   67.7600  229.5170 F   0  0  0  0  0  0  0  0  0  0  0  0
  139.6600   67.5470  227.2160 C   0  0  0  0  0  0  0  0  0  0  0  0
  139.5750   68.1200  225.9410 C   0  0  0  0  0  0  0  0  0  0  0  0
  140.0520   69.4130  225.7110 C   0  0  0  0  0  0  0  0  0  0  0  0
  139.9680   69.9670  224.4710 N   0  0  0  0  0  0  0  0  0  0  0  0
  142.5770   74.8770  220.0550 C   0  0  0  0  0  0  0  0  0  0  0  0
  141.6670   75.2680  221.0100 C   0  0  0  0  0  0  0  0  0  0  0  0
  141.3300   76.5920  221.1900 C   0  0  0  0  0  0  0  0  0  0  0  0
  141.9260   77.5300  220.3870 C   0  0  0  0  0  0  0  0  0  0  0  0
  141.6160   78.9430  220.5250 C   0  0  0  0  0  0  0  0  0  0  0  0
  141.1900   79.6550  219.4130 C   0  0  0  0  0  0  0  0  0  0  0  0
  140.8890   81.0060  219.5300 C   0  0  0  0  0  0  0  0  0  0  0  0
  141.0110   81.6370  220.7330 C   0  0  0  0  0  0  0  0  0  0  0  0
  140.7080   83.0890  220.9430 C   0  0  0  0  0  0  0  0  0  0  0  0
  139.4020   83.2380  221.3510 F   0  0  0  0  0  0  0  0  0  0  0  0
  141.5550   83.5500  221.9440 F   0  0  0  0  0  0  0  0  0  0  0  0
  140.9280   83.7200  219.7440 F   0  0  0  0  0  0  0  0  0  0  0  0
  141.4240   80.9560  221.8170 N   0  0  0  0  0  0  0  0  0  0  0  0
  141.7150   79.6440  221.7020 C   0  0  0  0  0  0  0  0  0  0  0  0
  142.8140   77.1620  219.4530 N   0  0  0  0  0  0  0  0  0  0  0  0
  143.1520   75.8540  219.2700 C   0  0  0  0  0  0  0  0  0  0  0  0
  146.1344   73.3951  222.6773 H   0  0  0  0  0  0  0  0  0  0  0  0
  146.9200   72.7943  221.1778 H   0  0  0  0  0  0  0  0  0  0  0  0
  146.0811   74.3827  221.1778 H   0  0  0  0  0  0  0  0  0  0  0  0
  144.8643   74.1363  219.8162 H   0  0  0  0  0  0  0  0  0  0  0  0
  144.5447   72.3204  219.3712 H   0  0  0  0  0  0  0  0  0  0  0  0
  142.8814   73.0647  218.8224 H   0  0  0  0  0  0  0  0  0  0  0  0
  142.2040   72.0220  221.2980 H   0  0  0  0  0  0  0  0  0  0  0  0
  138.6481   72.1283  220.4311 H   0  0  0  0  0  0  0  0  0  0  0  0
  139.6013   70.6410  219.8577 H   0  0  0  0  0  0  0  0  0  0  0  0
  139.3950   70.1180  222.0740 H   0  0  0  0  0  0  0  0  0  0  0  0
  141.3453   72.9150  225.0946 H   0  0  0  0  0  0  0  0  0  0  0  0
  141.5300   71.9788  227.3643 H   0  0  0  0  0  0  0  0  0  0  0  0
  141.1465   70.1264  228.8701 H   0  0  0  0  0  0  0  0  0  0  0  0
  139.2822   66.5281  227.3870 H   0  0  0  0  0  0  0  0  0  0  0  0
  139.1292   67.5477  225.1141 H   0  0  0  0  0  0  0  0  0  0  0  0
  141.1963   74.5040  221.6462 H   0  0  0  0  0  0  0  0  0  0  0  0
  140.6012   76.8889  221.9586 H   0  0  0  0  0  0  0  0  0  0  0  0
  141.0908   79.1506  218.4405 H   0  0  0  0  0  0  0  0  0  0  0  0
  140.5506   81.5697  218.6481 H   0  0  0  0  0  0  0  0  0  0  0  0
  142.0502   79.1055  222.6007 H   0  0  0  0  0  0  0  0  0  0  0  0
  143.8834   75.5780  218.4961 H   0  0  0  0  0  0  0  0  0  0  0  0
  1  2  1  0
  2  3  1  0
  3  4  1  0
  4  5  1  0
  5  6  1  0
  6  7  2  0
  6  8  1  0
  8  9  1  0
  9 10  1  0
 10 11  2  0
 10 12  1  0
 12 13  2  0
 13 14  1  0
 14 15  2  0
 15 16  1  0
 16 17  2  0
 17 18  1  0
 17 19  1  0
 19 20  2  0
 20 21  1  0
 21 22  2  0
  4 23  1  0
 23 24  2  0
 24 25  1  0
 25 26  2  0
 26 27  1  0
 27 28  2  0
 28 29  1  0
 29 30  2  0
 30 31  1  0
 31 32  1  0
 31 33  1  0
 31 34  1  0
 30 35  1  0
 35 36  2  0
 26 37  1  0
 37 38  2  0
 22 12  1  0
 38 23  1  0
 21 15  1  0
 36 27  1  0
  1 39  1  0
  1 40  1  0
  1 41  1  0
  3 42  1  0
  3 43  1  0
  4 44  1  6
  5 45  1  0
  8 46  1  0
  8 47  1  0
  9 48  1  0
 13 49  1  0
 14 50  1  0
 16 51  1  0
 19 52  1  0
 20 53  1  0
 24 54  1  0
 25 55  1  0
 28 56  1  0
 29 57  1  0
 36 58  1  0
 38 59  1  0
M  END
>  <smiles>  (6) 
COC[C@@H](NC(=O)CNC(=O)c1ccc2cc(F)ccc2n1)c1ccc(-c2ccc(C(F)(F)F)nc2)nc1

>  <score_type>  (6) 
oracle

>  <origin>  (6) 
autodockgpu

>  <m_score__min__energy>  (6) 
-8.4199999999999999

>  <m_primary>  (6) 
energy

>  <meeko>  (6) 
{"free_energy": -7.6, "intermolecular_energy": -10.29, "internal_energy": -2.72, "cluster_size": 6, "cluster_id": 2, "rank_in_cluster": 4}

>  <energy>  (6) 
-7.81

>  <cluster_rmsd>  (6) 
0.45

>  <rmsd>  (6) 
271.26

>  <cluster>  (6) 
2

$$$$

     RDKit          3D

 59 62  0  0  0  0  0  0  0  0999 V2000
  139.6720   67.8380  226.5340 C   0  0  0  0  0  0  0  0  0  0  0  0
  138.8260   67.8290  225.4500 O   0  0  0  0  0  0  0  0  0  0  0  0
  137.9470   68.8680  225.4130 C   0  0  0  0  0  0  0  0  0  0  0  0
  137.3830   69.3580  224.1650 C   0  0  1  0  0  0  0  0  0  0  0  0
  136.0400   69.7820  224.0330 N   0  0  0  0  0  0  0  0  0  0  0  0
  134.9200   69.1730  224.6230 C   0  0  0  0  0  0  0  0  0  0  0  0
  135.1620   68.1460  225.3530 O   0  0  0  0  0  0  0  0  0  0  0  0
  133.5180   69.5680  224.5030 C   0  0  0  0  0  0  0  0  0  0  0  0
  133.1000   70.7170  225.2270 N   0  0  0  0  0  0  0  0  0  0  0  0
  133.8320   71.9240  225.3730 C   0  0  0  0  0  0  0  0  0  0  0  0
  134.9640   72.0900  224.8610 O   0  0  0  0  0  0  0  0  0  0  0  0
  133.2750   73.0480  226.1470 C   0  0  0  0  0  0  0  0  0  0  0  0
  132.1620   72.9090  226.9240 C   0  0  0  0  0  0  0  0  0  0  0  0
  131.6000   73.9270  227.6660 C   0  0  0  0  0  0  0  0  0  0  0  0
  132.2130   75.1850  227.6180 C   0  0  0  0  0  0  0  0  0  0  0  0
  131.6780   76.2250  228.3490 C   0  0  0  0  0  0  0  0  0  0  0  0
  132.2960   77.4690  228.2950 C   0  0  0  0  0  0  0  0  0  0  0  0
  131.7460   78.4700  229.0240 F   0  0  0  0  0  0  0  0  0  0  0  0
  133.4300   77.6460  227.5160 C   0  0  0  0  0  0  0  0  0  0  0  0
  133.9530   76.5730  226.7840 C   0  0  0  0  0  0  0  0  0  0  0  0
  133.3410   75.3170  226.8310 C   0  0  0  0  0  0  0  0  0  0  0  0
  133.8520   74.2770  226.1180 N   0  0  0  0  0  0  0  0  0  0  0  0
  138.3260   70.3220  223.4540 C   0  0  0  0  0  0  0  0  0  0  0  0
  138.3700   70.3950  222.0800 C   0  0  0  0  0  0  0  0  0  0  0  0
  139.2180   71.2640  221.4280 C   0  0  0  0  0  0  0  0  0  0  0  0
  140.0330   72.0680  222.1840 C   0  0  0  0  0  0  0  0  0  0  0  0
  140.9490   73.0080  221.5600 C   0  0  0  0  0  0  0  0  0  0  0  0
  140.6740   74.3670  221.6250 C   0  0  0  0  0  0  0  0  0  0  0  0
  141.5410   75.2770  221.0340 C   0  0  0  0  0  0  0  0  0  0  0  0
  142.6610   74.8410  220.3880 C   0  0  0  0  0  0  0  0  0  0  0  0
  143.6440   75.7560  219.7240 C   0  0  0  0  0  0  0  0  0  0  0  0
  143.1560   77.0430  219.7260 F   0  0  0  0  0  0  0  0  0  0  0  0
  144.8190   75.7130  220.4650 F   0  0  0  0  0  0  0  0  0  0  0  0
  143.8180   75.2940  218.4440 F   0  0  0  0  0  0  0  0  0  0  0  0
  142.9360   73.5270  220.3190 N   0  0  0  0  0  0  0  0  0  0  0  0
  142.0940   72.6440  220.8950 C   0  0  0  0  0  0  0  0  0  0  0  0
  139.9990   72.0070  223.5230 N   0  0  0  0  0  0  0  0  0  0  0  0
  139.1620   71.1500  224.1740 C   0  0  0  0  0  0  0  0  0  0  0  0
  139.0801   67.8317  227.4611 H   0  0  0  0  0  0  0  0  0  0  0  0
  140.3159   66.9466  226.5040 H   0  0  0  0  0  0  0  0  0  0  0  0
  140.2968   68.7428  226.5040 H   0  0  0  0  0  0  0  0  0  0  0  0
  137.0937   68.5716  226.0408 H   0  0  0  0  0  0  0  0  0  0  0  0
  138.5761   69.7132  225.7290 H   0  0  0  0  0  0  0  0  0  0  0  0
  137.2894   68.3782  223.6739 H   0  0  0  0  0  0  0  0  0  0  0  0
  135.8530   70.6360  223.4230 H   0  0  0  0  0  0  0  0  0  0  0  0
  133.3183   69.7578  223.4381 H   0  0  0  0  0  0  0  0  0  0  0  0
  132.9513   68.7348  224.9442 H   0  0  0  0  0  0  0  0  0  0  0  0
  132.1530   70.7120  225.7190 H   0  0  0  0  0  0  0  0  0  0  0  0
  131.6814   71.9203  226.9611 H   0  0  0  0  0  0  0  0  0  0  0  0
  130.7002   73.7562  228.2752 H   0  0  0  0  0  0  0  0  0  0  0  0
  130.7785   76.0728  228.9636 H   0  0  0  0  0  0  0  0  0  0  0  0
  133.9190   78.6304  227.4733 H   0  0  0  0  0  0  0  0  0  0  0  0
  134.8521   76.7195  226.1674 H   0  0  0  0  0  0  0  0  0  0  0  0
  137.7114   69.7430  221.4873 H   0  0  0  0  0  0  0  0  0  0  0  0
  139.2408   71.3117  220.3293 H   0  0  0  0  0  0  0  0  0  0  0  0
  139.7713   74.7225  222.1435 H   0  0  0  0  0  0  0  0  0  0  0  0
  141.3238   76.3540  221.0870 H   0  0  0  0  0  0  0  0  0  0  0  0
  142.3382   71.5735  220.8282 H   0  0  0  0  0  0  0  0  0  0  0  0
  139.1533   71.1188  225.2735 H   0  0  0  0  0  0  0  0  0  0  0  0
  1  2  1  0
  2  3  1  0
  3  4  1  0
  4  5  1  0
  5  6  1  0
  6  7  2  0
  6  8  1  0
  8  9  1  0
  9 10  1  0
 10 11  2  0
 10 12  1  0
 12 13  2  0
 13 14  1  0
 14 15  2  0
 15 16  1  0
 16 17  2  0
 17 18  1  0
 17 19  1  0
 19 20  2  0
 20 21  1  0
 21 22  2  0
  4 23  1  0
 23 24  2  0
 24 25  1  0
 25 26  2  0
 26 27  1  0
 27 28  2  0
 28 29  1  0
 29 30  2  0
 30 31  1  0
 31 32  1  0
 31 33  1  0
 31 34  1  0
 30 35  1  0
 35 36  2  0
 26 37  1  0
 37 38  2  0
 22 12  1  0
 38 23  1  0
 21 15  1  0
 36 27  1  0
  1 39  1  0
  1 40  1  0
  1 41  1  0
  3 42  1  0
  3 43  1  0
  4 44  1  6
  5 45  1  0
  8 46  1  0
  8 47  1  0
  9 48  1  0
 13 49  1  0
 14 50  1  0
 16 51  1  0
 19 52  1  0
 20 53  1  0
 24 54  1  0
 25 55  1  0
 28 56  1  0
 29 57  1  0
 36 58  1  0
 38 59  1  0
M  END
>  <smiles>  (7) 
COC[C@@H](NC(=O)CNC(=O)c1ccc2cc(F)ccc2n1)c1ccc(-c2ccc(C(F)(F)F)nc2)nc1

>  <score_type>  (7) 
oracle

>  <origin>  (7) 
autodockgpu

>  <m_score__min__energy>  (7) 
-8.4199999999999999

>  <m_primary>  (7) 
energy

>  <meeko>  (7) 
{"free_energy": -6.88, "intermolecular_energy": -9.56, "internal_energy": -2.05, "cluster_size": 3, "cluster_id": 5, "rank_in_cluster": 1}

>  <energy>  (7) 
-7.71

>  <cluster_rmsd>  (7) 
0.73

>  <rmsd>  (7) 
271.29

>  <cluster>  (7) 
2

$$$$

     RDKit          3D

 59 62  0  0  0  0  0  0  0  0999 V2000
  141.7930   80.5300  219.8210 C   0  0  0  0  0  0  0  0  0  0  0  0
  142.2110   79.8340  220.9300 O   0  0  0  0  0  0  0  0  0  0  0  0
  141.7580   78.5510  220.9920 C   0  0  0  0  0  0  0  0  0  0  0  0
  140.3500   78.2210  220.8450 C   0  0  1  0  0  0  0  0  0  0  0  0
  139.8820   76.9110  220.5820 N   0  0  0  0  0  0  0  0  0  0  0  0
  139.8070   75.8590  221.5090 C   0  0  0  0  0  0  0  0  0  0  0  0
  140.1930   76.1350  222.7010 O   0  0  0  0  0  0  0  0  0  0  0  0
  139.3450   74.4920  221.2770 C   0  0  0  0  0  0  0  0  0  0  0  0
  139.4820   73.5670  222.3480 N   0  0  0  0  0  0  0  0  0  0  0  0
  139.5450   72.1540  222.2290 C   0  0  0  0  0  0  0  0  0  0  0  0
  139.4750   71.5690  221.1230 O   0  0  0  0  0  0  0  0  0  0  0  0
  139.6970   71.3090  223.4270 C   0  0  0  0  0  0  0  0  0  0  0  0
  139.3280   69.9950  223.4360 C   0  0  0  0  0  0  0  0  0  0  0  0
  139.4470   69.1620  224.5290 C   0  0  0  0  0  0  0  0  0  0  0  0
  139.9830   69.7010  225.7050 C   0  0  0  0  0  0  0  0  0  0  0  0
  140.1170   68.8950  226.8170 C   0  0  0  0  0  0  0  0  0  0  0  0
  140.6510   69.4400  227.9780 C   0  0  0  0  0  0  0  0  0  0  0  0
  140.7690   68.6230  229.0520 F   0  0  0  0  0  0  0  0  0  0  0  0
  141.0370   70.7720  228.0050 C   0  0  0  0  0  0  0  0  0  0  0  0
  140.8900   71.5680  226.8620 C   0  0  0  0  0  0  0  0  0  0  0  0
  140.3560   71.0310  225.6880 C   0  0  0  0  0  0  0  0  0  0  0  0
  140.2140   71.8070  224.5790 N   0  0  0  0  0  0  0  0  0  0  0  0
  139.4930   78.8960  221.9090 C   0  0  0  0  0  0  0  0  0  0  0  0
  140.0650   79.5620  222.9690 C   0  0  0  0  0  0  0  0  0  0  0  0
  139.2990   80.1760  223.9370 C   0  0  0  0  0  0  0  0  0  0  0  0
  137.9330   80.1100  223.8250 C   0  0  0  0  0  0  0  0  0  0  0  0
  137.0680   80.7380  224.8090 C   0  0  0  0  0  0  0  0  0  0  0  0
  137.6170   81.6280  225.7220 C   0  0  0  0  0  0  0  0  0  0  0  0
  136.8020   82.2360  226.6690 C   0  0  0  0  0  0  0  0  0  0  0  0
  135.4670   81.9630  226.7060 C   0  0  0  0  0  0  0  0  0  0  0  0
  134.5220   82.5750  227.6950 C   0  0  0  0  0  0  0  0  0  0  0  0
  134.7700   83.9250  227.8020 F   0  0  0  0  0  0  0  0  0  0  0  0
  133.2330   82.3850  227.2110 F   0  0  0  0  0  0  0  0  0  0  0  0
  134.7280   81.9370  228.8920 F   0  0  0  0  0  0  0  0  0  0  0  0
  134.9260   81.1020  225.8260 N   0  0  0  0  0  0  0  0  0  0  0  0
  135.7170   80.5130  224.9060 C   0  0  0  0  0  0  0  0  0  0  0  0
  137.3640   79.4650  222.7970 N   0  0  0  0  0  0  0  0  0  0  0  0
  138.1170   78.8550  221.8360 C   0  0  0  0  0  0  0  0  0  0  0  0
  141.2506   81.4331  220.1378 H   0  0  0  0  0  0  0  0  0  0  0  0
  142.6669   80.8194  219.2188 H   0  0  0  0  0  0  0  0  0  0  0  0
  141.1269   79.8946  219.2188 H   0  0  0  0  0  0  0  0  0  0  0  0
  142.2872   77.9996  220.2009 H   0  0  0  0  0  0  0  0  0  0  0  0
  141.9463   78.2914  222.0442 H   0  0  0  0  0  0  0  0  0  0  0  0
  140.2256   78.6409  219.8359 H   0  0  0  0  0  0  0  0  0  0  0  0
  139.5650   76.6960  219.5870 H   0  0  0  0  0  0  0  0  0  0  0  0
  138.2768   74.5434  221.0193 H   0  0  0  0  0  0  0  0  0  0  0  0
  139.9995   74.1036  220.4828 H   0  0  0  0  0  0  0  0  0  0  0  0
  139.5480   73.9300  223.3490 H   0  0  0  0  0  0  0  0  0  0  0  0
  138.9082   69.5726  222.5111 H   0  0  0  0  0  0  0  0  0  0  0  0
  139.1314   68.1095  224.4785 H   0  0  0  0  0  0  0  0  0  0  0  0
  139.8067   67.8402  226.7848 H   0  0  0  0  0  0  0  0  0  0  0  0
  141.4589   71.2035  228.9247 H   0  0  0  0  0  0  0  0  0  0  0  0
  141.1973   72.6239  226.8889 H   0  0  0  0  0  0  0  0  0  0  0  0
  141.1615   79.6055  223.0458 H   0  0  0  0  0  0  0  0  0  0  0  0
  139.7709   80.7054  224.7778 H   0  0  0  0  0  0  0  0  0  0  0  0
  138.6938   81.8512  225.6958 H   0  0  0  0  0  0  0  0  0  0  0  0
  137.2364   82.9414  227.3927 H   0  0  0  0  0  0  0  0  0  0  0  0
  135.2542   79.8137  224.1940 H   0  0  0  0  0  0  0  0  0  0  0  0
  137.6259   78.3306  221.0031 H   0  0  0  0  0  0  0  0  0  0  0  0
  1  2  1  0
  2  3  1  0
  3  4  1  0
  4  5  1  0
  5  6  1  0
  6  7  2  0
  6  8  1  0
  8  9  1  0
  9 10  1  0
 10 11  2  0
 10 12  1  0
 12 13  2  0
 13 14  1  0
 14 15  2  0
 15 16  1  0
 16 17  2  0
 17 18  1  0
 17 19  1  0
 19 20  2  0
 20 21  1  0
 21 22  2  0
  4 23  1  0
 23 24  2  0
 24 25  1  0
 25 26  2  0
 26 27  1  0
 27 28  2  0
 28 29  1  0
 29 30  2  0
 30 31  1  0
 31 32  1  0
 31 33  1  0
 31 34  1  0
 30 35  1  0
 35 36  2  0
 26 37  1  0
 37 38  2  0
 22 12  1  0
 38 23  1  0
 21 15  1  0
 36 27  1  0
  1 39  1  0
  1 40  1  0
  1 41  1  0
  3 42  1  0
  3 43  1  0
  4 44  1  6
  5 45  1  0
  8 46  1  0
  8 47  1  0
  9 48  1  0
 13 49  1  0
 14 50  1  0
 16 51  1  0
 19 52  1  0
 20 53  1  0
 24 54  1  0
 25 55  1  0
 28 56  1  0
 29 57  1  0
 36 58  1  0
 38 59  1  0
M  END
>  <smiles>  (8) 
COC[C@@H](NC(=O)CNC(=O)c1ccc2cc(F)ccc2n1)c1ccc(-c2ccc(C(F)(F)F)nc2)nc1

>  <score_type>  (8) 
oracle

>  <origin>  (8) 
autodockgpu

>  <m_score__min__energy>  (8) 
-8.4199999999999999

>  <m_primary>  (8) 
energy

>  <meeko>  (8) 
{"free_energy": -7.84, "intermolecular_energy": -10.52, "internal_energy": -2.07, "cluster_size": 4, "cluster_id": 1, "rank_in_cluster": 2}

>  <energy>  (8) 
-7.6

>  <cluster_rmsd>  (8) 
0.66

>  <rmsd>  (8) 
271.24

>  <cluster>  (8) 
2

$$$$

     RDKit          3D

 59 62  0  0  0  0  0  0  0  0999 V2000
  142.9370   76.9410  218.6690 C   0  0  0  0  0  0  0  0  0  0  0  0
  142.7000   76.8140  220.0170 O   0  0  0  0  0  0  0  0  0  0  0  0
  141.8880   77.7750  220.5390 C   0  0  0  0  0  0  0  0  0  0  0  0
  140.4380   77.6840  220.4650 C   0  0  1  0  0  0  0  0  0  0  0  0
  139.7410   76.4560  220.3700 N   0  0  0  0  0  0  0  0  0  0  0  0
  139.7710   75.4140  221.3110 C   0  0  0  0  0  0  0  0  0  0  0  0
  140.4960   75.6190  222.3500 O   0  0  0  0  0  0  0  0  0  0  0  0
  139.0800   74.1270  221.2460 C   0  0  0  0  0  0  0  0  0  0  0  0
  139.2690   73.2300  222.3320 N   0  0  0  0  0  0  0  0  0  0  0  0
  139.1050   71.8210  222.2900 C   0  0  0  0  0  0  0  0  0  0  0  0
  138.7570   71.2160  221.2490 O   0  0  0  0  0  0  0  0  0  0  0  0
  139.3430   71.0040  223.4930 C   0  0  0  0  0  0  0  0  0  0  0  0
  138.9820   69.6900  223.5580 C   0  0  0  0  0  0  0  0  0  0  0  0
  139.1800   68.8820  224.6580 C   0  0  0  0  0  0  0  0  0  0  0  0
  139.7910   69.4500  225.7830 C   0  0  0  0  0  0  0  0  0  0  0  0
  140.0050   68.6710  226.9010 C   0  0  0  0  0  0  0  0  0  0  0  0
  140.6130   69.2450  228.0110 C   0  0  0  0  0  0  0  0  0  0  0  0
  140.8090   68.4540  229.0930 F   0  0  0  0  0  0  0  0  0  0  0  0
  140.9930   70.5790  227.9810 C   0  0  0  0  0  0  0  0  0  0  0  0
  140.7640   71.3480  226.8340 C   0  0  0  0  0  0  0  0  0  0  0  0
  140.1540   70.7820  225.7100 C   0  0  0  0  0  0  0  0  0  0  0  0
  139.9340   71.5320  224.5970 N   0  0  0  0  0  0  0  0  0  0  0  0
  139.7580   78.6150  221.4620 C   0  0  0  0  0  0  0  0  0  0  0  0
  140.4920   79.3890  222.3310 C   0  0  0  0  0  0  0  0  0  0  0  0
  139.8870   80.2340  223.2350 C   0  0  0  0  0  0  0  0  0  0  0  0
  138.5160   80.2910  223.2570 C   0  0  0  0  0  0  0  0  0  0  0  0
  137.8150   81.1620  224.1850 C   0  0  0  0  0  0  0  0  0  0  0  0
  137.2650   82.3470  223.7160 C   0  0  0  0  0  0  0  0  0  0  0  0
  136.5910   83.1900  224.5910 C   0  0  0  0  0  0  0  0  0  0  0  0
  136.4680   82.8590  225.9090 C   0  0  0  0  0  0  0  0  0  0  0  0
  135.7600   83.7120  226.9160 C   0  0  0  0  0  0  0  0  0  0  0  0
  136.5480   84.7910  227.2480 F   0  0  0  0  0  0  0  0  0  0  0  0
  134.5880   84.1690  226.3240 F   0  0  0  0  0  0  0  0  0  0  0  0
  135.5160   82.9210  228.0100 F   0  0  0  0  0  0  0  0  0  0  0  0
  136.9980   81.7130  226.3730 N   0  0  0  0  0  0  0  0  0  0  0  0
  137.6510   80.8950  225.5220 C   0  0  0  0  0  0  0  0  0  0  0  0
  137.7900   79.5420  222.4160 N   0  0  0  0  0  0  0  0  0  0  0  0
  138.3830   78.7040  221.5180 C   0  0  0  0  0  0  0  0  0  0  0  0
  143.8967   77.4553  218.5123 H   0  0  0  0  0  0  0  0  0  0  0  0
  142.9762   75.9430  218.2080 H   0  0  0  0  0  0  0  0  0  0  0  0
  142.1278   77.5263  218.2080 H   0  0  0  0  0  0  0  0  0  0  0  0
  142.1379   77.8416  221.6082 H   0  0  0  0  0  0  0  0  0  0  0  0
  142.0986   78.6345  219.8856 H   0  0  0  0  0  0  0  0  0  0  0  0
  140.3425   78.0034  219.4167 H   0  0  0  0  0  0  0  0  0  0  0  0
  139.1430   76.2990  219.5010 H   0  0  0  0  0  0  0  0  0  0  0  0
  138.0022   74.3340  221.1722 H   0  0  0  0  0  0  0  0  0  0  0  0
  139.5186   73.6146  220.3770 H   0  0  0  0  0  0  0  0  0  0  0  0
  139.5630   73.6130  223.2840 H   0  0  0  0  0  0  0  0  0  0  0  0
  138.5010   69.2454  222.6743 H   0  0  0  0  0  0  0  0  0  0  0  0
  138.8685   67.8270  224.6520 H   0  0  0  0  0  0  0  0  0  0  0  0
  139.6999   67.6142  226.9138 H   0  0  0  0  0  0  0  0  0  0  0  0
  141.4748   71.0329  228.8596 H   0  0  0  0  0  0  0  0  0  0  0  0
  141.0662   72.4055  226.8166 H   0  0  0  0  0  0  0  0  0  0  0  0
  141.5901   79.3315  222.3031 H   0  0  0  0  0  0  0  0  0  0  0  0
  140.4878   80.8478  223.9222 H   0  0  0  0  0  0  0  0  0  0  0  0
  137.3625   82.6180  222.6544 H   0  0  0  0  0  0  0  0  0  0  0  0
  136.1545   84.1288  224.2194 H   0  0  0  0  0  0  0  0  0  0  0  0
  138.0758   79.9622  225.9213 H   0  0  0  0  0  0  0  0  0  0  0  0
  137.7645   78.0992  220.8385 H   0  0  0  0  0  0  0  0  0  0  0  0
  1  2  1  0
  2  3  1  0
  3  4  1  0
  4  5  1  0
  5  6  1  0
  6  7  2  0
  6  8  1  0
  8  9  1  0
  9 10  1  0
 10 11  2  0
 10 12  1  0
 12 13  2  0
 13 14  1  0
 14 15  2  0
 15 16  1  0
 16 17  2  0
 17 18  1  0
 17 19  1  0
 19 20  2  0
 20 21  1  0
 21 22  2  0
  4 23  1  0
 23 24  2  0
 24 25  1  0
 25 26  2  0
 26 27  1  0
 27 28  2  0
 28 29  1  0
 29 30  2  0
 30 31  1  0
 31 32  1  0
 31 33  1  0
 31 34  1  0
 30 35  1  0
 35 36  2  0
 26 37  1  0
 37 38  2  0
 22 12  1  0
 38 23  1  0
 21 15  1  0
 36 27  1  0
  1 39  1  0
  1 40  1  0
  1 41  1  0
  3 42  1  0
  3 43  1  0
  4 44  1  6
  5 45  1  0
  8 46  1  0
  8 47  1  0
  9 48  1  0
 13 49  1  0
 14 50  1  0
 16 51  1  0
 19 52  1  0
 20 53  1  0
 24 54  1  0
 25 55  1  0
 28 56  1  0
 29 57  1  0
 36 58  1  0
 38 59  1  0
M  END
>  <smiles>  (9) 
COC[C@@H](NC(=O)CNC(=O)c1ccc2cc(F)ccc2n1)c1ccc(-c2ccc(C(F)(F)F)nc2)nc1

>  <score_type>  (9) 
oracle

>  <origin>  (9) 
autodockgpu

>  <m_score__min__energy>  (9) 
-8.4199999999999999

>  <m_primary>  (9) 
energy

>  <meeko>  (9) 
{"free_energy": -7.75, "intermolecular_energy": -10.44, "internal_energy": -2.15, "cluster_size": 4, "cluster_id": 1, "rank_in_cluster": 3}

>  <energy>  (9) 
-7.48

>  <cluster_rmsd>  (9) 
1.05

>  <rmsd>  (9) 
271.26

>  <cluster>  (9) 
2

$$$$

     RDKit          3D

 59 62  0  0  0  0  0  0  0  0999 V2000
  142.2340   77.0560  219.8460 C   0  0  0  0  0  0  0  0  0  0  0  0
  142.2100   78.2000  220.6070 O   0  0  0  0  0  0  0  0  0  0  0  0
  141.3120   78.1760  221.6310 C   0  0  0  0  0  0  0  0  0  0  0  0
  139.8760   78.1710  221.3990 C   0  0  1  0  0  0  0  0  0  0  0  0
  139.1320   76.9910  221.1620 N   0  0  0  0  0  0  0  0  0  0  0  0
  139.4740   75.6990  221.5940 C   0  0  0  0  0  0  0  0  0  0  0  0
  140.5590   75.6040  222.2720 O   0  0  0  0  0  0  0  0  0  0  0  0
  138.7440   74.4540  221.3600 C   0  0  0  0  0  0  0  0  0  0  0  0
  138.8510   73.4400  222.3510 N   0  0  0  0  0  0  0  0  0  0  0  0
  140.0040   72.6580  222.6240 C   0  0  0  0  0  0  0  0  0  0  0  0
  141.0740   72.7920  221.9860 O   0  0  0  0  0  0  0  0  0  0  0  0
  139.9810   71.6410  223.6910 C   0  0  0  0  0  0  0  0  0  0  0  0
  139.4240   70.4090  223.5030 C   0  0  0  0  0  0  0  0  0  0  0  0
  139.3750   69.4230  224.4660 C   0  0  0  0  0  0  0  0  0  0  0  0
  139.9350   69.7060  225.7190 C   0  0  0  0  0  0  0  0  0  0  0  0
  139.9040   68.7420  226.7050 C   0  0  0  0  0  0  0  0  0  0  0  0
  140.4640   69.0330  227.9440 C   0  0  0  0  0  0  0  0  0  0  0  0
  140.4180   68.0660  228.8910 F   0  0  0  0  0  0  0  0  0  0  0  0
  141.0390   70.2750  228.1700 C   0  0  0  0  0  0  0  0  0  0  0  0
  141.0570   71.2350  227.1510 C   0  0  0  0  0  0  0  0  0  0  0  0
  140.4990   70.9540  225.9010 C   0  0  0  0  0  0  0  0  0  0  0  0
  140.5180   71.8900  224.9130 N   0  0  0  0  0  0  0  0  0  0  0  0
  139.1400   79.0880  222.3690 C   0  0  0  0  0  0  0  0  0  0  0  0
  137.7650   79.1010  222.4340 C   0  0  0  0  0  0  0  0  0  0  0  0
  137.0900   79.9260  223.3080 C   0  0  0  0  0  0  0  0  0  0  0  0
  137.8230   80.7490  224.1250 C   0  0  0  0  0  0  0  0  0  0  0  0
  137.1730   81.6410  225.0690 C   0  0  0  0  0  0  0  0  0  0  0  0
  137.0580   81.2530  226.3970 C   0  0  0  0  0  0  0  0  0  0  0  0
  136.4400   82.0970  227.3120 C   0  0  0  0  0  0  0  0  0  0  0  0
  135.9460   83.3030  226.9120 C   0  0  0  0  0  0  0  0  0  0  0  0
  135.2660   84.2680  227.8350 C   0  0  0  0  0  0  0  0  0  0  0  0
  134.1890   84.8420  227.1960 F   0  0  0  0  0  0  0  0  0  0  0  0
  134.8130   83.5460  228.9320 F   0  0  0  0  0  0  0  0  0  0  0  0
  136.1980   85.2130  228.1820 F   0  0  0  0  0  0  0  0  0  0  0  0
  136.0520   83.6880  225.6280 N   0  0  0  0  0  0  0  0  0  0  0  0
  136.6540   82.8690  224.7400 C   0  0  0  0  0  0  0  0  0  0  0  0
  139.1630   80.7450  224.0700 N   0  0  0  0  0  0  0  0  0  0  0  0
  139.8370   79.9310  223.2090 C   0  0  0  0  0  0  0  0  0  0  0  0
  142.2524   76.1766  220.5065 H   0  0  0  0  0  0  0  0  0  0  0  0
  141.3364   77.0190  219.2112 H   0  0  0  0  0  0  0  0  0  0  0  0
  143.1323   77.0567  219.2112 H   0  0  0  0  0  0  0  0  0  0  0  0
  141.5328   77.2687  222.2125 H   0  0  0  0  0  0  0  0  0  0  0  0
  141.4666   79.1609  222.0959 H   0  0  0  0  0  0  0  0  0  0  0  0
  139.9113   78.5473  220.3660 H   0  0  0  0  0  0  0  0  0  0  0  0
  138.2330   77.0840  220.5970 H   0  0  0  0  0  0  0  0  0  0  0  0
  137.6785   74.7090  221.2617 H   0  0  0  0  0  0  0  0  0  0  0  0
  139.2057   74.0203  220.4607 H   0  0  0  0  0  0  0  0  0  0  0  0
  138.0090   73.2160  222.9660 H   0  0  0  0  0  0  0  0  0  0  0  0
  138.9854   70.1882  222.5187 H   0  0  0  0  0  0  0  0  0  0  0  0
  138.9119   68.4472  224.2575 H   0  0  0  0  0  0  0  0  0  0  0  0
  139.4446   67.7608  226.5146 H   0  0  0  0  0  0  0  0  0  0  0  0
  141.4811   70.5058  229.1504 H   0  0  0  0  0  0  0  0  0  0  0  0
  141.5141   72.2183  227.3358 H   0  0  0  0  0  0  0  0  0  0  0  0
  137.1906   78.4364  221.7719 H   0  0  0  0  0  0  0  0  0  0  0  0
  135.9908   79.9245  223.3493 H   0  0  0  0  0  0  0  0  0  0  0  0
  137.4548   80.2806  226.7240 H   0  0  0  0  0  0  0  0  0  0  0  0
  136.3490   81.7903  228.3645 H   0  0  0  0  0  0  0  0  0  0  0  0
  136.7333   83.2037  223.6952 H   0  0  0  0  0  0  0  0  0  0  0  0
  140.9366   79.9465  223.1842 H   0  0  0  0  0  0  0  0  0  0  0  0
  1  2  1  0
  2  3  1  0
  3  4  1  0
  4  5  1  0
  5  6  1  0
  6  7  2  0
  6  8  1  0
  8  9  1  0
  9 10  1  0
 10 11  2  0
 10 12  1  0
 12 13  2  0
 13 14  1  0
 14 15  2  0
 15 16  1  0
 16 17  2  0
 17 18  1  0
 17 19  1  0
 19 20  2  0
 20 21  1  0
 21 22  2  0
  4 23  1  0
 23 24  2  0
 24 25  1  0
 25 26  2  0
 26 27  1  0
 27 28  2  0
 28 29  1  0
 29 30  2  0
 30 31  1  0
 31 32  1  0
 31 33  1  0
 31 34  1  0
 30 35  1  0
 35 36  2  0
 26 37  1  0
 37 38  2  0
 22 12  1  0
 38 23  1  0
 21 15  1  0
 36 27  1  0
  1 39  1  0
  1 40  1  0
  1 41  1  0
  3 42  1  0
  3 43  1  0
  4 44  1  6
  5 45  1  0
  8 46  1  0
  8 47  1  0
  9 48  1  0
 13 49  1  0
 14 50  1  0
 16 51  1  0
 19 52  1  0
 20 53  1  0
 24 54  1  0
 25 55  1  0
 28 56  1  0
 29 57  1  0
 36 58  1  0
 38 59  1  0
M  END
>  <smiles>  (10) 
COC[C@@H](NC(=O)CNC(=O)c1ccc2cc(F)ccc2n1)c1ccc(-c2ccc(C(F)(F)F)nc2)nc1

>  <score_type>  (10) 
oracle

>  <origin>  (10) 
autodockgpu

>  <m_score__min__energy>  (10) 
-8.4199999999999999

>  <m_primary>  (10) 
energy

>  <meeko>  (10) 
{"free_energy": -8.42, "intermolecular_energy": -11.11, "internal_energy": -1.42, "cluster_size": 4, "cluster_id": 1, "rank_in_cluster": 1}

>  <energy>  (10) 
-7.21

>  <cluster_rmsd>  (10) 
1.56

>  <rmsd>  (10) 
271.41

>  <cluster>  (10) 
2

$$$$

     RDKit          3D

 59 62  0  0  0  0  0  0  0  0999 V2000
  145.9990   73.3630  221.3860 C   0  0  0  0  0  0  0  0  0  0  0  0
  144.6580   73.1800  221.1460 O   0  0  0  0  0  0  0  0  0  0  0  0
  144.1710   73.8950  220.0940 C   0  0  0  0  0  0  0  0  0  0  0  0
  142.7460   74.1130  219.9030 C   0  0  1  0  0  0  0  0  0  0  0  0
  141.7510   73.2640  220.4430 N   0  0  0  0  0  0  0  0  0  0  0  0
  141.1840   72.1480  219.8070 C   0  0  0  0  0  0  0  0  0  0  0  0
  141.6300   71.8860  218.6330 O   0  0  0  0  0  0  0  0  0  0  0  0
  140.1470   71.2540  220.3210 C   0  0  0  0  0  0  0  0  0  0  0  0
  140.2550   70.8430  221.6770 N   0  0  0  0  0  0  0  0  0  0  0  0
  140.2770   71.6970  222.8100 C   0  0  0  0  0  0  0  0  0  0  0  0
  140.2080   72.9450  222.7130 O   0  0  0  0  0  0  0  0  0  0  0  0
  140.3850   71.1350  224.1680 C   0  0  0  0  0  0  0  0  0  0  0  0
  140.7500   71.8980  225.2390 C   0  0  0  0  0  0  0  0  0  0  0  0
  140.8680   71.4220  226.5290 C   0  0  0  0  0  0  0  0  0  0  0  0
  140.5940   70.0670  226.7520 C   0  0  0  0  0  0  0  0  0  0  0  0
  140.7010   69.5580  228.0300 C   0  0  0  0  0  0  0  0  0  0  0  0
  140.4250   68.2120  228.2390 C   0  0  0  0  0  0  0  0  0  0  0  0
  140.5390   67.7430  229.5050 F   0  0  0  0  0  0  0  0  0  0  0  0
  140.0510   67.4060  227.1740 C   0  0  0  0  0  0  0  0  0  0  0  0
  139.9500   67.9490  225.8870 C   0  0  0  0  0  0  0  0  0  0  0  0
  140.2230   69.3010  225.6630 C   0  0  0  0  0  0  0  0  0  0  0  0
  140.1240   69.8240  224.4110 N   0  0  0  0  0  0  0  0  0  0  0  0
  142.3640   75.5770  220.0890 C   0  0  0  0  0  0  0  0  0  0  0  0
  141.4910   75.9670  221.0770 C   0  0  0  0  0  0  0  0  0  0  0  0
  141.1400   77.2880  221.2530 C   0  0  0  0  0  0  0  0  0  0  0  0
  141.6850   78.2240  220.4110 C   0  0  0  0  0  0  0  0  0  0  0  0
  141.3580   79.6340  220.5440 C   0  0  0  0  0  0  0  0  0  0  0  0
  141.2550   80.1880  221.8120 C   0  0  0  0  0  0  0  0  0  0  0  0
  140.9450   81.5350  221.9550 C   0  0  0  0  0  0  0  0  0  0  0  0
  140.7400   82.3140  220.8550 C   0  0  0  0  0  0  0  0  0  0  0  0
  140.4000   83.7720  220.9230 C   0  0  0  0  0  0  0  0  0  0  0  0
  141.4000   84.4530  221.5790 F   0  0  0  0  0  0  0  0  0  0  0  0
  140.3110   84.2400  219.6170 F   0  0  0  0  0  0  0  0  0  0  0  0
  139.2080   83.8730  221.5940 F   0  0  0  0  0  0  0  0  0  0  0  0
  140.8360   81.7870  219.6210 N   0  0  0  0  0  0  0  0  0  0  0  0
  141.1390   80.4790  219.4840 C   0  0  0  0  0  0  0  0  0  0  0  0
  142.5370   77.8570  219.4440 N   0  0  0  0  0  0  0  0  0  0  0  0
  142.8880   76.5510  219.2650 C   0  0  0  0  0  0  0  0  0  0  0  0
  146.1773   73.3873  222.4712 H   0  0  0  0  0  0  0  0  0  0  0  0
  146.5679   72.5342  220.9394 H   0  0  0  0  0  0  0  0  0  0  0  0
  146.3250   74.3140  220.9394 H   0  0  0  0  0  0  0  0  0  0  0  0
  144.6286   74.8930  220.1621 H   0  0  0  0  0  0  0  0  0  0  0  0
  144.4218   73.2485  219.2401 H   0  0  0  0  0  0  0  0  0  0  0  0
  142.7030   73.7671  218.8597 H   0  0  0  0  0  0  0  0  0  0  0  0
  141.3890   73.4930  221.4190 H   0  0  0  0  0  0  0  0  0  0  0  0
  139.1813   71.7682  220.2074 H   0  0  0  0  0  0  0  0  0  0  0  0
  140.2558   70.3290  219.7358 H   0  0  0  0  0  0  0  0  0  0  0  0
  140.3270   69.8030  221.9060 H   0  0  0  0  0  0  0  0  0  0  0  0
  140.9642   72.9624  225.0624 H   0  0  0  0  0  0  0  0  0  0  0  0
  141.1672   72.0848  227.3543 H   0  0  0  0  0  0  0  0  0  0  0  0
  140.9992   70.2054  228.8678 H   0  0  0  0  0  0  0  0  0  0  0  0
  139.8338   66.3405  227.3402 H   0  0  0  0  0  0  0  0  0  0  0  0
  139.6533   67.3058  225.0454 H   0  0  0  0  0  0  0  0  0  0  0  0
  141.0617   75.2050  221.7441 H   0  0  0  0  0  0  0  0  0  0  0  0
  140.4405   77.5844  222.0485 H   0  0  0  0  0  0  0  0  0  0  0  0
  141.4184   79.5624  222.7019 H   0  0  0  0  0  0  0  0  0  0  0  0
  140.8647   81.9747  222.9601 H   0  0  0  0  0  0  0  0  0  0  0  0
  141.2147   80.0670  218.4669 H   0  0  0  0  0  0  0  0  0  0  0  0
  143.5889   76.2747  218.4635 H   0  0  0  0  0  0  0  0  0  0  0  0
  1  2  1  0
  2  3  1  0
  3  4  1  0
  4  5  1  0
  5  6  1  0
  6  7  2  0
  6  8  1  0
  8  9  1  0
  9 10  1  0
 10 11  2  0
 10 12  1  0
 12 13  2  0
 13 14  1  0
 14 15  2  0
 15 16  1  0
 16 17  2  0
 17 18  1  0
 17 19  1  0
 19 20  2  0
 20 21  1  0
 21 22  2  0
  4 23  1  0
 23 24  2  0
 24 25  1  0
 25 26  2  0
 26 27  1  0
 27 28  2  0
 28 29  1  0
 29 30  2  0
 30 31  1  0
 31 32  1  0
 31 33  1  0
 31 34  1  0
 30 35  1  0
 35 36  2  0
 26 37  1  0
 37 38  2  0
 22 12  1  0
 38 23  1  0
 21 15  1  0
 36 27  1  0
  1 39  1  0
  1 40  1  0
  1 41  1  0
  3 42  1  0
  3 43  1  0
  4 44  1  6
  5 45  1  0
  8 46  1  0
  8 47  1  0
  9 48  1  0
 13 49  1  0
 14 50  1  0
 16 51  1  0
 19 52  1  0
 20 53  1  0
 24 54  1  0
 25 55  1  0
 28 56  1  0
 29 57  1  0
 36 58  1  0
 38 59  1  0
M  END
>  <smiles>  (11) 
COC[C@@H](NC(=O)CNC(=O)c1ccc2cc(F)ccc2n1)c1ccc(-c2ccc(C(F)(F)F)nc2)nc1

>  <score_type>  (11) 
oracle

>  <origin>  (11) 
autodockgpu

>  <m_score__min__energy>  (11) 
-8.4199999999999999

>  <m_primary>  (11) 
energy

>  <meeko>  (11) 
{"free_energy": -7.71, "intermolecular_energy": -10.39, "internal_energy": -2.6, "cluster_size": 6, "cluster_id": 2, "rank_in_cluster": 3}

>  <energy>  (11) 
-7.73

>  <cluster_rmsd>  (11) 
0.0

>  <rmsd>  (11) 
271.45

>  <cluster>  (11) 
3

$$$$

     RDKit          3D

 59 62  0  0  0  0  0  0  0  0999 V2000
  138.4870   75.8120  219.2390 C   0  0  0  0  0  0  0  0  0  0  0  0
  138.6110   74.8800  218.2370 O   0  0  0  0  0  0  0  0  0  0  0  0
  139.0550   73.6610  218.6520 C   0  0  0  0  0  0  0  0  0  0  0  0
  140.3790   73.4760  219.2240 C   0  0  1  0  0  0  0  0  0  0  0  0
  141.3720   74.4850  219.2270 N   0  0  0  0  0  0  0  0  0  0  0  0
  142.7190   74.3160  219.5870 C   0  0  0  0  0  0  0  0  0  0  0  0
  143.0620   73.1280  219.9310 O   0  0  0  0  0  0  0  0  0  0  0  0
  143.7720   75.3300  219.6180 C   0  0  0  0  0  0  0  0  0  0  0  0
  143.3660   76.6870  219.7350 N   0  0  0  0  0  0  0  0  0  0  0  0
  142.5660   77.4030  218.8070 C   0  0  0  0  0  0  0  0  0  0  0  0
  142.1320   76.8830  217.7520 O   0  0  0  0  0  0  0  0  0  0  0  0
  142.2100   78.8110  219.0570 C   0  0  0  0  0  0  0  0  0  0  0  0
  142.1950   79.7410  218.0580 C   0  0  0  0  0  0  0  0  0  0  0  0
  141.8710   81.0700  218.2370 C   0  0  0  0  0  0  0  0  0  0  0  0
  141.5370   81.4910  219.5300 C   0  0  0  0  0  0  0  0  0  0  0  0
  141.2070   82.8130  219.7460 C   0  0  0  0  0  0  0  0  0  0  0  0
  140.8750   83.2190  221.0330 C   0  0  0  0  0  0  0  0  0  0  0  0
  140.5570   84.5240  221.2110 F   0  0  0  0  0  0  0  0  0  0  0  0
  140.8800   82.3010  222.0730 C   0  0  0  0  0  0  0  0  0  0  0  0
  141.2190   80.9650  221.8260 C   0  0  0  0  0  0  0  0  0  0  0  0
  141.5530   80.5440  220.5360 C   0  0  0  0  0  0  0  0  0  0  0  0
  141.8810   79.2450  220.3010 N   0  0  0  0  0  0  0  0  0  0  0  0
  140.3220   72.7710  220.5740 C   0  0  0  0  0  0  0  0  0  0  0  0
  140.1910   71.4030  220.6600 C   0  0  0  0  0  0  0  0  0  0  0  0
  140.1390   70.7560  221.8750 C   0  0  0  0  0  0  0  0  0  0  0  0
  140.2200   71.5100  223.0180 C   0  0  0  0  0  0  0  0  0  0  0  0
  140.1730   70.8900  224.3320 C   0  0  0  0  0  0  0  0  0  0  0  0
  140.7940   71.5210  225.4010 C   0  0  0  0  0  0  0  0  0  0  0  0
  140.7560   70.9410  226.6630 C   0  0  0  0  0  0  0  0  0  0  0  0
  140.1130   69.7530  226.8550 C   0  0  0  0  0  0  0  0  0  0  0  0
  140.0290   69.0620  228.1820 C   0  0  0  0  0  0  0  0  0  0  0  0
  139.1280   69.7170  228.9910 F   0  0  0  0  0  0  0  0  0  0  0  0
  139.5770   67.7680  227.9490 F   0  0  0  0  0  0  0  0  0  0  0  0
  141.2890   69.0830  228.7240 F   0  0  0  0  0  0  0  0  0  0  0  0
  139.5090   69.1340  225.8260 N   0  0  0  0  0  0  0  0  0  0  0  0
  139.5450   69.6990  224.6010 C   0  0  0  0  0  0  0  0  0  0  0  0
  140.3480   72.8430  222.9480 N   0  0  0  0  0  0  0  0  0  0  0  0
  140.4010   73.4890  221.7480 C   0  0  0  0  0  0  0  0  0  0  0  0
  138.5536   75.3110  220.2160 H   0  0  0  0  0  0  0  0  0  0  0  0
  139.2943   76.5540  219.1516 H   0  0  0  0  0  0  0  0  0  0  0  0
  137.5137   76.3171  219.1516 H   0  0  0  0  0  0  0  0  0  0  0  0
  138.3399   73.3159  219.4133 H   0  0  0  0  0  0  0  0  0  0  0  0
  139.1345   73.1095  217.7035 H   0  0  0  0  0  0  0  0  0  0  0  0
  140.7842   72.8556  218.4110 H   0  0  0  0  0  0  0  0  0  0  0  0
  141.0730   75.4660  218.9400 H   0  0  0  0  0  0  0  0  0  0  0  0
  144.4229   75.1046  220.4756 H   0  0  0  0  0  0  0  0  0  0  0  0
  144.2572   75.2640  218.6330 H   0  0  0  0  0  0  0  0  0  0  0  0
  143.6710   77.2540  220.5860 H   0  0  0  0  0  0  0  0  0  0  0  0
  142.4587   79.4088  217.0430 H   0  0  0  0  0  0  0  0  0  0  0  0
  141.8749   81.7750  217.3926 H   0  0  0  0  0  0  0  0  0  0  0  0
  141.2067   83.5330  218.9143 H   0  0  0  0  0  0  0  0  0  0  0  0
  140.6177   82.6226  223.0917 H   0  0  0  0  0  0  0  0  0  0  0  0
  141.2224   80.2410  222.6541 H   0  0  0  0  0  0  0  0  0  0  0  0
  140.1262   70.8116  219.7347 H   0  0  0  0  0  0  0  0  0  0  0  0
  140.0352   69.6622  221.9273 H   0  0  0  0  0  0  0  0  0  0  0  0
  141.3150   72.4779  225.2494 H   0  0  0  0  0  0  0  0  0  0  0  0
  141.2463   71.4417  227.5109 H   0  0  0  0  0  0  0  0  0  0  0  0
  139.0438   69.1768  223.7727 H   0  0  0  0  0  0  0  0  0  0  0  0
  140.5068   74.5835  221.7170 H   0  0  0  0  0  0  0  0  0  0  0  0
  1  2  1  0
  2  3  1  0
  3  4  1  0
  4  5  1  0
  5  6  1  0
  6  7  2  0
  6  8  1  0
  8  9  1  0
  9 10  1  0
 10 11  2  0
 10 12  1  0
 12 13  2  0
 13 14  1  0
 14 15  2  0
 15 16  1  0
 16 17  2  0
 17 18  1  0
 17 19  1  0
 19 20  2  0
 20 21  1  0
 21 22  2  0
  4 23  1  0
 23 24  2  0
 24 25  1  0
 25 26  2  0
 26 27  1  0
 27 28  2  0
 28 29  1  0
 29 30  2  0
 30 31  1  0
 31 32  1  0
 31 33  1  0
 31 34  1  0
 30 35  1  0
 35 36  2  0
 26 37  1  0
 37 38  2  0
 22 12  1  0
 38 23  1  0
 21 15  1  0
 36 27  1  0
  1 39  1  0
  1 40  1  0
  1 41  1  0
  3 42  1  0
  3 43  1  0
  4 44  1  6
  5 45  1  0
  8 46  1  0
  8 47  1  0
  9 48  1  0
 13 49  1  0
 14 50  1  0
 16 51  1  0
 19 52  1  0
 20 53  1  0
 24 54  1  0
 25 55  1  0
 28 56  1  0
 29 57  1  0
 36 58  1  0
 38 59  1  0
M  END
>  <smiles>  (12) 
COC[C@@H](NC(=O)CNC(=O)c1ccc2cc(F)ccc2n1)c1ccc(-c2ccc(C(F)(F)F)nc2)nc1

>  <score_type>  (12) 
oracle

>  <origin>  (12) 
autodockgpu

>  <m_score__min__energy>  (12) 
-8.4199999999999999

>  <m_primary>  (12) 
energy

>  <meeko>  (12) 
{"free_energy": -6.63, "intermolecular_energy": -9.31, "internal_energy": -2.71, "cluster_size": 1, "cluster_id": 6, "rank_in_cluster": 1}

>  <energy>  (12) 
-7.7

>  <cluster_rmsd>  (12) 
0.7

>  <rmsd>  (12) 
271.54

>  <cluster>  (12) 
3

$$$$

     RDKit          3D

 59 62  0  0  0  0  0  0  0  0999 V2000
  144.7630   73.7600  220.8190 C   0  0  0  0  0  0  0  0  0  0  0  0
  143.9590   74.2260  219.8060 O   0  0  0  0  0  0  0  0  0  0  0  0
  143.0730   75.1870  220.1860 C   0  0  0  0  0  0  0  0  0  0  0  0
  141.6550   74.9090  220.3520 C   0  0  1  0  0  0  0  0  0  0  0  0
  141.1530   73.6480  220.7540 N   0  0  0  0  0  0  0  0  0  0  0  0
  140.7320   72.6170  219.8980 C   0  0  0  0  0  0  0  0  0  0  0  0
  140.8290   72.8570  218.6420 O   0  0  0  0  0  0  0  0  0  0  0  0
  140.1950   71.3090  220.2700 C   0  0  0  0  0  0  0  0  0  0  0  0
  140.3550   70.8980  221.6210 N   0  0  0  0  0  0  0  0  0  0  0  0
  140.0880   71.6860  222.7700 C   0  0  0  0  0  0  0  0  0  0  0  0
  139.6770   72.8680  222.6950 O   0  0  0  0  0  0  0  0  0  0  0  0
  140.2900   71.1310  224.1210 C   0  0  0  0  0  0  0  0  0  0  0  0
  140.7290   71.8990  225.1600 C   0  0  0  0  0  0  0  0  0  0  0  0
  140.9360   71.4300  226.4410 C   0  0  0  0  0  0  0  0  0  0  0  0
  140.6770   70.0770  226.6890 C   0  0  0  0  0  0  0  0  0  0  0  0
  140.8720   69.5740  227.9590 C   0  0  0  0  0  0  0  0  0  0  0  0
  140.6100   68.2300  228.1950 C   0  0  0  0  0  0  0  0  0  0  0  0
  140.8120   67.7670  229.4520 F   0  0  0  0  0  0  0  0  0  0  0  0
  140.1620   67.4190  227.1620 C   0  0  0  0  0  0  0  0  0  0  0  0
  139.9720   67.9550  225.8820 C   0  0  0  0  0  0  0  0  0  0  0  0
  140.2310   69.3060  225.6330 C   0  0  0  0  0  0  0  0  0  0  0  0
  140.0450   69.8220  224.3880 N   0  0  0  0  0  0  0  0  0  0  0  0
  140.9360   76.0350  221.0850 C   0  0  0  0  0  0  0  0  0  0  0  0
  141.4300   77.3200  221.0790 C   0  0  0  0  0  0  0  0  0  0  0  0
  140.7870   78.3450  221.7390 C   0  0  0  0  0  0  0  0  0  0  0  0
  139.6270   78.0590  222.4140 C   0  0  0  0  0  0  0  0  0  0  0  0
  138.9000   79.0940  223.1290 C   0  0  0  0  0  0  0  0  0  0  0  0
  137.5120   79.0960  223.0880 C   0  0  0  0  0  0  0  0  0  0  0  0
  136.8030   80.0790  223.7670 C   0  0  0  0  0  0  0  0  0  0  0  0
  137.4630   81.0420  224.4730 C   0  0  0  0  0  0  0  0  0  0  0  0
  136.7730   82.1350  225.2300 C   0  0  0  0  0  0  0  0  0  0  0  0
  137.4090   82.3410  226.4330 F   0  0  0  0  0  0  0  0  0  0  0  0
  136.8610   83.2910  224.4630 F   0  0  0  0  0  0  0  0  0  0  0  0
  135.4750   81.7330  225.4180 F   0  0  0  0  0  0  0  0  0  0  0  0
  138.8070   81.0480  224.5180 N   0  0  0  0  0  0  0  0  0  0  0  0
  139.4950   80.0930  223.8590 C   0  0  0  0  0  0  0  0  0  0  0  0
  139.1370   76.8110  222.4280 N   0  0  0  0  0  0  0  0  0  0  0  0
  139.7680   75.7930  221.7770 C   0  0  0  0  0  0  0  0  0  0  0  0
  144.3162   74.0189  221.7903 H   0  0  0  0  0  0  0  0  0  0  0  0
  144.8577   72.6670  220.7387 H   0  0  0  0  0  0  0  0  0  0  0  0
  145.7584   74.2212  220.7387 H   0  0  0  0  0  0  0  0  0  0  0  0
  143.4276   75.5658  221.1560 H   0  0  0  0  0  0  0  0  0  0  0  0
  143.0750   75.8588  219.3150 H   0  0  0  0  0  0  0  0  0  0  0  0
  141.4108   74.8445  219.2814 H   0  0  0  0  0  0  0  0  0  0  0  0
  141.0780   73.4630  221.8000 H   0  0  0  0  0  0  0  0  0  0  0  0
  139.1165   71.3212  220.0541 H   0  0  0  0  0  0  0  0  0  0  0  0
  140.7818   70.5863  219.6841 H   0  0  0  0  0  0  0  0  0  0  0  0
  140.7050   69.9120  221.8320 H   0  0  0  0  0  0  0  0  0  0  0  0
  140.9312   72.9622  224.9633 H   0  0  0  0  0  0  0  0  0  0  0  0
  141.2924   72.0966  227.2401 H   0  0  0  0  0  0  0  0  0  0  0  0
  141.2286   70.2256  228.7704 H   0  0  0  0  0  0  0  0  0  0  0  0
  139.9560   66.3547  227.3485 H   0  0  0  0  0  0  0  0  0  0  0  0
  139.6163   67.3080  225.0666 H   0  0  0  0  0  0  0  0  0  0  0  0
  142.3611   77.5340  220.5338 H   0  0  0  0  0  0  0  0  0  0  0  0
  141.1936   79.3670  221.7250 H   0  0  0  0  0  0  0  0  0  0  0  0
  136.9756   78.3218  222.5198 H   0  0  0  0  0  0  0  0  0  0  0  0
  135.7035   80.0809  223.7352 H   0  0  0  0  0  0  0  0  0  0  0  0
  140.5936   80.1159  223.9093 H   0  0  0  0  0  0  0  0  0  0  0  0
  139.3452   74.7778  221.8037 H   0  0  0  0  0  0  0  0  0  0  0  0
  1  2  1  0
  2  3  1  0
  3  4  1  0
  4  5  1  0
  5  6  1  0
  6  7  2  0
  6  8  1  0
  8  9  1  0
  9 10  1  0
 10 11  2  0
 10 12  1  0
 12 13  2  0
 13 14  1  0
 14 15  2  0
 15 16  1  0
 16 17  2  0
 17 18  1  0
 17 19  1  0
 19 20  2  0
 20 21  1  0
 21 22  2  0
  4 23  1  0
 23 24  2  0
 24 25  1  0
 25 26  2  0
 26 27  1  0
 27 28  2  0
 28 29  1  0
 29 30  2  0
 30 31  1  0
 31 32  1  0
 31 33  1  0
 31 34  1  0
 30 35  1  0
 35 36  2  0
 26 37  1  0
 37 38  2  0
 22 12  1  0
 38 23  1  0
 21 15  1  0
 36 27  1  0
  1 39  1  0
  1 40  1  0
  1 41  1  0
  3 42  1  0
  3 43  1  0
  4 44  1  6
  5 45  1  0
  8 46  1  0
  8 47  1  0
  9 48  1  0
 13 49  1  0
 14 50  1  0
 16 51  1  0
 19 52  1  0
 20 53  1  0
 24 54  1  0
 25 55  1  0
 28 56  1  0
 29 57  1  0
 36 58  1  0
 38 59  1  0
M  END
>  <smiles>  (13) 
COC[C@@H](NC(=O)CNC(=O)c1ccc2cc(F)ccc2n1)c1ccc(-c2ccc(C(F)(F)F)nc2)nc1

>  <score_type>  (13) 
oracle

>  <origin>  (13) 
autodockgpu

>  <m_score__min__energy>  (13) 
-8.4199999999999999

>  <m_primary>  (13) 
energy

>  <meeko>  (13) 
{"free_energy": -7.7, "intermolecular_energy": -10.38, "internal_energy": -2.42, "cluster_size": 3, "cluster_id": 3, "rank_in_cluster": 2}

>  <energy>  (13) 
-7.47

>  <cluster_rmsd>  (13) 
0.53

>  <rmsd>  (13) 
271.5

>  <cluster>  (13) 
3

$$$$

     RDKit          3D

 59 62  0  0  0  0  0  0  0  0999 V2000
  140.7880   77.3930  222.3800 C   0  0  0  0  0  0  0  0  0  0  0  0
  140.5950   77.6290  221.0400 O   0  0  0  0  0  0  0  0  0  0  0  0
  139.3320   77.3710  220.5990 C   0  0  0  0  0  0  0  0  0  0  0  0
  138.7320   76.0510  220.7030 C   0  0  1  0  0  0  0  0  0  0  0  0
  139.4850   74.8530  220.6920 N   0  0  0  0  0  0  0  0  0  0  0  0
  139.1540   73.6760  220.0000 C   0  0  0  0  0  0  0  0  0  0  0  0
  138.0710   73.7170  219.3140 O   0  0  0  0  0  0  0  0  0  0  0  0
  139.8930   72.4150  219.9720 C   0  0  0  0  0  0  0  0  0  0  0  0
  139.9040   71.6390  221.1630 N   0  0  0  0  0  0  0  0  0  0  0  0
  140.1130   72.1300  222.4780 C   0  0  0  0  0  0  0  0  0  0  0  0
  140.3230   73.3420  222.7180 O   0  0  0  0  0  0  0  0  0  0  0  0
  140.0900   71.2130  223.6310 C   0  0  0  0  0  0  0  0  0  0  0  0
  139.5820   69.9490  223.5400 C   0  0  0  0  0  0  0  0  0  0  0  0
  139.5350   69.0520  224.5870 C   0  0  0  0  0  0  0  0  0  0  0  0
  140.0420   69.4680  225.8250 C   0  0  0  0  0  0  0  0  0  0  0  0
  140.0120   68.5960  226.8940 C   0  0  0  0  0  0  0  0  0  0  0  0
  140.5190   69.0190  228.1170 C   0  0  0  0  0  0  0  0  0  0  0  0
  140.4740   68.1390  229.1470 F   0  0  0  0  0  0  0  0  0  0  0  0
  141.0420   70.2970  228.2460 C   0  0  0  0  0  0  0  0  0  0  0  0
  141.0610   71.1610  227.1450 C   0  0  0  0  0  0  0  0  0  0  0  0
  140.5560   70.7480  225.9090 C   0  0  0  0  0  0  0  0  0  0  0  0
  140.5750   71.5910  224.8420 N   0  0  0  0  0  0  0  0  0  0  0  0
  137.6520   76.0000  221.7780 C   0  0  0  0  0  0  0  0  0  0  0  0
  137.1270   74.8020  222.2060 C   0  0  0  0  0  0  0  0  0  0  0  0
  136.1510   74.7450  223.1770 C   0  0  0  0  0  0  0  0  0  0  0  0
  135.7030   75.9230  223.7200 C   0  0  0  0  0  0  0  0  0  0  0  0
  134.6770   75.9330  224.7490 C   0  0  0  0  0  0  0  0  0  0  0  0
  133.7010   76.9190  224.7210 C   0  0  0  0  0  0  0  0  0  0  0  0
  132.7130   76.9410  225.6980 C   0  0  0  0  0  0  0  0  0  0  0  0
  132.6980   75.9980  226.6840 C   0  0  0  0  0  0  0  0  0  0  0  0
  131.6700   75.9530  227.7730 C   0  0  0  0  0  0  0  0  0  0  0  0
  131.7350   74.7420  228.4230 F   0  0  0  0  0  0  0  0  0  0  0  0
  131.9710   76.9700  228.6710 F   0  0  0  0  0  0  0  0  0  0  0  0
  130.4480   76.1310  227.1760 F   0  0  0  0  0  0  0  0  0  0  0  0
  133.6400   75.0390  226.7200 N   0  0  0  0  0  0  0  0  0  0  0  0
  134.5980   75.0180  225.7700 C   0  0  0  0  0  0  0  0  0  0  0  0
  136.2070   77.0960  223.3120 N   0  0  0  0  0  0  0  0  0  0  0  0
  137.1730   77.1590  222.3510 C   0  0  0  0  0  0  0  0  0  0  0  0
  140.1993   78.1129  222.9676 H   0  0  0  0  0  0  0  0  0  0  0  0
  140.4643   76.3701  222.6225 H   0  0  0  0  0  0  0  0  0  0  0  0
  141.8548   77.5072  222.6225 H   0  0  0  0  0  0  0  0  0  0  0  0
  138.6686   78.0544  221.1493 H   0  0  0  0  0  0  0  0  0  0  0  0
  139.4399   77.4893  219.5107 H   0  0  0  0  0  0  0  0  0  0  0  0
  138.3434   76.0051  219.6750 H   0  0  0  0  0  0  0  0  0  0  0  0
  140.3820   74.8330  221.2670 H   0  0  0  0  0  0  0  0  0  0  0  0
  139.4558   71.7934  219.1767 H   0  0  0  0  0  0  0  0  0  0  0  0
  140.9421   72.7060  219.8150 H   0  0  0  0  0  0  0  0  0  0  0  0
  139.7420   70.5860  221.1040 H   0  0  0  0  0  0  0  0  0  0  0  0
  139.1838   69.6243  222.5673 H   0  0  0  0  0  0  0  0  0  0  0  0
  139.1138   68.0445  224.4544 H   0  0  0  0  0  0  0  0  0  0  0  0
  139.5945   67.5847  226.7803 H   0  0  0  0  0  0  0  0  0  0  0  0
  141.4422   70.6319  229.2143 H   0  0  0  0  0  0  0  0  0  0  0  0
  141.4769   72.1736  227.2534 H   0  0  0  0  0  0  0  0  0  0  0  0
  137.4960   73.8659  221.7615 H   0  0  0  0  0  0  0  0  0  0  0  0
  135.7413   73.7795  223.5086 H   0  0  0  0  0  0  0  0  0  0  0  0
  133.7094   77.6810  223.9277 H   0  0  0  0  0  0  0  0  0  0  0  0
  131.9392   77.7225  225.6763 H   0  0  0  0  0  0  0  0  0  0  0  0
  135.3578   74.2239  225.8159 H   0  0  0  0  0  0  0  0  0  0  0  0
  137.5699   78.1344  222.0332 H   0  0  0  0  0  0  0  0  0  0  0  0
  1  2  1  0
  2  3  1  0
  3  4  1  0
  4  5  1  0
  5  6  1  0
  6  7  2  0
  6  8  1  0
  8  9  1  0
  9 10  1  0
 10 11  2  0
 10 12  1  0
 12 13  2  0
 13 14  1  0
 14 15  2  0
 15 16  1  0
 16 17  2  0
 17 18  1  0
 17 19  1  0
 19 20  2  0
 20 21  1  0
 21 22  2  0
  4 23  1  0
 23 24  2  0
 24 25  1  0
 25 26  2  0
 26 27  1  0
 27 28  2  0
 28 29  1  0
 29 30  2  0
 30 31  1  0
 31 32  1  0
 31 33  1  0
 31 34  1  0
 30 35  1  0
 35 36  2  0
 26 37  1  0
 37 38  2  0
 22 12  1  0
 38 23  1  0
 21 15  1  0
 36 27  1  0
  1 39  1  0
  1 40  1  0
  1 41  1  0
  3 42  1  0
  3 43  1  0
  4 44  1  6
  5 45  1  0
  8 46  1  0
  8 47  1  0
  9 48  1  0
 13 49  1  0
 14 50  1  0
 16 51  1  0
 19 52  1  0
 20 53  1  0
 24 54  1  0
 25 55  1  0
 28 56  1  0
 29 57  1  0
 36 58  1  0
 38 59  1  0
M  END
>  <smiles>  (14) 
COC[C@@H](NC(=O)CNC(=O)c1ccc2cc(F)ccc2n1)c1ccc(-c2ccc(C(F)(F)F)nc2)nc1

>  <score_type>  (14) 
oracle

>  <origin>  (14) 
autodockgpu

>  <m_score__min__energy>  (14) 
-8.4199999999999999

>  <m_primary>  (14) 
energy

>  <meeko>  (14) 
{"free_energy": -7.18, "intermolecular_energy": -9.86, "internal_energy": -2.55, "cluster_size": 1, "cluster_id": 4, "rank_in_cluster": 1}

>  <energy>  (14) 
-7.18

>  <cluster_rmsd>  (14) 
0.0

>  <rmsd>  (14) 
270.7

>  <cluster>  (14) 
4

$$$$

     RDKit          3D

 59 62  0  0  0  0  0  0  0  0999 V2000
  146.1810   73.3810  221.5640 C   0  0  0  0  0  0  0  0  0  0  0  0
  145.0040   72.7600  221.2220 O   0  0  0  0  0  0  0  0  0  0  0  0
  144.4960   73.1390  220.0170 C   0  0  0  0  0  0  0  0  0  0  0  0
  143.0760   73.3910  219.8220 C   0  0  1  0  0  0  0  0  0  0  0  0
  142.0600   72.6040  220.4130 N   0  0  0  0  0  0  0  0  0  0  0  0
  140.9460   72.0610  219.7510 C   0  0  0  0  0  0  0  0  0  0  0  0
  140.8690   72.3050  218.4940 O   0  0  0  0  0  0  0  0  0  0  0  0
  139.8680   71.2570  220.3240 C   0  0  0  0  0  0  0  0  0  0  0  0
  140.0070   70.8510  221.6790 N   0  0  0  0  0  0  0  0  0  0  0  0
  140.2590   71.7050  222.7840 C   0  0  0  0  0  0  0  0  0  0  0  0
  140.3960   72.9450  222.6590 O   0  0  0  0  0  0  0  0  0  0  0  0
  140.3720   71.1520  224.1460 C   0  0  0  0  0  0  0  0  0  0  0  0
  140.7970   71.9070  225.2000 C   0  0  0  0  0  0  0  0  0  0  0  0
  140.9220   71.4390  226.4920 C   0  0  0  0  0  0  0  0  0  0  0  0
  140.5910   70.1000  226.7350 C   0  0  0  0  0  0  0  0  0  0  0  0
  140.7030   69.5990  228.0160 C   0  0  0  0  0  0  0  0  0  0  0  0
  140.3710   68.2700  228.2460 C   0  0  0  0  0  0  0  0  0  0  0  0
  140.4920   67.8080  229.5140 F   0  0  0  0  0  0  0  0  0  0  0  0
  139.9350   67.4720  227.1980 C   0  0  0  0  0  0  0  0  0  0  0  0
  139.8300   68.0060  225.9080 C   0  0  0  0  0  0  0  0  0  0  0  0
  140.1600   69.3420  225.6630 C   0  0  0  0  0  0  0  0  0  0  0  0
  140.0570   69.8570  224.4080 N   0  0  0  0  0  0  0  0  0  0  0  0
  142.7420   74.8740  219.9290 C   0  0  0  0  0  0  0  0  0  0  0  0
  143.3270   75.8000  219.0950 C   0  0  0  0  0  0  0  0  0  0  0  0
  143.0300   77.1430  219.1830 C   0  0  0  0  0  0  0  0  0  0  0  0
  142.1280   77.5490  220.1340 C   0  0  0  0  0  0  0  0  0  0  0  0
  141.7700   78.9500  220.2790 C   0  0  0  0  0  0  0  0  0  0  0  0
  141.6090   79.4790  221.5520 C   0  0  0  0  0  0  0  0  0  0  0  0
  141.2680   80.8170  221.7060 C   0  0  0  0  0  0  0  0  0  0  0  0
  141.0910   81.6130  220.6130 C   0  0  0  0  0  0  0  0  0  0  0  0
  140.7220   83.0630  220.6930 C   0  0  0  0  0  0  0  0  0  0  0  0
  139.3850   83.1860  220.9980 F   0  0  0  0  0  0  0  0  0  0  0  0
  141.4770   83.6280  221.7140 F   0  0  0  0  0  0  0  0  0  0  0  0
  141.0050   83.6160  219.4700 F   0  0  0  0  0  0  0  0  0  0  0  0
  141.2450   81.1100  219.3750 N   0  0  0  0  0  0  0  0  0  0  0  0
  141.5770   79.8110  219.2260 C   0  0  0  0  0  0  0  0  0  0  0  0
  141.5520   76.6570  220.9520 N   0  0  0  0  0  0  0  0  0  0  0  0
  141.8400   75.3270  220.8690 C   0  0  0  0  0  0  0  0  0  0  0  0
  146.2668   73.4263  222.6597 H   0  0  0  0  0  0  0  0  0  0  0  0
  147.0284   72.8126  221.1530 H   0  0  0  0  0  0  0  0  0  0  0  0
  146.1901   74.4013  221.1530 H   0  0  0  0  0  0  0  0  0  0  0  0
  145.0140   74.0702  219.7440 H   0  0  0  0  0  0  0  0  0  0  0  0
  144.6560   72.2383  219.4061 H   0  0  0  0  0  0  0  0  0  0  0  0
  143.0130   72.9905  218.7995 H   0  0  0  0  0  0  0  0  0  0  0  0
  142.1370   72.4090  221.4580 H   0  0  0  0  0  0  0  0  0  0  0  0
  138.9414   71.8450  220.2487 H   0  0  0  0  0  0  0  0  0  0  0  0
  139.8763   70.3209  219.7465 H   0  0  0  0  0  0  0  0  0  0  0  0
  139.9180   69.8180  221.9300 H   0  0  0  0  0  0  0  0  0  0  0  0
  141.0572   72.9582  225.0070 H   0  0  0  0  0  0  0  0  0  0  0  0
  141.2698   72.0952  227.3035 H   0  0  0  0  0  0  0  0  0  0  0  0
  141.0489   70.2405  228.8399 H   0  0  0  0  0  0  0  0  0  0  0  0
  139.6718   66.4197  227.3807 H   0  0  0  0  0  0  0  0  0  0  0  0
  139.4849   67.3688  225.0804 H   0  0  0  0  0  0  0  0  0  0  0  0
  144.0499   75.4594  218.3391 H   0  0  0  0  0  0  0  0  0  0  0  0
  143.5040   77.8709  218.5080 H   0  0  0  0  0  0  0  0  0  0  0  0
  141.7510   78.8407  222.4365 H   0  0  0  0  0  0  0  0  0  0  0  0
  141.1401   81.2364  222.7148 H   0  0  0  0  0  0  0  0  0  0  0  0
  141.6999   79.4197  218.2053 H   0  0  0  0  0  0  0  0  0  0  0  0
  141.3530   74.6152  221.5517 H   0  0  0  0  0  0  0  0  0  0  0  0
  1  2  1  0
  2  3  1  0
  3  4  1  0
  4  5  1  0
  5  6  1  0
  6  7  2  0
  6  8  1  0
  8  9  1  0
  9 10  1  0
 10 11  2  0
 10 12  1  0
 12 13  2  0
 13 14  1  0
 14 15  2  0
 15 16  1  0
 16 17  2  0
 17 18  1  0
 17 19  1  0
 19 20  2  0
 20 21  1  0
 21 22  2  0
  4 23  1  0
 23 24  2  0
 24 25  1  0
 25 26  2  0
 26 27  1  0
 27 28  2  0
 28 29  1  0
 29 30  2  0
 30 31  1  0
 31 32  1  0
 31 33  1  0
 31 34  1  0
 30 35  1  0
 35 36  2  0
 26 37  1  0
 37 38  2  0
 22 12  1  0
 38 23  1  0
 21 15  1  0
 36 27  1  0
  1 39  1  0
  1 40  1  0
  1 41  1  0
  3 42  1  0
  3 43  1  0
  4 44  1  6
  5 45  1  0
  8 46  1  0
  8 47  1  0
  9 48  1  0
 13 49  1  0
 14 50  1  0
 16 51  1  0
 19 52  1  0
 20 53  1  0
 24 54  1  0
 25 55  1  0
 28 56  1  0
 29 57  1  0
 36 58  1  0
 38 59  1  0
M  END
>  <smiles>  (15) 
COC[C@@H](NC(=O)CNC(=O)c1ccc2cc(F)ccc2n1)c1ccc(-c2ccc(C(F)(F)F)nc2)nc1

>  <score_type>  (15) 
oracle

>  <origin>  (15) 
autodockgpu

>  <m_score__min__energy>  (15) 
-8.4199999999999999

>  <m_primary>  (15) 
energy

>  <meeko>  (15) 
{"free_energy": -7.83, "intermolecular_energy": -10.51, "internal_energy": -2.72, "cluster_size": 6, "cluster_id": 2, "rank_in_cluster": 1}

>  <energy>  (15) 
-6.88

>  <cluster_rmsd>  (15) 
0.0

>  <rmsd>  (15) 
270.19

>  <cluster>  (15) 
5

$$$$

     RDKit          3D

 59 62  0  0  0  0  0  0  0  0999 V2000
  143.4790   72.2780  220.1080 C   0  0  0  0  0  0  0  0  0  0  0  0
  143.7630   73.3240  220.9530 O   0  0  0  0  0  0  0  0  0  0  0  0
  143.3210   74.5360  220.5160 C   0  0  0  0  0  0  0  0  0  0  0  0
  141.9060   74.8670  220.4560 C   0  0  1  0  0  0  0  0  0  0  0  0
  140.9140   74.1670  221.1830 N   0  0  0  0  0  0  0  0  0  0  0  0
  139.6570   73.7750  220.6950 C   0  0  0  0  0  0  0  0  0  0  0  0
  139.4100   74.0800  219.4740 O   0  0  0  0  0  0  0  0  0  0  0  0
  138.5990   73.0650  221.4130 C   0  0  0  0  0  0  0  0  0  0  0  0
  138.9500   72.4420  222.6420 N   0  0  0  0  0  0  0  0  0  0  0  0
  140.1840   71.8050  222.9320 C   0  0  0  0  0  0  0  0  0  0  0  0
  141.1130   71.7240  222.0940 O   0  0  0  0  0  0  0  0  0  0  0  0
  140.4220   71.2030  224.2570 C   0  0  0  0  0  0  0  0  0  0  0  0
  140.9640   71.9150  225.2870 C   0  0  0  0  0  0  0  0  0  0  0  0
  141.2080   71.4010  226.5440 C   0  0  0  0  0  0  0  0  0  0  0  0
  140.8770   70.0600  226.7750 C   0  0  0  0  0  0  0  0  0  0  0  0
  141.1070   69.5130  228.0210 C   0  0  0  0  0  0  0  0  0  0  0  0
  140.7740   68.1820  228.2400 C   0  0  0  0  0  0  0  0  0  0  0  0
  141.0120   67.6750  229.4740 F   0  0  0  0  0  0  0  0  0  0  0  0
  140.2200   67.4280  227.2150 C   0  0  0  0  0  0  0  0  0  0  0  0
  139.9970   68.0080  225.9600 C   0  0  0  0  0  0  0  0  0  0  0  0
  140.3270   69.3460  225.7280 C   0  0  0  0  0  0  0  0  0  0  0  0
  140.1090   69.9050  224.5070 N   0  0  0  0  0  0  0  0  0  0  0  0
  141.6700   76.3710  220.5300 C   0  0  0  0  0  0  0  0  0  0  0  0
  141.0510   76.9430  221.6180 C   0  0  0  0  0  0  0  0  0  0  0  0
  140.8330   78.3010  221.6950 C   0  0  0  0  0  0  0  0  0  0  0  0
  141.2480   79.0880  220.6500 C   0  0  0  0  0  0  0  0  0  0  0  0
  141.0500   80.5270  220.6690 C   0  0  0  0  0  0  0  0  0  0  0  0
  140.4140   81.1360  219.5960 C   0  0  0  0  0  0  0  0  0  0  0  0
  140.2170   82.5120  219.5990 C   0  0  0  0  0  0  0  0  0  0  0  0
  140.6440   83.2660  220.6520 C   0  0  0  0  0  0  0  0  0  0  0  0
  140.4710   84.7520  220.7330 C   0  0  0  0  0  0  0  0  0  0  0  0
  139.2190   85.0490  221.2210 F   0  0  0  0  0  0  0  0  0  0  0  0
  141.4310   85.2350  221.6140 F   0  0  0  0  0  0  0  0  0  0  0  0
  140.6380   85.2420  219.4620 F   0  0  0  0  0  0  0  0  0  0  0  0
  141.2610   82.6850  221.6970 N   0  0  0  0  0  0  0  0  0  0  0  0
  141.4520   81.3490  221.6920 C   0  0  0  0  0  0  0  0  0  0  0  0
  141.8520   78.5420  219.5850 N   0  0  0  0  0  0  0  0  0  0  0  0
  142.0710   77.1990  219.5030 C   0  0  0  0  0  0  0  0  0  0  0  0
  143.2362   71.3836  220.7005 H   0  0  0  0  0  0  0  0  0  0  0  0
  142.6200   72.5419  219.4736 H   0  0  0  0  0  0  0  0  0  0  0  0
  144.3535   72.0713  219.4736 H   0  0  0  0  0  0  0  0  0  0  0  0
  143.7849   75.2872  221.1722 H   0  0  0  0  0  0  0  0  0  0  0  0
  143.5965   74.5109  219.4514 H   0  0  0  0  0  0  0  0  0  0  0  0
  141.7136   74.4322  219.4640 H   0  0  0  0  0  0  0  0  0  0  0  0
  141.1320   73.9200  222.1960 H   0  0  0  0  0  0  0  0  0  0  0  0
  137.8002   73.7905  221.6266 H   0  0  0  0  0  0  0  0  0  0  0  0
  138.3130   72.2368  220.7480 H   0  0  0  0  0  0  0  0  0  0  0  0
  138.2480   72.4330  223.4450 H   0  0  0  0  0  0  0  0  0  0  0  0
  141.2235   72.9680  225.1032 H   0  0  0  0  0  0  0  0  0  0  0  0
  141.6475   72.0232  227.3375 H   0  0  0  0  0  0  0  0  0  0  0  0
  141.5461   70.1200  228.8264 H   0  0  0  0  0  0  0  0  0  0  0  0
  139.9560   66.3743  227.3884 H   0  0  0  0  0  0  0  0  0  0  0  0
  139.5587   67.4057  225.1506 H   0  0  0  0  0  0  0  0  0  0  0  0
  140.7220   76.2994  222.4472 H   0  0  0  0  0  0  0  0  0  0  0  0
  140.3386   78.7436  222.5723 H   0  0  0  0  0  0  0  0  0  0  0  0
  140.0667   80.5312  218.7453 H   0  0  0  0  0  0  0  0  0  0  0  0
  139.7143   82.9949  218.7481 H   0  0  0  0  0  0  0  0  0  0  0  0
  141.9580   80.8935  222.5560 H   0  0  0  0  0  0  0  0  0  0  0  0
  142.5677   76.7758  218.6174 H   0  0  0  0  0  0  0  0  0  0  0  0
  1  2  1  0
  2  3  1  0
  3  4  1  0
  4  5  1  0
  5  6  1  0
  6  7  2  0
  6  8  1  0
  8  9  1  0
  9 10  1  0
 10 11  2  0
 10 12  1  0
 12 13  2  0
 13 14  1  0
 14 15  2  0
 15 16  1  0
 16 17  2  0
 17 18  1  0
 17 19  1  0
 19 20  2  0
 20 21  1  0
 21 22  2  0
  4 23  1  0
 23 24  2  0
 24 25  1  0
 25 26  2  0
 26 27  1  0
 27 28  2  0
 28 29  1  0
 29 30  2  0
 30 31  1  0
 31 32  1  0
 31 33  1  0
 31 34  1  0
 30 35  1  0
 35 36  2  0
 26 37  1  0
 37 38  2  0
 22 12  1  0
 38 23  1  0
 21 15  1  0
 36 27  1  0
  1 39  1  0
  1 40  1  0
  1 41  1  0
  3 42  1  0
  3 43  1  0
  4 44  1  6
  5 45  1  0
  8 46  1  0
  8 47  1  0
  9 48  1  0
 13 49  1  0
 14 50  1  0
 16 51  1  0
 19 52  1  0
 20 53  1  0
 24 54  1  0
 25 55  1  0
 28 56  1  0
 29 57  1  0
 36 58  1  0
 38 59  1  0
M  END
>  <smiles>  (16) 
COC[C@@H](NC(=O)CNC(=O)c1ccc2cc(F)ccc2n1)c1ccc(-c2ccc(C(F)(F)F)nc2)nc1

>  <score_type>  (16) 
oracle

>  <origin>  (16) 
autodockgpu

>  <m_score__min__energy>  (16) 
-8.4199999999999999

>  <m_primary>  (16) 
energy

>  <meeko>  (16) 
{"free_energy": -7.21, "intermolecular_energy": -9.89, "internal_energy": -2.36, "cluster_size": 6, "cluster_id": 2, "rank_in_cluster": 6}

>  <energy>  (16) 
-6.86

>  <cluster_rmsd>  (16) 
0.94

>  <rmsd>  (16) 
270.35

>  <cluster>  (16) 
5

$$$$

     RDKit          3D

 59 62  0  0  0  0  0  0  0  0999 V2000
  144.8410   73.3520  220.0710 C   0  0  0  0  0  0  0  0  0  0  0  0
  144.2730   74.3830  220.7820 O   0  0  0  0  0  0  0  0  0  0  0  0
  143.2970   75.0570  220.1140 C   0  0  0  0  0  0  0  0  0  0  0  0
  141.8910   74.7050  220.2390 C   0  0  1  0  0  0  0  0  0  0  0  0
  141.4450   73.4200  220.6310 N   0  0  0  0  0  0  0  0  0  0  0  0
  140.5950   72.5810  219.8920 C   0  0  0  0  0  0  0  0  0  0  0  0
  140.2090   73.0350  218.7560 O   0  0  0  0  0  0  0  0  0  0  0  0
  140.0990   71.2570  220.2640 C   0  0  0  0  0  0  0  0  0  0  0  0
  140.2790   70.8490  221.6140 N   0  0  0  0  0  0  0  0  0  0  0  0
  140.1730   71.6810  222.7590 C   0  0  0  0  0  0  0  0  0  0  0  0
  139.9070   72.9040  222.6790 O   0  0  0  0  0  0  0  0  0  0  0  0
  140.3760   71.1250  224.1090 C   0  0  0  0  0  0  0  0  0  0  0  0
  140.8330   71.8880  225.1440 C   0  0  0  0  0  0  0  0  0  0  0  0
  141.0420   71.4180  226.4240 C   0  0  0  0  0  0  0  0  0  0  0  0
  140.7650   70.0690  226.6760 C   0  0  0  0  0  0  0  0  0  0  0  0
  140.9620   69.5650  227.9450 C   0  0  0  0  0  0  0  0  0  0  0  0
  140.6830   68.2250  228.1840 C   0  0  0  0  0  0  0  0  0  0  0  0
  140.8870   67.7610  229.4410 F   0  0  0  0  0  0  0  0  0  0  0  0
  140.2170   67.4190  227.1560 C   0  0  0  0  0  0  0  0  0  0  0  0
  140.0260   67.9560  225.8770 C   0  0  0  0  0  0  0  0  0  0  0  0
  140.3010   69.3020  225.6240 C   0  0  0  0  0  0  0  0  0  0  0  0
  140.1150   69.8200  224.3800 N   0  0  0  0  0  0  0  0  0  0  0  0
  141.0920   75.7930  220.9460 C   0  0  0  0  0  0  0  0  0  0  0  0
  139.9700   75.4900  221.6830 C   0  0  0  0  0  0  0  0  0  0  0  0
  139.2410   76.4670  222.3260 C   0  0  0  0  0  0  0  0  0  0  0  0
  139.6590   77.7690  222.2170 C   0  0  0  0  0  0  0  0  0  0  0  0
  138.9370   78.8460  222.8730 C   0  0  0  0  0  0  0  0  0  0  0  0
  139.6520   79.8450  223.5190 C   0  0  0  0  0  0  0  0  0  0  0  0
  138.9750   80.8820  224.1490 C   0  0  0  0  0  0  0  0  0  0  0  0
  137.6120   80.9230  224.1350 C   0  0  0  0  0  0  0  0  0  0  0  0
  136.8080   82.0050  224.7910 C   0  0  0  0  0  0  0  0  0  0  0  0
  137.3450   82.3010  226.0240 F   0  0  0  0  0  0  0  0  0  0  0  0
  136.8830   83.1300  223.9790 F   0  0  0  0  0  0  0  0  0  0  0  0
  135.5250   81.5330  224.9100 F   0  0  0  0  0  0  0  0  0  0  0  0
  136.9100   79.9610  223.5120 N   0  0  0  0  0  0  0  0  0  0  0  0
  137.5690   78.9540  222.9000 C   0  0  0  0  0  0  0  0  0  0  0  0
  140.7510   78.0770  221.5030 N   0  0  0  0  0  0  0  0  0  0  0  0
  141.4760   77.1150  220.8640 C   0  0  0  0  0  0  0  0  0  0  0  0
  145.2512   72.6075  220.7691 H   0  0  0  0  0  0  0  0  0  0  0  0
  144.0764   72.8785  219.4376 H   0  0  0  0  0  0  0  0  0  0  0  0
  145.6497   73.7453  219.4376 H   0  0  0  0  0  0  0  0  0  0  0  0
  143.3798   76.1083  220.4269 H   0  0  0  0  0  0  0  0  0  0  0  0
  143.5086   74.7914  219.0677 H   0  0  0  0  0  0  0  0  0  0  0  0
  141.6821   74.6258  219.1619 H   0  0  0  0  0  0  0  0  0  0  0  0
  141.7730   73.0560  221.5770 H   0  0  0  0  0  0  0  0  0  0  0  0
  139.0194   71.2376  220.0541 H   0  0  0  0  0  0  0  0  0  0  0  0
  140.7031   70.5528  219.6732 H   0  0  0  0  0  0  0  0  0  0  0  0
  140.5150   69.8310  221.8280 H   0  0  0  0  0  0  0  0  0  0  0  0
  141.0490   72.9480  224.9444 H   0  0  0  0  0  0  0  0  0  0  0  0
  141.4137   72.0806  227.2195 H   0  0  0  0  0  0  0  0  0  0  0  0
  141.3333   70.2124  228.7531 H   0  0  0  0  0  0  0  0  0  0  0  0
  139.9974   66.3579  227.3454 H   0  0  0  0  0  0  0  0  0  0  0  0
  139.6564   67.3127  225.0649 H   0  0  0  0  0  0  0  0  0  0  0  0
  139.6468   74.4414  221.7609 H   0  0  0  0  0  0  0  0  0  0  0  0
  138.3464   76.2092  222.9119 H   0  0  0  0  0  0  0  0  0  0  0  0
  140.7515   79.8158  223.5322 H   0  0  0  0  0  0  0  0  0  0  0  0
  139.5412   81.6737  224.6615 H   0  0  0  0  0  0  0  0  0  0  0  0
  136.9766   78.1769  222.3949 H   0  0  0  0  0  0  0  0  0  0  0  0
  142.3675   77.3935  220.2829 H   0  0  0  0  0  0  0  0  0  0  0  0
  1  2  1  0
  2  3  1  0
  3  4  1  0
  4  5  1  0
  5  6  1  0
  6  7  2  0
  6  8  1  0
  8  9  1  0
  9 10  1  0
 10 11  2  0
 10 12  1  0
 12 13  2  0
 13 14  1  0
 14 15  2  0
 15 16  1  0
 16 17  2  0
 17 18  1  0
 17 19  1  0
 19 20  2  0
 20 21  1  0
 21 22  2  0
  4 23  1  0
 23 24  2  0
 24 25  1  0
 25 26  2  0
 26 27  1  0
 27 28  2  0
 28 29  1  0
 29 30  2  0
 30 31  1  0
 31 32  1  0
 31 33  1  0
 31 34  1  0
 30 35  1  0
 35 36  2  0
 26 37  1  0
 37 38  2  0
 22 12  1  0
 38 23  1  0
 21 15  1  0
 36 27  1  0
  1 39  1  0
  1 40  1  0
  1 41  1  0
  3 42  1  0
  3 43  1  0
  4 44  1  6
  5 45  1  0
  8 46  1  0
  8 47  1  0
  9 48  1  0
 13 49  1  0
 14 50  1  0
 16 51  1  0
 19 52  1  0
 20 53  1  0
 24 54  1  0
 25 55  1  0
 28 56  1  0
 29 57  1  0
 36 58  1  0
 38 59  1  0
M  END
>  <smiles>  (17) 
COC[C@@H](NC(=O)CNC(=O)c1ccc2cc(F)ccc2n1)c1ccc(-c2ccc(C(F)(F)F)nc2)nc1

>  <score_type>  (17) 
oracle

>  <origin>  (17) 
autodockgpu

>  <m_score__min__energy>  (17) 
-8.4199999999999999

>  <m_primary>  (17) 
energy

>  <meeko>  (17) 
{"free_energy": -7.73, "intermolecular_energy": -10.41, "internal_energy": -2.57, "cluster_size": 3, "cluster_id": 3, "rank_in_cluster": 1}

>  <energy>  (17) 
-6.78

>  <cluster_rmsd>  (17) 
0.85

>  <rmsd>  (17) 
270.24

>  <cluster>  (17) 
5

$$$$

     RDKit          3D

 59 62  0  0  0  0  0  0  0  0999 V2000
  137.2190   72.1740  218.8400 C   0  0  0  0  0  0  0  0  0  0  0  0
  138.3910   71.9260  219.5150 O   0  0  0  0  0  0  0  0  0  0  0  0
  138.2290   71.6280  220.8340 C   0  0  0  0  0  0  0  0  0  0  0  0
  137.4570   72.4770  221.7280 C   0  0  1  0  0  0  0  0  0  0  0  0
  136.8470   72.0040  222.9140 N   0  0  0  0  0  0  0  0  0  0  0  0
  135.7300   71.1560  222.9860 C   0  0  0  0  0  0  0  0  0  0  0  0
  135.2390   70.7800  221.8610 O   0  0  0  0  0  0  0  0  0  0  0  0
  135.0600   70.6560  224.1860 C   0  0  0  0  0  0  0  0  0  0  0  0
  134.3190   71.5920  224.9560 N   0  0  0  0  0  0  0  0  0  0  0  0
  134.6710   72.9470  225.1900 C   0  0  0  0  0  0  0  0  0  0  0  0
  135.7160   73.4600  224.7240 O   0  0  0  0  0  0  0  0  0  0  0  0
  133.8030   73.8150  226.0060 C   0  0  0  0  0  0  0  0  0  0  0  0
  132.6930   73.3380  226.6390 C   0  0  0  0  0  0  0  0  0  0  0  0
  131.8470   74.1070  227.4120 C   0  0  0  0  0  0  0  0  0  0  0  0
  132.1500   75.4660  227.5550 C   0  0  0  0  0  0  0  0  0  0  0  0
  131.3270   76.2650  228.3210 C   0  0  0  0  0  0  0  0  0  0  0  0
  131.6380   77.6120  228.4580 C   0  0  0  0  0  0  0  0  0  0  0  0
  130.8090   78.3690  229.2170 F   0  0  0  0  0  0  0  0  0  0  0  0
  132.7600   78.1320  227.8280 C   0  0  0  0  0  0  0  0  0  0  0  0
  133.5790   77.3000  227.0560 C   0  0  0  0  0  0  0  0  0  0  0  0
  133.2770   75.9420  226.9120 C   0  0  0  0  0  0  0  0  0  0  0  0
  134.0760   75.1370  226.1610 N   0  0  0  0  0  0  0  0  0  0  0  0
  138.1400   73.8180  221.9700 C   0  0  0  0  0  0  0  0  0  0  0  0
  137.4090   74.9540  222.2310 C   0  0  0  0  0  0  0  0  0  0  0  0
  138.0170   76.1710  222.4520 C   0  0  0  0  0  0  0  0  0  0  0  0
  139.3870   76.2330  222.4050 C   0  0  0  0  0  0  0  0  0  0  0  0
  140.0900   77.4840  222.6300 C   0  0  0  0  0  0  0  0  0  0  0  0
  139.4220   78.6830  222.4220 C   0  0  0  0  0  0  0  0  0  0  0  0
  140.0810   79.8880  222.6340 C   0  0  0  0  0  0  0  0  0  0  0  0
  141.3810   79.8980  223.0450 C   0  0  0  0  0  0  0  0  0  0  0  0
  142.1620   81.1520  223.2950 C   0  0  0  0  0  0  0  0  0  0  0  0
  141.8280   82.1020  222.3560 F   0  0  0  0  0  0  0  0  0  0  0  0
  141.8140   81.6150  224.5580 F   0  0  0  0  0  0  0  0  0  0  0  0
  143.4910   80.8180  223.2110 F   0  0  0  0  0  0  0  0  0  0  0  0
  142.0370   78.7420  223.2500 N   0  0  0  0  0  0  0  0  0  0  0  0
  141.3960   77.5730  223.0450 C   0  0  0  0  0  0  0  0  0  0  0  0
  140.1100   75.1330  222.1510 N   0  0  0  0  0  0  0  0  0  0  0  0
  139.5140   73.9260  221.9320 C   0  0  0  0  0  0  0  0  0  0  0  0
  136.4084   72.3455  219.5635 H   0  0  0  0  0  0  0  0  0  0  0  0
  137.3414   73.0661  218.2082 H   0  0  0  0  0  0  0  0  0  0  0  0
  136.9696   71.3087  218.2082 H   0  0  0  0  0  0  0  0  0  0  0  0
  137.7575   70.6348  220.8694 H   0  0  0  0  0  0  0  0  0  0  0  0
  139.2500   71.7500  221.2249 H   0  0  0  0  0  0  0  0  0  0  0  0
  136.5565   72.5397  221.0994 H   0  0  0  0  0  0  0  0  0  0  0  0
  137.2640   72.3250  223.8400 H   0  0  0  0  0  0  0  0  0  0  0  0
  134.3651   69.8637  223.8707 H   0  0  0  0  0  0  0  0  0  0  0  0
  135.8746   70.3273  224.8482 H   0  0  0  0  0  0  0  0  0  0  0  0
  133.4060   71.2860  225.4180 H   0  0  0  0  0  0  0  0  0  0  0  0
  132.4565   72.2697  226.5259 H   0  0  0  0  0  0  0  0  0  0  0  0
  130.9645   73.6668  227.8992 H   0  0  0  0  0  0  0  0  0  0  0  0
  130.4395   75.8428  228.8150 H   0  0  0  0  0  0  0  0  0  0  0  0
  133.0058   79.1988  227.9355 H   0  0  0  0  0  0  0  0  0  0  0  0
  134.4670   77.7174  226.5587 H   0  0  0  0  0  0  0  0  0  0  0  0
  136.3114   74.8893  222.2641 H   0  0  0  0  0  0  0  0  0  0  0  0
  137.4189   77.0702  222.6609 H   0  0  0  0  0  0  0  0  0  0  0  0
  138.3733   78.6793  222.0901 H   0  0  0  0  0  0  0  0  0  0  0  0
  139.5514   80.8380  222.4695 H   0  0  0  0  0  0  0  0  0  0  0  0
  141.9502   76.6391  223.2200 H   0  0  0  0  0  0  0  0  0  0  0  0
  140.1297   73.0383  221.7250 H   0  0  0  0  0  0  0  0  0  0  0  0
  1  2  1  0
  2  3  1  0
  3  4  1  0
  4  5  1  0
  5  6  1  0
  6  7  2  0
  6  8  1  0
  8  9  1  0
  9 10  1  0
 10 11  2  0
 10 12  1  0
 12 13  2  0
 13 14  1  0
 14 15  2  0
 15 16  1  0
 16 17  2  0
 17 18  1  0
 17 19  1  0
 19 20  2  0
 20 21  1  0
 21 22  2  0
  4 23  1  0
 23 24  2  0
 24 25  1  0
 25 26  2  0
 26 27  1  0
 27 28  2  0
 28 29  1  0
 29 30  2  0
 30 31  1  0
 31 32  1  0
 31 33  1  0
 31 34  1  0
 30 35  1  0
 35 36  2  0
 26 37  1  0
 37 38  2  0
 22 12  1  0
 38 23  1  0
 21 15  1  0
 36 27  1  0
  1 39  1  0
  1 40  1  0
  1 41  1  0
  3 42  1  0
  3 43  1  0
  4 44  1  6
  5 45  1  0
  8 46  1  0
  8 47  1  0
  9 48  1  0
 13 49  1  0
 14 50  1  0
 16 51  1  0
 19 52  1  0
 20 53  1  0
 24 54  1  0
 25 55  1  0
 28 56  1  0
 29 57  1  0
 36 58  1  0
 38 59  1  0
M  END
>  <smiles>  (18) 
COC[C@@H](NC(=O)CNC(=O)c1ccc2cc(F)ccc2n1)c1ccc(-c2ccc(C(F)(F)F)nc2)nc1

>  <score_type>  (18) 
oracle

>  <origin>  (18) 
autodockgpu

>  <m_score__min__energy>  (18) 
-8.4199999999999999

>  <m_primary>  (18) 
energy

>  <meeko>  (18) 
{"free_energy": -6.44, "intermolecular_energy": -9.13, "internal_energy": -2.24, "cluster_size": 1, "cluster_id": 7, "rank_in_cluster": 1}

>  <energy>  (18) 
-6.63

>  <cluster_rmsd>  (18) 
0.0

>  <rmsd>  (18) 
270.76

>  <cluster>  (18) 
6

$$$$

     RDKit          3D

 59 62  0  0  0  0  0  0  0  0999 V2000
  143.0250   75.8110  219.7350 C   0  0  0  0  0  0  0  0  0  0  0  0
  142.7710   77.1520  219.5680 O   0  0  0  0  0  0  0  0  0  0  0  0
  141.9260   77.6850  220.4940 C   0  0  0  0  0  0  0  0  0  0  0  0
  140.4820   77.5520  220.3870 C   0  0  1  0  0  0  0  0  0  0  0  0
  139.8210   76.3050  220.2910 N   0  0  0  0  0  0  0  0  0  0  0  0
  139.6930   75.3570  221.3190 C   0  0  0  0  0  0  0  0  0  0  0  0
  140.2210   75.6770  222.4440 O   0  0  0  0  0  0  0  0  0  0  0  0
  139.0330   74.0540  221.2590 C   0  0  0  0  0  0  0  0  0  0  0  0
  139.2510   73.1620  222.3440 N   0  0  0  0  0  0  0  0  0  0  0  0
  139.0330   71.7600  222.3300 C   0  0  0  0  0  0  0  0  0  0  0  0
  138.6050   71.1570  221.3180 O   0  0  0  0  0  0  0  0  0  0  0  0
  139.3100   70.9480  223.5290 C   0  0  0  0  0  0  0  0  0  0  0  0
  138.9900   69.6230  223.5940 C   0  0  0  0  0  0  0  0  0  0  0  0
  139.2250   68.8190  224.6900 C   0  0  0  0  0  0  0  0  0  0  0  0
  139.8310   69.4030  225.8090 C   0  0  0  0  0  0  0  0  0  0  0  0
  140.0810   68.6290  226.9230 C   0  0  0  0  0  0  0  0  0  0  0  0
  140.6840   69.2190  228.0270 C   0  0  0  0  0  0  0  0  0  0  0  0
  140.9170   68.4310  229.1050 F   0  0  0  0  0  0  0  0  0  0  0  0
  141.0230   70.5640  227.9960 C   0  0  0  0  0  0  0  0  0  0  0  0
  140.7580   71.3270  226.8530 C   0  0  0  0  0  0  0  0  0  0  0  0
  140.1530   70.7450  225.7360 C   0  0  0  0  0  0  0  0  0  0  0  0
  139.8970   71.4910  224.6270 N   0  0  0  0  0  0  0  0  0  0  0  0
  139.7530   78.4760  221.3560 C   0  0  0  0  0  0  0  0  0  0  0  0
  138.3790   78.5170  221.4060 C   0  0  0  0  0  0  0  0  0  0  0  0
  137.7100   79.3470  222.2790 C   0  0  0  0  0  0  0  0  0  0  0  0
  138.4500   80.1480  223.1110 C   0  0  0  0  0  0  0  0  0  0  0  0
  137.8080   81.0460  224.0560 C   0  0  0  0  0  0  0  0  0  0  0  0
  137.2520   82.2310  223.5930 C   0  0  0  0  0  0  0  0  0  0  0  0
  136.6330   83.0990  224.4850 C   0  0  0  0  0  0  0  0  0  0  0  0
  136.5700   82.7920  225.8120 C   0  0  0  0  0  0  0  0  0  0  0  0
  135.9240   83.6740  226.8370 C   0  0  0  0  0  0  0  0  0  0  0  0
  134.8270   84.2980  226.2870 F   0  0  0  0  0  0  0  0  0  0  0  0
  135.5080   82.8590  227.8840 F   0  0  0  0  0  0  0  0  0  0  0  0
  136.8680   84.5870  227.2310 F   0  0  0  0  0  0  0  0  0  0  0  0
  137.1060   81.6470  226.2710 N   0  0  0  0  0  0  0  0  0  0  0  0
  137.7060   80.8050  225.4040 C   0  0  0  0  0  0  0  0  0  0  0  0
  139.7900   80.1180  223.0720 N   0  0  0  0  0  0  0  0  0  0  0  0
  140.4570   79.2970  222.2110 C   0  0  0  0  0  0  0  0  0  0  0  0
  143.0693   75.5772  220.8089 H   0  0  0  0  0  0  0  0  0  0  0  0
  142.2220   75.2244  219.2648 H   0  0  0  0  0  0  0  0  0  0  0  0
  143.9869   75.5587  219.2648 H   0  0  0  0  0  0  0  0  0  0  0  0
  142.2056   77.2378  221.4593 H   0  0  0  0  0  0  0  0  0  0  0  0
  142.0700   78.7650  220.3432 H   0  0  0  0  0  0  0  0  0  0  0  0
  140.4036   77.8545  219.3323 H   0  0  0  0  0  0  0  0  0  0  0  0
  139.3870   76.0520  219.3510 H   0  0  0  0  0  0  0  0  0  0  0  0
  137.9500   74.2350  221.1926 H   0  0  0  0  0  0  0  0  0  0  0  0
  139.4779   73.5521  220.3872 H   0  0  0  0  0  0  0  0  0  0  0  0
  139.6120   73.5450  223.2730 H   0  0  0  0  0  0  0  0  0  0  0  0
  138.5132   69.1659  222.7144 H   0  0  0  0  0  0  0  0  0  0  0  0
  138.9458   67.7550  224.6850 H   0  0  0  0  0  0  0  0  0  0  0  0
  139.8078   67.5636  226.9371 H   0  0  0  0  0  0  0  0  0  0  0  0
  141.5003   71.0309  228.8702 H   0  0  0  0  0  0  0  0  0  0  0  0
  141.0281   72.3932  226.8339 H   0  0  0  0  0  0  0  0  0  0  0  0
  137.7990   77.8702  220.7313 H   0  0  0  0  0  0  0  0  0  0  0  0
  136.6106   79.3667  222.3080 H   0  0  0  0  0  0  0  0  0  0  0  0
  137.3012   82.4823  222.5232 H   0  0  0  0  0  0  0  0  0  0  0  0
  136.1920   84.0378  224.1187 H   0  0  0  0  0  0  0  0  0  0  0  0
  138.1375   79.8735  225.7991 H   0  0  0  0  0  0  0  0  0  0  0  0
  141.5569   79.2899  222.1988 H   0  0  0  0  0  0  0  0  0  0  0  0
  1  2  1  0
  2  3  1  0
  3  4  1  0
  4  5  1  0
  5  6  1  0
  6  7  2  0
  6  8  1  0
  8  9  1  0
  9 10  1  0
 10 11  2  0
 10 12  1  0
 12 13  2  0
 13 14  1  0
 14 15  2  0
 15 16  1  0
 16 17  2  0
 17 18  1  0
 17 19  1  0
 19 20  2  0
 20 21  1  0
 21 22  2  0
  4 23  1  0
 23 24  2  0
 24 25  1  0
 25 26  2  0
 26 27  1  0
 27 28  2  0
 28 29  1  0
 29 30  2  0
 30 31  1  0
 31 32  1  0
 31 33  1  0
 31 34  1  0
 30 35  1  0
 35 36  2  0
 26 37  1  0
 37 38  2  0
 22 12  1  0
 38 23  1  0
 21 15  1  0
 36 27  1  0
  1 39  1  0
  1 40  1  0
  1 41  1  0
  3 42  1  0
  3 43  1  0
  4 44  1  6
  5 45  1  0
  8 46  1  0
  8 47  1  0
  9 48  1  0
 13 49  1  0
 14 50  1  0
 16 51  1  0
 19 52  1  0
 20 53  1  0
 24 54  1  0
 25 55  1  0
 28 56  1  0
 29 57  1  0
 36 58  1  0
 38 59  1  0
M  END
>  <smiles>  (19) 
COC[C@@H](NC(=O)CNC(=O)c1ccc2cc(F)ccc2n1)c1ccc(-c2ccc(C(F)(F)F)nc2)nc1

>  <score_type>  (19) 
oracle

>  <origin>  (19) 
autodockgpu

>  <m_score__min__energy>  (19) 
-8.4199999999999999

>  <m_primary>  (19) 
energy

>  <meeko>  (19) 
{"free_energy": -7.5, "intermolecular_energy": -10.18, "internal_energy": -2.25, "cluster_size": 4, "cluster_id": 1, "rank_in_cluster": 4}

>  <energy>  (19) 
-6.44

>  <cluster_rmsd>  (19) 
0.0

>  <rmsd>  (19) 
270.7

>  <cluster>  (19) 
7

$$$$

     RDKit          3D

 59 62  0  0  0  0  0  0  0  0999 V2000
  146.2590   73.3970  221.5180 C   0  0  0  0  0  0  0  0  0  0  0  0
  145.0540   72.8080  221.2140 O   0  0  0  0  0  0  0  0  0  0  0  0
  144.5180   73.2020  220.0250 C   0  0  0  0  0  0  0  0  0  0  0  0
  143.0900   73.4190  219.8570 C   0  0  1  0  0  0  0  0  0  0  0  0
  142.1040   72.5640  220.4050 N   0  0  0  0  0  0  0  0  0  0  0  0
  140.9070   72.1780  219.7810 C   0  0  0  0  0  0  0  0  0  0  0  0
  140.7140   72.6460  218.6020 O   0  0  0  0  0  0  0  0  0  0  0  0
  139.8580   71.3110  220.3150 C   0  0  0  0  0  0  0  0  0  0  0  0
  139.9790   70.9000  221.6710 N   0  0  0  0  0  0  0  0  0  0  0  0
  140.3510   71.7260  222.7630 C   0  0  0  0  0  0  0  0  0  0  0  0
  140.6260   72.9410  222.6250 O   0  0  0  0  0  0  0  0  0  0  0  0
  140.4300   71.1710  224.1270 C   0  0  0  0  0  0  0  0  0  0  0  0
  140.9290   71.8920  225.1730 C   0  0  0  0  0  0  0  0  0  0  0  0
  141.0260   71.4210  226.4650 C   0  0  0  0  0  0  0  0  0  0  0  0
  140.5830   70.1170  226.7200 C   0  0  0  0  0  0  0  0  0  0  0  0
  140.6650   69.6140  228.0010 C   0  0  0  0  0  0  0  0  0  0  0  0
  140.2220   68.3190  228.2420 C   0  0  0  0  0  0  0  0  0  0  0  0
  140.3160   67.8540  229.5120 F   0  0  0  0  0  0  0  0  0  0  0  0
  139.7090   67.5570  227.2030 C   0  0  0  0  0  0  0  0  0  0  0  0
  139.6370   68.0920  225.9110 C   0  0  0  0  0  0  0  0  0  0  0  0
  140.0780   69.3930  225.6560 C   0  0  0  0  0  0  0  0  0  0  0  0
  140.0070   69.9100  224.3990 N   0  0  0  0  0  0  0  0  0  0  0  0
  142.7090   74.8810  220.0580 C   0  0  0  0  0  0  0  0  0  0  0  0
  141.7550   75.2500  220.9790 C   0  0  0  0  0  0  0  0  0  0  0  0
  141.4040   76.5690  221.1690 C   0  0  0  0  0  0  0  0  0  0  0  0
  142.0300   77.5250  220.4100 C   0  0  0  0  0  0  0  0  0  0  0  0
  141.7070   78.9340  220.5620 C   0  0  0  0  0  0  0  0  0  0  0  0
  141.8480   79.5300  221.8080 C   0  0  0  0  0  0  0  0  0  0  0  0
  141.5440   80.8760  221.9680 C   0  0  0  0  0  0  0  0  0  0  0  0
  141.1080   81.6140  220.9070 C   0  0  0  0  0  0  0  0  0  0  0  0
  140.7580   83.0690  220.9970 C   0  0  0  0  0  0  0  0  0  0  0  0
  139.4740   83.2100  221.4710 F   0  0  0  0  0  0  0  0  0  0  0  0
  141.6430   83.6550  221.8940 F   0  0  0  0  0  0  0  0  0  0  0  0
  140.8800   83.5870  219.7320 F   0  0  0  0  0  0  0  0  0  0  0  0
  140.9680   81.0460  219.6960 N   0  0  0  0  0  0  0  0  0  0  0  0
  141.2650   79.7390  219.5420 C   0  0  0  0  0  0  0  0  0  0  0  0
  142.9600   77.1790  219.5090 N   0  0  0  0  0  0  0  0  0  0  0  0
  143.3130   75.8750  219.3170 C   0  0  0  0  0  0  0  0  0  0  0  0
  146.3743   73.4534  222.6105 H   0  0  0  0  0  0  0  0  0  0  0  0
  147.0777   72.7975  221.0933 H   0  0  0  0  0  0  0  0  0  0  0  0
  146.2888   74.4113  221.0933 H   0  0  0  0  0  0  0  0  0  0  0  0
  145.0063   74.1535  219.7675 H   0  0  0  0  0  0  0  0  0  0  0  0
  144.6938   72.3214  219.3897 H   0  0  0  0  0  0  0  0  0  0  0  0
  143.0316   73.0799  218.8122 H   0  0  0  0  0  0  0  0  0  0  0  0
  142.2780   72.1830  221.3850 H   0  0  0  0  0  0  0  0  0  0  0  0
  138.9033   71.8484  220.2166 H   0  0  0  0  0  0  0  0  0  0  0  0
  139.9345   70.3823  219.7305 H   0  0  0  0  0  0  0  0  0  0  0  0
  139.7780   69.8850  221.9310 H   0  0  0  0  0  0  0  0  0  0  0  0
  141.2766   72.9161  224.9719 H   0  0  0  0  0  0  0  0  0  0  0  0
  141.4377   72.0486  227.2691 H   0  0  0  0  0  0  0  0  0  0  0  0
  141.0738   70.2268  228.8179 H   0  0  0  0  0  0  0  0  0  0  0  0
  139.3585   66.5320  227.3939 H   0  0  0  0  0  0  0  0  0  0  0  0
  139.2300   67.4832  225.0902 H   0  0  0  0  0  0  0  0  0  0  0  0
  141.2600   74.4720  221.5788 H   0  0  0  0  0  0  0  0  0  0  0  0
  140.6411   76.8482  221.9106 H   0  0  0  0  0  0  0  0  0  0  0  0
  142.1994   78.9381  222.6660 H   0  0  0  0  0  0  0  0  0  0  0  0
  141.6554   81.3489  222.9549 H   0  0  0  0  0  0  0  0  0  0  0  0
  141.1463   79.2937  218.5432 H   0  0  0  0  0  0  0  0  0  0  0  0
  144.0793   75.6166  218.5713 H   0  0  0  0  0  0  0  0  0  0  0  0
  1  2  1  0
  2  3  1  0
  3  4  1  0
  4  5  1  0
  5  6  1  0
  6  7  2  0
  6  8  1  0
  8  9  1  0
  9 10  1  0
 10 11  2  0
 10 12  1  0
 12 13  2  0
 13 14  1  0
 14 15  2  0
 15 16  1  0
 16 17  2  0
 17 18  1  0
 17 19  1  0
 19 20  2  0
 20 21  1  0
 21 22  2  0
  4 23  1  0
 23 24  2  0
 24 25  1  0
 25 26  2  0
 26 27  1  0
 27 28  2  0
 28 29  1  0
 29 30  2  0
 30 31  1  0
 31 32  1  0
 31 33  1  0
 31 34  1  0
 30 35  1  0
 35 36  2  0
 26 37  1  0
 37 38  2  0
 22 12  1  0
 38 23  1  0
 21 15  1  0
 36 27  1  0
  1 39  1  0
  1 40  1  0
  1 41  1  0
  3 42  1  0
  3 43  1  0
  4 44  1  6
  5 45  1  0
  8 46  1  0
  8 47  1  0
  9 48  1  0
 13 49  1  0
 14 50  1  0
 16 51  1  0
 19 52  1  0
 20 53  1  0
 24 54  1  0
 25 55  1  0
 28 56  1  0
 29 57  1  0
 36 58  1  0
 38 59  1  0
M  END
>  <smiles>  (20) 
COC[C@@H](NC(=O)CNC(=O)c1ccc2cc(F)ccc2n1)c1ccc(-c2ccc(C(F)(F)F)nc2)nc1

>  <score_type>  (20) 
oracle

>  <origin>  (20) 
autodockgpu

>  <m_score__min__energy>  (20) 
-8.4199999999999999

>  <m_primary>  (20) 
energy

>  <meeko>  (20) 
{"free_energy": -7.81, "intermolecular_energy": -10.5, "internal_energy": -2.75, "cluster_size": 6, "cluster_id": 2, "rank_in_cluster": 2}

>  <energy>  (20) 
-5.83

>  <cluster_rmsd>  (20) 
0.0

>  <rmsd>  (20) 
272.06

>  <cluster>  (20) 
8

$$$$
