MXOKLQPDPZBAAI-FQEVSTJZNA-N
     RDKit          3D

 54 56  0  0  0  0  0  0  0  0999 V2000
  142.6710   82.1050  217.1170 C   0  0  0  0  0  0  0  0  0  0  0  0
  142.6690   80.7860  217.8950 C   0  0  0  0  0  0  0  0  0  0  0  0
  141.3170   80.3360  218.3200 N   0  0  0  0  0  0  0  0  0  0  0  0
  140.5930   81.3470  219.1380 C   0  0  0  0  0  0  0  0  0  0  0  0
  141.4080   81.9720  220.3040 C   0  0  0  0  0  0  0  0  0  0  0  0
  141.4040   81.1220  221.5510 C   0  0  0  0  0  0  0  0  0  0  0  0
  142.5850   80.4910  221.9790 C   0  0  0  0  0  0  0  0  0  0  0  0
  142.5880   79.7120  223.1370 C   0  0  0  0  0  0  0  0  0  0  0  0
  141.4130   79.5450  223.8740 C   0  0  0  0  0  0  0  0  0  0  0  0
  140.2220   80.1460  223.4550 C   0  0  0  0  0  0  0  0  0  0  0  0
  139.0690   79.9500  224.2300 O   0  0  0  0  0  0  0  0  0  0  0  0
  137.8280   80.6120  224.0080 C   0  0  0  0  0  0  0  0  0  0  0  0
  140.2190   80.9260  222.2820 C   0  0  0  0  0  0  0  0  0  0  0  0
  141.1600   78.9070  218.7320 C   0  0  1  0  0  0  0  0  0  0  0  0
  142.5450   78.2520  218.9450 C   0  0  0  0  0  0  0  0  0  0  0  0
  142.4130   76.7490  219.1980 C   0  0  0  0  0  0  0  0  0  0  0  0
  141.3800   76.4190  220.2440 C   0  0  0  0  0  0  0  0  0  0  0  0
  141.3700   75.1310  220.8030 C   0  0  0  0  0  0  0  0  0  0  0  0
  140.3860   74.7640  221.7400 C   0  0  0  0  0  0  0  0  0  0  0  0
  140.3420   73.4900  222.3270 O   0  0  0  0  0  0  0  0  0  0  0  0
  140.9690   72.3320  221.7840 C   0  0  0  0  0  0  0  0  0  0  0  0
  139.4120   75.6960  222.1060 C   0  0  0  0  0  0  0  0  0  0  0  0
  139.4060   76.9740  221.5450 C   0  0  0  0  0  0  0  0  0  0  0  0
  140.3720   77.3420  220.5970 C   0  0  0  0  0  0  0  0  0  0  0  0
  140.3650   78.7520  220.0550 C   0  0  0  0  0  0  0  0  0  0  0  0
  142.6723   82.9477  217.8240 H   0  0  0  0  0  0  0  0  0  0  0  0
  143.5692   82.1560  216.4841 H   0  0  0  0  0  0  0  0  0  0  0  0
  141.7729   82.1587  216.4841 H   0  0  0  0  0  0  0  0  0  0  0  0
  143.1076   80.0063  217.2549 H   0  0  0  0  0  0  0  0  0  0  0  0
  143.2503   80.9574  218.8130 H   0  0  0  0  0  0  0  0  0  0  0  0
  140.2787   82.1619  218.4693 H   0  0  0  0  0  0  0  0  0  0  0  0
  139.7553   80.8112  219.6083 H   0  0  0  0  0  0  0  0  0  0  0  0
  142.4488   82.1030  219.9729 H   0  0  0  0  0  0  0  0  0  0  0  0
  140.9333   82.9309  220.5591 H   0  0  0  0  0  0  0  0  0  0  0  0
  143.5114   80.6118  221.3983 H   0  0  0  0  0  0  0  0  0  0  0  0
  143.5180   79.2282  223.4703 H   0  0  0  0  0  0  0  0  0  0  0  0
  141.4248   78.9365  224.7903 H   0  0  0  0  0  0  0  0  0  0  0  0
  137.3658   80.8586  224.9752 H   0  0  0  0  0  0  0  0  0  0  0  0
  138.0025   81.5369  223.4386 H   0  0  0  0  0  0  0  0  0  0  0  0
  137.1570   79.9520  223.4386 H   0  0  0  0  0  0  0  0  0  0  0  0
  139.2818   81.3856  221.9350 H   0  0  0  0  0  0  0  0  0  0  0  0
  140.6053   78.4157  217.9190 H   0  0  0  0  0  0  0  0  0  0  0  0
  143.1596   78.4121  218.0469 H   0  0  0  0  0  0  0  0  0  0  0  0
  143.0169   78.7133  219.8251 H   0  0  0  0  0  0  0  0  0  0  0  0
  142.1277   76.2582  218.2558 H   0  0  0  0  0  0  0  0  0  0  0  0
  143.3845   76.3901  219.5687 H   0  0  0  0  0  0  0  0  0  0  0  0
  142.1383   74.4020  220.5058 H   0  0  0  0  0  0  0  0  0  0  0  0
  141.3186   71.6863  222.6030 H   0  0  0  0  0  0  0  0  0  0  0  0
  140.2465   71.7801  221.1648 H   0  0  0  0  0  0  0  0  0  0  0  0
  141.8261   72.6354  221.1648 H   0  0  0  0  0  0  0  0  0  0  0  0
  138.6431   75.4203  222.8427 H   0  0  0  0  0  0  0  0  0  0  0  0
  138.6368   77.6991  221.8491 H   0  0  0  0  0  0  0  0  0  0  0  0
  139.3221   79.0502  219.8722 H   0  0  0  0  0  0  0  0  0  0  0  0
  140.8545   79.3908  220.8049 H   0  0  0  0  0  0  0  0  0  0  0  0
  1  2  1  0
  2  3  1  0
  3  4  1  0
  4  5  1  0
  5  6  1  0
  6  7  2  0
  7  8  1  0
  8  9  2  0
  9 10  1  0
 10 11  1  0
 11 12  1  0
 10 13  2  0
  3 14  1  0
 14 15  1  0
 15 16  1  0
 16 17  1  0
 17 18  2  0
 18 19  1  0
 19 20  1  0
 20 21  1  0
 19 22  2  0
 22 23  1  0
 23 24  2  0
 24 25  1  0
 13  6  1  0
 25 14  1  0
 24 17  1  0
  1 26  1  0
  1 27  1  0
  1 28  1  0
  2 29  1  0
  2 30  1  0
  4 31  1  0
  4 32  1  0
  5 33  1  0
  5 34  1  0
  7 35  1  0
  8 36  1  0
  9 37  1  0
 12 38  1  0
 12 39  1  0
 12 40  1  0
 13 41  1  0
 14 42  1  6
 15 43  1  0
 15 44  1  0
 16 45  1  0
 16 46  1  0
 18 47  1  0
 21 48  1  0
 21 49  1  0
 21 50  1  0
 22 51  1  0
 23 52  1  0
 25 53  1  0
 25 54  1  0
M  END
>  <UniqueID>  (1) 
25

>  <SMILES>  (1) 
CCN(CCc1cccc(OC)c1)[C@H]1CCc2cc(OC)ccc2C1

>  <Energy>  (1) 
58.419396541274445

>  <Genealogy>  (1) 
CCN(CCc1cccc(OC)c1)[C@H]1CCc2cc(OC)ccc2C1 (chirality)
CCN(CCc1cccc(OC)c1)[C@H]1CCc2cc(OC)ccc2C1 (3D coordinates assigned)
CCN(CCc1cccc(OC)c1)[C@H]1CCc2cc(OC)ccc2C1 (nonaromatic ring conformer: 58.419396541274445 kcal/mol)

>  <smiles>  (1) 
CCN(CCc1cccc(OC)c1)C1CCc2cc(OC)ccc2C1

>  <score_type>  (1) 
oracle

>  <origin>  (1) 
autodockgpu

>  <m_score__min__energy>  (1) 
-6.0700000000000003

>  <m_primary>  (1) 
energy

>  <meeko>  (1) 
{"free_energy": -5.4, "intermolecular_energy": -7.49, "internal_energy": -1.63, "cluster_size": 7, "cluster_id": 5, "rank_in_cluster": 2}

>  <energy>  (1) 
-6.07

>  <cluster_rmsd>  (1) 
0.0

>  <rmsd>  (1) 
270.74

>  <cluster>  (1) 
1

$$$$
MXOKLQPDPZBAAI-FQEVSTJZNA-N
     RDKit          3D

 54 56  0  0  0  0  0  0  0  0999 V2000
  138.8230   77.5480  220.8480 C   0  0  0  0  0  0  0  0  0  0  0  0
  139.3410   78.2650  219.5980 C   0  0  0  0  0  0  0  0  0  0  0  0
  140.8240   78.3060  219.4940 N   0  0  0  0  0  0  0  0  0  0  0  0
  141.3400   79.6000  218.9700 C   0  0  0  0  0  0  0  0  0  0  0  0
  141.8430   80.6030  220.0430 C   0  0  0  0  0  0  0  0  0  0  0  0
  141.5320   80.1660  221.4550 C   0  0  0  0  0  0  0  0  0  0  0  0
  142.4850   79.4480  222.1970 C   0  0  0  0  0  0  0  0  0  0  0  0
  142.2040   79.0500  223.5050 C   0  0  0  0  0  0  0  0  0  0  0  0
  140.9690   79.3540  224.0820 C   0  0  0  0  0  0  0  0  0  0  0  0
  139.9980   80.0490  223.3540 C   0  0  0  0  0  0  0  0  0  0  0  0
  138.7730   80.3320  223.9780 O   0  0  0  0  0  0  0  0  0  0  0  0
  137.8260   81.2790  223.4980 C   0  0  0  0  0  0  0  0  0  0  0  0
  140.2800   80.4430  222.0320 C   0  0  0  0  0  0  0  0  0  0  0  0
  141.5190   77.0690  219.0210 C   0  0  1  0  0  0  0  0  0  0  0  0
  142.3740   77.3770  217.7690 C   0  0  0  0  0  0  0  0  0  0  0  0
  142.9560   76.0960  217.1670 C   0  0  0  0  0  0  0  0  0  0  0  0
  143.6180   75.2140  218.1940 C   0  0  0  0  0  0  0  0  0  0  0  0
  144.4590   74.1780  217.7570 C   0  0  0  0  0  0  0  0  0  0  0  0
  145.0510   73.2970  218.6810 C   0  0  0  0  0  0  0  0  0  0  0  0
  145.9010   72.2530  218.2870 O   0  0  0  0  0  0  0  0  0  0  0  0
  145.5570   70.8720  218.3360 C   0  0  0  0  0  0  0  0  0  0  0  0
  144.7860   73.4580  220.0430 C   0  0  0  0  0  0  0  0  0  0  0  0
  143.9390   74.4760  220.4860 C   0  0  0  0  0  0  0  0  0  0  0  0
  143.3320   75.3480  219.5700 C   0  0  0  0  0  0  0  0  0  0  0  0
  142.4670   76.4710  220.0940 C   0  0  0  0  0  0  0  0  0  0  0  0
  139.1947   78.0625  221.7464 H   0  0  0  0  0  0  0  0  0  0  0  0
  137.7231   77.5592  220.8478 H   0  0  0  0  0  0  0  0  0  0  0  0
  139.1791   76.5072  220.8478 H   0  0  0  0  0  0  0  0  0  0  0  0
  138.9466   77.7448  218.7127 H   0  0  0  0  0  0  0  0  0  0  0  0
  138.9981   79.3080  219.6648 H   0  0  0  0  0  0  0  0  0  0  0  0
  142.1778   79.3810  218.2917 H   0  0  0  0  0  0  0  0  0  0  0  0
  140.4862   80.0881  218.4772 H   0  0  0  0  0  0  0  0  0  0  0  0
  142.9333   80.7072  219.9410 H   0  0  0  0  0  0  0  0  0  0  0  0
  141.3203   81.5556  219.8720 H   0  0  0  0  0  0  0  0  0  0  0  0
  143.4564   79.1986  221.7453 H   0  0  0  0  0  0  0  0  0  0  0  0
  142.9576   78.4952  224.0832 H   0  0  0  0  0  0  0  0  0  0  0  0
  140.7585   79.0446  225.1164 H   0  0  0  0  0  0  0  0  0  0  0  0
  137.3345   81.7705  224.3506 H   0  0  0  0  0  0  0  0  0  0  0  0
  138.3407   82.0344  222.8861 H   0  0  0  0  0  0  0  0  0  0  0  0
  137.0706   80.7643  222.8861 H   0  0  0  0  0  0  0  0  0  0  0  0
  139.5143   80.9720  221.4456 H   0  0  0  0  0  0  0  0  0  0  0  0
  140.7254   76.3414  218.7956 H   0  0  0  0  0  0  0  0  0  0  0  0
  141.7428   77.8724  217.0166 H   0  0  0  0  0  0  0  0  0  0  0  0
  143.2066   78.0306  218.0682 H   0  0  0  0  0  0  0  0  0  0  0  0
  142.1415   75.5302  216.6910 H   0  0  0  0  0  0  0  0  0  0  0  0
  143.7268   76.3930  216.4406 H   0  0  0  0  0  0  0  0  0  0  0  0
  144.6570   74.0538  216.6821 H   0  0  0  0  0  0  0  0  0  0  0  0
  145.4771   70.5510  219.3851 H   0  0  0  0  0  0  0  0  0  0  0  0
  144.5926   70.7162  217.8304 H   0  0  0  0  0  0  0  0  0  0  0  0
  146.3356   70.2820  217.8304 H   0  0  0  0  0  0  0  0  0  0  0  0
  145.2484   72.7771  220.7728 H   0  0  0  0  0  0  0  0  0  0  0  0
  143.7461   74.5951  221.5624 H   0  0  0  0  0  0  0  0  0  0  0  0
  141.8559   76.0833  220.9224 H   0  0  0  0  0  0  0  0  0  0  0  0
  143.1416   77.2773  220.4177 H   0  0  0  0  0  0  0  0  0  0  0  0
  1  2  1  0
  2  3  1  0
  3  4  1  0
  4  5  1  0
  5  6  1  0
  6  7  2  0
  7  8  1  0
  8  9  2  0
  9 10  1  0
 10 11  1  0
 11 12  1  0
 10 13  2  0
  3 14  1  0
 14 15  1  0
 15 16  1  0
 16 17  1  0
 17 18  2  0
 18 19  1  0
 19 20  1  0
 20 21  1  0
 19 22  2  0
 22 23  1  0
 23 24  2  0
 24 25  1  0
 13  6  1  0
 25 14  1  0
 24 17  1  0
  1 26  1  0
  1 27  1  0
  1 28  1  0
  2 29  1  0
  2 30  1  0
  4 31  1  0
  4 32  1  0
  5 33  1  0
  5 34  1  0
  7 35  1  0
  8 36  1  0
  9 37  1  0
 12 38  1  0
 12 39  1  0
 12 40  1  0
 13 41  1  0
 14 42  1  6
 15 43  1  0
 15 44  1  0
 16 45  1  0
 16 46  1  0
 18 47  1  0
 21 48  1  0
 21 49  1  0
 21 50  1  0
 22 51  1  0
 23 52  1  0
 25 53  1  0
 25 54  1  0
M  END
>  <UniqueID>  (2) 
25

>  <SMILES>  (2) 
CCN(CCc1cccc(OC)c1)[C@H]1CCc2cc(OC)ccc2C1

>  <Energy>  (2) 
58.419396541274445

>  <Genealogy>  (2) 
CCN(CCc1cccc(OC)c1)[C@H]1CCc2cc(OC)ccc2C1 (chirality)
CCN(CCc1cccc(OC)c1)[C@H]1CCc2cc(OC)ccc2C1 (3D coordinates assigned)
CCN(CCc1cccc(OC)c1)[C@H]1CCc2cc(OC)ccc2C1 (nonaromatic ring conformer: 58.419396541274445 kcal/mol)

>  <smiles>  (2) 
CCN(CCc1cccc(OC)c1)C1CCc2cc(OC)ccc2C1

>  <score_type>  (2) 
oracle

>  <origin>  (2) 
autodockgpu

>  <m_score__min__energy>  (2) 
-6.0700000000000003

>  <m_primary>  (2) 
energy

>  <meeko>  (2) 
{"free_energy": -5.23, "intermolecular_energy": -7.32, "internal_energy": -1.38, "cluster_size": 6, "cluster_id": 4, "rank_in_cluster": 6}

>  <energy>  (2) 
-5.67

>  <cluster_rmsd>  (2) 
1.76

>  <rmsd>  (2) 
270.51

>  <cluster>  (2) 
1

$$$$
MXOKLQPDPZBAAI-FQEVSTJZNA-N
     RDKit          3D

 54 56  0  0  0  0  0  0  0  0999 V2000
  142.7600   80.5150  223.8180 C   0  0  0  0  0  0  0  0  0  0  0  0
  141.5570   79.6190  223.5070 C   0  0  0  0  0  0  0  0  0  0  0  0
  140.7420   80.0790  222.3530 N   0  0  0  0  0  0  0  0  0  0  0  0
  139.3110   80.3010  222.6980 C   0  0  0  0  0  0  0  0  0  0  0  0
  138.5390   79.0460  223.1900 C   0  0  0  0  0  0  0  0  0  0  0  0
  138.7100   77.8510  222.2820 C   0  0  0  0  0  0  0  0  0  0  0  0
  138.1440   77.8550  220.9970 C   0  0  0  0  0  0  0  0  0  0  0  0
  138.3070   76.7570  220.1510 C   0  0  0  0  0  0  0  0  0  0  0  0
  139.0270   75.6410  220.5820 C   0  0  0  0  0  0  0  0  0  0  0  0
  139.5830   75.6070  221.8650 C   0  0  0  0  0  0  0  0  0  0  0  0
  140.2990   74.4630  222.2510 O   0  0  0  0  0  0  0  0  0  0  0  0
  140.9990   73.6100  221.3520 C   0  0  0  0  0  0  0  0  0  0  0  0
  139.4100   76.7130  222.7200 C   0  0  0  0  0  0  0  0  0  0  0  0
  141.0190   79.4620  221.0190 C   0  0  1  0  0  0  0  0  0  0  0  0
  141.8390   80.4330  220.1370 C   0  0  0  0  0  0  0  0  0  0  0  0
  141.9860   79.8960  218.7110 C   0  0  0  0  0  0  0  0  0  0  0  0
  142.4340   78.4580  218.6700 C   0  0  0  0  0  0  0  0  0  0  0  0
  142.9100   77.9310  217.4590 C   0  0  0  0  0  0  0  0  0  0  0  0
  143.2840   76.5770  217.3630 C   0  0  0  0  0  0  0  0  0  0  0  0
  143.7690   76.0120  216.1750 O   0  0  0  0  0  0  0  0  0  0  0  0
  144.0710   76.7520  214.9960 C   0  0  0  0  0  0  0  0  0  0  0  0
  143.1690   75.7570  218.4890 C   0  0  0  0  0  0  0  0  0  0  0  0
  142.6830   76.2690  219.6930 C   0  0  0  0  0  0  0  0  0  0  0  0
  142.2920   77.6120  219.7920 C   0  0  0  0  0  0  0  0  0  0  0  0
  141.8240   78.1410  221.1270 C   0  0  0  0  0  0  0  0  0  0  0  0
  142.8791   80.6037  224.9079 H   0  0  0  0  0  0  0  0  0  0  0  0
  143.6689   80.0720  223.3847 H   0  0  0  0  0  0  0  0  0  0  0  0
  142.5959   81.5126  223.3847 H   0  0  0  0  0  0  0  0  0  0  0  0
  141.9275   78.6069  223.2870 H   0  0  0  0  0  0  0  0  0  0  0  0
  140.9021   79.6482  224.3904 H   0  0  0  0  0  0  0  0  0  0  0  0
  139.2680   81.0589  223.4940 H   0  0  0  0  0  0  0  0  0  0  0  0
  138.8197   80.6106  221.7638 H   0  0  0  0  0  0  0  0  0  0  0  0
  138.9063   78.7796  224.1921 H   0  0  0  0  0  0  0  0  0  0  0  0
  137.4691   79.3014  223.1978 H   0  0  0  0  0  0  0  0  0  0  0  0
  137.5690   78.7283  220.6553 H   0  0  0  0  0  0  0  0  0  0  0  0
  137.8674   76.7708  219.1427 H   0  0  0  0  0  0  0  0  0  0  0  0
  139.1579   74.7820  219.9074 H   0  0  0  0  0  0  0  0  0  0  0  0
  141.5949   72.8839  221.9244 H   0  0  0  0  0  0  0  0  0  0  0  0
  140.2773   73.0737  220.7184 H   0  0  0  0  0  0  0  0  0  0  0  0
  141.6658   74.2132  220.7184 H   0  0  0  0  0  0  0  0  0  0  0  0
  139.8257   76.6862  223.7381 H   0  0  0  0  0  0  0  0  0  0  0  0
  140.0362   79.2478  220.5738 H   0  0  0  0  0  0  0  0  0  0  0  0
  141.3270   81.4060  220.1029 H   0  0  0  0  0  0  0  0  0  0  0  0
  142.8427   80.5378  220.5748 H   0  0  0  0  0  0  0  0  0  0  0  0
  141.0130   79.9752  218.2039 H   0  0  0  0  0  0  0  0  0  0  0  0
  142.7587   80.4972  218.2095 H   0  0  0  0  0  0  0  0  0  0  0  0
  142.9916   78.5824  216.5764 H   0  0  0  0  0  0  0  0  0  0  0  0
  144.4731   77.7373  215.2744 H   0  0  0  0  0  0  0  0  0  0  0  0
  144.8181   76.2057  214.4015 H   0  0  0  0  0  0  0  0  0  0  0  0
  143.1550   76.8845  214.4015 H   0  0  0  0  0  0  0  0  0  0  0  0
  143.4640   74.6992  218.4257 H   0  0  0  0  0  0  0  0  0  0  0  0
  142.6059   75.6128  220.5725 H   0  0  0  0  0  0  0  0  0  0  0  0
  141.1841   77.3805  221.5983 H   0  0  0  0  0  0  0  0  0  0  0  0
  142.7227   78.3566  221.7236 H   0  0  0  0  0  0  0  0  0  0  0  0
  1  2  1  0
  2  3  1  0
  3  4  1  0
  4  5  1  0
  5  6  1  0
  6  7  2  0
  7  8  1  0
  8  9  2  0
  9 10  1  0
 10 11  1  0
 11 12  1  0
 10 13  2  0
  3 14  1  0
 14 15  1  0
 15 16  1  0
 16 17  1  0
 17 18  2  0
 18 19  1  0
 19 20  1  0
 20 21  1  0
 19 22  2  0
 22 23  1  0
 23 24  2  0
 24 25  1  0
 13  6  1  0
 25 14  1  0
 24 17  1  0
  1 26  1  0
  1 27  1  0
  1 28  1  0
  2 29  1  0
  2 30  1  0
  4 31  1  0
  4 32  1  0
  5 33  1  0
  5 34  1  0
  7 35  1  0
  8 36  1  0
  9 37  1  0
 12 38  1  0
 12 39  1  0
 12 40  1  0
 13 41  1  0
 14 42  1  6
 15 43  1  0
 15 44  1  0
 16 45  1  0
 16 46  1  0
 18 47  1  0
 21 48  1  0
 21 49  1  0
 21 50  1  0
 22 51  1  0
 23 52  1  0
 25 53  1  0
 25 54  1  0
M  END
>  <UniqueID>  (3) 
25

>  <SMILES>  (3) 
CCN(CCc1cccc(OC)c1)[C@H]1CCc2cc(OC)ccc2C1

>  <Energy>  (3) 
58.419396541274445

>  <Genealogy>  (3) 
CCN(CCc1cccc(OC)c1)[C@H]1CCc2cc(OC)ccc2C1 (chirality)
CCN(CCc1cccc(OC)c1)[C@H]1CCc2cc(OC)ccc2C1 (3D coordinates assigned)
CCN(CCc1cccc(OC)c1)[C@H]1CCc2cc(OC)ccc2C1 (nonaromatic ring conformer: 58.419396541274445 kcal/mol)

>  <smiles>  (3) 
CCN(CCc1cccc(OC)c1)C1CCc2cc(OC)ccc2C1

>  <score_type>  (3) 
oracle

>  <origin>  (3) 
autodockgpu

>  <m_score__min__energy>  (3) 
-6.0700000000000003

>  <m_primary>  (3) 
energy

>  <meeko>  (3) 
{"free_energy": -4.92, "intermolecular_energy": -7.01, "internal_energy": -1.75, "cluster_size": 2, "cluster_id": 6, "rank_in_cluster": 1}

>  <energy>  (3) 
-5.57

>  <cluster_rmsd>  (3) 
1.76

>  <rmsd>  (3) 
270.79

>  <cluster>  (3) 
1

$$$$
MXOKLQPDPZBAAI-FQEVSTJZNA-N
     RDKit          3D

 54 56  0  0  0  0  0  0  0  0999 V2000
  142.9140   80.5330  223.7920 C   0  0  0  0  0  0  0  0  0  0  0  0
  141.6470   79.7090  223.5490 C   0  0  0  0  0  0  0  0  0  0  0  0
  140.8150   80.1960  222.4180 N   0  0  0  0  0  0  0  0  0  0  0  0
  139.4120   80.5020  222.8110 C   0  0  0  0  0  0  0  0  0  0  0  0
  138.5730   79.2860  223.2920 C   0  0  0  0  0  0  0  0  0  0  0  0
  138.6350   78.1120  222.3450 C   0  0  0  0  0  0  0  0  0  0  0  0
  138.0220   78.1890  221.0830 C   0  0  0  0  0  0  0  0  0  0  0  0
  138.0850   77.1090  220.2020 C   0  0  0  0  0  0  0  0  0  0  0  0
  138.7500   75.9380  220.5720 C   0  0  0  0  0  0  0  0  0  0  0  0
  139.3500   75.8310  221.8310 C   0  0  0  0  0  0  0  0  0  0  0  0
  140.0080   74.6350  222.1560 O   0  0  0  0  0  0  0  0  0  0  0  0
  140.7110   73.8230  221.2220 C   0  0  0  0  0  0  0  0  0  0  0  0
  139.2780   76.9200  222.7220 C   0  0  0  0  0  0  0  0  0  0  0  0
  141.0080   79.5460  221.0840 C   0  0  1  0  0  0  0  0  0  0  0  0
  141.7760   80.4910  220.1310 C   0  0  0  0  0  0  0  0  0  0  0  0
  141.8340   79.9200  218.7130 C   0  0  0  0  0  0  0  0  0  0  0  0
  142.2730   78.4790  218.6790 C   0  0  0  0  0  0  0  0  0  0  0  0
  142.6730   77.9210  217.4540 C   0  0  0  0  0  0  0  0  0  0  0  0
  143.0360   76.5640  217.3690 C   0  0  0  0  0  0  0  0  0  0  0  0
  143.4460   75.9680  216.1670 O   0  0  0  0  0  0  0  0  0  0  0  0
  144.0560   76.6690  215.0880 C   0  0  0  0  0  0  0  0  0  0  0  0
  142.9880   75.7720  218.5190 C   0  0  0  0  0  0  0  0  0  0  0  0
  142.5780   76.3140  219.7380 C   0  0  0  0  0  0  0  0  0  0  0  0
  142.1970   77.6620  219.8280 C   0  0  0  0  0  0  0  0  0  0  0  0
  141.8140   78.2250  221.1760 C   0  0  0  0  0  0  0  0  0  0  0  0
  143.0795   80.6406  224.8742 H   0  0  0  0  0  0  0  0  0  0  0  0
  143.7762   80.0223  223.3382 H   0  0  0  0  0  0  0  0  0  0  0  0
  142.7968   81.5282  223.3382 H   0  0  0  0  0  0  0  0  0  0  0  0
  141.9448   78.6715  223.3372 H   0  0  0  0  0  0  0  0  0  0  0  0
  141.0319   79.7972  224.4567 H   0  0  0  0  0  0  0  0  0  0  0  0
  139.4415   81.2381  223.6279 H   0  0  0  0  0  0  0  0  0  0  0  0
  138.9164   80.8704  221.9007 H   0  0  0  0  0  0  0  0  0  0  0  0
  138.9527   78.9648  224.2731 H   0  0  0  0  0  0  0  0  0  0  0  0
  137.5234   79.6112  223.3430 H   0  0  0  0  0  0  0  0  0  0  0  0
  137.4898   79.1054  220.7881 H   0  0  0  0  0  0  0  0  0  0  0  0
  137.6093   77.1801  219.2127 H   0  0  0  0  0  0  0  0  0  0  0  0
  138.8023   75.0940  219.8685 H   0  0  0  0  0  0  0  0  0  0  0  0
  141.3375   73.0993  221.7640 H   0  0  0  0  0  0  0  0  0  0  0  0
  139.9904   73.2832  220.5901 H   0  0  0  0  0  0  0  0  0  0  0  0
  141.3484   74.4589  220.5901 H   0  0  0  0  0  0  0  0  0  0  0  0
  139.7290   76.8368  223.7218 H   0  0  0  0  0  0  0  0  0  0  0  0
  139.9994   79.3263  220.7039 H   0  0  0  0  0  0  0  0  0  0  0  0
  141.2665   81.4655  220.1047 H   0  0  0  0  0  0  0  0  0  0  0  0
  142.8049   80.6009  220.5043 H   0  0  0  0  0  0  0  0  0  0  0  0
  140.8324   79.9925  218.2641 H   0  0  0  0  0  0  0  0  0  0  0  0
  142.5773   80.5050  218.1516 H   0  0  0  0  0  0  0  0  0  0  0  0
  142.7029   78.5505  216.5524 H   0  0  0  0  0  0  0  0  0  0  0  0
  144.7289   77.4423  215.4869 H   0  0  0  0  0  0  0  0  0  0  0  0
  144.6327   75.9635  214.4718 H   0  0  0  0  0  0  0  0  0  0  0  0
  143.2776   77.1427  214.4718 H   0  0  0  0  0  0  0  0  0  0  0  0
  143.2759   74.7118  218.4631 H   0  0  0  0  0  0  0  0  0  0  0  0
  142.5532   75.6793  220.6361 H   0  0  0  0  0  0  0  0  0  0  0  0
  141.2022   77.4791  221.7045 H   0  0  0  0  0  0  0  0  0  0  0  0
  142.7480   78.4507  221.7114 H   0  0  0  0  0  0  0  0  0  0  0  0
  1  2  1  0
  2  3  1  0
  3  4  1  0
  4  5  1  0
  5  6  1  0
  6  7  2  0
  7  8  1  0
  8  9  2  0
  9 10  1  0
 10 11  1  0
 11 12  1  0
 10 13  2  0
  3 14  1  0
 14 15  1  0
 15 16  1  0
 16 17  1  0
 17 18  2  0
 18 19  1  0
 19 20  1  0
 20 21  1  0
 19 22  2  0
 22 23  1  0
 23 24  2  0
 24 25  1  0
 13  6  1  0
 25 14  1  0
 24 17  1  0
  1 26  1  0
  1 27  1  0
  1 28  1  0
  2 29  1  0
  2 30  1  0
  4 31  1  0
  4 32  1  0
  5 33  1  0
  5 34  1  0
  7 35  1  0
  8 36  1  0
  9 37  1  0
 12 38  1  0
 12 39  1  0
 12 40  1  0
 13 41  1  0
 14 42  1  6
 15 43  1  0
 15 44  1  0
 16 45  1  0
 16 46  1  0
 18 47  1  0
 21 48  1  0
 21 49  1  0
 21 50  1  0
 22 51  1  0
 23 52  1  0
 25 53  1  0
 25 54  1  0
M  END
>  <UniqueID>  (4) 
25

>  <SMILES>  (4) 
CCN(CCc1cccc(OC)c1)[C@H]1CCc2cc(OC)ccc2C1

>  <Energy>  (4) 
58.419396541274445

>  <Genealogy>  (4) 
CCN(CCc1cccc(OC)c1)[C@H]1CCc2cc(OC)ccc2C1 (chirality)
CCN(CCc1cccc(OC)c1)[C@H]1CCc2cc(OC)ccc2C1 (3D coordinates assigned)
CCN(CCc1cccc(OC)c1)[C@H]1CCc2cc(OC)ccc2C1 (nonaromatic ring conformer: 58.419396541274445 kcal/mol)

>  <smiles>  (4) 
CCN(CCc1cccc(OC)c1)C1CCc2cc(OC)ccc2C1

>  <score_type>  (4) 
oracle

>  <origin>  (4) 
autodockgpu

>  <m_score__min__energy>  (4) 
-6.0700000000000003

>  <m_primary>  (4) 
energy

>  <meeko>  (4) 
{"free_energy": -4.9, "intermolecular_energy": -6.99, "internal_energy": -1.75, "cluster_size": 2, "cluster_id": 6, "rank_in_cluster": 2}

>  <energy>  (4) 
-6.02

>  <cluster_rmsd>  (4) 
0.0

>  <rmsd>  (4) 
271.19

>  <cluster>  (4) 
2

$$$$
MXOKLQPDPZBAAI-FQEVSTJZNA-N
     RDKit          3D

 54 56  0  0  0  0  0  0  0  0999 V2000
  140.9070   79.9360  216.2730 C   0  0  0  0  0  0  0  0  0  0  0  0
  140.3940   78.9330  217.3100 C   0  0  0  0  0  0  0  0  0  0  0  0
  141.4120   78.5260  218.3130 N   0  0  0  0  0  0  0  0  0  0  0  0
  142.3510   79.6230  218.6750 C   0  0  0  0  0  0  0  0  0  0  0  0
  141.8350   80.6160  219.7520 C   0  0  0  0  0  0  0  0  0  0  0  0
  141.8270   80.0300  221.1430 C   0  0  0  0  0  0  0  0  0  0  0  0
  142.3300   80.7730  222.2250 C   0  0  0  0  0  0  0  0  0  0  0  0
  142.3160   80.2380  223.5140 C   0  0  0  0  0  0  0  0  0  0  0  0
  141.8110   78.9560  223.7360 C   0  0  0  0  0  0  0  0  0  0  0  0
  141.3240   78.1900  222.6720 C   0  0  0  0  0  0  0  0  0  0  0  0
  140.8260   76.9070  222.9460 O   0  0  0  0  0  0  0  0  0  0  0  0
  140.3850   75.9860  221.9550 C   0  0  0  0  0  0  0  0  0  0  0  0
  141.3470   78.7280  221.3700 C   0  0  0  0  0  0  0  0  0  0  0  0
  142.0030   77.1570  218.1860 C   0  0  1  0  0  0  0  0  0  0  0  0
  142.9000   77.0720  216.9290 C   0  0  0  0  0  0  0  0  0  0  0  0
  143.3750   75.6380  216.6830 C   0  0  0  0  0  0  0  0  0  0  0  0
  143.9400   74.9890  217.9190 C   0  0  0  0  0  0  0  0  0  0  0  0
  144.6920   73.8110  217.7820 C   0  0  0  0  0  0  0  0  0  0  0  0
  145.1890   73.1420  218.9160 C   0  0  0  0  0  0  0  0  0  0  0  0
  145.9500   71.9660  218.8240 O   0  0  0  0  0  0  0  0  0  0  0  0
  145.4170   70.6510  218.9460 C   0  0  0  0  0  0  0  0  0  0  0  0
  144.9200   73.6590  220.1860 C   0  0  0  0  0  0  0  0  0  0  0  0
  144.1600   74.8200  220.3330 C   0  0  0  0  0  0  0  0  0  0  0  0
  143.6460   75.4840  219.2090 C   0  0  0  0  0  0  0  0  0  0  0  0
  142.8770   76.7690  219.4070 C   0  0  0  0  0  0  0  0  0  0  0  0
  141.3497   80.8015  216.7877 H   0  0  0  0  0  0  0  0  0  0  0  0
  141.6696   79.4545  215.6431 H   0  0  0  0  0  0  0  0  0  0  0  0
  140.0703   80.2725  215.6431 H   0  0  0  0  0  0  0  0  0  0  0  0
  139.5467   79.3893  217.8428 H   0  0  0  0  0  0  0  0  0  0  0  0
  140.1087   78.0243  216.7596 H   0  0  0  0  0  0  0  0  0  0  0  0
  143.2776   79.1655  219.0519 H   0  0  0  0  0  0  0  0  0  0  0  0
  142.4903   80.2161  217.7591 H   0  0  0  0  0  0  0  0  0  0  0  0
  142.4849   81.5035  219.7498 H   0  0  0  0  0  0  0  0  0  0  0  0
  140.7949   80.8662  219.4957 H   0  0  0  0  0  0  0  0  0  0  0  0
  142.7366   81.7809  222.0550 H   0  0  0  0  0  0  0  0  0  0  0  0
  142.7040   80.8283  224.3572 H   0  0  0  0  0  0  0  0  0  0  0  0
  141.7959   78.5447  224.7561 H   0  0  0  0  0  0  0  0  0  0  0  0
  139.9594   75.0972  222.4439 H   0  0  0  0  0  0  0  0  0  0  0  0
  139.6173   76.4623  221.3275 H   0  0  0  0  0  0  0  0  0  0  0  0
  141.2374   75.6865  221.3275 H   0  0  0  0  0  0  0  0  0  0  0  0
  140.9864   78.1244  220.5240 H   0  0  0  0  0  0  0  0  0  0  0  0
  141.1517   76.4637  218.1185 H   0  0  0  0  0  0  0  0  0  0  0  0
  142.3264   77.4147  216.0552 H   0  0  0  0  0  0  0  0  0  0  0  0
  143.7829   77.7086  217.0878 H   0  0  0  0  0  0  0  0  0  0  0  0
  142.5209   75.0405  216.3317 H   0  0  0  0  0  0  0  0  0  0  0  0
  144.1798   75.6801  215.9343 H   0  0  0  0  0  0  0  0  0  0  0  0
  144.8945   73.4074  216.7790 H   0  0  0  0  0  0  0  0  0  0  0  0
  145.3132   70.3948  220.0107 H   0  0  0  0  0  0  0  0  0  0  0  0
  144.4307   70.6086  218.4608 H   0  0  0  0  0  0  0  0  0  0  0  0
  146.0955   69.9339  218.4608 H   0  0  0  0  0  0  0  0  0  0  0  0
  145.3107   73.1464  221.0774 H   0  0  0  0  0  0  0  0  0  0  0  0
  143.9621   75.2182  221.3391 H   0  0  0  0  0  0  0  0  0  0  0  0
  142.2212   76.6517  220.2823 H   0  0  0  0  0  0  0  0  0  0  0  0
  143.6159   77.5719  219.5463 H   0  0  0  0  0  0  0  0  0  0  0  0
  1  2  1  0
  2  3  1  0
  3  4  1  0
  4  5  1  0
  5  6  1  0
  6  7  2  0
  7  8  1  0
  8  9  2  0
  9 10  1  0
 10 11  1  0
 11 12  1  0
 10 13  2  0
  3 14  1  0
 14 15  1  0
 15 16  1  0
 16 17  1  0
 17 18  2  0
 18 19  1  0
 19 20  1  0
 20 21  1  0
 19 22  2  0
 22 23  1  0
 23 24  2  0
 24 25  1  0
 13  6  1  0
 25 14  1  0
 24 17  1  0
  1 26  1  0
  1 27  1  0
  1 28  1  0
  2 29  1  0
  2 30  1  0
  4 31  1  0
  4 32  1  0
  5 33  1  0
  5 34  1  0
  7 35  1  0
  8 36  1  0
  9 37  1  0
 12 38  1  0
 12 39  1  0
 12 40  1  0
 13 41  1  0
 14 42  1  6
 15 43  1  0
 15 44  1  0
 16 45  1  0
 16 46  1  0
 18 47  1  0
 21 48  1  0
 21 49  1  0
 21 50  1  0
 22 51  1  0
 23 52  1  0
 25 53  1  0
 25 54  1  0
M  END
>  <UniqueID>  (5) 
25

>  <SMILES>  (5) 
CCN(CCc1cccc(OC)c1)[C@H]1CCc2cc(OC)ccc2C1

>  <Energy>  (5) 
58.419396541274445

>  <Genealogy>  (5) 
CCN(CCc1cccc(OC)c1)[C@H]1CCc2cc(OC)ccc2C1 (chirality)
CCN(CCc1cccc(OC)c1)[C@H]1CCc2cc(OC)ccc2C1 (3D coordinates assigned)
CCN(CCc1cccc(OC)c1)[C@H]1CCc2cc(OC)ccc2C1 (nonaromatic ring conformer: 58.419396541274445 kcal/mol)

>  <smiles>  (5) 
CCN(CCc1cccc(OC)c1)C1CCc2cc(OC)ccc2C1

>  <score_type>  (5) 
oracle

>  <origin>  (5) 
autodockgpu

>  <m_score__min__energy>  (5) 
-6.0700000000000003

>  <m_primary>  (5) 
energy

>  <meeko>  (5) 
{"free_energy": -5.69, "intermolecular_energy": -7.77, "internal_energy": -1.24, "cluster_size": 6, "cluster_id": 4, "rank_in_cluster": 3}

>  <energy>  (5) 
-5.88

>  <cluster_rmsd>  (5) 
0.0

>  <rmsd>  (5) 
270.25

>  <cluster>  (5) 
3

$$$$
MXOKLQPDPZBAAI-FQEVSTJZNA-N
     RDKit          3D

 54 56  0  0  0  0  0  0  0  0999 V2000
  137.4810   75.4990  222.4050 C   0  0  0  0  0  0  0  0  0  0  0  0
  138.5710   74.7850  221.6010 C   0  0  0  0  0  0  0  0  0  0  0  0
  139.9490   75.2580  221.8960 N   0  0  0  0  0  0  0  0  0  0  0  0
  140.2050   76.6490  221.4280 C   0  0  0  0  0  0  0  0  0  0  0  0
  139.6120   77.7730  222.3210 C   0  0  0  0  0  0  0  0  0  0  0  0
  140.6050   78.8680  222.6320 C   0  0  0  0  0  0  0  0  0  0  0  0
  141.5230   78.7100  223.6840 C   0  0  0  0  0  0  0  0  0  0  0  0
  142.4480   79.7150  223.9680 C   0  0  0  0  0  0  0  0  0  0  0  0
  142.4600   80.8910  223.2160 C   0  0  0  0  0  0  0  0  0  0  0  0
  141.5420   81.0780  222.1770 C   0  0  0  0  0  0  0  0  0  0  0  0
  141.5960   82.2760  221.4480 O   0  0  0  0  0  0  0  0  0  0  0  0
  140.4680   83.0970  221.1650 C   0  0  0  0  0  0  0  0  0  0  0  0
  140.6040   80.0660  221.8960 C   0  0  0  0  0  0  0  0  0  0  0  0
  141.0690   74.2810  221.7270 C   0  0  1  0  0  0  0  0  0  0  0  0
  140.5640   72.9990  221.0250 C   0  0  0  0  0  0  0  0  0  0  0  0
  141.6480   71.9190  220.9960 C   0  0  0  0  0  0  0  0  0  0  0  0
  142.9760   72.4360  220.5100 C   0  0  0  0  0  0  0  0  0  0  0  0
  143.9660   71.5130  220.1340 C   0  0  0  0  0  0  0  0  0  0  0  0
  145.2400   71.9520  219.7280 C   0  0  0  0  0  0  0  0  0  0  0  0
  146.2540   71.0650  219.3400 O   0  0  0  0  0  0  0  0  0  0  0  0
  146.0310   69.7250  218.9100 C   0  0  0  0  0  0  0  0  0  0  0  0
  145.5140   73.3220  219.7100 C   0  0  0  0  0  0  0  0  0  0  0  0
  144.5420   74.2460  220.0960 C   0  0  0  0  0  0  0  0  0  0  0  0
  143.2750   73.8150  220.5180 C   0  0  0  0  0  0  0  0  0  0  0  0
  142.2330   74.8490  220.8730 C   0  0  0  0  0  0  0  0  0  0  0  0
  137.6755   75.3716  223.4801 H   0  0  0  0  0  0  0  0  0  0  0  0
  137.4843   76.5705  222.1562 H   0  0  0  0  0  0  0  0  0  0  0  0
  136.5001   75.0679  222.1562 H   0  0  0  0  0  0  0  0  0  0  0  0
  138.5188   73.7097  221.8268 H   0  0  0  0  0  0  0  0  0  0  0  0
  138.3795   75.0054  220.5404 H   0  0  0  0  0  0  0  0  0  0  0  0
  141.2941   76.7949  221.3776 H   0  0  0  0  0  0  0  0  0  0  0  0
  139.7010   76.7384  220.4543 H   0  0  0  0  0  0  0  0  0  0  0  0
  138.7521   78.2180  221.7989 H   0  0  0  0  0  0  0  0  0  0  0  0
  139.3203   77.3133  223.2768 H   0  0  0  0  0  0  0  0  0  0  0  0
  141.5123   77.7897  224.2864 H   0  0  0  0  0  0  0  0  0  0  0  0
  143.1700   79.5803  224.7869 H   0  0  0  0  0  0  0  0  0  0  0  0
  143.1965   81.6762  223.4420 H   0  0  0  0  0  0  0  0  0  0  0  0
  140.0108   83.4298  222.1085 H   0  0  0  0  0  0  0  0  0  0  0  0
  140.7893   83.9740  220.5839 H   0  0  0  0  0  0  0  0  0  0  0  0
  139.7323   82.5216  220.5839 H   0  0  0  0  0  0  0  0  0  0  0  0
  139.8650   80.2138  221.0947 H   0  0  0  0  0  0  0  0  0  0  0  0
  141.4384   74.0647  222.7403 H   0  0  0  0  0  0  0  0  0  0  0  0
  139.6885   72.6138  221.5682 H   0  0  0  0  0  0  0  0  0  0  0  0
  140.2973   73.2521  219.9883 H   0  0  0  0  0  0  0  0  0  0  0  0
  141.7766   71.5231  222.0142 H   0  0  0  0  0  0  0  0  0  0  0  0
  141.3193   71.1396  220.2928 H   0  0  0  0  0  0  0  0  0  0  0  0
  143.7432   70.4361  220.1572 H   0  0  0  0  0  0  0  0  0  0  0  0
  145.9222   69.0714  219.7881 H   0  0  0  0  0  0  0  0  0  0  0  0
  145.1133   69.6820  218.3050 H   0  0  0  0  0  0  0  0  0  0  0  0
  146.8853   69.3871  218.3050 H   0  0  0  0  0  0  0  0  0  0  0  0
  146.5049   73.6754  219.3887 H   0  0  0  0  0  0  0  0  0  0  0  0
  144.7710   75.3216  220.0692 H   0  0  0  0  0  0  0  0  0  0  0  0
  142.7208   75.6554  221.4403 H   0  0  0  0  0  0  0  0  0  0  0  0
  141.7980   75.2097  219.9292 H   0  0  0  0  0  0  0  0  0  0  0  0
  1  2  1  0
  2  3  1  0
  3  4  1  0
  4  5  1  0
  5  6  1  0
  6  7  2  0
  7  8  1  0
  8  9  2  0
  9 10  1  0
 10 11  1  0
 11 12  1  0
 10 13  2  0
  3 14  1  0
 14 15  1  0
 15 16  1  0
 16 17  1  0
 17 18  2  0
 18 19  1  0
 19 20  1  0
 20 21  1  0
 19 22  2  0
 22 23  1  0
 23 24  2  0
 24 25  1  0
 13  6  1  0
 25 14  1  0
 24 17  1  0
  1 26  1  0
  1 27  1  0
  1 28  1  0
  2 29  1  0
  2 30  1  0
  4 31  1  0
  4 32  1  0
  5 33  1  0
  5 34  1  0
  7 35  1  0
  8 36  1  0
  9 37  1  0
 12 38  1  0
 12 39  1  0
 12 40  1  0
 13 41  1  0
 14 42  1  1
 15 43  1  0
 15 44  1  0
 16 45  1  0
 16 46  1  0
 18 47  1  0
 21 48  1  0
 21 49  1  0
 21 50  1  0
 22 51  1  0
 23 52  1  0
 25 53  1  0
 25 54  1  0
M  END
>  <UniqueID>  (6) 
25

>  <SMILES>  (6) 
CCN(CCc1cccc(OC)c1)[C@H]1CCc2cc(OC)ccc2C1

>  <Energy>  (6) 
58.419396541274445

>  <Genealogy>  (6) 
CCN(CCc1cccc(OC)c1)[C@H]1CCc2cc(OC)ccc2C1 (chirality)
CCN(CCc1cccc(OC)c1)[C@H]1CCc2cc(OC)ccc2C1 (3D coordinates assigned)
CCN(CCc1cccc(OC)c1)[C@H]1CCc2cc(OC)ccc2C1 (nonaromatic ring conformer: 58.419396541274445 kcal/mol)

>  <smiles>  (6) 
CCN(CCc1cccc(OC)c1)C1CCc2cc(OC)ccc2C1

>  <score_type>  (6) 
oracle

>  <origin>  (6) 
autodockgpu

>  <m_score__min__energy>  (6) 
-6.0700000000000003

>  <m_primary>  (6) 
energy

>  <meeko>  (6) 
{"free_energy": -6.07, "intermolecular_energy": -8.16, "internal_energy": -0.75, "cluster_size": 3, "cluster_id": 1, "rank_in_cluster": 1}

>  <energy>  (6) 
-5.86

>  <cluster_rmsd>  (6) 
0.0

>  <rmsd>  (6) 
270.62

>  <cluster>  (6) 
4

$$$$
MXOKLQPDPZBAAI-FQEVSTJZNA-N
     RDKit          3D

 54 56  0  0  0  0  0  0  0  0999 V2000
  138.6890   78.8430  220.3990 C   0  0  0  0  0  0  0  0  0  0  0  0
  139.8640   78.0520  219.8170 C   0  0  0  0  0  0  0  0  0  0  0  0
  140.0250   76.6920  220.3960 N   0  0  0  0  0  0  0  0  0  0  0  0
  139.8250   76.6570  221.8710 C   0  0  0  0  0  0  0  0  0  0  0  0
  141.0720   77.0180  222.7230 C   0  0  0  0  0  0  0  0  0  0  0  0
  141.1290   78.4800  223.0990 C   0  0  0  0  0  0  0  0  0  0  0  0
  142.3620   79.1530  223.1270 C   0  0  0  0  0  0  0  0  0  0  0  0
  142.4180   80.5060  223.4660 C   0  0  0  0  0  0  0  0  0  0  0  0
  141.2490   81.1980  223.7900 C   0  0  0  0  0  0  0  0  0  0  0  0
  140.0130   80.5420  223.7880 C   0  0  0  0  0  0  0  0  0  0  0  0
  138.8670   81.2800  224.1190 O   0  0  0  0  0  0  0  0  0  0  0  0
  137.6580   80.7120  224.6120 C   0  0  0  0  0  0  0  0  0  0  0  0
  139.9600   79.1750  223.4540 C   0  0  0  0  0  0  0  0  0  0  0  0
  141.1180   75.8300  219.8500 C   0  0  1  0  0  0  0  0  0  0  0  0
  142.4360   76.6320  219.7460 C   0  0  0  0  0  0  0  0  0  0  0  0
  143.5210   75.8240  219.0300 C   0  0  0  0  0  0  0  0  0  0  0  0
  143.6620   74.4260  219.5710 C   0  0  0  0  0  0  0  0  0  0  0  0
  144.8070   73.6830  219.2380 C   0  0  0  0  0  0  0  0  0  0  0  0
  144.9510   72.3530  219.6760 C   0  0  0  0  0  0  0  0  0  0  0  0
  146.0800   71.5780  219.3710 O   0  0  0  0  0  0  0  0  0  0  0  0
  146.0340   70.2160  218.9590 C   0  0  0  0  0  0  0  0  0  0  0  0
  143.9360   71.7740  220.4420 C   0  0  0  0  0  0  0  0  0  0  0  0
  142.7890   72.4990  220.7650 C   0  0  0  0  0  0  0  0  0  0  0  0
  142.6290   73.8200  220.3180 C   0  0  0  0  0  0  0  0  0  0  0  0
  141.3990   74.5890  220.7370 C   0  0  0  0  0  0  0  0  0  0  0  0
  138.7346   78.8123  221.4976 H   0  0  0  0  0  0  0  0  0  0  0  0
  138.7457   79.8875  220.0587 H   0  0  0  0  0  0  0  0  0  0  0  0
  137.7426   78.3974  220.0587 H   0  0  0  0  0  0  0  0  0  0  0  0
  139.7088   77.9499  218.7328 H   0  0  0  0  0  0  0  0  0  0  0  0
  140.7777   78.6126  220.0638 H   0  0  0  0  0  0  0  0  0  0  0  0
  139.0253   77.3696  222.1217 H   0  0  0  0  0  0  0  0  0  0  0  0
  139.5819   75.6131  222.1183 H   0  0  0  0  0  0  0  0  0  0  0  0
  141.0508   76.4196  223.6458 H   0  0  0  0  0  0  0  0  0  0  0  0
  141.9608   76.8012  222.1123 H   0  0  0  0  0  0  0  0  0  0  0  0
  143.2872   78.6114  222.8807 H   0  0  0  0  0  0  0  0  0  0  0  0
  143.3858   81.0287  223.4780 H   0  0  0  0  0  0  0  0  0  0  0  0
  141.3002   82.2660  224.0485 H   0  0  0  0  0  0  0  0  0  0  0  0
  137.6717   80.7184  225.7119 H   0  0  0  0  0  0  0  0  0  0  0  0
  136.8023   81.3023  224.2525 H   0  0  0  0  0  0  0  0  0  0  0  0
  137.5661   79.6765  224.2525 H   0  0  0  0  0  0  0  0  0  0  0  0
  138.9954   78.6465  223.4711 H   0  0  0  0  0  0  0  0  0  0  0  0
  140.7738   75.4944  218.8606 H   0  0  0  0  0  0  0  0  0  0  0  0
  142.2487   77.5585  219.1835 H   0  0  0  0  0  0  0  0  0  0  0  0
  142.7861   76.8599  220.7636 H   0  0  0  0  0  0  0  0  0  0  0  0
  143.2660   75.7631  217.9617 H   0  0  0  0  0  0  0  0  0  0  0  0
  144.4789   76.3397  219.1929 H   0  0  0  0  0  0  0  0  0  0  0  0
  145.5983   74.1449  218.6294 H   0  0  0  0  0  0  0  0  0  0  0  0
  146.0120   69.5653  219.8456 H   0  0  0  0  0  0  0  0  0  0  0  0
  145.1296   70.0455  218.3565 H   0  0  0  0  0  0  0  0  0  0  0  0
  146.9248   69.9849  218.3565 H   0  0  0  0  0  0  0  0  0  0  0  0
  144.0424   70.7371  220.7935 H   0  0  0  0  0  0  0  0  0  0  0  0
  142.0026   72.0313  221.3756 H   0  0  0  0  0  0  0  0  0  0  0  0
  140.5307   73.9160  220.6806 H   0  0  0  0  0  0  0  0  0  0  0  0
  141.5760   74.9535  221.7596 H   0  0  0  0  0  0  0  0  0  0  0  0
  1  2  1  0
  2  3  1  0
  3  4  1  0
  4  5  1  0
  5  6  1  0
  6  7  2  0
  7  8  1  0
  8  9  2  0
  9 10  1  0
 10 11  1  0
 11 12  1  0
 10 13  2  0
  3 14  1  0
 14 15  1  0
 15 16  1  0
 16 17  1  0
 17 18  2  0
 18 19  1  0
 19 20  1  0
 20 21  1  0
 19 22  2  0
 22 23  1  0
 23 24  2  0
 24 25  1  0
 13  6  1  0
 25 14  1  0
 24 17  1  0
  1 26  1  0
  1 27  1  0
  1 28  1  0
  2 29  1  0
  2 30  1  0
  4 31  1  0
  4 32  1  0
  5 33  1  0
  5 34  1  0
  7 35  1  0
  8 36  1  0
  9 37  1  0
 12 38  1  0
 12 39  1  0
 12 40  1  0
 13 41  1  0
 14 42  1  6
 15 43  1  0
 15 44  1  0
 16 45  1  0
 16 46  1  0
 18 47  1  0
 21 48  1  0
 21 49  1  0
 21 50  1  0
 22 51  1  0
 23 52  1  0
 25 53  1  0
 25 54  1  0
M  END
>  <UniqueID>  (7) 
25

>  <SMILES>  (7) 
CCN(CCc1cccc(OC)c1)[C@H]1CCc2cc(OC)ccc2C1

>  <Energy>  (7) 
58.419396541274445

>  <Genealogy>  (7) 
CCN(CCc1cccc(OC)c1)[C@H]1CCc2cc(OC)ccc2C1 (chirality)
CCN(CCc1cccc(OC)c1)[C@H]1CCc2cc(OC)ccc2C1 (3D coordinates assigned)
CCN(CCc1cccc(OC)c1)[C@H]1CCc2cc(OC)ccc2C1 (nonaromatic ring conformer: 58.419396541274445 kcal/mol)

>  <smiles>  (7) 
CCN(CCc1cccc(OC)c1)C1CCc2cc(OC)ccc2C1

>  <score_type>  (7) 
oracle

>  <origin>  (7) 
autodockgpu

>  <m_score__min__energy>  (7) 
-6.0700000000000003

>  <m_primary>  (7) 
energy

>  <meeko>  (7) 
{"free_energy": -5.57, "intermolecular_energy": -7.66, "internal_energy": -1.13, "cluster_size": 3, "cluster_id": 1, "rank_in_cluster": 3}

>  <energy>  (7) 
-5.84

>  <cluster_rmsd>  (7) 
0.36

>  <rmsd>  (7) 
270.55

>  <cluster>  (7) 
4

$$$$
MXOKLQPDPZBAAI-FQEVSTJZNA-N
     RDKit          3D

 54 56  0  0  0  0  0  0  0  0999 V2000
  136.7920   72.7940  222.3980 C   0  0  0  0  0  0  0  0  0  0  0  0
  138.2790   72.9170  222.0530 C   0  0  0  0  0  0  0  0  0  0  0  0
  139.0770   71.7040  222.3700 N   0  0  0  0  0  0  0  0  0  0  0  0
  138.9240   71.2530  223.7810 C   0  0  0  0  0  0  0  0  0  0  0  0
  138.7470   69.7230  223.9770 C   0  0  0  0  0  0  0  0  0  0  0  0
  139.4250   69.2040  225.2230 C   0  0  0  0  0  0  0  0  0  0  0  0
  139.5600   67.8200  225.4280 C   0  0  0  0  0  0  0  0  0  0  0  0
  140.1930   67.3370  226.5740 C   0  0  0  0  0  0  0  0  0  0  0  0
  140.6890   68.2250  227.5300 C   0  0  0  0  0  0  0  0  0  0  0  0
  140.5480   69.6060  227.3560 C   0  0  0  0  0  0  0  0  0  0  0  0
  141.0630   70.4580  228.3450 O   0  0  0  0  0  0  0  0  0  0  0  0
  141.1220   71.8760  228.2340 C   0  0  0  0  0  0  0  0  0  0  0  0
  139.9000   70.0920  226.2040 C   0  0  0  0  0  0  0  0  0  0  0  0
  140.4490   71.6030  221.7820 C   0  0  1  0  0  0  0  0  0  0  0  0
  140.4120   70.7940  220.4640 C   0  0  0  0  0  0  0  0  0  0  0  0
  141.8240   70.5310  219.9360 C   0  0  0  0  0  0  0  0  0  0  0  0
  142.6780   71.7720  219.9040 C   0  0  0  0  0  0  0  0  0  0  0  0
  143.8700   71.7540  219.1620 C   0  0  0  0  0  0  0  0  0  0  0  0
  144.7250   72.8730  219.1520 C   0  0  0  0  0  0  0  0  0  0  0  0
  145.9220   72.9000  218.4210 O   0  0  0  0  0  0  0  0  0  0  0  0
  146.0450   73.4110  217.0970 C   0  0  0  0  0  0  0  0  0  0  0  0
  144.3770   74.0030  219.8960 C   0  0  0  0  0  0  0  0  0  0  0  0
  143.2020   74.0240  220.6480 C   0  0  0  0  0  0  0  0  0  0  0  0
  142.3530   72.9070  220.6780 C   0  0  0  0  0  0  0  0  0  0  0  0
  141.0620   72.9900  221.4580 C   0  0  0  0  0  0  0  0  0  0  0  0
  136.6688   72.7838  223.4910 H   0  0  0  0  0  0  0  0  0  0  0  0
  136.2455   73.6500  221.9754 H   0  0  0  0  0  0  0  0  0  0  0  0
  136.3936   71.8598  221.9754 H   0  0  0  0  0  0  0  0  0  0  0  0
  138.3683   73.1174  220.9751 H   0  0  0  0  0  0  0  0  0  0  0  0
  138.6820   73.7327  222.6712 H   0  0  0  0  0  0  0  0  0  0  0  0
  139.8214   71.5644  224.3358 H   0  0  0  0  0  0  0  0  0  0  0  0
  137.9949   71.7144  224.1470 H   0  0  0  0  0  0  0  0  0  0  0  0
  137.6718   69.5006  224.0448 H   0  0  0  0  0  0  0  0  0  0  0  0
  139.2165   69.2250  223.1159 H   0  0  0  0  0  0  0  0  0  0  0  0
  139.1650   67.1147  224.6820 H   0  0  0  0  0  0  0  0  0  0  0  0
  140.3015   66.2528  226.7245 H   0  0  0  0  0  0  0  0  0  0  0  0
  141.1942   67.8362  228.4264 H   0  0  0  0  0  0  0  0  0  0  0  0
  141.1405   72.3220  229.2393 H   0  0  0  0  0  0  0  0  0  0  0  0
  142.0329   72.1635  227.6884 H   0  0  0  0  0  0  0  0  0  0  0  0
  140.2381   72.2382  227.6884 H   0  0  0  0  0  0  0  0  0  0  0  0
  139.7644   71.1754  226.0706 H   0  0  0  0  0  0  0  0  0  0  0  0
  141.0692   71.1040  222.5412 H   0  0  0  0  0  0  0  0  0  0  0  0
  139.9126   69.8313  220.6479 H   0  0  0  0  0  0  0  0  0  0  0  0
  139.8623   71.3788  219.7118 H   0  0  0  0  0  0  0  0  0  0  0  0
  142.3090   69.7877  220.5858 H   0  0  0  0  0  0  0  0  0  0  0  0
  141.7279   70.1694  218.9016 H   0  0  0  0  0  0  0  0  0  0  0  0
  144.1383   70.8578  218.5834 H   0  0  0  0  0  0  0  0  0  0  0  0
  146.3022   74.4797  217.1389 H   0  0  0  0  0  0  0  0  0  0  0  0
  146.8371   72.8638  216.5649 H   0  0  0  0  0  0  0  0  0  0  0  0
  145.0907   73.2841  216.5649 H   0  0  0  0  0  0  0  0  0  0  0  0
  145.0353   74.8842  219.8889 H   0  0  0  0  0  0  0  0  0  0  0  0
  142.9387   74.9243  221.2226 H   0  0  0  0  0  0  0  0  0  0  0  0
  141.2596   73.5139  222.4048 H   0  0  0  0  0  0  0  0  0  0  0  0
  140.3365   73.5273  220.8296 H   0  0  0  0  0  0  0  0  0  0  0  0
  1  2  1  0
  2  3  1  0
  3  4  1  0
  4  5  1  0
  5  6  1  0
  6  7  2  0
  7  8  1  0
  8  9  2  0
  9 10  1  0
 10 11  1  0
 11 12  1  0
 10 13  2  0
  3 14  1  0
 14 15  1  0
 15 16  1  0
 16 17  1  0
 17 18  2  0
 18 19  1  0
 19 20  1  0
 20 21  1  0
 19 22  2  0
 22 23  1  0
 23 24  2  0
 24 25  1  0
 13  6  1  0
 25 14  1  0
 24 17  1  0
  1 26  1  0
  1 27  1  0
  1 28  1  0
  2 29  1  0
  2 30  1  0
  4 31  1  0
  4 32  1  0
  5 33  1  0
  5 34  1  0
  7 35  1  0
  8 36  1  0
  9 37  1  0
 12 38  1  0
 12 39  1  0
 12 40  1  0
 13 41  1  0
 14 42  1  1
 15 43  1  0
 15 44  1  0
 16 45  1  0
 16 46  1  0
 18 47  1  0
 21 48  1  0
 21 49  1  0
 21 50  1  0
 22 51  1  0
 23 52  1  0
 25 53  1  0
 25 54  1  0
M  END
>  <UniqueID>  (8) 
25

>  <SMILES>  (8) 
CCN(CCc1cccc(OC)c1)[C@H]1CCc2cc(OC)ccc2C1

>  <Energy>  (8) 
58.419396541274445

>  <Genealogy>  (8) 
CCN(CCc1cccc(OC)c1)[C@H]1CCc2cc(OC)ccc2C1 (chirality)
CCN(CCc1cccc(OC)c1)[C@H]1CCc2cc(OC)ccc2C1 (3D coordinates assigned)
CCN(CCc1cccc(OC)c1)[C@H]1CCc2cc(OC)ccc2C1 (nonaromatic ring conformer: 58.419396541274445 kcal/mol)

>  <smiles>  (8) 
CCN(CCc1cccc(OC)c1)C1CCc2cc(OC)ccc2C1

>  <score_type>  (8) 
oracle

>  <origin>  (8) 
autodockgpu

>  <m_score__min__energy>  (8) 
-6.0700000000000003

>  <m_primary>  (8) 
energy

>  <meeko>  (8) 
{"free_energy": -5.88, "intermolecular_energy": -7.97, "internal_energy": -0.82, "cluster_size": 1, "cluster_id": 3, "rank_in_cluster": 1}

>  <energy>  (8) 
-5.69

>  <cluster_rmsd>  (8) 
1.68

>  <rmsd>  (8) 
270.09

>  <cluster>  (8) 
4

$$$$
MXOKLQPDPZBAAI-FQEVSTJZNA-N
     RDKit          3D

 54 56  0  0  0  0  0  0  0  0999 V2000
  142.5340   82.3230  217.2410 C   0  0  0  0  0  0  0  0  0  0  0  0
  142.5510   80.9050  217.8200 C   0  0  0  0  0  0  0  0  0  0  0  0
  141.2350   80.4480  218.3390 N   0  0  0  0  0  0  0  0  0  0  0  0
  140.5700   81.4500  219.2170 C   0  0  0  0  0  0  0  0  0  0  0  0
  141.4430   82.0060  220.3750 C   0  0  0  0  0  0  0  0  0  0  0  0
  141.4190   81.1340  221.6070 C   0  0  0  0  0  0  0  0  0  0  0  0
  142.5880   80.4820  222.0330 C   0  0  0  0  0  0  0  0  0  0  0  0
  142.5720   79.6830  223.1770 C   0  0  0  0  0  0  0  0  0  0  0  0
  141.3890   79.5170  223.9010 C   0  0  0  0  0  0  0  0  0  0  0  0
  140.2090   80.1400  223.4840 C   0  0  0  0  0  0  0  0  0  0  0  0
  139.0460   79.9440  224.2450 O   0  0  0  0  0  0  0  0  0  0  0  0
  137.7780   80.5150  223.9390 C   0  0  0  0  0  0  0  0  0  0  0  0
  140.2250   80.9400  222.3240 C   0  0  0  0  0  0  0  0  0  0  0  0
  141.1110   79.0140  218.7490 C   0  0  1  0  0  0  0  0  0  0  0  0
  142.5110   78.3980  218.9800 C   0  0  0  0  0  0  0  0  0  0  0  0
  142.4170   76.8910  219.2320 C   0  0  0  0  0  0  0  0  0  0  0  0
  141.3800   76.5330  220.2640 C   0  0  0  0  0  0  0  0  0  0  0  0
  141.3970   75.2450  220.8230 C   0  0  0  0  0  0  0  0  0  0  0  0
  140.4120   74.8510  221.7480 C   0  0  0  0  0  0  0  0  0  0  0  0
  140.3950   73.5770  222.3340 O   0  0  0  0  0  0  0  0  0  0  0  0
  140.1250   72.3700  221.6280 C   0  0  0  0  0  0  0  0  0  0  0  0
  139.4080   75.7570  222.1010 C   0  0  0  0  0  0  0  0  0  0  0  0
  139.3740   77.0340  221.5390 C   0  0  0  0  0  0  0  0  0  0  0  0
  140.3420   77.4280  220.6030 C   0  0  0  0  0  0  0  0  0  0  0  0
  140.3040   78.8380  220.0620 C   0  0  0  0  0  0  0  0  0  0  0  0
  142.5252   83.0544  218.0625 H   0  0  0  0  0  0  0  0  0  0  0  0
  143.4304   82.4772  216.6223 H   0  0  0  0  0  0  0  0  0  0  0  0
  141.6342   82.4557  216.6223 H   0  0  0  0  0  0  0  0  0  0  0  0
  142.8701   80.2117  217.0278 H   0  0  0  0  0  0  0  0  0  0  0  0
  143.2430   80.9186  218.6750 H   0  0  0  0  0  0  0  0  0  0  0  0
  140.2593   82.2981  218.5891 H   0  0  0  0  0  0  0  0  0  0  0  0
  139.7314   80.9235  219.6961 H   0  0  0  0  0  0  0  0  0  0  0  0
  142.4820   82.0856  220.0228 H   0  0  0  0  0  0  0  0  0  0  0  0
  141.0275   82.9844  220.6579 H   0  0  0  0  0  0  0  0  0  0  0  0
  143.5206   80.6018  221.4621 H   0  0  0  0  0  0  0  0  0  0  0  0
  143.4934   79.1826  223.5095 H   0  0  0  0  0  0  0  0  0  0  0  0
  141.3859   78.8915  224.8059 H   0  0  0  0  0  0  0  0  0  0  0  0
  137.2483   80.7535  224.8731 H   0  0  0  0  0  0  0  0  0  0  0  0
  137.9219   81.4352  223.3538 H   0  0  0  0  0  0  0  0  0  0  0  0
  137.1843   79.7973  223.3538 H   0  0  0  0  0  0  0  0  0  0  0  0
  139.2963   81.4164  221.9767 H   0  0  0  0  0  0  0  0  0  0  0  0
  140.5801   78.5072  217.9296 H   0  0  0  0  0  0  0  0  0  0  0  0
  143.1324   78.5750  218.0898 H   0  0  0  0  0  0  0  0  0  0  0  0
  142.9589   78.8724  219.8656 H   0  0  0  0  0  0  0  0  0  0  0  0
  142.1578   76.3925  218.2863 H   0  0  0  0  0  0  0  0  0  0  0  0
  143.3930   76.5589  219.6156 H   0  0  0  0  0  0  0  0  0  0  0  0
  142.1880   74.5369  220.5351 H   0  0  0  0  0  0  0  0  0  0  0  0
  139.9433   71.5575  222.3469 H   0  0  0  0  0  0  0  0  0  0  0  0
  139.2351   72.5062  220.9959 H   0  0  0  0  0  0  0  0  0  0  0  0
  140.9881   72.1140  220.9959 H   0  0  0  0  0  0  0  0  0  0  0  0
  138.6377   75.4609  222.8283 H   0  0  0  0  0  0  0  0  0  0  0  0
  138.5812   77.7378  221.8325 H   0  0  0  0  0  0  0  0  0  0  0  0
  139.2559   79.1087  219.8665 H   0  0  0  0  0  0  0  0  0  0  0  0
  140.7665   79.4894  220.8182 H   0  0  0  0  0  0  0  0  0  0  0  0
  1  2  1  0
  2  3  1  0
  3  4  1  0
  4  5  1  0
  5  6  1  0
  6  7  2  0
  7  8  1  0
  8  9  2  0
  9 10  1  0
 10 11  1  0
 11 12  1  0
 10 13  2  0
  3 14  1  0
 14 15  1  0
 15 16  1  0
 16 17  1  0
 17 18  2  0
 18 19  1  0
 19 20  1  0
 20 21  1  0
 19 22  2  0
 22 23  1  0
 23 24  2  0
 24 25  1  0
 13  6  1  0
 25 14  1  0
 24 17  1  0
  1 26  1  0
  1 27  1  0
  1 28  1  0
  2 29  1  0
  2 30  1  0
  4 31  1  0
  4 32  1  0
  5 33  1  0
  5 34  1  0
  7 35  1  0
  8 36  1  0
  9 37  1  0
 12 38  1  0
 12 39  1  0
 12 40  1  0
 13 41  1  0
 14 42  1  6
 15 43  1  0
 15 44  1  0
 16 45  1  0
 16 46  1  0
 18 47  1  0
 21 48  1  0
 21 49  1  0
 21 50  1  0
 22 51  1  0
 23 52  1  0
 25 53  1  0
 25 54  1  0
M  END
>  <UniqueID>  (9) 
25

>  <SMILES>  (9) 
CCN(CCc1cccc(OC)c1)[C@H]1CCc2cc(OC)ccc2C1

>  <Energy>  (9) 
58.419396541274445

>  <Genealogy>  (9) 
CCN(CCc1cccc(OC)c1)[C@H]1CCc2cc(OC)ccc2C1 (chirality)
CCN(CCc1cccc(OC)c1)[C@H]1CCc2cc(OC)ccc2C1 (3D coordinates assigned)
CCN(CCc1cccc(OC)c1)[C@H]1CCc2cc(OC)ccc2C1 (nonaromatic ring conformer: 58.419396541274445 kcal/mol)

>  <smiles>  (9) 
CCN(CCc1cccc(OC)c1)C1CCc2cc(OC)ccc2C1

>  <score_type>  (9) 
oracle

>  <origin>  (9) 
autodockgpu

>  <m_score__min__energy>  (9) 
-6.0700000000000003

>  <m_primary>  (9) 
energy

>  <meeko>  (9) 
{"free_energy": -5.38, "intermolecular_energy": -7.47, "internal_energy": -1.64, "cluster_size": 7, "cluster_id": 5, "rank_in_cluster": 4}

>  <energy>  (9) 
-5.59

>  <cluster_rmsd>  (9) 
0.85

>  <rmsd>  (9) 
270.33

>  <cluster>  (9) 
4

$$$$
MXOKLQPDPZBAAI-FQEVSTJZNA-N
     RDKit          3D

 54 56  0  0  0  0  0  0  0  0999 V2000
  141.9030   80.0850  217.9690 C   0  0  0  0  0  0  0  0  0  0  0  0
  142.5820   78.8650  218.5980 C   0  0  0  0  0  0  0  0  0  0  0  0
  141.6700   77.7130  218.8220 N   0  0  0  0  0  0  0  0  0  0  0  0
  140.7040   77.9360  219.9330 C   0  0  0  0  0  0  0  0  0  0  0  0
  141.2840   77.7760  221.3650 C   0  0  0  0  0  0  0  0  0  0  0  0
  141.5900   79.0960  222.0310 C   0  0  0  0  0  0  0  0  0  0  0  0
  142.1980   79.1230  223.2980 C   0  0  0  0  0  0  0  0  0  0  0  0
  142.4910   80.3410  223.9120 C   0  0  0  0  0  0  0  0  0  0  0  0
  142.1730   81.5430  223.2770 C   0  0  0  0  0  0  0  0  0  0  0  0
  141.5490   81.5400  222.0250 C   0  0  0  0  0  0  0  0  0  0  0  0
  141.2510   82.7740  221.4260 O   0  0  0  0  0  0  0  0  0  0  0  0
  139.9320   83.2560  221.1900 C   0  0  0  0  0  0  0  0  0  0  0  0
  141.2470   80.3100  221.4090 C   0  0  0  0  0  0  0  0  0  0  0  0
  142.2480   76.3380  218.7070 C   0  0  1  0  0  0  0  0  0  0  0  0
  142.9140   76.1480  217.3240 C   0  0  0  0  0  0  0  0  0  0  0  0
  143.3590   74.6990  217.1180 C   0  0  0  0  0  0  0  0  0  0  0  0
  144.1400   74.1540  218.2860 C   0  0  0  0  0  0  0  0  0  0  0  0
  144.8740   72.9690  218.1170 C   0  0  0  0  0  0  0  0  0  0  0  0
  145.5700   72.3970  219.1980 C   0  0  0  0  0  0  0  0  0  0  0  0
  146.3190   71.2170  219.0710 O   0  0  0  0  0  0  0  0  0  0  0  0
  145.7560   69.9150  218.9510 C   0  0  0  0  0  0  0  0  0  0  0  0
  145.5180   73.0180  220.4480 C   0  0  0  0  0  0  0  0  0  0  0  0
  144.7790   74.1880  220.6290 C   0  0  0  0  0  0  0  0  0  0  0  0
  144.0680   74.7560  219.5610 C   0  0  0  0  0  0  0  0  0  0  0  0
  143.3270   76.0530  219.7840 C   0  0  0  0  0  0  0  0  0  0  0  0
  141.5333   80.7493  218.7640 H   0  0  0  0  0  0  0  0  0  0  0  0
  142.6288   80.6278  217.3456 H   0  0  0  0  0  0  0  0  0  0  0  0
  141.0592   79.7542  217.3456 H   0  0  0  0  0  0  0  0  0  0  0  0
  143.3936   78.5388  217.9310 H   0  0  0  0  0  0  0  0  0  0  0  0
  142.9464   79.1789  219.5873 H   0  0  0  0  0  0  0  0  0  0  0  0
  140.3097   78.9586  219.8393 H   0  0  0  0  0  0  0  0  0  0  0  0
  139.9373   77.1541  219.8284 H   0  0  0  0  0  0  0  0  0  0  0  0
  140.5510   77.2346  221.9811 H   0  0  0  0  0  0  0  0  0  0  0  0
  142.2325   77.2263  221.2752 H   0  0  0  0  0  0  0  0  0  0  0  0
  142.4439   78.1797  223.8076 H   0  0  0  0  0  0  0  0  0  0  0  0
  142.9743   80.3543  224.9000 H   0  0  0  0  0  0  0  0  0  0  0  0
  142.4148   82.4990  223.7645 H   0  0  0  0  0  0  0  0  0  0  0  0
  139.4309   83.4391  222.1520 H   0  0  0  0  0  0  0  0  0  0  0  0
  139.9814   84.1942  220.6179 H   0  0  0  0  0  0  0  0  0  0  0  0
  139.3648   82.5070  220.6179 H   0  0  0  0  0  0  0  0  0  0  0  0
  140.7387   80.2987  220.4335 H   0  0  0  0  0  0  0  0  0  0  0  0
  141.4075   75.6422  218.8465 H   0  0  0  0  0  0  0  0  0  0  0  0
  142.1924   76.4168  216.5384 H   0  0  0  0  0  0  0  0  0  0  0  0
  143.8019   76.7953  217.2734 H   0  0  0  0  0  0  0  0  0  0  0  0
  142.4652   74.0748  216.9714 H   0  0  0  0  0  0  0  0  0  0  0  0
  144.0210   74.6785  216.2397 H   0  0  0  0  0  0  0  0  0  0  0  0
  144.9052   72.4833  217.1305 H   0  0  0  0  0  0  0  0  0  0  0  0
  145.5763   69.4994  219.9535 H   0  0  0  0  0  0  0  0  0  0  0  0
  144.8040   69.9762  218.4034 H   0  0  0  0  0  0  0  0  0  0  0  0
  146.4527   69.2633  218.4034 H   0  0  0  0  0  0  0  0  0  0  0  0
  146.0642   72.5812  221.2970 H   0  0  0  0  0  0  0  0  0  0  0  0
  144.7537   74.6692  221.6178 H   0  0  0  0  0  0  0  0  0  0  0  0
  142.8356   76.0094  220.7671 H   0  0  0  0  0  0  0  0  0  0  0  0
  144.0672   76.8645  219.7253 H   0  0  0  0  0  0  0  0  0  0  0  0
  1  2  1  0
  2  3  1  0
  3  4  1  0
  4  5  1  0
  5  6  1  0
  6  7  2  0
  7  8  1  0
  8  9  2  0
  9 10  1  0
 10 11  1  0
 11 12  1  0
 10 13  2  0
  3 14  1  0
 14 15  1  0
 15 16  1  0
 16 17  1  0
 17 18  2  0
 18 19  1  0
 19 20  1  0
 20 21  1  0
 19 22  2  0
 22 23  1  0
 23 24  2  0
 24 25  1  0
 13  6  1  0
 25 14  1  0
 24 17  1  0
  1 26  1  0
  1 27  1  0
  1 28  1  0
  2 29  1  0
  2 30  1  0
  4 31  1  0
  4 32  1  0
  5 33  1  0
  5 34  1  0
  7 35  1  0
  8 36  1  0
  9 37  1  0
 12 38  1  0
 12 39  1  0
 12 40  1  0
 13 41  1  0
 14 42  1  1
 15 43  1  0
 15 44  1  0
 16 45  1  0
 16 46  1  0
 18 47  1  0
 21 48  1  0
 21 49  1  0
 21 50  1  0
 22 51  1  0
 23 52  1  0
 25 53  1  0
 25 54  1  0
M  END
>  <UniqueID>  (10) 
25

>  <SMILES>  (10) 
CCN(CCc1cccc(OC)c1)[C@H]1CCc2cc(OC)ccc2C1

>  <Energy>  (10) 
58.419396541274445

>  <Genealogy>  (10) 
CCN(CCc1cccc(OC)c1)[C@H]1CCc2cc(OC)ccc2C1 (chirality)
CCN(CCc1cccc(OC)c1)[C@H]1CCc2cc(OC)ccc2C1 (3D coordinates assigned)
CCN(CCc1cccc(OC)c1)[C@H]1CCc2cc(OC)ccc2C1 (nonaromatic ring conformer: 58.419396541274445 kcal/mol)

>  <smiles>  (10) 
CCN(CCc1cccc(OC)c1)C1CCc2cc(OC)ccc2C1

>  <score_type>  (10) 
oracle

>  <origin>  (10) 
autodockgpu

>  <m_score__min__energy>  (10) 
-6.0700000000000003

>  <m_primary>  (10) 
energy

>  <meeko>  (10) 
{"free_energy": -5.84, "intermolecular_energy": -7.93, "internal_energy": -1.0, "cluster_size": 6, "cluster_id": 4, "rank_in_cluster": 2}

>  <energy>  (10) 
-5.57

>  <cluster_rmsd>  (10) 
1.7

>  <rmsd>  (10) 
270.08

>  <cluster>  (10) 
4

$$$$
MXOKLQPDPZBAAI-FQEVSTJZNA-N
     RDKit          3D

 54 56  0  0  0  0  0  0  0  0999 V2000
  142.5510   82.3760  217.3490 C   0  0  0  0  0  0  0  0  0  0  0  0
  142.5390   80.9090  217.7880 C   0  0  0  0  0  0  0  0  0  0  0  0
  141.2290   80.4450  218.3140 N   0  0  0  0  0  0  0  0  0  0  0  0
  140.5620   81.4460  219.1930 C   0  0  0  0  0  0  0  0  0  0  0  0
  141.4350   82.0050  220.3490 C   0  0  0  0  0  0  0  0  0  0  0  0
  141.4070   81.1380  221.5850 C   0  0  0  0  0  0  0  0  0  0  0  0
  142.5720   80.4780  222.0100 C   0  0  0  0  0  0  0  0  0  0  0  0
  142.5520   79.6830  223.1570 C   0  0  0  0  0  0  0  0  0  0  0  0
  141.3710   79.5300  223.8860 C   0  0  0  0  0  0  0  0  0  0  0  0
  140.1940   80.1620  223.4700 C   0  0  0  0  0  0  0  0  0  0  0  0
  139.0330   79.9790  224.2350 O   0  0  0  0  0  0  0  0  0  0  0  0
  137.7090   80.1810  223.7510 C   0  0  0  0  0  0  0  0  0  0  0  0
  140.2140   80.9570  222.3070 C   0  0  0  0  0  0  0  0  0  0  0  0
  141.1150   79.0130  218.7280 C   0  0  1  0  0  0  0  0  0  0  0  0
  142.5190   78.4100  218.9730 C   0  0  0  0  0  0  0  0  0  0  0  0
  142.4380   76.9030  219.2290 C   0  0  0  0  0  0  0  0  0  0  0  0
  141.3960   76.5390  220.2530 C   0  0  0  0  0  0  0  0  0  0  0  0
  141.4200   75.2530  220.8170 C   0  0  0  0  0  0  0  0  0  0  0  0
  140.4310   74.8530  221.7350 C   0  0  0  0  0  0  0  0  0  0  0  0
  140.4220   73.5800  222.3250 O   0  0  0  0  0  0  0  0  0  0  0  0
  139.4690   72.5630  222.0300 C   0  0  0  0  0  0  0  0  0  0  0  0
  139.4160   75.7490  222.0760 C   0  0  0  0  0  0  0  0  0  0  0  0
  139.3740   77.0240  221.5100 C   0  0  0  0  0  0  0  0  0  0  0  0
  140.3460   77.4250  220.5810 C   0  0  0  0  0  0  0  0  0  0  0  0
  140.2990   78.8320  220.0350 C   0  0  0  0  0  0  0  0  0  0  0  0
  142.5563   83.0246  218.2374 H   0  0  0  0  0  0  0  0  0  0  0  0
  143.4508   82.5713  216.7471 H   0  0  0  0  0  0  0  0  0  0  0  0
  141.6545   82.5860  216.7471 H   0  0  0  0  0  0  0  0  0  0  0  0
  142.8033   80.2864  216.9205 H   0  0  0  0  0  0  0  0  0  0  0  0
  143.2624   80.8179  218.6117 H   0  0  0  0  0  0  0  0  0  0  0  0
  140.2478   82.2928  218.5652 H   0  0  0  0  0  0  0  0  0  0  0  0
  139.7257   80.9172  219.6736 H   0  0  0  0  0  0  0  0  0  0  0  0
  142.4747   82.0803  219.9977 H   0  0  0  0  0  0  0  0  0  0  0  0
  141.0221   82.9859  220.6270 H   0  0  0  0  0  0  0  0  0  0  0  0
  143.5041   80.5882  221.4363 H   0  0  0  0  0  0  0  0  0  0  0  0
  143.4699   79.1751  223.4879 H   0  0  0  0  0  0  0  0  0  0  0  0
  141.3659   78.9084  224.7935 H   0  0  0  0  0  0  0  0  0  0  0  0
  137.0197   80.2862  224.6018 H   0  0  0  0  0  0  0  0  0  0  0  0
  137.6778   81.0943  223.1387 H   0  0  0  0  0  0  0  0  0  0  0  0
  137.4069   79.3186  223.1387 H   0  0  0  0  0  0  0  0  0  0  0  0
  139.2885   81.4402  221.9608 H   0  0  0  0  0  0  0  0  0  0  0  0
  140.5951   78.4999  217.9055 H   0  0  0  0  0  0  0  0  0  0  0  0
  143.1463   78.5902  218.0875 H   0  0  0  0  0  0  0  0  0  0  0  0
  142.9542   78.8910  219.8614 H   0  0  0  0  0  0  0  0  0  0  0  0
  142.1918   76.3988  218.2829 H   0  0  0  0  0  0  0  0  0  0  0  0
  143.4139   76.5814  219.6217 H   0  0  0  0  0  0  0  0  0  0  0  0
  142.2199   74.5512  220.5384 H   0  0  0  0  0  0  0  0  0  0  0  0
  139.0769   72.1445  222.9687 H   0  0  0  0  0  0  0  0  0  0  0  0
  138.6418   72.9937  221.4468 H   0  0  0  0  0  0  0  0  0  0  0  0
  139.9525   71.7655  221.4468 H   0  0  0  0  0  0  0  0  0  0  0  0
  138.6423   75.4472  222.7974 H   0  0  0  0  0  0  0  0  0  0  0  0
  138.5718   77.7207  221.7947 H   0  0  0  0  0  0  0  0  0  0  0  0
  139.2499   79.0916  219.8299 H   0  0  0  0  0  0  0  0  0  0  0  0
  140.7494   79.4898  220.7929 H   0  0  0  0  0  0  0  0  0  0  0  0
  1  2  1  0
  2  3  1  0
  3  4  1  0
  4  5  1  0
  5  6  1  0
  6  7  2  0
  7  8  1  0
  8  9  2  0
  9 10  1  0
 10 11  1  0
 11 12  1  0
 10 13  2  0
  3 14  1  0
 14 15  1  0
 15 16  1  0
 16 17  1  0
 17 18  2  0
 18 19  1  0
 19 20  1  0
 20 21  1  0
 19 22  2  0
 22 23  1  0
 23 24  2  0
 24 25  1  0
 13  6  1  0
 25 14  1  0
 24 17  1  0
  1 26  1  0
  1 27  1  0
  1 28  1  0
  2 29  1  0
  2 30  1  0
  4 31  1  0
  4 32  1  0
  5 33  1  0
  5 34  1  0
  7 35  1  0
  8 36  1  0
  9 37  1  0
 12 38  1  0
 12 39  1  0
 12 40  1  0
 13 41  1  0
 14 42  1  6
 15 43  1  0
 15 44  1  0
 16 45  1  0
 16 46  1  0
 18 47  1  0
 21 48  1  0
 21 49  1  0
 21 50  1  0
 22 51  1  0
 23 52  1  0
 25 53  1  0
 25 54  1  0
M  END
>  <UniqueID>  (11) 
25

>  <SMILES>  (11) 
CCN(CCc1cccc(OC)c1)[C@H]1CCc2cc(OC)ccc2C1

>  <Energy>  (11) 
58.419396541274445

>  <Genealogy>  (11) 
CCN(CCc1cccc(OC)c1)[C@H]1CCc2cc(OC)ccc2C1 (chirality)
CCN(CCc1cccc(OC)c1)[C@H]1CCc2cc(OC)ccc2C1 (3D coordinates assigned)
CCN(CCc1cccc(OC)c1)[C@H]1CCc2cc(OC)ccc2C1 (nonaromatic ring conformer: 58.419396541274445 kcal/mol)

>  <smiles>  (11) 
CCN(CCc1cccc(OC)c1)C1CCc2cc(OC)ccc2C1

>  <score_type>  (11) 
oracle

>  <origin>  (11) 
autodockgpu

>  <m_score__min__energy>  (11) 
-6.0700000000000003

>  <m_primary>  (11) 
energy

>  <meeko>  (11) 
{"free_energy": -5.36, "intermolecular_energy": -7.45, "internal_energy": -1.65, "cluster_size": 7, "cluster_id": 5, "rank_in_cluster": 5}

>  <energy>  (11) 
-5.23

>  <cluster_rmsd>  (11) 
1.7

>  <rmsd>  (11) 
270.35

>  <cluster>  (11) 
4

$$$$
MXOKLQPDPZBAAI-FQEVSTJZNA-N
     RDKit          3D

 54 56  0  0  0  0  0  0  0  0999 V2000
  141.9020   80.1670  218.3090 C   0  0  0  0  0  0  0  0  0  0  0  0
  142.5820   78.8090  218.5040 C   0  0  0  0  0  0  0  0  0  0  0  0
  141.6450   77.7060  218.8420 N   0  0  0  0  0  0  0  0  0  0  0  0
  140.6770   78.0670  219.9150 C   0  0  0  0  0  0  0  0  0  0  0  0
  141.1550   77.7900  221.3660 C   0  0  0  0  0  0  0  0  0  0  0  0
  141.5200   79.0470  222.1200 C   0  0  0  0  0  0  0  0  0  0  0  0
  142.2020   78.9630  223.3450 C   0  0  0  0  0  0  0  0  0  0  0  0
  142.5490   80.1220  224.0400 C   0  0  0  0  0  0  0  0  0  0  0  0
  142.2100   81.3760  223.5260 C   0  0  0  0  0  0  0  0  0  0  0  0
  141.5130   81.4830  222.3180 C   0  0  0  0  0  0  0  0  0  0  0  0
  141.1970   82.7650  221.8430 O   0  0  0  0  0  0  0  0  0  0  0  0
  140.7010   83.0400  220.5370 C   0  0  0  0  0  0  0  0  0  0  0  0
  141.1570   80.3110  221.6230 C   0  0  0  0  0  0  0  0  0  0  0  0
  142.1950   76.3150  218.8800 C   0  0  1  0  0  0  0  0  0  0  0  0
  142.5340   75.8320  217.4510 C   0  0  0  0  0  0  0  0  0  0  0  0
  142.9350   74.3550  217.4470 C   0  0  0  0  0  0  0  0  0  0  0  0
  143.9630   74.0240  218.4960 C   0  0  0  0  0  0  0  0  0  0  0  0
  144.6510   72.8030  218.4100 C   0  0  0  0  0  0  0  0  0  0  0  0
  145.5780   72.4300  219.4020 C   0  0  0  0  0  0  0  0  0  0  0  0
  146.2900   71.2220  219.3510 O   0  0  0  0  0  0  0  0  0  0  0  0
  145.7450   69.9850  218.9040 C   0  0  0  0  0  0  0  0  0  0  0  0
  145.8030   73.2880  220.4810 C   0  0  0  0  0  0  0  0  0  0  0  0
  145.1130   74.4970  220.5830 C   0  0  0  0  0  0  0  0  0  0  0  0
  144.1750   74.8680  219.6080 C   0  0  0  0  0  0  0  0  0  0  0  0
  143.4910   76.2100  219.7250 C   0  0  0  0  0  0  0  0  0  0  0  0
  141.6800   80.6103  219.2910 H   0  0  0  0  0  0  0  0  0  0  0  0
  142.5718   80.8353  217.7480 H   0  0  0  0  0  0  0  0  0  0  0  0
  140.9656   80.0310  217.7480 H   0  0  0  0  0  0  0  0  0  0  0  0
  143.1033   78.5463  217.5717 H   0  0  0  0  0  0  0  0  0  0  0  0
  143.2677   78.9164  219.3574 H   0  0  0  0  0  0  0  0  0  0  0  0
  140.4605   79.1420  219.8287 H   0  0  0  0  0  0  0  0  0  0  0  0
  139.7982   77.4243  219.7582 H   0  0  0  0  0  0  0  0  0  0  0  0
  140.3468   77.2783  221.9091 H   0  0  0  0  0  0  0  0  0  0  0  0
  142.0626   77.1720  221.2999 H   0  0  0  0  0  0  0  0  0  0  0  0
  142.4640   77.9780  223.7587 H   0  0  0  0  0  0  0  0  0  0  0  0
  143.0906   80.0482  224.9946 H   0  0  0  0  0  0  0  0  0  0  0  0
  142.4933   82.2859  224.0753 H   0  0  0  0  0  0  0  0  0  0  0  0
  139.7413   83.5721  220.6138 H   0  0  0  0  0  0  0  0  0  0  0  0
  141.4248   83.6657  219.9941 H   0  0  0  0  0  0  0  0  0  0  0  0
  140.5537   82.0947  219.9941 H   0  0  0  0  0  0  0  0  0  0  0  0
  140.5901   80.3852  220.6833 H   0  0  0  0  0  0  0  0  0  0  0  0
  141.4144   75.6910  219.3397 H   0  0  0  0  0  0  0  0  0  0  0  0
  141.6516   75.9660  216.8081 H   0  0  0  0  0  0  0  0  0  0  0  0
  143.3812   76.4242  217.0748 H   0  0  0  0  0  0  0  0  0  0  0  0
  142.0370   73.7470  217.6315 H   0  0  0  0  0  0  0  0  0  0  0  0
  143.3825   74.1372  216.4660 H   0  0  0  0  0  0  0  0  0  0  0  0
  144.4639   72.1313  217.5593 H   0  0  0  0  0  0  0  0  0  0  0  0
  145.4734   69.3685  219.7735 H   0  0  0  0  0  0  0  0  0  0  0  0
  144.8484   70.1775  218.2966 H   0  0  0  0  0  0  0  0  0  0  0  0
  146.4922   69.4533  218.2966 H   0  0  0  0  0  0  0  0  0  0  0  0
  146.5304   73.0084  221.2573 H   0  0  0  0  0  0  0  0  0  0  0  0
  145.3064   75.1648  221.4354 H   0  0  0  0  0  0  0  0  0  0  0  0
  143.2337   76.3796  220.7810 H   0  0  0  0  0  0  0  0  0  0  0  0
  144.1914   76.9666  219.3417 H   0  0  0  0  0  0  0  0  0  0  0  0
  1  2  1  0
  2  3  1  0
  3  4  1  0
  4  5  1  0
  5  6  1  0
  6  7  2  0
  7  8  1  0
  8  9  2  0
  9 10  1  0
 10 11  1  0
 11 12  1  0
 10 13  2  0
  3 14  1  0
 14 15  1  0
 15 16  1  0
 16 17  1  0
 17 18  2  0
 18 19  1  0
 19 20  1  0
 20 21  1  0
 19 22  2  0
 22 23  1  0
 23 24  2  0
 24 25  1  0
 13  6  1  0
 25 14  1  0
 24 17  1  0
  1 26  1  0
  1 27  1  0
  1 28  1  0
  2 29  1  0
  2 30  1  0
  4 31  1  0
  4 32  1  0
  5 33  1  0
  5 34  1  0
  7 35  1  0
  8 36  1  0
  9 37  1  0
 12 38  1  0
 12 39  1  0
 12 40  1  0
 13 41  1  0
 14 42  1  1
 15 43  1  0
 15 44  1  0
 16 45  1  0
 16 46  1  0
 18 47  1  0
 21 48  1  0
 21 49  1  0
 21 50  1  0
 22 51  1  0
 23 52  1  0
 25 53  1  0
 25 54  1  0
M  END
>  <UniqueID>  (12) 
25

>  <SMILES>  (12) 
CCN(CCc1cccc(OC)c1)[C@H]1CCc2cc(OC)ccc2C1

>  <Energy>  (12) 
58.419396541274445

>  <Genealogy>  (12) 
CCN(CCc1cccc(OC)c1)[C@H]1CCc2cc(OC)ccc2C1 (chirality)
CCN(CCc1cccc(OC)c1)[C@H]1CCc2cc(OC)ccc2C1 (3D coordinates assigned)
CCN(CCc1cccc(OC)c1)[C@H]1CCc2cc(OC)ccc2C1 (nonaromatic ring conformer: 58.419396541274445 kcal/mol)

>  <smiles>  (12) 
CCN(CCc1cccc(OC)c1)C1CCc2cc(OC)ccc2C1

>  <score_type>  (12) 
oracle

>  <origin>  (12) 
autodockgpu

>  <m_score__min__energy>  (12) 
-6.0700000000000003

>  <m_primary>  (12) 
energy

>  <meeko>  (12) 
{"free_energy": -5.86, "intermolecular_energy": -7.95, "internal_energy": -1.07, "cluster_size": 6, "cluster_id": 4, "rank_in_cluster": 1}

>  <energy>  (12) 
-5.42

>  <cluster_rmsd>  (12) 
0.0

>  <rmsd>  (12) 
270.69

>  <cluster>  (12) 
5

$$$$
MXOKLQPDPZBAAI-FQEVSTJZNA-N
     RDKit          3D

 54 56  0  0  0  0  0  0  0  0999 V2000
  141.9600   80.9920  217.9740 C   0  0  0  0  0  0  0  0  0  0  0  0
  142.4830   79.6420  218.4740 C   0  0  0  0  0  0  0  0  0  0  0  0
  141.5190   78.5220  218.3150 N   0  0  0  0  0  0  0  0  0  0  0  0
  140.3050   78.6690  219.1630 C   0  0  0  0  0  0  0  0  0  0  0  0
  140.4380   78.1410  220.6170 C   0  0  0  0  0  0  0  0  0  0  0  0
  141.0820   79.1360  221.5520 C   0  0  0  0  0  0  0  0  0  0  0  0
  141.8000   78.6880  222.6740 C   0  0  0  0  0  0  0  0  0  0  0  0
  142.4050   79.6040  223.5350 C   0  0  0  0  0  0  0  0  0  0  0  0
  142.2920   80.9750  223.2940 C   0  0  0  0  0  0  0  0  0  0  0  0
  141.5650   81.4440  222.1950 C   0  0  0  0  0  0  0  0  0  0  0  0
  141.4810   82.8300  221.9940 O   0  0  0  0  0  0  0  0  0  0  0  0
  140.7170   83.4500  220.9650 C   0  0  0  0  0  0  0  0  0  0  0  0
  140.9480   80.5180  221.3310 C   0  0  0  0  0  0  0  0  0  0  0  0
  142.0770   77.1410  218.1810 C   0  0  1  0  0  0  0  0  0  0  0  0
  142.9240   77.0240  216.8920 C   0  0  0  0  0  0  0  0  0  0  0  0
  143.3620   75.5780  216.6460 C   0  0  0  0  0  0  0  0  0  0  0  0
  143.9600   74.9310  217.8680 C   0  0  0  0  0  0  0  0  0  0  0  0
  144.6830   73.7370  217.7160 C   0  0  0  0  0  0  0  0  0  0  0  0
  145.2100   73.0700  218.8380 C   0  0  0  0  0  0  0  0  0  0  0  0
  145.9430   71.8790  218.7310 O   0  0  0  0  0  0  0  0  0  0  0  0
  145.4500   70.5940  219.1000 C   0  0  0  0  0  0  0  0  0  0  0  0
  144.9990   73.6060  220.1110 C   0  0  0  0  0  0  0  0  0  0  0  0
  144.2680   74.7840  220.2720 C   0  0  0  0  0  0  0  0  0  0  0  0
  143.7250   75.4460  219.1610 C   0  0  0  0  0  0  0  0  0  0  0  0
  142.9900   76.7480  219.3730 C   0  0  0  0  0  0  0  0  0  0  0  0
  141.7125   81.6309  218.8346 H   0  0  0  0  0  0  0  0  0  0  0  0
  142.7335   81.4818  217.3642 H   0  0  0  0  0  0  0  0  0  0  0  0
  141.0585   80.8329  217.3642 H   0  0  0  0  0  0  0  0  0  0  0  0
  143.3955   79.3951  217.9115 H   0  0  0  0  0  0  0  0  0  0  0  0
  142.6663   79.7524  219.5530 H   0  0  0  0  0  0  0  0  0  0  0  0
  140.0535   79.7387  219.2125 H   0  0  0  0  0  0  0  0  0  0  0  0
  139.5278   78.0526  218.6875 H   0  0  0  0  0  0  0  0  0  0  0  0
  139.4332   77.9036  220.9965 H   0  0  0  0  0  0  0  0  0  0  0  0
  141.0868   77.2533  220.5854 H   0  0  0  0  0  0  0  0  0  0  0  0
  141.8854   77.6098  222.8743 H   0  0  0  0  0  0  0  0  0  0  0  0
  142.9727   79.2453  224.4063 H   0  0  0  0  0  0  0  0  0  0  0  0
  142.7781   81.6909  223.9731 H   0  0  0  0  0  0  0  0  0  0  0  0
  139.9382   84.0820  221.4167 H   0  0  0  0  0  0  0  0  0  0  0  0
  141.3772   84.0709  220.3416 H   0  0  0  0  0  0  0  0  0  0  0  0
  140.2453   82.6761  220.3416 H   0  0  0  0  0  0  0  0  0  0  0  0
  140.3567   80.8791  220.4766 H   0  0  0  0  0  0  0  0  0  0  0  0
  141.2097   76.4649  218.1534 H   0  0  0  0  0  0  0  0  0  0  0  0
  142.3243   77.3676  216.0363 H   0  0  0  0  0  0  0  0  0  0  0  0
  143.8242   77.6451  217.0095 H   0  0  0  0  0  0  0  0  0  0  0  0
  142.4841   74.9936  216.3334 H   0  0  0  0  0  0  0  0  0  0  0  0
  144.1395   75.5962  215.8681 H   0  0  0  0  0  0  0  0  0  0  0  0
  144.8391   73.3188  216.7106 H   0  0  0  0  0  0  0  0  0  0  0  0
  145.4193   70.5141  220.1967 H   0  0  0  0  0  0  0  0  0  0  0  0
  144.4365   70.4597  218.6941 H   0  0  0  0  0  0  0  0  0  0  0  0
  146.1136   69.8163  218.6941 H   0  0  0  0  0  0  0  0  0  0  0  0
  145.4123   73.0955  220.9933 H   0  0  0  0  0  0  0  0  0  0  0  0
  144.1162   75.1973  221.2800 H   0  0  0  0  0  0  0  0  0  0  0  0
  142.3660   76.6536  220.2739 H   0  0  0  0  0  0  0  0  0  0  0  0
  143.7496   77.5371  219.4745 H   0  0  0  0  0  0  0  0  0  0  0  0
  1  2  1  0
  2  3  1  0
  3  4  1  0
  4  5  1  0
  5  6  1  0
  6  7  2  0
  7  8  1  0
  8  9  2  0
  9 10  1  0
 10 11  1  0
 11 12  1  0
 10 13  2  0
  3 14  1  0
 14 15  1  0
 15 16  1  0
 16 17  1  0
 17 18  2  0
 18 19  1  0
 19 20  1  0
 20 21  1  0
 19 22  2  0
 22 23  1  0
 23 24  2  0
 24 25  1  0
 13  6  1  0
 25 14  1  0
 24 17  1  0
  1 26  1  0
  1 27  1  0
  1 28  1  0
  2 29  1  0
  2 30  1  0
  4 31  1  0
  4 32  1  0
  5 33  1  0
  5 34  1  0
  7 35  1  0
  8 36  1  0
  9 37  1  0
 12 38  1  0
 12 39  1  0
 12 40  1  0
 13 41  1  0
 14 42  1  6
 15 43  1  0
 15 44  1  0
 16 45  1  0
 16 46  1  0
 18 47  1  0
 21 48  1  0
 21 49  1  0
 21 50  1  0
 22 51  1  0
 23 52  1  0
 25 53  1  0
 25 54  1  0
M  END
>  <UniqueID>  (13) 
25

>  <SMILES>  (13) 
CCN(CCc1cccc(OC)c1)[C@H]1CCc2cc(OC)ccc2C1

>  <Energy>  (13) 
58.419396541274445

>  <Genealogy>  (13) 
CCN(CCc1cccc(OC)c1)[C@H]1CCc2cc(OC)ccc2C1 (chirality)
CCN(CCc1cccc(OC)c1)[C@H]1CCc2cc(OC)ccc2C1 (3D coordinates assigned)
CCN(CCc1cccc(OC)c1)[C@H]1CCc2cc(OC)ccc2C1 (nonaromatic ring conformer: 58.419396541274445 kcal/mol)

>  <smiles>  (13) 
CCN(CCc1cccc(OC)c1)C1CCc2cc(OC)ccc2C1

>  <score_type>  (13) 
oracle

>  <origin>  (13) 
autodockgpu

>  <m_score__min__energy>  (13) 
-6.0700000000000003

>  <m_primary>  (13) 
energy

>  <meeko>  (13) 
{"free_energy": -5.59, "intermolecular_energy": -7.68, "internal_energy": -1.18, "cluster_size": 6, "cluster_id": 4, "rank_in_cluster": 4}

>  <energy>  (13) 
-5.4

>  <cluster_rmsd>  (13) 
0.19

>  <rmsd>  (13) 
270.69

>  <cluster>  (13) 
5

$$$$
MXOKLQPDPZBAAI-FQEVSTJZNA-N
     RDKit          3D

 54 56  0  0  0  0  0  0  0  0999 V2000
  143.0200   74.5050  220.4560 C   0  0  0  0  0  0  0  0  0  0  0  0
  141.5940   73.9560  220.3630 C   0  0  0  0  0  0  0  0  0  0  0  0
  140.7540   74.2480  221.5550 N   0  0  0  0  0  0  0  0  0  0  0  0
  139.9100   73.0950  221.9730 C   0  0  0  0  0  0  0  0  0  0  0  0
  140.6780   71.7790  222.2750 C   0  0  0  0  0  0  0  0  0  0  0  0
  140.2800   71.1480  223.5870 C   0  0  0  0  0  0  0  0  0  0  0  0
  139.2740   70.1680  223.6220 C   0  0  0  0  0  0  0  0  0  0  0  0
  138.9090   69.5760  224.8320 C   0  0  0  0  0  0  0  0  0  0  0  0
  139.5360   69.9600  226.0190 C   0  0  0  0  0  0  0  0  0  0  0  0
  140.5270   70.9480  226.0110 C   0  0  0  0  0  0  0  0  0  0  0  0
  141.1280   71.2990  227.2290 O   0  0  0  0  0  0  0  0  0  0  0  0
  140.4230   71.7940  228.3620 C   0  0  0  0  0  0  0  0  0  0  0  0
  140.8870   71.5510  224.7900 C   0  0  0  0  0  0  0  0  0  0  0  0
  140.1260   75.6020  221.6460 C   0  0  1  0  0  0  0  0  0  0  0  0
  138.7380   75.5080  222.3200 C   0  0  0  0  0  0  0  0  0  0  0  0
  138.0050   76.8510  222.2690 C   0  0  0  0  0  0  0  0  0  0  0  0
  138.8620   78.0030  222.7240 C   0  0  0  0  0  0  0  0  0  0  0  0
  138.2440   79.2270  223.0290 C   0  0  0  0  0  0  0  0  0  0  0  0
  139.0140   80.3450  223.4020 C   0  0  0  0  0  0  0  0  0  0  0  0
  138.4380   81.5840  223.7200 O   0  0  0  0  0  0  0  0  0  0  0  0
  137.2880   81.7490  224.5440 C   0  0  0  0  0  0  0  0  0  0  0  0
  140.4050   80.2260  223.4600 C   0  0  0  0  0  0  0  0  0  0  0  0
  141.0280   79.0180  223.1440 C   0  0  0  0  0  0  0  0  0  0  0  0
  140.2700   77.9040  222.7540 C   0  0  0  0  0  0  0  0  0  0  0  0
  140.9780   76.5990  222.4750 C   0  0  0  0  0  0  0  0  0  0  0  0
  143.3028   74.6139  221.5134 H   0  0  0  0  0  0  0  0  0  0  0  0
  143.7136   73.8096  219.9607 H   0  0  0  0  0  0  0  0  0  0  0  0
  143.0683   75.4860  219.9607 H   0  0  0  0  0  0  0  0  0  0  0  0
  141.1092   74.4002  219.4811 H   0  0  0  0  0  0  0  0  0  0  0  0
  141.6785   72.8614  220.2939 H   0  0  0  0  0  0  0  0  0  0  0  0
  139.3654   73.3861  222.8833 H   0  0  0  0  0  0  0  0  0  0  0  0
  139.2559   72.8734  221.1168 H   0  0  0  0  0  0  0  0  0  0  0  0
  140.4750   71.0619  221.4660 H   0  0  0  0  0  0  0  0  0  0  0  0
  141.7464   72.0315  222.3437 H   0  0  0  0  0  0  0  0  0  0  0  0
  138.7716   69.8658  222.6913 H   0  0  0  0  0  0  0  0  0  0  0  0
  138.1250   68.8046  224.8506 H   0  0  0  0  0  0  0  0  0  0  0  0
  139.2489   69.4824  226.9674 H   0  0  0  0  0  0  0  0  0  0  0  0
  140.9170   71.4471  229.2816 H   0  0  0  0  0  0  0  0  0  0  0  0
  140.4196   72.8938  228.3400 H   0  0  0  0  0  0  0  0  0  0  0  0
  139.3875   71.4237  228.3400 H   0  0  0  0  0  0  0  0  0  0  0  0
  141.6494   72.3439  224.7772 H   0  0  0  0  0  0  0  0  0  0  0  0
  140.0451   75.9698  220.6125 H   0  0  0  0  0  0  0  0  0  0  0  0
  138.1358   74.7506  221.7969 H   0  0  0  0  0  0  0  0  0  0  0  0
  138.8813   75.2295  223.3745 H   0  0  0  0  0  0  0  0  0  0  0  0
  137.6864   77.0381  221.2329 H   0  0  0  0  0  0  0  0  0  0  0  0
  137.1475   76.7858  222.9549 H   0  0  0  0  0  0  0  0  0  0  0  0
  137.1486   79.3127  222.9760 H   0  0  0  0  0  0  0  0  0  0  0  0
  137.5858   81.7063  225.6021 H   0  0  0  0  0  0  0  0  0  0  0  0
  136.8226   82.7231  224.3332 H   0  0  0  0  0  0  0  0  0  0  0  0
  136.5674   80.9450  224.3332 H   0  0  0  0  0  0  0  0  0  0  0  0
  141.0143   81.0922  223.7574 H   0  0  0  0  0  0  0  0  0  0  0  0
  142.1236   78.9386  223.2013 H   0  0  0  0  0  0  0  0  0  0  0  0
  141.9018   76.8153  221.9184 H   0  0  0  0  0  0  0  0  0  0  0  0
  141.1801   76.1245  223.4466 H   0  0  0  0  0  0  0  0  0  0  0  0
  1  2  1  0
  2  3  1  0
  3  4  1  0
  4  5  1  0
  5  6  1  0
  6  7  2  0
  7  8  1  0
  8  9  2  0
  9 10  1  0
 10 11  1  0
 11 12  1  0
 10 13  2  0
  3 14  1  0
 14 15  1  0
 15 16  1  0
 16 17  1  0
 17 18  2  0
 18 19  1  0
 19 20  1  0
 20 21  1  0
 19 22  2  0
 22 23  1  0
 23 24  2  0
 24 25  1  0
 13  6  1  0
 25 14  1  0
 24 17  1  0
  1 26  1  0
  1 27  1  0
  1 28  1  0
  2 29  1  0
  2 30  1  0
  4 31  1  0
  4 32  1  0
  5 33  1  0
  5 34  1  0
  7 35  1  0
  8 36  1  0
  9 37  1  0
 12 38  1  0
 12 39  1  0
 12 40  1  0
 13 41  1  0
 14 42  1  6
 15 43  1  0
 15 44  1  0
 16 45  1  0
 16 46  1  0
 18 47  1  0
 21 48  1  0
 21 49  1  0
 21 50  1  0
 22 51  1  0
 23 52  1  0
 25 53  1  0
 25 54  1  0
M  END
>  <UniqueID>  (14) 
25

>  <SMILES>  (14) 
CCN(CCc1cccc(OC)c1)[C@H]1CCc2cc(OC)ccc2C1

>  <Energy>  (14) 
58.419396541274445

>  <Genealogy>  (14) 
CCN(CCc1cccc(OC)c1)[C@H]1CCc2cc(OC)ccc2C1 (chirality)
CCN(CCc1cccc(OC)c1)[C@H]1CCc2cc(OC)ccc2C1 (3D coordinates assigned)
CCN(CCc1cccc(OC)c1)[C@H]1CCc2cc(OC)ccc2C1 (nonaromatic ring conformer: 58.419396541274445 kcal/mol)

>  <smiles>  (14) 
CCN(CCc1cccc(OC)c1)C1CCc2cc(OC)ccc2C1

>  <score_type>  (14) 
oracle

>  <origin>  (14) 
autodockgpu

>  <m_score__min__energy>  (14) 
-6.0700000000000003

>  <m_primary>  (14) 
energy

>  <meeko>  (14) 
{"free_energy": -6.02, "intermolecular_energy": -8.11, "internal_energy": -0.8, "cluster_size": 1, "cluster_id": 2, "rank_in_cluster": 1}

>  <energy>  (14) 
-5.39

>  <cluster_rmsd>  (14) 
0.21

>  <rmsd>  (14) 
270.69

>  <cluster>  (14) 
5

$$$$
MXOKLQPDPZBAAI-FQEVSTJZNA-N
     RDKit          3D

 54 56  0  0  0  0  0  0  0  0999 V2000
  142.0450   80.9630  216.4250 C   0  0  0  0  0  0  0  0  0  0  0  0
  142.0270   81.3190  217.9150 C   0  0  0  0  0  0  0  0  0  0  0  0
  140.8270   80.8250  218.6410 N   0  0  0  0  0  0  0  0  0  0  0  0
  140.3330   81.7780  219.6730 C   0  0  0  0  0  0  0  0  0  0  0  0
  141.3600   82.1640  220.7720 C   0  0  0  0  0  0  0  0  0  0  0  0
  141.4000   81.1800  221.9170 C   0  0  0  0  0  0  0  0  0  0  0  0
  142.5910   80.4990  222.2200 C   0  0  0  0  0  0  0  0  0  0  0  0
  142.6350   79.5960  223.2840 C   0  0  0  0  0  0  0  0  0  0  0  0
  141.4910   79.3550  224.0480 C   0  0  0  0  0  0  0  0  0  0  0  0
  140.2900   80.0070  223.7510 C   0  0  0  0  0  0  0  0  0  0  0  0
  139.1680   79.7340  224.5490 O   0  0  0  0  0  0  0  0  0  0  0  0
  137.9890   80.5310  224.5810 C   0  0  0  0  0  0  0  0  0  0  0  0
  140.2450   80.9120  222.6720 C   0  0  0  0  0  0  0  0  0  0  0  0
  140.7800   79.3730  218.9960 C   0  0  1  0  0  0  0  0  0  0  0  0
  142.1990   78.8530  219.3250 C   0  0  0  0  0  0  0  0  0  0  0  0
  142.2000   77.3350  219.5220 C   0  0  0  0  0  0  0  0  0  0  0  0
  141.1130   76.8640  220.4520 C   0  0  0  0  0  0  0  0  0  0  0  0
  141.1830   75.5610  220.9720 C   0  0  0  0  0  0  0  0  0  0  0  0
  140.1580   75.0630  221.7980 C   0  0  0  0  0  0  0  0  0  0  0  0
  140.1910   73.7700  222.3420 O   0  0  0  0  0  0  0  0  0  0  0  0
  139.2640   72.7380  222.0210 C   0  0  0  0  0  0  0  0  0  0  0  0
  139.0630   75.8790  222.0930 C   0  0  0  0  0  0  0  0  0  0  0  0
  138.9780   77.1690  221.5690 C   0  0  0  0  0  0  0  0  0  0  0  0
  139.9860   77.6680  220.7300 C   0  0  0  0  0  0  0  0  0  0  0  0
  139.8850   79.0890  220.2300 C   0  0  0  0  0  0  0  0  0  0  0  0
  142.1003   79.8705  216.3097 H   0  0  0  0  0  0  0  0  0  0  0  0
  141.1268   81.3361  215.9477 H   0  0  0  0  0  0  0  0  0  0  0  0
  142.9208   81.4268  215.9477 H   0  0  0  0  0  0  0  0  0  0  0  0
  142.9201   80.8822  218.3857 H   0  0  0  0  0  0  0  0  0  0  0  0
  142.0080   82.4169  217.9794 H   0  0  0  0  0  0  0  0  0  0  0  0
  140.0214   82.7005  219.1611 H   0  0  0  0  0  0  0  0  0  0  0  0
  139.5131   81.2615  220.1936 H   0  0  0  0  0  0  0  0  0  0  0  0
  142.3598   82.2112  220.3158 H   0  0  0  0  0  0  0  0  0  0  0  0
  141.0495   83.1352  221.1847 H   0  0  0  0  0  0  0  0  0  0  0  0
  143.4929   80.6781  221.6162 H   0  0  0  0  0  0  0  0  0  0  0  0
  143.5732   79.0730  223.5211 H   0  0  0  0  0  0  0  0  0  0  0  0
  141.5349   78.6475  224.8891 H   0  0  0  0  0  0  0  0  0  0  0  0
  137.7046   80.7232  225.6261 H   0  0  0  0  0  0  0  0  0  0  0  0
  138.1786   81.4869  224.0708 H   0  0  0  0  0  0  0  0  0  0  0  0
  137.1727   79.9987  224.0708 H   0  0  0  0  0  0  0  0  0  0  0  0
  139.2989   81.4126  222.4185 H   0  0  0  0  0  0  0  0  0  0  0  0
  140.3576   78.8598  218.1196 H   0  0  0  0  0  0  0  0  0  0  0  0
  142.8757   79.1077  218.4960 H   0  0  0  0  0  0  0  0  0  0  0  0
  142.5355   79.3259  220.2594 H   0  0  0  0  0  0  0  0  0  0  0  0
  142.0573   76.8539  218.5431 H   0  0  0  0  0  0  0  0  0  0  0  0
  143.1640   77.0617  219.9758 H   0  0  0  0  0  0  0  0  0  0  0  0
  142.0469   74.9239  220.7314 H   0  0  0  0  0  0  0  0  0  0  0  0
  138.8691   72.2983  222.9487 H   0  0  0  0  0  0  0  0  0  0  0  0
  138.4352   73.1594  221.4331 H   0  0  0  0  0  0  0  0  0  0  0  0
  139.7716   71.9590  221.4331 H   0  0  0  0  0  0  0  0  0  0  0  0
  138.2610   75.5010  222.7441 H   0  0  0  0  0  0  0  0  0  0  0  0
  138.1124   77.8012  221.8159 H   0  0  0  0  0  0  0  0  0  0  0  0
  138.8387   79.2883  219.9551 H   0  0  0  0  0  0  0  0  0  0  0  0
  140.2338   79.7443  221.0417 H   0  0  0  0  0  0  0  0  0  0  0  0
  1  2  1  0
  2  3  1  0
  3  4  1  0
  4  5  1  0
  5  6  1  0
  6  7  2  0
  7  8  1  0
  8  9  2  0
  9 10  1  0
 10 11  1  0
 11 12  1  0
 10 13  2  0
  3 14  1  0
 14 15  1  0
 15 16  1  0
 16 17  1  0
 17 18  2  0
 18 19  1  0
 19 20  1  0
 20 21  1  0
 19 22  2  0
 22 23  1  0
 23 24  2  0
 24 25  1  0
 13  6  1  0
 25 14  1  0
 24 17  1  0
  1 26  1  0
  1 27  1  0
  1 28  1  0
  2 29  1  0
  2 30  1  0
  4 31  1  0
  4 32  1  0
  5 33  1  0
  5 34  1  0
  7 35  1  0
  8 36  1  0
  9 37  1  0
 12 38  1  0
 12 39  1  0
 12 40  1  0
 13 41  1  0
 14 42  1  6
 15 43  1  0
 15 44  1  0
 16 45  1  0
 16 46  1  0
 18 47  1  0
 21 48  1  0
 21 49  1  0
 21 50  1  0
 22 51  1  0
 23 52  1  0
 25 53  1  0
 25 54  1  0
M  END
>  <UniqueID>  (15) 
25

>  <SMILES>  (15) 
CCN(CCc1cccc(OC)c1)[C@H]1CCc2cc(OC)ccc2C1

>  <Energy>  (15) 
58.419396541274445

>  <Genealogy>  (15) 
CCN(CCc1cccc(OC)c1)[C@H]1CCc2cc(OC)ccc2C1 (chirality)
CCN(CCc1cccc(OC)c1)[C@H]1CCc2cc(OC)ccc2C1 (3D coordinates assigned)
CCN(CCc1cccc(OC)c1)[C@H]1CCc2cc(OC)ccc2C1 (nonaromatic ring conformer: 58.419396541274445 kcal/mol)

>  <smiles>  (15) 
CCN(CCc1cccc(OC)c1)C1CCc2cc(OC)ccc2C1

>  <score_type>  (15) 
oracle

>  <origin>  (15) 
autodockgpu

>  <m_score__min__energy>  (15) 
-6.0700000000000003

>  <m_primary>  (15) 
energy

>  <meeko>  (15) 
{"free_energy": -5.16, "intermolecular_energy": -7.25, "internal_energy": -1.81, "cluster_size": 7, "cluster_id": 5, "rank_in_cluster": 7}

>  <energy>  (15) 
-5.38

>  <cluster_rmsd>  (15) 
0.13

>  <rmsd>  (15) 
270.7

>  <cluster>  (15) 
5

$$$$
MXOKLQPDPZBAAI-FQEVSTJZNA-N
     RDKit          3D

 54 56  0  0  0  0  0  0  0  0999 V2000
  139.4370   77.5860  216.9870 C   0  0  0  0  0  0  0  0  0  0  0  0
  140.3190   78.7700  217.3950 C   0  0  0  0  0  0  0  0  0  0  0  0
  141.4040   78.4160  218.3470 N   0  0  0  0  0  0  0  0  0  0  0  0
  142.3450   79.5400  218.6070 C   0  0  0  0  0  0  0  0  0  0  0  0
  141.8430   80.6110  219.6140 C   0  0  0  0  0  0  0  0  0  0  0  0
  141.8080   80.1150  221.0390 C   0  0  0  0  0  0  0  0  0  0  0  0
  142.2180   80.9540  222.0890 C   0  0  0  0  0  0  0  0  0  0  0  0
  142.1780   80.5010  223.4090 C   0  0  0  0  0  0  0  0  0  0  0  0
  141.7400   79.2060  223.6940 C   0  0  0  0  0  0  0  0  0  0  0  0
  141.3470   78.3470  222.6630 C   0  0  0  0  0  0  0  0  0  0  0  0
  140.9140   77.0560  223.0010 O   0  0  0  0  0  0  0  0  0  0  0  0
  140.3800   76.1180  222.0720 C   0  0  0  0  0  0  0  0  0  0  0  0
  141.3960   78.8020  221.3310 C   0  0  0  0  0  0  0  0  0  0  0  0
  142.0090   77.0530  218.2330 C   0  0  1  0  0  0  0  0  0  0  0  0
  142.9620   76.9860  217.0170 C   0  0  0  0  0  0  0  0  0  0  0  0
  143.4580   75.5570  216.7790 C   0  0  0  0  0  0  0  0  0  0  0  0
  143.9720   74.9000  218.0330 C   0  0  0  0  0  0  0  0  0  0  0  0
  144.7380   73.7290  217.9190 C   0  0  0  0  0  0  0  0  0  0  0  0
  145.1890   73.0520  219.0670 C   0  0  0  0  0  0  0  0  0  0  0  0
  145.9610   71.8820  218.9980 O   0  0  0  0  0  0  0  0  0  0  0  0
  145.4230   70.5640  218.9640 C   0  0  0  0  0  0  0  0  0  0  0  0
  144.8590   73.5540  220.3280 C   0  0  0  0  0  0  0  0  0  0  0  0
  144.0860   74.7090  220.4520 C   0  0  0  0  0  0  0  0  0  0  0  0
  143.6180   75.3810  219.3120 C   0  0  0  0  0  0  0  0  0  0  0  0
  142.8320   76.6590  219.4880 C   0  0  0  0  0  0  0  0  0  0  0  0
  139.0608   77.0810  217.8890 H   0  0  0  0  0  0  0  0  0  0  0  0
  138.5881   77.9499  216.3895 H   0  0  0  0  0  0  0  0  0  0  0  0
  140.0286   76.8768  216.3895 H   0  0  0  0  0  0  0  0  0  0  0  0
  140.7783   79.1882  216.4871 H   0  0  0  0  0  0  0  0  0  0  0  0
  139.6664   79.4903  217.9100 H   0  0  0  0  0  0  0  0  0  0  0  0
  143.2799   79.1153  219.0015 H   0  0  0  0  0  0  0  0  0  0  0  0
  142.4666   80.0614  217.6461 H   0  0  0  0  0  0  0  0  0  0  0  0
  142.5140   81.4811  219.5628 H   0  0  0  0  0  0  0  0  0  0  0  0
  140.8116   80.8684  219.3313 H   0  0  0  0  0  0  0  0  0  0  0  0
  142.5720   81.9722  221.8700 H   0  0  0  0  0  0  0  0  0  0  0  0
  142.4924   81.1661  224.2268 H   0  0  0  0  0  0  0  0  0  0  0  0
  141.7039   78.8591  224.7372 H   0  0  0  0  0  0  0  0  0  0  0  0
  139.9078   75.2885  222.6189 H   0  0  0  0  0  0  0  0  0  0  0  0
  139.6293   76.6148  221.4398 H   0  0  0  0  0  0  0  0  0  0  0  0
  141.1904   75.7261  221.4398 H   0  0  0  0  0  0  0  0  0  0  0  0
  141.1098   78.1252  220.5124 H   0  0  0  0  0  0  0  0  0  0  0  0
  141.1659   76.3554  218.1209 H   0  0  0  0  0  0  0  0  0  0  0  0
  142.4258   77.3333  216.1215 H   0  0  0  0  0  0  0  0  0  0  0  0
  143.8324   77.6268  217.2214 H   0  0  0  0  0  0  0  0  0  0  0  0
  142.6247   74.9571  216.3844 H   0  0  0  0  0  0  0  0  0  0  0  0
  144.2950   75.6117  216.0674 H   0  0  0  0  0  0  0  0  0  0  0  0
  144.9881   73.3368  216.9222 H   0  0  0  0  0  0  0  0  0  0  0  0
  145.2751   70.2017  219.9920 H   0  0  0  0  0  0  0  0  0  0  0  0
  144.4576   70.5755  218.4369 H   0  0  0  0  0  0  0  0  0  0  0  0
  146.1207   69.8967  218.4369 H   0  0  0  0  0  0  0  0  0  0  0  0
  145.2115   73.0343  221.2311 H   0  0  0  0  0  0  0  0  0  0  0  0
  143.8412   75.0964  221.4520 H   0  0  0  0  0  0  0  0  0  0  0  0
  142.1394   76.5291  220.3327 H   0  0  0  0  0  0  0  0  0  0  0  0
  143.5584   77.4654  219.6668 H   0  0  0  0  0  0  0  0  0  0  0  0
  1  2  1  0
  2  3  1  0
  3  4  1  0
  4  5  1  0
  5  6  1  0
  6  7  2  0
  7  8  1  0
  8  9  2  0
  9 10  1  0
 10 11  1  0
 11 12  1  0
 10 13  2  0
  3 14  1  0
 14 15  1  0
 15 16  1  0
 16 17  1  0
 17 18  2  0
 18 19  1  0
 19 20  1  0
 20 21  1  0
 19 22  2  0
 22 23  1  0
 23 24  2  0
 24 25  1  0
 13  6  1  0
 25 14  1  0
 24 17  1  0
  1 26  1  0
  1 27  1  0
  1 28  1  0
  2 29  1  0
  2 30  1  0
  4 31  1  0
  4 32  1  0
  5 33  1  0
  5 34  1  0
  7 35  1  0
  8 36  1  0
  9 37  1  0
 12 38  1  0
 12 39  1  0
 12 40  1  0
 13 41  1  0
 14 42  1  6
 15 43  1  0
 15 44  1  0
 16 45  1  0
 16 46  1  0
 18 47  1  0
 21 48  1  0
 21 49  1  0
 21 50  1  0
 22 51  1  0
 23 52  1  0
 25 53  1  0
 25 54  1  0
M  END
>  <UniqueID>  (16) 
25

>  <SMILES>  (16) 
CCN(CCc1cccc(OC)c1)[C@H]1CCc2cc(OC)ccc2C1

>  <Energy>  (16) 
58.419396541274445

>  <Genealogy>  (16) 
CCN(CCc1cccc(OC)c1)[C@H]1CCc2cc(OC)ccc2C1 (chirality)
CCN(CCc1cccc(OC)c1)[C@H]1CCc2cc(OC)ccc2C1 (3D coordinates assigned)
CCN(CCc1cccc(OC)c1)[C@H]1CCc2cc(OC)ccc2C1 (nonaromatic ring conformer: 58.419396541274445 kcal/mol)

>  <smiles>  (16) 
CCN(CCc1cccc(OC)c1)C1CCc2cc(OC)ccc2C1

>  <score_type>  (16) 
oracle

>  <origin>  (16) 
autodockgpu

>  <m_score__min__energy>  (16) 
-6.0700000000000003

>  <m_primary>  (16) 
energy

>  <meeko>  (16) 
{"free_energy": -5.57, "intermolecular_energy": -7.66, "internal_energy": -1.26, "cluster_size": 6, "cluster_id": 4, "rank_in_cluster": 5}

>  <energy>  (16) 
-5.36

>  <cluster_rmsd>  (16) 
0.22

>  <rmsd>  (16) 
270.68

>  <cluster>  (16) 
5

$$$$
MXOKLQPDPZBAAI-FQEVSTJZNA-N
     RDKit          3D

 54 56  0  0  0  0  0  0  0  0999 V2000
  142.7680   82.0730  217.1090 C   0  0  0  0  0  0  0  0  0  0  0  0
  142.7360   80.7700  217.9140 C   0  0  0  0  0  0  0  0  0  0  0  0
  141.3700   80.3320  218.3020 N   0  0  0  0  0  0  0  0  0  0  0  0
  140.6310   81.3520  219.0960 C   0  0  0  0  0  0  0  0  0  0  0  0
  141.4370   82.0180  220.2440 C   0  0  0  0  0  0  0  0  0  0  0  0
  141.4180   81.2170  221.5240 C   0  0  0  0  0  0  0  0  0  0  0  0
  142.5740   80.5400  221.9500 C   0  0  0  0  0  0  0  0  0  0  0  0
  142.5630   79.8060  223.1370 C   0  0  0  0  0  0  0  0  0  0  0  0
  141.3990   79.7300  223.9050 C   0  0  0  0  0  0  0  0  0  0  0  0
  140.2310   80.3790  223.4890 C   0  0  0  0  0  0  0  0  0  0  0  0
  139.0880   80.2740  224.2960 O   0  0  0  0  0  0  0  0  0  0  0  0
  137.7570   80.1930  223.7980 C   0  0  0  0  0  0  0  0  0  0  0  0
  140.2420   81.1120  222.2870 C   0  0  0  0  0  0  0  0  0  0  0  0
  141.1900   78.9060  218.7150 C   0  0  1  0  0  0  0  0  0  0  0  0
  142.5630   78.2060  218.8450 C   0  0  0  0  0  0  0  0  0  0  0  0
  142.3970   76.7050  219.0980 C   0  0  0  0  0  0  0  0  0  0  0  0
  141.4160   76.4010  220.1990 C   0  0  0  0  0  0  0  0  0  0  0  0
  141.3950   75.1100  220.7510 C   0  0  0  0  0  0  0  0  0  0  0  0
  140.4560   74.7690  221.7420 C   0  0  0  0  0  0  0  0  0  0  0  0
  140.4040   73.4930  222.3230 O   0  0  0  0  0  0  0  0  0  0  0  0
  139.3500   72.5570  222.1190 C   0  0  0  0  0  0  0  0  0  0  0  0
  139.5350   75.7290  222.1680 C   0  0  0  0  0  0  0  0  0  0  0  0
  139.5380   77.0100  221.6140 C   0  0  0  0  0  0  0  0  0  0  0  0
  140.4600   77.3540  220.6140 C   0  0  0  0  0  0  0  0  0  0  0  0
  140.4680   78.7670  220.0810 C   0  0  0  0  0  0  0  0  0  0  0  0
  142.7891   82.9297  217.7987 H   0  0  0  0  0  0  0  0  0  0  0  0
  143.6668   82.0904  216.4751 H   0  0  0  0  0  0  0  0  0  0  0  0
  141.8711   82.1345  216.4751 H   0  0  0  0  0  0  0  0  0  0  0  0
  143.1938   79.9762  217.3055 H   0  0  0  0  0  0  0  0  0  0  0  0
  143.2864   80.9593  218.8474 H   0  0  0  0  0  0  0  0  0  0  0  0
  140.3032   82.1450  218.4077 H   0  0  0  0  0  0  0  0  0  0  0  0
  139.8023   80.8151  219.5808 H   0  0  0  0  0  0  0  0  0  0  0  0
  142.4814   82.1320  219.9180 H   0  0  0  0  0  0  0  0  0  0  0  0
  140.9635   82.9877  220.4572 H   0  0  0  0  0  0  0  0  0  0  0  0
  143.4914   80.5890  221.3450 H   0  0  0  0  0  0  0  0  0  0  0  0
  143.4738   79.2858  223.4686 H   0  0  0  0  0  0  0  0  0  0  0  0
  141.4003   79.1560  224.8434 H   0  0  0  0  0  0  0  0  0  0  0  0
  137.0520   80.1501  224.6413 H   0  0  0  0  0  0  0  0  0  0  0  0
  137.5407   81.0796  223.1839 H   0  0  0  0  0  0  0  0  0  0  0  0
  137.6498   79.2867  223.1839 H   0  0  0  0  0  0  0  0  0  0  0  0
  139.3222   81.6069  221.9419 H   0  0  0  0  0  0  0  0  0  0  0  0
  140.5735   78.4387  217.9329 H   0  0  0  0  0  0  0  0  0  0  0  0
  143.1301   78.3524  217.9139 H   0  0  0  0  0  0  0  0  0  0  0  0
  143.0992   78.6461  219.6987 H   0  0  0  0  0  0  0  0  0  0  0  0
  142.0427   76.2300  218.1713 H   0  0  0  0  0  0  0  0  0  0  0  0
  143.3760   76.3129  219.4108 H   0  0  0  0  0  0  0  0  0  0  0  0
  142.1196   74.3580  220.4054 H   0  0  0  0  0  0  0  0  0  0  0  0
  138.9676   72.2174  223.0929 H   0  0  0  0  0  0  0  0  0  0  0  0
  138.5378   73.0369  221.5533 H   0  0  0  0  0  0  0  0  0  0  0  0
  139.7306   71.6938  221.5533 H   0  0  0  0  0  0  0  0  0  0  0  0
  138.8013   75.4732  222.9466 H   0  0  0  0  0  0  0  0  0  0  0  0
  138.8106   77.7570  221.9647 H   0  0  0  0  0  0  0  0  0  0  0  0
  139.4266   79.1001  219.9605 H   0  0  0  0  0  0  0  0  0  0  0  0
  141.0207   79.3840  220.8047 H   0  0  0  0  0  0  0  0  0  0  0  0
  1  2  1  0
  2  3  1  0
  3  4  1  0
  4  5  1  0
  5  6  1  0
  6  7  2  0
  7  8  1  0
  8  9  2  0
  9 10  1  0
 10 11  1  0
 11 12  1  0
 10 13  2  0
  3 14  1  0
 14 15  1  0
 15 16  1  0
 16 17  1  0
 17 18  2  0
 18 19  1  0
 19 20  1  0
 20 21  1  0
 19 22  2  0
 22 23  1  0
 23 24  2  0
 24 25  1  0
 13  6  1  0
 25 14  1  0
 24 17  1  0
  1 26  1  0
  1 27  1  0
  1 28  1  0
  2 29  1  0
  2 30  1  0
  4 31  1  0
  4 32  1  0
  5 33  1  0
  5 34  1  0
  7 35  1  0
  8 36  1  0
  9 37  1  0
 12 38  1  0
 12 39  1  0
 12 40  1  0
 13 41  1  0
 14 42  1  6
 15 43  1  0
 15 44  1  0
 16 45  1  0
 16 46  1  0
 18 47  1  0
 21 48  1  0
 21 49  1  0
 21 50  1  0
 22 51  1  0
 23 52  1  0
 25 53  1  0
 25 54  1  0
M  END
>  <UniqueID>  (17) 
25

>  <SMILES>  (17) 
CCN(CCc1cccc(OC)c1)[C@H]1CCc2cc(OC)ccc2C1

>  <Energy>  (17) 
58.419396541274445

>  <Genealogy>  (17) 
CCN(CCc1cccc(OC)c1)[C@H]1CCc2cc(OC)ccc2C1 (chirality)
CCN(CCc1cccc(OC)c1)[C@H]1CCc2cc(OC)ccc2C1 (3D coordinates assigned)
CCN(CCc1cccc(OC)c1)[C@H]1CCc2cc(OC)ccc2C1 (nonaromatic ring conformer: 58.419396541274445 kcal/mol)

>  <smiles>  (17) 
CCN(CCc1cccc(OC)c1)C1CCc2cc(OC)ccc2C1

>  <score_type>  (17) 
oracle

>  <origin>  (17) 
autodockgpu

>  <m_score__min__energy>  (17) 
-6.0700000000000003

>  <m_primary>  (17) 
energy

>  <meeko>  (17) 
{"free_energy": -5.39, "intermolecular_energy": -7.48, "internal_energy": -1.62, "cluster_size": 7, "cluster_id": 5, "rank_in_cluster": 3}

>  <energy>  (17) 
-5.17

>  <cluster_rmsd>  (17) 
0.72

>  <rmsd>  (17) 
270.78

>  <cluster>  (17) 
5

$$$$
MXOKLQPDPZBAAI-FQEVSTJZNA-N
     RDKit          3D

 54 56  0  0  0  0  0  0  0  0999 V2000
  142.7230   82.1070  217.1290 C   0  0  0  0  0  0  0  0  0  0  0  0
  142.7120   80.7900  217.9100 C   0  0  0  0  0  0  0  0  0  0  0  0
  141.3560   80.3410  218.3220 N   0  0  0  0  0  0  0  0  0  0  0  0
  140.6240   81.3540  219.1310 C   0  0  0  0  0  0  0  0  0  0  0  0
  141.4350   81.9950  220.2910 C   0  0  0  0  0  0  0  0  0  0  0  0
  141.4270   81.1620  221.5500 C   0  0  0  0  0  0  0  0  0  0  0  0
  142.6030   80.5260  221.9830 C   0  0  0  0  0  0  0  0  0  0  0  0
  142.6020   79.7630  223.1520 C   0  0  0  0  0  0  0  0  0  0  0  0
  141.4290   79.6160  223.8940 C   0  0  0  0  0  0  0  0  0  0  0  0
  140.2420   80.2230  223.4710 C   0  0  0  0  0  0  0  0  0  0  0  0
  139.0890   80.0480  224.2510 O   0  0  0  0  0  0  0  0  0  0  0  0
  137.7920   80.5080  223.8860 C   0  0  0  0  0  0  0  0  0  0  0  0
  140.2420   80.9870  222.2870 C   0  0  0  0  0  0  0  0  0  0  0  0
  141.1940   78.9130  218.7340 C   0  0  1  0  0  0  0  0  0  0  0  0
  142.5760   78.2460  218.9200 C   0  0  0  0  0  0  0  0  0  0  0  0
  142.4360   76.7430  219.1730 C   0  0  0  0  0  0  0  0  0  0  0  0
  141.4200   76.4200  220.2370 C   0  0  0  0  0  0  0  0  0  0  0  0
  141.4080   75.1310  220.7940 C   0  0  0  0  0  0  0  0  0  0  0  0
  140.4390   74.7710  221.7490 C   0  0  0  0  0  0  0  0  0  0  0  0
  140.3950   73.4970  222.3340 O   0  0  0  0  0  0  0  0  0  0  0  0
  140.0730   72.3000  221.6330 C   0  0  0  0  0  0  0  0  0  0  0  0
  139.4800   75.7110  222.1350 C   0  0  0  0  0  0  0  0  0  0  0  0
  139.4750   76.9900  221.5760 C   0  0  0  0  0  0  0  0  0  0  0  0
  140.4270   77.3510  220.6100 C   0  0  0  0  0  0  0  0  0  0  0  0
  140.4220   78.7620  220.0720 C   0  0  0  0  0  0  0  0  0  0  0  0
  142.7301   82.9513  217.8340 H   0  0  0  0  0  0  0  0  0  0  0  0
  143.6215   82.1504  216.4960 H   0  0  0  0  0  0  0  0  0  0  0  0
  141.8253   82.1654  216.4960 H   0  0  0  0  0  0  0  0  0  0  0  0
  143.1571   80.0087  217.2764 H   0  0  0  0  0  0  0  0  0  0  0  0
  143.2833   80.9638  218.8338 H   0  0  0  0  0  0  0  0  0  0  0  0
  140.3035   82.1605  218.4551 H   0  0  0  0  0  0  0  0  0  0  0  0
  139.7899   80.8166  219.6059 H   0  0  0  0  0  0  0  0  0  0  0  0
  142.4768   82.1216  219.9616 H   0  0  0  0  0  0  0  0  0  0  0  0
  140.9592   82.9572  220.5313 H   0  0  0  0  0  0  0  0  0  0  0  0
  143.5287   80.6299  221.3980 H   0  0  0  0  0  0  0  0  0  0  0  0
  143.5288   79.2760  223.4895 H   0  0  0  0  0  0  0  0  0  0  0  0
  141.4381   79.0187  224.8177 H   0  0  0  0  0  0  0  0  0  0  0  0
  137.2074   80.7153  224.7944 H   0  0  0  0  0  0  0  0  0  0  0  0
  137.8835   81.4285  223.2908 H   0  0  0  0  0  0  0  0  0  0  0  0
  137.2831   79.7356  223.2908 H   0  0  0  0  0  0  0  0  0  0  0  0
  139.3079   81.4502  221.9364 H   0  0  0  0  0  0  0  0  0  0  0  0
  140.6199   78.4283  217.9305 H   0  0  0  0  0  0  0  0  0  0  0  0
  143.1751   78.4025  218.0108 H   0  0  0  0  0  0  0  0  0  0  0  0
  143.0679   78.7015  219.7921 H   0  0  0  0  0  0  0  0  0  0  0  0
  142.1293   76.2563  218.2354 H   0  0  0  0  0  0  0  0  0  0  0  0
  143.4111   76.3752  219.5251 H   0  0  0  0  0  0  0  0  0  0  0  0
  142.1635   74.3954  220.4808 H   0  0  0  0  0  0  0  0  0  0  0  0
  139.8575   71.4988  222.3552 H   0  0  0  0  0  0  0  0  0  0  0  0
  139.1891   72.4716  221.0011 H   0  0  0  0  0  0  0  0  0  0  0  0
  140.9237   72.0050  221.0011 H   0  0  0  0  0  0  0  0  0  0  0  0
  138.7227   75.4409  222.8856 H   0  0  0  0  0  0  0  0  0  0  0  0
  138.7182   77.7215  221.8955 H   0  0  0  0  0  0  0  0  0  0  0  0
  139.3785   79.0697  219.9094 H   0  0  0  0  0  0  0  0  0  0  0  0
  140.9306   79.3949  220.8142 H   0  0  0  0  0  0  0  0  0  0  0  0
  1  2  1  0
  2  3  1  0
  3  4  1  0
  4  5  1  0
  5  6  1  0
  6  7  2  0
  7  8  1  0
  8  9  2  0
  9 10  1  0
 10 11  1  0
 11 12  1  0
 10 13  2  0
  3 14  1  0
 14 15  1  0
 15 16  1  0
 16 17  1  0
 17 18  2  0
 18 19  1  0
 19 20  1  0
 20 21  1  0
 19 22  2  0
 22 23  1  0
 23 24  2  0
 24 25  1  0
 13  6  1  0
 25 14  1  0
 24 17  1  0
  1 26  1  0
  1 27  1  0
  1 28  1  0
  2 29  1  0
  2 30  1  0
  4 31  1  0
  4 32  1  0
  5 33  1  0
  5 34  1  0
  7 35  1  0
  8 36  1  0
  9 37  1  0
 12 38  1  0
 12 39  1  0
 12 40  1  0
 13 41  1  0
 14 42  1  6
 15 43  1  0
 15 44  1  0
 16 45  1  0
 16 46  1  0
 18 47  1  0
 21 48  1  0
 21 49  1  0
 21 50  1  0
 22 51  1  0
 23 52  1  0
 25 53  1  0
 25 54  1  0
M  END
>  <UniqueID>  (18) 
25

>  <SMILES>  (18) 
CCN(CCc1cccc(OC)c1)[C@H]1CCc2cc(OC)ccc2C1

>  <Energy>  (18) 
58.419396541274445

>  <Genealogy>  (18) 
CCN(CCc1cccc(OC)c1)[C@H]1CCc2cc(OC)ccc2C1 (chirality)
CCN(CCc1cccc(OC)c1)[C@H]1CCc2cc(OC)ccc2C1 (3D coordinates assigned)
CCN(CCc1cccc(OC)c1)[C@H]1CCc2cc(OC)ccc2C1 (nonaromatic ring conformer: 58.419396541274445 kcal/mol)

>  <smiles>  (18) 
CCN(CCc1cccc(OC)c1)C1CCc2cc(OC)ccc2C1

>  <score_type>  (18) 
oracle

>  <origin>  (18) 
autodockgpu

>  <m_score__min__energy>  (18) 
-6.0700000000000003

>  <m_primary>  (18) 
energy

>  <meeko>  (18) 
{"free_energy": -5.42, "intermolecular_energy": -7.5, "internal_energy": -1.62, "cluster_size": 7, "cluster_id": 5, "rank_in_cluster": 1}

>  <energy>  (18) 
-5.16

>  <cluster_rmsd>  (18) 
0.65

>  <rmsd>  (18) 
270.77

>  <cluster>  (18) 
5

$$$$
MXOKLQPDPZBAAI-FQEVSTJZNA-N
     RDKit          3D

 54 56  0  0  0  0  0  0  0  0999 V2000
  141.8640   80.8560  216.4420 C   0  0  0  0  0  0  0  0  0  0  0  0
  141.8090   81.4740  217.8410 C   0  0  0  0  0  0  0  0  0  0  0  0
  140.7030   80.9560  218.6890 N   0  0  0  0  0  0  0  0  0  0  0  0
  140.3210   81.8850  219.7870 C   0  0  0  0  0  0  0  0  0  0  0  0
  141.4250   82.1630  220.8430 C   0  0  0  0  0  0  0  0  0  0  0  0
  141.4100   81.1790  221.9880 C   0  0  0  0  0  0  0  0  0  0  0  0
  142.5790   80.4800  222.3340 C   0  0  0  0  0  0  0  0  0  0  0  0
  142.5700   79.5770  223.3980 C   0  0  0  0  0  0  0  0  0  0  0  0
  141.3970   79.3550  224.1210 C   0  0  0  0  0  0  0  0  0  0  0  0
  140.2170   80.0240  223.7820 C   0  0  0  0  0  0  0  0  0  0  0  0
  139.0640   79.7680  224.5390 O   0  0  0  0  0  0  0  0  0  0  0  0
  137.8560   80.5160  224.4450 C   0  0  0  0  0  0  0  0  0  0  0  0
  140.2250   80.9290  222.7020 C   0  0  0  0  0  0  0  0  0  0  0  0
  140.7080   79.4970  219.0210 C   0  0  1  0  0  0  0  0  0  0  0  0
  142.1460   79.0210  219.3340 C   0  0  0  0  0  0  0  0  0  0  0  0
  142.2020   77.5020  219.5070 C   0  0  0  0  0  0  0  0  0  0  0  0
  141.1370   76.9790  220.4350 C   0  0  0  0  0  0  0  0  0  0  0  0
  141.2550   75.6710  220.9330 C   0  0  0  0  0  0  0  0  0  0  0  0
  140.2530   75.1250  221.7570 C   0  0  0  0  0  0  0  0  0  0  0  0
  140.3340   73.8250  222.2800 O   0  0  0  0  0  0  0  0  0  0  0  0
  139.4420   72.7670  221.9470 C   0  0  0  0  0  0  0  0  0  0  0  0
  139.1320   75.8970  222.0710 C   0  0  0  0  0  0  0  0  0  0  0  0
  138.9990   77.1920  221.5680 C   0  0  0  0  0  0  0  0  0  0  0  0
  139.9840   77.7380  220.7320 C   0  0  0  0  0  0  0  0  0  0  0  0
  139.8310   79.1630  220.2560 C   0  0  0  0  0  0  0  0  0  0  0  0
  141.9612   79.7636  216.5273 H   0  0  0  0  0  0  0  0  0  0  0  0
  140.9405   81.1005  215.8966 H   0  0  0  0  0  0  0  0  0  0  0  0
  142.7298   81.2597  215.8966 H   0  0  0  0  0  0  0  0  0  0  0  0
  142.7617   81.2642  218.3493 H   0  0  0  0  0  0  0  0  0  0  0  0
  141.6284   82.5506  217.7059 H   0  0  0  0  0  0  0  0  0  0  0  0
  140.0360   82.8460  219.3339 H   0  0  0  0  0  0  0  0  0  0  0  0
  139.5022   81.3900  220.3298 H   0  0  0  0  0  0  0  0  0  0  0  0
  142.4054   82.1085  220.3473 H   0  0  0  0  0  0  0  0  0  0  0  0
  141.2319   83.1604  221.2649 H   0  0  0  0  0  0  0  0  0  0  0  0
  143.5050   80.6453  221.7638 H   0  0  0  0  0  0  0  0  0  0  0  0
  143.4904   79.0384  223.6677 H   0  0  0  0  0  0  0  0  0  0  0  0
  141.4009   78.6483  224.9640 H   0  0  0  0  0  0  0  0  0  0  0  0
  137.4867   80.7446  225.4556 H   0  0  0  0  0  0  0  0  0  0  0  0
  138.0469   81.4542  223.9034 H   0  0  0  0  0  0  0  0  0  0  0  0
  137.1012   79.9270  223.9034 H   0  0  0  0  0  0  0  0  0  0  0  0
  139.2964   81.4442  222.4152 H   0  0  0  0  0  0  0  0  0  0  0  0
  140.2980   78.9836  218.1388 H   0  0  0  0  0  0  0  0  0  0  0  0
  142.8084   79.3122  218.5055 H   0  0  0  0  0  0  0  0  0  0  0  0
  142.4707   79.4903  220.2744 H   0  0  0  0  0  0  0  0  0  0  0  0
  142.0711   77.0313  218.5215 H   0  0  0  0  0  0  0  0  0  0  0  0
  143.1776   77.2557  219.9514 H   0  0  0  0  0  0  0  0  0  0  0  0
  142.1385   75.0679  220.6767 H   0  0  0  0  0  0  0  0  0  0  0  0
  139.0558   72.3090  222.8695 H   0  0  0  0  0  0  0  0  0  0  0  0
  138.6037   73.1661  221.3571 H   0  0  0  0  0  0  0  0  0  0  0  0
  139.9771   72.0083  221.3571 H   0  0  0  0  0  0  0  0  0  0  0  0
  138.3475   75.4808  222.7201 H   0  0  0  0  0  0  0  0  0  0  0  0
  138.1135   77.7900  221.8296 H   0  0  0  0  0  0  0  0  0  0  0  0
  138.7767   79.3308  219.9907 H   0  0  0  0  0  0  0  0  0  0  0  0
  140.1623   79.8169  221.0762 H   0  0  0  0  0  0  0  0  0  0  0  0
  1  2  1  0
  2  3  1  0
  3  4  1  0
  4  5  1  0
  5  6  1  0
  6  7  2  0
  7  8  1  0
  8  9  2  0
  9 10  1  0
 10 11  1  0
 11 12  1  0
 10 13  2  0
  3 14  1  0
 14 15  1  0
 15 16  1  0
 16 17  1  0
 17 18  2  0
 18 19  1  0
 19 20  1  0
 20 21  1  0
 19 22  2  0
 22 23  1  0
 23 24  2  0
 24 25  1  0
 13  6  1  0
 25 14  1  0
 24 17  1  0
  1 26  1  0
  1 27  1  0
  1 28  1  0
  2 29  1  0
  2 30  1  0
  4 31  1  0
  4 32  1  0
  5 33  1  0
  5 34  1  0
  7 35  1  0
  8 36  1  0
  9 37  1  0
 12 38  1  0
 12 39  1  0
 12 40  1  0
 13 41  1  0
 14 42  1  6
 15 43  1  0
 15 44  1  0
 16 45  1  0
 16 46  1  0
 18 47  1  0
 21 48  1  0
 21 49  1  0
 21 50  1  0
 22 51  1  0
 23 52  1  0
 25 53  1  0
 25 54  1  0
M  END
>  <UniqueID>  (19) 
25

>  <SMILES>  (19) 
CCN(CCc1cccc(OC)c1)[C@H]1CCc2cc(OC)ccc2C1

>  <Energy>  (19) 
58.419396541274445

>  <Genealogy>  (19) 
CCN(CCc1cccc(OC)c1)[C@H]1CCc2cc(OC)ccc2C1 (chirality)
CCN(CCc1cccc(OC)c1)[C@H]1CCc2cc(OC)ccc2C1 (3D coordinates assigned)
CCN(CCc1cccc(OC)c1)[C@H]1CCc2cc(OC)ccc2C1 (nonaromatic ring conformer: 58.419396541274445 kcal/mol)

>  <smiles>  (19) 
CCN(CCc1cccc(OC)c1)C1CCc2cc(OC)ccc2C1

>  <score_type>  (19) 
oracle

>  <origin>  (19) 
autodockgpu

>  <m_score__min__energy>  (19) 
-6.0700000000000003

>  <m_primary>  (19) 
energy

>  <meeko>  (19) 
{"free_energy": -5.17, "intermolecular_energy": -7.25, "internal_energy": -1.81, "cluster_size": 7, "cluster_id": 5, "rank_in_cluster": 6}

>  <energy>  (19) 
-4.92

>  <cluster_rmsd>  (19) 
0.0

>  <rmsd>  (19) 
270.08

>  <cluster>  (19) 
6

$$$$
MXOKLQPDPZBAAI-FQEVSTJZNA-N
     RDKit          3D

 54 56  0  0  0  0  0  0  0  0999 V2000
  141.7910   71.9050  221.1850 C   0  0  0  0  0  0  0  0  0  0  0  0
  141.0980   73.1800  221.6730 C   0  0  0  0  0  0  0  0  0  0  0  0
  140.6160   74.0640  220.5790 N   0  0  0  0  0  0  0  0  0  0  0  0
  141.4520   73.9850  219.3500 C   0  0  0  0  0  0  0  0  0  0  0  0
  142.7310   74.8660  219.3540 C   0  0  0  0  0  0  0  0  0  0  0  0
  143.9760   74.1020  219.7360 C   0  0  0  0  0  0  0  0  0  0  0  0
  144.7520   74.5190  220.8320 C   0  0  0  0  0  0  0  0  0  0  0  0
  145.8980   73.8100  221.1940 C   0  0  0  0  0  0  0  0  0  0  0  0
  146.2890   72.6870  220.4620 C   0  0  0  0  0  0  0  0  0  0  0  0
  145.5430   72.2660  219.3560 C   0  0  0  0  0  0  0  0  0  0  0  0
  145.9760   71.1300  218.6540 O   0  0  0  0  0  0  0  0  0  0  0  0
  145.2790   69.8890  218.6240 C   0  0  0  0  0  0  0  0  0  0  0  0
  144.3910   72.9870  218.9870 C   0  0  0  0  0  0  0  0  0  0  0  0
  140.1090   75.4200  220.9560 C   0  0  1  0  0  0  0  0  0  0  0  0
  138.7370   75.3060  221.6600 C   0  0  0  0  0  0  0  0  0  0  0  0
  138.1210   76.6860  221.8990 C   0  0  0  0  0  0  0  0  0  0  0  0
  139.0850   77.6580  222.5280 C   0  0  0  0  0  0  0  0  0  0  0  0
  138.5840   78.8440  223.0880 C   0  0  0  0  0  0  0  0  0  0  0  0
  139.4560   79.8040  223.6340 C   0  0  0  0  0  0  0  0  0  0  0  0
  138.9970   80.9990  224.2080 O   0  0  0  0  0  0  0  0  0  0  0  0
  137.7030   81.1730  224.7760 C   0  0  0  0  0  0  0  0  0  0  0  0
  140.8330   79.5680  223.6060 C   0  0  0  0  0  0  0  0  0  0  0  0
  141.3420   78.3990  223.0380 C   0  0  0  0  0  0  0  0  0  0  0  0
  140.4800   77.4450  222.4760 C   0  0  0  0  0  0  0  0  0  0  0  0
  141.0660   76.1670  221.9220 C   0  0  0  0  0  0  0  0  0  0  0  0
  142.1148   71.3092  222.0511 H   0  0  0  0  0  0  0  0  0  0  0  0
  141.0889   71.3160  220.5766 H   0  0  0  0  0  0  0  0  0  0  0  0
  142.6672   72.1738  220.5766 H   0  0  0  0  0  0  0  0  0  0  0  0
  140.2341   72.8898  222.2890 H   0  0  0  0  0  0  0  0  0  0  0  0
  141.8481   73.7532  222.2377 H   0  0  0  0  0  0  0  0  0  0  0  0
  141.7621   72.9379  219.2177 H   0  0  0  0  0  0  0  0  0  0  0  0
  140.8239   74.3680  218.5322 H   0  0  0  0  0  0  0  0  0  0  0  0
  142.8718   75.2831  218.3459 H   0  0  0  0  0  0  0  0  0  0  0  0
  142.5847   75.6527  220.1088 H   0  0  0  0  0  0  0  0  0  0  0  0
  144.4542   75.4084  221.4067 H   0  0  0  0  0  0  0  0  0  0  0  0
  146.4950   74.1366  222.0583 H   0  0  0  0  0  0  0  0  0  0  0  0
  147.1901   72.1294  220.7572 H   0  0  0  0  0  0  0  0  0  0  0  0
  145.0888   69.5503  219.6531 H   0  0  0  0  0  0  0  0  0  0  0  0
  144.3218   70.0187  218.0978 H   0  0  0  0  0  0  0  0  0  0  0  0
  145.8879   69.1391  218.0978 H   0  0  0  0  0  0  0  0  0  0  0  0
  143.8112   72.6753  218.1057 H   0  0  0  0  0  0  0  0  0  0  0  0
  140.0311   75.9871  220.0167 H   0  0  0  0  0  0  0  0  0  0  0  0
  138.0578   74.7145  221.0285 H   0  0  0  0  0  0  0  0  0  0  0  0
  138.8851   74.8174  222.6343 H   0  0  0  0  0  0  0  0  0  0  0  0
  137.7908   77.0950  220.9327 H   0  0  0  0  0  0  0  0  0  0  0  0
  137.2811   76.5559  222.5973 H   0  0  0  0  0  0  0  0  0  0  0  0
  137.4990   79.0246  223.1000 H   0  0  0  0  0  0  0  0  0  0  0  0
  137.7798   81.1627  225.8733 H   0  0  0  0  0  0  0  0  0  0  0  0
  137.2844   82.1355  224.4468 H   0  0  0  0  0  0  0  0  0  0  0  0
  137.0451   80.3552  224.4468 H   0  0  0  0  0  0  0  0  0  0  0  0
  141.5220   80.3102  224.0355 H   0  0  0  0  0  0  0  0  0  0  0  0
  142.4280   78.2241  223.0309 H   0  0  0  0  0  0  0  0  0  0  0  0
  141.9891   76.4139  221.3770 H   0  0  0  0  0  0  0  0  0  0  0  0
  141.2539   75.4986  222.7752 H   0  0  0  0  0  0  0  0  0  0  0  0
  1  2  1  0
  2  3  1  0
  3  4  1  0
  4  5  1  0
  5  6  1  0
  6  7  2  0
  7  8  1  0
  8  9  2  0
  9 10  1  0
 10 11  1  0
 11 12  1  0
 10 13  2  0
  3 14  1  0
 14 15  1  0
 15 16  1  0
 16 17  1  0
 17 18  2  0
 18 19  1  0
 19 20  1  0
 20 21  1  0
 19 22  2  0
 22 23  1  0
 23 24  2  0
 24 25  1  0
 13  6  1  0
 25 14  1  0
 24 17  1  0
  1 26  1  0
  1 27  1  0
  1 28  1  0
  2 29  1  0
  2 30  1  0
  4 31  1  0
  4 32  1  0
  5 33  1  0
  5 34  1  0
  7 35  1  0
  8 36  1  0
  9 37  1  0
 12 38  1  0
 12 39  1  0
 12 40  1  0
 13 41  1  0
 14 42  1  6
 15 43  1  0
 15 44  1  0
 16 45  1  0
 16 46  1  0
 18 47  1  0
 21 48  1  0
 21 49  1  0
 21 50  1  0
 22 51  1  0
 23 52  1  0
 25 53  1  0
 25 54  1  0
M  END
>  <UniqueID>  (20) 
25

>  <SMILES>  (20) 
CCN(CCc1cccc(OC)c1)[C@H]1CCc2cc(OC)ccc2C1

>  <Energy>  (20) 
58.419396541274445

>  <Genealogy>  (20) 
CCN(CCc1cccc(OC)c1)[C@H]1CCc2cc(OC)ccc2C1 (chirality)
CCN(CCc1cccc(OC)c1)[C@H]1CCc2cc(OC)ccc2C1 (3D coordinates assigned)
CCN(CCc1cccc(OC)c1)[C@H]1CCc2cc(OC)ccc2C1 (nonaromatic ring conformer: 58.419396541274445 kcal/mol)

>  <smiles>  (20) 
CCN(CCc1cccc(OC)c1)C1CCc2cc(OC)ccc2C1

>  <score_type>  (20) 
oracle

>  <origin>  (20) 
autodockgpu

>  <m_score__min__energy>  (20) 
-6.0700000000000003

>  <m_primary>  (20) 
energy

>  <meeko>  (20) 
{"free_energy": -5.67, "intermolecular_energy": -7.75, "internal_energy": -1.13, "cluster_size": 3, "cluster_id": 1, "rank_in_cluster": 2}

>  <energy>  (20) 
-4.9

>  <cluster_rmsd>  (20) 
0.25

>  <rmsd>  (20) 
270.07

>  <cluster>  (20) 
6

$$$$
MXOKLQPDPZBAAI-HXUWFJFHNA-N
     RDKit          3D

 54 56  0  0  0  0  0  0  0  0999 V2000
  140.3960   84.2390  220.8250 C   0  0  0  0  0  0  0  0  0  0  0  0
  140.9250   82.8030  220.7480 C   0  0  0  0  0  0  0  0  0  0  0  0
  140.0990   81.8130  221.4820 N   0  0  0  0  0  0  0  0  0  0  0  0
  139.3860   80.8450  220.6110 C   0  0  0  0  0  0  0  0  0  0  0  0
  139.9030   80.8910  219.1650 C   0  0  0  0  0  0  0  0  0  0  0  0
  140.9030   79.8000  218.8870 C   0  0  0  0  0  0  0  0  0  0  0  0
  142.0350   80.0610  218.0980 C   0  0  0  0  0  0  0  0  0  0  0  0
  142.9560   79.0440  217.8320 C   0  0  0  0  0  0  0  0  0  0  0  0
  142.7640   77.7670  218.3670 C   0  0  0  0  0  0  0  0  0  0  0  0
  141.6530   77.4930  219.1720 C   0  0  0  0  0  0  0  0  0  0  0  0
  141.5160   76.2030  219.7030 O   0  0  0  0  0  0  0  0  0  0  0  0
  142.6080   75.3450  220.0200 C   0  0  0  0  0  0  0  0  0  0  0  0
  140.7170   78.5150  219.4240 C   0  0  0  0  0  0  0  0  0  0  0  0
  140.7410   81.2630  222.7110 C   0  0  2  0  0  0  0  0  0  0  0  0
  142.1140   80.5500  222.4460 C   0  0  0  0  0  0  0  0  0  0  0  0
  142.2440   79.1580  223.0870 C   0  0  0  0  0  0  0  0  0  0  0  0
  140.9950   78.3510  222.8720 C   0  0  0  0  0  0  0  0  0  0  0  0
  141.0510   76.9960  222.5120 C   0  0  0  0  0  0  0  0  0  0  0  0
  139.8750   76.2480  222.3740 C   0  0  0  0  0  0  0  0  0  0  0  0
  139.9820   74.9030  221.9930 O   0  0  0  0  0  0  0  0  0  0  0  0
  138.9910   74.1950  221.2570 C   0  0  0  0  0  0  0  0  0  0  0  0
  138.6340   76.8630  222.6290 C   0  0  0  0  0  0  0  0  0  0  0  0
  138.5780   78.2080  223.0060 C   0  0  0  0  0  0  0  0  0  0  0  0
  139.7540   78.9610  223.1000 C   0  0  0  0  0  0  0  0  0  0  0  0
  139.7210   80.4080  223.5050 C   0  0  0  0  0  0  0  0  0  0  0  0
  140.2874   84.5337  221.8792 H   0  0  0  0  0  0  0  0  0  0  0  0
  141.1032   84.9175  220.3255 H   0  0  0  0  0  0  0  0  0  0  0  0
  139.4176   84.2966  220.3255 H   0  0  0  0  0  0  0  0  0  0  0  0
  140.9624   82.5049  219.6898 H   0  0  0  0  0  0  0  0  0  0  0  0
  141.9165   82.8043  221.2244 H   0  0  0  0  0  0  0  0  0  0  0  0
  139.5340   79.8307  221.0100 H   0  0  0  0  0  0  0  0  0  0  0  0
  138.3195   81.1142  220.6017 H   0  0  0  0  0  0  0  0  0  0  0  0
  139.0507   80.7742  218.4795 H   0  0  0  0  0  0  0  0  0  0  0  0
  140.4056   81.8579  219.0151 H   0  0  0  0  0  0  0  0  0  0  0  0
  142.1973   81.0688  217.6882 H   0  0  0  0  0  0  0  0  0  0  0  0
  143.8332   79.2488  217.2007 H   0  0  0  0  0  0  0  0  0  0  0  0
  143.4924   76.9709  218.1534 H   0  0  0  0  0  0  0  0  0  0  0  0
  142.7076   75.2667  221.1127 H   0  0  0  0  0  0  0  0  0  0  0  0
  142.4249   74.3466  219.5961 H   0  0  0  0  0  0  0  0  0  0  0  0
  143.5347   75.7591  219.5961 H   0  0  0  0  0  0  0  0  0  0  0  0
  139.8340   78.3056  220.0457 H   0  0  0  0  0  0  0  0  0  0  0  0
  141.0257   82.1114  223.3506 H   0  0  0  0  0  0  0  0  0  0  0  0
  142.2402   80.4407  221.3587 H   0  0  0  0  0  0  0  0  0  0  0  0
  142.8882   81.1805  222.9076 H   0  0  0  0  0  0  0  0  0  0  0  0
  143.0962   78.6307  222.6335 H   0  0  0  0  0  0  0  0  0  0  0  0
  142.4010   79.2820  224.1687 H   0  0  0  0  0  0  0  0  0  0  0  0
  142.0259   76.5176  222.3368 H   0  0  0  0  0  0  0  0  0  0  0  0
  138.2992   73.7008  221.9550 H   0  0  0  0  0  0  0  0  0  0  0  0
  138.4318   74.8993  220.6236 H   0  0  0  0  0  0  0  0  0  0  0  0
  139.4760   73.4377  220.6236 H   0  0  0  0  0  0  0  0  0  0  0  0
  137.7048   76.2825  222.5311 H   0  0  0  0  0  0  0  0  0  0  0  0
  137.6076   78.6755  223.2292 H   0  0  0  0  0  0  0  0  0  0  0  0
  138.7106   80.8034  223.3238 H   0  0  0  0  0  0  0  0  0  0  0  0
  139.9893   80.4661  224.5702 H   0  0  0  0  0  0  0  0  0  0  0  0
  1  2  1  0
  2  3  1  0
  3  4  1  0
  4  5  1  0
  5  6  1  0
  6  7  2  0
  7  8  1  0
  8  9  2  0
  9 10  1  0
 10 11  1  0
 11 12  1  0
 10 13  2  0
  3 14  1  0
 14 15  1  0
 15 16  1  0
 16 17  1  0
 17 18  2  0
 18 19  1  0
 19 20  1  0
 20 21  1  0
 19 22  2  0
 22 23  1  0
 23 24  2  0
 24 25  1  0
 13  6  1  0
 25 14  1  0
 24 17  1  0
  1 26  1  0
  1 27  1  0
  1 28  1  0
  2 29  1  0
  2 30  1  0
  4 31  1  0
  4 32  1  0
  5 33  1  0
  5 34  1  0
  7 35  1  0
  8 36  1  0
  9 37  1  0
 12 38  1  0
 12 39  1  0
 12 40  1  0
 13 41  1  0
 14 42  1  1
 15 43  1  0
 15 44  1  0
 16 45  1  0
 16 46  1  0
 18 47  1  0
 21 48  1  0
 21 49  1  0
 21 50  1  0
 22 51  1  0
 23 52  1  0
 25 53  1  0
 25 54  1  0
M  END
>  <UniqueID>  (21) 
26

>  <SMILES>  (21) 
CCN(CCc1cccc(OC)c1)[C@@H]1CCc2cc(OC)ccc2C1

>  <Energy>  (21) 
61.361030615866305

>  <Genealogy>  (21) 
CCN(CCc1cccc(OC)c1)[C@@H]1CCc2cc(OC)ccc2C1 (chirality)
CCN(CCc1cccc(OC)c1)[C@@H]1CCc2cc(OC)ccc2C1 (3D coordinates assigned)
CCN(CCc1cccc(OC)c1)[C@@H]1CCc2cc(OC)ccc2C1 (nonaromatic ring conformer: 61.361030615866305 kcal/mol)

>  <smiles>  (21) 
CCN(CCc1cccc(OC)c1)C1CCc2cc(OC)ccc2C1

>  <score_type>  (21) 
oracle

>  <origin>  (21) 
autodockgpu

>  <m_score__min__energy>  (21) 
-5.7599999999999998

>  <m_primary>  (21) 
energy

>  <meeko>  (21) 
{"free_energy": -5.13, "intermolecular_energy": -7.22, "internal_energy": -2.07, "cluster_size": 18, "cluster_id": 1, "rank_in_cluster": 7}

>  <energy>  (21) 
-5.76

>  <cluster_rmsd>  (21) 
0.0

>  <rmsd>  (21) 
270.13

>  <cluster>  (21) 
1

$$$$
MXOKLQPDPZBAAI-HXUWFJFHNA-N
     RDKit          3D

 54 56  0  0  0  0  0  0  0  0999 V2000
  140.0720   84.1720  220.8490 C   0  0  0  0  0  0  0  0  0  0  0  0
  141.0630   83.0550  221.1940 C   0  0  0  0  0  0  0  0  0  0  0  0
  140.4230   81.7620  221.5410 N   0  0  0  0  0  0  0  0  0  0  0  0
  140.2940   80.8180  220.4030 C   0  0  0  0  0  0  0  0  0  0  0  0
  141.4550   80.9640  219.4070 C   0  0  0  0  0  0  0  0  0  0  0  0
  141.9220   79.6320  218.8840 C   0  0  0  0  0  0  0  0  0  0  0  0
  142.3090   79.4940  217.5410 C   0  0  0  0  0  0  0  0  0  0  0  0
  142.7310   78.2540  217.0540 C   0  0  0  0  0  0  0  0  0  0  0  0
  142.7890   77.1490  217.9080 C   0  0  0  0  0  0  0  0  0  0  0  0
  142.4260   77.2710  219.2540 C   0  0  0  0  0  0  0  0  0  0  0  0
  142.5220   76.1390  220.0750 O   0  0  0  0  0  0  0  0  0  0  0  0
  143.5560   75.1640  219.9830 C   0  0  0  0  0  0  0  0  0  0  0  0
  141.9840   78.5180  219.7370 C   0  0  0  0  0  0  0  0  0  0  0  0
  140.8630   81.1860  222.8450 C   0  0  2  0  0  0  0  0  0  0  0  0
  142.2340   80.4240  222.7720 C   0  0  0  0  0  0  0  0  0  0  0  0
  142.2220   79.0270  223.4140 C   0  0  0  0  0  0  0  0  0  0  0  0
  140.9890   78.2650  223.0160 C   0  0  0  0  0  0  0  0  0  0  0  0
  141.0480   76.9110  222.6560 C   0  0  0  0  0  0  0  0  0  0  0  0
  139.8780   76.2070  222.3450 C   0  0  0  0  0  0  0  0  0  0  0  0
  139.9910   74.8590  221.9730 O   0  0  0  0  0  0  0  0  0  0  0  0
  140.1160   74.4060  220.6290 C   0  0  0  0  0  0  0  0  0  0  0  0
  138.6360   76.8650  222.4250 C   0  0  0  0  0  0  0  0  0  0  0  0
  138.5740   78.2090  222.8020 C   0  0  0  0  0  0  0  0  0  0  0  0
  139.7510   78.9200  223.0690 C   0  0  0  0  0  0  0  0  0  0  0  0
  139.7100   80.3650  223.4780 C   0  0  0  0  0  0  0  0  0  0  0  0
  139.6800   84.6139  221.7769 H   0  0  0  0  0  0  0  0  0  0  0  0
  140.5842   84.9480  220.2612 H   0  0  0  0  0  0  0  0  0  0  0  0
  139.2405   83.7559  220.2612 H   0  0  0  0  0  0  0  0  0  0  0  0
  141.7179   82.8939  220.3250 H   0  0  0  0  0  0  0  0  0  0  0  0
  141.6144   83.3852  222.0867 H   0  0  0  0  0  0  0  0  0  0  0  0
  140.2862   79.7893  220.7926 H   0  0  0  0  0  0  0  0  0  0  0  0
  139.3576   81.0468  219.8730 H   0  0  0  0  0  0  0  0  0  0  0  0
  141.1202   81.5804  218.5596 H   0  0  0  0  0  0  0  0  0  0  0  0
  142.2973   81.4354  219.9346 H   0  0  0  0  0  0  0  0  0  0  0  0
  142.2798   80.3652  216.8700 H   0  0  0  0  0  0  0  0  0  0  0  0
  143.0178   78.1474  215.9974 H   0  0  0  0  0  0  0  0  0  0  0  0
  143.1227   76.1757  217.5190 H   0  0  0  0  0  0  0  0  0  0  0  0
  143.8710   74.8670  220.9942 H   0  0  0  0  0  0  0  0  0  0  0  0
  143.1817   74.2825  219.4419 H   0  0  0  0  0  0  0  0  0  0  0  0
  144.4140   75.5894  219.4419 H   0  0  0  0  0  0  0  0  0  0  0  0
  141.6850   78.6202  220.7906 H   0  0  0  0  0  0  0  0  0  0  0  0
  141.0829   82.0215  223.5258 H   0  0  0  0  0  0  0  0  0  0  0  0
  142.5094   80.3130  221.7128 H   0  0  0  0  0  0  0  0  0  0  0  0
  142.9566   81.0248  223.3437 H   0  0  0  0  0  0  0  0  0  0  0  0
  143.1116   78.4709  223.0833 H   0  0  0  0  0  0  0  0  0  0  0  0
  142.2262   79.1426  224.5079 H   0  0  0  0  0  0  0  0  0  0  0  0
  142.0204   76.3981  222.6176 H   0  0  0  0  0  0  0  0  0  0  0  0
  140.4086   73.3456  220.6252 H   0  0  0  0  0  0  0  0  0  0  0  0
  139.1522   74.5223  220.1117 H   0  0  0  0  0  0  0  0  0  0  0  0
  140.8838   75.0001  220.1117 H   0  0  0  0  0  0  0  0  0  0  0  0
  137.7106   76.3188  222.1898 H   0  0  0  0  0  0  0  0  0  0  0  0
  137.5986   78.7099  222.8893 H   0  0  0  0  0  0  0  0  0  0  0  0
  138.7503   80.7967  223.1576 H   0  0  0  0  0  0  0  0  0  0  0  0
  139.8242   80.4098  224.5711 H   0  0  0  0  0  0  0  0  0  0  0  0
  1  2  1  0
  2  3  1  0
  3  4  1  0
  4  5  1  0
  5  6  1  0
  6  7  2  0
  7  8  1  0
  8  9  2  0
  9 10  1  0
 10 11  1  0
 11 12  1  0
 10 13  2  0
  3 14  1  0
 14 15  1  0
 15 16  1  0
 16 17  1  0
 17 18  2  0
 18 19  1  0
 19 20  1  0
 20 21  1  0
 19 22  2  0
 22 23  1  0
 23 24  2  0
 24 25  1  0
 13  6  1  0
 25 14  1  0
 24 17  1  0
  1 26  1  0
  1 27  1  0
  1 28  1  0
  2 29  1  0
  2 30  1  0
  4 31  1  0
  4 32  1  0
  5 33  1  0
  5 34  1  0
  7 35  1  0
  8 36  1  0
  9 37  1  0
 12 38  1  0
 12 39  1  0
 12 40  1  0
 13 41  1  0
 14 42  1  1
 15 43  1  0
 15 44  1  0
 16 45  1  0
 16 46  1  0
 18 47  1  0
 21 48  1  0
 21 49  1  0
 21 50  1  0
 22 51  1  0
 23 52  1  0
 25 53  1  0
 25 54  1  0
M  END
>  <UniqueID>  (22) 
26

>  <SMILES>  (22) 
CCN(CCc1cccc(OC)c1)[C@@H]1CCc2cc(OC)ccc2C1

>  <Energy>  (22) 
61.361030615866305

>  <Genealogy>  (22) 
CCN(CCc1cccc(OC)c1)[C@@H]1CCc2cc(OC)ccc2C1 (chirality)
CCN(CCc1cccc(OC)c1)[C@@H]1CCc2cc(OC)ccc2C1 (3D coordinates assigned)
CCN(CCc1cccc(OC)c1)[C@@H]1CCc2cc(OC)ccc2C1 (nonaromatic ring conformer: 61.361030615866305 kcal/mol)

>  <smiles>  (22) 
CCN(CCc1cccc(OC)c1)C1CCc2cc(OC)ccc2C1

>  <score_type>  (22) 
oracle

>  <origin>  (22) 
autodockgpu

>  <m_score__min__energy>  (22) 
-5.7599999999999998

>  <m_primary>  (22) 
energy

>  <meeko>  (22) 
{"free_energy": -5.74, "intermolecular_energy": -7.83, "internal_energy": -1.86, "cluster_size": 18, "cluster_id": 1, "rank_in_cluster": 3}

>  <energy>  (22) 
-5.75

>  <cluster_rmsd>  (22) 
0.26

>  <rmsd>  (22) 
270.15

>  <cluster>  (22) 
1

$$$$
MXOKLQPDPZBAAI-HXUWFJFHNA-N
     RDKit          3D

 54 56  0  0  0  0  0  0  0  0999 V2000
  139.3680   84.1050  221.2180 C   0  0  0  0  0  0  0  0  0  0  0  0
  139.1550   82.6470  221.6400 C   0  0  0  0  0  0  0  0  0  0  0  0
  140.3770   81.8090  221.5640 N   0  0  0  0  0  0  0  0  0  0  0  0
  141.4380   82.3540  220.6800 C   0  0  0  0  0  0  0  0  0  0  0  0
  141.3610   81.7610  219.2650 C   0  0  0  0  0  0  0  0  0  0  0  0
  141.1330   80.2730  219.2860 C   0  0  0  0  0  0  0  0  0  0  0  0
  139.8340   79.7580  219.4320 C   0  0  0  0  0  0  0  0  0  0  0  0
  139.6260   78.3770  219.4640 C   0  0  0  0  0  0  0  0  0  0  0  0
  140.7070   77.5010  219.3290 C   0  0  0  0  0  0  0  0  0  0  0  0
  142.0050   77.9960  219.1630 C   0  0  0  0  0  0  0  0  0  0  0  0
  143.0540   77.0770  219.0120 O   0  0  0  0  0  0  0  0  0  0  0  0
  143.1630   75.8560  219.7350 C   0  0  0  0  0  0  0  0  0  0  0  0
  142.2150   79.3890  219.1500 C   0  0  0  0  0  0  0  0  0  0  0  0
  140.8180   81.2390  222.8700 C   0  0  2  0  0  0  0  0  0  0  0  0
  142.2010   80.4980  222.8050 C   0  0  0  0  0  0  0  0  0  0  0  0
  142.2060   79.1000  223.4460 C   0  0  0  0  0  0  0  0  0  0  0  0
  140.9880   78.3200  223.0410 C   0  0  0  0  0  0  0  0  0  0  0  0
  141.0710   76.9670  222.6800 C   0  0  0  0  0  0  0  0  0  0  0  0
  139.9130   76.2450  222.3620 C   0  0  0  0  0  0  0  0  0  0  0  0
  140.0500   74.9000  221.9890 O   0  0  0  0  0  0  0  0  0  0  0  0
  138.9660   73.9840  221.8750 C   0  0  0  0  0  0  0  0  0  0  0  0
  138.6610   76.8840  222.4350 C   0  0  0  0  0  0  0  0  0  0  0  0
  138.5760   78.2270  222.8120 C   0  0  0  0  0  0  0  0  0  0  0  0
  139.7400   78.9560  223.0870 C   0  0  0  0  0  0  0  0  0  0  0  0
  139.6740   80.4000  223.4960 C   0  0  0  0  0  0  0  0  0  0  0  0
  139.4602   84.7363  222.1141 H   0  0  0  0  0  0  0  0  0  0  0  0
  140.2870   84.1827  220.6185 H   0  0  0  0  0  0  0  0  0  0  0  0
  138.5096   84.4424  220.6185 H   0  0  0  0  0  0  0  0  0  0  0  0
  138.7938   82.6375  222.6790 H   0  0  0  0  0  0  0  0  0  0  0  0
  138.4303   82.2154  220.9339 H   0  0  0  0  0  0  0  0  0  0  0  0
  141.3217   83.4459  220.6154 H   0  0  0  0  0  0  0  0  0  0  0  0
  142.4138   82.0855  221.1109 H   0  0  0  0  0  0  0  0  0  0  0  0
  140.5308   82.2394  218.7247 H   0  0  0  0  0  0  0  0  0  0  0  0
  142.3231   81.9492  218.7661 H   0  0  0  0  0  0  0  0  0  0  0  0
  138.9787   80.4439  219.5213 H   0  0  0  0  0  0  0  0  0  0  0  0
  138.6094   77.9780  219.5957 H   0  0  0  0  0  0  0  0  0  0  0  0
  140.5359   76.4147  219.3534 H   0  0  0  0  0  0  0  0  0  0  0  0
  143.1442   76.0662  220.8146 H   0  0  0  0  0  0  0  0  0  0  0  0
  142.3199   75.1992  219.4746 H   0  0  0  0  0  0  0  0  0  0  0  0
  144.1091   75.3589  219.4746 H   0  0  0  0  0  0  0  0  0  0  0  0
  143.2338   79.7867  219.0325 H   0  0  0  0  0  0  0  0  0  0  0  0
  141.0210   82.0776  223.5523 H   0  0  0  0  0  0  0  0  0  0  0  0
  142.4847   80.3922  221.7475 H   0  0  0  0  0  0  0  0  0  0  0  0
  142.9109   81.1092  223.3816 H   0  0  0  0  0  0  0  0  0  0  0  0
  143.1058   78.5576  223.1201 H   0  0  0  0  0  0  0  0  0  0  0  0
  142.2018   79.2151  224.5400 H   0  0  0  0  0  0  0  0  0  0  0  0
  142.0515   76.4696  222.6463 H   0  0  0  0  0  0  0  0  0  0  0  0
  138.6234   73.6945  222.8794 H   0  0  0  0  0  0  0  0  0  0  0  0
  138.1389   74.4609  221.3288 H   0  0  0  0  0  0  0  0  0  0  0  0
  139.2982   73.0889  221.3288 H   0  0  0  0  0  0  0  0  0  0  0  0
  137.7454   76.3238  222.1942 H   0  0  0  0  0  0  0  0  0  0  0  0
  137.5924   78.7129  222.8930 H   0  0  0  0  0  0  0  0  0  0  0  0
  138.7097   80.8168  223.1699 H   0  0  0  0  0  0  0  0  0  0  0  0
  139.7808   80.4464  224.5898 H   0  0  0  0  0  0  0  0  0  0  0  0
  1  2  1  0
  2  3  1  0
  3  4  1  0
  4  5  1  0
  5  6  1  0
  6  7  2  0
  7  8  1  0
  8  9  2  0
  9 10  1  0
 10 11  1  0
 11 12  1  0
 10 13  2  0
  3 14  1  0
 14 15  1  0
 15 16  1  0
 16 17  1  0
 17 18  2  0
 18 19  1  0
 19 20  1  0
 20 21  1  0
 19 22  2  0
 22 23  1  0
 23 24  2  0
 24 25  1  0
 13  6  1  0
 25 14  1  0
 24 17  1  0
  1 26  1  0
  1 27  1  0
  1 28  1  0
  2 29  1  0
  2 30  1  0
  4 31  1  0
  4 32  1  0
  5 33  1  0
  5 34  1  0
  7 35  1  0
  8 36  1  0
  9 37  1  0
 12 38  1  0
 12 39  1  0
 12 40  1  0
 13 41  1  0
 14 42  1  1
 15 43  1  0
 15 44  1  0
 16 45  1  0
 16 46  1  0
 18 47  1  0
 21 48  1  0
 21 49  1  0
 21 50  1  0
 22 51  1  0
 23 52  1  0
 25 53  1  0
 25 54  1  0
M  END
>  <UniqueID>  (23) 
26

>  <SMILES>  (23) 
CCN(CCc1cccc(OC)c1)[C@@H]1CCc2cc(OC)ccc2C1

>  <Energy>  (23) 
61.361030615866305

>  <Genealogy>  (23) 
CCN(CCc1cccc(OC)c1)[C@@H]1CCc2cc(OC)ccc2C1 (chirality)
CCN(CCc1cccc(OC)c1)[C@@H]1CCc2cc(OC)ccc2C1 (3D coordinates assigned)
CCN(CCc1cccc(OC)c1)[C@@H]1CCc2cc(OC)ccc2C1 (nonaromatic ring conformer: 61.361030615866305 kcal/mol)

>  <smiles>  (23) 
CCN(CCc1cccc(OC)c1)C1CCc2cc(OC)ccc2C1

>  <score_type>  (23) 
oracle

>  <origin>  (23) 
autodockgpu

>  <m_score__min__energy>  (23) 
-5.7599999999999998

>  <m_primary>  (23) 
energy

>  <meeko>  (23) 
{"free_energy": -5.08, "intermolecular_energy": -7.17, "internal_energy": -2.37, "cluster_size": 18, "cluster_id": 1, "rank_in_cluster": 9}

>  <energy>  (23) 
-5.74

>  <cluster_rmsd>  (23) 
0.56

>  <rmsd>  (23) 
270.16

>  <cluster>  (23) 
1

$$$$
MXOKLQPDPZBAAI-HXUWFJFHNA-N
     RDKit          3D

 54 56  0  0  0  0  0  0  0  0999 V2000
  139.1650   83.6370  221.2230 C   0  0  0  0  0  0  0  0  0  0  0  0
  140.6380   83.2140  221.2090 C   0  0  0  0  0  0  0  0  0  0  0  0
  140.8500   81.7490  221.3130 N   0  0  0  0  0  0  0  0  0  0  0  0
  141.8280   81.2030  220.3400 C   0  0  0  0  0  0  0  0  0  0  0  0
  141.1330   80.5960  219.1110 C   0  0  0  0  0  0  0  0  0  0  0  0
  141.7750   79.3050  218.6770 C   0  0  0  0  0  0  0  0  0  0  0  0
  142.2460   79.1550  217.3630 C   0  0  0  0  0  0  0  0  0  0  0  0
  142.8290   77.9510  216.9590 C   0  0  0  0  0  0  0  0  0  0  0  0
  142.9670   76.8990  217.8680 C   0  0  0  0  0  0  0  0  0  0  0  0
  142.5220   77.0370  219.1870 C   0  0  0  0  0  0  0  0  0  0  0  0
  142.7000   75.9600  220.0670 O   0  0  0  0  0  0  0  0  0  0  0  0
  143.7630   75.0170  219.9770 C   0  0  0  0  0  0  0  0  0  0  0  0
  141.9160   78.2450  219.5870 C   0  0  0  0  0  0  0  0  0  0  0  0
  140.9330   81.2350  222.7100 C   0  0  2  0  0  0  0  0  0  0  0  0
  142.2620   80.4590  223.0230 C   0  0  0  0  0  0  0  0  0  0  0  0
  142.0590   79.0950  223.7030 C   0  0  0  0  0  0  0  0  0  0  0  0
  140.9510   78.3250  223.0410 C   0  0  0  0  0  0  0  0  0  0  0  0
  141.0730   76.9540  222.7700 C   0  0  0  0  0  0  0  0  0  0  0  0
  140.0050   76.2450  222.2040 C   0  0  0  0  0  0  0  0  0  0  0  0
  140.1820   74.8800  221.9350 O   0  0  0  0  0  0  0  0  0  0  0  0
  140.1520   74.3090  220.6310 C   0  0  0  0  0  0  0  0  0  0  0  0
  138.7970   76.9170  221.9360 C   0  0  0  0  0  0  0  0  0  0  0  0
  138.6700   78.2780  222.2230 C   0  0  0  0  0  0  0  0  0  0  0  0
  139.7540   78.9910  222.7480 C   0  0  0  0  0  0  0  0  0  0  0  0
  139.6410   80.4560  223.0660 C   0  0  0  0  0  0  0  0  0  0  0  0
  138.8217   83.7356  222.2634 H   0  0  0  0  0  0  0  0  0  0  0  0
  139.0559   84.6028  220.7078 H   0  0  0  0  0  0  0  0  0  0  0  0
  138.5601   82.8763  220.7078 H   0  0  0  0  0  0  0  0  0  0  0  0
  141.0881   83.5619  220.2675 H   0  0  0  0  0  0  0  0  0  0  0  0
  141.1055   83.6653  222.0966 H   0  0  0  0  0  0  0  0  0  0  0  0
  142.4918   82.0152  220.0086 H   0  0  0  0  0  0  0  0  0  0  0  0
  142.3976   80.4053  220.8392 H   0  0  0  0  0  0  0  0  0  0  0  0
  140.0791   80.4021  219.3593 H   0  0  0  0  0  0  0  0  0  0  0  0
  141.2224   81.3139  218.2824 H   0  0  0  0  0  0  0  0  0  0  0  0
  142.1559   79.9874  216.6496 H   0  0  0  0  0  0  0  0  0  0  0  0
  143.1799   77.8313  215.9234 H   0  0  0  0  0  0  0  0  0  0  0  0
  143.4292   75.9549  217.5439 H   0  0  0  0  0  0  0  0  0  0  0  0
  144.0858   74.7307  220.9888 H   0  0  0  0  0  0  0  0  0  0  0  0
  143.4162   74.1240  219.4363 H   0  0  0  0  0  0  0  0  0  0  0  0
  144.6083   75.4678  219.4363 H   0  0  0  0  0  0  0  0  0  0  0  0
  141.5512   78.3581  220.6186 H   0  0  0  0  0  0  0  0  0  0  0  0
  140.9900   82.1014  223.3853 H   0  0  0  0  0  0  0  0  0  0  0  0
  142.7951   80.2943  222.0750 H   0  0  0  0  0  0  0  0  0  0  0  0
  142.8278   81.0810  223.7323 H   0  0  0  0  0  0  0  0  0  0  0  0
  142.9915   78.5157  223.6336 H   0  0  0  0  0  0  0  0  0  0  0  0
  141.7890   79.2640  224.7559 H   0  0  0  0  0  0  0  0  0  0  0  0
  142.0129   76.4323  223.0033 H   0  0  0  0  0  0  0  0  0  0  0  0
  140.0944   73.2135  220.7117 H   0  0  0  0  0  0  0  0  0  0  0  0
  139.2723   74.6833  220.0870 H   0  0  0  0  0  0  0  0  0  0  0  0
  141.0661   74.5891  220.0870 H   0  0  0  0  0  0  0  0  0  0  0  0
  137.9500   76.3679  221.4989 H   0  0  0  0  0  0  0  0  0  0  0  0
  137.7152   78.7911  222.0359 H   0  0  0  0  0  0  0  0  0  0  0  0
  138.8031   80.8792  222.4925 H   0  0  0  0  0  0  0  0  0  0  0  0
  139.4757   80.5542  224.1491 H   0  0  0  0  0  0  0  0  0  0  0  0
  1  2  1  0
  2  3  1  0
  3  4  1  0
  4  5  1  0
  5  6  1  0
  6  7  2  0
  7  8  1  0
  8  9  2  0
  9 10  1  0
 10 11  1  0
 11 12  1  0
 10 13  2  0
  3 14  1  0
 14 15  1  0
 15 16  1  0
 16 17  1  0
 17 18  2  0
 18 19  1  0
 19 20  1  0
 20 21  1  0
 19 22  2  0
 22 23  1  0
 23 24  2  0
 24 25  1  0
 13  6  1  0
 25 14  1  0
 24 17  1  0
  1 26  1  0
  1 27  1  0
  1 28  1  0
  2 29  1  0
  2 30  1  0
  4 31  1  0
  4 32  1  0
  5 33  1  0
  5 34  1  0
  7 35  1  0
  8 36  1  0
  9 37  1  0
 12 38  1  0
 12 39  1  0
 12 40  1  0
 13 41  1  0
 14 42  1  1
 15 43  1  0
 15 44  1  0
 16 45  1  0
 16 46  1  0
 18 47  1  0
 21 48  1  0
 21 49  1  0
 21 50  1  0
 22 51  1  0
 23 52  1  0
 25 53  1  0
 25 54  1  0
M  END
>  <UniqueID>  (24) 
26

>  <SMILES>  (24) 
CCN(CCc1cccc(OC)c1)[C@@H]1CCc2cc(OC)ccc2C1

>  <Energy>  (24) 
61.361030615866305

>  <Genealogy>  (24) 
CCN(CCc1cccc(OC)c1)[C@@H]1CCc2cc(OC)ccc2C1 (chirality)
CCN(CCc1cccc(OC)c1)[C@@H]1CCc2cc(OC)ccc2C1 (3D coordinates assigned)
CCN(CCc1cccc(OC)c1)[C@@H]1CCc2cc(OC)ccc2C1 (nonaromatic ring conformer: 61.361030615866305 kcal/mol)

>  <smiles>  (24) 
CCN(CCc1cccc(OC)c1)C1CCc2cc(OC)ccc2C1

>  <score_type>  (24) 
oracle

>  <origin>  (24) 
autodockgpu

>  <m_score__min__energy>  (24) 
-5.7599999999999998

>  <m_primary>  (24) 
energy

>  <meeko>  (24) 
{"free_energy": -5.53, "intermolecular_energy": -7.62, "internal_energy": -1.88, "cluster_size": 18, "cluster_id": 1, "rank_in_cluster": 6}

>  <energy>  (24) 
-5.61

>  <cluster_rmsd>  (24) 
0.43

>  <rmsd>  (24) 
270.14

>  <cluster>  (24) 
1

$$$$
MXOKLQPDPZBAAI-HXUWFJFHNA-N
     RDKit          3D

 54 56  0  0  0  0  0  0  0  0999 V2000
  139.6510   83.8470  221.1820 C   0  0  0  0  0  0  0  0  0  0  0  0
  141.0340   83.1880  221.1310 C   0  0  0  0  0  0  0  0  0  0  0  0
  141.0070   81.7100  221.2540 N   0  0  0  0  0  0  0  0  0  0  0  0
  141.7880   80.9950  220.2140 C   0  0  0  0  0  0  0  0  0  0  0  0
  140.9350   79.9510  219.4770 C   0  0  0  0  0  0  0  0  0  0  0  0
  141.7680   78.8160  218.9420 C   0  0  0  0  0  0  0  0  0  0  0  0
  142.1890   78.8170  217.6020 C   0  0  0  0  0  0  0  0  0  0  0  0
  142.9510   77.7570  217.1040 C   0  0  0  0  0  0  0  0  0  0  0  0
  143.3160   76.7010  217.9430 C   0  0  0  0  0  0  0  0  0  0  0  0
  142.9230   76.6920  219.2860 C   0  0  0  0  0  0  0  0  0  0  0  0
  143.3310   75.6210  220.0940 O   0  0  0  0  0  0  0  0  0  0  0  0
  144.0890   74.5080  219.6290 C   0  0  0  0  0  0  0  0  0  0  0  0
  142.1390   77.7530  219.7810 C   0  0  0  0  0  0  0  0  0  0  0  0
  141.1290   81.2040  222.6510 C   0  0  2  0  0  0  0  0  0  0  0  0
  142.4330   80.3700  222.9140 C   0  0  0  0  0  0  0  0  0  0  0  0
  142.1980   79.0220  223.6160 C   0  0  0  0  0  0  0  0  0  0  0  0
  141.0280   78.2990  223.0120 C   0  0  0  0  0  0  0  0  0  0  0  0
  141.0740   76.9220  222.7500 C   0  0  0  0  0  0  0  0  0  0  0  0
  139.9510   76.2580  222.2400 C   0  0  0  0  0  0  0  0  0  0  0  0
  140.0530   74.8840  221.9770 O   0  0  0  0  0  0  0  0  0  0  0  0
  140.7070   74.3300  220.8400 C   0  0  0  0  0  0  0  0  0  0  0  0
  138.7640   76.9830  222.0180 C   0  0  0  0  0  0  0  0  0  0  0  0
  138.7130   78.3510  222.2960 C   0  0  0  0  0  0  0  0  0  0  0  0
  139.8510   79.0180  222.7650 C   0  0  0  0  0  0  0  0  0  0  0  0
  139.8190   80.4880  223.0730 C   0  0  0  0  0  0  0  0  0  0  0  0
  139.3513   83.9898  222.2307 H   0  0  0  0  0  0  0  0  0  0  0  0
  139.6909   84.8229  220.6760 H   0  0  0  0  0  0  0  0  0  0  0  0
  138.9182   83.2013  220.6760 H   0  0  0  0  0  0  0  0  0  0  0  0
  141.5040   83.4459  220.1705 H   0  0  0  0  0  0  0  0  0  0  0  0
  141.5976   83.5674  221.9961 H   0  0  0  0  0  0  0  0  0  0  0  0
  142.1634   81.7275  219.4842 H   0  0  0  0  0  0  0  0  0  0  0  0
  142.6178   80.4701  220.7100 H   0  0  0  0  0  0  0  0  0  0  0  0
  140.1889   79.5449  220.1759 H   0  0  0  0  0  0  0  0  0  0  0  0
  140.4519   80.4490  218.6234 H   0  0  0  0  0  0  0  0  0  0  0  0
  141.9180   79.6548  216.9427 H   0  0  0  0  0  0  0  0  0  0  0  0
  143.2641   77.7539  216.0495 H   0  0  0  0  0  0  0  0  0  0  0  0
  143.9170   75.8702  217.5447 H   0  0  0  0  0  0  0  0  0  0  0  0
  144.4746   73.9418  220.4896 H   0  0  0  0  0  0  0  0  0  0  0  0
  143.4465   73.8559  219.0192 H   0  0  0  0  0  0  0  0  0  0  0  0
  144.9312   74.8670  219.0192 H   0  0  0  0  0  0  0  0  0  0  0  0
  141.8153   77.7485  220.8323 H   0  0  0  0  0  0  0  0  0  0  0  0
  141.2563   82.0732  223.3130 H   0  0  0  0  0  0  0  0  0  0  0  0
  142.9160   80.1732  221.9455 H   0  0  0  0  0  0  0  0  0  0  0  0
  143.0569   80.9709  223.5920 H   0  0  0  0  0  0  0  0  0  0  0  0
  143.0989   78.3996  223.5112 H   0  0  0  0  0  0  0  0  0  0  0  0
  141.9832   79.2119  224.6780 H   0  0  0  0  0  0  0  0  0  0  0  0
  141.9986   76.3594  222.9464 H   0  0  0  0  0  0  0  0  0  0  0  0
  141.5073   73.6521  221.1715 H   0  0  0  0  0  0  0  0  0  0  0  0
  139.9789   73.7697  220.2351 H   0  0  0  0  0  0  0  0  0  0  0  0
  141.1400   75.1403  220.2351 H   0  0  0  0  0  0  0  0  0  0  0  0
  137.8741   76.4702  221.6243 H   0  0  0  0  0  0  0  0  0  0  0  0
  137.7753   78.9061  222.1459 H   0  0  0  0  0  0  0  0  0  0  0  0
  138.9761   80.9447  222.5335 H   0  0  0  0  0  0  0  0  0  0  0  0
  139.7071   80.6026  224.1613 H   0  0  0  0  0  0  0  0  0  0  0  0
  1  2  1  0
  2  3  1  0
  3  4  1  0
  4  5  1  0
  5  6  1  0
  6  7  2  0
  7  8  1  0
  8  9  2  0
  9 10  1  0
 10 11  1  0
 11 12  1  0
 10 13  2  0
  3 14  1  0
 14 15  1  0
 15 16  1  0
 16 17  1  0
 17 18  2  0
 18 19  1  0
 19 20  1  0
 20 21  1  0
 19 22  2  0
 22 23  1  0
 23 24  2  0
 24 25  1  0
 13  6  1  0
 25 14  1  0
 24 17  1  0
  1 26  1  0
  1 27  1  0
  1 28  1  0
  2 29  1  0
  2 30  1  0
  4 31  1  0
  4 32  1  0
  5 33  1  0
  5 34  1  0
  7 35  1  0
  8 36  1  0
  9 37  1  0
 12 38  1  0
 12 39  1  0
 12 40  1  0
 13 41  1  0
 14 42  1  1
 15 43  1  0
 15 44  1  0
 16 45  1  0
 16 46  1  0
 18 47  1  0
 21 48  1  0
 21 49  1  0
 21 50  1  0
 22 51  1  0
 23 52  1  0
 25 53  1  0
 25 54  1  0
M  END
>  <UniqueID>  (25) 
26

>  <SMILES>  (25) 
CCN(CCc1cccc(OC)c1)[C@@H]1CCc2cc(OC)ccc2C1

>  <Energy>  (25) 
61.361030615866305

>  <Genealogy>  (25) 
CCN(CCc1cccc(OC)c1)[C@@H]1CCc2cc(OC)ccc2C1 (chirality)
CCN(CCc1cccc(OC)c1)[C@@H]1CCc2cc(OC)ccc2C1 (3D coordinates assigned)
CCN(CCc1cccc(OC)c1)[C@@H]1CCc2cc(OC)ccc2C1 (nonaromatic ring conformer: 61.361030615866305 kcal/mol)

>  <smiles>  (25) 
CCN(CCc1cccc(OC)c1)C1CCc2cc(OC)ccc2C1

>  <score_type>  (25) 
oracle

>  <origin>  (25) 
autodockgpu

>  <m_score__min__energy>  (25) 
-5.7599999999999998

>  <m_primary>  (25) 
energy

>  <meeko>  (25) 
{"free_energy": -5.75, "intermolecular_energy": -7.84, "internal_energy": -1.86, "cluster_size": 18, "cluster_id": 1, "rank_in_cluster": 2}

>  <energy>  (25) 
-5.58

>  <cluster_rmsd>  (25) 
0.56

>  <rmsd>  (25) 
270.13

>  <cluster>  (25) 
1

$$$$
MXOKLQPDPZBAAI-HXUWFJFHNA-N
     RDKit          3D

 54 56  0  0  0  0  0  0  0  0999 V2000
  139.2360   83.9690  221.2200 C   0  0  0  0  0  0  0  0  0  0  0  0
  139.1190   82.4800  221.5640 C   0  0  0  0  0  0  0  0  0  0  0  0
  140.4030   81.7390  221.4970 N   0  0  0  0  0  0  0  0  0  0  0  0
  141.4380   82.3840  220.6500 C   0  0  0  0  0  0  0  0  0  0  0  0
  141.5720   81.6890  219.2860 C   0  0  0  0  0  0  0  0  0  0  0  0
  140.9780   80.3050  219.2950 C   0  0  0  0  0  0  0  0  0  0  0  0
  139.6050   80.1220  219.0620 C   0  0  0  0  0  0  0  0  0  0  0  0
  139.0540   78.8390  219.0840 C   0  0  0  0  0  0  0  0  0  0  0  0
  139.8700   77.7290  219.3160 C   0  0  0  0  0  0  0  0  0  0  0  0
  141.2440   77.8890  219.5290 C   0  0  0  0  0  0  0  0  0  0  0  0
  142.0250   76.7430  219.7370 O   0  0  0  0  0  0  0  0  0  0  0  0
  143.3330   76.5560  219.2070 C   0  0  0  0  0  0  0  0  0  0  0  0
  141.7940   79.1860  219.5260 C   0  0  0  0  0  0  0  0  0  0  0  0
  140.8580   81.1730  222.7990 C   0  0  2  0  0  0  0  0  0  0  0  0
  142.2270   80.4080  222.7160 C   0  0  0  0  0  0  0  0  0  0  0  0
  142.2210   79.0160  223.3680 C   0  0  0  0  0  0  0  0  0  0  0  0
  140.9810   78.2540  222.9930 C   0  0  0  0  0  0  0  0  0  0  0  0
  141.0350   76.8960  222.6430 C   0  0  0  0  0  0  0  0  0  0  0  0
  139.8590   76.1910  222.3530 C   0  0  0  0  0  0  0  0  0  0  0  0
  139.9660   74.8410  221.9900 O   0  0  0  0  0  0  0  0  0  0  0  0
  141.0060   74.3080  221.1770 C   0  0  0  0  0  0  0  0  0  0  0  0
  138.6190   76.8530  222.4430 C   0  0  0  0  0  0  0  0  0  0  0  0
  138.5650   78.2000  222.8100 C   0  0  0  0  0  0  0  0  0  0  0  0
  139.7450   78.9110  223.0570 C   0  0  0  0  0  0  0  0  0  0  0  0
  139.7120   80.3590  223.4540 C   0  0  0  0  0  0  0  0  0  0  0  0
  139.2822   84.5573  222.1483 H   0  0  0  0  0  0  0  0  0  0  0  0
  140.1502   84.1388  220.6324 H   0  0  0  0  0  0  0  0  0  0  0  0
  138.3595   84.2795  220.6324 H   0  0  0  0  0  0  0  0  0  0  0  0
  138.7225   82.3919  222.5863 H   0  0  0  0  0  0  0  0  0  0  0  0
  138.4550   82.0320  220.8101 H   0  0  0  0  0  0  0  0  0  0  0  0
  141.1609   83.4361  220.4880 H   0  0  0  0  0  0  0  0  0  0  0  0
  142.4039   82.3058  221.1705 H   0  0  0  0  0  0  0  0  0  0  0  0
  141.0526   82.2931  218.5275 H   0  0  0  0  0  0  0  0  0  0  0  0
  142.6438   81.5963  219.0567 H   0  0  0  0  0  0  0  0  0  0  0  0
  138.9620   80.9917  218.8616 H   0  0  0  0  0  0  0  0  0  0  0  0
  137.9752   78.7021  218.9183 H   0  0  0  0  0  0  0  0  0  0  0  0
  139.4291   76.7213  219.3314 H   0  0  0  0  0  0  0  0  0  0  0  0
  144.0521   76.4532  220.0330 H   0  0  0  0  0  0  0  0  0  0  0  0
  143.3517   75.6461  218.5892 H   0  0  0  0  0  0  0  0  0  0  0  0
  143.6059   77.4243  218.5892 H   0  0  0  0  0  0  0  0  0  0  0  0
  142.8705   79.3230  219.7059 H   0  0  0  0  0  0  0  0  0  0  0  0
  141.0875   82.0144  223.4694 H   0  0  0  0  0  0  0  0  0  0  0  0
  142.4900   80.2889  221.6546 H   0  0  0  0  0  0  0  0  0  0  0  0
  142.9567   81.0118  223.2754 H   0  0  0  0  0  0  0  0  0  0  0  0
  143.1046   78.4555  223.0288 H   0  0  0  0  0  0  0  0  0  0  0  0
  142.2408   79.1395  224.4609 H   0  0  0  0  0  0  0  0  0  0  0  0
  142.0063   76.3818  222.5960 H   0  0  0  0  0  0  0  0  0  0  0  0
  141.8009   73.9006  221.8189 H   0  0  0  0  0  0  0  0  0  0  0  0
  140.6007   73.5065  220.5419 H   0  0  0  0  0  0  0  0  0  0  0  0
  141.4200   75.1051  220.5419 H   0  0  0  0  0  0  0  0  0  0  0  0
  137.6895   76.3073  222.2235 H   0  0  0  0  0  0  0  0  0  0  0  0
  137.5916   78.7035  222.9052 H   0  0  0  0  0  0  0  0  0  0  0  0
  138.7489   80.7897  223.1426 H   0  0  0  0  0  0  0  0  0  0  0  0
  139.8409   80.4127  224.5451 H   0  0  0  0  0  0  0  0  0  0  0  0
  1  2  1  0
  2  3  1  0
  3  4  1  0
  4  5  1  0
  5  6  1  0
  6  7  2  0
  7  8  1  0
  8  9  2  0
  9 10  1  0
 10 11  1  0
 11 12  1  0
 10 13  2  0
  3 14  1  0
 14 15  1  0
 15 16  1  0
 16 17  1  0
 17 18  2  0
 18 19  1  0
 19 20  1  0
 20 21  1  0
 19 22  2  0
 22 23  1  0
 23 24  2  0
 24 25  1  0
 13  6  1  0
 25 14  1  0
 24 17  1  0
  1 26  1  0
  1 27  1  0
  1 28  1  0
  2 29  1  0
  2 30  1  0
  4 31  1  0
  4 32  1  0
  5 33  1  0
  5 34  1  0
  7 35  1  0
  8 36  1  0
  9 37  1  0
 12 38  1  0
 12 39  1  0
 12 40  1  0
 13 41  1  0
 14 42  1  1
 15 43  1  0
 15 44  1  0
 16 45  1  0
 16 46  1  0
 18 47  1  0
 21 48  1  0
 21 49  1  0
 21 50  1  0
 22 51  1  0
 23 52  1  0
 25 53  1  0
 25 54  1  0
M  END
>  <UniqueID>  (26) 
26

>  <SMILES>  (26) 
CCN(CCc1cccc(OC)c1)[C@@H]1CCc2cc(OC)ccc2C1

>  <Energy>  (26) 
61.361030615866305

>  <Genealogy>  (26) 
CCN(CCc1cccc(OC)c1)[C@@H]1CCc2cc(OC)ccc2C1 (chirality)
CCN(CCc1cccc(OC)c1)[C@@H]1CCc2cc(OC)ccc2C1 (3D coordinates assigned)
CCN(CCc1cccc(OC)c1)[C@@H]1CCc2cc(OC)ccc2C1 (nonaromatic ring conformer: 61.361030615866305 kcal/mol)

>  <smiles>  (26) 
CCN(CCc1cccc(OC)c1)C1CCc2cc(OC)ccc2C1

>  <score_type>  (26) 
oracle

>  <origin>  (26) 
autodockgpu

>  <m_score__min__energy>  (26) 
-5.7599999999999998

>  <m_primary>  (26) 
energy

>  <meeko>  (26) 
{"free_energy": -4.9, "intermolecular_energy": -6.99, "internal_energy": -2.53, "cluster_size": 18, "cluster_id": 1, "rank_in_cluster": 15}

>  <energy>  (26) 
-5.53

>  <cluster_rmsd>  (26) 
0.36

>  <rmsd>  (26) 
270.08

>  <cluster>  (26) 
1

$$$$
MXOKLQPDPZBAAI-HXUWFJFHNA-N
     RDKit          3D

 54 56  0  0  0  0  0  0  0  0999 V2000
  137.9030   82.0810  221.1080 C   0  0  0  0  0  0  0  0  0  0  0  0
  139.2000   82.7210  221.6150 C   0  0  0  0  0  0  0  0  0  0  0  0
  140.3980   81.8570  221.4740 N   0  0  0  0  0  0  0  0  0  0  0  0
  141.4150   82.3710  220.5230 C   0  0  0  0  0  0  0  0  0  0  0  0
  141.2230   81.7900  219.1140 C   0  0  0  0  0  0  0  0  0  0  0  0
  141.1180   80.2880  219.1310 C   0  0  0  0  0  0  0  0  0  0  0  0
  142.2670   79.4960  218.9730 C   0  0  0  0  0  0  0  0  0  0  0  0
  142.1660   78.1020  218.9770 C   0  0  0  0  0  0  0  0  0  0  0  0
  140.9240   77.4900  219.1600 C   0  0  0  0  0  0  0  0  0  0  0  0
  139.7700   78.2620  219.3390 C   0  0  0  0  0  0  0  0  0  0  0  0
  138.5500   77.6010  219.5390 O   0  0  0  0  0  0  0  0  0  0  0  0
  137.2800   78.2460  219.5540 C   0  0  0  0  0  0  0  0  0  0  0  0
  139.8720   79.6670  219.3150 C   0  0  0  0  0  0  0  0  0  0  0  0
  140.9050   81.2900  222.7570 C   0  0  2  0  0  0  0  0  0  0  0  0
  142.2650   80.5190  222.6180 C   0  0  0  0  0  0  0  0  0  0  0  0
  142.2790   79.1270  223.2720 C   0  0  0  0  0  0  0  0  0  0  0  0
  141.0210   78.3710  222.9500 C   0  0  0  0  0  0  0  0  0  0  0  0
  141.0530   77.0120  222.6010 C   0  0  0  0  0  0  0  0  0  0  0  0
  139.8630   76.3130  222.3610 C   0  0  0  0  0  0  0  0  0  0  0  0
  139.9470   74.9620  221.9960 O   0  0  0  0  0  0  0  0  0  0  0  0
  140.9140   74.4320  221.0950 C   0  0  0  0  0  0  0  0  0  0  0  0
  138.6310   76.9810  222.5020 C   0  0  0  0  0  0  0  0  0  0  0  0
  138.5990   78.3290  222.8690 C   0  0  0  0  0  0  0  0  0  0  0  0
  139.7920   79.0340  223.0650 C   0  0  0  0  0  0  0  0  0  0  0  0
  139.7830   80.4840  223.4610 C   0  0  0  0  0  0  0  0  0  0  0  0
  137.2850   81.7761  221.9654 H   0  0  0  0  0  0  0  0  0  0  0  0
  137.3491   82.8092  220.4974 H   0  0  0  0  0  0  0  0  0  0  0  0
  138.1440   81.1984  220.4974 H   0  0  0  0  0  0  0  0  0  0  0  0
  139.3732   83.6469  221.0470 H   0  0  0  0  0  0  0  0  0  0  0  0
  139.0645   82.9017  222.6916 H   0  0  0  0  0  0  0  0  0  0  0  0
  141.3321   83.4666  220.4708 H   0  0  0  0  0  0  0  0  0  0  0  0
  142.4077   82.0666  220.8862 H   0  0  0  0  0  0  0  0  0  0  0  0
  140.3008   82.2053  218.6815 H   0  0  0  0  0  0  0  0  0  0  0  0
  142.1030   82.0616  218.5124 H   0  0  0  0  0  0  0  0  0  0  0  0
  143.2494   79.9742  218.8457 H   0  0  0  0  0  0  0  0  0  0  0  0
  143.0662   77.4859  218.8358 H   0  0  0  0  0  0  0  0  0  0  0  0
  140.8520   76.3924  219.1635 H   0  0  0  0  0  0  0  0  0  0  0  0
  136.9628   78.4071  220.5949 H   0  0  0  0  0  0  0  0  0  0  0  0
  137.3549   79.2153  219.0393 H   0  0  0  0  0  0  0  0  0  0  0  0
  136.5415   77.6137  219.0393 H   0  0  0  0  0  0  0  0  0  0  0  0
  138.9689   80.2821  219.4413 H   0  0  0  0  0  0  0  0  0  0  0  0
  141.1675   82.1306  223.4162 H   0  0  0  0  0  0  0  0  0  0  0  0
  142.4830   80.3974  221.5467 H   0  0  0  0  0  0  0  0  0  0  0  0
  143.0205   81.1199  223.1453 H   0  0  0  0  0  0  0  0  0  0  0  0
  143.1450   78.5616  222.8972 H   0  0  0  0  0  0  0  0  0  0  0  0
  142.3448   79.2517  224.3629 H   0  0  0  0  0  0  0  0  0  0  0  0
  142.0187   76.4924  222.5154 H   0  0  0  0  0  0  0  0  0  0  0  0
  141.7384   73.9801  221.6661 H   0  0  0  0  0  0  0  0  0  0  0  0
  140.4436   73.6656  220.4615 H   0  0  0  0  0  0  0  0  0  0  0  0
  141.3070   75.2408  220.4615 H   0  0  0  0  0  0  0  0  0  0  0  0
  137.6905   76.4395  222.3225 H   0  0  0  0  0  0  0  0  0  0  0  0
  137.6331   78.8376  223.0043 H   0  0  0  0  0  0  0  0  0  0  0  0
  138.8101   80.9195  223.1893 H   0  0  0  0  0  0  0  0  0  0  0  0
  139.9572   80.5391  224.5457 H   0  0  0  0  0  0  0  0  0  0  0  0
  1  2  1  0
  2  3  1  0
  3  4  1  0
  4  5  1  0
  5  6  1  0
  6  7  2  0
  7  8  1  0
  8  9  2  0
  9 10  1  0
 10 11  1  0
 11 12  1  0
 10 13  2  0
  3 14  1  0
 14 15  1  0
 15 16  1  0
 16 17  1  0
 17 18  2  0
 18 19  1  0
 19 20  1  0
 20 21  1  0
 19 22  2  0
 22 23  1  0
 23 24  2  0
 24 25  1  0
 13  6  1  0
 25 14  1  0
 24 17  1  0
  1 26  1  0
  1 27  1  0
  1 28  1  0
  2 29  1  0
  2 30  1  0
  4 31  1  0
  4 32  1  0
  5 33  1  0
  5 34  1  0
  7 35  1  0
  8 36  1  0
  9 37  1  0
 12 38  1  0
 12 39  1  0
 12 40  1  0
 13 41  1  0
 14 42  1  1
 15 43  1  0
 15 44  1  0
 16 45  1  0
 16 46  1  0
 18 47  1  0
 21 48  1  0
 21 49  1  0
 21 50  1  0
 22 51  1  0
 23 52  1  0
 25 53  1  0
 25 54  1  0
M  END
>  <UniqueID>  (27) 
26

>  <SMILES>  (27) 
CCN(CCc1cccc(OC)c1)[C@@H]1CCc2cc(OC)ccc2C1

>  <Energy>  (27) 
61.361030615866305

>  <Genealogy>  (27) 
CCN(CCc1cccc(OC)c1)[C@@H]1CCc2cc(OC)ccc2C1 (chirality)
CCN(CCc1cccc(OC)c1)[C@@H]1CCc2cc(OC)ccc2C1 (3D coordinates assigned)
CCN(CCc1cccc(OC)c1)[C@@H]1CCc2cc(OC)ccc2C1 (nonaromatic ring conformer: 61.361030615866305 kcal/mol)

>  <smiles>  (27) 
CCN(CCc1cccc(OC)c1)C1CCc2cc(OC)ccc2C1

>  <score_type>  (27) 
oracle

>  <origin>  (27) 
autodockgpu

>  <m_score__min__energy>  (27) 
-5.7599999999999998

>  <m_primary>  (27) 
energy

>  <meeko>  (27) 
{"free_energy": -4.67, "intermolecular_energy": -6.76, "internal_energy": -2.65, "cluster_size": 18, "cluster_id": 1, "rank_in_cluster": 17}

>  <energy>  (27) 
-5.13

>  <cluster_rmsd>  (27) 
0.93

>  <rmsd>  (27) 
270.02

>  <cluster>  (27) 
1

$$$$
MXOKLQPDPZBAAI-HXUWFJFHNA-N
     RDKit          3D

 54 56  0  0  0  0  0  0  0  0999 V2000
  137.9310   82.1950  221.1410 C   0  0  0  0  0  0  0  0  0  0  0  0
  139.2670   82.7560  221.6410 C   0  0  0  0  0  0  0  0  0  0  0  0
  140.3940   81.7940  221.5690 N   0  0  0  0  0  0  0  0  0  0  0  0
  141.4820   82.1950  220.6420 C   0  0  0  0  0  0  0  0  0  0  0  0
  141.2500   81.6530  219.2220 C   0  0  0  0  0  0  0  0  0  0  0  0
  141.0820   80.1570  219.2090 C   0  0  0  0  0  0  0  0  0  0  0  0
  139.8070   79.5860  219.3450 C   0  0  0  0  0  0  0  0  0  0  0  0
  139.6550   78.1970  219.3450 C   0  0  0  0  0  0  0  0  0  0  0  0
  140.7700   77.3690  219.1870 C   0  0  0  0  0  0  0  0  0  0  0  0
  142.0470   77.9200  219.0290 C   0  0  0  0  0  0  0  0  0  0  0  0
  143.1310   77.0490  218.8530 O   0  0  0  0  0  0  0  0  0  0  0  0
  143.4200   75.9430  219.7020 C   0  0  0  0  0  0  0  0  0  0  0  0
  142.1990   79.3210  219.0490 C   0  0  0  0  0  0  0  0  0  0  0  0
  140.8080   81.2270  222.8850 C   0  0  2  0  0  0  0  0  0  0  0  0
  142.1940   80.4900  222.8510 C   0  0  0  0  0  0  0  0  0  0  0  0
  142.1890   79.0930  223.4940 C   0  0  0  0  0  0  0  0  0  0  0  0
  140.9810   78.3100  223.0650 C   0  0  0  0  0  0  0  0  0  0  0  0
  141.0750   76.9560  222.7080 C   0  0  0  0  0  0  0  0  0  0  0  0
  139.9260   76.2310  222.3670 C   0  0  0  0  0  0  0  0  0  0  0  0
  140.0740   74.8850  222.0000 O   0  0  0  0  0  0  0  0  0  0  0  0
  139.0000   74.0380  221.6040 C   0  0  0  0  0  0  0  0  0  0  0  0
  138.6710   76.8670  222.4120 C   0  0  0  0  0  0  0  0  0  0  0  0
  138.5750   78.2100  222.7840 C   0  0  0  0  0  0  0  0  0  0  0  0
  139.7310   78.9420  223.0830 C   0  0  0  0  0  0  0  0  0  0  0  0
  139.6530   80.3870  223.4880 C   0  0  0  0  0  0  0  0  0  0  0  0
  137.2995   81.9298  222.0018 H   0  0  0  0  0  0  0  0  0  0  0  0
  137.4196   82.9544  220.5312 H   0  0  0  0  0  0  0  0  0  0  0  0
  138.1151   81.2982  220.5312 H   0  0  0  0  0  0  0  0  0  0  0  0
  139.5231   83.6341  221.0300 H   0  0  0  0  0  0  0  0  0  0  0  0
  139.1289   83.0030  222.7040 H   0  0  0  0  0  0  0  0  0  0  0  0
  141.5282   83.2933  220.6009 H   0  0  0  0  0  0  0  0  0  0  0  0
  142.4256   81.7738  221.0192 H   0  0  0  0  0  0  0  0  0  0  0  0
  140.3414   82.1159  218.8094 H   0  0  0  0  0  0  0  0  0  0  0  0
  142.1337   81.9006  218.6156 H   0  0  0  0  0  0  0  0  0  0  0  0
  138.9246   80.2341  219.4519 H   0  0  0  0  0  0  0  0  0  0  0  0
  138.6558   77.7542  219.4696 H   0  0  0  0  0  0  0  0  0  0  0  0
  140.6430   76.2764  219.1868 H   0  0  0  0  0  0  0  0  0  0  0  0
  143.3381   76.2565  220.7532 H   0  0  0  0  0  0  0  0  0  0  0  0
  142.7036   75.1320  219.5043 H   0  0  0  0  0  0  0  0  0  0  0  0
  144.4416   75.5861  219.5043 H   0  0  0  0  0  0  0  0  0  0  0  0
  143.2002   79.7630  218.9384 H   0  0  0  0  0  0  0  0  0  0  0  0
  140.9942   82.0670  223.5704 H   0  0  0  0  0  0  0  0  0  0  0  0
  142.5009   80.3835  221.8001 H   0  0  0  0  0  0  0  0  0  0  0  0
  142.8896   81.1040  223.4419 H   0  0  0  0  0  0  0  0  0  0  0  0
  143.0964   78.5521  223.1873 H   0  0  0  0  0  0  0  0  0  0  0  0
  142.1623   79.2094  224.5875 H   0  0  0  0  0  0  0  0  0  0  0  0
  142.0572   76.4609  222.6959 H   0  0  0  0  0  0  0  0  0  0  0  0
  138.4970   73.6413  222.4982 H   0  0  0  0  0  0  0  0  0  0  0  0
  138.2805   74.6144  221.0039 H   0  0  0  0  0  0  0  0  0  0  0  0
  139.3928   73.2040  221.0039 H   0  0  0  0  0  0  0  0  0  0  0  0
  137.7621   76.3041  222.1531 H   0  0  0  0  0  0  0  0  0  0  0  0
  137.5889   78.6939  222.8423 H   0  0  0  0  0  0  0  0  0  0  0  0
  138.6949   80.8011  223.1407 H   0  0  0  0  0  0  0  0  0  0  0  0
  139.7362   80.4357  224.5838 H   0  0  0  0  0  0  0  0  0  0  0  0
  1  2  1  0
  2  3  1  0
  3  4  1  0
  4  5  1  0
  5  6  1  0
  6  7  2  0
  7  8  1  0
  8  9  2  0
  9 10  1  0
 10 11  1  0
 11 12  1  0
 10 13  2  0
  3 14  1  0
 14 15  1  0
 15 16  1  0
 16 17  1  0
 17 18  2  0
 18 19  1  0
 19 20  1  0
 20 21  1  0
 19 22  2  0
 22 23  1  0
 23 24  2  0
 24 25  1  0
 13  6  1  0
 25 14  1  0
 24 17  1  0
  1 26  1  0
  1 27  1  0
  1 28  1  0
  2 29  1  0
  2 30  1  0
  4 31  1  0
  4 32  1  0
  5 33  1  0
  5 34  1  0
  7 35  1  0
  8 36  1  0
  9 37  1  0
 12 38  1  0
 12 39  1  0
 12 40  1  0
 13 41  1  0
 14 42  1  1
 15 43  1  0
 15 44  1  0
 16 45  1  0
 16 46  1  0
 18 47  1  0
 21 48  1  0
 21 49  1  0
 21 50  1  0
 22 51  1  0
 23 52  1  0
 25 53  1  0
 25 54  1  0
M  END
>  <UniqueID>  (28) 
26

>  <SMILES>  (28) 
CCN(CCc1cccc(OC)c1)[C@@H]1CCc2cc(OC)ccc2C1

>  <Energy>  (28) 
61.361030615866305

>  <Genealogy>  (28) 
CCN(CCc1cccc(OC)c1)[C@@H]1CCc2cc(OC)ccc2C1 (chirality)
CCN(CCc1cccc(OC)c1)[C@@H]1CCc2cc(OC)ccc2C1 (3D coordinates assigned)
CCN(CCc1cccc(OC)c1)[C@@H]1CCc2cc(OC)ccc2C1 (nonaromatic ring conformer: 61.361030615866305 kcal/mol)

>  <smiles>  (28) 
CCN(CCc1cccc(OC)c1)C1CCc2cc(OC)ccc2C1

>  <score_type>  (28) 
oracle

>  <origin>  (28) 
autodockgpu

>  <m_score__min__energy>  (28) 
-5.7599999999999998

>  <m_primary>  (28) 
energy

>  <meeko>  (28) 
{"free_energy": -5.01, "intermolecular_energy": -7.1, "internal_energy": -2.44, "cluster_size": 18, "cluster_id": 1, "rank_in_cluster": 11}

>  <energy>  (28) 
-5.1

>  <cluster_rmsd>  (28) 
0.93

>  <rmsd>  (28) 
270.05

>  <cluster>  (28) 
1

$$$$
MXOKLQPDPZBAAI-HXUWFJFHNA-N
     RDKit          3D

 54 56  0  0  0  0  0  0  0  0999 V2000
  139.2620   84.0240  221.1590 C   0  0  0  0  0  0  0  0  0  0  0  0
  139.1350   82.5540  221.5730 C   0  0  0  0  0  0  0  0  0  0  0  0
  140.4050   81.7910  221.4990 N   0  0  0  0  0  0  0  0  0  0  0  0
  141.4420   82.4110  220.6370 C   0  0  0  0  0  0  0  0  0  0  0  0
  141.5170   81.7350  219.2590 C   0  0  0  0  0  0  0  0  0  0  0  0
  140.9940   80.3230  219.2930 C   0  0  0  0  0  0  0  0  0  0  0  0
  139.6310   80.0680  219.0690 C   0  0  0  0  0  0  0  0  0  0  0  0
  139.1460   78.7580  219.1130 C   0  0  0  0  0  0  0  0  0  0  0  0
  140.0180   77.6950  219.3580 C   0  0  0  0  0  0  0  0  0  0  0  0
  141.3830   77.9270  219.5630 C   0  0  0  0  0  0  0  0  0  0  0  0
  142.2210   76.8260  219.7840 O   0  0  0  0  0  0  0  0  0  0  0  0
  143.3370   76.4880  218.9660 C   0  0  0  0  0  0  0  0  0  0  0  0
  141.8670   79.2500  219.5370 C   0  0  0  0  0  0  0  0  0  0  0  0
  140.8630   81.2270  222.8020 C   0  0  2  0  0  0  0  0  0  0  0  0
  142.2350   80.4670  222.7180 C   0  0  0  0  0  0  0  0  0  0  0  0
  142.2340   79.0760  223.3720 C   0  0  0  0  0  0  0  0  0  0  0  0
  140.9970   78.3080  222.9980 C   0  0  0  0  0  0  0  0  0  0  0  0
  141.0550   76.9510  222.6500 C   0  0  0  0  0  0  0  0  0  0  0  0
  139.8820   76.2420  222.3610 C   0  0  0  0  0  0  0  0  0  0  0  0
  139.9930   74.8910  221.9990 O   0  0  0  0  0  0  0  0  0  0  0  0
  141.0040   74.3700  221.1430 C   0  0  0  0  0  0  0  0  0  0  0  0
  138.6390   76.8980  222.4520 C   0  0  0  0  0  0  0  0  0  0  0  0
  138.5800   78.2460  222.8170 C   0  0  0  0  0  0  0  0  0  0  0  0
  139.7590   78.9610  223.0620 C   0  0  0  0  0  0  0  0  0  0  0  0
  139.7210   80.4100  223.4580 C   0  0  0  0  0  0  0  0  0  0  0  0
  139.3165   84.6549  222.0585 H   0  0  0  0  0  0  0  0  0  0  0  0
  140.1751   84.1589  220.5607 H   0  0  0  0  0  0  0  0  0  0  0  0
  138.3855   84.3135  220.5607 H   0  0  0  0  0  0  0  0  0  0  0  0
  138.7704   82.5177  222.6102 H   0  0  0  0  0  0  0  0  0  0  0  0
  138.4408   82.0833  220.8613 H   0  0  0  0  0  0  0  0  0  0  0  0
  141.2006   83.4753  220.4989 H   0  0  0  0  0  0  0  0  0  0  0  0
  142.4166   82.2878  221.1319 H   0  0  0  0  0  0  0  0  0  0  0  0
  140.9178   82.3183  218.5444 H   0  0  0  0  0  0  0  0  0  0  0  0
  142.5738   81.6982  218.9561 H   0  0  0  0  0  0  0  0  0  0  0  0
  138.9440   80.9009  218.8585 H   0  0  0  0  0  0  0  0  0  0  0  0
  138.0750   78.5638  218.9543 H   0  0  0  0  0  0  0  0  0  0  0  0
  139.6288   76.6667  219.3901 H   0  0  0  0  0  0  0  0  0  0  0  0
  144.1943   76.2284  219.6045 H   0  0  0  0  0  0  0  0  0  0  0  0
  143.0790   75.6277  218.3309 H   0  0  0  0  0  0  0  0  0  0  0  0
  143.5996   77.3469  218.3309 H   0  0  0  0  0  0  0  0  0  0  0  0
  142.9360   79.4439  219.7090 H   0  0  0  0  0  0  0  0  0  0  0  0
  141.0897   82.0693  223.4722 H   0  0  0  0  0  0  0  0  0  0  0  0
  142.4971   80.3474  221.6564 H   0  0  0  0  0  0  0  0  0  0  0  0
  142.9637   81.0742  223.2751 H   0  0  0  0  0  0  0  0  0  0  0  0
  143.1199   78.5185  223.0339 H   0  0  0  0  0  0  0  0  0  0  0  0
  142.2527   79.2015  224.4647 H   0  0  0  0  0  0  0  0  0  0  0  0
  142.0279   76.4399  222.6036 H   0  0  0  0  0  0  0  0  0  0  0  0
  141.8188   73.9501  221.7511 H   0  0  0  0  0  0  0  0  0  0  0  0
  140.5758   73.5803  220.5082 H   0  0  0  0  0  0  0  0  0  0  0  0
  141.3987   75.1770  220.5082 H   0  0  0  0  0  0  0  0  0  0  0  0
  137.7116   76.3477  222.2351 H   0  0  0  0  0  0  0  0  0  0  0  0
  137.6051   78.7465  222.9121 H   0  0  0  0  0  0  0  0  0  0  0  0
  138.7562   80.8370  223.1468 H   0  0  0  0  0  0  0  0  0  0  0  0
  139.8503   80.4651  224.5490 H   0  0  0  0  0  0  0  0  0  0  0  0
  1  2  1  0
  2  3  1  0
  3  4  1  0
  4  5  1  0
  5  6  1  0
  6  7  2  0
  7  8  1  0
  8  9  2  0
  9 10  1  0
 10 11  1  0
 11 12  1  0
 10 13  2  0
  3 14  1  0
 14 15  1  0
 15 16  1  0
 16 17  1  0
 17 18  2  0
 18 19  1  0
 19 20  1  0
 20 21  1  0
 19 22  2  0
 22 23  1  0
 23 24  2  0
 24 25  1  0
 13  6  1  0
 25 14  1  0
 24 17  1  0
  1 26  1  0
  1 27  1  0
  1 28  1  0
  2 29  1  0
  2 30  1  0
  4 31  1  0
  4 32  1  0
  5 33  1  0
  5 34  1  0
  7 35  1  0
  8 36  1  0
  9 37  1  0
 12 38  1  0
 12 39  1  0
 12 40  1  0
 13 41  1  0
 14 42  1  1
 15 43  1  0
 15 44  1  0
 16 45  1  0
 16 46  1  0
 18 47  1  0
 21 48  1  0
 21 49  1  0
 21 50  1  0
 22 51  1  0
 23 52  1  0
 25 53  1  0
 25 54  1  0
M  END
>  <UniqueID>  (29) 
26

>  <SMILES>  (29) 
CCN(CCc1cccc(OC)c1)[C@@H]1CCc2cc(OC)ccc2C1

>  <Energy>  (29) 
61.361030615866305

>  <Genealogy>  (29) 
CCN(CCc1cccc(OC)c1)[C@@H]1CCc2cc(OC)ccc2C1 (chirality)
CCN(CCc1cccc(OC)c1)[C@@H]1CCc2cc(OC)ccc2C1 (3D coordinates assigned)
CCN(CCc1cccc(OC)c1)[C@@H]1CCc2cc(OC)ccc2C1 (nonaromatic ring conformer: 61.361030615866305 kcal/mol)

>  <smiles>  (29) 
CCN(CCc1cccc(OC)c1)C1CCc2cc(OC)ccc2C1

>  <score_type>  (29) 
oracle

>  <origin>  (29) 
autodockgpu

>  <m_score__min__energy>  (29) 
-5.7599999999999998

>  <m_primary>  (29) 
energy

>  <meeko>  (29) 
{"free_energy": -4.92, "intermolecular_energy": -7.01, "internal_energy": -2.52, "cluster_size": 18, "cluster_id": 1, "rank_in_cluster": 14}

>  <energy>  (29) 
-5.08

>  <cluster_rmsd>  (29) 
1.05

>  <rmsd>  (29) 
270.21

>  <cluster>  (29) 
1

$$$$
MXOKLQPDPZBAAI-HXUWFJFHNA-N
     RDKit          3D

 54 56  0  0  0  0  0  0  0  0999 V2000
  138.7210   83.3920  221.5780 C   0  0  0  0  0  0  0  0  0  0  0  0
  140.2270   83.1670  221.4070 C   0  0  0  0  0  0  0  0  0  0  0  0
  140.6300   81.7390  221.4000 N   0  0  0  0  0  0  0  0  0  0  0  0
  141.5120   81.3580  220.2690 C   0  0  0  0  0  0  0  0  0  0  0  0
  140.7240   80.6900  219.1320 C   0  0  0  0  0  0  0  0  0  0  0  0
  140.8890   79.1930  219.1330 C   0  0  0  0  0  0  0  0  0  0  0  0
  139.7970   78.3600  218.8370 C   0  0  0  0  0  0  0  0  0  0  0  0
  139.9490   76.9710  218.8510 C   0  0  0  0  0  0  0  0  0  0  0  0
  141.1930   76.4050  219.1390 C   0  0  0  0  0  0  0  0  0  0  0  0
  142.2970   77.2180  219.4160 C   0  0  0  0  0  0  0  0  0  0  0  0
  143.5290   76.6030  219.6780 O   0  0  0  0  0  0  0  0  0  0  0  0
  143.7290   75.1940  219.7280 C   0  0  0  0  0  0  0  0  0  0  0  0
  142.1370   78.6180  219.4200 C   0  0  0  0  0  0  0  0  0  0  0  0
  140.9830   81.1910  222.7410 C   0  0  2  0  0  0  0  0  0  0  0  0
  142.3270   80.3780  222.7620 C   0  0  0  0  0  0  0  0  0  0  0  0
  142.2310   79.0040  223.4450 C   0  0  0  0  0  0  0  0  0  0  0  0
  140.9910   78.2750  223.0100 C   0  0  0  0  0  0  0  0  0  0  0  0
  141.0170   76.9080  222.6950 C   0  0  0  0  0  0  0  0  0  0  0  0
  139.8380   76.2360  222.3480 C   0  0  0  0  0  0  0  0  0  0  0  0
  139.9190   74.8740  222.0240 O   0  0  0  0  0  0  0  0  0  0  0  0
  141.1030   74.2260  221.5710 C   0  0  0  0  0  0  0  0  0  0  0  0
  138.6190   76.9410  222.3450 C   0  0  0  0  0  0  0  0  0  0  0  0
  138.5900   78.2990  222.6760 C   0  0  0  0  0  0  0  0  0  0  0  0
  139.7770   78.9750  222.9800 C   0  0  0  0  0  0  0  0  0  0  0  0
  139.7710   80.4330  223.3410 C   0  0  0  0  0  0  0  0  0  0  0  0
  138.4751   83.4287  222.6495 H   0  0  0  0  0  0  0  0  0  0  0  0
  138.4361   84.3427  221.1036 H   0  0  0  0  0  0  0  0  0  0  0  0
  138.1707   82.5661  221.1036 H   0  0  0  0  0  0  0  0  0  0  0  0
  140.5374   83.6181  220.4529 H   0  0  0  0  0  0  0  0  0  0  0  0
  140.7173   83.6303  222.2759 H   0  0  0  0  0  0  0  0  0  0  0  0
  142.0022   82.2623  219.8792 H   0  0  0  0  0  0  0  0  0  0  0  0
  142.2537   80.6361  220.6415 H   0  0  0  0  0  0  0  0  0  0  0  0
  139.6570   80.9295  219.2513 H   0  0  0  0  0  0  0  0  0  0  0  0
  141.1144   81.0736  218.1778 H   0  0  0  0  0  0  0  0  0  0  0  0
  138.8198   78.8024  218.5936 H   0  0  0  0  0  0  0  0  0  0  0  0
  139.0874   76.3222  218.6348 H   0  0  0  0  0  0  0  0  0  0  0  0
  141.3054   75.3108  219.1481 H   0  0  0  0  0  0  0  0  0  0  0  0
  143.7754   74.8673  220.7773 H   0  0  0  0  0  0  0  0  0  0  0  0
  142.8938   74.6869  219.2226 H   0  0  0  0  0  0  0  0  0  0  0  0
  144.6723   74.9394  219.2226 H   0  0  0  0  0  0  0  0  0  0  0  0
  142.9964   79.2651  219.6497 H   0  0  0  0  0  0  0  0  0  0  0  0
  141.1998   82.0409  223.4048 H   0  0  0  0  0  0  0  0  0  0  0  0
  142.6508   80.2228  221.7223 H   0  0  0  0  0  0  0  0  0  0  0  0
  143.0418   80.9709  223.3515 H   0  0  0  0  0  0  0  0  0  0  0  0
  143.1138   78.4055  223.1760 H   0  0  0  0  0  0  0  0  0  0  0  0
  142.1866   79.1548  224.5337 H   0  0  0  0  0  0  0  0  0  0  0  0
  141.9704   76.3599  222.7208 H   0  0  0  0  0  0  0  0  0  0  0  0
  141.6974   73.9007  222.4375 H   0  0  0  0  0  0  0  0  0  0  0  0
  140.8320   73.3505  220.9627 H   0  0  0  0  0  0  0  0  0  0  0  0
  141.6944   74.9262  220.9627 H   0  0  0  0  0  0  0  0  0  0  0  0
  137.6861   76.4213  222.0812 H   0  0  0  0  0  0  0  0  0  0  0  0
  137.6312   78.8378  222.6975 H   0  0  0  0  0  0  0  0  0  0  0  0
  138.8449   80.8882  222.9601 H   0  0  0  0  0  0  0  0  0  0  0  0
  139.8342   80.5094  224.4365 H   0  0  0  0  0  0  0  0  0  0  0  0
  1  2  1  0
  2  3  1  0
  3  4  1  0
  4  5  1  0
  5  6  1  0
  6  7  2  0
  7  8  1  0
  8  9  2  0
  9 10  1  0
 10 11  1  0
 11 12  1  0
 10 13  2  0
  3 14  1  0
 14 15  1  0
 15 16  1  0
 16 17  1  0
 17 18  2  0
 18 19  1  0
 19 20  1  0
 20 21  1  0
 19 22  2  0
 22 23  1  0
 23 24  2  0
 24 25  1  0
 13  6  1  0
 25 14  1  0
 24 17  1  0
  1 26  1  0
  1 27  1  0
  1 28  1  0
  2 29  1  0
  2 30  1  0
  4 31  1  0
  4 32  1  0
  5 33  1  0
  5 34  1  0
  7 35  1  0
  8 36  1  0
  9 37  1  0
 12 38  1  0
 12 39  1  0
 12 40  1  0
 13 41  1  0
 14 42  1  1
 15 43  1  0
 15 44  1  0
 16 45  1  0
 16 46  1  0
 18 47  1  0
 21 48  1  0
 21 49  1  0
 21 50  1  0
 22 51  1  0
 23 52  1  0
 25 53  1  0
 25 54  1  0
M  END
>  <UniqueID>  (30) 
26

>  <SMILES>  (30) 
CCN(CCc1cccc(OC)c1)[C@@H]1CCc2cc(OC)ccc2C1

>  <Energy>  (30) 
61.361030615866305

>  <Genealogy>  (30) 
CCN(CCc1cccc(OC)c1)[C@@H]1CCc2cc(OC)ccc2C1 (chirality)
CCN(CCc1cccc(OC)c1)[C@@H]1CCc2cc(OC)ccc2C1 (3D coordinates assigned)
CCN(CCc1cccc(OC)c1)[C@@H]1CCc2cc(OC)ccc2C1 (nonaromatic ring conformer: 61.361030615866305 kcal/mol)

>  <smiles>  (30) 
CCN(CCc1cccc(OC)c1)C1CCc2cc(OC)ccc2C1

>  <score_type>  (30) 
oracle

>  <origin>  (30) 
autodockgpu

>  <m_score__min__energy>  (30) 
-5.7599999999999998

>  <m_primary>  (30) 
energy

>  <meeko>  (30) 
{"free_energy": -4.92, "intermolecular_energy": -7.01, "internal_energy": -2.35, "cluster_size": 18, "cluster_id": 1, "rank_in_cluster": 13}

>  <energy>  (30) 
-5.04

>  <cluster_rmsd>  (30) 
0.86

>  <rmsd>  (30) 
270.05

>  <cluster>  (30) 
1

$$$$
MXOKLQPDPZBAAI-HXUWFJFHNA-N
     RDKit          3D

 54 56  0  0  0  0  0  0  0  0999 V2000
  138.3990   80.3600  222.8480 C   0  0  0  0  0  0  0  0  0  0  0  0
  139.2470   79.3050  223.5660 C   0  0  0  0  0  0  0  0  0  0  0  0
  140.2180   78.6070  222.6870 N   0  0  0  0  0  0  0  0  0  0  0  0
  141.5090   78.2800  223.3410 C   0  0  0  0  0  0  0  0  0  0  0  0
  142.5500   79.3930  223.1390 C   0  0  0  0  0  0  0  0  0  0  0  0
  142.0710   80.4460  222.1750 C   0  0  0  0  0  0  0  0  0  0  0  0
  141.5720   81.6690  222.6520 C   0  0  0  0  0  0  0  0  0  0  0  0
  141.1170   82.6400  221.7570 C   0  0  0  0  0  0  0  0  0  0  0  0
  141.1750   82.4060  220.3800 C   0  0  0  0  0  0  0  0  0  0  0  0
  141.6870   81.2020  219.8850 C   0  0  0  0  0  0  0  0  0  0  0  0
  141.7450   81.0230  218.4950 O   0  0  0  0  0  0  0  0  0  0  0  0
  142.5810   80.0740  217.8410 C   0  0  0  0  0  0  0  0  0  0  0  0
  142.1280   80.2170  220.7910 C   0  0  0  0  0  0  0  0  0  0  0  0
  139.6190   77.5530  221.8190 C   0  0  2  0  0  0  0  0  0  0  0  0
  139.5990   76.1260  222.4740 C   0  0  0  0  0  0  0  0  0  0  0  0
  140.1450   75.0040  221.5750 C   0  0  0  0  0  0  0  0  0  0  0  0
  141.4140   75.4330  220.8940 C   0  0  0  0  0  0  0  0  0  0  0  0
  142.5170   74.5710  220.7910 C   0  0  0  0  0  0  0  0  0  0  0  0
  143.6690   74.9720  220.1010 C   0  0  0  0  0  0  0  0  0  0  0  0
  144.7510   74.0830  220.0410 O   0  0  0  0  0  0  0  0  0  0  0  0
  145.3360   73.4520  221.1760 C   0  0  0  0  0  0  0  0  0  0  0  0
  143.6980   76.2390  219.4870 C   0  0  0  0  0  0  0  0  0  0  0  0
  142.5930   77.0900  219.5750 C   0  0  0  0  0  0  0  0  0  0  0  0
  141.4620   76.7020  220.3020 C   0  0  0  0  0  0  0  0  0  0  0  0
  140.2610   77.5990  220.4080 C   0  0  0  0  0  0  0  0  0  0  0  0
  137.8916   80.9913  223.5924 H   0  0  0  0  0  0  0  0  0  0  0  0
  139.0483   80.9858  222.2181 H   0  0  0  0  0  0  0  0  0  0  0  0
  137.6483   79.8604  222.2181 H   0  0  0  0  0  0  0  0  0  0  0  0
  139.8062   79.8018  224.3725 H   0  0  0  0  0  0  0  0  0  0  0  0
  138.5510   78.5398  223.9403 H   0  0  0  0  0  0  0  0  0  0  0  0
  141.3376   78.1443  224.4191 H   0  0  0  0  0  0  0  0  0  0  0  0
  141.9001   77.3592  222.8836 H   0  0  0  0  0  0  0  0  0  0  0  0
  142.7553   79.8675  224.1099 H   0  0  0  0  0  0  0  0  0  0  0  0
  143.4583   78.9362  222.7191 H   0  0  0  0  0  0  0  0  0  0  0  0
  141.5394   81.8629  223.7343 H   0  0  0  0  0  0  0  0  0  0  0  0
  140.7125   83.5901  222.1362 H   0  0  0  0  0  0  0  0  0  0  0  0
  140.8152   83.1747  219.6802 H   0  0  0  0  0  0  0  0  0  0  0  0
  143.1112   79.4722  218.5938 H   0  0  0  0  0  0  0  0  0  0  0  0
  141.9649   79.4146  217.2120 H   0  0  0  0  0  0  0  0  0  0  0  0
  143.3128   80.6020  217.2120 H   0  0  0  0  0  0  0  0  0  0  0  0
  142.5197   79.2619  220.4112 H   0  0  0  0  0  0  0  0  0  0  0  0
  138.5498   77.7823  221.6999 H   0  0  0  0  0  0  0  0  0  0  0  0
  140.2078   76.1596  223.3895 H   0  0  0  0  0  0  0  0  0  0  0  0
  138.5433   75.8856  222.6681 H   0  0  0  0  0  0  0  0  0  0  0  0
  140.3493   74.1159  222.1911 H   0  0  0  0  0  0  0  0  0  0  0  0
  139.3937   74.7729  220.8055 H   0  0  0  0  0  0  0  0  0  0  0  0
  142.4769   73.5744  221.2548 H   0  0  0  0  0  0  0  0  0  0  0  0
  144.9247   73.8956  222.0947 H   0  0  0  0  0  0  0  0  0  0  0  0
  145.1089   72.3759  221.1549 H   0  0  0  0  0  0  0  0  0  0  0  0
  146.4262   73.5971  221.1549 H   0  0  0  0  0  0  0  0  0  0  0  0
  144.5941   76.5602  218.9358 H   0  0  0  0  0  0  0  0  0  0  0  0
  142.6123   78.0677  219.0713 H   0  0  0  0  0  0  0  0  0  0  0  0
  140.5705   78.6324  220.1930 H   0  0  0  0  0  0  0  0  0  0  0  0
  139.5114   77.2471  219.6840 H   0  0  0  0  0  0  0  0  0  0  0  0
  1  2  1  0
  2  3  1  0
  3  4  1  0
  4  5  1  0
  5  6  1  0
  6  7  2  0
  7  8  1  0
  8  9  2  0
  9 10  1  0
 10 11  1  0
 11 12  1  0
 10 13  2  0
  3 14  1  0
 14 15  1  0
 15 16  1  0
 16 17  1  0
 17 18  2  0
 18 19  1  0
 19 20  1  0
 20 21  1  0
 19 22  2  0
 22 23  1  0
 23 24  2  0
 24 25  1  0
 13  6  1  0
 25 14  1  0
 24 17  1  0
  1 26  1  0
  1 27  1  0
  1 28  1  0
  2 29  1  0
  2 30  1  0
  4 31  1  0
  4 32  1  0
  5 33  1  0
  5 34  1  0
  7 35  1  0
  8 36  1  0
  9 37  1  0
 12 38  1  0
 12 39  1  0
 12 40  1  0
 13 41  1  0
 14 42  1  6
 15 43  1  0
 15 44  1  0
 16 45  1  0
 16 46  1  0
 18 47  1  0
 21 48  1  0
 21 49  1  0
 21 50  1  0
 22 51  1  0
 23 52  1  0
 25 53  1  0
 25 54  1  0
M  END
>  <UniqueID>  (31) 
26

>  <SMILES>  (31) 
CCN(CCc1cccc(OC)c1)[C@@H]1CCc2cc(OC)ccc2C1

>  <Energy>  (31) 
61.361030615866305

>  <Genealogy>  (31) 
CCN(CCc1cccc(OC)c1)[C@@H]1CCc2cc(OC)ccc2C1 (chirality)
CCN(CCc1cccc(OC)c1)[C@@H]1CCc2cc(OC)ccc2C1 (3D coordinates assigned)
CCN(CCc1cccc(OC)c1)[C@@H]1CCc2cc(OC)ccc2C1 (nonaromatic ring conformer: 61.361030615866305 kcal/mol)

>  <smiles>  (31) 
CCN(CCc1cccc(OC)c1)C1CCc2cc(OC)ccc2C1

>  <score_type>  (31) 
oracle

>  <origin>  (31) 
autodockgpu

>  <m_score__min__energy>  (31) 
-5.7599999999999998

>  <m_primary>  (31) 
energy

>  <meeko>  (31) 
{"free_energy": -5.58, "intermolecular_energy": -7.67, "internal_energy": -1.84, "cluster_size": 2, "cluster_id": 2, "rank_in_cluster": 2}

>  <energy>  (31) 
-5.01

>  <cluster_rmsd>  (31) 
1.1

>  <rmsd>  (31) 
270.12

>  <cluster>  (31) 
1

$$$$
MXOKLQPDPZBAAI-HXUWFJFHNA-N
     RDKit          3D

 54 56  0  0  0  0  0  0  0  0999 V2000
  138.3900   80.4280  222.9780 C   0  0  0  0  0  0  0  0  0  0  0  0
  139.2620   79.3530  223.6360 C   0  0  0  0  0  0  0  0  0  0  0  0
  140.2040   78.6830  222.7050 N   0  0  0  0  0  0  0  0  0  0  0  0
  141.4980   78.2940  223.3190 C   0  0  0  0  0  0  0  0  0  0  0  0
  142.5800   79.3620  223.0920 C   0  0  0  0  0  0  0  0  0  0  0  0
  142.1180   80.4450  222.1530 C   0  0  0  0  0  0  0  0  0  0  0  0
  141.6330   81.6610  222.6600 C   0  0  0  0  0  0  0  0  0  0  0  0
  141.1930   82.6600  221.7870 C   0  0  0  0  0  0  0  0  0  0  0  0
  141.2530   82.4600  220.4060 C   0  0  0  0  0  0  0  0  0  0  0  0
  141.7520   81.2630  219.8820 C   0  0  0  0  0  0  0  0  0  0  0  0
  141.8130   81.1180  218.4880 O   0  0  0  0  0  0  0  0  0  0  0  0
  142.5620   80.1100  217.8170 C   0  0  0  0  0  0  0  0  0  0  0  0
  142.1780   80.2500  220.7640 C   0  0  0  0  0  0  0  0  0  0  0  0
  139.5680   77.6890  221.7930 C   0  0  2  0  0  0  0  0  0  0  0  0
  139.4400   76.2510  222.4110 C   0  0  0  0  0  0  0  0  0  0  0  0
  139.9440   75.1180  221.5010 C   0  0  0  0  0  0  0  0  0  0  0  0
  141.2580   75.4830  220.8690 C   0  0  0  0  0  0  0  0  0  0  0  0
  142.3080   74.5570  220.7770 C   0  0  0  0  0  0  0  0  0  0  0  0
  143.5030   74.9010  220.1320 C   0  0  0  0  0  0  0  0  0  0  0  0
  144.5300   73.9470  220.0830 O   0  0  0  0  0  0  0  0  0  0  0  0
  145.7270   74.0150  220.8510 C   0  0  0  0  0  0  0  0  0  0  0  0
  143.6300   76.1770  219.5520 C   0  0  0  0  0  0  0  0  0  0  0  0
  142.5770   77.0930  219.6280 C   0  0  0  0  0  0  0  0  0  0  0  0
  141.4020   76.7600  220.3110 C   0  0  0  0  0  0  0  0  0  0  0  0
  140.2550   77.7270  220.4040 C   0  0  0  0  0  0  0  0  0  0  0  0
  137.9009   81.0310  223.7572 H   0  0  0  0  0  0  0  0  0  0  0  0
  139.0192   81.0781  222.3523 H   0  0  0  0  0  0  0  0  0  0  0  0
  137.6241   79.9465  222.3523 H   0  0  0  0  0  0  0  0  0  0  0  0
  139.8472   79.8263  224.4382 H   0  0  0  0  0  0  0  0  0  0  0  0
  138.5792   78.5759  224.0099 H   0  0  0  0  0  0  0  0  0  0  0  0
  141.3526   78.1585  224.4009 H   0  0  0  0  0  0  0  0  0  0  0  0
  141.8344   77.3597  222.8459 H   0  0  0  0  0  0  0  0  0  0  0  0
  142.8375   79.8174  224.0596 H   0  0  0  0  0  0  0  0  0  0  0  0
  143.4526   78.8694  222.6382 H   0  0  0  0  0  0  0  0  0  0  0  0
  141.5992   81.8280  223.7467 H   0  0  0  0  0  0  0  0  0  0  0  0
  140.7988   83.6053  222.1883 H   0  0  0  0  0  0  0  0  0  0  0  0
  140.9049   83.2504  219.7248 H   0  0  0  0  0  0  0  0  0  0  0  0
  143.0464   79.4581  218.5589 H   0  0  0  0  0  0  0  0  0  0  0  0
  141.8882   79.5109  217.1869 H   0  0  0  0  0  0  0  0  0  0  0  0
  143.3300   80.5822  217.1869 H   0  0  0  0  0  0  0  0  0  0  0  0
  142.5600   79.3002  220.3616 H   0  0  0  0  0  0  0  0  0  0  0  0
  138.5194   77.9880  221.6480 H   0  0  0  0  0  0  0  0  0  0  0  0
  140.0207   76.2256  223.3449 H   0  0  0  0  0  0  0  0  0  0  0  0
  138.3659   76.0723  222.5671 H   0  0  0  0  0  0  0  0  0  0  0  0
  140.0739   74.2050  222.1007 H   0  0  0  0  0  0  0  0  0  0  0  0
  139.2044   74.9516  220.7039 H   0  0  0  0  0  0  0  0  0  0  0  0
  142.1921   73.5543  221.2142 H   0  0  0  0  0  0  0  0  0  0  0  0
  145.4768   74.0008  221.9221 H   0  0  0  0  0  0  0  0  0  0  0  0
  146.3655   73.1517  220.6121 H   0  0  0  0  0  0  0  0  0  0  0  0
  146.2636   74.9451  220.6121 H   0  0  0  0  0  0  0  0  0  0  0  0
  144.5615   76.4545  219.0369 H   0  0  0  0  0  0  0  0  0  0  0  0
  142.6723   78.0788  219.1494 H   0  0  0  0  0  0  0  0  0  0  0  0
  140.6336   78.7440  220.2238 H   0  0  0  0  0  0  0  0  0  0  0  0
  139.5080   77.4383  219.6499 H   0  0  0  0  0  0  0  0  0  0  0  0
  1  2  1  0
  2  3  1  0
  3  4  1  0
  4  5  1  0
  5  6  1  0
  6  7  2  0
  7  8  1  0
  8  9  2  0
  9 10  1  0
 10 11  1  0
 11 12  1  0
 10 13  2  0
  3 14  1  0
 14 15  1  0
 15 16  1  0
 16 17  1  0
 17 18  2  0
 18 19  1  0
 19 20  1  0
 20 21  1  0
 19 22  2  0
 22 23  1  0
 23 24  2  0
 24 25  1  0
 13  6  1  0
 25 14  1  0
 24 17  1  0
  1 26  1  0
  1 27  1  0
  1 28  1  0
  2 29  1  0
  2 30  1  0
  4 31  1  0
  4 32  1  0
  5 33  1  0
  5 34  1  0
  7 35  1  0
  8 36  1  0
  9 37  1  0
 12 38  1  0
 12 39  1  0
 12 40  1  0
 13 41  1  0
 14 42  1  6
 15 43  1  0
 15 44  1  0
 16 45  1  0
 16 46  1  0
 18 47  1  0
 21 48  1  0
 21 49  1  0
 21 50  1  0
 22 51  1  0
 23 52  1  0
 25 53  1  0
 25 54  1  0
M  END
>  <UniqueID>  (32) 
26

>  <SMILES>  (32) 
CCN(CCc1cccc(OC)c1)[C@@H]1CCc2cc(OC)ccc2C1

>  <Energy>  (32) 
61.361030615866305

>  <Genealogy>  (32) 
CCN(CCc1cccc(OC)c1)[C@@H]1CCc2cc(OC)ccc2C1 (chirality)
CCN(CCc1cccc(OC)c1)[C@@H]1CCc2cc(OC)ccc2C1 (3D coordinates assigned)
CCN(CCc1cccc(OC)c1)[C@@H]1CCc2cc(OC)ccc2C1 (nonaromatic ring conformer: 61.361030615866305 kcal/mol)

>  <smiles>  (32) 
CCN(CCc1cccc(OC)c1)C1CCc2cc(OC)ccc2C1

>  <score_type>  (32) 
oracle

>  <origin>  (32) 
autodockgpu

>  <m_score__min__energy>  (32) 
-5.7599999999999998

>  <m_primary>  (32) 
energy

>  <meeko>  (32) 
{"free_energy": -5.58, "intermolecular_energy": -7.67, "internal_energy": -1.83, "cluster_size": 2, "cluster_id": 2, "rank_in_cluster": 1}

>  <energy>  (32) 
-5.0

>  <cluster_rmsd>  (32) 
0.88

>  <rmsd>  (32) 
270.02

>  <cluster>  (32) 
1

$$$$
MXOKLQPDPZBAAI-HXUWFJFHNA-N
     RDKit          3D

 54 56  0  0  0  0  0  0  0  0999 V2000
  140.3360   83.7360  219.9360 C   0  0  0  0  0  0  0  0  0  0  0  0
  140.9880   83.2000  221.2140 C   0  0  0  0  0  0  0  0  0  0  0  0
  141.0140   81.7190  221.3070 N   0  0  0  0  0  0  0  0  0  0  0  0
  141.8280   81.0540  220.2590 C   0  0  0  0  0  0  0  0  0  0  0  0
  140.9670   80.1640  219.3490 C   0  0  0  0  0  0  0  0  0  0  0  0
  141.7310   78.9710  218.8380 C   0  0  0  0  0  0  0  0  0  0  0  0
  142.1460   78.9160  217.4980 C   0  0  0  0  0  0  0  0  0  0  0  0
  142.8440   77.8030  217.0230 C   0  0  0  0  0  0  0  0  0  0  0  0
  143.1520   76.7480  217.8860 C   0  0  0  0  0  0  0  0  0  0  0  0
  142.7650   76.7940  219.2300 C   0  0  0  0  0  0  0  0  0  0  0  0
  143.1160   75.7200  220.0620 O   0  0  0  0  0  0  0  0  0  0  0  0
  144.1150   74.7560  219.7500 C   0  0  0  0  0  0  0  0  0  0  0  0
  142.0450   77.9090  219.7020 C   0  0  0  0  0  0  0  0  0  0  0  0
  141.1460   81.1900  222.6950 C   0  0  2  0  0  0  0  0  0  0  0  0
  142.4400   80.3320  222.9280 C   0  0  0  0  0  0  0  0  0  0  0  0
  142.1930   78.9780  223.6130 C   0  0  0  0  0  0  0  0  0  0  0  0
  141.0040   78.2820  223.0130 C   0  0  0  0  0  0  0  0  0  0  0  0
  141.0250   76.9080  222.7300 C   0  0  0  0  0  0  0  0  0  0  0  0
  139.8850   76.2700  222.2240 C   0  0  0  0  0  0  0  0  0  0  0  0
  139.9610   74.8990  221.9390 O   0  0  0  0  0  0  0  0  0  0  0  0
  141.1370   74.2380  221.4850 C   0  0  0  0  0  0  0  0  0  0  0  0
  138.7070   77.0170  222.0290 C   0  0  0  0  0  0  0  0  0  0  0  0
  138.6800   78.3810  222.3280 C   0  0  0  0  0  0  0  0  0  0  0  0
  139.8350   79.0230  222.7920 C   0  0  0  0  0  0  0  0  0  0  0  0
  139.8310   80.4890  223.1230 C   0  0  0  0  0  0  0  0  0  0  0  0
  139.5114   84.4139  220.2016 H   0  0  0  0  0  0  0  0  0  0  0  0
  141.0845   84.2833  219.3443 H   0  0  0  0  0  0  0  0  0  0  0  0
  139.9438   82.8957  219.3443 H   0  0  0  0  0  0  0  0  0  0  0  0
  142.0244   83.5666  221.2528 H   0  0  0  0  0  0  0  0  0  0  0  0
  140.3778   83.5595  222.0557 H   0  0  0  0  0  0  0  0  0  0  0  0
  142.3166   81.8247  219.6447 H   0  0  0  0  0  0  0  0  0  0  0  0
  142.5727   80.4158  220.7571 H   0  0  0  0  0  0  0  0  0  0  0  0
  140.0962   79.8097  219.9201 H   0  0  0  0  0  0  0  0  0  0  0  0
  140.6570   80.7652  218.4816 H   0  0  0  0  0  0  0  0  0  0  0  0
  141.9208   79.7522  216.8197 H   0  0  0  0  0  0  0  0  0  0  0  0
  143.1517   77.7570  215.9679 H   0  0  0  0  0  0  0  0  0  0  0  0
  143.7027   75.8749  217.5061 H   0  0  0  0  0  0  0  0  0  0  0  0
  144.5361   74.3497  220.6815 H   0  0  0  0  0  0  0  0  0  0  0  0
  143.6670   73.9402  219.1637 H   0  0  0  0  0  0  0  0  0  0  0  0
  144.9143   75.2328  219.1637 H   0  0  0  0  0  0  0  0  0  0  0  0
  141.7266   77.9482  220.7542 H   0  0  0  0  0  0  0  0  0  0  0  0
  141.2956   82.0467  223.3686 H   0  0  0  0  0  0  0  0  0  0  0  0
  142.9069   80.1422  221.9503 H   0  0  0  0  0  0  0  0  0  0  0  0
  143.0824   80.9129  223.6062 H   0  0  0  0  0  0  0  0  0  0  0  0
  143.0827   78.3435  223.4877 H   0  0  0  0  0  0  0  0  0  0  0  0
  141.9945   79.1553  224.6803 H   0  0  0  0  0  0  0  0  0  0  0  0
  141.9427   76.3278  222.9066 H   0  0  0  0  0  0  0  0  0  0  0  0
  141.7283   73.9056  222.3510 H   0  0  0  0  0  0  0  0  0  0  0  0
  140.8557   73.3658  220.8766 H   0  0  0  0  0  0  0  0  0  0  0  0
  141.7358   74.9317  220.8766 H   0  0  0  0  0  0  0  0  0  0  0  0
  137.8042   76.5239  221.6395 H   0  0  0  0  0  0  0  0  0  0  0  0
  137.7491   78.9526  222.1987 H   0  0  0  0  0  0  0  0  0  0  0  0
  138.9887   80.9675  222.6018 H   0  0  0  0  0  0  0  0  0  0  0  0
  139.7352   80.5884  224.2143 H   0  0  0  0  0  0  0  0  0  0  0  0
  1  2  1  0
  2  3  1  0
  3  4  1  0
  4  5  1  0
  5  6  1  0
  6  7  2  0
  7  8  1  0
  8  9  2  0
  9 10  1  0
 10 11  1  0
 11 12  1  0
 10 13  2  0
  3 14  1  0
 14 15  1  0
 15 16  1  0
 16 17  1  0
 17 18  2  0
 18 19  1  0
 19 20  1  0
 20 21  1  0
 19 22  2  0
 22 23  1  0
 23 24  2  0
 24 25  1  0
 13  6  1  0
 25 14  1  0
 24 17  1  0
  1 26  1  0
  1 27  1  0
  1 28  1  0
  2 29  1  0
  2 30  1  0
  4 31  1  0
  4 32  1  0
  5 33  1  0
  5 34  1  0
  7 35  1  0
  8 36  1  0
  9 37  1  0
 12 38  1  0
 12 39  1  0
 12 40  1  0
 13 41  1  0
 14 42  1  1
 15 43  1  0
 15 44  1  0
 16 45  1  0
 16 46  1  0
 18 47  1  0
 21 48  1  0
 21 49  1  0
 21 50  1  0
 22 51  1  0
 23 52  1  0
 25 53  1  0
 25 54  1  0
M  END
>  <UniqueID>  (33) 
26

>  <SMILES>  (33) 
CCN(CCc1cccc(OC)c1)[C@@H]1CCc2cc(OC)ccc2C1

>  <Energy>  (33) 
61.361030615866305

>  <Genealogy>  (33) 
CCN(CCc1cccc(OC)c1)[C@@H]1CCc2cc(OC)ccc2C1 (chirality)
CCN(CCc1cccc(OC)c1)[C@@H]1CCc2cc(OC)ccc2C1 (3D coordinates assigned)
CCN(CCc1cccc(OC)c1)[C@@H]1CCc2cc(OC)ccc2C1 (nonaromatic ring conformer: 61.361030615866305 kcal/mol)

>  <smiles>  (33) 
CCN(CCc1cccc(OC)c1)C1CCc2cc(OC)ccc2C1

>  <score_type>  (33) 
oracle

>  <origin>  (33) 
autodockgpu

>  <m_score__min__energy>  (33) 
-5.7599999999999998

>  <m_primary>  (33) 
energy

>  <meeko>  (33) 
{"free_energy": -5.61, "intermolecular_energy": -7.7, "internal_energy": -1.83, "cluster_size": 18, "cluster_id": 1, "rank_in_cluster": 4}

>  <energy>  (33) 
-4.92

>  <cluster_rmsd>  (33) 
0.84

>  <rmsd>  (33) 
270.12

>  <cluster>  (33) 
1

$$$$
MXOKLQPDPZBAAI-HXUWFJFHNA-N
     RDKit          3D

 54 56  0  0  0  0  0  0  0  0999 V2000
  139.8150   84.0060  220.8990 C   0  0  0  0  0  0  0  0  0  0  0  0
  141.0720   83.1890  221.2190 C   0  0  0  0  0  0  0  0  0  0  0  0
  140.8300   81.7310  221.3530 N   0  0  0  0  0  0  0  0  0  0  0  0
  141.3830   80.9150  220.2440 C   0  0  0  0  0  0  0  0  0  0  0  0
  140.2800   80.1510  219.4940 C   0  0  0  0  0  0  0  0  0  0  0  0
  140.6370   78.7040  219.2840 C   0  0  0  0  0  0  0  0  0  0  0  0
  139.6650   77.7920  218.8400 C   0  0  0  0  0  0  0  0  0  0  0  0
  139.9950   76.4460  218.6580 C   0  0  0  0  0  0  0  0  0  0  0  0
  141.3000   76.0060  218.8980 C   0  0  0  0  0  0  0  0  0  0  0  0
  142.2860   76.9030  219.3220 C   0  0  0  0  0  0  0  0  0  0  0  0
  143.5850   76.4170  219.5280 O   0  0  0  0  0  0  0  0  0  0  0  0
  143.8870   75.1220  220.0370 C   0  0  0  0  0  0  0  0  0  0  0  0
  141.9460   78.2560  219.5220 C   0  0  0  0  0  0  0  0  0  0  0  0
  141.0140   81.2000  222.7340 C   0  0  2  0  0  0  0  0  0  0  0  0
  142.3540   80.4070  222.9370 C   0  0  0  0  0  0  0  0  0  0  0  0
  142.1880   79.0370  223.6150 C   0  0  0  0  0  0  0  0  0  0  0  0
  141.0250   78.2860  223.0310 C   0  0  0  0  0  0  0  0  0  0  0  0
  141.1110   76.9170  222.7370 C   0  0  0  0  0  0  0  0  0  0  0  0
  139.9950   76.2260  222.2460 C   0  0  0  0  0  0  0  0  0  0  0  0
  140.1360   74.8620  221.9490 O   0  0  0  0  0  0  0  0  0  0  0  0
  139.0660   74.0130  221.5490 C   0  0  0  0  0  0  0  0  0  0  0  0
  138.7780   76.9130  222.0780 C   0  0  0  0  0  0  0  0  0  0  0  0
  138.6880   78.2720  222.3890 C   0  0  0  0  0  0  0  0  0  0  0  0
  139.8170   78.9680  222.8380 C   0  0  0  0  0  0  0  0  0  0  0  0
  139.7440   80.4290  223.1800 C   0  0  0  0  0  0  0  0  0  0  0  0
  139.3328   84.3194  221.8367 H   0  0  0  0  0  0  0  0  0  0  0  0
  140.0945   84.8955  220.3153 H   0  0  0  0  0  0  0  0  0  0  0  0
  139.1156   83.3894  220.3153 H   0  0  0  0  0  0  0  0  0  0  0  0
  141.8006   83.3452  220.4098 H   0  0  0  0  0  0  0  0  0  0  0  0
  141.4384   83.5404  222.1948 H   0  0  0  0  0  0  0  0  0  0  0  0
  141.9004   81.5795  219.5364 H   0  0  0  0  0  0  0  0  0  0  0  0
  142.0778   80.1786  220.6741 H   0  0  0  0  0  0  0  0  0  0  0  0
  139.3499   80.2057  220.0788 H   0  0  0  0  0  0  0  0  0  0  0  0
  140.1572   80.6169  218.5051 H   0  0  0  0  0  0  0  0  0  0  0  0
  138.6412   78.1382  218.6350 H   0  0  0  0  0  0  0  0  0  0  0  0
  139.2269   75.7321  218.3256 H   0  0  0  0  0  0  0  0  0  0  0  0
  141.5536   74.9456  218.7522 H   0  0  0  0  0  0  0  0  0  0  0  0
  143.8806   75.1496  221.1366 H   0  0  0  0  0  0  0  0  0  0  0  0
  143.1322   74.4040  219.6838 H   0  0  0  0  0  0  0  0  0  0  0  0
  144.8815   74.8120  219.6838 H   0  0  0  0  0  0  0  0  0  0  0  0
  142.7119   78.9662  219.8671 H   0  0  0  0  0  0  0  0  0  0  0  0
  141.1320   82.0587  223.4113 H   0  0  0  0  0  0  0  0  0  0  0  0
  142.8123   80.2484  221.9497 H   0  0  0  0  0  0  0  0  0  0  0  0
  142.9783   81.0147  223.6085 H   0  0  0  0  0  0  0  0  0  0  0  0
  143.1062   78.4492  223.4685 H   0  0  0  0  0  0  0  0  0  0  0  0
  142.0002   79.1964  224.6871 H   0  0  0  0  0  0  0  0  0  0  0  0
  142.0599   76.3828  222.8928 H   0  0  0  0  0  0  0  0  0  0  0  0
  138.5620   73.6131  222.4412 H   0  0  0  0  0  0  0  0  0  0  0  0
  138.3462   74.5884  220.9483 H   0  0  0  0  0  0  0  0  0  0  0  0
  139.4628   73.1813  220.9483 H   0  0  0  0  0  0  0  0  0  0  0  0
  137.8943   76.3777  221.7004 H   0  0  0  0  0  0  0  0  0  0  0  0
  137.7274   78.7969  222.2808 H   0  0  0  0  0  0  0  0  0  0  0  0
  138.8690   80.8671  222.6775 H   0  0  0  0  0  0  0  0  0  0  0  0
  139.6631   80.5159  224.2736 H   0  0  0  0  0  0  0  0  0  0  0  0
  1  2  1  0
  2  3  1  0
  3  4  1  0
  4  5  1  0
  5  6  1  0
  6  7  2  0
  7  8  1  0
  8  9  2  0
  9 10  1  0
 10 11  1  0
 11 12  1  0
 10 13  2  0
  3 14  1  0
 14 15  1  0
 15 16  1  0
 16 17  1  0
 17 18  2  0
 18 19  1  0
 19 20  1  0
 20 21  1  0
 19 22  2  0
 22 23  1  0
 23 24  2  0
 24 25  1  0
 13  6  1  0
 25 14  1  0
 24 17  1  0
  1 26  1  0
  1 27  1  0
  1 28  1  0
  2 29  1  0
  2 30  1  0
  4 31  1  0
  4 32  1  0
  5 33  1  0
  5 34  1  0
  7 35  1  0
  8 36  1  0
  9 37  1  0
 12 38  1  0
 12 39  1  0
 12 40  1  0
 13 41  1  0
 14 42  1  1
 15 43  1  0
 15 44  1  0
 16 45  1  0
 16 46  1  0
 18 47  1  0
 21 48  1  0
 21 49  1  0
 21 50  1  0
 22 51  1  0
 23 52  1  0
 25 53  1  0
 25 54  1  0
M  END
>  <UniqueID>  (34) 
26

>  <SMILES>  (34) 
CCN(CCc1cccc(OC)c1)[C@@H]1CCc2cc(OC)ccc2C1

>  <Energy>  (34) 
61.361030615866305

>  <Genealogy>  (34) 
CCN(CCc1cccc(OC)c1)[C@@H]1CCc2cc(OC)ccc2C1 (chirality)
CCN(CCc1cccc(OC)c1)[C@@H]1CCc2cc(OC)ccc2C1 (3D coordinates assigned)
CCN(CCc1cccc(OC)c1)[C@@H]1CCc2cc(OC)ccc2C1 (nonaromatic ring conformer: 61.361030615866305 kcal/mol)

>  <smiles>  (34) 
CCN(CCc1cccc(OC)c1)C1CCc2cc(OC)ccc2C1

>  <score_type>  (34) 
oracle

>  <origin>  (34) 
autodockgpu

>  <m_score__min__energy>  (34) 
-5.7599999999999998

>  <m_primary>  (34) 
energy

>  <meeko>  (34) 
{"free_energy": -4.87, "intermolecular_energy": -6.96, "internal_energy": -2.35, "cluster_size": 18, "cluster_id": 1, "rank_in_cluster": 16}

>  <energy>  (34) 
-4.92

>  <cluster_rmsd>  (34) 
1.11

>  <rmsd>  (34) 
270.17

>  <cluster>  (34) 
1

$$$$
MXOKLQPDPZBAAI-HXUWFJFHNA-N
     RDKit          3D

 54 56  0  0  0  0  0  0  0  0999 V2000
  138.4620   83.1050  221.5610 C   0  0  0  0  0  0  0  0  0  0  0  0
  139.9920   83.0840  221.4710 C   0  0  0  0  0  0  0  0  0  0  0  0
  140.5780   81.7220  221.4250 N   0  0  0  0  0  0  0  0  0  0  0  0
  141.5310   81.5040  220.3080 C   0  0  0  0  0  0  0  0  0  0  0  0
  140.8540   80.8290  219.1050 C   0  0  0  0  0  0  0  0  0  0  0  0
  141.5820   79.5850  218.6700 C   0  0  0  0  0  0  0  0  0  0  0  0
  142.0250   79.4500  217.3440 C   0  0  0  0  0  0  0  0  0  0  0  0
  142.6900   78.2900  216.9400 C   0  0  0  0  0  0  0  0  0  0  0  0
  142.9360   77.2670  217.8590 C   0  0  0  0  0  0  0  0  0  0  0  0
  142.5200   77.3910  219.1890 C   0  0  0  0  0  0  0  0  0  0  0  0
  142.8090   76.3460  220.0790 O   0  0  0  0  0  0  0  0  0  0  0  0
  143.7260   75.2910  219.8080 C   0  0  0  0  0  0  0  0  0  0  0  0
  141.8340   78.5540  219.5900 C   0  0  0  0  0  0  0  0  0  0  0  0
  140.9660   81.1720  222.7560 C   0  0  2  0  0  0  0  0  0  0  0  0
  142.3200   80.3770  222.7440 C   0  0  0  0  0  0  0  0  0  0  0  0
  142.2560   78.9980  223.4210 C   0  0  0  0  0  0  0  0  0  0  0  0
  141.0180   78.2540  223.0080 C   0  0  0  0  0  0  0  0  0  0  0  0
  141.0560   76.8900  222.6850 C   0  0  0  0  0  0  0  0  0  0  0  0
  139.8790   76.2040  222.3580 C   0  0  0  0  0  0  0  0  0  0  0  0
  139.9720   74.8450  222.0240 O   0  0  0  0  0  0  0  0  0  0  0  0
  140.8250   74.3230  221.0110 C   0  0  0  0  0  0  0  0  0  0  0  0
  138.6510   76.8930  222.3840 C   0  0  0  0  0  0  0  0  0  0  0  0
  138.6100   78.2480  222.7230 C   0  0  0  0  0  0  0  0  0  0  0  0
  139.7950   78.9380  223.0070 C   0  0  0  0  0  0  0  0  0  0  0  0
  139.7760   80.3950  223.3760 C   0  0  0  0  0  0  0  0  0  0  0  0
  138.1569   83.1092  222.6178 H   0  0  0  0  0  0  0  0  0  0  0  0
  138.0779   84.0085  221.0649 H   0  0  0  0  0  0  0  0  0  0  0  0
  138.0532   82.2124  221.0649 H   0  0  0  0  0  0  0  0  0  0  0  0
  140.2916   83.6198  220.5582 H   0  0  0  0  0  0  0  0  0  0  0  0
  140.3699   83.5608  222.3874 H   0  0  0  0  0  0  0  0  0  0  0  0
  141.9354   82.4762  219.9899 H   0  0  0  0  0  0  0  0  0  0  0  0
  142.3324   80.8411  220.6662 H   0  0  0  0  0  0  0  0  0  0  0  0
  139.8246   80.5587  219.3829 H   0  0  0  0  0  0  0  0  0  0  0  0
  140.8672   81.5401  218.2659 H   0  0  0  0  0  0  0  0  0  0  0  0
  141.8477   80.2602  216.6215 H   0  0  0  0  0  0  0  0  0  0  0  0
  143.0206   78.1818  215.8964 H   0  0  0  0  0  0  0  0  0  0  0  0
  143.4611   76.3566  217.5343 H   0  0  0  0  0  0  0  0  0  0  0  0
  144.0916   74.8703  220.7563 H   0  0  0  0  0  0  0  0  0  0  0  0
  143.2195   74.5046  219.2291 H   0  0  0  0  0  0  0  0  0  0  0  0
  144.5753   75.6830  219.2291 H   0  0  0  0  0  0  0  0  0  0  0  0
  141.4932   78.6555  220.6309 H   0  0  0  0  0  0  0  0  0  0  0  0
  141.1856   82.0206  223.4206 H   0  0  0  0  0  0  0  0  0  0  0  0
  142.6239   80.2318  221.6968 H   0  0  0  0  0  0  0  0  0  0  0  0
  143.0394   80.9759  223.3217 H   0  0  0  0  0  0  0  0  0  0  0  0
  143.1412   78.4130  223.1307 H   0  0  0  0  0  0  0  0  0  0  0  0
  142.2312   79.1429  224.5111 H   0  0  0  0  0  0  0  0  0  0  0  0
  142.0170   76.3547  222.6884 H   0  0  0  0  0  0  0  0  0  0  0  0
  141.6742   73.8033  221.4787 H   0  0  0  0  0  0  0  0  0  0  0  0
  140.2611   73.6151  220.3858 H   0  0  0  0  0  0  0  0  0  0  0  0
  141.1988   75.1472  220.3858 H   0  0  0  0  0  0  0  0  0  0  0  0
  137.7200   76.3621  222.1363 H   0  0  0  0  0  0  0  0  0  0  0  0
  137.6448   78.7738  222.7669 H   0  0  0  0  0  0  0  0  0  0  0  0
  138.8365   80.8394  223.0156 H   0  0  0  0  0  0  0  0  0  0  0  0
  139.8592   80.4672  224.4705 H   0  0  0  0  0  0  0  0  0  0  0  0
  1  2  1  0
  2  3  1  0
  3  4  1  0
  4  5  1  0
  5  6  1  0
  6  7  2  0
  7  8  1  0
  8  9  2  0
  9 10  1  0
 10 11  1  0
 11 12  1  0
 10 13  2  0
  3 14  1  0
 14 15  1  0
 15 16  1  0
 16 17  1  0
 17 18  2  0
 18 19  1  0
 19 20  1  0
 20 21  1  0
 19 22  2  0
 22 23  1  0
 23 24  2  0
 24 25  1  0
 13  6  1  0
 25 14  1  0
 24 17  1  0
  1 26  1  0
  1 27  1  0
  1 28  1  0
  2 29  1  0
  2 30  1  0
  4 31  1  0
  4 32  1  0
  5 33  1  0
  5 34  1  0
  7 35  1  0
  8 36  1  0
  9 37  1  0
 12 38  1  0
 12 39  1  0
 12 40  1  0
 13 41  1  0
 14 42  1  1
 15 43  1  0
 15 44  1  0
 16 45  1  0
 16 46  1  0
 18 47  1  0
 21 48  1  0
 21 49  1  0
 21 50  1  0
 22 51  1  0
 23 52  1  0
 25 53  1  0
 25 54  1  0
M  END
>  <UniqueID>  (35) 
26

>  <SMILES>  (35) 
CCN(CCc1cccc(OC)c1)[C@@H]1CCc2cc(OC)ccc2C1

>  <Energy>  (35) 
61.361030615866305

>  <Genealogy>  (35) 
CCN(CCc1cccc(OC)c1)[C@@H]1CCc2cc(OC)ccc2C1 (chirality)
CCN(CCc1cccc(OC)c1)[C@@H]1CCc2cc(OC)ccc2C1 (3D coordinates assigned)
CCN(CCc1cccc(OC)c1)[C@@H]1CCc2cc(OC)ccc2C1 (nonaromatic ring conformer: 61.361030615866305 kcal/mol)

>  <smiles>  (35) 
CCN(CCc1cccc(OC)c1)C1CCc2cc(OC)ccc2C1

>  <score_type>  (35) 
oracle

>  <origin>  (35) 
autodockgpu

>  <m_score__min__energy>  (35) 
-5.7599999999999998

>  <m_primary>  (35) 
energy

>  <meeko>  (35) 
{"free_energy": -5.58, "intermolecular_energy": -7.67, "internal_energy": -1.83, "cluster_size": 18, "cluster_id": 1, "rank_in_cluster": 5}

>  <energy>  (35) 
-4.9

>  <cluster_rmsd>  (35) 
1.14

>  <rmsd>  (35) 
270.15

>  <cluster>  (35) 
1

$$$$
MXOKLQPDPZBAAI-HXUWFJFHNA-N
     RDKit          3D

 54 56  0  0  0  0  0  0  0  0999 V2000
  140.6680   83.7380  219.7570 C   0  0  0  0  0  0  0  0  0  0  0  0
  140.8690   83.2100  221.1820 C   0  0  0  0  0  0  0  0  0  0  0  0
  140.8800   81.7300  221.2850 N   0  0  0  0  0  0  0  0  0  0  0  0
  141.6290   81.0470  220.2010 C   0  0  0  0  0  0  0  0  0  0  0  0
  140.6850   80.4210  219.1620 C   0  0  0  0  0  0  0  0  0  0  0  0
  140.9300   78.9460  218.9910 C   0  0  0  0  0  0  0  0  0  0  0  0
  139.8900   78.0980  218.5770 C   0  0  0  0  0  0  0  0  0  0  0  0
  140.1160   76.7270  218.4320 C   0  0  0  0  0  0  0  0  0  0  0  0
  141.3850   76.1960  218.6770 C   0  0  0  0  0  0  0  0  0  0  0  0
  142.4390   77.0270  219.0710 C   0  0  0  0  0  0  0  0  0  0  0  0
  143.6990   76.4500  219.2840 O   0  0  0  0  0  0  0  0  0  0  0  0
  143.9070   75.1700  219.8720 C   0  0  0  0  0  0  0  0  0  0  0  0
  142.2040   78.4070  219.2350 C   0  0  0  0  0  0  0  0  0  0  0  0
  141.0750   81.2090  222.6690 C   0  0  2  0  0  0  0  0  0  0  0  0
  142.3940   80.3760  222.8530 C   0  0  0  0  0  0  0  0  0  0  0  0
  142.1990   79.0210  223.5520 C   0  0  0  0  0  0  0  0  0  0  0  0
  141.0010   78.3000  223.0010 C   0  0  0  0  0  0  0  0  0  0  0  0
  141.0370   76.9260  222.7220 C   0  0  0  0  0  0  0  0  0  0  0  0
  139.8910   76.2650  222.2630 C   0  0  0  0  0  0  0  0  0  0  0  0
  139.9820   74.8940  221.9800 O   0  0  0  0  0  0  0  0  0  0  0  0
  141.0470   74.2940  221.2500 C   0  0  0  0  0  0  0  0  0  0  0  0
  138.6920   76.9880  222.1120 C   0  0  0  0  0  0  0  0  0  0  0  0
  138.6510   78.3530  222.4070 C   0  0  0  0  0  0  0  0  0  0  0  0
  139.8110   79.0180  222.8240 C   0  0  0  0  0  0  0  0  0  0  0  0
  139.7910   80.4850  223.1490 C   0  0  0  0  0  0  0  0  0  0  0  0
  140.2769   84.7653  219.7984 H   0  0  0  0  0  0  0  0  0  0  0  0
  141.6308   83.7333  219.2250 H   0  0  0  0  0  0  0  0  0  0  0  0
  139.9520   83.0943  219.2250 H   0  0  0  0  0  0  0  0  0  0  0  0
  141.8305   83.5894  221.5583 H   0  0  0  0  0  0  0  0  0  0  0  0
  140.0115   83.5622  221.7741 H   0  0  0  0  0  0  0  0  0  0  0  0
  142.2758   81.7809  219.6980 H   0  0  0  0  0  0  0  0  0  0  0  0
  142.2241   80.2396  220.6527 H   0  0  0  0  0  0  0  0  0  0  0  0
  139.6460   80.5723  219.4900 H   0  0  0  0  0  0  0  0  0  0  0  0
  140.8733   80.9101  218.1949 H   0  0  0  0  0  0  0  0  0  0  0  0
  138.8940   78.5147  218.3662 H   0  0  0  0  0  0  0  0  0  0  0  0
  139.2935   76.0644  218.1245 H   0  0  0  0  0  0  0  0  0  0  0  0
  141.5565   75.1159  218.5591 H   0  0  0  0  0  0  0  0  0  0  0  0
  143.8919   75.2631  220.9679 H   0  0  0  0  0  0  0  0  0  0  0  0
  143.1084   74.4850  219.5511 H   0  0  0  0  0  0  0  0  0  0  0  0
  144.8814   74.7731  219.5511 H   0  0  0  0  0  0  0  0  0  0  0  0
  143.0238   79.0664  219.5562 H   0  0  0  0  0  0  0  0  0  0  0  0
  141.2335   82.0701  223.3349 H   0  0  0  0  0  0  0  0  0  0  0  0
  142.8250   80.1906  221.8581 H   0  0  0  0  0  0  0  0  0  0  0  0
  143.0525   80.9715  223.5024 H   0  0  0  0  0  0  0  0  0  0  0  0
  143.0951   78.4026  223.3949 H   0  0  0  0  0  0  0  0  0  0  0  0
  142.0383   79.1996  224.6255 H   0  0  0  0  0  0  0  0  0  0  0  0
  141.9717   76.3638  222.8647 H   0  0  0  0  0  0  0  0  0  0  0  0
  141.7845   73.8785  221.9524 H   0  0  0  0  0  0  0  0  0  0  0  0
  140.6488   73.4875  220.6168 H   0  0  0  0  0  0  0  0  0  0  0  0
  141.5305   75.0525  220.6168 H   0  0  0  0  0  0  0  0  0  0  0  0
  137.7841   76.4760  221.7604 H   0  0  0  0  0  0  0  0  0  0  0  0
  137.7054   78.9068  222.3115 H   0  0  0  0  0  0  0  0  0  0  0  0
  138.9206   80.9447  222.6580 H   0  0  0  0  0  0  0  0  0  0  0  0
  139.7344   80.5877  224.2427 H   0  0  0  0  0  0  0  0  0  0  0  0
  1  2  1  0
  2  3  1  0
  3  4  1  0
  4  5  1  0
  5  6  1  0
  6  7  2  0
  7  8  1  0
  8  9  2  0
  9 10  1  0
 10 11  1  0
 11 12  1  0
 10 13  2  0
  3 14  1  0
 14 15  1  0
 15 16  1  0
 16 17  1  0
 17 18  2  0
 18 19  1  0
 19 20  1  0
 20 21  1  0
 19 22  2  0
 22 23  1  0
 23 24  2  0
 24 25  1  0
 13  6  1  0
 25 14  1  0
 24 17  1  0
  1 26  1  0
  1 27  1  0
  1 28  1  0
  2 29  1  0
  2 30  1  0
  4 31  1  0
  4 32  1  0
  5 33  1  0
  5 34  1  0
  7 35  1  0
  8 36  1  0
  9 37  1  0
 12 38  1  0
 12 39  1  0
 12 40  1  0
 13 41  1  0
 14 42  1  1
 15 43  1  0
 15 44  1  0
 16 45  1  0
 16 46  1  0
 18 47  1  0
 21 48  1  0
 21 49  1  0
 21 50  1  0
 22 51  1  0
 23 52  1  0
 25 53  1  0
 25 54  1  0
M  END
>  <UniqueID>  (36) 
26

>  <SMILES>  (36) 
CCN(CCc1cccc(OC)c1)[C@@H]1CCc2cc(OC)ccc2C1

>  <Energy>  (36) 
61.361030615866305

>  <Genealogy>  (36) 
CCN(CCc1cccc(OC)c1)[C@@H]1CCc2cc(OC)ccc2C1 (chirality)
CCN(CCc1cccc(OC)c1)[C@@H]1CCc2cc(OC)ccc2C1 (3D coordinates assigned)
CCN(CCc1cccc(OC)c1)[C@@H]1CCc2cc(OC)ccc2C1 (nonaromatic ring conformer: 61.361030615866305 kcal/mol)

>  <smiles>  (36) 
CCN(CCc1cccc(OC)c1)C1CCc2cc(OC)ccc2C1

>  <score_type>  (36) 
oracle

>  <origin>  (36) 
autodockgpu

>  <m_score__min__energy>  (36) 
-5.7599999999999998

>  <m_primary>  (36) 
energy

>  <meeko>  (36) 
{"free_energy": -5.0, "intermolecular_energy": -7.09, "internal_energy": -2.18, "cluster_size": 18, "cluster_id": 1, "rank_in_cluster": 12}

>  <energy>  (36) 
-4.87

>  <cluster_rmsd>  (36) 
0.89

>  <rmsd>  (36) 
270.04

>  <cluster>  (36) 
1

$$$$
MXOKLQPDPZBAAI-HXUWFJFHNA-N
     RDKit          3D

 54 56  0  0  0  0  0  0  0  0999 V2000
  137.8000   81.8330  221.0720 C   0  0  0  0  0  0  0  0  0  0  0  0
  139.0170   82.5610  221.6520 C   0  0  0  0  0  0  0  0  0  0  0  0
  140.2950   81.8230  221.4980 N   0  0  0  0  0  0  0  0  0  0  0  0
  141.2680   82.4700  220.5830 C   0  0  0  0  0  0  0  0  0  0  0  0
  141.1880   81.8890  219.1620 C   0  0  0  0  0  0  0  0  0  0  0  0
  141.1090   80.3860  219.1690 C   0  0  0  0  0  0  0  0  0  0  0  0
  142.2690   79.6150  218.9910 C   0  0  0  0  0  0  0  0  0  0  0  0
  142.1920   78.2200  218.9850 C   0  0  0  0  0  0  0  0  0  0  0  0
  140.9620   77.5850  219.1780 C   0  0  0  0  0  0  0  0  0  0  0  0
  139.7980   78.3360  219.3780 C   0  0  0  0  0  0  0  0  0  0  0  0
  138.5920   77.6530  219.5880 O   0  0  0  0  0  0  0  0  0  0  0  0
  137.3070   78.2650  219.5610 C   0  0  0  0  0  0  0  0  0  0  0  0
  139.8760   79.7430  219.3640 C   0  0  0  0  0  0  0  0  0  0  0  0
  140.8390   81.2580  222.7660 C   0  0  2  0  0  0  0  0  0  0  0  0
  142.2130   80.5180  222.5940 C   0  0  0  0  0  0  0  0  0  0  0  0
  142.2710   79.1220  223.2370 C   0  0  0  0  0  0  0  0  0  0  0  0
  141.0240   78.3410  222.9340 C   0  0  0  0  0  0  0  0  0  0  0  0
  141.0780   76.9860  222.5740 C   0  0  0  0  0  0  0  0  0  0  0  0
  139.8990   76.2620  222.3520 C   0  0  0  0  0  0  0  0  0  0  0  0
  140.0060   74.9160  221.9750 O   0  0  0  0  0  0  0  0  0  0  0  0
  141.0070   74.4040  221.1020 C   0  0  0  0  0  0  0  0  0  0  0  0
  138.6560   76.9020  222.5230 C   0  0  0  0  0  0  0  0  0  0  0  0
  138.6010   78.2460  222.9000 C   0  0  0  0  0  0  0  0  0  0  0  0
  139.7830   78.9760  223.0780 C   0  0  0  0  0  0  0  0  0  0  0  0
  139.7500   80.4220  223.4850 C   0  0  0  0  0  0  0  0  0  0  0  0
  137.1718   81.4572  221.8931 H   0  0  0  0  0  0  0  0  0  0  0  0
  137.2161   82.5303  220.4532 H   0  0  0  0  0  0  0  0  0  0  0  0
  138.1383   80.9888  220.4532 H   0  0  0  0  0  0  0  0  0  0  0  0
  139.1146   83.5308  221.1422 H   0  0  0  0  0  0  0  0  0  0  0  0
  138.8391   82.6648  222.7325 H   0  0  0  0  0  0  0  0  0  0  0  0
  141.0536   83.5480  220.5396 H   0  0  0  0  0  0  0  0  0  0  0  0
  142.2798   82.2838  220.9723 H   0  0  0  0  0  0  0  0  0  0  0  0
  140.2919   82.2891  218.6651 H   0  0  0  0  0  0  0  0  0  0  0  0
  142.1040   82.1778  218.6257 H   0  0  0  0  0  0  0  0  0  0  0  0
  143.2415   80.1109  218.8558 H   0  0  0  0  0  0  0  0  0  0  0  0
  143.1009   77.6205  218.8281 H   0  0  0  0  0  0  0  0  0  0  0  0
  140.9083   76.4863  219.1727 H   0  0  0  0  0  0  0  0  0  0  0  0
  136.9583   78.4311  220.5910 H   0  0  0  0  0  0  0  0  0  0  0  0
  137.3711   79.2293  219.0356 H   0  0  0  0  0  0  0  0  0  0  0  0
  136.5987   77.6075  219.0356 H   0  0  0  0  0  0  0  0  0  0  0  0
  138.9644   80.3419  219.5068 H   0  0  0  0  0  0  0  0  0  0  0  0
  141.0953   82.0994  223.4266 H   0  0  0  0  0  0  0  0  0  0  0  0
  142.4120   80.4089  221.5177 H   0  0  0  0  0  0  0  0  0  0  0  0
  142.9655   81.1317  223.1108 H   0  0  0  0  0  0  0  0  0  0  0  0
  143.1416   78.5787  222.8408 H   0  0  0  0  0  0  0  0  0  0  0  0
  142.3560   79.2401  224.3273 H   0  0  0  0  0  0  0  0  0  0  0  0
  142.0530   76.4884  222.4652 H   0  0  0  0  0  0  0  0  0  0  0  0
  141.8311   73.9825  221.6963 H   0  0  0  0  0  0  0  0  0  0  0  0
  140.5727   73.6173  220.4676 H   0  0  0  0  0  0  0  0  0  0  0  0
  141.3907   75.2166  220.4676 H   0  0  0  0  0  0  0  0  0  0  0  0
  137.7242   76.3409  222.3589 H   0  0  0  0  0  0  0  0  0  0  0  0
  137.6269   78.7322  223.0574 H   0  0  0  0  0  0  0  0  0  0  0  0
  138.7625   80.8376  223.2359 H   0  0  0  0  0  0  0  0  0  0  0  0
  139.9447   80.4728  224.5664 H   0  0  0  0  0  0  0  0  0  0  0  0
  1  2  1  0
  2  3  1  0
  3  4  1  0
  4  5  1  0
  5  6  1  0
  6  7  2  0
  7  8  1  0
  8  9  2  0
  9 10  1  0
 10 11  1  0
 11 12  1  0
 10 13  2  0
  3 14  1  0
 14 15  1  0
 15 16  1  0
 16 17  1  0
 17 18  2  0
 18 19  1  0
 19 20  1  0
 20 21  1  0
 19 22  2  0
 22 23  1  0
 23 24  2  0
 24 25  1  0
 13  6  1  0
 25 14  1  0
 24 17  1  0
  1 26  1  0
  1 27  1  0
  1 28  1  0
  2 29  1  0
  2 30  1  0
  4 31  1  0
  4 32  1  0
  5 33  1  0
  5 34  1  0
  7 35  1  0
  8 36  1  0
  9 37  1  0
 12 38  1  0
 12 39  1  0
 12 40  1  0
 13 41  1  0
 14 42  1  1
 15 43  1  0
 15 44  1  0
 16 45  1  0
 16 46  1  0
 18 47  1  0
 21 48  1  0
 21 49  1  0
 21 50  1  0
 22 51  1  0
 23 52  1  0
 25 53  1  0
 25 54  1  0
M  END
>  <UniqueID>  (37) 
26

>  <SMILES>  (37) 
CCN(CCc1cccc(OC)c1)[C@@H]1CCc2cc(OC)ccc2C1

>  <Energy>  (37) 
61.361030615866305

>  <Genealogy>  (37) 
CCN(CCc1cccc(OC)c1)[C@@H]1CCc2cc(OC)ccc2C1 (chirality)
CCN(CCc1cccc(OC)c1)[C@@H]1CCc2cc(OC)ccc2C1 (3D coordinates assigned)
CCN(CCc1cccc(OC)c1)[C@@H]1CCc2cc(OC)ccc2C1 (nonaromatic ring conformer: 61.361030615866305 kcal/mol)

>  <smiles>  (37) 
CCN(CCc1cccc(OC)c1)C1CCc2cc(OC)ccc2C1

>  <score_type>  (37) 
oracle

>  <origin>  (37) 
autodockgpu

>  <m_score__min__energy>  (37) 
-5.7599999999999998

>  <m_primary>  (37) 
energy

>  <meeko>  (37) 
{"free_energy": -4.67, "intermolecular_energy": -6.76, "internal_energy": -2.65, "cluster_size": 18, "cluster_id": 1, "rank_in_cluster": 18}

>  <energy>  (37) 
-4.67

>  <cluster_rmsd>  (37) 
1.47

>  <rmsd>  (37) 
269.97

>  <cluster>  (37) 
1

$$$$
MXOKLQPDPZBAAI-HXUWFJFHNA-N
     RDKit          3D

 54 56  0  0  0  0  0  0  0  0999 V2000
  140.4580   83.7200  219.8000 C   0  0  0  0  0  0  0  0  0  0  0  0
  140.7580   83.1930  221.2070 C   0  0  0  0  0  0  0  0  0  0  0  0
  140.8130   81.7130  221.3010 N   0  0  0  0  0  0  0  0  0  0  0  0
  141.5800   81.0590  220.2130 C   0  0  0  0  0  0  0  0  0  0  0  0
  140.6580   80.3320  219.2220 C   0  0  0  0  0  0  0  0  0  0  0  0
  140.9090   78.8470  219.2000 C   0  0  0  0  0  0  0  0  0  0  0  0
  139.8690   77.9580  218.8850 C   0  0  0  0  0  0  0  0  0  0  0  0
  140.1020   76.5800  218.8770 C   0  0  0  0  0  0  0  0  0  0  0  0
  141.3760   76.0820  219.1620 C   0  0  0  0  0  0  0  0  0  0  0  0
  142.4300   76.9540  219.4570 C   0  0  0  0  0  0  0  0  0  0  0  0
  143.6950   76.4070  219.7150 O   0  0  0  0  0  0  0  0  0  0  0  0
  143.9320   75.0340  220.0070 C   0  0  0  0  0  0  0  0  0  0  0  0
  142.1880   78.3420  219.4830 C   0  0  0  0  0  0  0  0  0  0  0  0
  141.0250   81.1900  222.6820 C   0  0  2  0  0  0  0  0  0  0  0  0
  142.3620   80.3850  222.8570 C   0  0  0  0  0  0  0  0  0  0  0  0
  142.2000   79.0220  223.5500 C   0  0  0  0  0  0  0  0  0  0  0  0
  141.0150   78.2790  223.0010 C   0  0  0  0  0  0  0  0  0  0  0  0
  141.0800   76.9070  222.7150 C   0  0  0  0  0  0  0  0  0  0  0  0
  139.9460   76.2230  222.2570 C   0  0  0  0  0  0  0  0  0  0  0  0
  140.0660   74.8560  221.9670 O   0  0  0  0  0  0  0  0  0  0  0  0
  139.0080   74.0460  221.4680 C   0  0  0  0  0  0  0  0  0  0  0  0
  138.7320   76.9210  222.1140 C   0  0  0  0  0  0  0  0  0  0  0  0
  138.6620   78.2830  222.4160 C   0  0  0  0  0  0  0  0  0  0  0  0
  139.8090   78.9710  222.8320 C   0  0  0  0  0  0  0  0  0  0  0  0
  139.7590   80.4360  223.1640 C   0  0  0  0  0  0  0  0  0  0  0  0
  139.9150   84.6738  219.8738 H   0  0  0  0  0  0  0  0  0  0  0  0
  141.4023   83.8766  219.2580 H   0  0  0  0  0  0  0  0  0  0  0  0
  139.8412   82.9880  219.2580 H   0  0  0  0  0  0  0  0  0  0  0  0
  141.7304   83.5958  221.5266 H   0  0  0  0  0  0  0  0  0  0  0  0
  139.9294   83.5211  221.8518 H   0  0  0  0  0  0  0  0  0  0  0  0
  142.1522   81.8257  219.6701 H   0  0  0  0  0  0  0  0  0  0  0  0
  142.2495   80.3135  220.6670 H   0  0  0  0  0  0  0  0  0  0  0  0
  139.6125   80.5108  219.5135 H   0  0  0  0  0  0  0  0  0  0  0  0
  140.8645   80.7255  218.2158 H   0  0  0  0  0  0  0  0  0  0  0  0
  138.8687   78.3469  218.6440 H   0  0  0  0  0  0  0  0  0  0  0  0
  139.2806   75.8859  218.6458 H   0  0  0  0  0  0  0  0  0  0  0  0
  141.5518   74.9962  219.1544 H   0  0  0  0  0  0  0  0  0  0  0  0
  143.9569   74.8900  221.0973 H   0  0  0  0  0  0  0  0  0  0  0  0
  143.1261   74.4228  219.5747 H   0  0  0  0  0  0  0  0  0  0  0  0
  144.8962   74.7283  219.5747 H   0  0  0  0  0  0  0  0  0  0  0  0
  143.0070   79.0347  219.7268 H   0  0  0  0  0  0  0  0  0  0  0  0
  141.1676   82.0516  223.3509 H   0  0  0  0  0  0  0  0  0  0  0  0
  142.7931   80.2141  221.8595 H   0  0  0  0  0  0  0  0  0  0  0  0
  143.0093   80.9915  223.5074 H   0  0  0  0  0  0  0  0  0  0  0  0
  143.1082   78.4238  223.3849 H   0  0  0  0  0  0  0  0  0  0  0  0
  142.0415   79.1910  224.6253 H   0  0  0  0  0  0  0  0  0  0  0  0
  142.0273   76.3647  222.8512 H   0  0  0  0  0  0  0  0  0  0  0  0
  138.4466   73.6162  222.3106 H   0  0  0  0  0  0  0  0  0  0  0  0
  138.3338   74.6609  220.8538 H   0  0  0  0  0  0  0  0  0  0  0  0
  139.4257   73.2347  220.8538 H   0  0  0  0  0  0  0  0  0  0  0  0
  137.8342   76.3914  221.7628 H   0  0  0  0  0  0  0  0  0  0  0  0
  137.7041   78.8164  222.3269 H   0  0  0  0  0  0  0  0  0  0  0  0
  138.8768   80.8791  222.6789 H   0  0  0  0  0  0  0  0  0  0  0  0
  139.7052   80.5323  224.2585 H   0  0  0  0  0  0  0  0  0  0  0  0
  1  2  1  0
  2  3  1  0
  3  4  1  0
  4  5  1  0
  5  6  1  0
  6  7  2  0
  7  8  1  0
  8  9  2  0
  9 10  1  0
 10 11  1  0
 11 12  1  0
 10 13  2  0
  3 14  1  0
 14 15  1  0
 15 16  1  0
 16 17  1  0
 17 18  2  0
 18 19  1  0
 19 20  1  0
 20 21  1  0
 19 22  2  0
 22 23  1  0
 23 24  2  0
 24 25  1  0
 13  6  1  0
 25 14  1  0
 24 17  1  0
  1 26  1  0
  1 27  1  0
  1 28  1  0
  2 29  1  0
  2 30  1  0
  4 31  1  0
  4 32  1  0
  5 33  1  0
  5 34  1  0
  7 35  1  0
  8 36  1  0
  9 37  1  0
 12 38  1  0
 12 39  1  0
 12 40  1  0
 13 41  1  0
 14 42  1  1
 15 43  1  0
 15 44  1  0
 16 45  1  0
 16 46  1  0
 18 47  1  0
 21 48  1  0
 21 49  1  0
 21 50  1  0
 22 51  1  0
 23 52  1  0
 25 53  1  0
 25 54  1  0
M  END
>  <UniqueID>  (38) 
26

>  <SMILES>  (38) 
CCN(CCc1cccc(OC)c1)[C@@H]1CCc2cc(OC)ccc2C1

>  <Energy>  (38) 
61.361030615866305

>  <Genealogy>  (38) 
CCN(CCc1cccc(OC)c1)[C@@H]1CCc2cc(OC)ccc2C1 (chirality)
CCN(CCc1cccc(OC)c1)[C@@H]1CCc2cc(OC)ccc2C1 (3D coordinates assigned)
CCN(CCc1cccc(OC)c1)[C@@H]1CCc2cc(OC)ccc2C1 (nonaromatic ring conformer: 61.361030615866305 kcal/mol)

>  <smiles>  (38) 
CCN(CCc1cccc(OC)c1)C1CCc2cc(OC)ccc2C1

>  <score_type>  (38) 
oracle

>  <origin>  (38) 
autodockgpu

>  <m_score__min__energy>  (38) 
-5.7599999999999998

>  <m_primary>  (38) 
energy

>  <meeko>  (38) 
{"free_energy": -5.04, "intermolecular_energy": -7.13, "internal_energy": -2.34, "cluster_size": 18, "cluster_id": 1, "rank_in_cluster": 10}

>  <energy>  (38) 
-4.67

>  <cluster_rmsd>  (38) 
1.49

>  <rmsd>  (38) 
269.98

>  <cluster>  (38) 
1

$$$$
MXOKLQPDPZBAAI-HXUWFJFHNA-N
     RDKit          3D

 54 56  0  0  0  0  0  0  0  0999 V2000
  140.6820   84.1670  220.8130 C   0  0  0  0  0  0  0  0  0  0  0  0
  140.9830   82.6710  220.6770 C   0  0  0  0  0  0  0  0  0  0  0  0
  140.1020   81.7980  221.4920 N   0  0  0  0  0  0  0  0  0  0  0  0
  139.2620   80.8650  220.7000 C   0  0  0  0  0  0  0  0  0  0  0  0
  139.6440   80.8780  219.2120 C   0  0  0  0  0  0  0  0  0  0  0  0
  140.7770   79.9340  218.9100 C   0  0  0  0  0  0  0  0  0  0  0  0
  141.8660   80.3600  218.1310 C   0  0  0  0  0  0  0  0  0  0  0  0
  142.9100   79.4790  217.8420 C   0  0  0  0  0  0  0  0  0  0  0  0
  142.8870   78.1750  218.3440 C   0  0  0  0  0  0  0  0  0  0  0  0
  141.8210   77.7380  219.1390 C   0  0  0  0  0  0  0  0  0  0  0  0
  141.8540   76.4280  219.6360 O   0  0  0  0  0  0  0  0  0  0  0  0
  143.0310   75.6330  219.7310 C   0  0  0  0  0  0  0  0  0  0  0  0
  140.7600   78.6230  219.4130 C   0  0  0  0  0  0  0  0  0  0  0  0
  140.7450   81.2460  222.7190 C   0  0  2  0  0  0  0  0  0  0  0  0
  142.1220   80.5390  222.4520 C   0  0  0  0  0  0  0  0  0  0  0  0
  142.2570   79.1450  223.0870 C   0  0  0  0  0  0  0  0  0  0  0  0
  141.0110   78.3340  222.8680 C   0  0  0  0  0  0  0  0  0  0  0  0
  141.0730   76.9810  222.5020 C   0  0  0  0  0  0  0  0  0  0  0  0
  139.9000   76.2290  222.3600 C   0  0  0  0  0  0  0  0  0  0  0  0
  140.0130   74.8860  221.9730 O   0  0  0  0  0  0  0  0  0  0  0  0
  139.7160   74.3980  220.6690 C   0  0  0  0  0  0  0  0  0  0  0  0
  138.6560   76.8380  222.6160 C   0  0  0  0  0  0  0  0  0  0  0  0
  138.5950   78.1810  222.9990 C   0  0  0  0  0  0  0  0  0  0  0  0
  139.7680   78.9390  223.0980 C   0  0  0  0  0  0  0  0  0  0  0  0
  139.7280   80.3830  223.5090 C   0  0  0  0  0  0  0  0  0  0  0  0
  140.6281   84.4348  221.8785 H   0  0  0  0  0  0  0  0  0  0  0  0
  141.4814   84.7473  220.3291 H   0  0  0  0  0  0  0  0  0  0  0  0
  139.7204   84.3930  220.3291 H   0  0  0  0  0  0  0  0  0  0  0  0
  140.8654   82.3899  219.6201 H   0  0  0  0  0  0  0  0  0  0  0  0
  142.0081   82.5194  221.0460 H   0  0  0  0  0  0  0  0  0  0  0  0
  139.3940   79.8460  221.0928 H   0  0  0  0  0  0  0  0  0  0  0  0
  138.2145   81.1893  220.7873 H   0  0  0  0  0  0  0  0  0  0  0  0
  138.7670   80.5811  218.6181 H   0  0  0  0  0  0  0  0  0  0  0  0
  139.9736   81.8957  218.9558 H   0  0  0  0  0  0  0  0  0  0  0  0
  141.8962   81.3906  217.7477 H   0  0  0  0  0  0  0  0  0  0  0  0
  143.7523   79.8121  217.2179 H   0  0  0  0  0  0  0  0  0  0  0  0
  143.7131   77.4866  218.1126 H   0  0  0  0  0  0  0  0  0  0  0  0
  143.2768   75.4670  220.7903 H   0  0  0  0  0  0  0  0  0  0  0  0
  142.8601   74.6646  219.2381 H   0  0  0  0  0  0  0  0  0  0  0  0
  143.8656   76.1531  219.2381 H   0  0  0  0  0  0  0  0  0  0  0  0
  139.9115   78.2846  220.0257 H   0  0  0  0  0  0  0  0  0  0  0  0
  141.0253   82.0933  223.3621 H   0  0  0  0  0  0  0  0  0  0  0  0
  142.2495   80.4349  221.3644 H   0  0  0  0  0  0  0  0  0  0  0  0
  142.8932   81.1706  222.9171 H   0  0  0  0  0  0  0  0  0  0  0  0
  143.1114   78.6229  222.6317 H   0  0  0  0  0  0  0  0  0  0  0  0
  142.4130   79.2650  224.1693 H   0  0  0  0  0  0  0  0  0  0  0  0
  142.0500   76.5074  222.3253 H   0  0  0  0  0  0  0  0  0  0  0  0
  139.1457   73.4609  220.7493 H   0  0  0  0  0  0  0  0  0  0  0  0
  139.1192   75.1450  220.1251 H   0  0  0  0  0  0  0  0  0  0  0  0
  140.6537   74.2111  220.1251 H   0  0  0  0  0  0  0  0  0  0  0  0
  137.7290   76.2546  222.5142 H   0  0  0  0  0  0  0  0  0  0  0  0
  137.6226   78.6437  223.2232 H   0  0  0  0  0  0  0  0  0  0  0  0
  138.7160   80.7746  223.3287 H   0  0  0  0  0  0  0  0  0  0  0  0
  139.9950   80.4379  224.5747 H   0  0  0  0  0  0  0  0  0  0  0  0
  1  2  1  0
  2  3  1  0
  3  4  1  0
  4  5  1  0
  5  6  1  0
  6  7  2  0
  7  8  1  0
  8  9  2  0
  9 10  1  0
 10 11  1  0
 11 12  1  0
 10 13  2  0
  3 14  1  0
 14 15  1  0
 15 16  1  0
 16 17  1  0
 17 18  2  0
 18 19  1  0
 19 20  1  0
 20 21  1  0
 19 22  2  0
 22 23  1  0
 23 24  2  0
 24 25  1  0
 13  6  1  0
 25 14  1  0
 24 17  1  0
  1 26  1  0
  1 27  1  0
  1 28  1  0
  2 29  1  0
  2 30  1  0
  4 31  1  0
  4 32  1  0
  5 33  1  0
  5 34  1  0
  7 35  1  0
  8 36  1  0
  9 37  1  0
 12 38  1  0
 12 39  1  0
 12 40  1  0
 13 41  1  0
 14 42  1  1
 15 43  1  0
 15 44  1  0
 16 45  1  0
 16 46  1  0
 18 47  1  0
 21 48  1  0
 21 49  1  0
 21 50  1  0
 22 51  1  0
 23 52  1  0
 25 53  1  0
 25 54  1  0
M  END
>  <UniqueID>  (39) 
26

>  <SMILES>  (39) 
CCN(CCc1cccc(OC)c1)[C@@H]1CCc2cc(OC)ccc2C1

>  <Energy>  (39) 
61.361030615866305

>  <Genealogy>  (39) 
CCN(CCc1cccc(OC)c1)[C@@H]1CCc2cc(OC)ccc2C1 (chirality)
CCN(CCc1cccc(OC)c1)[C@@H]1CCc2cc(OC)ccc2C1 (3D coordinates assigned)
CCN(CCc1cccc(OC)c1)[C@@H]1CCc2cc(OC)ccc2C1 (nonaromatic ring conformer: 61.361030615866305 kcal/mol)

>  <smiles>  (39) 
CCN(CCc1cccc(OC)c1)C1CCc2cc(OC)ccc2C1

>  <score_type>  (39) 
oracle

>  <origin>  (39) 
autodockgpu

>  <m_score__min__energy>  (39) 
-5.7599999999999998

>  <m_primary>  (39) 
energy

>  <meeko>  (39) 
{"free_energy": -5.1, "intermolecular_energy": -7.19, "internal_energy": -2.15, "cluster_size": 18, "cluster_id": 1, "rank_in_cluster": 8}

>  <energy>  (39) 
-5.58

>  <cluster_rmsd>  (39) 
0.0

>  <rmsd>  (39) 
270.38

>  <cluster>  (39) 
2

$$$$
MXOKLQPDPZBAAI-HXUWFJFHNA-N
     RDKit          3D

 54 56  0  0  0  0  0  0  0  0999 V2000
  139.2870   83.7680  221.1770 C   0  0  0  0  0  0  0  0  0  0  0  0
  140.7150   83.2120  221.1970 C   0  0  0  0  0  0  0  0  0  0  0  0
  140.7900   81.7330  221.2900 N   0  0  0  0  0  0  0  0  0  0  0  0
  141.5320   81.0870  220.1790 C   0  0  0  0  0  0  0  0  0  0  0  0
  140.7100   79.9680  219.5200 C   0  0  0  0  0  0  0  0  0  0  0  0
  141.5810   78.8470  219.0170 C   0  0  0  0  0  0  0  0  0  0  0  0
  142.1740   78.9270  217.7470 C   0  0  0  0  0  0  0  0  0  0  0  0
  142.9720   77.8810  217.2770 C   0  0  0  0  0  0  0  0  0  0  0  0
  143.2010   76.7590  218.0780 C   0  0  0  0  0  0  0  0  0  0  0  0
  142.6350   76.6710  219.3550 C   0  0  0  0  0  0  0  0  0  0  0  0
  142.9110   75.5350  220.1290 O   0  0  0  0  0  0  0  0  0  0  0  0
  144.0890   74.7440  220.0050 C   0  0  0  0  0  0  0  0  0  0  0  0
  141.8150   77.7190  219.8190 C   0  0  0  0  0  0  0  0  0  0  0  0
  141.0500   81.2140  222.6640 C   0  0  2  0  0  0  0  0  0  0  0  0
  142.3810   80.3910  222.7900 C   0  0  0  0  0  0  0  0  0  0  0  0
  142.2280   79.0330  223.4960 C   0  0  0  0  0  0  0  0  0  0  0  0
  141.0110   78.3050  222.9990 C   0  0  0  0  0  0  0  0  0  0  0  0
  141.0440   76.9310  222.7180 C   0  0  0  0  0  0  0  0  0  0  0  0
  139.8830   76.2610  222.3100 C   0  0  0  0  0  0  0  0  0  0  0  0
  139.9720   74.8910  222.0230 O   0  0  0  0  0  0  0  0  0  0  0  0
  140.1800   74.3560  220.7210 C   0  0  0  0  0  0  0  0  0  0  0  0
  138.6740   76.9760  222.2120 C   0  0  0  0  0  0  0  0  0  0  0  0
  138.6370   78.3410  222.5100 C   0  0  0  0  0  0  0  0  0  0  0  0
  139.8090   79.0140  222.8750 C   0  0  0  0  0  0  0  0  0  0  0  0
  139.7940   80.4810  223.2010 C   0  0  0  0  0  0  0  0  0  0  0  0
  138.9327   83.9059  222.2092 H   0  0  0  0  0  0  0  0  0  0  0  0
  139.2775   84.7355  220.6537 H   0  0  0  0  0  0  0  0  0  0  0  0
  138.6258   83.0616  220.6537 H   0  0  0  0  0  0  0  0  0  0  0  0
  141.2204   83.5257  220.2717 H   0  0  0  0  0  0  0  0  0  0  0  0
  141.1971   83.6107  222.1018 H   0  0  0  0  0  0  0  0  0  0  0  0
  141.7711   81.8472  219.4208 H   0  0  0  0  0  0  0  0  0  0  0  0
  142.4481   80.6406  220.5930 H   0  0  0  0  0  0  0  0  0  0  0  0
  140.0036   79.5638  220.2600 H   0  0  0  0  0  0  0  0  0  0  0  0
  140.1807   80.3992  218.6575 H   0  0  0  0  0  0  0  0  0  0  0  0
  142.0098   79.8159  217.1201 H   0  0  0  0  0  0  0  0  0  0  0  0
  143.4209   77.9407  216.2745 H   0  0  0  0  0  0  0  0  0  0  0  0
  143.8307   75.9391  217.7021 H   0  0  0  0  0  0  0  0  0  0  0  0
  144.4672   74.4901  221.0062 H   0  0  0  0  0  0  0  0  0  0  0  0
  143.8541   73.8199  219.4565 H   0  0  0  0  0  0  0  0  0  0  0  0
  144.8555   75.3112  219.4565 H   0  0  0  0  0  0  0  0  0  0  0  0
  141.3553   77.6526  220.8162 H   0  0  0  0  0  0  0  0  0  0  0  0
  141.2318   82.0770  223.3214 H   0  0  0  0  0  0  0  0  0  0  0  0
  142.7697   80.2096  221.7771 H   0  0  0  0  0  0  0  0  0  0  0  0
  143.0618   80.9912  223.4114 H   0  0  0  0  0  0  0  0  0  0  0  0
  143.1201   78.4210  223.2971 H   0  0  0  0  0  0  0  0  0  0  0  0
  142.1160   79.2088  224.5761 H   0  0  0  0  0  0  0  0  0  0  0  0
  141.9881   76.3756  222.8187 H   0  0  0  0  0  0  0  0  0  0  0  0
  140.5774   73.3337  220.8039 H   0  0  0  0  0  0  0  0  0  0  0  0
  139.2246   74.3349  220.1763 H   0  0  0  0  0  0  0  0  0  0  0  0
  140.8988   74.9858  220.1763 H   0  0  0  0  0  0  0  0  0  0  0  0
  137.7551   76.4583  221.8997 H   0  0  0  0  0  0  0  0  0  0  0  0
  137.6841   78.8881  222.4576 H   0  0  0  0  0  0  0  0  0  0  0  0
  138.8993   80.9348  222.7499 H   0  0  0  0  0  0  0  0  0  0  0  0
  139.7864   80.5831  224.2962 H   0  0  0  0  0  0  0  0  0  0  0  0
  1  2  1  0
  2  3  1  0
  3  4  1  0
  4  5  1  0
  5  6  1  0
  6  7  2  0
  7  8  1  0
  8  9  2  0
  9 10  1  0
 10 11  1  0
 11 12  1  0
 10 13  2  0
  3 14  1  0
 14 15  1  0
 15 16  1  0
 16 17  1  0
 17 18  2  0
 18 19  1  0
 19 20  1  0
 20 21  1  0
 19 22  2  0
 22 23  1  0
 23 24  2  0
 24 25  1  0
 13  6  1  0
 25 14  1  0
 24 17  1  0
  1 26  1  0
  1 27  1  0
  1 28  1  0
  2 29  1  0
  2 30  1  0
  4 31  1  0
  4 32  1  0
  5 33  1  0
  5 34  1  0
  7 35  1  0
  8 36  1  0
  9 37  1  0
 12 38  1  0
 12 39  1  0
 12 40  1  0
 13 41  1  0
 14 42  1  1
 15 43  1  0
 15 44  1  0
 16 45  1  0
 16 46  1  0
 18 47  1  0
 21 48  1  0
 21 49  1  0
 21 50  1  0
 22 51  1  0
 23 52  1  0
 25 53  1  0
 25 54  1  0
M  END
>  <UniqueID>  (40) 
26

>  <SMILES>  (40) 
CCN(CCc1cccc(OC)c1)[C@@H]1CCc2cc(OC)ccc2C1

>  <Energy>  (40) 
61.361030615866305

>  <Genealogy>  (40) 
CCN(CCc1cccc(OC)c1)[C@@H]1CCc2cc(OC)ccc2C1 (chirality)
CCN(CCc1cccc(OC)c1)[C@@H]1CCc2cc(OC)ccc2C1 (3D coordinates assigned)
CCN(CCc1cccc(OC)c1)[C@@H]1CCc2cc(OC)ccc2C1 (nonaromatic ring conformer: 61.361030615866305 kcal/mol)

>  <smiles>  (40) 
CCN(CCc1cccc(OC)c1)C1CCc2cc(OC)ccc2C1

>  <score_type>  (40) 
oracle

>  <origin>  (40) 
autodockgpu

>  <m_score__min__energy>  (40) 
-5.7599999999999998

>  <m_primary>  (40) 
energy

>  <meeko>  (40) 
{"free_energy": -5.76, "intermolecular_energy": -7.85, "internal_energy": -1.85, "cluster_size": 18, "cluster_id": 1, "rank_in_cluster": 1}

>  <energy>  (40) 
-5.58

>  <cluster_rmsd>  (40) 
0.2

>  <rmsd>  (40) 
270.38

>  <cluster>  (40) 
2

$$$$
MXOKLQPDPZBAAI-HXUWFJFHNA-N
     RDKit          3D

 54 56  0  0  0  0  0  0  0  0999 V2000
  140.3960   84.2390  220.8250 C   0  0  0  0  0  0  0  0  0  0  0  0
  140.9250   82.8030  220.7480 C   0  0  0  0  0  0  0  0  0  0  0  0
  140.0990   81.8130  221.4820 N   0  0  0  0  0  0  0  0  0  0  0  0
  139.3860   80.8450  220.6110 C   0  0  0  0  0  0  0  0  0  0  0  0
  139.9030   80.8910  219.1650 C   0  0  0  0  0  0  0  0  0  0  0  0
  140.9030   79.8000  218.8870 C   0  0  0  0  0  0  0  0  0  0  0  0
  142.0350   80.0610  218.0980 C   0  0  0  0  0  0  0  0  0  0  0  0
  142.9560   79.0440  217.8320 C   0  0  0  0  0  0  0  0  0  0  0  0
  142.7640   77.7670  218.3670 C   0  0  0  0  0  0  0  0  0  0  0  0
  141.6530   77.4930  219.1720 C   0  0  0  0  0  0  0  0  0  0  0  0
  141.5160   76.2030  219.7030 O   0  0  0  0  0  0  0  0  0  0  0  0
  142.6080   75.3450  220.0200 C   0  0  0  0  0  0  0  0  0  0  0  0
  140.7170   78.5150  219.4240 C   0  0  0  0  0  0  0  0  0  0  0  0
  140.7410   81.2630  222.7110 C   0  0  2  0  0  0  0  0  0  0  0  0
  142.1140   80.5500  222.4460 C   0  0  0  0  0  0  0  0  0  0  0  0
  142.2440   79.1580  223.0870 C   0  0  0  0  0  0  0  0  0  0  0  0
  140.9950   78.3510  222.8720 C   0  0  0  0  0  0  0  0  0  0  0  0
  141.0510   76.9960  222.5120 C   0  0  0  0  0  0  0  0  0  0  0  0
  139.8750   76.2480  222.3740 C   0  0  0  0  0  0  0  0  0  0  0  0
  139.9820   74.9030  221.9930 O   0  0  0  0  0  0  0  0  0  0  0  0
  138.9910   74.1950  221.2570 C   0  0  0  0  0  0  0  0  0  0  0  0
  138.6340   76.8630  222.6290 C   0  0  0  0  0  0  0  0  0  0  0  0
  138.5780   78.2080  223.0060 C   0  0  0  0  0  0  0  0  0  0  0  0
  139.7540   78.9610  223.1000 C   0  0  0  0  0  0  0  0  0  0  0  0
  139.7210   80.4080  223.5050 C   0  0  0  0  0  0  0  0  0  0  0  0
  140.2874   84.5337  221.8792 H   0  0  0  0  0  0  0  0  0  0  0  0
  141.1032   84.9175  220.3255 H   0  0  0  0  0  0  0  0  0  0  0  0
  139.4176   84.2966  220.3255 H   0  0  0  0  0  0  0  0  0  0  0  0
  140.9624   82.5049  219.6898 H   0  0  0  0  0  0  0  0  0  0  0  0
  141.9165   82.8043  221.2244 H   0  0  0  0  0  0  0  0  0  0  0  0
  139.5340   79.8307  221.0100 H   0  0  0  0  0  0  0  0  0  0  0  0
  138.3195   81.1142  220.6017 H   0  0  0  0  0  0  0  0  0  0  0  0
  139.0507   80.7742  218.4795 H   0  0  0  0  0  0  0  0  0  0  0  0
  140.4056   81.8579  219.0151 H   0  0  0  0  0  0  0  0  0  0  0  0
  142.1973   81.0688  217.6882 H   0  0  0  0  0  0  0  0  0  0  0  0
  143.8332   79.2488  217.2007 H   0  0  0  0  0  0  0  0  0  0  0  0
  143.4924   76.9709  218.1534 H   0  0  0  0  0  0  0  0  0  0  0  0
  142.7076   75.2667  221.1127 H   0  0  0  0  0  0  0  0  0  0  0  0
  142.4249   74.3466  219.5961 H   0  0  0  0  0  0  0  0  0  0  0  0
  143.5347   75.7591  219.5961 H   0  0  0  0  0  0  0  0  0  0  0  0
  139.8340   78.3056  220.0457 H   0  0  0  0  0  0  0  0  0  0  0  0
  141.0257   82.1114  223.3506 H   0  0  0  0  0  0  0  0  0  0  0  0
  142.2402   80.4407  221.3587 H   0  0  0  0  0  0  0  0  0  0  0  0
  142.8882   81.1805  222.9076 H   0  0  0  0  0  0  0  0  0  0  0  0
  143.0962   78.6307  222.6335 H   0  0  0  0  0  0  0  0  0  0  0  0
  142.4010   79.2820  224.1687 H   0  0  0  0  0  0  0  0  0  0  0  0
  142.0259   76.5176  222.3368 H   0  0  0  0  0  0  0  0  0  0  0  0
  138.2992   73.7008  221.9550 H   0  0  0  0  0  0  0  0  0  0  0  0
  138.4318   74.8993  220.6236 H   0  0  0  0  0  0  0  0  0  0  0  0
  139.4760   73.4377  220.6236 H   0  0  0  0  0  0  0  0  0  0  0  0
  137.7048   76.2825  222.5311 H   0  0  0  0  0  0  0  0  0  0  0  0
  137.6076   78.6755  223.2292 H   0  0  0  0  0  0  0  0  0  0  0  0
  138.7106   80.8034  223.3238 H   0  0  0  0  0  0  0  0  0  0  0  0
  139.9893   80.4661  224.5702 H   0  0  0  0  0  0  0  0  0  0  0  0
  1  2  1  0
  2  3  1  0
  3  4  1  0
  4  5  1  0
  5  6  1  0
  6  7  2  0
  7  8  1  0
  8  9  2  0
  9 10  1  0
 10 11  1  0
 11 12  1  0
 10 13  2  0
  3 14  1  0
 14 15  1  0
 15 16  1  0
 16 17  1  0
 17 18  2  0
 18 19  1  0
 19 20  1  0
 20 21  1  0
 19 22  2  0
 22 23  1  0
 23 24  2  0
 24 25  1  0
 13  6  1  0
 25 14  1  0
 24 17  1  0
  1 26  1  0
  1 27  1  0
  1 28  1  0
  2 29  1  0
  2 30  1  0
  4 31  1  0
  4 32  1  0
  5 33  1  0
  5 34  1  0
  7 35  1  0
  8 36  1  0
  9 37  1  0
 12 38  1  0
 12 39  1  0
 12 40  1  0
 13 41  1  0
 14 42  1  1
 15 43  1  0
 15 44  1  0
 16 45  1  0
 16 46  1  0
 18 47  1  0
 21 48  1  0
 21 49  1  0
 21 50  1  0
 22 51  1  0
 23 52  1  0
 25 53  1  0
 25 54  1  0
M  END
>  <UniqueID>  (41) 
27

>  <SMILES>  (41) 
CCN(CCc1cccc(OC)c1)[C@@H]1CCc2cc(OC)ccc2C1

>  <Energy>  (41) 
62.05239928664439

>  <Genealogy>  (41) 
CCN(CCc1cccc(OC)c1)[C@@H]1CCc2cc(OC)ccc2C1 (chirality)
CCN(CCc1cccc(OC)c1)[C@@H]1CCc2cc(OC)ccc2C1 (3D coordinates assigned)
CCN(CCc1cccc(OC)c1)[C@@H]1CCc2cc(OC)ccc2C1 (nonaromatic ring conformer: 62.05239928664439 kcal/mol)

>  <smiles>  (41) 
CCN(CCc1cccc(OC)c1)C1CCc2cc(OC)ccc2C1

>  <score_type>  (41) 
oracle

>  <origin>  (41) 
autodockgpu

>  <m_score__min__energy>  (41) 
-5.7599999999999998

>  <m_primary>  (41) 
energy

>  <meeko>  (41) 
{"free_energy": -5.13, "intermolecular_energy": -7.22, "internal_energy": -2.07, "cluster_size": 18, "cluster_id": 1, "rank_in_cluster": 7}

>  <energy>  (41) 
-5.76

>  <cluster_rmsd>  (41) 
0.0

>  <rmsd>  (41) 
270.13

>  <cluster>  (41) 
1

$$$$
MXOKLQPDPZBAAI-HXUWFJFHNA-N
     RDKit          3D

 54 56  0  0  0  0  0  0  0  0999 V2000
  140.0720   84.1720  220.8490 C   0  0  0  0  0  0  0  0  0  0  0  0
  141.0630   83.0550  221.1940 C   0  0  0  0  0  0  0  0  0  0  0  0
  140.4230   81.7620  221.5410 N   0  0  0  0  0  0  0  0  0  0  0  0
  140.2940   80.8180  220.4030 C   0  0  0  0  0  0  0  0  0  0  0  0
  141.4550   80.9640  219.4070 C   0  0  0  0  0  0  0  0  0  0  0  0
  141.9220   79.6320  218.8840 C   0  0  0  0  0  0  0  0  0  0  0  0
  142.3090   79.4940  217.5410 C   0  0  0  0  0  0  0  0  0  0  0  0
  142.7310   78.2540  217.0540 C   0  0  0  0  0  0  0  0  0  0  0  0
  142.7890   77.1490  217.9080 C   0  0  0  0  0  0  0  0  0  0  0  0
  142.4260   77.2710  219.2540 C   0  0  0  0  0  0  0  0  0  0  0  0
  142.5220   76.1390  220.0750 O   0  0  0  0  0  0  0  0  0  0  0  0
  143.5560   75.1640  219.9830 C   0  0  0  0  0  0  0  0  0  0  0  0
  141.9840   78.5180  219.7370 C   0  0  0  0  0  0  0  0  0  0  0  0
  140.8630   81.1860  222.8450 C   0  0  2  0  0  0  0  0  0  0  0  0
  142.2340   80.4240  222.7720 C   0  0  0  0  0  0  0  0  0  0  0  0
  142.2220   79.0270  223.4140 C   0  0  0  0  0  0  0  0  0  0  0  0
  140.9890   78.2650  223.0160 C   0  0  0  0  0  0  0  0  0  0  0  0
  141.0480   76.9110  222.6560 C   0  0  0  0  0  0  0  0  0  0  0  0
  139.8780   76.2070  222.3450 C   0  0  0  0  0  0  0  0  0  0  0  0
  139.9910   74.8590  221.9730 O   0  0  0  0  0  0  0  0  0  0  0  0
  140.1160   74.4060  220.6290 C   0  0  0  0  0  0  0  0  0  0  0  0
  138.6360   76.8650  222.4250 C   0  0  0  0  0  0  0  0  0  0  0  0
  138.5740   78.2090  222.8020 C   0  0  0  0  0  0  0  0  0  0  0  0
  139.7510   78.9200  223.0690 C   0  0  0  0  0  0  0  0  0  0  0  0
  139.7100   80.3650  223.4780 C   0  0  0  0  0  0  0  0  0  0  0  0
  139.6800   84.6139  221.7769 H   0  0  0  0  0  0  0  0  0  0  0  0
  140.5842   84.9480  220.2612 H   0  0  0  0  0  0  0  0  0  0  0  0
  139.2405   83.7559  220.2612 H   0  0  0  0  0  0  0  0  0  0  0  0
  141.7179   82.8939  220.3250 H   0  0  0  0  0  0  0  0  0  0  0  0
  141.6144   83.3852  222.0867 H   0  0  0  0  0  0  0  0  0  0  0  0
  140.2862   79.7893  220.7926 H   0  0  0  0  0  0  0  0  0  0  0  0
  139.3576   81.0468  219.8730 H   0  0  0  0  0  0  0  0  0  0  0  0
  141.1202   81.5804  218.5596 H   0  0  0  0  0  0  0  0  0  0  0  0
  142.2973   81.4354  219.9346 H   0  0  0  0  0  0  0  0  0  0  0  0
  142.2798   80.3652  216.8700 H   0  0  0  0  0  0  0  0  0  0  0  0
  143.0178   78.1474  215.9974 H   0  0  0  0  0  0  0  0  0  0  0  0
  143.1227   76.1757  217.5190 H   0  0  0  0  0  0  0  0  0  0  0  0
  143.8710   74.8670  220.9942 H   0  0  0  0  0  0  0  0  0  0  0  0
  143.1817   74.2825  219.4419 H   0  0  0  0  0  0  0  0  0  0  0  0
  144.4140   75.5894  219.4419 H   0  0  0  0  0  0  0  0  0  0  0  0
  141.6850   78.6202  220.7906 H   0  0  0  0  0  0  0  0  0  0  0  0
  141.0829   82.0215  223.5258 H   0  0  0  0  0  0  0  0  0  0  0  0
  142.5094   80.3130  221.7128 H   0  0  0  0  0  0  0  0  0  0  0  0
  142.9566   81.0248  223.3437 H   0  0  0  0  0  0  0  0  0  0  0  0
  143.1116   78.4709  223.0833 H   0  0  0  0  0  0  0  0  0  0  0  0
  142.2262   79.1426  224.5079 H   0  0  0  0  0  0  0  0  0  0  0  0
  142.0204   76.3981  222.6176 H   0  0  0  0  0  0  0  0  0  0  0  0
  140.4086   73.3456  220.6252 H   0  0  0  0  0  0  0  0  0  0  0  0
  139.1522   74.5223  220.1117 H   0  0  0  0  0  0  0  0  0  0  0  0
  140.8838   75.0001  220.1117 H   0  0  0  0  0  0  0  0  0  0  0  0
  137.7106   76.3188  222.1898 H   0  0  0  0  0  0  0  0  0  0  0  0
  137.5986   78.7099  222.8893 H   0  0  0  0  0  0  0  0  0  0  0  0
  138.7503   80.7967  223.1576 H   0  0  0  0  0  0  0  0  0  0  0  0
  139.8242   80.4098  224.5711 H   0  0  0  0  0  0  0  0  0  0  0  0
  1  2  1  0
  2  3  1  0
  3  4  1  0
  4  5  1  0
  5  6  1  0
  6  7  2  0
  7  8  1  0
  8  9  2  0
  9 10  1  0
 10 11  1  0
 11 12  1  0
 10 13  2  0
  3 14  1  0
 14 15  1  0
 15 16  1  0
 16 17  1  0
 17 18  2  0
 18 19  1  0
 19 20  1  0
 20 21  1  0
 19 22  2  0
 22 23  1  0
 23 24  2  0
 24 25  1  0
 13  6  1  0
 25 14  1  0
 24 17  1  0
  1 26  1  0
  1 27  1  0
  1 28  1  0
  2 29  1  0
  2 30  1  0
  4 31  1  0
  4 32  1  0
  5 33  1  0
  5 34  1  0
  7 35  1  0
  8 36  1  0
  9 37  1  0
 12 38  1  0
 12 39  1  0
 12 40  1  0
 13 41  1  0
 14 42  1  1
 15 43  1  0
 15 44  1  0
 16 45  1  0
 16 46  1  0
 18 47  1  0
 21 48  1  0
 21 49  1  0
 21 50  1  0
 22 51  1  0
 23 52  1  0
 25 53  1  0
 25 54  1  0
M  END
>  <UniqueID>  (42) 
27

>  <SMILES>  (42) 
CCN(CCc1cccc(OC)c1)[C@@H]1CCc2cc(OC)ccc2C1

>  <Energy>  (42) 
62.05239928664439

>  <Genealogy>  (42) 
CCN(CCc1cccc(OC)c1)[C@@H]1CCc2cc(OC)ccc2C1 (chirality)
CCN(CCc1cccc(OC)c1)[C@@H]1CCc2cc(OC)ccc2C1 (3D coordinates assigned)
CCN(CCc1cccc(OC)c1)[C@@H]1CCc2cc(OC)ccc2C1 (nonaromatic ring conformer: 62.05239928664439 kcal/mol)

>  <smiles>  (42) 
CCN(CCc1cccc(OC)c1)C1CCc2cc(OC)ccc2C1

>  <score_type>  (42) 
oracle

>  <origin>  (42) 
autodockgpu

>  <m_score__min__energy>  (42) 
-5.7599999999999998

>  <m_primary>  (42) 
energy

>  <meeko>  (42) 
{"free_energy": -5.74, "intermolecular_energy": -7.83, "internal_energy": -1.86, "cluster_size": 18, "cluster_id": 1, "rank_in_cluster": 3}

>  <energy>  (42) 
-5.75

>  <cluster_rmsd>  (42) 
0.26

>  <rmsd>  (42) 
270.15

>  <cluster>  (42) 
1

$$$$
MXOKLQPDPZBAAI-HXUWFJFHNA-N
     RDKit          3D

 54 56  0  0  0  0  0  0  0  0999 V2000
  139.3680   84.1050  221.2180 C   0  0  0  0  0  0  0  0  0  0  0  0
  139.1550   82.6470  221.6400 C   0  0  0  0  0  0  0  0  0  0  0  0
  140.3770   81.8090  221.5640 N   0  0  0  0  0  0  0  0  0  0  0  0
  141.4380   82.3540  220.6800 C   0  0  0  0  0  0  0  0  0  0  0  0
  141.3610   81.7610  219.2650 C   0  0  0  0  0  0  0  0  0  0  0  0
  141.1330   80.2730  219.2860 C   0  0  0  0  0  0  0  0  0  0  0  0
  139.8340   79.7580  219.4320 C   0  0  0  0  0  0  0  0  0  0  0  0
  139.6260   78.3770  219.4640 C   0  0  0  0  0  0  0  0  0  0  0  0
  140.7070   77.5010  219.3290 C   0  0  0  0  0  0  0  0  0  0  0  0
  142.0050   77.9960  219.1630 C   0  0  0  0  0  0  0  0  0  0  0  0
  143.0540   77.0770  219.0120 O   0  0  0  0  0  0  0  0  0  0  0  0
  143.1630   75.8560  219.7350 C   0  0  0  0  0  0  0  0  0  0  0  0
  142.2150   79.3890  219.1500 C   0  0  0  0  0  0  0  0  0  0  0  0
  140.8180   81.2390  222.8700 C   0  0  2  0  0  0  0  0  0  0  0  0
  142.2010   80.4980  222.8050 C   0  0  0  0  0  0  0  0  0  0  0  0
  142.2060   79.1000  223.4460 C   0  0  0  0  0  0  0  0  0  0  0  0
  140.9880   78.3200  223.0410 C   0  0  0  0  0  0  0  0  0  0  0  0
  141.0710   76.9670  222.6800 C   0  0  0  0  0  0  0  0  0  0  0  0
  139.9130   76.2450  222.3620 C   0  0  0  0  0  0  0  0  0  0  0  0
  140.0500   74.9000  221.9890 O   0  0  0  0  0  0  0  0  0  0  0  0
  138.9660   73.9840  221.8750 C   0  0  0  0  0  0  0  0  0  0  0  0
  138.6610   76.8840  222.4350 C   0  0  0  0  0  0  0  0  0  0  0  0
  138.5760   78.2270  222.8120 C   0  0  0  0  0  0  0  0  0  0  0  0
  139.7400   78.9560  223.0870 C   0  0  0  0  0  0  0  0  0  0  0  0
  139.6740   80.4000  223.4960 C   0  0  0  0  0  0  0  0  0  0  0  0
  139.4602   84.7363  222.1141 H   0  0  0  0  0  0  0  0  0  0  0  0
  140.2870   84.1827  220.6185 H   0  0  0  0  0  0  0  0  0  0  0  0
  138.5096   84.4424  220.6185 H   0  0  0  0  0  0  0  0  0  0  0  0
  138.7938   82.6375  222.6790 H   0  0  0  0  0  0  0  0  0  0  0  0
  138.4303   82.2154  220.9339 H   0  0  0  0  0  0  0  0  0  0  0  0
  141.3217   83.4459  220.6154 H   0  0  0  0  0  0  0  0  0  0  0  0
  142.4138   82.0855  221.1109 H   0  0  0  0  0  0  0  0  0  0  0  0
  140.5308   82.2394  218.7247 H   0  0  0  0  0  0  0  0  0  0  0  0
  142.3231   81.9492  218.7661 H   0  0  0  0  0  0  0  0  0  0  0  0
  138.9787   80.4439  219.5213 H   0  0  0  0  0  0  0  0  0  0  0  0
  138.6094   77.9780  219.5957 H   0  0  0  0  0  0  0  0  0  0  0  0
  140.5359   76.4147  219.3534 H   0  0  0  0  0  0  0  0  0  0  0  0
  143.1442   76.0662  220.8146 H   0  0  0  0  0  0  0  0  0  0  0  0
  142.3199   75.1992  219.4746 H   0  0  0  0  0  0  0  0  0  0  0  0
  144.1091   75.3589  219.4746 H   0  0  0  0  0  0  0  0  0  0  0  0
  143.2338   79.7867  219.0325 H   0  0  0  0  0  0  0  0  0  0  0  0
  141.0210   82.0776  223.5523 H   0  0  0  0  0  0  0  0  0  0  0  0
  142.4847   80.3922  221.7475 H   0  0  0  0  0  0  0  0  0  0  0  0
  142.9109   81.1092  223.3816 H   0  0  0  0  0  0  0  0  0  0  0  0
  143.1058   78.5576  223.1201 H   0  0  0  0  0  0  0  0  0  0  0  0
  142.2018   79.2151  224.5400 H   0  0  0  0  0  0  0  0  0  0  0  0
  142.0515   76.4696  222.6463 H   0  0  0  0  0  0  0  0  0  0  0  0
  138.6234   73.6945  222.8794 H   0  0  0  0  0  0  0  0  0  0  0  0
  138.1389   74.4609  221.3288 H   0  0  0  0  0  0  0  0  0  0  0  0
  139.2982   73.0889  221.3288 H   0  0  0  0  0  0  0  0  0  0  0  0
  137.7454   76.3238  222.1942 H   0  0  0  0  0  0  0  0  0  0  0  0
  137.5924   78.7129  222.8930 H   0  0  0  0  0  0  0  0  0  0  0  0
  138.7097   80.8168  223.1699 H   0  0  0  0  0  0  0  0  0  0  0  0
  139.7808   80.4464  224.5898 H   0  0  0  0  0  0  0  0  0  0  0  0
  1  2  1  0
  2  3  1  0
  3  4  1  0
  4  5  1  0
  5  6  1  0
  6  7  2  0
  7  8  1  0
  8  9  2  0
  9 10  1  0
 10 11  1  0
 11 12  1  0
 10 13  2  0
  3 14  1  0
 14 15  1  0
 15 16  1  0
 16 17  1  0
 17 18  2  0
 18 19  1  0
 19 20  1  0
 20 21  1  0
 19 22  2  0
 22 23  1  0
 23 24  2  0
 24 25  1  0
 13  6  1  0
 25 14  1  0
 24 17  1  0
  1 26  1  0
  1 27  1  0
  1 28  1  0
  2 29  1  0
  2 30  1  0
  4 31  1  0
  4 32  1  0
  5 33  1  0
  5 34  1  0
  7 35  1  0
  8 36  1  0
  9 37  1  0
 12 38  1  0
 12 39  1  0
 12 40  1  0
 13 41  1  0
 14 42  1  1
 15 43  1  0
 15 44  1  0
 16 45  1  0
 16 46  1  0
 18 47  1  0
 21 48  1  0
 21 49  1  0
 21 50  1  0
 22 51  1  0
 23 52  1  0
 25 53  1  0
 25 54  1  0
M  END
>  <UniqueID>  (43) 
27

>  <SMILES>  (43) 
CCN(CCc1cccc(OC)c1)[C@@H]1CCc2cc(OC)ccc2C1

>  <Energy>  (43) 
62.05239928664439

>  <Genealogy>  (43) 
CCN(CCc1cccc(OC)c1)[C@@H]1CCc2cc(OC)ccc2C1 (chirality)
CCN(CCc1cccc(OC)c1)[C@@H]1CCc2cc(OC)ccc2C1 (3D coordinates assigned)
CCN(CCc1cccc(OC)c1)[C@@H]1CCc2cc(OC)ccc2C1 (nonaromatic ring conformer: 62.05239928664439 kcal/mol)

>  <smiles>  (43) 
CCN(CCc1cccc(OC)c1)C1CCc2cc(OC)ccc2C1

>  <score_type>  (43) 
oracle

>  <origin>  (43) 
autodockgpu

>  <m_score__min__energy>  (43) 
-5.7599999999999998

>  <m_primary>  (43) 
energy

>  <meeko>  (43) 
{"free_energy": -5.08, "intermolecular_energy": -7.17, "internal_energy": -2.37, "cluster_size": 18, "cluster_id": 1, "rank_in_cluster": 9}

>  <energy>  (43) 
-5.74

>  <cluster_rmsd>  (43) 
0.56

>  <rmsd>  (43) 
270.16

>  <cluster>  (43) 
1

$$$$
MXOKLQPDPZBAAI-HXUWFJFHNA-N
     RDKit          3D

 54 56  0  0  0  0  0  0  0  0999 V2000
  139.1650   83.6370  221.2230 C   0  0  0  0  0  0  0  0  0  0  0  0
  140.6380   83.2140  221.2090 C   0  0  0  0  0  0  0  0  0  0  0  0
  140.8500   81.7490  221.3130 N   0  0  0  0  0  0  0  0  0  0  0  0
  141.8280   81.2030  220.3400 C   0  0  0  0  0  0  0  0  0  0  0  0
  141.1330   80.5960  219.1110 C   0  0  0  0  0  0  0  0  0  0  0  0
  141.7750   79.3050  218.6770 C   0  0  0  0  0  0  0  0  0  0  0  0
  142.2460   79.1550  217.3630 C   0  0  0  0  0  0  0  0  0  0  0  0
  142.8290   77.9510  216.9590 C   0  0  0  0  0  0  0  0  0  0  0  0
  142.9670   76.8990  217.8680 C   0  0  0  0  0  0  0  0  0  0  0  0
  142.5220   77.0370  219.1870 C   0  0  0  0  0  0  0  0  0  0  0  0
  142.7000   75.9600  220.0670 O   0  0  0  0  0  0  0  0  0  0  0  0
  143.7630   75.0170  219.9770 C   0  0  0  0  0  0  0  0  0  0  0  0
  141.9160   78.2450  219.5870 C   0  0  0  0  0  0  0  0  0  0  0  0
  140.9330   81.2350  222.7100 C   0  0  2  0  0  0  0  0  0  0  0  0
  142.2620   80.4590  223.0230 C   0  0  0  0  0  0  0  0  0  0  0  0
  142.0590   79.0950  223.7030 C   0  0  0  0  0  0  0  0  0  0  0  0
  140.9510   78.3250  223.0410 C   0  0  0  0  0  0  0  0  0  0  0  0
  141.0730   76.9540  222.7700 C   0  0  0  0  0  0  0  0  0  0  0  0
  140.0050   76.2450  222.2040 C   0  0  0  0  0  0  0  0  0  0  0  0
  140.1820   74.8800  221.9350 O   0  0  0  0  0  0  0  0  0  0  0  0
  140.1520   74.3090  220.6310 C   0  0  0  0  0  0  0  0  0  0  0  0
  138.7970   76.9170  221.9360 C   0  0  0  0  0  0  0  0  0  0  0  0
  138.6700   78.2780  222.2230 C   0  0  0  0  0  0  0  0  0  0  0  0
  139.7540   78.9910  222.7480 C   0  0  0  0  0  0  0  0  0  0  0  0
  139.6410   80.4560  223.0660 C   0  0  0  0  0  0  0  0  0  0  0  0
  138.8217   83.7356  222.2634 H   0  0  0  0  0  0  0  0  0  0  0  0
  139.0559   84.6028  220.7078 H   0  0  0  0  0  0  0  0  0  0  0  0
  138.5601   82.8763  220.7078 H   0  0  0  0  0  0  0  0  0  0  0  0
  141.0881   83.5619  220.2675 H   0  0  0  0  0  0  0  0  0  0  0  0
  141.1055   83.6653  222.0966 H   0  0  0  0  0  0  0  0  0  0  0  0
  142.4918   82.0152  220.0086 H   0  0  0  0  0  0  0  0  0  0  0  0
  142.3976   80.4053  220.8392 H   0  0  0  0  0  0  0  0  0  0  0  0
  140.0791   80.4021  219.3593 H   0  0  0  0  0  0  0  0  0  0  0  0
  141.2224   81.3139  218.2824 H   0  0  0  0  0  0  0  0  0  0  0  0
  142.1559   79.9874  216.6496 H   0  0  0  0  0  0  0  0  0  0  0  0
  143.1799   77.8313  215.9234 H   0  0  0  0  0  0  0  0  0  0  0  0
  143.4292   75.9549  217.5439 H   0  0  0  0  0  0  0  0  0  0  0  0
  144.0858   74.7307  220.9888 H   0  0  0  0  0  0  0  0  0  0  0  0
  143.4162   74.1240  219.4363 H   0  0  0  0  0  0  0  0  0  0  0  0
  144.6083   75.4678  219.4363 H   0  0  0  0  0  0  0  0  0  0  0  0
  141.5512   78.3581  220.6186 H   0  0  0  0  0  0  0  0  0  0  0  0
  140.9900   82.1014  223.3853 H   0  0  0  0  0  0  0  0  0  0  0  0
  142.7951   80.2943  222.0750 H   0  0  0  0  0  0  0  0  0  0  0  0
  142.8278   81.0810  223.7323 H   0  0  0  0  0  0  0  0  0  0  0  0
  142.9915   78.5157  223.6336 H   0  0  0  0  0  0  0  0  0  0  0  0
  141.7890   79.2640  224.7559 H   0  0  0  0  0  0  0  0  0  0  0  0
  142.0129   76.4323  223.0033 H   0  0  0  0  0  0  0  0  0  0  0  0
  140.0944   73.2135  220.7117 H   0  0  0  0  0  0  0  0  0  0  0  0
  139.2723   74.6833  220.0870 H   0  0  0  0  0  0  0  0  0  0  0  0
  141.0661   74.5891  220.0870 H   0  0  0  0  0  0  0  0  0  0  0  0
  137.9500   76.3679  221.4989 H   0  0  0  0  0  0  0  0  0  0  0  0
  137.7152   78.7911  222.0359 H   0  0  0  0  0  0  0  0  0  0  0  0
  138.8031   80.8792  222.4925 H   0  0  0  0  0  0  0  0  0  0  0  0
  139.4757   80.5542  224.1491 H   0  0  0  0  0  0  0  0  0  0  0  0
  1  2  1  0
  2  3  1  0
  3  4  1  0
  4  5  1  0
  5  6  1  0
  6  7  2  0
  7  8  1  0
  8  9  2  0
  9 10  1  0
 10 11  1  0
 11 12  1  0
 10 13  2  0
  3 14  1  0
 14 15  1  0
 15 16  1  0
 16 17  1  0
 17 18  2  0
 18 19  1  0
 19 20  1  0
 20 21  1  0
 19 22  2  0
 22 23  1  0
 23 24  2  0
 24 25  1  0
 13  6  1  0
 25 14  1  0
 24 17  1  0
  1 26  1  0
  1 27  1  0
  1 28  1  0
  2 29  1  0
  2 30  1  0
  4 31  1  0
  4 32  1  0
  5 33  1  0
  5 34  1  0
  7 35  1  0
  8 36  1  0
  9 37  1  0
 12 38  1  0
 12 39  1  0
 12 40  1  0
 13 41  1  0
 14 42  1  1
 15 43  1  0
 15 44  1  0
 16 45  1  0
 16 46  1  0
 18 47  1  0
 21 48  1  0
 21 49  1  0
 21 50  1  0
 22 51  1  0
 23 52  1  0
 25 53  1  0
 25 54  1  0
M  END
>  <UniqueID>  (44) 
27

>  <SMILES>  (44) 
CCN(CCc1cccc(OC)c1)[C@@H]1CCc2cc(OC)ccc2C1

>  <Energy>  (44) 
62.05239928664439

>  <Genealogy>  (44) 
CCN(CCc1cccc(OC)c1)[C@@H]1CCc2cc(OC)ccc2C1 (chirality)
CCN(CCc1cccc(OC)c1)[C@@H]1CCc2cc(OC)ccc2C1 (3D coordinates assigned)
CCN(CCc1cccc(OC)c1)[C@@H]1CCc2cc(OC)ccc2C1 (nonaromatic ring conformer: 62.05239928664439 kcal/mol)

>  <smiles>  (44) 
CCN(CCc1cccc(OC)c1)C1CCc2cc(OC)ccc2C1

>  <score_type>  (44) 
oracle

>  <origin>  (44) 
autodockgpu

>  <m_score__min__energy>  (44) 
-5.7599999999999998

>  <m_primary>  (44) 
energy

>  <meeko>  (44) 
{"free_energy": -5.53, "intermolecular_energy": -7.62, "internal_energy": -1.88, "cluster_size": 18, "cluster_id": 1, "rank_in_cluster": 6}

>  <energy>  (44) 
-5.61

>  <cluster_rmsd>  (44) 
0.43

>  <rmsd>  (44) 
270.14

>  <cluster>  (44) 
1

$$$$
MXOKLQPDPZBAAI-HXUWFJFHNA-N
     RDKit          3D

 54 56  0  0  0  0  0  0  0  0999 V2000
  139.6510   83.8470  221.1820 C   0  0  0  0  0  0  0  0  0  0  0  0
  141.0340   83.1880  221.1310 C   0  0  0  0  0  0  0  0  0  0  0  0
  141.0070   81.7100  221.2540 N   0  0  0  0  0  0  0  0  0  0  0  0
  141.7880   80.9950  220.2140 C   0  0  0  0  0  0  0  0  0  0  0  0
  140.9350   79.9510  219.4770 C   0  0  0  0  0  0  0  0  0  0  0  0
  141.7680   78.8160  218.9420 C   0  0  0  0  0  0  0  0  0  0  0  0
  142.1890   78.8170  217.6020 C   0  0  0  0  0  0  0  0  0  0  0  0
  142.9510   77.7570  217.1040 C   0  0  0  0  0  0  0  0  0  0  0  0
  143.3160   76.7010  217.9430 C   0  0  0  0  0  0  0  0  0  0  0  0
  142.9230   76.6920  219.2860 C   0  0  0  0  0  0  0  0  0  0  0  0
  143.3310   75.6210  220.0940 O   0  0  0  0  0  0  0  0  0  0  0  0
  144.0890   74.5080  219.6290 C   0  0  0  0  0  0  0  0  0  0  0  0
  142.1390   77.7530  219.7810 C   0  0  0  0  0  0  0  0  0  0  0  0
  141.1290   81.2040  222.6510 C   0  0  2  0  0  0  0  0  0  0  0  0
  142.4330   80.3700  222.9140 C   0  0  0  0  0  0  0  0  0  0  0  0
  142.1980   79.0220  223.6160 C   0  0  0  0  0  0  0  0  0  0  0  0
  141.0280   78.2990  223.0120 C   0  0  0  0  0  0  0  0  0  0  0  0
  141.0740   76.9220  222.7500 C   0  0  0  0  0  0  0  0  0  0  0  0
  139.9510   76.2580  222.2400 C   0  0  0  0  0  0  0  0  0  0  0  0
  140.0530   74.8840  221.9770 O   0  0  0  0  0  0  0  0  0  0  0  0
  140.7070   74.3300  220.8400 C   0  0  0  0  0  0  0  0  0  0  0  0
  138.7640   76.9830  222.0180 C   0  0  0  0  0  0  0  0  0  0  0  0
  138.7130   78.3510  222.2960 C   0  0  0  0  0  0  0  0  0  0  0  0
  139.8510   79.0180  222.7650 C   0  0  0  0  0  0  0  0  0  0  0  0
  139.8190   80.4880  223.0730 C   0  0  0  0  0  0  0  0  0  0  0  0
  139.3513   83.9898  222.2307 H   0  0  0  0  0  0  0  0  0  0  0  0
  139.6909   84.8229  220.6760 H   0  0  0  0  0  0  0  0  0  0  0  0
  138.9182   83.2013  220.6760 H   0  0  0  0  0  0  0  0  0  0  0  0
  141.5040   83.4459  220.1705 H   0  0  0  0  0  0  0  0  0  0  0  0
  141.5976   83.5674  221.9961 H   0  0  0  0  0  0  0  0  0  0  0  0
  142.1634   81.7275  219.4842 H   0  0  0  0  0  0  0  0  0  0  0  0
  142.6178   80.4701  220.7100 H   0  0  0  0  0  0  0  0  0  0  0  0
  140.1889   79.5449  220.1759 H   0  0  0  0  0  0  0  0  0  0  0  0
  140.4519   80.4490  218.6234 H   0  0  0  0  0  0  0  0  0  0  0  0
  141.9180   79.6548  216.9427 H   0  0  0  0  0  0  0  0  0  0  0  0
  143.2641   77.7539  216.0495 H   0  0  0  0  0  0  0  0  0  0  0  0
  143.9170   75.8702  217.5447 H   0  0  0  0  0  0  0  0  0  0  0  0
  144.4746   73.9418  220.4896 H   0  0  0  0  0  0  0  0  0  0  0  0
  143.4465   73.8559  219.0192 H   0  0  0  0  0  0  0  0  0  0  0  0
  144.9312   74.8670  219.0192 H   0  0  0  0  0  0  0  0  0  0  0  0
  141.8153   77.7485  220.8323 H   0  0  0  0  0  0  0  0  0  0  0  0
  141.2563   82.0732  223.3130 H   0  0  0  0  0  0  0  0  0  0  0  0
  142.9160   80.1732  221.9455 H   0  0  0  0  0  0  0  0  0  0  0  0
  143.0569   80.9709  223.5920 H   0  0  0  0  0  0  0  0  0  0  0  0
  143.0989   78.3996  223.5112 H   0  0  0  0  0  0  0  0  0  0  0  0
  141.9832   79.2119  224.6780 H   0  0  0  0  0  0  0  0  0  0  0  0
  141.9986   76.3594  222.9464 H   0  0  0  0  0  0  0  0  0  0  0  0
  141.5073   73.6521  221.1715 H   0  0  0  0  0  0  0  0  0  0  0  0
  139.9789   73.7697  220.2351 H   0  0  0  0  0  0  0  0  0  0  0  0
  141.1400   75.1403  220.2351 H   0  0  0  0  0  0  0  0  0  0  0  0
  137.8741   76.4702  221.6243 H   0  0  0  0  0  0  0  0  0  0  0  0
  137.7753   78.9061  222.1459 H   0  0  0  0  0  0  0  0  0  0  0  0
  138.9761   80.9447  222.5335 H   0  0  0  0  0  0  0  0  0  0  0  0
  139.7071   80.6026  224.1613 H   0  0  0  0  0  0  0  0  0  0  0  0
  1  2  1  0
  2  3  1  0
  3  4  1  0
  4  5  1  0
  5  6  1  0
  6  7  2  0
  7  8  1  0
  8  9  2  0
  9 10  1  0
 10 11  1  0
 11 12  1  0
 10 13  2  0
  3 14  1  0
 14 15  1  0
 15 16  1  0
 16 17  1  0
 17 18  2  0
 18 19  1  0
 19 20  1  0
 20 21  1  0
 19 22  2  0
 22 23  1  0
 23 24  2  0
 24 25  1  0
 13  6  1  0
 25 14  1  0
 24 17  1  0
  1 26  1  0
  1 27  1  0
  1 28  1  0
  2 29  1  0
  2 30  1  0
  4 31  1  0
  4 32  1  0
  5 33  1  0
  5 34  1  0
  7 35  1  0
  8 36  1  0
  9 37  1  0
 12 38  1  0
 12 39  1  0
 12 40  1  0
 13 41  1  0
 14 42  1  1
 15 43  1  0
 15 44  1  0
 16 45  1  0
 16 46  1  0
 18 47  1  0
 21 48  1  0
 21 49  1  0
 21 50  1  0
 22 51  1  0
 23 52  1  0
 25 53  1  0
 25 54  1  0
M  END
>  <UniqueID>  (45) 
27

>  <SMILES>  (45) 
CCN(CCc1cccc(OC)c1)[C@@H]1CCc2cc(OC)ccc2C1

>  <Energy>  (45) 
62.05239928664439

>  <Genealogy>  (45) 
CCN(CCc1cccc(OC)c1)[C@@H]1CCc2cc(OC)ccc2C1 (chirality)
CCN(CCc1cccc(OC)c1)[C@@H]1CCc2cc(OC)ccc2C1 (3D coordinates assigned)
CCN(CCc1cccc(OC)c1)[C@@H]1CCc2cc(OC)ccc2C1 (nonaromatic ring conformer: 62.05239928664439 kcal/mol)

>  <smiles>  (45) 
CCN(CCc1cccc(OC)c1)C1CCc2cc(OC)ccc2C1

>  <score_type>  (45) 
oracle

>  <origin>  (45) 
autodockgpu

>  <m_score__min__energy>  (45) 
-5.7599999999999998

>  <m_primary>  (45) 
energy

>  <meeko>  (45) 
{"free_energy": -5.75, "intermolecular_energy": -7.84, "internal_energy": -1.86, "cluster_size": 18, "cluster_id": 1, "rank_in_cluster": 2}

>  <energy>  (45) 
-5.58

>  <cluster_rmsd>  (45) 
0.56

>  <rmsd>  (45) 
270.13

>  <cluster>  (45) 
1

$$$$
MXOKLQPDPZBAAI-HXUWFJFHNA-N
     RDKit          3D

 54 56  0  0  0  0  0  0  0  0999 V2000
  139.2360   83.9690  221.2200 C   0  0  0  0  0  0  0  0  0  0  0  0
  139.1190   82.4800  221.5640 C   0  0  0  0  0  0  0  0  0  0  0  0
  140.4030   81.7390  221.4970 N   0  0  0  0  0  0  0  0  0  0  0  0
  141.4380   82.3840  220.6500 C   0  0  0  0  0  0  0  0  0  0  0  0
  141.5720   81.6890  219.2860 C   0  0  0  0  0  0  0  0  0  0  0  0
  140.9780   80.3050  219.2950 C   0  0  0  0  0  0  0  0  0  0  0  0
  139.6050   80.1220  219.0620 C   0  0  0  0  0  0  0  0  0  0  0  0
  139.0540   78.8390  219.0840 C   0  0  0  0  0  0  0  0  0  0  0  0
  139.8700   77.7290  219.3160 C   0  0  0  0  0  0  0  0  0  0  0  0
  141.2440   77.8890  219.5290 C   0  0  0  0  0  0  0  0  0  0  0  0
  142.0250   76.7430  219.7370 O   0  0  0  0  0  0  0  0  0  0  0  0
  143.3330   76.5560  219.2070 C   0  0  0  0  0  0  0  0  0  0  0  0
  141.7940   79.1860  219.5260 C   0  0  0  0  0  0  0  0  0  0  0  0
  140.8580   81.1730  222.7990 C   0  0  2  0  0  0  0  0  0  0  0  0
  142.2270   80.4080  222.7160 C   0  0  0  0  0  0  0  0  0  0  0  0
  142.2210   79.0160  223.3680 C   0  0  0  0  0  0  0  0  0  0  0  0
  140.9810   78.2540  222.9930 C   0  0  0  0  0  0  0  0  0  0  0  0
  141.0350   76.8960  222.6430 C   0  0  0  0  0  0  0  0  0  0  0  0
  139.8590   76.1910  222.3530 C   0  0  0  0  0  0  0  0  0  0  0  0
  139.9660   74.8410  221.9900 O   0  0  0  0  0  0  0  0  0  0  0  0
  141.0060   74.3080  221.1770 C   0  0  0  0  0  0  0  0  0  0  0  0
  138.6190   76.8530  222.4430 C   0  0  0  0  0  0  0  0  0  0  0  0
  138.5650   78.2000  222.8100 C   0  0  0  0  0  0  0  0  0  0  0  0
  139.7450   78.9110  223.0570 C   0  0  0  0  0  0  0  0  0  0  0  0
  139.7120   80.3590  223.4540 C   0  0  0  0  0  0  0  0  0  0  0  0
  139.2822   84.5573  222.1483 H   0  0  0  0  0  0  0  0  0  0  0  0
  140.1502   84.1388  220.6324 H   0  0  0  0  0  0  0  0  0  0  0  0
  138.3595   84.2795  220.6324 H   0  0  0  0  0  0  0  0  0  0  0  0
  138.7225   82.3919  222.5863 H   0  0  0  0  0  0  0  0  0  0  0  0
  138.4550   82.0320  220.8101 H   0  0  0  0  0  0  0  0  0  0  0  0
  141.1609   83.4361  220.4880 H   0  0  0  0  0  0  0  0  0  0  0  0
  142.4039   82.3058  221.1705 H   0  0  0  0  0  0  0  0  0  0  0  0
  141.0526   82.2931  218.5275 H   0  0  0  0  0  0  0  0  0  0  0  0
  142.6438   81.5963  219.0567 H   0  0  0  0  0  0  0  0  0  0  0  0
  138.9620   80.9917  218.8616 H   0  0  0  0  0  0  0  0  0  0  0  0
  137.9752   78.7021  218.9183 H   0  0  0  0  0  0  0  0  0  0  0  0
  139.4291   76.7213  219.3314 H   0  0  0  0  0  0  0  0  0  0  0  0
  144.0521   76.4532  220.0330 H   0  0  0  0  0  0  0  0  0  0  0  0
  143.3517   75.6461  218.5892 H   0  0  0  0  0  0  0  0  0  0  0  0
  143.6059   77.4243  218.5892 H   0  0  0  0  0  0  0  0  0  0  0  0
  142.8705   79.3230  219.7059 H   0  0  0  0  0  0  0  0  0  0  0  0
  141.0875   82.0144  223.4694 H   0  0  0  0  0  0  0  0  0  0  0  0
  142.4900   80.2889  221.6546 H   0  0  0  0  0  0  0  0  0  0  0  0
  142.9567   81.0118  223.2754 H   0  0  0  0  0  0  0  0  0  0  0  0
  143.1046   78.4555  223.0288 H   0  0  0  0  0  0  0  0  0  0  0  0
  142.2408   79.1395  224.4609 H   0  0  0  0  0  0  0  0  0  0  0  0
  142.0063   76.3818  222.5960 H   0  0  0  0  0  0  0  0  0  0  0  0
  141.8009   73.9006  221.8189 H   0  0  0  0  0  0  0  0  0  0  0  0
  140.6007   73.5065  220.5419 H   0  0  0  0  0  0  0  0  0  0  0  0
  141.4200   75.1051  220.5419 H   0  0  0  0  0  0  0  0  0  0  0  0
  137.6895   76.3073  222.2235 H   0  0  0  0  0  0  0  0  0  0  0  0
  137.5916   78.7035  222.9052 H   0  0  0  0  0  0  0  0  0  0  0  0
  138.7489   80.7897  223.1426 H   0  0  0  0  0  0  0  0  0  0  0  0
  139.8409   80.4127  224.5451 H   0  0  0  0  0  0  0  0  0  0  0  0
  1  2  1  0
  2  3  1  0
  3  4  1  0
  4  5  1  0
  5  6  1  0
  6  7  2  0
  7  8  1  0
  8  9  2  0
  9 10  1  0
 10 11  1  0
 11 12  1  0
 10 13  2  0
  3 14  1  0
 14 15  1  0
 15 16  1  0
 16 17  1  0
 17 18  2  0
 18 19  1  0
 19 20  1  0
 20 21  1  0
 19 22  2  0
 22 23  1  0
 23 24  2  0
 24 25  1  0
 13  6  1  0
 25 14  1  0
 24 17  1  0
  1 26  1  0
  1 27  1  0
  1 28  1  0
  2 29  1  0
  2 30  1  0
  4 31  1  0
  4 32  1  0
  5 33  1  0
  5 34  1  0
  7 35  1  0
  8 36  1  0
  9 37  1  0
 12 38  1  0
 12 39  1  0
 12 40  1  0
 13 41  1  0
 14 42  1  1
 15 43  1  0
 15 44  1  0
 16 45  1  0
 16 46  1  0
 18 47  1  0
 21 48  1  0
 21 49  1  0
 21 50  1  0
 22 51  1  0
 23 52  1  0
 25 53  1  0
 25 54  1  0
M  END
>  <UniqueID>  (46) 
27

>  <SMILES>  (46) 
CCN(CCc1cccc(OC)c1)[C@@H]1CCc2cc(OC)ccc2C1

>  <Energy>  (46) 
62.05239928664439

>  <Genealogy>  (46) 
CCN(CCc1cccc(OC)c1)[C@@H]1CCc2cc(OC)ccc2C1 (chirality)
CCN(CCc1cccc(OC)c1)[C@@H]1CCc2cc(OC)ccc2C1 (3D coordinates assigned)
CCN(CCc1cccc(OC)c1)[C@@H]1CCc2cc(OC)ccc2C1 (nonaromatic ring conformer: 62.05239928664439 kcal/mol)

>  <smiles>  (46) 
CCN(CCc1cccc(OC)c1)C1CCc2cc(OC)ccc2C1

>  <score_type>  (46) 
oracle

>  <origin>  (46) 
autodockgpu

>  <m_score__min__energy>  (46) 
-5.7599999999999998

>  <m_primary>  (46) 
energy

>  <meeko>  (46) 
{"free_energy": -4.9, "intermolecular_energy": -6.99, "internal_energy": -2.53, "cluster_size": 18, "cluster_id": 1, "rank_in_cluster": 15}

>  <energy>  (46) 
-5.53

>  <cluster_rmsd>  (46) 
0.36

>  <rmsd>  (46) 
270.08

>  <cluster>  (46) 
1

$$$$
MXOKLQPDPZBAAI-HXUWFJFHNA-N
     RDKit          3D

 54 56  0  0  0  0  0  0  0  0999 V2000
  137.9030   82.0810  221.1080 C   0  0  0  0  0  0  0  0  0  0  0  0
  139.2000   82.7210  221.6150 C   0  0  0  0  0  0  0  0  0  0  0  0
  140.3980   81.8570  221.4740 N   0  0  0  0  0  0  0  0  0  0  0  0
  141.4150   82.3710  220.5230 C   0  0  0  0  0  0  0  0  0  0  0  0
  141.2230   81.7900  219.1140 C   0  0  0  0  0  0  0  0  0  0  0  0
  141.1180   80.2880  219.1310 C   0  0  0  0  0  0  0  0  0  0  0  0
  142.2670   79.4960  218.9730 C   0  0  0  0  0  0  0  0  0  0  0  0
  142.1660   78.1020  218.9770 C   0  0  0  0  0  0  0  0  0  0  0  0
  140.9240   77.4900  219.1600 C   0  0  0  0  0  0  0  0  0  0  0  0
  139.7700   78.2620  219.3390 C   0  0  0  0  0  0  0  0  0  0  0  0
  138.5500   77.6010  219.5390 O   0  0  0  0  0  0  0  0  0  0  0  0
  137.2800   78.2460  219.5540 C   0  0  0  0  0  0  0  0  0  0  0  0
  139.8720   79.6670  219.3150 C   0  0  0  0  0  0  0  0  0  0  0  0
  140.9050   81.2900  222.7570 C   0  0  2  0  0  0  0  0  0  0  0  0
  142.2650   80.5190  222.6180 C   0  0  0  0  0  0  0  0  0  0  0  0
  142.2790   79.1270  223.2720 C   0  0  0  0  0  0  0  0  0  0  0  0
  141.0210   78.3710  222.9500 C   0  0  0  0  0  0  0  0  0  0  0  0
  141.0530   77.0120  222.6010 C   0  0  0  0  0  0  0  0  0  0  0  0
  139.8630   76.3130  222.3610 C   0  0  0  0  0  0  0  0  0  0  0  0
  139.9470   74.9620  221.9960 O   0  0  0  0  0  0  0  0  0  0  0  0
  140.9140   74.4320  221.0950 C   0  0  0  0  0  0  0  0  0  0  0  0
  138.6310   76.9810  222.5020 C   0  0  0  0  0  0  0  0  0  0  0  0
  138.5990   78.3290  222.8690 C   0  0  0  0  0  0  0  0  0  0  0  0
  139.7920   79.0340  223.0650 C   0  0  0  0  0  0  0  0  0  0  0  0
  139.7830   80.4840  223.4610 C   0  0  0  0  0  0  0  0  0  0  0  0
  137.2850   81.7761  221.9654 H   0  0  0  0  0  0  0  0  0  0  0  0
  137.3491   82.8092  220.4974 H   0  0  0  0  0  0  0  0  0  0  0  0
  138.1440   81.1984  220.4974 H   0  0  0  0  0  0  0  0  0  0  0  0
  139.3732   83.6469  221.0470 H   0  0  0  0  0  0  0  0  0  0  0  0
  139.0645   82.9017  222.6916 H   0  0  0  0  0  0  0  0  0  0  0  0
  141.3321   83.4666  220.4708 H   0  0  0  0  0  0  0  0  0  0  0  0
  142.4077   82.0666  220.8862 H   0  0  0  0  0  0  0  0  0  0  0  0
  140.3008   82.2053  218.6815 H   0  0  0  0  0  0  0  0  0  0  0  0
  142.1030   82.0616  218.5124 H   0  0  0  0  0  0  0  0  0  0  0  0
  143.2494   79.9742  218.8457 H   0  0  0  0  0  0  0  0  0  0  0  0
  143.0662   77.4859  218.8358 H   0  0  0  0  0  0  0  0  0  0  0  0
  140.8520   76.3924  219.1635 H   0  0  0  0  0  0  0  0  0  0  0  0
  136.9628   78.4071  220.5949 H   0  0  0  0  0  0  0  0  0  0  0  0
  137.3549   79.2153  219.0393 H   0  0  0  0  0  0  0  0  0  0  0  0
  136.5415   77.6137  219.0393 H   0  0  0  0  0  0  0  0  0  0  0  0
  138.9689   80.2821  219.4413 H   0  0  0  0  0  0  0  0  0  0  0  0
  141.1675   82.1306  223.4162 H   0  0  0  0  0  0  0  0  0  0  0  0
  142.4830   80.3974  221.5467 H   0  0  0  0  0  0  0  0  0  0  0  0
  143.0205   81.1199  223.1453 H   0  0  0  0  0  0  0  0  0  0  0  0
  143.1450   78.5616  222.8972 H   0  0  0  0  0  0  0  0  0  0  0  0
  142.3448   79.2517  224.3629 H   0  0  0  0  0  0  0  0  0  0  0  0
  142.0187   76.4924  222.5154 H   0  0  0  0  0  0  0  0  0  0  0  0
  141.7384   73.9801  221.6661 H   0  0  0  0  0  0  0  0  0  0  0  0
  140.4436   73.6656  220.4615 H   0  0  0  0  0  0  0  0  0  0  0  0
  141.3070   75.2408  220.4615 H   0  0  0  0  0  0  0  0  0  0  0  0
  137.6905   76.4395  222.3225 H   0  0  0  0  0  0  0  0  0  0  0  0
  137.6331   78.8376  223.0043 H   0  0  0  0  0  0  0  0  0  0  0  0
  138.8101   80.9195  223.1893 H   0  0  0  0  0  0  0  0  0  0  0  0
  139.9572   80.5391  224.5457 H   0  0  0  0  0  0  0  0  0  0  0  0
  1  2  1  0
  2  3  1  0
  3  4  1  0
  4  5  1  0
  5  6  1  0
  6  7  2  0
  7  8  1  0
  8  9  2  0
  9 10  1  0
 10 11  1  0
 11 12  1  0
 10 13  2  0
  3 14  1  0
 14 15  1  0
 15 16  1  0
 16 17  1  0
 17 18  2  0
 18 19  1  0
 19 20  1  0
 20 21  1  0
 19 22  2  0
 22 23  1  0
 23 24  2  0
 24 25  1  0
 13  6  1  0
 25 14  1  0
 24 17  1  0
  1 26  1  0
  1 27  1  0
  1 28  1  0
  2 29  1  0
  2 30  1  0
  4 31  1  0
  4 32  1  0
  5 33  1  0
  5 34  1  0
  7 35  1  0
  8 36  1  0
  9 37  1  0
 12 38  1  0
 12 39  1  0
 12 40  1  0
 13 41  1  0
 14 42  1  1
 15 43  1  0
 15 44  1  0
 16 45  1  0
 16 46  1  0
 18 47  1  0
 21 48  1  0
 21 49  1  0
 21 50  1  0
 22 51  1  0
 23 52  1  0
 25 53  1  0
 25 54  1  0
M  END
>  <UniqueID>  (47) 
27

>  <SMILES>  (47) 
CCN(CCc1cccc(OC)c1)[C@@H]1CCc2cc(OC)ccc2C1

>  <Energy>  (47) 
62.05239928664439

>  <Genealogy>  (47) 
CCN(CCc1cccc(OC)c1)[C@@H]1CCc2cc(OC)ccc2C1 (chirality)
CCN(CCc1cccc(OC)c1)[C@@H]1CCc2cc(OC)ccc2C1 (3D coordinates assigned)
CCN(CCc1cccc(OC)c1)[C@@H]1CCc2cc(OC)ccc2C1 (nonaromatic ring conformer: 62.05239928664439 kcal/mol)

>  <smiles>  (47) 
CCN(CCc1cccc(OC)c1)C1CCc2cc(OC)ccc2C1

>  <score_type>  (47) 
oracle

>  <origin>  (47) 
autodockgpu

>  <m_score__min__energy>  (47) 
-5.7599999999999998

>  <m_primary>  (47) 
energy

>  <meeko>  (47) 
{"free_energy": -4.67, "intermolecular_energy": -6.76, "internal_energy": -2.65, "cluster_size": 18, "cluster_id": 1, "rank_in_cluster": 17}

>  <energy>  (47) 
-5.13

>  <cluster_rmsd>  (47) 
0.93

>  <rmsd>  (47) 
270.02

>  <cluster>  (47) 
1

$$$$
MXOKLQPDPZBAAI-HXUWFJFHNA-N
     RDKit          3D

 54 56  0  0  0  0  0  0  0  0999 V2000
  137.9310   82.1950  221.1410 C   0  0  0  0  0  0  0  0  0  0  0  0
  139.2670   82.7560  221.6410 C   0  0  0  0  0  0  0  0  0  0  0  0
  140.3940   81.7940  221.5690 N   0  0  0  0  0  0  0  0  0  0  0  0
  141.4820   82.1950  220.6420 C   0  0  0  0  0  0  0  0  0  0  0  0
  141.2500   81.6530  219.2220 C   0  0  0  0  0  0  0  0  0  0  0  0
  141.0820   80.1570  219.2090 C   0  0  0  0  0  0  0  0  0  0  0  0
  139.8070   79.5860  219.3450 C   0  0  0  0  0  0  0  0  0  0  0  0
  139.6550   78.1970  219.3450 C   0  0  0  0  0  0  0  0  0  0  0  0
  140.7700   77.3690  219.1870 C   0  0  0  0  0  0  0  0  0  0  0  0
  142.0470   77.9200  219.0290 C   0  0  0  0  0  0  0  0  0  0  0  0
  143.1310   77.0490  218.8530 O   0  0  0  0  0  0  0  0  0  0  0  0
  143.4200   75.9430  219.7020 C   0  0  0  0  0  0  0  0  0  0  0  0
  142.1990   79.3210  219.0490 C   0  0  0  0  0  0  0  0  0  0  0  0
  140.8080   81.2270  222.8850 C   0  0  2  0  0  0  0  0  0  0  0  0
  142.1940   80.4900  222.8510 C   0  0  0  0  0  0  0  0  0  0  0  0
  142.1890   79.0930  223.4940 C   0  0  0  0  0  0  0  0  0  0  0  0
  140.9810   78.3100  223.0650 C   0  0  0  0  0  0  0  0  0  0  0  0
  141.0750   76.9560  222.7080 C   0  0  0  0  0  0  0  0  0  0  0  0
  139.9260   76.2310  222.3670 C   0  0  0  0  0  0  0  0  0  0  0  0
  140.0740   74.8850  222.0000 O   0  0  0  0  0  0  0  0  0  0  0  0
  139.0000   74.0380  221.6040 C   0  0  0  0  0  0  0  0  0  0  0  0
  138.6710   76.8670  222.4120 C   0  0  0  0  0  0  0  0  0  0  0  0
  138.5750   78.2100  222.7840 C   0  0  0  0  0  0  0  0  0  0  0  0
  139.7310   78.9420  223.0830 C   0  0  0  0  0  0  0  0  0  0  0  0
  139.6530   80.3870  223.4880 C   0  0  0  0  0  0  0  0  0  0  0  0
  137.2995   81.9298  222.0018 H   0  0  0  0  0  0  0  0  0  0  0  0
  137.4196   82.9544  220.5312 H   0  0  0  0  0  0  0  0  0  0  0  0
  138.1151   81.2982  220.5312 H   0  0  0  0  0  0  0  0  0  0  0  0
  139.5231   83.6341  221.0300 H   0  0  0  0  0  0  0  0  0  0  0  0
  139.1289   83.0030  222.7040 H   0  0  0  0  0  0  0  0  0  0  0  0
  141.5282   83.2933  220.6009 H   0  0  0  0  0  0  0  0  0  0  0  0
  142.4256   81.7738  221.0192 H   0  0  0  0  0  0  0  0  0  0  0  0
  140.3414   82.1159  218.8094 H   0  0  0  0  0  0  0  0  0  0  0  0
  142.1337   81.9006  218.6156 H   0  0  0  0  0  0  0  0  0  0  0  0
  138.9246   80.2341  219.4519 H   0  0  0  0  0  0  0  0  0  0  0  0
  138.6558   77.7542  219.4696 H   0  0  0  0  0  0  0  0  0  0  0  0
  140.6430   76.2764  219.1868 H   0  0  0  0  0  0  0  0  0  0  0  0
  143.3381   76.2565  220.7532 H   0  0  0  0  0  0  0  0  0  0  0  0
  142.7036   75.1320  219.5043 H   0  0  0  0  0  0  0  0  0  0  0  0
  144.4416   75.5861  219.5043 H   0  0  0  0  0  0  0  0  0  0  0  0
  143.2002   79.7630  218.9384 H   0  0  0  0  0  0  0  0  0  0  0  0
  140.9942   82.0670  223.5704 H   0  0  0  0  0  0  0  0  0  0  0  0
  142.5009   80.3835  221.8001 H   0  0  0  0  0  0  0  0  0  0  0  0
  142.8896   81.1040  223.4419 H   0  0  0  0  0  0  0  0  0  0  0  0
  143.0964   78.5521  223.1873 H   0  0  0  0  0  0  0  0  0  0  0  0
  142.1623   79.2094  224.5875 H   0  0  0  0  0  0  0  0  0  0  0  0
  142.0572   76.4609  222.6959 H   0  0  0  0  0  0  0  0  0  0  0  0
  138.4970   73.6413  222.4982 H   0  0  0  0  0  0  0  0  0  0  0  0
  138.2805   74.6144  221.0039 H   0  0  0  0  0  0  0  0  0  0  0  0
  139.3928   73.2040  221.0039 H   0  0  0  0  0  0  0  0  0  0  0  0
  137.7621   76.3041  222.1531 H   0  0  0  0  0  0  0  0  0  0  0  0
  137.5889   78.6939  222.8423 H   0  0  0  0  0  0  0  0  0  0  0  0
  138.6949   80.8011  223.1407 H   0  0  0  0  0  0  0  0  0  0  0  0
  139.7362   80.4357  224.5838 H   0  0  0  0  0  0  0  0  0  0  0  0
  1  2  1  0
  2  3  1  0
  3  4  1  0
  4  5  1  0
  5  6  1  0
  6  7  2  0
  7  8  1  0
  8  9  2  0
  9 10  1  0
 10 11  1  0
 11 12  1  0
 10 13  2  0
  3 14  1  0
 14 15  1  0
 15 16  1  0
 16 17  1  0
 17 18  2  0
 18 19  1  0
 19 20  1  0
 20 21  1  0
 19 22  2  0
 22 23  1  0
 23 24  2  0
 24 25  1  0
 13  6  1  0
 25 14  1  0
 24 17  1  0
  1 26  1  0
  1 27  1  0
  1 28  1  0
  2 29  1  0
  2 30  1  0
  4 31  1  0
  4 32  1  0
  5 33  1  0
  5 34  1  0
  7 35  1  0
  8 36  1  0
  9 37  1  0
 12 38  1  0
 12 39  1  0
 12 40  1  0
 13 41  1  0
 14 42  1  1
 15 43  1  0
 15 44  1  0
 16 45  1  0
 16 46  1  0
 18 47  1  0
 21 48  1  0
 21 49  1  0
 21 50  1  0
 22 51  1  0
 23 52  1  0
 25 53  1  0
 25 54  1  0
M  END
>  <UniqueID>  (48) 
27

>  <SMILES>  (48) 
CCN(CCc1cccc(OC)c1)[C@@H]1CCc2cc(OC)ccc2C1

>  <Energy>  (48) 
62.05239928664439

>  <Genealogy>  (48) 
CCN(CCc1cccc(OC)c1)[C@@H]1CCc2cc(OC)ccc2C1 (chirality)
CCN(CCc1cccc(OC)c1)[C@@H]1CCc2cc(OC)ccc2C1 (3D coordinates assigned)
CCN(CCc1cccc(OC)c1)[C@@H]1CCc2cc(OC)ccc2C1 (nonaromatic ring conformer: 62.05239928664439 kcal/mol)

>  <smiles>  (48) 
CCN(CCc1cccc(OC)c1)C1CCc2cc(OC)ccc2C1

>  <score_type>  (48) 
oracle

>  <origin>  (48) 
autodockgpu

>  <m_score__min__energy>  (48) 
-5.7599999999999998

>  <m_primary>  (48) 
energy

>  <meeko>  (48) 
{"free_energy": -5.01, "intermolecular_energy": -7.1, "internal_energy": -2.44, "cluster_size": 18, "cluster_id": 1, "rank_in_cluster": 11}

>  <energy>  (48) 
-5.1

>  <cluster_rmsd>  (48) 
0.93

>  <rmsd>  (48) 
270.05

>  <cluster>  (48) 
1

$$$$
MXOKLQPDPZBAAI-HXUWFJFHNA-N
     RDKit          3D

 54 56  0  0  0  0  0  0  0  0999 V2000
  139.2620   84.0240  221.1590 C   0  0  0  0  0  0  0  0  0  0  0  0
  139.1350   82.5540  221.5730 C   0  0  0  0  0  0  0  0  0  0  0  0
  140.4050   81.7910  221.4990 N   0  0  0  0  0  0  0  0  0  0  0  0
  141.4420   82.4110  220.6370 C   0  0  0  0  0  0  0  0  0  0  0  0
  141.5170   81.7350  219.2590 C   0  0  0  0  0  0  0  0  0  0  0  0
  140.9940   80.3230  219.2930 C   0  0  0  0  0  0  0  0  0  0  0  0
  139.6310   80.0680  219.0690 C   0  0  0  0  0  0  0  0  0  0  0  0
  139.1460   78.7580  219.1130 C   0  0  0  0  0  0  0  0  0  0  0  0
  140.0180   77.6950  219.3580 C   0  0  0  0  0  0  0  0  0  0  0  0
  141.3830   77.9270  219.5630 C   0  0  0  0  0  0  0  0  0  0  0  0
  142.2210   76.8260  219.7840 O   0  0  0  0  0  0  0  0  0  0  0  0
  143.3370   76.4880  218.9660 C   0  0  0  0  0  0  0  0  0  0  0  0
  141.8670   79.2500  219.5370 C   0  0  0  0  0  0  0  0  0  0  0  0
  140.8630   81.2270  222.8020 C   0  0  2  0  0  0  0  0  0  0  0  0
  142.2350   80.4670  222.7180 C   0  0  0  0  0  0  0  0  0  0  0  0
  142.2340   79.0760  223.3720 C   0  0  0  0  0  0  0  0  0  0  0  0
  140.9970   78.3080  222.9980 C   0  0  0  0  0  0  0  0  0  0  0  0
  141.0550   76.9510  222.6500 C   0  0  0  0  0  0  0  0  0  0  0  0
  139.8820   76.2420  222.3610 C   0  0  0  0  0  0  0  0  0  0  0  0
  139.9930   74.8910  221.9990 O   0  0  0  0  0  0  0  0  0  0  0  0
  141.0040   74.3700  221.1430 C   0  0  0  0  0  0  0  0  0  0  0  0
  138.6390   76.8980  222.4520 C   0  0  0  0  0  0  0  0  0  0  0  0
  138.5800   78.2460  222.8170 C   0  0  0  0  0  0  0  0  0  0  0  0
  139.7590   78.9610  223.0620 C   0  0  0  0  0  0  0  0  0  0  0  0
  139.7210   80.4100  223.4580 C   0  0  0  0  0  0  0  0  0  0  0  0
  139.3165   84.6549  222.0585 H   0  0  0  0  0  0  0  0  0  0  0  0
  140.1751   84.1589  220.5607 H   0  0  0  0  0  0  0  0  0  0  0  0
  138.3855   84.3135  220.5607 H   0  0  0  0  0  0  0  0  0  0  0  0
  138.7704   82.5177  222.6102 H   0  0  0  0  0  0  0  0  0  0  0  0
  138.4408   82.0833  220.8613 H   0  0  0  0  0  0  0  0  0  0  0  0
  141.2006   83.4753  220.4989 H   0  0  0  0  0  0  0  0  0  0  0  0
  142.4166   82.2878  221.1319 H   0  0  0  0  0  0  0  0  0  0  0  0
  140.9178   82.3183  218.5444 H   0  0  0  0  0  0  0  0  0  0  0  0
  142.5738   81.6982  218.9561 H   0  0  0  0  0  0  0  0  0  0  0  0
  138.9440   80.9009  218.8585 H   0  0  0  0  0  0  0  0  0  0  0  0
  138.0750   78.5638  218.9543 H   0  0  0  0  0  0  0  0  0  0  0  0
  139.6288   76.6667  219.3901 H   0  0  0  0  0  0  0  0  0  0  0  0
  144.1943   76.2284  219.6045 H   0  0  0  0  0  0  0  0  0  0  0  0
  143.0790   75.6277  218.3309 H   0  0  0  0  0  0  0  0  0  0  0  0
  143.5996   77.3469  218.3309 H   0  0  0  0  0  0  0  0  0  0  0  0
  142.9360   79.4439  219.7090 H   0  0  0  0  0  0  0  0  0  0  0  0
  141.0897   82.0693  223.4722 H   0  0  0  0  0  0  0  0  0  0  0  0
  142.4971   80.3474  221.6564 H   0  0  0  0  0  0  0  0  0  0  0  0
  142.9637   81.0742  223.2751 H   0  0  0  0  0  0  0  0  0  0  0  0
  143.1199   78.5185  223.0339 H   0  0  0  0  0  0  0  0  0  0  0  0
  142.2527   79.2015  224.4647 H   0  0  0  0  0  0  0  0  0  0  0  0
  142.0279   76.4399  222.6036 H   0  0  0  0  0  0  0  0  0  0  0  0
  141.8188   73.9501  221.7511 H   0  0  0  0  0  0  0  0  0  0  0  0
  140.5758   73.5803  220.5082 H   0  0  0  0  0  0  0  0  0  0  0  0
  141.3987   75.1770  220.5082 H   0  0  0  0  0  0  0  0  0  0  0  0
  137.7116   76.3477  222.2351 H   0  0  0  0  0  0  0  0  0  0  0  0
  137.6051   78.7465  222.9121 H   0  0  0  0  0  0  0  0  0  0  0  0
  138.7562   80.8370  223.1468 H   0  0  0  0  0  0  0  0  0  0  0  0
  139.8503   80.4651  224.5490 H   0  0  0  0  0  0  0  0  0  0  0  0
  1  2  1  0
  2  3  1  0
  3  4  1  0
  4  5  1  0
  5  6  1  0
  6  7  2  0
  7  8  1  0
  8  9  2  0
  9 10  1  0
 10 11  1  0
 11 12  1  0
 10 13  2  0
  3 14  1  0
 14 15  1  0
 15 16  1  0
 16 17  1  0
 17 18  2  0
 18 19  1  0
 19 20  1  0
 20 21  1  0
 19 22  2  0
 22 23  1  0
 23 24  2  0
 24 25  1  0
 13  6  1  0
 25 14  1  0
 24 17  1  0
  1 26  1  0
  1 27  1  0
  1 28  1  0
  2 29  1  0
  2 30  1  0
  4 31  1  0
  4 32  1  0
  5 33  1  0
  5 34  1  0
  7 35  1  0
  8 36  1  0
  9 37  1  0
 12 38  1  0
 12 39  1  0
 12 40  1  0
 13 41  1  0
 14 42  1  1
 15 43  1  0
 15 44  1  0
 16 45  1  0
 16 46  1  0
 18 47  1  0
 21 48  1  0
 21 49  1  0
 21 50  1  0
 22 51  1  0
 23 52  1  0
 25 53  1  0
 25 54  1  0
M  END
>  <UniqueID>  (49) 
27

>  <SMILES>  (49) 
CCN(CCc1cccc(OC)c1)[C@@H]1CCc2cc(OC)ccc2C1

>  <Energy>  (49) 
62.05239928664439

>  <Genealogy>  (49) 
CCN(CCc1cccc(OC)c1)[C@@H]1CCc2cc(OC)ccc2C1 (chirality)
CCN(CCc1cccc(OC)c1)[C@@H]1CCc2cc(OC)ccc2C1 (3D coordinates assigned)
CCN(CCc1cccc(OC)c1)[C@@H]1CCc2cc(OC)ccc2C1 (nonaromatic ring conformer: 62.05239928664439 kcal/mol)

>  <smiles>  (49) 
CCN(CCc1cccc(OC)c1)C1CCc2cc(OC)ccc2C1

>  <score_type>  (49) 
oracle

>  <origin>  (49) 
autodockgpu

>  <m_score__min__energy>  (49) 
-5.7599999999999998

>  <m_primary>  (49) 
energy

>  <meeko>  (49) 
{"free_energy": -4.92, "intermolecular_energy": -7.01, "internal_energy": -2.52, "cluster_size": 18, "cluster_id": 1, "rank_in_cluster": 14}

>  <energy>  (49) 
-5.08

>  <cluster_rmsd>  (49) 
1.05

>  <rmsd>  (49) 
270.21

>  <cluster>  (49) 
1

$$$$
MXOKLQPDPZBAAI-HXUWFJFHNA-N
     RDKit          3D

 54 56  0  0  0  0  0  0  0  0999 V2000
  138.7210   83.3920  221.5780 C   0  0  0  0  0  0  0  0  0  0  0  0
  140.2270   83.1670  221.4070 C   0  0  0  0  0  0  0  0  0  0  0  0
  140.6300   81.7390  221.4000 N   0  0  0  0  0  0  0  0  0  0  0  0
  141.5120   81.3580  220.2690 C   0  0  0  0  0  0  0  0  0  0  0  0
  140.7240   80.6900  219.1320 C   0  0  0  0  0  0  0  0  0  0  0  0
  140.8890   79.1930  219.1330 C   0  0  0  0  0  0  0  0  0  0  0  0
  139.7970   78.3600  218.8370 C   0  0  0  0  0  0  0  0  0  0  0  0
  139.9490   76.9710  218.8510 C   0  0  0  0  0  0  0  0  0  0  0  0
  141.1930   76.4050  219.1390 C   0  0  0  0  0  0  0  0  0  0  0  0
  142.2970   77.2180  219.4160 C   0  0  0  0  0  0  0  0  0  0  0  0
  143.5290   76.6030  219.6780 O   0  0  0  0  0  0  0  0  0  0  0  0
  143.7290   75.1940  219.7280 C   0  0  0  0  0  0  0  0  0  0  0  0
  142.1370   78.6180  219.4200 C   0  0  0  0  0  0  0  0  0  0  0  0
  140.9830   81.1910  222.7410 C   0  0  2  0  0  0  0  0  0  0  0  0
  142.3270   80.3780  222.7620 C   0  0  0  0  0  0  0  0  0  0  0  0
  142.2310   79.0040  223.4450 C   0  0  0  0  0  0  0  0  0  0  0  0
  140.9910   78.2750  223.0100 C   0  0  0  0  0  0  0  0  0  0  0  0
  141.0170   76.9080  222.6950 C   0  0  0  0  0  0  0  0  0  0  0  0
  139.8380   76.2360  222.3480 C   0  0  0  0  0  0  0  0  0  0  0  0
  139.9190   74.8740  222.0240 O   0  0  0  0  0  0  0  0  0  0  0  0
  141.1030   74.2260  221.5710 C   0  0  0  0  0  0  0  0  0  0  0  0
  138.6190   76.9410  222.3450 C   0  0  0  0  0  0  0  0  0  0  0  0
  138.5900   78.2990  222.6760 C   0  0  0  0  0  0  0  0  0  0  0  0
  139.7770   78.9750  222.9800 C   0  0  0  0  0  0  0  0  0  0  0  0
  139.7710   80.4330  223.3410 C   0  0  0  0  0  0  0  0  0  0  0  0
  138.4751   83.4287  222.6495 H   0  0  0  0  0  0  0  0  0  0  0  0
  138.4361   84.3427  221.1036 H   0  0  0  0  0  0  0  0  0  0  0  0
  138.1707   82.5661  221.1036 H   0  0  0  0  0  0  0  0  0  0  0  0
  140.5374   83.6181  220.4529 H   0  0  0  0  0  0  0  0  0  0  0  0
  140.7173   83.6303  222.2759 H   0  0  0  0  0  0  0  0  0  0  0  0
  142.0022   82.2623  219.8792 H   0  0  0  0  0  0  0  0  0  0  0  0
  142.2537   80.6361  220.6415 H   0  0  0  0  0  0  0  0  0  0  0  0
  139.6570   80.9295  219.2513 H   0  0  0  0  0  0  0  0  0  0  0  0
  141.1144   81.0736  218.1778 H   0  0  0  0  0  0  0  0  0  0  0  0
  138.8198   78.8024  218.5936 H   0  0  0  0  0  0  0  0  0  0  0  0
  139.0874   76.3222  218.6348 H   0  0  0  0  0  0  0  0  0  0  0  0
  141.3054   75.3108  219.1481 H   0  0  0  0  0  0  0  0  0  0  0  0
  143.7754   74.8673  220.7773 H   0  0  0  0  0  0  0  0  0  0  0  0
  142.8938   74.6869  219.2226 H   0  0  0  0  0  0  0  0  0  0  0  0
  144.6723   74.9394  219.2226 H   0  0  0  0  0  0  0  0  0  0  0  0
  142.9964   79.2651  219.6497 H   0  0  0  0  0  0  0  0  0  0  0  0
  141.1998   82.0409  223.4048 H   0  0  0  0  0  0  0  0  0  0  0  0
  142.6508   80.2228  221.7223 H   0  0  0  0  0  0  0  0  0  0  0  0
  143.0418   80.9709  223.3515 H   0  0  0  0  0  0  0  0  0  0  0  0
  143.1138   78.4055  223.1760 H   0  0  0  0  0  0  0  0  0  0  0  0
  142.1866   79.1548  224.5337 H   0  0  0  0  0  0  0  0  0  0  0  0
  141.9704   76.3599  222.7208 H   0  0  0  0  0  0  0  0  0  0  0  0
  141.6974   73.9007  222.4375 H   0  0  0  0  0  0  0  0  0  0  0  0
  140.8320   73.3505  220.9627 H   0  0  0  0  0  0  0  0  0  0  0  0
  141.6944   74.9262  220.9627 H   0  0  0  0  0  0  0  0  0  0  0  0
  137.6861   76.4213  222.0812 H   0  0  0  0  0  0  0  0  0  0  0  0
  137.6312   78.8378  222.6975 H   0  0  0  0  0  0  0  0  0  0  0  0
  138.8449   80.8882  222.9601 H   0  0  0  0  0  0  0  0  0  0  0  0
  139.8342   80.5094  224.4365 H   0  0  0  0  0  0  0  0  0  0  0  0
  1  2  1  0
  2  3  1  0
  3  4  1  0
  4  5  1  0
  5  6  1  0
  6  7  2  0
  7  8  1  0
  8  9  2  0
  9 10  1  0
 10 11  1  0
 11 12  1  0
 10 13  2  0
  3 14  1  0
 14 15  1  0
 15 16  1  0
 16 17  1  0
 17 18  2  0
 18 19  1  0
 19 20  1  0
 20 21  1  0
 19 22  2  0
 22 23  1  0
 23 24  2  0
 24 25  1  0
 13  6  1  0
 25 14  1  0
 24 17  1  0
  1 26  1  0
  1 27  1  0
  1 28  1  0
  2 29  1  0
  2 30  1  0
  4 31  1  0
  4 32  1  0
  5 33  1  0
  5 34  1  0
  7 35  1  0
  8 36  1  0
  9 37  1  0
 12 38  1  0
 12 39  1  0
 12 40  1  0
 13 41  1  0
 14 42  1  1
 15 43  1  0
 15 44  1  0
 16 45  1  0
 16 46  1  0
 18 47  1  0
 21 48  1  0
 21 49  1  0
 21 50  1  0
 22 51  1  0
 23 52  1  0
 25 53  1  0
 25 54  1  0
M  END
>  <UniqueID>  (50) 
27

>  <SMILES>  (50) 
CCN(CCc1cccc(OC)c1)[C@@H]1CCc2cc(OC)ccc2C1

>  <Energy>  (50) 
62.05239928664439

>  <Genealogy>  (50) 
CCN(CCc1cccc(OC)c1)[C@@H]1CCc2cc(OC)ccc2C1 (chirality)
CCN(CCc1cccc(OC)c1)[C@@H]1CCc2cc(OC)ccc2C1 (3D coordinates assigned)
CCN(CCc1cccc(OC)c1)[C@@H]1CCc2cc(OC)ccc2C1 (nonaromatic ring conformer: 62.05239928664439 kcal/mol)

>  <smiles>  (50) 
CCN(CCc1cccc(OC)c1)C1CCc2cc(OC)ccc2C1

>  <score_type>  (50) 
oracle

>  <origin>  (50) 
autodockgpu

>  <m_score__min__energy>  (50) 
-5.7599999999999998

>  <m_primary>  (50) 
energy

>  <meeko>  (50) 
{"free_energy": -4.92, "intermolecular_energy": -7.01, "internal_energy": -2.35, "cluster_size": 18, "cluster_id": 1, "rank_in_cluster": 13}

>  <energy>  (50) 
-5.04

>  <cluster_rmsd>  (50) 
0.86

>  <rmsd>  (50) 
270.05

>  <cluster>  (50) 
1

$$$$
MXOKLQPDPZBAAI-HXUWFJFHNA-N
     RDKit          3D

 54 56  0  0  0  0  0  0  0  0999 V2000
  138.3990   80.3600  222.8480 C   0  0  0  0  0  0  0  0  0  0  0  0
  139.2470   79.3050  223.5660 C   0  0  0  0  0  0  0  0  0  0  0  0
  140.2180   78.6070  222.6870 N   0  0  0  0  0  0  0  0  0  0  0  0
  141.5090   78.2800  223.3410 C   0  0  0  0  0  0  0  0  0  0  0  0
  142.5500   79.3930  223.1390 C   0  0  0  0  0  0  0  0  0  0  0  0
  142.0710   80.4460  222.1750 C   0  0  0  0  0  0  0  0  0  0  0  0
  141.5720   81.6690  222.6520 C   0  0  0  0  0  0  0  0  0  0  0  0
  141.1170   82.6400  221.7570 C   0  0  0  0  0  0  0  0  0  0  0  0
  141.1750   82.4060  220.3800 C   0  0  0  0  0  0  0  0  0  0  0  0
  141.6870   81.2020  219.8850 C   0  0  0  0  0  0  0  0  0  0  0  0
  141.7450   81.0230  218.4950 O   0  0  0  0  0  0  0  0  0  0  0  0
  142.5810   80.0740  217.8410 C   0  0  0  0  0  0  0  0  0  0  0  0
  142.1280   80.2170  220.7910 C   0  0  0  0  0  0  0  0  0  0  0  0
  139.6190   77.5530  221.8190 C   0  0  2  0  0  0  0  0  0  0  0  0
  139.5990   76.1260  222.4740 C   0  0  0  0  0  0  0  0  0  0  0  0
  140.1450   75.0040  221.5750 C   0  0  0  0  0  0  0  0  0  0  0  0
  141.4140   75.4330  220.8940 C   0  0  0  0  0  0  0  0  0  0  0  0
  142.5170   74.5710  220.7910 C   0  0  0  0  0  0  0  0  0  0  0  0
  143.6690   74.9720  220.1010 C   0  0  0  0  0  0  0  0  0  0  0  0
  144.7510   74.0830  220.0410 O   0  0  0  0  0  0  0  0  0  0  0  0
  145.3360   73.4520  221.1760 C   0  0  0  0  0  0  0  0  0  0  0  0
  143.6980   76.2390  219.4870 C   0  0  0  0  0  0  0  0  0  0  0  0
  142.5930   77.0900  219.5750 C   0  0  0  0  0  0  0  0  0  0  0  0
  141.4620   76.7020  220.3020 C   0  0  0  0  0  0  0  0  0  0  0  0
  140.2610   77.5990  220.4080 C   0  0  0  0  0  0  0  0  0  0  0  0
  137.8916   80.9913  223.5924 H   0  0  0  0  0  0  0  0  0  0  0  0
  139.0483   80.9858  222.2181 H   0  0  0  0  0  0  0  0  0  0  0  0
  137.6483   79.8604  222.2181 H   0  0  0  0  0  0  0  0  0  0  0  0
  139.8062   79.8018  224.3725 H   0  0  0  0  0  0  0  0  0  0  0  0
  138.5510   78.5398  223.9403 H   0  0  0  0  0  0  0  0  0  0  0  0
  141.3376   78.1443  224.4191 H   0  0  0  0  0  0  0  0  0  0  0  0
  141.9001   77.3592  222.8836 H   0  0  0  0  0  0  0  0  0  0  0  0
  142.7553   79.8675  224.1099 H   0  0  0  0  0  0  0  0  0  0  0  0
  143.4583   78.9362  222.7191 H   0  0  0  0  0  0  0  0  0  0  0  0
  141.5394   81.8629  223.7343 H   0  0  0  0  0  0  0  0  0  0  0  0
  140.7125   83.5901  222.1362 H   0  0  0  0  0  0  0  0  0  0  0  0
  140.8152   83.1747  219.6802 H   0  0  0  0  0  0  0  0  0  0  0  0
  143.1112   79.4722  218.5938 H   0  0  0  0  0  0  0  0  0  0  0  0
  141.9649   79.4146  217.2120 H   0  0  0  0  0  0  0  0  0  0  0  0
  143.3128   80.6020  217.2120 H   0  0  0  0  0  0  0  0  0  0  0  0
  142.5197   79.2619  220.4112 H   0  0  0  0  0  0  0  0  0  0  0  0
  138.5498   77.7823  221.6999 H   0  0  0  0  0  0  0  0  0  0  0  0
  140.2078   76.1596  223.3895 H   0  0  0  0  0  0  0  0  0  0  0  0
  138.5433   75.8856  222.6681 H   0  0  0  0  0  0  0  0  0  0  0  0
  140.3493   74.1159  222.1911 H   0  0  0  0  0  0  0  0  0  0  0  0
  139.3937   74.7729  220.8055 H   0  0  0  0  0  0  0  0  0  0  0  0
  142.4769   73.5744  221.2548 H   0  0  0  0  0  0  0  0  0  0  0  0
  144.9247   73.8956  222.0947 H   0  0  0  0  0  0  0  0  0  0  0  0
  145.1089   72.3759  221.1549 H   0  0  0  0  0  0  0  0  0  0  0  0
  146.4262   73.5971  221.1549 H   0  0  0  0  0  0  0  0  0  0  0  0
  144.5941   76.5602  218.9358 H   0  0  0  0  0  0  0  0  0  0  0  0
  142.6123   78.0677  219.0713 H   0  0  0  0  0  0  0  0  0  0  0  0
  140.5705   78.6324  220.1930 H   0  0  0  0  0  0  0  0  0  0  0  0
  139.5114   77.2471  219.6840 H   0  0  0  0  0  0  0  0  0  0  0  0
  1  2  1  0
  2  3  1  0
  3  4  1  0
  4  5  1  0
  5  6  1  0
  6  7  2  0
  7  8  1  0
  8  9  2  0
  9 10  1  0
 10 11  1  0
 11 12  1  0
 10 13  2  0
  3 14  1  0
 14 15  1  0
 15 16  1  0
 16 17  1  0
 17 18  2  0
 18 19  1  0
 19 20  1  0
 20 21  1  0
 19 22  2  0
 22 23  1  0
 23 24  2  0
 24 25  1  0
 13  6  1  0
 25 14  1  0
 24 17  1  0
  1 26  1  0
  1 27  1  0
  1 28  1  0
  2 29  1  0
  2 30  1  0
  4 31  1  0
  4 32  1  0
  5 33  1  0
  5 34  1  0
  7 35  1  0
  8 36  1  0
  9 37  1  0
 12 38  1  0
 12 39  1  0
 12 40  1  0
 13 41  1  0
 14 42  1  6
 15 43  1  0
 15 44  1  0
 16 45  1  0
 16 46  1  0
 18 47  1  0
 21 48  1  0
 21 49  1  0
 21 50  1  0
 22 51  1  0
 23 52  1  0
 25 53  1  0
 25 54  1  0
M  END
>  <UniqueID>  (51) 
27

>  <SMILES>  (51) 
CCN(CCc1cccc(OC)c1)[C@@H]1CCc2cc(OC)ccc2C1

>  <Energy>  (51) 
62.05239928664439

>  <Genealogy>  (51) 
CCN(CCc1cccc(OC)c1)[C@@H]1CCc2cc(OC)ccc2C1 (chirality)
CCN(CCc1cccc(OC)c1)[C@@H]1CCc2cc(OC)ccc2C1 (3D coordinates assigned)
CCN(CCc1cccc(OC)c1)[C@@H]1CCc2cc(OC)ccc2C1 (nonaromatic ring conformer: 62.05239928664439 kcal/mol)

>  <smiles>  (51) 
CCN(CCc1cccc(OC)c1)C1CCc2cc(OC)ccc2C1

>  <score_type>  (51) 
oracle

>  <origin>  (51) 
autodockgpu

>  <m_score__min__energy>  (51) 
-5.7599999999999998

>  <m_primary>  (51) 
energy

>  <meeko>  (51) 
{"free_energy": -5.58, "intermolecular_energy": -7.67, "internal_energy": -1.84, "cluster_size": 2, "cluster_id": 2, "rank_in_cluster": 2}

>  <energy>  (51) 
-5.01

>  <cluster_rmsd>  (51) 
1.1

>  <rmsd>  (51) 
270.12

>  <cluster>  (51) 
1

$$$$
MXOKLQPDPZBAAI-HXUWFJFHNA-N
     RDKit          3D

 54 56  0  0  0  0  0  0  0  0999 V2000
  138.3900   80.4280  222.9780 C   0  0  0  0  0  0  0  0  0  0  0  0
  139.2620   79.3530  223.6360 C   0  0  0  0  0  0  0  0  0  0  0  0
  140.2040   78.6830  222.7050 N   0  0  0  0  0  0  0  0  0  0  0  0
  141.4980   78.2940  223.3190 C   0  0  0  0  0  0  0  0  0  0  0  0
  142.5800   79.3620  223.0920 C   0  0  0  0  0  0  0  0  0  0  0  0
  142.1180   80.4450  222.1530 C   0  0  0  0  0  0  0  0  0  0  0  0
  141.6330   81.6610  222.6600 C   0  0  0  0  0  0  0  0  0  0  0  0
  141.1930   82.6600  221.7870 C   0  0  0  0  0  0  0  0  0  0  0  0
  141.2530   82.4600  220.4060 C   0  0  0  0  0  0  0  0  0  0  0  0
  141.7520   81.2630  219.8820 C   0  0  0  0  0  0  0  0  0  0  0  0
  141.8130   81.1180  218.4880 O   0  0  0  0  0  0  0  0  0  0  0  0
  142.5620   80.1100  217.8170 C   0  0  0  0  0  0  0  0  0  0  0  0
  142.1780   80.2500  220.7640 C   0  0  0  0  0  0  0  0  0  0  0  0
  139.5680   77.6890  221.7930 C   0  0  2  0  0  0  0  0  0  0  0  0
  139.4400   76.2510  222.4110 C   0  0  0  0  0  0  0  0  0  0  0  0
  139.9440   75.1180  221.5010 C   0  0  0  0  0  0  0  0  0  0  0  0
  141.2580   75.4830  220.8690 C   0  0  0  0  0  0  0  0  0  0  0  0
  142.3080   74.5570  220.7770 C   0  0  0  0  0  0  0  0  0  0  0  0
  143.5030   74.9010  220.1320 C   0  0  0  0  0  0  0  0  0  0  0  0
  144.5300   73.9470  220.0830 O   0  0  0  0  0  0  0  0  0  0  0  0
  145.7270   74.0150  220.8510 C   0  0  0  0  0  0  0  0  0  0  0  0
  143.6300   76.1770  219.5520 C   0  0  0  0  0  0  0  0  0  0  0  0
  142.5770   77.0930  219.6280 C   0  0  0  0  0  0  0  0  0  0  0  0
  141.4020   76.7600  220.3110 C   0  0  0  0  0  0  0  0  0  0  0  0
  140.2550   77.7270  220.4040 C   0  0  0  0  0  0  0  0  0  0  0  0
  137.9009   81.0310  223.7572 H   0  0  0  0  0  0  0  0  0  0  0  0
  139.0192   81.0781  222.3523 H   0  0  0  0  0  0  0  0  0  0  0  0
  137.6241   79.9465  222.3523 H   0  0  0  0  0  0  0  0  0  0  0  0
  139.8472   79.8263  224.4382 H   0  0  0  0  0  0  0  0  0  0  0  0
  138.5792   78.5759  224.0099 H   0  0  0  0  0  0  0  0  0  0  0  0
  141.3526   78.1585  224.4009 H   0  0  0  0  0  0  0  0  0  0  0  0
  141.8344   77.3597  222.8459 H   0  0  0  0  0  0  0  0  0  0  0  0
  142.8375   79.8174  224.0596 H   0  0  0  0  0  0  0  0  0  0  0  0
  143.4526   78.8694  222.6382 H   0  0  0  0  0  0  0  0  0  0  0  0
  141.5992   81.8280  223.7467 H   0  0  0  0  0  0  0  0  0  0  0  0
  140.7988   83.6053  222.1883 H   0  0  0  0  0  0  0  0  0  0  0  0
  140.9049   83.2504  219.7248 H   0  0  0  0  0  0  0  0  0  0  0  0
  143.0464   79.4581  218.5589 H   0  0  0  0  0  0  0  0  0  0  0  0
  141.8882   79.5109  217.1869 H   0  0  0  0  0  0  0  0  0  0  0  0
  143.3300   80.5822  217.1869 H   0  0  0  0  0  0  0  0  0  0  0  0
  142.5600   79.3002  220.3616 H   0  0  0  0  0  0  0  0  0  0  0  0
  138.5194   77.9880  221.6480 H   0  0  0  0  0  0  0  0  0  0  0  0
  140.0207   76.2256  223.3449 H   0  0  0  0  0  0  0  0  0  0  0  0
  138.3659   76.0723  222.5671 H   0  0  0  0  0  0  0  0  0  0  0  0
  140.0739   74.2050  222.1007 H   0  0  0  0  0  0  0  0  0  0  0  0
  139.2044   74.9516  220.7039 H   0  0  0  0  0  0  0  0  0  0  0  0
  142.1921   73.5543  221.2142 H   0  0  0  0  0  0  0  0  0  0  0  0
  145.4768   74.0008  221.9221 H   0  0  0  0  0  0  0  0  0  0  0  0
  146.3655   73.1517  220.6121 H   0  0  0  0  0  0  0  0  0  0  0  0
  146.2636   74.9451  220.6121 H   0  0  0  0  0  0  0  0  0  0  0  0
  144.5615   76.4545  219.0369 H   0  0  0  0  0  0  0  0  0  0  0  0
  142.6723   78.0788  219.1494 H   0  0  0  0  0  0  0  0  0  0  0  0
  140.6336   78.7440  220.2238 H   0  0  0  0  0  0  0  0  0  0  0  0
  139.5080   77.4383  219.6499 H   0  0  0  0  0  0  0  0  0  0  0  0
  1  2  1  0
  2  3  1  0
  3  4  1  0
  4  5  1  0
  5  6  1  0
  6  7  2  0
  7  8  1  0
  8  9  2  0
  9 10  1  0
 10 11  1  0
 11 12  1  0
 10 13  2  0
  3 14  1  0
 14 15  1  0
 15 16  1  0
 16 17  1  0
 17 18  2  0
 18 19  1  0
 19 20  1  0
 20 21  1  0
 19 22  2  0
 22 23  1  0
 23 24  2  0
 24 25  1  0
 13  6  1  0
 25 14  1  0
 24 17  1  0
  1 26  1  0
  1 27  1  0
  1 28  1  0
  2 29  1  0
  2 30  1  0
  4 31  1  0
  4 32  1  0
  5 33  1  0
  5 34  1  0
  7 35  1  0
  8 36  1  0
  9 37  1  0
 12 38  1  0
 12 39  1  0
 12 40  1  0
 13 41  1  0
 14 42  1  6
 15 43  1  0
 15 44  1  0
 16 45  1  0
 16 46  1  0
 18 47  1  0
 21 48  1  0
 21 49  1  0
 21 50  1  0
 22 51  1  0
 23 52  1  0
 25 53  1  0
 25 54  1  0
M  END
>  <UniqueID>  (52) 
27

>  <SMILES>  (52) 
CCN(CCc1cccc(OC)c1)[C@@H]1CCc2cc(OC)ccc2C1

>  <Energy>  (52) 
62.05239928664439

>  <Genealogy>  (52) 
CCN(CCc1cccc(OC)c1)[C@@H]1CCc2cc(OC)ccc2C1 (chirality)
CCN(CCc1cccc(OC)c1)[C@@H]1CCc2cc(OC)ccc2C1 (3D coordinates assigned)
CCN(CCc1cccc(OC)c1)[C@@H]1CCc2cc(OC)ccc2C1 (nonaromatic ring conformer: 62.05239928664439 kcal/mol)

>  <smiles>  (52) 
CCN(CCc1cccc(OC)c1)C1CCc2cc(OC)ccc2C1

>  <score_type>  (52) 
oracle

>  <origin>  (52) 
autodockgpu

>  <m_score__min__energy>  (52) 
-5.7599999999999998

>  <m_primary>  (52) 
energy

>  <meeko>  (52) 
{"free_energy": -5.58, "intermolecular_energy": -7.67, "internal_energy": -1.83, "cluster_size": 2, "cluster_id": 2, "rank_in_cluster": 1}

>  <energy>  (52) 
-5.0

>  <cluster_rmsd>  (52) 
0.88

>  <rmsd>  (52) 
270.02

>  <cluster>  (52) 
1

$$$$
MXOKLQPDPZBAAI-HXUWFJFHNA-N
     RDKit          3D

 54 56  0  0  0  0  0  0  0  0999 V2000
  140.3360   83.7360  219.9360 C   0  0  0  0  0  0  0  0  0  0  0  0
  140.9880   83.2000  221.2140 C   0  0  0  0  0  0  0  0  0  0  0  0
  141.0140   81.7190  221.3070 N   0  0  0  0  0  0  0  0  0  0  0  0
  141.8280   81.0540  220.2590 C   0  0  0  0  0  0  0  0  0  0  0  0
  140.9670   80.1640  219.3490 C   0  0  0  0  0  0  0  0  0  0  0  0
  141.7310   78.9710  218.8380 C   0  0  0  0  0  0  0  0  0  0  0  0
  142.1460   78.9160  217.4980 C   0  0  0  0  0  0  0  0  0  0  0  0
  142.8440   77.8030  217.0230 C   0  0  0  0  0  0  0  0  0  0  0  0
  143.1520   76.7480  217.8860 C   0  0  0  0  0  0  0  0  0  0  0  0
  142.7650   76.7940  219.2300 C   0  0  0  0  0  0  0  0  0  0  0  0
  143.1160   75.7200  220.0620 O   0  0  0  0  0  0  0  0  0  0  0  0
  144.1150   74.7560  219.7500 C   0  0  0  0  0  0  0  0  0  0  0  0
  142.0450   77.9090  219.7020 C   0  0  0  0  0  0  0  0  0  0  0  0
  141.1460   81.1900  222.6950 C   0  0  2  0  0  0  0  0  0  0  0  0
  142.4400   80.3320  222.9280 C   0  0  0  0  0  0  0  0  0  0  0  0
  142.1930   78.9780  223.6130 C   0  0  0  0  0  0  0  0  0  0  0  0
  141.0040   78.2820  223.0130 C   0  0  0  0  0  0  0  0  0  0  0  0
  141.0250   76.9080  222.7300 C   0  0  0  0  0  0  0  0  0  0  0  0
  139.8850   76.2700  222.2240 C   0  0  0  0  0  0  0  0  0  0  0  0
  139.9610   74.8990  221.9390 O   0  0  0  0  0  0  0  0  0  0  0  0
  141.1370   74.2380  221.4850 C   0  0  0  0  0  0  0  0  0  0  0  0
  138.7070   77.0170  222.0290 C   0  0  0  0  0  0  0  0  0  0  0  0
  138.6800   78.3810  222.3280 C   0  0  0  0  0  0  0  0  0  0  0  0
  139.8350   79.0230  222.7920 C   0  0  0  0  0  0  0  0  0  0  0  0
  139.8310   80.4890  223.1230 C   0  0  0  0  0  0  0  0  0  0  0  0
  139.5114   84.4139  220.2016 H   0  0  0  0  0  0  0  0  0  0  0  0
  141.0845   84.2833  219.3443 H   0  0  0  0  0  0  0  0  0  0  0  0
  139.9438   82.8957  219.3443 H   0  0  0  0  0  0  0  0  0  0  0  0
  142.0244   83.5666  221.2528 H   0  0  0  0  0  0  0  0  0  0  0  0
  140.3778   83.5595  222.0557 H   0  0  0  0  0  0  0  0  0  0  0  0
  142.3166   81.8247  219.6447 H   0  0  0  0  0  0  0  0  0  0  0  0
  142.5727   80.4158  220.7571 H   0  0  0  0  0  0  0  0  0  0  0  0
  140.0962   79.8097  219.9201 H   0  0  0  0  0  0  0  0  0  0  0  0
  140.6570   80.7652  218.4816 H   0  0  0  0  0  0  0  0  0  0  0  0
  141.9208   79.7522  216.8197 H   0  0  0  0  0  0  0  0  0  0  0  0
  143.1517   77.7570  215.9679 H   0  0  0  0  0  0  0  0  0  0  0  0
  143.7027   75.8749  217.5061 H   0  0  0  0  0  0  0  0  0  0  0  0
  144.5361   74.3497  220.6815 H   0  0  0  0  0  0  0  0  0  0  0  0
  143.6670   73.9402  219.1637 H   0  0  0  0  0  0  0  0  0  0  0  0
  144.9143   75.2328  219.1637 H   0  0  0  0  0  0  0  0  0  0  0  0
  141.7266   77.9482  220.7542 H   0  0  0  0  0  0  0  0  0  0  0  0
  141.2956   82.0467  223.3686 H   0  0  0  0  0  0  0  0  0  0  0  0
  142.9069   80.1422  221.9503 H   0  0  0  0  0  0  0  0  0  0  0  0
  143.0824   80.9129  223.6062 H   0  0  0  0  0  0  0  0  0  0  0  0
  143.0827   78.3435  223.4877 H   0  0  0  0  0  0  0  0  0  0  0  0
  141.9945   79.1553  224.6803 H   0  0  0  0  0  0  0  0  0  0  0  0
  141.9427   76.3278  222.9066 H   0  0  0  0  0  0  0  0  0  0  0  0
  141.7283   73.9056  222.3510 H   0  0  0  0  0  0  0  0  0  0  0  0
  140.8557   73.3658  220.8766 H   0  0  0  0  0  0  0  0  0  0  0  0
  141.7358   74.9317  220.8766 H   0  0  0  0  0  0  0  0  0  0  0  0
  137.8042   76.5239  221.6395 H   0  0  0  0  0  0  0  0  0  0  0  0
  137.7491   78.9526  222.1987 H   0  0  0  0  0  0  0  0  0  0  0  0
  138.9887   80.9675  222.6018 H   0  0  0  0  0  0  0  0  0  0  0  0
  139.7352   80.5884  224.2143 H   0  0  0  0  0  0  0  0  0  0  0  0
  1  2  1  0
  2  3  1  0
  3  4  1  0
  4  5  1  0
  5  6  1  0
  6  7  2  0
  7  8  1  0
  8  9  2  0
  9 10  1  0
 10 11  1  0
 11 12  1  0
 10 13  2  0
  3 14  1  0
 14 15  1  0
 15 16  1  0
 16 17  1  0
 17 18  2  0
 18 19  1  0
 19 20  1  0
 20 21  1  0
 19 22  2  0
 22 23  1  0
 23 24  2  0
 24 25  1  0
 13  6  1  0
 25 14  1  0
 24 17  1  0
  1 26  1  0
  1 27  1  0
  1 28  1  0
  2 29  1  0
  2 30  1  0
  4 31  1  0
  4 32  1  0
  5 33  1  0
  5 34  1  0
  7 35  1  0
  8 36  1  0
  9 37  1  0
 12 38  1  0
 12 39  1  0
 12 40  1  0
 13 41  1  0
 14 42  1  1
 15 43  1  0
 15 44  1  0
 16 45  1  0
 16 46  1  0
 18 47  1  0
 21 48  1  0
 21 49  1  0
 21 50  1  0
 22 51  1  0
 23 52  1  0
 25 53  1  0
 25 54  1  0
M  END
>  <UniqueID>  (53) 
27

>  <SMILES>  (53) 
CCN(CCc1cccc(OC)c1)[C@@H]1CCc2cc(OC)ccc2C1

>  <Energy>  (53) 
62.05239928664439

>  <Genealogy>  (53) 
CCN(CCc1cccc(OC)c1)[C@@H]1CCc2cc(OC)ccc2C1 (chirality)
CCN(CCc1cccc(OC)c1)[C@@H]1CCc2cc(OC)ccc2C1 (3D coordinates assigned)
CCN(CCc1cccc(OC)c1)[C@@H]1CCc2cc(OC)ccc2C1 (nonaromatic ring conformer: 62.05239928664439 kcal/mol)

>  <smiles>  (53) 
CCN(CCc1cccc(OC)c1)C1CCc2cc(OC)ccc2C1

>  <score_type>  (53) 
oracle

>  <origin>  (53) 
autodockgpu

>  <m_score__min__energy>  (53) 
-5.7599999999999998

>  <m_primary>  (53) 
energy

>  <meeko>  (53) 
{"free_energy": -5.61, "intermolecular_energy": -7.7, "internal_energy": -1.83, "cluster_size": 18, "cluster_id": 1, "rank_in_cluster": 4}

>  <energy>  (53) 
-4.92

>  <cluster_rmsd>  (53) 
0.84

>  <rmsd>  (53) 
270.12

>  <cluster>  (53) 
1

$$$$
MXOKLQPDPZBAAI-HXUWFJFHNA-N
     RDKit          3D

 54 56  0  0  0  0  0  0  0  0999 V2000
  139.8150   84.0060  220.8990 C   0  0  0  0  0  0  0  0  0  0  0  0
  141.0720   83.1890  221.2190 C   0  0  0  0  0  0  0  0  0  0  0  0
  140.8300   81.7310  221.3530 N   0  0  0  0  0  0  0  0  0  0  0  0
  141.3830   80.9150  220.2440 C   0  0  0  0  0  0  0  0  0  0  0  0
  140.2800   80.1510  219.4940 C   0  0  0  0  0  0  0  0  0  0  0  0
  140.6370   78.7040  219.2840 C   0  0  0  0  0  0  0  0  0  0  0  0
  139.6650   77.7920  218.8400 C   0  0  0  0  0  0  0  0  0  0  0  0
  139.9950   76.4460  218.6580 C   0  0  0  0  0  0  0  0  0  0  0  0
  141.3000   76.0060  218.8980 C   0  0  0  0  0  0  0  0  0  0  0  0
  142.2860   76.9030  219.3220 C   0  0  0  0  0  0  0  0  0  0  0  0
  143.5850   76.4170  219.5280 O   0  0  0  0  0  0  0  0  0  0  0  0
  143.8870   75.1220  220.0370 C   0  0  0  0  0  0  0  0  0  0  0  0
  141.9460   78.2560  219.5220 C   0  0  0  0  0  0  0  0  0  0  0  0
  141.0140   81.2000  222.7340 C   0  0  2  0  0  0  0  0  0  0  0  0
  142.3540   80.4070  222.9370 C   0  0  0  0  0  0  0  0  0  0  0  0
  142.1880   79.0370  223.6150 C   0  0  0  0  0  0  0  0  0  0  0  0
  141.0250   78.2860  223.0310 C   0  0  0  0  0  0  0  0  0  0  0  0
  141.1110   76.9170  222.7370 C   0  0  0  0  0  0  0  0  0  0  0  0
  139.9950   76.2260  222.2460 C   0  0  0  0  0  0  0  0  0  0  0  0
  140.1360   74.8620  221.9490 O   0  0  0  0  0  0  0  0  0  0  0  0
  139.0660   74.0130  221.5490 C   0  0  0  0  0  0  0  0  0  0  0  0
  138.7780   76.9130  222.0780 C   0  0  0  0  0  0  0  0  0  0  0  0
  138.6880   78.2720  222.3890 C   0  0  0  0  0  0  0  0  0  0  0  0
  139.8170   78.9680  222.8380 C   0  0  0  0  0  0  0  0  0  0  0  0
  139.7440   80.4290  223.1800 C   0  0  0  0  0  0  0  0  0  0  0  0
  139.3328   84.3194  221.8367 H   0  0  0  0  0  0  0  0  0  0  0  0
  140.0945   84.8955  220.3153 H   0  0  0  0  0  0  0  0  0  0  0  0
  139.1156   83.3894  220.3153 H   0  0  0  0  0  0  0  0  0  0  0  0
  141.8006   83.3452  220.4098 H   0  0  0  0  0  0  0  0  0  0  0  0
  141.4384   83.5404  222.1948 H   0  0  0  0  0  0  0  0  0  0  0  0
  141.9004   81.5795  219.5364 H   0  0  0  0  0  0  0  0  0  0  0  0
  142.0778   80.1786  220.6741 H   0  0  0  0  0  0  0  0  0  0  0  0
  139.3499   80.2057  220.0788 H   0  0  0  0  0  0  0  0  0  0  0  0
  140.1572   80.6169  218.5051 H   0  0  0  0  0  0  0  0  0  0  0  0
  138.6412   78.1382  218.6350 H   0  0  0  0  0  0  0  0  0  0  0  0
  139.2269   75.7321  218.3256 H   0  0  0  0  0  0  0  0  0  0  0  0
  141.5536   74.9456  218.7522 H   0  0  0  0  0  0  0  0  0  0  0  0
  143.8806   75.1496  221.1366 H   0  0  0  0  0  0  0  0  0  0  0  0
  143.1322   74.4040  219.6838 H   0  0  0  0  0  0  0  0  0  0  0  0
  144.8815   74.8120  219.6838 H   0  0  0  0  0  0  0  0  0  0  0  0
  142.7119   78.9662  219.8671 H   0  0  0  0  0  0  0  0  0  0  0  0
  141.1320   82.0587  223.4113 H   0  0  0  0  0  0  0  0  0  0  0  0
  142.8123   80.2484  221.9497 H   0  0  0  0  0  0  0  0  0  0  0  0
  142.9783   81.0147  223.6085 H   0  0  0  0  0  0  0  0  0  0  0  0
  143.1062   78.4492  223.4685 H   0  0  0  0  0  0  0  0  0  0  0  0
  142.0002   79.1964  224.6871 H   0  0  0  0  0  0  0  0  0  0  0  0
  142.0599   76.3828  222.8928 H   0  0  0  0  0  0  0  0  0  0  0  0
  138.5620   73.6131  222.4412 H   0  0  0  0  0  0  0  0  0  0  0  0
  138.3462   74.5884  220.9483 H   0  0  0  0  0  0  0  0  0  0  0  0
  139.4628   73.1813  220.9483 H   0  0  0  0  0  0  0  0  0  0  0  0
  137.8943   76.3777  221.7004 H   0  0  0  0  0  0  0  0  0  0  0  0
  137.7274   78.7969  222.2808 H   0  0  0  0  0  0  0  0  0  0  0  0
  138.8690   80.8671  222.6775 H   0  0  0  0  0  0  0  0  0  0  0  0
  139.6631   80.5159  224.2736 H   0  0  0  0  0  0  0  0  0  0  0  0
  1  2  1  0
  2  3  1  0
  3  4  1  0
  4  5  1  0
  5  6  1  0
  6  7  2  0
  7  8  1  0
  8  9  2  0
  9 10  1  0
 10 11  1  0
 11 12  1  0
 10 13  2  0
  3 14  1  0
 14 15  1  0
 15 16  1  0
 16 17  1  0
 17 18  2  0
 18 19  1  0
 19 20  1  0
 20 21  1  0
 19 22  2  0
 22 23  1  0
 23 24  2  0
 24 25  1  0
 13  6  1  0
 25 14  1  0
 24 17  1  0
  1 26  1  0
  1 27  1  0
  1 28  1  0
  2 29  1  0
  2 30  1  0
  4 31  1  0
  4 32  1  0
  5 33  1  0
  5 34  1  0
  7 35  1  0
  8 36  1  0
  9 37  1  0
 12 38  1  0
 12 39  1  0
 12 40  1  0
 13 41  1  0
 14 42  1  1
 15 43  1  0
 15 44  1  0
 16 45  1  0
 16 46  1  0
 18 47  1  0
 21 48  1  0
 21 49  1  0
 21 50  1  0
 22 51  1  0
 23 52  1  0
 25 53  1  0
 25 54  1  0
M  END
>  <UniqueID>  (54) 
27

>  <SMILES>  (54) 
CCN(CCc1cccc(OC)c1)[C@@H]1CCc2cc(OC)ccc2C1

>  <Energy>  (54) 
62.05239928664439

>  <Genealogy>  (54) 
CCN(CCc1cccc(OC)c1)[C@@H]1CCc2cc(OC)ccc2C1 (chirality)
CCN(CCc1cccc(OC)c1)[C@@H]1CCc2cc(OC)ccc2C1 (3D coordinates assigned)
CCN(CCc1cccc(OC)c1)[C@@H]1CCc2cc(OC)ccc2C1 (nonaromatic ring conformer: 62.05239928664439 kcal/mol)

>  <smiles>  (54) 
CCN(CCc1cccc(OC)c1)C1CCc2cc(OC)ccc2C1

>  <score_type>  (54) 
oracle

>  <origin>  (54) 
autodockgpu

>  <m_score__min__energy>  (54) 
-5.7599999999999998

>  <m_primary>  (54) 
energy

>  <meeko>  (54) 
{"free_energy": -4.87, "intermolecular_energy": -6.96, "internal_energy": -2.35, "cluster_size": 18, "cluster_id": 1, "rank_in_cluster": 16}

>  <energy>  (54) 
-4.92

>  <cluster_rmsd>  (54) 
1.11

>  <rmsd>  (54) 
270.17

>  <cluster>  (54) 
1

$$$$
MXOKLQPDPZBAAI-HXUWFJFHNA-N
     RDKit          3D

 54 56  0  0  0  0  0  0  0  0999 V2000
  138.4620   83.1050  221.5610 C   0  0  0  0  0  0  0  0  0  0  0  0
  139.9920   83.0840  221.4710 C   0  0  0  0  0  0  0  0  0  0  0  0
  140.5780   81.7220  221.4250 N   0  0  0  0  0  0  0  0  0  0  0  0
  141.5310   81.5040  220.3080 C   0  0  0  0  0  0  0  0  0  0  0  0
  140.8540   80.8290  219.1050 C   0  0  0  0  0  0  0  0  0  0  0  0
  141.5820   79.5850  218.6700 C   0  0  0  0  0  0  0  0  0  0  0  0
  142.0250   79.4500  217.3440 C   0  0  0  0  0  0  0  0  0  0  0  0
  142.6900   78.2900  216.9400 C   0  0  0  0  0  0  0  0  0  0  0  0
  142.9360   77.2670  217.8590 C   0  0  0  0  0  0  0  0  0  0  0  0
  142.5200   77.3910  219.1890 C   0  0  0  0  0  0  0  0  0  0  0  0
  142.8090   76.3460  220.0790 O   0  0  0  0  0  0  0  0  0  0  0  0
  143.7260   75.2910  219.8080 C   0  0  0  0  0  0  0  0  0  0  0  0
  141.8340   78.5540  219.5900 C   0  0  0  0  0  0  0  0  0  0  0  0
  140.9660   81.1720  222.7560 C   0  0  2  0  0  0  0  0  0  0  0  0
  142.3200   80.3770  222.7440 C   0  0  0  0  0  0  0  0  0  0  0  0
  142.2560   78.9980  223.4210 C   0  0  0  0  0  0  0  0  0  0  0  0
  141.0180   78.2540  223.0080 C   0  0  0  0  0  0  0  0  0  0  0  0
  141.0560   76.8900  222.6850 C   0  0  0  0  0  0  0  0  0  0  0  0
  139.8790   76.2040  222.3580 C   0  0  0  0  0  0  0  0  0  0  0  0
  139.9720   74.8450  222.0240 O   0  0  0  0  0  0  0  0  0  0  0  0
  140.8250   74.3230  221.0110 C   0  0  0  0  0  0  0  0  0  0  0  0
  138.6510   76.8930  222.3840 C   0  0  0  0  0  0  0  0  0  0  0  0
  138.6100   78.2480  222.7230 C   0  0  0  0  0  0  0  0  0  0  0  0
  139.7950   78.9380  223.0070 C   0  0  0  0  0  0  0  0  0  0  0  0
  139.7760   80.3950  223.3760 C   0  0  0  0  0  0  0  0  0  0  0  0
  138.1569   83.1092  222.6178 H   0  0  0  0  0  0  0  0  0  0  0  0
  138.0779   84.0085  221.0649 H   0  0  0  0  0  0  0  0  0  0  0  0
  138.0532   82.2124  221.0649 H   0  0  0  0  0  0  0  0  0  0  0  0
  140.2916   83.6198  220.5582 H   0  0  0  0  0  0  0  0  0  0  0  0
  140.3699   83.5608  222.3874 H   0  0  0  0  0  0  0  0  0  0  0  0
  141.9354   82.4762  219.9899 H   0  0  0  0  0  0  0  0  0  0  0  0
  142.3324   80.8411  220.6662 H   0  0  0  0  0  0  0  0  0  0  0  0
  139.8246   80.5587  219.3829 H   0  0  0  0  0  0  0  0  0  0  0  0
  140.8672   81.5401  218.2659 H   0  0  0  0  0  0  0  0  0  0  0  0
  141.8477   80.2602  216.6215 H   0  0  0  0  0  0  0  0  0  0  0  0
  143.0206   78.1818  215.8964 H   0  0  0  0  0  0  0  0  0  0  0  0
  143.4611   76.3566  217.5343 H   0  0  0  0  0  0  0  0  0  0  0  0
  144.0916   74.8703  220.7563 H   0  0  0  0  0  0  0  0  0  0  0  0
  143.2195   74.5046  219.2291 H   0  0  0  0  0  0  0  0  0  0  0  0
  144.5753   75.6830  219.2291 H   0  0  0  0  0  0  0  0  0  0  0  0
  141.4932   78.6555  220.6309 H   0  0  0  0  0  0  0  0  0  0  0  0
  141.1856   82.0206  223.4206 H   0  0  0  0  0  0  0  0  0  0  0  0
  142.6239   80.2318  221.6968 H   0  0  0  0  0  0  0  0  0  0  0  0
  143.0394   80.9759  223.3217 H   0  0  0  0  0  0  0  0  0  0  0  0
  143.1412   78.4130  223.1307 H   0  0  0  0  0  0  0  0  0  0  0  0
  142.2312   79.1429  224.5111 H   0  0  0  0  0  0  0  0  0  0  0  0
  142.0170   76.3547  222.6884 H   0  0  0  0  0  0  0  0  0  0  0  0
  141.6742   73.8033  221.4787 H   0  0  0  0  0  0  0  0  0  0  0  0
  140.2611   73.6151  220.3858 H   0  0  0  0  0  0  0  0  0  0  0  0
  141.1988   75.1472  220.3858 H   0  0  0  0  0  0  0  0  0  0  0  0
  137.7200   76.3621  222.1363 H   0  0  0  0  0  0  0  0  0  0  0  0
  137.6448   78.7738  222.7669 H   0  0  0  0  0  0  0  0  0  0  0  0
  138.8365   80.8394  223.0156 H   0  0  0  0  0  0  0  0  0  0  0  0
  139.8592   80.4672  224.4705 H   0  0  0  0  0  0  0  0  0  0  0  0
  1  2  1  0
  2  3  1  0
  3  4  1  0
  4  5  1  0
  5  6  1  0
  6  7  2  0
  7  8  1  0
  8  9  2  0
  9 10  1  0
 10 11  1  0
 11 12  1  0
 10 13  2  0
  3 14  1  0
 14 15  1  0
 15 16  1  0
 16 17  1  0
 17 18  2  0
 18 19  1  0
 19 20  1  0
 20 21  1  0
 19 22  2  0
 22 23  1  0
 23 24  2  0
 24 25  1  0
 13  6  1  0
 25 14  1  0
 24 17  1  0
  1 26  1  0
  1 27  1  0
  1 28  1  0
  2 29  1  0
  2 30  1  0
  4 31  1  0
  4 32  1  0
  5 33  1  0
  5 34  1  0
  7 35  1  0
  8 36  1  0
  9 37  1  0
 12 38  1  0
 12 39  1  0
 12 40  1  0
 13 41  1  0
 14 42  1  1
 15 43  1  0
 15 44  1  0
 16 45  1  0
 16 46  1  0
 18 47  1  0
 21 48  1  0
 21 49  1  0
 21 50  1  0
 22 51  1  0
 23 52  1  0
 25 53  1  0
 25 54  1  0
M  END
>  <UniqueID>  (55) 
27

>  <SMILES>  (55) 
CCN(CCc1cccc(OC)c1)[C@@H]1CCc2cc(OC)ccc2C1

>  <Energy>  (55) 
62.05239928664439

>  <Genealogy>  (55) 
CCN(CCc1cccc(OC)c1)[C@@H]1CCc2cc(OC)ccc2C1 (chirality)
CCN(CCc1cccc(OC)c1)[C@@H]1CCc2cc(OC)ccc2C1 (3D coordinates assigned)
CCN(CCc1cccc(OC)c1)[C@@H]1CCc2cc(OC)ccc2C1 (nonaromatic ring conformer: 62.05239928664439 kcal/mol)

>  <smiles>  (55) 
CCN(CCc1cccc(OC)c1)C1CCc2cc(OC)ccc2C1

>  <score_type>  (55) 
oracle

>  <origin>  (55) 
autodockgpu

>  <m_score__min__energy>  (55) 
-5.7599999999999998

>  <m_primary>  (55) 
energy

>  <meeko>  (55) 
{"free_energy": -5.58, "intermolecular_energy": -7.67, "internal_energy": -1.83, "cluster_size": 18, "cluster_id": 1, "rank_in_cluster": 5}

>  <energy>  (55) 
-4.9

>  <cluster_rmsd>  (55) 
1.14

>  <rmsd>  (55) 
270.15

>  <cluster>  (55) 
1

$$$$
MXOKLQPDPZBAAI-HXUWFJFHNA-N
     RDKit          3D

 54 56  0  0  0  0  0  0  0  0999 V2000
  140.6680   83.7380  219.7570 C   0  0  0  0  0  0  0  0  0  0  0  0
  140.8690   83.2100  221.1820 C   0  0  0  0  0  0  0  0  0  0  0  0
  140.8800   81.7300  221.2850 N   0  0  0  0  0  0  0  0  0  0  0  0
  141.6290   81.0470  220.2010 C   0  0  0  0  0  0  0  0  0  0  0  0
  140.6850   80.4210  219.1620 C   0  0  0  0  0  0  0  0  0  0  0  0
  140.9300   78.9460  218.9910 C   0  0  0  0  0  0  0  0  0  0  0  0
  139.8900   78.0980  218.5770 C   0  0  0  0  0  0  0  0  0  0  0  0
  140.1160   76.7270  218.4320 C   0  0  0  0  0  0  0  0  0  0  0  0
  141.3850   76.1960  218.6770 C   0  0  0  0  0  0  0  0  0  0  0  0
  142.4390   77.0270  219.0710 C   0  0  0  0  0  0  0  0  0  0  0  0
  143.6990   76.4500  219.2840 O   0  0  0  0  0  0  0  0  0  0  0  0
  143.9070   75.1700  219.8720 C   0  0  0  0  0  0  0  0  0  0  0  0
  142.2040   78.4070  219.2350 C   0  0  0  0  0  0  0  0  0  0  0  0
  141.0750   81.2090  222.6690 C   0  0  2  0  0  0  0  0  0  0  0  0
  142.3940   80.3760  222.8530 C   0  0  0  0  0  0  0  0  0  0  0  0
  142.1990   79.0210  223.5520 C   0  0  0  0  0  0  0  0  0  0  0  0
  141.0010   78.3000  223.0010 C   0  0  0  0  0  0  0  0  0  0  0  0
  141.0370   76.9260  222.7220 C   0  0  0  0  0  0  0  0  0  0  0  0
  139.8910   76.2650  222.2630 C   0  0  0  0  0  0  0  0  0  0  0  0
  139.9820   74.8940  221.9800 O   0  0  0  0  0  0  0  0  0  0  0  0
  141.0470   74.2940  221.2500 C   0  0  0  0  0  0  0  0  0  0  0  0
  138.6920   76.9880  222.1120 C   0  0  0  0  0  0  0  0  0  0  0  0
  138.6510   78.3530  222.4070 C   0  0  0  0  0  0  0  0  0  0  0  0
  139.8110   79.0180  222.8240 C   0  0  0  0  0  0  0  0  0  0  0  0
  139.7910   80.4850  223.1490 C   0  0  0  0  0  0  0  0  0  0  0  0
  140.2769   84.7653  219.7984 H   0  0  0  0  0  0  0  0  0  0  0  0
  141.6308   83.7333  219.2250 H   0  0  0  0  0  0  0  0  0  0  0  0
  139.9520   83.0943  219.2250 H   0  0  0  0  0  0  0  0  0  0  0  0
  141.8305   83.5894  221.5583 H   0  0  0  0  0  0  0  0  0  0  0  0
  140.0115   83.5622  221.7741 H   0  0  0  0  0  0  0  0  0  0  0  0
  142.2758   81.7809  219.6980 H   0  0  0  0  0  0  0  0  0  0  0  0
  142.2241   80.2396  220.6527 H   0  0  0  0  0  0  0  0  0  0  0  0
  139.6460   80.5723  219.4900 H   0  0  0  0  0  0  0  0  0  0  0  0
  140.8733   80.9101  218.1949 H   0  0  0  0  0  0  0  0  0  0  0  0
  138.8940   78.5147  218.3662 H   0  0  0  0  0  0  0  0  0  0  0  0
  139.2935   76.0644  218.1245 H   0  0  0  0  0  0  0  0  0  0  0  0
  141.5565   75.1159  218.5591 H   0  0  0  0  0  0  0  0  0  0  0  0
  143.8919   75.2631  220.9679 H   0  0  0  0  0  0  0  0  0  0  0  0
  143.1084   74.4850  219.5511 H   0  0  0  0  0  0  0  0  0  0  0  0
  144.8814   74.7731  219.5511 H   0  0  0  0  0  0  0  0  0  0  0  0
  143.0238   79.0664  219.5562 H   0  0  0  0  0  0  0  0  0  0  0  0
  141.2335   82.0701  223.3349 H   0  0  0  0  0  0  0  0  0  0  0  0
  142.8250   80.1906  221.8581 H   0  0  0  0  0  0  0  0  0  0  0  0
  143.0525   80.9715  223.5024 H   0  0  0  0  0  0  0  0  0  0  0  0
  143.0951   78.4026  223.3949 H   0  0  0  0  0  0  0  0  0  0  0  0
  142.0383   79.1996  224.6255 H   0  0  0  0  0  0  0  0  0  0  0  0
  141.9717   76.3638  222.8647 H   0  0  0  0  0  0  0  0  0  0  0  0
  141.7845   73.8785  221.9524 H   0  0  0  0  0  0  0  0  0  0  0  0
  140.6488   73.4875  220.6168 H   0  0  0  0  0  0  0  0  0  0  0  0
  141.5305   75.0525  220.6168 H   0  0  0  0  0  0  0  0  0  0  0  0
  137.7841   76.4760  221.7604 H   0  0  0  0  0  0  0  0  0  0  0  0
  137.7054   78.9068  222.3115 H   0  0  0  0  0  0  0  0  0  0  0  0
  138.9206   80.9447  222.6580 H   0  0  0  0  0  0  0  0  0  0  0  0
  139.7344   80.5877  224.2427 H   0  0  0  0  0  0  0  0  0  0  0  0
  1  2  1  0
  2  3  1  0
  3  4  1  0
  4  5  1  0
  5  6  1  0
  6  7  2  0
  7  8  1  0
  8  9  2  0
  9 10  1  0
 10 11  1  0
 11 12  1  0
 10 13  2  0
  3 14  1  0
 14 15  1  0
 15 16  1  0
 16 17  1  0
 17 18  2  0
 18 19  1  0
 19 20  1  0
 20 21  1  0
 19 22  2  0
 22 23  1  0
 23 24  2  0
 24 25  1  0
 13  6  1  0
 25 14  1  0
 24 17  1  0
  1 26  1  0
  1 27  1  0
  1 28  1  0
  2 29  1  0
  2 30  1  0
  4 31  1  0
  4 32  1  0
  5 33  1  0
  5 34  1  0
  7 35  1  0
  8 36  1  0
  9 37  1  0
 12 38  1  0
 12 39  1  0
 12 40  1  0
 13 41  1  0
 14 42  1  1
 15 43  1  0
 15 44  1  0
 16 45  1  0
 16 46  1  0
 18 47  1  0
 21 48  1  0
 21 49  1  0
 21 50  1  0
 22 51  1  0
 23 52  1  0
 25 53  1  0
 25 54  1  0
M  END
>  <UniqueID>  (56) 
27

>  <SMILES>  (56) 
CCN(CCc1cccc(OC)c1)[C@@H]1CCc2cc(OC)ccc2C1

>  <Energy>  (56) 
62.05239928664439

>  <Genealogy>  (56) 
CCN(CCc1cccc(OC)c1)[C@@H]1CCc2cc(OC)ccc2C1 (chirality)
CCN(CCc1cccc(OC)c1)[C@@H]1CCc2cc(OC)ccc2C1 (3D coordinates assigned)
CCN(CCc1cccc(OC)c1)[C@@H]1CCc2cc(OC)ccc2C1 (nonaromatic ring conformer: 62.05239928664439 kcal/mol)

>  <smiles>  (56) 
CCN(CCc1cccc(OC)c1)C1CCc2cc(OC)ccc2C1

>  <score_type>  (56) 
oracle

>  <origin>  (56) 
autodockgpu

>  <m_score__min__energy>  (56) 
-5.7599999999999998

>  <m_primary>  (56) 
energy

>  <meeko>  (56) 
{"free_energy": -5.0, "intermolecular_energy": -7.09, "internal_energy": -2.18, "cluster_size": 18, "cluster_id": 1, "rank_in_cluster": 12}

>  <energy>  (56) 
-4.87

>  <cluster_rmsd>  (56) 
0.89

>  <rmsd>  (56) 
270.04

>  <cluster>  (56) 
1

$$$$
MXOKLQPDPZBAAI-HXUWFJFHNA-N
     RDKit          3D

 54 56  0  0  0  0  0  0  0  0999 V2000
  137.8000   81.8330  221.0720 C   0  0  0  0  0  0  0  0  0  0  0  0
  139.0170   82.5610  221.6520 C   0  0  0  0  0  0  0  0  0  0  0  0
  140.2950   81.8230  221.4980 N   0  0  0  0  0  0  0  0  0  0  0  0
  141.2680   82.4700  220.5830 C   0  0  0  0  0  0  0  0  0  0  0  0
  141.1880   81.8890  219.1620 C   0  0  0  0  0  0  0  0  0  0  0  0
  141.1090   80.3860  219.1690 C   0  0  0  0  0  0  0  0  0  0  0  0
  142.2690   79.6150  218.9910 C   0  0  0  0  0  0  0  0  0  0  0  0
  142.1920   78.2200  218.9850 C   0  0  0  0  0  0  0  0  0  0  0  0
  140.9620   77.5850  219.1780 C   0  0  0  0  0  0  0  0  0  0  0  0
  139.7980   78.3360  219.3780 C   0  0  0  0  0  0  0  0  0  0  0  0
  138.5920   77.6530  219.5880 O   0  0  0  0  0  0  0  0  0  0  0  0
  137.3070   78.2650  219.5610 C   0  0  0  0  0  0  0  0  0  0  0  0
  139.8760   79.7430  219.3640 C   0  0  0  0  0  0  0  0  0  0  0  0
  140.8390   81.2580  222.7660 C   0  0  2  0  0  0  0  0  0  0  0  0
  142.2130   80.5180  222.5940 C   0  0  0  0  0  0  0  0  0  0  0  0
  142.2710   79.1220  223.2370 C   0  0  0  0  0  0  0  0  0  0  0  0
  141.0240   78.3410  222.9340 C   0  0  0  0  0  0  0  0  0  0  0  0
  141.0780   76.9860  222.5740 C   0  0  0  0  0  0  0  0  0  0  0  0
  139.8990   76.2620  222.3520 C   0  0  0  0  0  0  0  0  0  0  0  0
  140.0060   74.9160  221.9750 O   0  0  0  0  0  0  0  0  0  0  0  0
  141.0070   74.4040  221.1020 C   0  0  0  0  0  0  0  0  0  0  0  0
  138.6560   76.9020  222.5230 C   0  0  0  0  0  0  0  0  0  0  0  0
  138.6010   78.2460  222.9000 C   0  0  0  0  0  0  0  0  0  0  0  0
  139.7830   78.9760  223.0780 C   0  0  0  0  0  0  0  0  0  0  0  0
  139.7500   80.4220  223.4850 C   0  0  0  0  0  0  0  0  0  0  0  0
  137.1718   81.4572  221.8931 H   0  0  0  0  0  0  0  0  0  0  0  0
  137.2161   82.5303  220.4532 H   0  0  0  0  0  0  0  0  0  0  0  0
  138.1383   80.9888  220.4532 H   0  0  0  0  0  0  0  0  0  0  0  0
  139.1146   83.5308  221.1422 H   0  0  0  0  0  0  0  0  0  0  0  0
  138.8391   82.6648  222.7325 H   0  0  0  0  0  0  0  0  0  0  0  0
  141.0536   83.5480  220.5396 H   0  0  0  0  0  0  0  0  0  0  0  0
  142.2798   82.2838  220.9723 H   0  0  0  0  0  0  0  0  0  0  0  0
  140.2919   82.2891  218.6651 H   0  0  0  0  0  0  0  0  0  0  0  0
  142.1040   82.1778  218.6257 H   0  0  0  0  0  0  0  0  0  0  0  0
  143.2415   80.1109  218.8558 H   0  0  0  0  0  0  0  0  0  0  0  0
  143.1009   77.6205  218.8281 H   0  0  0  0  0  0  0  0  0  0  0  0
  140.9083   76.4863  219.1727 H   0  0  0  0  0  0  0  0  0  0  0  0
  136.9583   78.4311  220.5910 H   0  0  0  0  0  0  0  0  0  0  0  0
  137.3711   79.2293  219.0356 H   0  0  0  0  0  0  0  0  0  0  0  0
  136.5987   77.6075  219.0356 H   0  0  0  0  0  0  0  0  0  0  0  0
  138.9644   80.3419  219.5068 H   0  0  0  0  0  0  0  0  0  0  0  0
  141.0953   82.0994  223.4266 H   0  0  0  0  0  0  0  0  0  0  0  0
  142.4120   80.4089  221.5177 H   0  0  0  0  0  0  0  0  0  0  0  0
  142.9655   81.1317  223.1108 H   0  0  0  0  0  0  0  0  0  0  0  0
  143.1416   78.5787  222.8408 H   0  0  0  0  0  0  0  0  0  0  0  0
  142.3560   79.2401  224.3273 H   0  0  0  0  0  0  0  0  0  0  0  0
  142.0530   76.4884  222.4652 H   0  0  0  0  0  0  0  0  0  0  0  0
  141.8311   73.9825  221.6963 H   0  0  0  0  0  0  0  0  0  0  0  0
  140.5727   73.6173  220.4676 H   0  0  0  0  0  0  0  0  0  0  0  0
  141.3907   75.2166  220.4676 H   0  0  0  0  0  0  0  0  0  0  0  0
  137.7242   76.3409  222.3589 H   0  0  0  0  0  0  0  0  0  0  0  0
  137.6269   78.7322  223.0574 H   0  0  0  0  0  0  0  0  0  0  0  0
  138.7625   80.8376  223.2359 H   0  0  0  0  0  0  0  0  0  0  0  0
  139.9447   80.4728  224.5664 H   0  0  0  0  0  0  0  0  0  0  0  0
  1  2  1  0
  2  3  1  0
  3  4  1  0
  4  5  1  0
  5  6  1  0
  6  7  2  0
  7  8  1  0
  8  9  2  0
  9 10  1  0
 10 11  1  0
 11 12  1  0
 10 13  2  0
  3 14  1  0
 14 15  1  0
 15 16  1  0
 16 17  1  0
 17 18  2  0
 18 19  1  0
 19 20  1  0
 20 21  1  0
 19 22  2  0
 22 23  1  0
 23 24  2  0
 24 25  1  0
 13  6  1  0
 25 14  1  0
 24 17  1  0
  1 26  1  0
  1 27  1  0
  1 28  1  0
  2 29  1  0
  2 30  1  0
  4 31  1  0
  4 32  1  0
  5 33  1  0
  5 34  1  0
  7 35  1  0
  8 36  1  0
  9 37  1  0
 12 38  1  0
 12 39  1  0
 12 40  1  0
 13 41  1  0
 14 42  1  1
 15 43  1  0
 15 44  1  0
 16 45  1  0
 16 46  1  0
 18 47  1  0
 21 48  1  0
 21 49  1  0
 21 50  1  0
 22 51  1  0
 23 52  1  0
 25 53  1  0
 25 54  1  0
M  END
>  <UniqueID>  (57) 
27

>  <SMILES>  (57) 
CCN(CCc1cccc(OC)c1)[C@@H]1CCc2cc(OC)ccc2C1

>  <Energy>  (57) 
62.05239928664439

>  <Genealogy>  (57) 
CCN(CCc1cccc(OC)c1)[C@@H]1CCc2cc(OC)ccc2C1 (chirality)
CCN(CCc1cccc(OC)c1)[C@@H]1CCc2cc(OC)ccc2C1 (3D coordinates assigned)
CCN(CCc1cccc(OC)c1)[C@@H]1CCc2cc(OC)ccc2C1 (nonaromatic ring conformer: 62.05239928664439 kcal/mol)

>  <smiles>  (57) 
CCN(CCc1cccc(OC)c1)C1CCc2cc(OC)ccc2C1

>  <score_type>  (57) 
oracle

>  <origin>  (57) 
autodockgpu

>  <m_score__min__energy>  (57) 
-5.7599999999999998

>  <m_primary>  (57) 
energy

>  <meeko>  (57) 
{"free_energy": -4.67, "intermolecular_energy": -6.76, "internal_energy": -2.65, "cluster_size": 18, "cluster_id": 1, "rank_in_cluster": 18}

>  <energy>  (57) 
-4.67

>  <cluster_rmsd>  (57) 
1.47

>  <rmsd>  (57) 
269.97

>  <cluster>  (57) 
1

$$$$
MXOKLQPDPZBAAI-HXUWFJFHNA-N
     RDKit          3D

 54 56  0  0  0  0  0  0  0  0999 V2000
  140.4580   83.7200  219.8000 C   0  0  0  0  0  0  0  0  0  0  0  0
  140.7580   83.1930  221.2070 C   0  0  0  0  0  0  0  0  0  0  0  0
  140.8130   81.7130  221.3010 N   0  0  0  0  0  0  0  0  0  0  0  0
  141.5800   81.0590  220.2130 C   0  0  0  0  0  0  0  0  0  0  0  0
  140.6580   80.3320  219.2220 C   0  0  0  0  0  0  0  0  0  0  0  0
  140.9090   78.8470  219.2000 C   0  0  0  0  0  0  0  0  0  0  0  0
  139.8690   77.9580  218.8850 C   0  0  0  0  0  0  0  0  0  0  0  0
  140.1020   76.5800  218.8770 C   0  0  0  0  0  0  0  0  0  0  0  0
  141.3760   76.0820  219.1620 C   0  0  0  0  0  0  0  0  0  0  0  0
  142.4300   76.9540  219.4570 C   0  0  0  0  0  0  0  0  0  0  0  0
  143.6950   76.4070  219.7150 O   0  0  0  0  0  0  0  0  0  0  0  0
  143.9320   75.0340  220.0070 C   0  0  0  0  0  0  0  0  0  0  0  0
  142.1880   78.3420  219.4830 C   0  0  0  0  0  0  0  0  0  0  0  0
  141.0250   81.1900  222.6820 C   0  0  2  0  0  0  0  0  0  0  0  0
  142.3620   80.3850  222.8570 C   0  0  0  0  0  0  0  0  0  0  0  0
  142.2000   79.0220  223.5500 C   0  0  0  0  0  0  0  0  0  0  0  0
  141.0150   78.2790  223.0010 C   0  0  0  0  0  0  0  0  0  0  0  0
  141.0800   76.9070  222.7150 C   0  0  0  0  0  0  0  0  0  0  0  0
  139.9460   76.2230  222.2570 C   0  0  0  0  0  0  0  0  0  0  0  0
  140.0660   74.8560  221.9670 O   0  0  0  0  0  0  0  0  0  0  0  0
  139.0080   74.0460  221.4680 C   0  0  0  0  0  0  0  0  0  0  0  0
  138.7320   76.9210  222.1140 C   0  0  0  0  0  0  0  0  0  0  0  0
  138.6620   78.2830  222.4160 C   0  0  0  0  0  0  0  0  0  0  0  0
  139.8090   78.9710  222.8320 C   0  0  0  0  0  0  0  0  0  0  0  0
  139.7590   80.4360  223.1640 C   0  0  0  0  0  0  0  0  0  0  0  0
  139.9150   84.6738  219.8738 H   0  0  0  0  0  0  0  0  0  0  0  0
  141.4023   83.8766  219.2580 H   0  0  0  0  0  0  0  0  0  0  0  0
  139.8412   82.9880  219.2580 H   0  0  0  0  0  0  0  0  0  0  0  0
  141.7304   83.5958  221.5266 H   0  0  0  0  0  0  0  0  0  0  0  0
  139.9294   83.5211  221.8518 H   0  0  0  0  0  0  0  0  0  0  0  0
  142.1522   81.8257  219.6701 H   0  0  0  0  0  0  0  0  0  0  0  0
  142.2495   80.3135  220.6670 H   0  0  0  0  0  0  0  0  0  0  0  0
  139.6125   80.5108  219.5135 H   0  0  0  0  0  0  0  0  0  0  0  0
  140.8645   80.7255  218.2158 H   0  0  0  0  0  0  0  0  0  0  0  0
  138.8687   78.3469  218.6440 H   0  0  0  0  0  0  0  0  0  0  0  0
  139.2806   75.8859  218.6458 H   0  0  0  0  0  0  0  0  0  0  0  0
  141.5518   74.9962  219.1544 H   0  0  0  0  0  0  0  0  0  0  0  0
  143.9569   74.8900  221.0973 H   0  0  0  0  0  0  0  0  0  0  0  0
  143.1261   74.4228  219.5747 H   0  0  0  0  0  0  0  0  0  0  0  0
  144.8962   74.7283  219.5747 H   0  0  0  0  0  0  0  0  0  0  0  0
  143.0070   79.0347  219.7268 H   0  0  0  0  0  0  0  0  0  0  0  0
  141.1676   82.0516  223.3509 H   0  0  0  0  0  0  0  0  0  0  0  0
  142.7931   80.2141  221.8595 H   0  0  0  0  0  0  0  0  0  0  0  0
  143.0093   80.9915  223.5074 H   0  0  0  0  0  0  0  0  0  0  0  0
  143.1082   78.4238  223.3849 H   0  0  0  0  0  0  0  0  0  0  0  0
  142.0415   79.1910  224.6253 H   0  0  0  0  0  0  0  0  0  0  0  0
  142.0273   76.3647  222.8512 H   0  0  0  0  0  0  0  0  0  0  0  0
  138.4466   73.6162  222.3106 H   0  0  0  0  0  0  0  0  0  0  0  0
  138.3338   74.6609  220.8538 H   0  0  0  0  0  0  0  0  0  0  0  0
  139.4257   73.2347  220.8538 H   0  0  0  0  0  0  0  0  0  0  0  0
  137.8342   76.3914  221.7628 H   0  0  0  0  0  0  0  0  0  0  0  0
  137.7041   78.8164  222.3269 H   0  0  0  0  0  0  0  0  0  0  0  0
  138.8768   80.8791  222.6789 H   0  0  0  0  0  0  0  0  0  0  0  0
  139.7052   80.5323  224.2585 H   0  0  0  0  0  0  0  0  0  0  0  0
  1  2  1  0
  2  3  1  0
  3  4  1  0
  4  5  1  0
  5  6  1  0
  6  7  2  0
  7  8  1  0
  8  9  2  0
  9 10  1  0
 10 11  1  0
 11 12  1  0
 10 13  2  0
  3 14  1  0
 14 15  1  0
 15 16  1  0
 16 17  1  0
 17 18  2  0
 18 19  1  0
 19 20  1  0
 20 21  1  0
 19 22  2  0
 22 23  1  0
 23 24  2  0
 24 25  1  0
 13  6  1  0
 25 14  1  0
 24 17  1  0
  1 26  1  0
  1 27  1  0
  1 28  1  0
  2 29  1  0
  2 30  1  0
  4 31  1  0
  4 32  1  0
  5 33  1  0
  5 34  1  0
  7 35  1  0
  8 36  1  0
  9 37  1  0
 12 38  1  0
 12 39  1  0
 12 40  1  0
 13 41  1  0
 14 42  1  1
 15 43  1  0
 15 44  1  0
 16 45  1  0
 16 46  1  0
 18 47  1  0
 21 48  1  0
 21 49  1  0
 21 50  1  0
 22 51  1  0
 23 52  1  0
 25 53  1  0
 25 54  1  0
M  END
>  <UniqueID>  (58) 
27

>  <SMILES>  (58) 
CCN(CCc1cccc(OC)c1)[C@@H]1CCc2cc(OC)ccc2C1

>  <Energy>  (58) 
62.05239928664439

>  <Genealogy>  (58) 
CCN(CCc1cccc(OC)c1)[C@@H]1CCc2cc(OC)ccc2C1 (chirality)
CCN(CCc1cccc(OC)c1)[C@@H]1CCc2cc(OC)ccc2C1 (3D coordinates assigned)
CCN(CCc1cccc(OC)c1)[C@@H]1CCc2cc(OC)ccc2C1 (nonaromatic ring conformer: 62.05239928664439 kcal/mol)

>  <smiles>  (58) 
CCN(CCc1cccc(OC)c1)C1CCc2cc(OC)ccc2C1

>  <score_type>  (58) 
oracle

>  <origin>  (58) 
autodockgpu

>  <m_score__min__energy>  (58) 
-5.7599999999999998

>  <m_primary>  (58) 
energy

>  <meeko>  (58) 
{"free_energy": -5.04, "intermolecular_energy": -7.13, "internal_energy": -2.34, "cluster_size": 18, "cluster_id": 1, "rank_in_cluster": 10}

>  <energy>  (58) 
-4.67

>  <cluster_rmsd>  (58) 
1.49

>  <rmsd>  (58) 
269.98

>  <cluster>  (58) 
1

$$$$
MXOKLQPDPZBAAI-HXUWFJFHNA-N
     RDKit          3D

 54 56  0  0  0  0  0  0  0  0999 V2000
  140.6820   84.1670  220.8130 C   0  0  0  0  0  0  0  0  0  0  0  0
  140.9830   82.6710  220.6770 C   0  0  0  0  0  0  0  0  0  0  0  0
  140.1020   81.7980  221.4920 N   0  0  0  0  0  0  0  0  0  0  0  0
  139.2620   80.8650  220.7000 C   0  0  0  0  0  0  0  0  0  0  0  0
  139.6440   80.8780  219.2120 C   0  0  0  0  0  0  0  0  0  0  0  0
  140.7770   79.9340  218.9100 C   0  0  0  0  0  0  0  0  0  0  0  0
  141.8660   80.3600  218.1310 C   0  0  0  0  0  0  0  0  0  0  0  0
  142.9100   79.4790  217.8420 C   0  0  0  0  0  0  0  0  0  0  0  0
  142.8870   78.1750  218.3440 C   0  0  0  0  0  0  0  0  0  0  0  0
  141.8210   77.7380  219.1390 C   0  0  0  0  0  0  0  0  0  0  0  0
  141.8540   76.4280  219.6360 O   0  0  0  0  0  0  0  0  0  0  0  0
  143.0310   75.6330  219.7310 C   0  0  0  0  0  0  0  0  0  0  0  0
  140.7600   78.6230  219.4130 C   0  0  0  0  0  0  0  0  0  0  0  0
  140.7450   81.2460  222.7190 C   0  0  2  0  0  0  0  0  0  0  0  0
  142.1220   80.5390  222.4520 C   0  0  0  0  0  0  0  0  0  0  0  0
  142.2570   79.1450  223.0870 C   0  0  0  0  0  0  0  0  0  0  0  0
  141.0110   78.3340  222.8680 C   0  0  0  0  0  0  0  0  0  0  0  0
  141.0730   76.9810  222.5020 C   0  0  0  0  0  0  0  0  0  0  0  0
  139.9000   76.2290  222.3600 C   0  0  0  0  0  0  0  0  0  0  0  0
  140.0130   74.8860  221.9730 O   0  0  0  0  0  0  0  0  0  0  0  0
  139.7160   74.3980  220.6690 C   0  0  0  0  0  0  0  0  0  0  0  0
  138.6560   76.8380  222.6160 C   0  0  0  0  0  0  0  0  0  0  0  0
  138.5950   78.1810  222.9990 C   0  0  0  0  0  0  0  0  0  0  0  0
  139.7680   78.9390  223.0980 C   0  0  0  0  0  0  0  0  0  0  0  0
  139.7280   80.3830  223.5090 C   0  0  0  0  0  0  0  0  0  0  0  0
  140.6281   84.4348  221.8785 H   0  0  0  0  0  0  0  0  0  0  0  0
  141.4814   84.7473  220.3291 H   0  0  0  0  0  0  0  0  0  0  0  0
  139.7204   84.3930  220.3291 H   0  0  0  0  0  0  0  0  0  0  0  0
  140.8654   82.3899  219.6201 H   0  0  0  0  0  0  0  0  0  0  0  0
  142.0081   82.5194  221.0460 H   0  0  0  0  0  0  0  0  0  0  0  0
  139.3940   79.8460  221.0928 H   0  0  0  0  0  0  0  0  0  0  0  0
  138.2145   81.1893  220.7873 H   0  0  0  0  0  0  0  0  0  0  0  0
  138.7670   80.5811  218.6181 H   0  0  0  0  0  0  0  0  0  0  0  0
  139.9736   81.8957  218.9558 H   0  0  0  0  0  0  0  0  0  0  0  0
  141.8962   81.3906  217.7477 H   0  0  0  0  0  0  0  0  0  0  0  0
  143.7523   79.8121  217.2179 H   0  0  0  0  0  0  0  0  0  0  0  0
  143.7131   77.4866  218.1126 H   0  0  0  0  0  0  0  0  0  0  0  0
  143.2768   75.4670  220.7903 H   0  0  0  0  0  0  0  0  0  0  0  0
  142.8601   74.6646  219.2381 H   0  0  0  0  0  0  0  0  0  0  0  0
  143.8656   76.1531  219.2381 H   0  0  0  0  0  0  0  0  0  0  0  0
  139.9115   78.2846  220.0257 H   0  0  0  0  0  0  0  0  0  0  0  0
  141.0253   82.0933  223.3621 H   0  0  0  0  0  0  0  0  0  0  0  0
  142.2495   80.4349  221.3644 H   0  0  0  0  0  0  0  0  0  0  0  0
  142.8932   81.1706  222.9171 H   0  0  0  0  0  0  0  0  0  0  0  0
  143.1114   78.6229  222.6317 H   0  0  0  0  0  0  0  0  0  0  0  0
  142.4130   79.2650  224.1693 H   0  0  0  0  0  0  0  0  0  0  0  0
  142.0500   76.5074  222.3253 H   0  0  0  0  0  0  0  0  0  0  0  0
  139.1457   73.4609  220.7493 H   0  0  0  0  0  0  0  0  0  0  0  0
  139.1192   75.1450  220.1251 H   0  0  0  0  0  0  0  0  0  0  0  0
  140.6537   74.2111  220.1251 H   0  0  0  0  0  0  0  0  0  0  0  0
  137.7290   76.2546  222.5142 H   0  0  0  0  0  0  0  0  0  0  0  0
  137.6226   78.6437  223.2232 H   0  0  0  0  0  0  0  0  0  0  0  0
  138.7160   80.7746  223.3287 H   0  0  0  0  0  0  0  0  0  0  0  0
  139.9950   80.4379  224.5747 H   0  0  0  0  0  0  0  0  0  0  0  0
  1  2  1  0
  2  3  1  0
  3  4  1  0
  4  5  1  0
  5  6  1  0
  6  7  2  0
  7  8  1  0
  8  9  2  0
  9 10  1  0
 10 11  1  0
 11 12  1  0
 10 13  2  0
  3 14  1  0
 14 15  1  0
 15 16  1  0
 16 17  1  0
 17 18  2  0
 18 19  1  0
 19 20  1  0
 20 21  1  0
 19 22  2  0
 22 23  1  0
 23 24  2  0
 24 25  1  0
 13  6  1  0
 25 14  1  0
 24 17  1  0
  1 26  1  0
  1 27  1  0
  1 28  1  0
  2 29  1  0
  2 30  1  0
  4 31  1  0
  4 32  1  0
  5 33  1  0
  5 34  1  0
  7 35  1  0
  8 36  1  0
  9 37  1  0
 12 38  1  0
 12 39  1  0
 12 40  1  0
 13 41  1  0
 14 42  1  1
 15 43  1  0
 15 44  1  0
 16 45  1  0
 16 46  1  0
 18 47  1  0
 21 48  1  0
 21 49  1  0
 21 50  1  0
 22 51  1  0
 23 52  1  0
 25 53  1  0
 25 54  1  0
M  END
>  <UniqueID>  (59) 
27

>  <SMILES>  (59) 
CCN(CCc1cccc(OC)c1)[C@@H]1CCc2cc(OC)ccc2C1

>  <Energy>  (59) 
62.05239928664439

>  <Genealogy>  (59) 
CCN(CCc1cccc(OC)c1)[C@@H]1CCc2cc(OC)ccc2C1 (chirality)
CCN(CCc1cccc(OC)c1)[C@@H]1CCc2cc(OC)ccc2C1 (3D coordinates assigned)
CCN(CCc1cccc(OC)c1)[C@@H]1CCc2cc(OC)ccc2C1 (nonaromatic ring conformer: 62.05239928664439 kcal/mol)

>  <smiles>  (59) 
CCN(CCc1cccc(OC)c1)C1CCc2cc(OC)ccc2C1

>  <score_type>  (59) 
oracle

>  <origin>  (59) 
autodockgpu

>  <m_score__min__energy>  (59) 
-5.7599999999999998

>  <m_primary>  (59) 
energy

>  <meeko>  (59) 
{"free_energy": -5.1, "intermolecular_energy": -7.19, "internal_energy": -2.15, "cluster_size": 18, "cluster_id": 1, "rank_in_cluster": 8}

>  <energy>  (59) 
-5.58

>  <cluster_rmsd>  (59) 
0.0

>  <rmsd>  (59) 
270.38

>  <cluster>  (59) 
2

$$$$
MXOKLQPDPZBAAI-HXUWFJFHNA-N
     RDKit          3D

 54 56  0  0  0  0  0  0  0  0999 V2000
  139.2870   83.7680  221.1770 C   0  0  0  0  0  0  0  0  0  0  0  0
  140.7150   83.2120  221.1970 C   0  0  0  0  0  0  0  0  0  0  0  0
  140.7900   81.7330  221.2900 N   0  0  0  0  0  0  0  0  0  0  0  0
  141.5320   81.0870  220.1790 C   0  0  0  0  0  0  0  0  0  0  0  0
  140.7100   79.9680  219.5200 C   0  0  0  0  0  0  0  0  0  0  0  0
  141.5810   78.8470  219.0170 C   0  0  0  0  0  0  0  0  0  0  0  0
  142.1740   78.9270  217.7470 C   0  0  0  0  0  0  0  0  0  0  0  0
  142.9720   77.8810  217.2770 C   0  0  0  0  0  0  0  0  0  0  0  0
  143.2010   76.7590  218.0780 C   0  0  0  0  0  0  0  0  0  0  0  0
  142.6350   76.6710  219.3550 C   0  0  0  0  0  0  0  0  0  0  0  0
  142.9110   75.5350  220.1290 O   0  0  0  0  0  0  0  0  0  0  0  0
  144.0890   74.7440  220.0050 C   0  0  0  0  0  0  0  0  0  0  0  0
  141.8150   77.7190  219.8190 C   0  0  0  0  0  0  0  0  0  0  0  0
  141.0500   81.2140  222.6640 C   0  0  2  0  0  0  0  0  0  0  0  0
  142.3810   80.3910  222.7900 C   0  0  0  0  0  0  0  0  0  0  0  0
  142.2280   79.0330  223.4960 C   0  0  0  0  0  0  0  0  0  0  0  0
  141.0110   78.3050  222.9990 C   0  0  0  0  0  0  0  0  0  0  0  0
  141.0440   76.9310  222.7180 C   0  0  0  0  0  0  0  0  0  0  0  0
  139.8830   76.2610  222.3100 C   0  0  0  0  0  0  0  0  0  0  0  0
  139.9720   74.8910  222.0230 O   0  0  0  0  0  0  0  0  0  0  0  0
  140.1800   74.3560  220.7210 C   0  0  0  0  0  0  0  0  0  0  0  0
  138.6740   76.9760  222.2120 C   0  0  0  0  0  0  0  0  0  0  0  0
  138.6370   78.3410  222.5100 C   0  0  0  0  0  0  0  0  0  0  0  0
  139.8090   79.0140  222.8750 C   0  0  0  0  0  0  0  0  0  0  0  0
  139.7940   80.4810  223.2010 C   0  0  0  0  0  0  0  0  0  0  0  0
  138.9327   83.9059  222.2092 H   0  0  0  0  0  0  0  0  0  0  0  0
  139.2775   84.7355  220.6537 H   0  0  0  0  0  0  0  0  0  0  0  0
  138.6258   83.0616  220.6537 H   0  0  0  0  0  0  0  0  0  0  0  0
  141.2204   83.5257  220.2717 H   0  0  0  0  0  0  0  0  0  0  0  0
  141.1971   83.6107  222.1018 H   0  0  0  0  0  0  0  0  0  0  0  0
  141.7711   81.8472  219.4208 H   0  0  0  0  0  0  0  0  0  0  0  0
  142.4481   80.6406  220.5930 H   0  0  0  0  0  0  0  0  0  0  0  0
  140.0036   79.5638  220.2600 H   0  0  0  0  0  0  0  0  0  0  0  0
  140.1807   80.3992  218.6575 H   0  0  0  0  0  0  0  0  0  0  0  0
  142.0098   79.8159  217.1201 H   0  0  0  0  0  0  0  0  0  0  0  0
  143.4209   77.9407  216.2745 H   0  0  0  0  0  0  0  0  0  0  0  0
  143.8307   75.9391  217.7021 H   0  0  0  0  0  0  0  0  0  0  0  0
  144.4672   74.4901  221.0062 H   0  0  0  0  0  0  0  0  0  0  0  0
  143.8541   73.8199  219.4565 H   0  0  0  0  0  0  0  0  0  0  0  0
  144.8555   75.3112  219.4565 H   0  0  0  0  0  0  0  0  0  0  0  0
  141.3553   77.6526  220.8162 H   0  0  0  0  0  0  0  0  0  0  0  0
  141.2318   82.0770  223.3214 H   0  0  0  0  0  0  0  0  0  0  0  0
  142.7697   80.2096  221.7771 H   0  0  0  0  0  0  0  0  0  0  0  0
  143.0618   80.9912  223.4114 H   0  0  0  0  0  0  0  0  0  0  0  0
  143.1201   78.4210  223.2971 H   0  0  0  0  0  0  0  0  0  0  0  0
  142.1160   79.2088  224.5761 H   0  0  0  0  0  0  0  0  0  0  0  0
  141.9881   76.3756  222.8187 H   0  0  0  0  0  0  0  0  0  0  0  0
  140.5774   73.3337  220.8039 H   0  0  0  0  0  0  0  0  0  0  0  0
  139.2246   74.3349  220.1763 H   0  0  0  0  0  0  0  0  0  0  0  0
  140.8988   74.9858  220.1763 H   0  0  0  0  0  0  0  0  0  0  0  0
  137.7551   76.4583  221.8997 H   0  0  0  0  0  0  0  0  0  0  0  0
  137.6841   78.8881  222.4576 H   0  0  0  0  0  0  0  0  0  0  0  0
  138.8993   80.9348  222.7499 H   0  0  0  0  0  0  0  0  0  0  0  0
  139.7864   80.5831  224.2962 H   0  0  0  0  0  0  0  0  0  0  0  0
  1  2  1  0
  2  3  1  0
  3  4  1  0
  4  5  1  0
  5  6  1  0
  6  7  2  0
  7  8  1  0
  8  9  2  0
  9 10  1  0
 10 11  1  0
 11 12  1  0
 10 13  2  0
  3 14  1  0
 14 15  1  0
 15 16  1  0
 16 17  1  0
 17 18  2  0
 18 19  1  0
 19 20  1  0
 20 21  1  0
 19 22  2  0
 22 23  1  0
 23 24  2  0
 24 25  1  0
 13  6  1  0
 25 14  1  0
 24 17  1  0
  1 26  1  0
  1 27  1  0
  1 28  1  0
  2 29  1  0
  2 30  1  0
  4 31  1  0
  4 32  1  0
  5 33  1  0
  5 34  1  0
  7 35  1  0
  8 36  1  0
  9 37  1  0
 12 38  1  0
 12 39  1  0
 12 40  1  0
 13 41  1  0
 14 42  1  1
 15 43  1  0
 15 44  1  0
 16 45  1  0
 16 46  1  0
 18 47  1  0
 21 48  1  0
 21 49  1  0
 21 50  1  0
 22 51  1  0
 23 52  1  0
 25 53  1  0
 25 54  1  0
M  END
>  <UniqueID>  (60) 
27

>  <SMILES>  (60) 
CCN(CCc1cccc(OC)c1)[C@@H]1CCc2cc(OC)ccc2C1

>  <Energy>  (60) 
62.05239928664439

>  <Genealogy>  (60) 
CCN(CCc1cccc(OC)c1)[C@@H]1CCc2cc(OC)ccc2C1 (chirality)
CCN(CCc1cccc(OC)c1)[C@@H]1CCc2cc(OC)ccc2C1 (3D coordinates assigned)
CCN(CCc1cccc(OC)c1)[C@@H]1CCc2cc(OC)ccc2C1 (nonaromatic ring conformer: 62.05239928664439 kcal/mol)

>  <smiles>  (60) 
CCN(CCc1cccc(OC)c1)C1CCc2cc(OC)ccc2C1

>  <score_type>  (60) 
oracle

>  <origin>  (60) 
autodockgpu

>  <m_score__min__energy>  (60) 
-5.7599999999999998

>  <m_primary>  (60) 
energy

>  <meeko>  (60) 
{"free_energy": -5.76, "intermolecular_energy": -7.85, "internal_energy": -1.85, "cluster_size": 18, "cluster_id": 1, "rank_in_cluster": 1}

>  <energy>  (60) 
-5.58

>  <cluster_rmsd>  (60) 
0.2

>  <rmsd>  (60) 
270.38

>  <cluster>  (60) 
2

$$$$
MXOKLQPDPZBAAI-FQEVSTJZNA-N
     RDKit          3D

 54 56  0  0  0  0  0  0  0  0999 V2000
  142.6710   82.1050  217.1170 C   0  0  0  0  0  0  0  0  0  0  0  0
  142.6690   80.7860  217.8950 C   0  0  0  0  0  0  0  0  0  0  0  0
  141.3170   80.3360  218.3200 N   0  0  0  0  0  0  0  0  0  0  0  0
  140.5930   81.3470  219.1380 C   0  0  0  0  0  0  0  0  0  0  0  0
  141.4080   81.9720  220.3040 C   0  0  0  0  0  0  0  0  0  0  0  0
  141.4040   81.1220  221.5510 C   0  0  0  0  0  0  0  0  0  0  0  0
  142.5850   80.4910  221.9790 C   0  0  0  0  0  0  0  0  0  0  0  0
  142.5880   79.7120  223.1370 C   0  0  0  0  0  0  0  0  0  0  0  0
  141.4130   79.5450  223.8740 C   0  0  0  0  0  0  0  0  0  0  0  0
  140.2220   80.1460  223.4550 C   0  0  0  0  0  0  0  0  0  0  0  0
  139.0690   79.9500  224.2300 O   0  0  0  0  0  0  0  0  0  0  0  0
  137.8280   80.6120  224.0080 C   0  0  0  0  0  0  0  0  0  0  0  0
  140.2190   80.9260  222.2820 C   0  0  0  0  0  0  0  0  0  0  0  0
  141.1600   78.9070  218.7320 C   0  0  1  0  0  0  0  0  0  0  0  0
  142.5450   78.2520  218.9450 C   0  0  0  0  0  0  0  0  0  0  0  0
  142.4130   76.7490  219.1980 C   0  0  0  0  0  0  0  0  0  0  0  0
  141.3800   76.4190  220.2440 C   0  0  0  0  0  0  0  0  0  0  0  0
  141.3700   75.1310  220.8030 C   0  0  0  0  0  0  0  0  0  0  0  0
  140.3860   74.7640  221.7400 C   0  0  0  0  0  0  0  0  0  0  0  0
  140.3420   73.4900  222.3270 O   0  0  0  0  0  0  0  0  0  0  0  0
  140.9690   72.3320  221.7840 C   0  0  0  0  0  0  0  0  0  0  0  0
  139.4120   75.6960  222.1060 C   0  0  0  0  0  0  0  0  0  0  0  0
  139.4060   76.9740  221.5450 C   0  0  0  0  0  0  0  0  0  0  0  0
  140.3720   77.3420  220.5970 C   0  0  0  0  0  0  0  0  0  0  0  0
  140.3650   78.7520  220.0550 C   0  0  0  0  0  0  0  0  0  0  0  0
  142.6723   82.9477  217.8240 H   0  0  0  0  0  0  0  0  0  0  0  0
  143.5692   82.1560  216.4841 H   0  0  0  0  0  0  0  0  0  0  0  0
  141.7729   82.1587  216.4841 H   0  0  0  0  0  0  0  0  0  0  0  0
  143.1076   80.0063  217.2549 H   0  0  0  0  0  0  0  0  0  0  0  0
  143.2503   80.9574  218.8130 H   0  0  0  0  0  0  0  0  0  0  0  0
  140.2787   82.1619  218.4693 H   0  0  0  0  0  0  0  0  0  0  0  0
  139.7553   80.8112  219.6083 H   0  0  0  0  0  0  0  0  0  0  0  0
  142.4488   82.1030  219.9729 H   0  0  0  0  0  0  0  0  0  0  0  0
  140.9333   82.9309  220.5591 H   0  0  0  0  0  0  0  0  0  0  0  0
  143.5114   80.6118  221.3983 H   0  0  0  0  0  0  0  0  0  0  0  0
  143.5180   79.2282  223.4703 H   0  0  0  0  0  0  0  0  0  0  0  0
  141.4248   78.9365  224.7903 H   0  0  0  0  0  0  0  0  0  0  0  0
  137.3658   80.8586  224.9752 H   0  0  0  0  0  0  0  0  0  0  0  0
  138.0025   81.5369  223.4386 H   0  0  0  0  0  0  0  0  0  0  0  0
  137.1570   79.9520  223.4386 H   0  0  0  0  0  0  0  0  0  0  0  0
  139.2818   81.3856  221.9350 H   0  0  0  0  0  0  0  0  0  0  0  0
  140.6053   78.4157  217.9190 H   0  0  0  0  0  0  0  0  0  0  0  0
  143.1596   78.4121  218.0469 H   0  0  0  0  0  0  0  0  0  0  0  0
  143.0169   78.7133  219.8251 H   0  0  0  0  0  0  0  0  0  0  0  0
  142.1277   76.2582  218.2558 H   0  0  0  0  0  0  0  0  0  0  0  0
  143.3845   76.3901  219.5687 H   0  0  0  0  0  0  0  0  0  0  0  0
  142.1383   74.4020  220.5058 H   0  0  0  0  0  0  0  0  0  0  0  0
  141.3186   71.6863  222.6030 H   0  0  0  0  0  0  0  0  0  0  0  0
  140.2465   71.7801  221.1648 H   0  0  0  0  0  0  0  0  0  0  0  0
  141.8261   72.6354  221.1648 H   0  0  0  0  0  0  0  0  0  0  0  0
  138.6431   75.4203  222.8427 H   0  0  0  0  0  0  0  0  0  0  0  0
  138.6368   77.6991  221.8491 H   0  0  0  0  0  0  0  0  0  0  0  0
  139.3221   79.0502  219.8722 H   0  0  0  0  0  0  0  0  0  0  0  0
  140.8545   79.3908  220.8049 H   0  0  0  0  0  0  0  0  0  0  0  0
  1  2  1  0
  2  3  1  0
  3  4  1  0
  4  5  1  0
  5  6  1  0
  6  7  2  0
  7  8  1  0
  8  9  2  0
  9 10  1  0
 10 11  1  0
 11 12  1  0
 10 13  2  0
  3 14  1  0
 14 15  1  0
 15 16  1  0
 16 17  1  0
 17 18  2  0
 18 19  1  0
 19 20  1  0
 20 21  1  0
 19 22  2  0
 22 23  1  0
 23 24  2  0
 24 25  1  0
 13  6  1  0
 25 14  1  0
 24 17  1  0
  1 26  1  0
  1 27  1  0
  1 28  1  0
  2 29  1  0
  2 30  1  0
  4 31  1  0
  4 32  1  0
  5 33  1  0
  5 34  1  0
  7 35  1  0
  8 36  1  0
  9 37  1  0
 12 38  1  0
 12 39  1  0
 12 40  1  0
 13 41  1  0
 14 42  1  6
 15 43  1  0
 15 44  1  0
 16 45  1  0
 16 46  1  0
 18 47  1  0
 21 48  1  0
 21 49  1  0
 21 50  1  0
 22 51  1  0
 23 52  1  0
 25 53  1  0
 25 54  1  0
M  END
>  <UniqueID>  (61) 
28

>  <SMILES>  (61) 
CCN(CCc1cccc(OC)c1)[C@H]1CCc2cc(OC)ccc2C1

>  <Energy>  (61) 
65.60821063572106

>  <Genealogy>  (61) 
CCN(CCc1cccc(OC)c1)[C@H]1CCc2cc(OC)ccc2C1 (chirality)
CCN(CCc1cccc(OC)c1)[C@H]1CCc2cc(OC)ccc2C1 (3D coordinates assigned)
CCN(CCc1cccc(OC)c1)[C@H]1CCc2cc(OC)ccc2C1 (nonaromatic ring conformer: 65.60821063572106 kcal/mol)

>  <smiles>  (61) 
CCN(CCc1cccc(OC)c1)C1CCc2cc(OC)ccc2C1

>  <score_type>  (61) 
oracle

>  <origin>  (61) 
autodockgpu

>  <m_score__min__energy>  (61) 
-6.0700000000000003

>  <m_primary>  (61) 
energy

>  <meeko>  (61) 
{"free_energy": -5.4, "intermolecular_energy": -7.49, "internal_energy": -1.63, "cluster_size": 7, "cluster_id": 5, "rank_in_cluster": 2}

>  <energy>  (61) 
-6.07

>  <cluster_rmsd>  (61) 
0.0

>  <rmsd>  (61) 
270.74

>  <cluster>  (61) 
1

$$$$
MXOKLQPDPZBAAI-FQEVSTJZNA-N
     RDKit          3D

 54 56  0  0  0  0  0  0  0  0999 V2000
  138.8230   77.5480  220.8480 C   0  0  0  0  0  0  0  0  0  0  0  0
  139.3410   78.2650  219.5980 C   0  0  0  0  0  0  0  0  0  0  0  0
  140.8240   78.3060  219.4940 N   0  0  0  0  0  0  0  0  0  0  0  0
  141.3400   79.6000  218.9700 C   0  0  0  0  0  0  0  0  0  0  0  0
  141.8430   80.6030  220.0430 C   0  0  0  0  0  0  0  0  0  0  0  0
  141.5320   80.1660  221.4550 C   0  0  0  0  0  0  0  0  0  0  0  0
  142.4850   79.4480  222.1970 C   0  0  0  0  0  0  0  0  0  0  0  0
  142.2040   79.0500  223.5050 C   0  0  0  0  0  0  0  0  0  0  0  0
  140.9690   79.3540  224.0820 C   0  0  0  0  0  0  0  0  0  0  0  0
  139.9980   80.0490  223.3540 C   0  0  0  0  0  0  0  0  0  0  0  0
  138.7730   80.3320  223.9780 O   0  0  0  0  0  0  0  0  0  0  0  0
  137.8260   81.2790  223.4980 C   0  0  0  0  0  0  0  0  0  0  0  0
  140.2800   80.4430  222.0320 C   0  0  0  0  0  0  0  0  0  0  0  0
  141.5190   77.0690  219.0210 C   0  0  1  0  0  0  0  0  0  0  0  0
  142.3740   77.3770  217.7690 C   0  0  0  0  0  0  0  0  0  0  0  0
  142.9560   76.0960  217.1670 C   0  0  0  0  0  0  0  0  0  0  0  0
  143.6180   75.2140  218.1940 C   0  0  0  0  0  0  0  0  0  0  0  0
  144.4590   74.1780  217.7570 C   0  0  0  0  0  0  0  0  0  0  0  0
  145.0510   73.2970  218.6810 C   0  0  0  0  0  0  0  0  0  0  0  0
  145.9010   72.2530  218.2870 O   0  0  0  0  0  0  0  0  0  0  0  0
  145.5570   70.8720  218.3360 C   0  0  0  0  0  0  0  0  0  0  0  0
  144.7860   73.4580  220.0430 C   0  0  0  0  0  0  0  0  0  0  0  0
  143.9390   74.4760  220.4860 C   0  0  0  0  0  0  0  0  0  0  0  0
  143.3320   75.3480  219.5700 C   0  0  0  0  0  0  0  0  0  0  0  0
  142.4670   76.4710  220.0940 C   0  0  0  0  0  0  0  0  0  0  0  0
  139.1947   78.0625  221.7464 H   0  0  0  0  0  0  0  0  0  0  0  0
  137.7231   77.5592  220.8478 H   0  0  0  0  0  0  0  0  0  0  0  0
  139.1791   76.5072  220.8478 H   0  0  0  0  0  0  0  0  0  0  0  0
  138.9466   77.7448  218.7127 H   0  0  0  0  0  0  0  0  0  0  0  0
  138.9981   79.3080  219.6648 H   0  0  0  0  0  0  0  0  0  0  0  0
  142.1778   79.3810  218.2917 H   0  0  0  0  0  0  0  0  0  0  0  0
  140.4862   80.0881  218.4772 H   0  0  0  0  0  0  0  0  0  0  0  0
  142.9333   80.7072  219.9410 H   0  0  0  0  0  0  0  0  0  0  0  0
  141.3203   81.5556  219.8720 H   0  0  0  0  0  0  0  0  0  0  0  0
  143.4564   79.1986  221.7453 H   0  0  0  0  0  0  0  0  0  0  0  0
  142.9576   78.4952  224.0832 H   0  0  0  0  0  0  0  0  0  0  0  0
  140.7585   79.0446  225.1164 H   0  0  0  0  0  0  0  0  0  0  0  0
  137.3345   81.7705  224.3506 H   0  0  0  0  0  0  0  0  0  0  0  0
  138.3407   82.0344  222.8861 H   0  0  0  0  0  0  0  0  0  0  0  0
  137.0706   80.7643  222.8861 H   0  0  0  0  0  0  0  0  0  0  0  0
  139.5143   80.9720  221.4456 H   0  0  0  0  0  0  0  0  0  0  0  0
  140.7254   76.3414  218.7956 H   0  0  0  0  0  0  0  0  0  0  0  0
  141.7428   77.8724  217.0166 H   0  0  0  0  0  0  0  0  0  0  0  0
  143.2066   78.0306  218.0682 H   0  0  0  0  0  0  0  0  0  0  0  0
  142.1415   75.5302  216.6910 H   0  0  0  0  0  0  0  0  0  0  0  0
  143.7268   76.3930  216.4406 H   0  0  0  0  0  0  0  0  0  0  0  0
  144.6570   74.0538  216.6821 H   0  0  0  0  0  0  0  0  0  0  0  0
  145.4771   70.5510  219.3851 H   0  0  0  0  0  0  0  0  0  0  0  0
  144.5926   70.7162  217.8304 H   0  0  0  0  0  0  0  0  0  0  0  0
  146.3356   70.2820  217.8304 H   0  0  0  0  0  0  0  0  0  0  0  0
  145.2484   72.7771  220.7728 H   0  0  0  0  0  0  0  0  0  0  0  0
  143.7461   74.5951  221.5624 H   0  0  0  0  0  0  0  0  0  0  0  0
  141.8559   76.0833  220.9224 H   0  0  0  0  0  0  0  0  0  0  0  0
  143.1416   77.2773  220.4177 H   0  0  0  0  0  0  0  0  0  0  0  0
  1  2  1  0
  2  3  1  0
  3  4  1  0
  4  5  1  0
  5  6  1  0
  6  7  2  0
  7  8  1  0
  8  9  2  0
  9 10  1  0
 10 11  1  0
 11 12  1  0
 10 13  2  0
  3 14  1  0
 14 15  1  0
 15 16  1  0
 16 17  1  0
 17 18  2  0
 18 19  1  0
 19 20  1  0
 20 21  1  0
 19 22  2  0
 22 23  1  0
 23 24  2  0
 24 25  1  0
 13  6  1  0
 25 14  1  0
 24 17  1  0
  1 26  1  0
  1 27  1  0
  1 28  1  0
  2 29  1  0
  2 30  1  0
  4 31  1  0
  4 32  1  0
  5 33  1  0
  5 34  1  0
  7 35  1  0
  8 36  1  0
  9 37  1  0
 12 38  1  0
 12 39  1  0
 12 40  1  0
 13 41  1  0
 14 42  1  6
 15 43  1  0
 15 44  1  0
 16 45  1  0
 16 46  1  0
 18 47  1  0
 21 48  1  0
 21 49  1  0
 21 50  1  0
 22 51  1  0
 23 52  1  0
 25 53  1  0
 25 54  1  0
M  END
>  <UniqueID>  (62) 
28

>  <SMILES>  (62) 
CCN(CCc1cccc(OC)c1)[C@H]1CCc2cc(OC)ccc2C1

>  <Energy>  (62) 
65.60821063572106

>  <Genealogy>  (62) 
CCN(CCc1cccc(OC)c1)[C@H]1CCc2cc(OC)ccc2C1 (chirality)
CCN(CCc1cccc(OC)c1)[C@H]1CCc2cc(OC)ccc2C1 (3D coordinates assigned)
CCN(CCc1cccc(OC)c1)[C@H]1CCc2cc(OC)ccc2C1 (nonaromatic ring conformer: 65.60821063572106 kcal/mol)

>  <smiles>  (62) 
CCN(CCc1cccc(OC)c1)C1CCc2cc(OC)ccc2C1

>  <score_type>  (62) 
oracle

>  <origin>  (62) 
autodockgpu

>  <m_score__min__energy>  (62) 
-6.0700000000000003

>  <m_primary>  (62) 
energy

>  <meeko>  (62) 
{"free_energy": -5.23, "intermolecular_energy": -7.32, "internal_energy": -1.38, "cluster_size": 6, "cluster_id": 4, "rank_in_cluster": 6}

>  <energy>  (62) 
-5.67

>  <cluster_rmsd>  (62) 
1.76

>  <rmsd>  (62) 
270.51

>  <cluster>  (62) 
1

$$$$
MXOKLQPDPZBAAI-FQEVSTJZNA-N
     RDKit          3D

 54 56  0  0  0  0  0  0  0  0999 V2000
  142.7600   80.5150  223.8180 C   0  0  0  0  0  0  0  0  0  0  0  0
  141.5570   79.6190  223.5070 C   0  0  0  0  0  0  0  0  0  0  0  0
  140.7420   80.0790  222.3530 N   0  0  0  0  0  0  0  0  0  0  0  0
  139.3110   80.3010  222.6980 C   0  0  0  0  0  0  0  0  0  0  0  0
  138.5390   79.0460  223.1900 C   0  0  0  0  0  0  0  0  0  0  0  0
  138.7100   77.8510  222.2820 C   0  0  0  0  0  0  0  0  0  0  0  0
  138.1440   77.8550  220.9970 C   0  0  0  0  0  0  0  0  0  0  0  0
  138.3070   76.7570  220.1510 C   0  0  0  0  0  0  0  0  0  0  0  0
  139.0270   75.6410  220.5820 C   0  0  0  0  0  0  0  0  0  0  0  0
  139.5830   75.6070  221.8650 C   0  0  0  0  0  0  0  0  0  0  0  0
  140.2990   74.4630  222.2510 O   0  0  0  0  0  0  0  0  0  0  0  0
  140.9990   73.6100  221.3520 C   0  0  0  0  0  0  0  0  0  0  0  0
  139.4100   76.7130  222.7200 C   0  0  0  0  0  0  0  0  0  0  0  0
  141.0190   79.4620  221.0190 C   0  0  1  0  0  0  0  0  0  0  0  0
  141.8390   80.4330  220.1370 C   0  0  0  0  0  0  0  0  0  0  0  0
  141.9860   79.8960  218.7110 C   0  0  0  0  0  0  0  0  0  0  0  0
  142.4340   78.4580  218.6700 C   0  0  0  0  0  0  0  0  0  0  0  0
  142.9100   77.9310  217.4590 C   0  0  0  0  0  0  0  0  0  0  0  0
  143.2840   76.5770  217.3630 C   0  0  0  0  0  0  0  0  0  0  0  0
  143.7690   76.0120  216.1750 O   0  0  0  0  0  0  0  0  0  0  0  0
  144.0710   76.7520  214.9960 C   0  0  0  0  0  0  0  0  0  0  0  0
  143.1690   75.7570  218.4890 C   0  0  0  0  0  0  0  0  0  0  0  0
  142.6830   76.2690  219.6930 C   0  0  0  0  0  0  0  0  0  0  0  0
  142.2920   77.6120  219.7920 C   0  0  0  0  0  0  0  0  0  0  0  0
  141.8240   78.1410  221.1270 C   0  0  0  0  0  0  0  0  0  0  0  0
  142.8791   80.6037  224.9079 H   0  0  0  0  0  0  0  0  0  0  0  0
  143.6689   80.0720  223.3847 H   0  0  0  0  0  0  0  0  0  0  0  0
  142.5959   81.5126  223.3847 H   0  0  0  0  0  0  0  0  0  0  0  0
  141.9275   78.6069  223.2870 H   0  0  0  0  0  0  0  0  0  0  0  0
  140.9021   79.6482  224.3904 H   0  0  0  0  0  0  0  0  0  0  0  0
  139.2680   81.0589  223.4940 H   0  0  0  0  0  0  0  0  0  0  0  0
  138.8197   80.6106  221.7638 H   0  0  0  0  0  0  0  0  0  0  0  0
  138.9063   78.7796  224.1921 H   0  0  0  0  0  0  0  0  0  0  0  0
  137.4691   79.3014  223.1978 H   0  0  0  0  0  0  0  0  0  0  0  0
  137.5690   78.7283  220.6553 H   0  0  0  0  0  0  0  0  0  0  0  0
  137.8674   76.7708  219.1427 H   0  0  0  0  0  0  0  0  0  0  0  0
  139.1579   74.7820  219.9074 H   0  0  0  0  0  0  0  0  0  0  0  0
  141.5949   72.8839  221.9244 H   0  0  0  0  0  0  0  0  0  0  0  0
  140.2773   73.0737  220.7184 H   0  0  0  0  0  0  0  0  0  0  0  0
  141.6658   74.2132  220.7184 H   0  0  0  0  0  0  0  0  0  0  0  0
  139.8257   76.6862  223.7381 H   0  0  0  0  0  0  0  0  0  0  0  0
  140.0362   79.2478  220.5738 H   0  0  0  0  0  0  0  0  0  0  0  0
  141.3270   81.4060  220.1029 H   0  0  0  0  0  0  0  0  0  0  0  0
  142.8427   80.5378  220.5748 H   0  0  0  0  0  0  0  0  0  0  0  0
  141.0130   79.9752  218.2039 H   0  0  0  0  0  0  0  0  0  0  0  0
  142.7587   80.4972  218.2095 H   0  0  0  0  0  0  0  0  0  0  0  0
  142.9916   78.5824  216.5764 H   0  0  0  0  0  0  0  0  0  0  0  0
  144.4731   77.7373  215.2744 H   0  0  0  0  0  0  0  0  0  0  0  0
  144.8181   76.2057  214.4015 H   0  0  0  0  0  0  0  0  0  0  0  0
  143.1550   76.8845  214.4015 H   0  0  0  0  0  0  0  0  0  0  0  0
  143.4640   74.6992  218.4257 H   0  0  0  0  0  0  0  0  0  0  0  0
  142.6059   75.6128  220.5725 H   0  0  0  0  0  0  0  0  0  0  0  0
  141.1841   77.3805  221.5983 H   0  0  0  0  0  0  0  0  0  0  0  0
  142.7227   78.3566  221.7236 H   0  0  0  0  0  0  0  0  0  0  0  0
  1  2  1  0
  2  3  1  0
  3  4  1  0
  4  5  1  0
  5  6  1  0
  6  7  2  0
  7  8  1  0
  8  9  2  0
  9 10  1  0
 10 11  1  0
 11 12  1  0
 10 13  2  0
  3 14  1  0
 14 15  1  0
 15 16  1  0
 16 17  1  0
 17 18  2  0
 18 19  1  0
 19 20  1  0
 20 21  1  0
 19 22  2  0
 22 23  1  0
 23 24  2  0
 24 25  1  0
 13  6  1  0
 25 14  1  0
 24 17  1  0
  1 26  1  0
  1 27  1  0
  1 28  1  0
  2 29  1  0
  2 30  1  0
  4 31  1  0
  4 32  1  0
  5 33  1  0
  5 34  1  0
  7 35  1  0
  8 36  1  0
  9 37  1  0
 12 38  1  0
 12 39  1  0
 12 40  1  0
 13 41  1  0
 14 42  1  6
 15 43  1  0
 15 44  1  0
 16 45  1  0
 16 46  1  0
 18 47  1  0
 21 48  1  0
 21 49  1  0
 21 50  1  0
 22 51  1  0
 23 52  1  0
 25 53  1  0
 25 54  1  0
M  END
>  <UniqueID>  (63) 
28

>  <SMILES>  (63) 
CCN(CCc1cccc(OC)c1)[C@H]1CCc2cc(OC)ccc2C1

>  <Energy>  (63) 
65.60821063572106

>  <Genealogy>  (63) 
CCN(CCc1cccc(OC)c1)[C@H]1CCc2cc(OC)ccc2C1 (chirality)
CCN(CCc1cccc(OC)c1)[C@H]1CCc2cc(OC)ccc2C1 (3D coordinates assigned)
CCN(CCc1cccc(OC)c1)[C@H]1CCc2cc(OC)ccc2C1 (nonaromatic ring conformer: 65.60821063572106 kcal/mol)

>  <smiles>  (63) 
CCN(CCc1cccc(OC)c1)C1CCc2cc(OC)ccc2C1

>  <score_type>  (63) 
oracle

>  <origin>  (63) 
autodockgpu

>  <m_score__min__energy>  (63) 
-6.0700000000000003

>  <m_primary>  (63) 
energy

>  <meeko>  (63) 
{"free_energy": -4.92, "intermolecular_energy": -7.01, "internal_energy": -1.75, "cluster_size": 2, "cluster_id": 6, "rank_in_cluster": 1}

>  <energy>  (63) 
-5.57

>  <cluster_rmsd>  (63) 
1.76

>  <rmsd>  (63) 
270.79

>  <cluster>  (63) 
1

$$$$
MXOKLQPDPZBAAI-FQEVSTJZNA-N
     RDKit          3D

 54 56  0  0  0  0  0  0  0  0999 V2000
  142.9140   80.5330  223.7920 C   0  0  0  0  0  0  0  0  0  0  0  0
  141.6470   79.7090  223.5490 C   0  0  0  0  0  0  0  0  0  0  0  0
  140.8150   80.1960  222.4180 N   0  0  0  0  0  0  0  0  0  0  0  0
  139.4120   80.5020  222.8110 C   0  0  0  0  0  0  0  0  0  0  0  0
  138.5730   79.2860  223.2920 C   0  0  0  0  0  0  0  0  0  0  0  0
  138.6350   78.1120  222.3450 C   0  0  0  0  0  0  0  0  0  0  0  0
  138.0220   78.1890  221.0830 C   0  0  0  0  0  0  0  0  0  0  0  0
  138.0850   77.1090  220.2020 C   0  0  0  0  0  0  0  0  0  0  0  0
  138.7500   75.9380  220.5720 C   0  0  0  0  0  0  0  0  0  0  0  0
  139.3500   75.8310  221.8310 C   0  0  0  0  0  0  0  0  0  0  0  0
  140.0080   74.6350  222.1560 O   0  0  0  0  0  0  0  0  0  0  0  0
  140.7110   73.8230  221.2220 C   0  0  0  0  0  0  0  0  0  0  0  0
  139.2780   76.9200  222.7220 C   0  0  0  0  0  0  0  0  0  0  0  0
  141.0080   79.5460  221.0840 C   0  0  1  0  0  0  0  0  0  0  0  0
  141.7760   80.4910  220.1310 C   0  0  0  0  0  0  0  0  0  0  0  0
  141.8340   79.9200  218.7130 C   0  0  0  0  0  0  0  0  0  0  0  0
  142.2730   78.4790  218.6790 C   0  0  0  0  0  0  0  0  0  0  0  0
  142.6730   77.9210  217.4540 C   0  0  0  0  0  0  0  0  0  0  0  0
  143.0360   76.5640  217.3690 C   0  0  0  0  0  0  0  0  0  0  0  0
  143.4460   75.9680  216.1670 O   0  0  0  0  0  0  0  0  0  0  0  0
  144.0560   76.6690  215.0880 C   0  0  0  0  0  0  0  0  0  0  0  0
  142.9880   75.7720  218.5190 C   0  0  0  0  0  0  0  0  0  0  0  0
  142.5780   76.3140  219.7380 C   0  0  0  0  0  0  0  0  0  0  0  0
  142.1970   77.6620  219.8280 C   0  0  0  0  0  0  0  0  0  0  0  0
  141.8140   78.2250  221.1760 C   0  0  0  0  0  0  0  0  0  0  0  0
  143.0795   80.6406  224.8742 H   0  0  0  0  0  0  0  0  0  0  0  0
  143.7762   80.0223  223.3382 H   0  0  0  0  0  0  0  0  0  0  0  0
  142.7968   81.5282  223.3382 H   0  0  0  0  0  0  0  0  0  0  0  0
  141.9448   78.6715  223.3372 H   0  0  0  0  0  0  0  0  0  0  0  0
  141.0319   79.7972  224.4567 H   0  0  0  0  0  0  0  0  0  0  0  0
  139.4415   81.2381  223.6279 H   0  0  0  0  0  0  0  0  0  0  0  0
  138.9164   80.8704  221.9007 H   0  0  0  0  0  0  0  0  0  0  0  0
  138.9527   78.9648  224.2731 H   0  0  0  0  0  0  0  0  0  0  0  0
  137.5234   79.6112  223.3430 H   0  0  0  0  0  0  0  0  0  0  0  0
  137.4898   79.1054  220.7881 H   0  0  0  0  0  0  0  0  0  0  0  0
  137.6093   77.1801  219.2127 H   0  0  0  0  0  0  0  0  0  0  0  0
  138.8023   75.0940  219.8685 H   0  0  0  0  0  0  0  0  0  0  0  0
  141.3375   73.0993  221.7640 H   0  0  0  0  0  0  0  0  0  0  0  0
  139.9904   73.2832  220.5901 H   0  0  0  0  0  0  0  0  0  0  0  0
  141.3484   74.4589  220.5901 H   0  0  0  0  0  0  0  0  0  0  0  0
  139.7290   76.8368  223.7218 H   0  0  0  0  0  0  0  0  0  0  0  0
  139.9994   79.3263  220.7039 H   0  0  0  0  0  0  0  0  0  0  0  0
  141.2665   81.4655  220.1047 H   0  0  0  0  0  0  0  0  0  0  0  0
  142.8049   80.6009  220.5043 H   0  0  0  0  0  0  0  0  0  0  0  0
  140.8324   79.9925  218.2641 H   0  0  0  0  0  0  0  0  0  0  0  0
  142.5773   80.5050  218.1516 H   0  0  0  0  0  0  0  0  0  0  0  0
  142.7029   78.5505  216.5524 H   0  0  0  0  0  0  0  0  0  0  0  0
  144.7289   77.4423  215.4869 H   0  0  0  0  0  0  0  0  0  0  0  0
  144.6327   75.9635  214.4718 H   0  0  0  0  0  0  0  0  0  0  0  0
  143.2776   77.1427  214.4718 H   0  0  0  0  0  0  0  0  0  0  0  0
  143.2759   74.7118  218.4631 H   0  0  0  0  0  0  0  0  0  0  0  0
  142.5532   75.6793  220.6361 H   0  0  0  0  0  0  0  0  0  0  0  0
  141.2022   77.4791  221.7045 H   0  0  0  0  0  0  0  0  0  0  0  0
  142.7480   78.4507  221.7114 H   0  0  0  0  0  0  0  0  0  0  0  0
  1  2  1  0
  2  3  1  0
  3  4  1  0
  4  5  1  0
  5  6  1  0
  6  7  2  0
  7  8  1  0
  8  9  2  0
  9 10  1  0
 10 11  1  0
 11 12  1  0
 10 13  2  0
  3 14  1  0
 14 15  1  0
 15 16  1  0
 16 17  1  0
 17 18  2  0
 18 19  1  0
 19 20  1  0
 20 21  1  0
 19 22  2  0
 22 23  1  0
 23 24  2  0
 24 25  1  0
 13  6  1  0
 25 14  1  0
 24 17  1  0
  1 26  1  0
  1 27  1  0
  1 28  1  0
  2 29  1  0
  2 30  1  0
  4 31  1  0
  4 32  1  0
  5 33  1  0
  5 34  1  0
  7 35  1  0
  8 36  1  0
  9 37  1  0
 12 38  1  0
 12 39  1  0
 12 40  1  0
 13 41  1  0
 14 42  1  6
 15 43  1  0
 15 44  1  0
 16 45  1  0
 16 46  1  0
 18 47  1  0
 21 48  1  0
 21 49  1  0
 21 50  1  0
 22 51  1  0
 23 52  1  0
 25 53  1  0
 25 54  1  0
M  END
>  <UniqueID>  (64) 
28

>  <SMILES>  (64) 
CCN(CCc1cccc(OC)c1)[C@H]1CCc2cc(OC)ccc2C1

>  <Energy>  (64) 
65.60821063572106

>  <Genealogy>  (64) 
CCN(CCc1cccc(OC)c1)[C@H]1CCc2cc(OC)ccc2C1 (chirality)
CCN(CCc1cccc(OC)c1)[C@H]1CCc2cc(OC)ccc2C1 (3D coordinates assigned)
CCN(CCc1cccc(OC)c1)[C@H]1CCc2cc(OC)ccc2C1 (nonaromatic ring conformer: 65.60821063572106 kcal/mol)

>  <smiles>  (64) 
CCN(CCc1cccc(OC)c1)C1CCc2cc(OC)ccc2C1

>  <score_type>  (64) 
oracle

>  <origin>  (64) 
autodockgpu

>  <m_score__min__energy>  (64) 
-6.0700000000000003

>  <m_primary>  (64) 
energy

>  <meeko>  (64) 
{"free_energy": -4.9, "intermolecular_energy": -6.99, "internal_energy": -1.75, "cluster_size": 2, "cluster_id": 6, "rank_in_cluster": 2}

>  <energy>  (64) 
-6.02

>  <cluster_rmsd>  (64) 
0.0

>  <rmsd>  (64) 
271.19

>  <cluster>  (64) 
2

$$$$
MXOKLQPDPZBAAI-FQEVSTJZNA-N
     RDKit          3D

 54 56  0  0  0  0  0  0  0  0999 V2000
  140.9070   79.9360  216.2730 C   0  0  0  0  0  0  0  0  0  0  0  0
  140.3940   78.9330  217.3100 C   0  0  0  0  0  0  0  0  0  0  0  0
  141.4120   78.5260  218.3130 N   0  0  0  0  0  0  0  0  0  0  0  0
  142.3510   79.6230  218.6750 C   0  0  0  0  0  0  0  0  0  0  0  0
  141.8350   80.6160  219.7520 C   0  0  0  0  0  0  0  0  0  0  0  0
  141.8270   80.0300  221.1430 C   0  0  0  0  0  0  0  0  0  0  0  0
  142.3300   80.7730  222.2250 C   0  0  0  0  0  0  0  0  0  0  0  0
  142.3160   80.2380  223.5140 C   0  0  0  0  0  0  0  0  0  0  0  0
  141.8110   78.9560  223.7360 C   0  0  0  0  0  0  0  0  0  0  0  0
  141.3240   78.1900  222.6720 C   0  0  0  0  0  0  0  0  0  0  0  0
  140.8260   76.9070  222.9460 O   0  0  0  0  0  0  0  0  0  0  0  0
  140.3850   75.9860  221.9550 C   0  0  0  0  0  0  0  0  0  0  0  0
  141.3470   78.7280  221.3700 C   0  0  0  0  0  0  0  0  0  0  0  0
  142.0030   77.1570  218.1860 C   0  0  1  0  0  0  0  0  0  0  0  0
  142.9000   77.0720  216.9290 C   0  0  0  0  0  0  0  0  0  0  0  0
  143.3750   75.6380  216.6830 C   0  0  0  0  0  0  0  0  0  0  0  0
  143.9400   74.9890  217.9190 C   0  0  0  0  0  0  0  0  0  0  0  0
  144.6920   73.8110  217.7820 C   0  0  0  0  0  0  0  0  0  0  0  0
  145.1890   73.1420  218.9160 C   0  0  0  0  0  0  0  0  0  0  0  0
  145.9500   71.9660  218.8240 O   0  0  0  0  0  0  0  0  0  0  0  0
  145.4170   70.6510  218.9460 C   0  0  0  0  0  0  0  0  0  0  0  0
  144.9200   73.6590  220.1860 C   0  0  0  0  0  0  0  0  0  0  0  0
  144.1600   74.8200  220.3330 C   0  0  0  0  0  0  0  0  0  0  0  0
  143.6460   75.4840  219.2090 C   0  0  0  0  0  0  0  0  0  0  0  0
  142.8770   76.7690  219.4070 C   0  0  0  0  0  0  0  0  0  0  0  0
  141.3497   80.8015  216.7877 H   0  0  0  0  0  0  0  0  0  0  0  0
  141.6696   79.4545  215.6431 H   0  0  0  0  0  0  0  0  0  0  0  0
  140.0703   80.2725  215.6431 H   0  0  0  0  0  0  0  0  0  0  0  0
  139.5467   79.3893  217.8428 H   0  0  0  0  0  0  0  0  0  0  0  0
  140.1087   78.0243  216.7596 H   0  0  0  0  0  0  0  0  0  0  0  0
  143.2776   79.1655  219.0519 H   0  0  0  0  0  0  0  0  0  0  0  0
  142.4903   80.2161  217.7591 H   0  0  0  0  0  0  0  0  0  0  0  0
  142.4849   81.5035  219.7498 H   0  0  0  0  0  0  0  0  0  0  0  0
  140.7949   80.8662  219.4957 H   0  0  0  0  0  0  0  0  0  0  0  0
  142.7366   81.7809  222.0550 H   0  0  0  0  0  0  0  0  0  0  0  0
  142.7040   80.8283  224.3572 H   0  0  0  0  0  0  0  0  0  0  0  0
  141.7959   78.5447  224.7561 H   0  0  0  0  0  0  0  0  0  0  0  0
  139.9594   75.0972  222.4439 H   0  0  0  0  0  0  0  0  0  0  0  0
  139.6173   76.4623  221.3275 H   0  0  0  0  0  0  0  0  0  0  0  0
  141.2374   75.6865  221.3275 H   0  0  0  0  0  0  0  0  0  0  0  0
  140.9864   78.1244  220.5240 H   0  0  0  0  0  0  0  0  0  0  0  0
  141.1517   76.4637  218.1185 H   0  0  0  0  0  0  0  0  0  0  0  0
  142.3264   77.4147  216.0552 H   0  0  0  0  0  0  0  0  0  0  0  0
  143.7829   77.7086  217.0878 H   0  0  0  0  0  0  0  0  0  0  0  0
  142.5209   75.0405  216.3317 H   0  0  0  0  0  0  0  0  0  0  0  0
  144.1798   75.6801  215.9343 H   0  0  0  0  0  0  0  0  0  0  0  0
  144.8945   73.4074  216.7790 H   0  0  0  0  0  0  0  0  0  0  0  0
  145.3132   70.3948  220.0107 H   0  0  0  0  0  0  0  0  0  0  0  0
  144.4307   70.6086  218.4608 H   0  0  0  0  0  0  0  0  0  0  0  0
  146.0955   69.9339  218.4608 H   0  0  0  0  0  0  0  0  0  0  0  0
  145.3107   73.1464  221.0774 H   0  0  0  0  0  0  0  0  0  0  0  0
  143.9621   75.2182  221.3391 H   0  0  0  0  0  0  0  0  0  0  0  0
  142.2212   76.6517  220.2823 H   0  0  0  0  0  0  0  0  0  0  0  0
  143.6159   77.5719  219.5463 H   0  0  0  0  0  0  0  0  0  0  0  0
  1  2  1  0
  2  3  1  0
  3  4  1  0
  4  5  1  0
  5  6  1  0
  6  7  2  0
  7  8  1  0
  8  9  2  0
  9 10  1  0
 10 11  1  0
 11 12  1  0
 10 13  2  0
  3 14  1  0
 14 15  1  0
 15 16  1  0
 16 17  1  0
 17 18  2  0
 18 19  1  0
 19 20  1  0
 20 21  1  0
 19 22  2  0
 22 23  1  0
 23 24  2  0
 24 25  1  0
 13  6  1  0
 25 14  1  0
 24 17  1  0
  1 26  1  0
  1 27  1  0
  1 28  1  0
  2 29  1  0
  2 30  1  0
  4 31  1  0
  4 32  1  0
  5 33  1  0
  5 34  1  0
  7 35  1  0
  8 36  1  0
  9 37  1  0
 12 38  1  0
 12 39  1  0
 12 40  1  0
 13 41  1  0
 14 42  1  6
 15 43  1  0
 15 44  1  0
 16 45  1  0
 16 46  1  0
 18 47  1  0
 21 48  1  0
 21 49  1  0
 21 50  1  0
 22 51  1  0
 23 52  1  0
 25 53  1  0
 25 54  1  0
M  END
>  <UniqueID>  (65) 
28

>  <SMILES>  (65) 
CCN(CCc1cccc(OC)c1)[C@H]1CCc2cc(OC)ccc2C1

>  <Energy>  (65) 
65.60821063572106

>  <Genealogy>  (65) 
CCN(CCc1cccc(OC)c1)[C@H]1CCc2cc(OC)ccc2C1 (chirality)
CCN(CCc1cccc(OC)c1)[C@H]1CCc2cc(OC)ccc2C1 (3D coordinates assigned)
CCN(CCc1cccc(OC)c1)[C@H]1CCc2cc(OC)ccc2C1 (nonaromatic ring conformer: 65.60821063572106 kcal/mol)

>  <smiles>  (65) 
CCN(CCc1cccc(OC)c1)C1CCc2cc(OC)ccc2C1

>  <score_type>  (65) 
oracle

>  <origin>  (65) 
autodockgpu

>  <m_score__min__energy>  (65) 
-6.0700000000000003

>  <m_primary>  (65) 
energy

>  <meeko>  (65) 
{"free_energy": -5.69, "intermolecular_energy": -7.77, "internal_energy": -1.24, "cluster_size": 6, "cluster_id": 4, "rank_in_cluster": 3}

>  <energy>  (65) 
-5.88

>  <cluster_rmsd>  (65) 
0.0

>  <rmsd>  (65) 
270.25

>  <cluster>  (65) 
3

$$$$
MXOKLQPDPZBAAI-FQEVSTJZNA-N
     RDKit          3D

 54 56  0  0  0  0  0  0  0  0999 V2000
  137.4810   75.4990  222.4050 C   0  0  0  0  0  0  0  0  0  0  0  0
  138.5710   74.7850  221.6010 C   0  0  0  0  0  0  0  0  0  0  0  0
  139.9490   75.2580  221.8960 N   0  0  0  0  0  0  0  0  0  0  0  0
  140.2050   76.6490  221.4280 C   0  0  0  0  0  0  0  0  0  0  0  0
  139.6120   77.7730  222.3210 C   0  0  0  0  0  0  0  0  0  0  0  0
  140.6050   78.8680  222.6320 C   0  0  0  0  0  0  0  0  0  0  0  0
  141.5230   78.7100  223.6840 C   0  0  0  0  0  0  0  0  0  0  0  0
  142.4480   79.7150  223.9680 C   0  0  0  0  0  0  0  0  0  0  0  0
  142.4600   80.8910  223.2160 C   0  0  0  0  0  0  0  0  0  0  0  0
  141.5420   81.0780  222.1770 C   0  0  0  0  0  0  0  0  0  0  0  0
  141.5960   82.2760  221.4480 O   0  0  0  0  0  0  0  0  0  0  0  0
  140.4680   83.0970  221.1650 C   0  0  0  0  0  0  0  0  0  0  0  0
  140.6040   80.0660  221.8960 C   0  0  0  0  0  0  0  0  0  0  0  0
  141.0690   74.2810  221.7270 C   0  0  1  0  0  0  0  0  0  0  0  0
  140.5640   72.9990  221.0250 C   0  0  0  0  0  0  0  0  0  0  0  0
  141.6480   71.9190  220.9960 C   0  0  0  0  0  0  0  0  0  0  0  0
  142.9760   72.4360  220.5100 C   0  0  0  0  0  0  0  0  0  0  0  0
  143.9660   71.5130  220.1340 C   0  0  0  0  0  0  0  0  0  0  0  0
  145.2400   71.9520  219.7280 C   0  0  0  0  0  0  0  0  0  0  0  0
  146.2540   71.0650  219.3400 O   0  0  0  0  0  0  0  0  0  0  0  0
  146.0310   69.7250  218.9100 C   0  0  0  0  0  0  0  0  0  0  0  0
  145.5140   73.3220  219.7100 C   0  0  0  0  0  0  0  0  0  0  0  0
  144.5420   74.2460  220.0960 C   0  0  0  0  0  0  0  0  0  0  0  0
  143.2750   73.8150  220.5180 C   0  0  0  0  0  0  0  0  0  0  0  0
  142.2330   74.8490  220.8730 C   0  0  0  0  0  0  0  0  0  0  0  0
  137.6755   75.3716  223.4801 H   0  0  0  0  0  0  0  0  0  0  0  0
  137.4843   76.5705  222.1562 H   0  0  0  0  0  0  0  0  0  0  0  0
  136.5001   75.0679  222.1562 H   0  0  0  0  0  0  0  0  0  0  0  0
  138.5188   73.7097  221.8268 H   0  0  0  0  0  0  0  0  0  0  0  0
  138.3795   75.0054  220.5404 H   0  0  0  0  0  0  0  0  0  0  0  0
  141.2941   76.7949  221.3776 H   0  0  0  0  0  0  0  0  0  0  0  0
  139.7010   76.7384  220.4543 H   0  0  0  0  0  0  0  0  0  0  0  0
  138.7521   78.2180  221.7989 H   0  0  0  0  0  0  0  0  0  0  0  0
  139.3203   77.3133  223.2768 H   0  0  0  0  0  0  0  0  0  0  0  0
  141.5123   77.7897  224.2864 H   0  0  0  0  0  0  0  0  0  0  0  0
  143.1700   79.5803  224.7869 H   0  0  0  0  0  0  0  0  0  0  0  0
  143.1965   81.6762  223.4420 H   0  0  0  0  0  0  0  0  0  0  0  0
  140.0108   83.4298  222.1085 H   0  0  0  0  0  0  0  0  0  0  0  0
  140.7893   83.9740  220.5839 H   0  0  0  0  0  0  0  0  0  0  0  0
  139.7323   82.5216  220.5839 H   0  0  0  0  0  0  0  0  0  0  0  0
  139.8650   80.2138  221.0947 H   0  0  0  0  0  0  0  0  0  0  0  0
  141.4384   74.0647  222.7403 H   0  0  0  0  0  0  0  0  0  0  0  0
  139.6885   72.6138  221.5682 H   0  0  0  0  0  0  0  0  0  0  0  0
  140.2973   73.2521  219.9883 H   0  0  0  0  0  0  0  0  0  0  0  0
  141.7766   71.5231  222.0142 H   0  0  0  0  0  0  0  0  0  0  0  0
  141.3193   71.1396  220.2928 H   0  0  0  0  0  0  0  0  0  0  0  0
  143.7432   70.4361  220.1572 H   0  0  0  0  0  0  0  0  0  0  0  0
  145.9222   69.0714  219.7881 H   0  0  0  0  0  0  0  0  0  0  0  0
  145.1133   69.6820  218.3050 H   0  0  0  0  0  0  0  0  0  0  0  0
  146.8853   69.3871  218.3050 H   0  0  0  0  0  0  0  0  0  0  0  0
  146.5049   73.6754  219.3887 H   0  0  0  0  0  0  0  0  0  0  0  0
  144.7710   75.3216  220.0692 H   0  0  0  0  0  0  0  0  0  0  0  0
  142.7208   75.6554  221.4403 H   0  0  0  0  0  0  0  0  0  0  0  0
  141.7980   75.2097  219.9292 H   0  0  0  0  0  0  0  0  0  0  0  0
  1  2  1  0
  2  3  1  0
  3  4  1  0
  4  5  1  0
  5  6  1  0
  6  7  2  0
  7  8  1  0
  8  9  2  0
  9 10  1  0
 10 11  1  0
 11 12  1  0
 10 13  2  0
  3 14  1  0
 14 15  1  0
 15 16  1  0
 16 17  1  0
 17 18  2  0
 18 19  1  0
 19 20  1  0
 20 21  1  0
 19 22  2  0
 22 23  1  0
 23 24  2  0
 24 25  1  0
 13  6  1  0
 25 14  1  0
 24 17  1  0
  1 26  1  0
  1 27  1  0
  1 28  1  0
  2 29  1  0
  2 30  1  0
  4 31  1  0
  4 32  1  0
  5 33  1  0
  5 34  1  0
  7 35  1  0
  8 36  1  0
  9 37  1  0
 12 38  1  0
 12 39  1  0
 12 40  1  0
 13 41  1  0
 14 42  1  1
 15 43  1  0
 15 44  1  0
 16 45  1  0
 16 46  1  0
 18 47  1  0
 21 48  1  0
 21 49  1  0
 21 50  1  0
 22 51  1  0
 23 52  1  0
 25 53  1  0
 25 54  1  0
M  END
>  <UniqueID>  (66) 
28

>  <SMILES>  (66) 
CCN(CCc1cccc(OC)c1)[C@H]1CCc2cc(OC)ccc2C1

>  <Energy>  (66) 
65.60821063572106

>  <Genealogy>  (66) 
CCN(CCc1cccc(OC)c1)[C@H]1CCc2cc(OC)ccc2C1 (chirality)
CCN(CCc1cccc(OC)c1)[C@H]1CCc2cc(OC)ccc2C1 (3D coordinates assigned)
CCN(CCc1cccc(OC)c1)[C@H]1CCc2cc(OC)ccc2C1 (nonaromatic ring conformer: 65.60821063572106 kcal/mol)

>  <smiles>  (66) 
CCN(CCc1cccc(OC)c1)C1CCc2cc(OC)ccc2C1

>  <score_type>  (66) 
oracle

>  <origin>  (66) 
autodockgpu

>  <m_score__min__energy>  (66) 
-6.0700000000000003

>  <m_primary>  (66) 
energy

>  <meeko>  (66) 
{"free_energy": -6.07, "intermolecular_energy": -8.16, "internal_energy": -0.75, "cluster_size": 3, "cluster_id": 1, "rank_in_cluster": 1}

>  <energy>  (66) 
-5.86

>  <cluster_rmsd>  (66) 
0.0

>  <rmsd>  (66) 
270.62

>  <cluster>  (66) 
4

$$$$
MXOKLQPDPZBAAI-FQEVSTJZNA-N
     RDKit          3D

 54 56  0  0  0  0  0  0  0  0999 V2000
  138.6890   78.8430  220.3990 C   0  0  0  0  0  0  0  0  0  0  0  0
  139.8640   78.0520  219.8170 C   0  0  0  0  0  0  0  0  0  0  0  0
  140.0250   76.6920  220.3960 N   0  0  0  0  0  0  0  0  0  0  0  0
  139.8250   76.6570  221.8710 C   0  0  0  0  0  0  0  0  0  0  0  0
  141.0720   77.0180  222.7230 C   0  0  0  0  0  0  0  0  0  0  0  0
  141.1290   78.4800  223.0990 C   0  0  0  0  0  0  0  0  0  0  0  0
  142.3620   79.1530  223.1270 C   0  0  0  0  0  0  0  0  0  0  0  0
  142.4180   80.5060  223.4660 C   0  0  0  0  0  0  0  0  0  0  0  0
  141.2490   81.1980  223.7900 C   0  0  0  0  0  0  0  0  0  0  0  0
  140.0130   80.5420  223.7880 C   0  0  0  0  0  0  0  0  0  0  0  0
  138.8670   81.2800  224.1190 O   0  0  0  0  0  0  0  0  0  0  0  0
  137.6580   80.7120  224.6120 C   0  0  0  0  0  0  0  0  0  0  0  0
  139.9600   79.1750  223.4540 C   0  0  0  0  0  0  0  0  0  0  0  0
  141.1180   75.8300  219.8500 C   0  0  1  0  0  0  0  0  0  0  0  0
  142.4360   76.6320  219.7460 C   0  0  0  0  0  0  0  0  0  0  0  0
  143.5210   75.8240  219.0300 C   0  0  0  0  0  0  0  0  0  0  0  0
  143.6620   74.4260  219.5710 C   0  0  0  0  0  0  0  0  0  0  0  0
  144.8070   73.6830  219.2380 C   0  0  0  0  0  0  0  0  0  0  0  0
  144.9510   72.3530  219.6760 C   0  0  0  0  0  0  0  0  0  0  0  0
  146.0800   71.5780  219.3710 O   0  0  0  0  0  0  0  0  0  0  0  0
  146.0340   70.2160  218.9590 C   0  0  0  0  0  0  0  0  0  0  0  0
  143.9360   71.7740  220.4420 C   0  0  0  0  0  0  0  0  0  0  0  0
  142.7890   72.4990  220.7650 C   0  0  0  0  0  0  0  0  0  0  0  0
  142.6290   73.8200  220.3180 C   0  0  0  0  0  0  0  0  0  0  0  0
  141.3990   74.5890  220.7370 C   0  0  0  0  0  0  0  0  0  0  0  0
  138.7346   78.8123  221.4976 H   0  0  0  0  0  0  0  0  0  0  0  0
  138.7457   79.8875  220.0587 H   0  0  0  0  0  0  0  0  0  0  0  0
  137.7426   78.3974  220.0587 H   0  0  0  0  0  0  0  0  0  0  0  0
  139.7088   77.9499  218.7328 H   0  0  0  0  0  0  0  0  0  0  0  0
  140.7777   78.6126  220.0638 H   0  0  0  0  0  0  0  0  0  0  0  0
  139.0253   77.3696  222.1217 H   0  0  0  0  0  0  0  0  0  0  0  0
  139.5819   75.6131  222.1183 H   0  0  0  0  0  0  0  0  0  0  0  0
  141.0508   76.4196  223.6458 H   0  0  0  0  0  0  0  0  0  0  0  0
  141.9608   76.8012  222.1123 H   0  0  0  0  0  0  0  0  0  0  0  0
  143.2872   78.6114  222.8807 H   0  0  0  0  0  0  0  0  0  0  0  0
  143.3858   81.0287  223.4780 H   0  0  0  0  0  0  0  0  0  0  0  0
  141.3002   82.2660  224.0485 H   0  0  0  0  0  0  0  0  0  0  0  0
  137.6717   80.7184  225.7119 H   0  0  0  0  0  0  0  0  0  0  0  0
  136.8023   81.3023  224.2525 H   0  0  0  0  0  0  0  0  0  0  0  0
  137.5661   79.6765  224.2525 H   0  0  0  0  0  0  0  0  0  0  0  0
  138.9954   78.6465  223.4711 H   0  0  0  0  0  0  0  0  0  0  0  0
  140.7738   75.4944  218.8606 H   0  0  0  0  0  0  0  0  0  0  0  0
  142.2487   77.5585  219.1835 H   0  0  0  0  0  0  0  0  0  0  0  0
  142.7861   76.8599  220.7636 H   0  0  0  0  0  0  0  0  0  0  0  0
  143.2660   75.7631  217.9617 H   0  0  0  0  0  0  0  0  0  0  0  0
  144.4789   76.3397  219.1929 H   0  0  0  0  0  0  0  0  0  0  0  0
  145.5983   74.1449  218.6294 H   0  0  0  0  0  0  0  0  0  0  0  0
  146.0120   69.5653  219.8456 H   0  0  0  0  0  0  0  0  0  0  0  0
  145.1296   70.0455  218.3565 H   0  0  0  0  0  0  0  0  0  0  0  0
  146.9248   69.9849  218.3565 H   0  0  0  0  0  0  0  0  0  0  0  0
  144.0424   70.7371  220.7935 H   0  0  0  0  0  0  0  0  0  0  0  0
  142.0026   72.0313  221.3756 H   0  0  0  0  0  0  0  0  0  0  0  0
  140.5307   73.9160  220.6806 H   0  0  0  0  0  0  0  0  0  0  0  0
  141.5760   74.9535  221.7596 H   0  0  0  0  0  0  0  0  0  0  0  0
  1  2  1  0
  2  3  1  0
  3  4  1  0
  4  5  1  0
  5  6  1  0
  6  7  2  0
  7  8  1  0
  8  9  2  0
  9 10  1  0
 10 11  1  0
 11 12  1  0
 10 13  2  0
  3 14  1  0
 14 15  1  0
 15 16  1  0
 16 17  1  0
 17 18  2  0
 18 19  1  0
 19 20  1  0
 20 21  1  0
 19 22  2  0
 22 23  1  0
 23 24  2  0
 24 25  1  0
 13  6  1  0
 25 14  1  0
 24 17  1  0
  1 26  1  0
  1 27  1  0
  1 28  1  0
  2 29  1  0
  2 30  1  0
  4 31  1  0
  4 32  1  0
  5 33  1  0
  5 34  1  0
  7 35  1  0
  8 36  1  0
  9 37  1  0
 12 38  1  0
 12 39  1  0
 12 40  1  0
 13 41  1  0
 14 42  1  6
 15 43  1  0
 15 44  1  0
 16 45  1  0
 16 46  1  0
 18 47  1  0
 21 48  1  0
 21 49  1  0
 21 50  1  0
 22 51  1  0
 23 52  1  0
 25 53  1  0
 25 54  1  0
M  END
>  <UniqueID>  (67) 
28

>  <SMILES>  (67) 
CCN(CCc1cccc(OC)c1)[C@H]1CCc2cc(OC)ccc2C1

>  <Energy>  (67) 
65.60821063572106

>  <Genealogy>  (67) 
CCN(CCc1cccc(OC)c1)[C@H]1CCc2cc(OC)ccc2C1 (chirality)
CCN(CCc1cccc(OC)c1)[C@H]1CCc2cc(OC)ccc2C1 (3D coordinates assigned)
CCN(CCc1cccc(OC)c1)[C@H]1CCc2cc(OC)ccc2C1 (nonaromatic ring conformer: 65.60821063572106 kcal/mol)

>  <smiles>  (67) 
CCN(CCc1cccc(OC)c1)C1CCc2cc(OC)ccc2C1

>  <score_type>  (67) 
oracle

>  <origin>  (67) 
autodockgpu

>  <m_score__min__energy>  (67) 
-6.0700000000000003

>  <m_primary>  (67) 
energy

>  <meeko>  (67) 
{"free_energy": -5.57, "intermolecular_energy": -7.66, "internal_energy": -1.13, "cluster_size": 3, "cluster_id": 1, "rank_in_cluster": 3}

>  <energy>  (67) 
-5.84

>  <cluster_rmsd>  (67) 
0.36

>  <rmsd>  (67) 
270.55

>  <cluster>  (67) 
4

$$$$
MXOKLQPDPZBAAI-FQEVSTJZNA-N
     RDKit          3D

 54 56  0  0  0  0  0  0  0  0999 V2000
  136.7920   72.7940  222.3980 C   0  0  0  0  0  0  0  0  0  0  0  0
  138.2790   72.9170  222.0530 C   0  0  0  0  0  0  0  0  0  0  0  0
  139.0770   71.7040  222.3700 N   0  0  0  0  0  0  0  0  0  0  0  0
  138.9240   71.2530  223.7810 C   0  0  0  0  0  0  0  0  0  0  0  0
  138.7470   69.7230  223.9770 C   0  0  0  0  0  0  0  0  0  0  0  0
  139.4250   69.2040  225.2230 C   0  0  0  0  0  0  0  0  0  0  0  0
  139.5600   67.8200  225.4280 C   0  0  0  0  0  0  0  0  0  0  0  0
  140.1930   67.3370  226.5740 C   0  0  0  0  0  0  0  0  0  0  0  0
  140.6890   68.2250  227.5300 C   0  0  0  0  0  0  0  0  0  0  0  0
  140.5480   69.6060  227.3560 C   0  0  0  0  0  0  0  0  0  0  0  0
  141.0630   70.4580  228.3450 O   0  0  0  0  0  0  0  0  0  0  0  0
  141.1220   71.8760  228.2340 C   0  0  0  0  0  0  0  0  0  0  0  0
  139.9000   70.0920  226.2040 C   0  0  0  0  0  0  0  0  0  0  0  0
  140.4490   71.6030  221.7820 C   0  0  1  0  0  0  0  0  0  0  0  0
  140.4120   70.7940  220.4640 C   0  0  0  0  0  0  0  0  0  0  0  0
  141.8240   70.5310  219.9360 C   0  0  0  0  0  0  0  0  0  0  0  0
  142.6780   71.7720  219.9040 C   0  0  0  0  0  0  0  0  0  0  0  0
  143.8700   71.7540  219.1620 C   0  0  0  0  0  0  0  0  0  0  0  0
  144.7250   72.8730  219.1520 C   0  0  0  0  0  0  0  0  0  0  0  0
  145.9220   72.9000  218.4210 O   0  0  0  0  0  0  0  0  0  0  0  0
  146.0450   73.4110  217.0970 C   0  0  0  0  0  0  0  0  0  0  0  0
  144.3770   74.0030  219.8960 C   0  0  0  0  0  0  0  0  0  0  0  0
  143.2020   74.0240  220.6480 C   0  0  0  0  0  0  0  0  0  0  0  0
  142.3530   72.9070  220.6780 C   0  0  0  0  0  0  0  0  0  0  0  0
  141.0620   72.9900  221.4580 C   0  0  0  0  0  0  0  0  0  0  0  0
  136.6688   72.7838  223.4910 H   0  0  0  0  0  0  0  0  0  0  0  0
  136.2455   73.6500  221.9754 H   0  0  0  0  0  0  0  0  0  0  0  0
  136.3936   71.8598  221.9754 H   0  0  0  0  0  0  0  0  0  0  0  0
  138.3683   73.1174  220.9751 H   0  0  0  0  0  0  0  0  0  0  0  0
  138.6820   73.7327  222.6712 H   0  0  0  0  0  0  0  0  0  0  0  0
  139.8214   71.5644  224.3358 H   0  0  0  0  0  0  0  0  0  0  0  0
  137.9949   71.7144  224.1470 H   0  0  0  0  0  0  0  0  0  0  0  0
  137.6718   69.5006  224.0448 H   0  0  0  0  0  0  0  0  0  0  0  0
  139.2165   69.2250  223.1159 H   0  0  0  0  0  0  0  0  0  0  0  0
  139.1650   67.1147  224.6820 H   0  0  0  0  0  0  0  0  0  0  0  0
  140.3015   66.2528  226.7245 H   0  0  0  0  0  0  0  0  0  0  0  0
  141.1942   67.8362  228.4264 H   0  0  0  0  0  0  0  0  0  0  0  0
  141.1405   72.3220  229.2393 H   0  0  0  0  0  0  0  0  0  0  0  0
  142.0329   72.1635  227.6884 H   0  0  0  0  0  0  0  0  0  0  0  0
  140.2381   72.2382  227.6884 H   0  0  0  0  0  0  0  0  0  0  0  0
  139.7644   71.1754  226.0706 H   0  0  0  0  0  0  0  0  0  0  0  0
  141.0692   71.1040  222.5412 H   0  0  0  0  0  0  0  0  0  0  0  0
  139.9126   69.8313  220.6479 H   0  0  0  0  0  0  0  0  0  0  0  0
  139.8623   71.3788  219.7118 H   0  0  0  0  0  0  0  0  0  0  0  0
  142.3090   69.7877  220.5858 H   0  0  0  0  0  0  0  0  0  0  0  0
  141.7279   70.1694  218.9016 H   0  0  0  0  0  0  0  0  0  0  0  0
  144.1383   70.8578  218.5834 H   0  0  0  0  0  0  0  0  0  0  0  0
  146.3022   74.4797  217.1389 H   0  0  0  0  0  0  0  0  0  0  0  0
  146.8371   72.8638  216.5649 H   0  0  0  0  0  0  0  0  0  0  0  0
  145.0907   73.2841  216.5649 H   0  0  0  0  0  0  0  0  0  0  0  0
  145.0353   74.8842  219.8889 H   0  0  0  0  0  0  0  0  0  0  0  0
  142.9387   74.9243  221.2226 H   0  0  0  0  0  0  0  0  0  0  0  0
  141.2596   73.5139  222.4048 H   0  0  0  0  0  0  0  0  0  0  0  0
  140.3365   73.5273  220.8296 H   0  0  0  0  0  0  0  0  0  0  0  0
  1  2  1  0
  2  3  1  0
  3  4  1  0
  4  5  1  0
  5  6  1  0
  6  7  2  0
  7  8  1  0
  8  9  2  0
  9 10  1  0
 10 11  1  0
 11 12  1  0
 10 13  2  0
  3 14  1  0
 14 15  1  0
 15 16  1  0
 16 17  1  0
 17 18  2  0
 18 19  1  0
 19 20  1  0
 20 21  1  0
 19 22  2  0
 22 23  1  0
 23 24  2  0
 24 25  1  0
 13  6  1  0
 25 14  1  0
 24 17  1  0
  1 26  1  0
  1 27  1  0
  1 28  1  0
  2 29  1  0
  2 30  1  0
  4 31  1  0
  4 32  1  0
  5 33  1  0
  5 34  1  0
  7 35  1  0
  8 36  1  0
  9 37  1  0
 12 38  1  0
 12 39  1  0
 12 40  1  0
 13 41  1  0
 14 42  1  1
 15 43  1  0
 15 44  1  0
 16 45  1  0
 16 46  1  0
 18 47  1  0
 21 48  1  0
 21 49  1  0
 21 50  1  0
 22 51  1  0
 23 52  1  0
 25 53  1  0
 25 54  1  0
M  END
>  <UniqueID>  (68) 
28

>  <SMILES>  (68) 
CCN(CCc1cccc(OC)c1)[C@H]1CCc2cc(OC)ccc2C1

>  <Energy>  (68) 
65.60821063572106

>  <Genealogy>  (68) 
CCN(CCc1cccc(OC)c1)[C@H]1CCc2cc(OC)ccc2C1 (chirality)
CCN(CCc1cccc(OC)c1)[C@H]1CCc2cc(OC)ccc2C1 (3D coordinates assigned)
CCN(CCc1cccc(OC)c1)[C@H]1CCc2cc(OC)ccc2C1 (nonaromatic ring conformer: 65.60821063572106 kcal/mol)

>  <smiles>  (68) 
CCN(CCc1cccc(OC)c1)C1CCc2cc(OC)ccc2C1

>  <score_type>  (68) 
oracle

>  <origin>  (68) 
autodockgpu

>  <m_score__min__energy>  (68) 
-6.0700000000000003

>  <m_primary>  (68) 
energy

>  <meeko>  (68) 
{"free_energy": -5.88, "intermolecular_energy": -7.97, "internal_energy": -0.82, "cluster_size": 1, "cluster_id": 3, "rank_in_cluster": 1}

>  <energy>  (68) 
-5.69

>  <cluster_rmsd>  (68) 
1.68

>  <rmsd>  (68) 
270.09

>  <cluster>  (68) 
4

$$$$
MXOKLQPDPZBAAI-FQEVSTJZNA-N
     RDKit          3D

 54 56  0  0  0  0  0  0  0  0999 V2000
  142.5340   82.3230  217.2410 C   0  0  0  0  0  0  0  0  0  0  0  0
  142.5510   80.9050  217.8200 C   0  0  0  0  0  0  0  0  0  0  0  0
  141.2350   80.4480  218.3390 N   0  0  0  0  0  0  0  0  0  0  0  0
  140.5700   81.4500  219.2170 C   0  0  0  0  0  0  0  0  0  0  0  0
  141.4430   82.0060  220.3750 C   0  0  0  0  0  0  0  0  0  0  0  0
  141.4190   81.1340  221.6070 C   0  0  0  0  0  0  0  0  0  0  0  0
  142.5880   80.4820  222.0330 C   0  0  0  0  0  0  0  0  0  0  0  0
  142.5720   79.6830  223.1770 C   0  0  0  0  0  0  0  0  0  0  0  0
  141.3890   79.5170  223.9010 C   0  0  0  0  0  0  0  0  0  0  0  0
  140.2090   80.1400  223.4840 C   0  0  0  0  0  0  0  0  0  0  0  0
  139.0460   79.9440  224.2450 O   0  0  0  0  0  0  0  0  0  0  0  0
  137.7780   80.5150  223.9390 C   0  0  0  0  0  0  0  0  0  0  0  0
  140.2250   80.9400  222.3240 C   0  0  0  0  0  0  0  0  0  0  0  0
  141.1110   79.0140  218.7490 C   0  0  1  0  0  0  0  0  0  0  0  0
  142.5110   78.3980  218.9800 C   0  0  0  0  0  0  0  0  0  0  0  0
  142.4170   76.8910  219.2320 C   0  0  0  0  0  0  0  0  0  0  0  0
  141.3800   76.5330  220.2640 C   0  0  0  0  0  0  0  0  0  0  0  0
  141.3970   75.2450  220.8230 C   0  0  0  0  0  0  0  0  0  0  0  0
  140.4120   74.8510  221.7480 C   0  0  0  0  0  0  0  0  0  0  0  0
  140.3950   73.5770  222.3340 O   0  0  0  0  0  0  0  0  0  0  0  0
  140.1250   72.3700  221.6280 C   0  0  0  0  0  0  0  0  0  0  0  0
  139.4080   75.7570  222.1010 C   0  0  0  0  0  0  0  0  0  0  0  0
  139.3740   77.0340  221.5390 C   0  0  0  0  0  0  0  0  0  0  0  0
  140.3420   77.4280  220.6030 C   0  0  0  0  0  0  0  0  0  0  0  0
  140.3040   78.8380  220.0620 C   0  0  0  0  0  0  0  0  0  0  0  0
  142.5252   83.0544  218.0625 H   0  0  0  0  0  0  0  0  0  0  0  0
  143.4304   82.4772  216.6223 H   0  0  0  0  0  0  0  0  0  0  0  0
  141.6342   82.4557  216.6223 H   0  0  0  0  0  0  0  0  0  0  0  0
  142.8701   80.2117  217.0278 H   0  0  0  0  0  0  0  0  0  0  0  0
  143.2430   80.9186  218.6750 H   0  0  0  0  0  0  0  0  0  0  0  0
  140.2593   82.2981  218.5891 H   0  0  0  0  0  0  0  0  0  0  0  0
  139.7314   80.9235  219.6961 H   0  0  0  0  0  0  0  0  0  0  0  0
  142.4820   82.0856  220.0228 H   0  0  0  0  0  0  0  0  0  0  0  0
  141.0275   82.9844  220.6579 H   0  0  0  0  0  0  0  0  0  0  0  0
  143.5206   80.6018  221.4621 H   0  0  0  0  0  0  0  0  0  0  0  0
  143.4934   79.1826  223.5095 H   0  0  0  0  0  0  0  0  0  0  0  0
  141.3859   78.8915  224.8059 H   0  0  0  0  0  0  0  0  0  0  0  0
  137.2483   80.7535  224.8731 H   0  0  0  0  0  0  0  0  0  0  0  0
  137.9219   81.4352  223.3538 H   0  0  0  0  0  0  0  0  0  0  0  0
  137.1843   79.7973  223.3538 H   0  0  0  0  0  0  0  0  0  0  0  0
  139.2963   81.4164  221.9767 H   0  0  0  0  0  0  0  0  0  0  0  0
  140.5801   78.5072  217.9296 H   0  0  0  0  0  0  0  0  0  0  0  0
  143.1324   78.5750  218.0898 H   0  0  0  0  0  0  0  0  0  0  0  0
  142.9589   78.8724  219.8656 H   0  0  0  0  0  0  0  0  0  0  0  0
  142.1578   76.3925  218.2863 H   0  0  0  0  0  0  0  0  0  0  0  0
  143.3930   76.5589  219.6156 H   0  0  0  0  0  0  0  0  0  0  0  0
  142.1880   74.5369  220.5351 H   0  0  0  0  0  0  0  0  0  0  0  0
  139.9433   71.5575  222.3469 H   0  0  0  0  0  0  0  0  0  0  0  0
  139.2351   72.5062  220.9959 H   0  0  0  0  0  0  0  0  0  0  0  0
  140.9881   72.1140  220.9959 H   0  0  0  0  0  0  0  0  0  0  0  0
  138.6377   75.4609  222.8283 H   0  0  0  0  0  0  0  0  0  0  0  0
  138.5812   77.7378  221.8325 H   0  0  0  0  0  0  0  0  0  0  0  0
  139.2559   79.1087  219.8665 H   0  0  0  0  0  0  0  0  0  0  0  0
  140.7665   79.4894  220.8182 H   0  0  0  0  0  0  0  0  0  0  0  0
  1  2  1  0
  2  3  1  0
  3  4  1  0
  4  5  1  0
  5  6  1  0
  6  7  2  0
  7  8  1  0
  8  9  2  0
  9 10  1  0
 10 11  1  0
 11 12  1  0
 10 13  2  0
  3 14  1  0
 14 15  1  0
 15 16  1  0
 16 17  1  0
 17 18  2  0
 18 19  1  0
 19 20  1  0
 20 21  1  0
 19 22  2  0
 22 23  1  0
 23 24  2  0
 24 25  1  0
 13  6  1  0
 25 14  1  0
 24 17  1  0
  1 26  1  0
  1 27  1  0
  1 28  1  0
  2 29  1  0
  2 30  1  0
  4 31  1  0
  4 32  1  0
  5 33  1  0
  5 34  1  0
  7 35  1  0
  8 36  1  0
  9 37  1  0
 12 38  1  0
 12 39  1  0
 12 40  1  0
 13 41  1  0
 14 42  1  6
 15 43  1  0
 15 44  1  0
 16 45  1  0
 16 46  1  0
 18 47  1  0
 21 48  1  0
 21 49  1  0
 21 50  1  0
 22 51  1  0
 23 52  1  0
 25 53  1  0
 25 54  1  0
M  END
>  <UniqueID>  (69) 
28

>  <SMILES>  (69) 
CCN(CCc1cccc(OC)c1)[C@H]1CCc2cc(OC)ccc2C1

>  <Energy>  (69) 
65.60821063572106

>  <Genealogy>  (69) 
CCN(CCc1cccc(OC)c1)[C@H]1CCc2cc(OC)ccc2C1 (chirality)
CCN(CCc1cccc(OC)c1)[C@H]1CCc2cc(OC)ccc2C1 (3D coordinates assigned)
CCN(CCc1cccc(OC)c1)[C@H]1CCc2cc(OC)ccc2C1 (nonaromatic ring conformer: 65.60821063572106 kcal/mol)

>  <smiles>  (69) 
CCN(CCc1cccc(OC)c1)C1CCc2cc(OC)ccc2C1

>  <score_type>  (69) 
oracle

>  <origin>  (69) 
autodockgpu

>  <m_score__min__energy>  (69) 
-6.0700000000000003

>  <m_primary>  (69) 
energy

>  <meeko>  (69) 
{"free_energy": -5.38, "intermolecular_energy": -7.47, "internal_energy": -1.64, "cluster_size": 7, "cluster_id": 5, "rank_in_cluster": 4}

>  <energy>  (69) 
-5.59

>  <cluster_rmsd>  (69) 
0.85

>  <rmsd>  (69) 
270.33

>  <cluster>  (69) 
4

$$$$
MXOKLQPDPZBAAI-FQEVSTJZNA-N
     RDKit          3D

 54 56  0  0  0  0  0  0  0  0999 V2000
  141.9030   80.0850  217.9690 C   0  0  0  0  0  0  0  0  0  0  0  0
  142.5820   78.8650  218.5980 C   0  0  0  0  0  0  0  0  0  0  0  0
  141.6700   77.7130  218.8220 N   0  0  0  0  0  0  0  0  0  0  0  0
  140.7040   77.9360  219.9330 C   0  0  0  0  0  0  0  0  0  0  0  0
  141.2840   77.7760  221.3650 C   0  0  0  0  0  0  0  0  0  0  0  0
  141.5900   79.0960  222.0310 C   0  0  0  0  0  0  0  0  0  0  0  0
  142.1980   79.1230  223.2980 C   0  0  0  0  0  0  0  0  0  0  0  0
  142.4910   80.3410  223.9120 C   0  0  0  0  0  0  0  0  0  0  0  0
  142.1730   81.5430  223.2770 C   0  0  0  0  0  0  0  0  0  0  0  0
  141.5490   81.5400  222.0250 C   0  0  0  0  0  0  0  0  0  0  0  0
  141.2510   82.7740  221.4260 O   0  0  0  0  0  0  0  0  0  0  0  0
  139.9320   83.2560  221.1900 C   0  0  0  0  0  0  0  0  0  0  0  0
  141.2470   80.3100  221.4090 C   0  0  0  0  0  0  0  0  0  0  0  0
  142.2480   76.3380  218.7070 C   0  0  1  0  0  0  0  0  0  0  0  0
  142.9140   76.1480  217.3240 C   0  0  0  0  0  0  0  0  0  0  0  0
  143.3590   74.6990  217.1180 C   0  0  0  0  0  0  0  0  0  0  0  0
  144.1400   74.1540  218.2860 C   0  0  0  0  0  0  0  0  0  0  0  0
  144.8740   72.9690  218.1170 C   0  0  0  0  0  0  0  0  0  0  0  0
  145.5700   72.3970  219.1980 C   0  0  0  0  0  0  0  0  0  0  0  0
  146.3190   71.2170  219.0710 O   0  0  0  0  0  0  0  0  0  0  0  0
  145.7560   69.9150  218.9510 C   0  0  0  0  0  0  0  0  0  0  0  0
  145.5180   73.0180  220.4480 C   0  0  0  0  0  0  0  0  0  0  0  0
  144.7790   74.1880  220.6290 C   0  0  0  0  0  0  0  0  0  0  0  0
  144.0680   74.7560  219.5610 C   0  0  0  0  0  0  0  0  0  0  0  0
  143.3270   76.0530  219.7840 C   0  0  0  0  0  0  0  0  0  0  0  0
  141.5333   80.7493  218.7640 H   0  0  0  0  0  0  0  0  0  0  0  0
  142.6288   80.6278  217.3456 H   0  0  0  0  0  0  0  0  0  0  0  0
  141.0592   79.7542  217.3456 H   0  0  0  0  0  0  0  0  0  0  0  0
  143.3936   78.5388  217.9310 H   0  0  0  0  0  0  0  0  0  0  0  0
  142.9464   79.1789  219.5873 H   0  0  0  0  0  0  0  0  0  0  0  0
  140.3097   78.9586  219.8393 H   0  0  0  0  0  0  0  0  0  0  0  0
  139.9373   77.1541  219.8284 H   0  0  0  0  0  0  0  0  0  0  0  0
  140.5510   77.2346  221.9811 H   0  0  0  0  0  0  0  0  0  0  0  0
  142.2325   77.2263  221.2752 H   0  0  0  0  0  0  0  0  0  0  0  0
  142.4439   78.1797  223.8076 H   0  0  0  0  0  0  0  0  0  0  0  0
  142.9743   80.3543  224.9000 H   0  0  0  0  0  0  0  0  0  0  0  0
  142.4148   82.4990  223.7645 H   0  0  0  0  0  0  0  0  0  0  0  0
  139.4309   83.4391  222.1520 H   0  0  0  0  0  0  0  0  0  0  0  0
  139.9814   84.1942  220.6179 H   0  0  0  0  0  0  0  0  0  0  0  0
  139.3648   82.5070  220.6179 H   0  0  0  0  0  0  0  0  0  0  0  0
  140.7387   80.2987  220.4335 H   0  0  0  0  0  0  0  0  0  0  0  0
  141.4075   75.6422  218.8465 H   0  0  0  0  0  0  0  0  0  0  0  0
  142.1924   76.4168  216.5384 H   0  0  0  0  0  0  0  0  0  0  0  0
  143.8019   76.7953  217.2734 H   0  0  0  0  0  0  0  0  0  0  0  0
  142.4652   74.0748  216.9714 H   0  0  0  0  0  0  0  0  0  0  0  0
  144.0210   74.6785  216.2397 H   0  0  0  0  0  0  0  0  0  0  0  0
  144.9052   72.4833  217.1305 H   0  0  0  0  0  0  0  0  0  0  0  0
  145.5763   69.4994  219.9535 H   0  0  0  0  0  0  0  0  0  0  0  0
  144.8040   69.9762  218.4034 H   0  0  0  0  0  0  0  0  0  0  0  0
  146.4527   69.2633  218.4034 H   0  0  0  0  0  0  0  0  0  0  0  0
  146.0642   72.5812  221.2970 H   0  0  0  0  0  0  0  0  0  0  0  0
  144.7537   74.6692  221.6178 H   0  0  0  0  0  0  0  0  0  0  0  0
  142.8356   76.0094  220.7671 H   0  0  0  0  0  0  0  0  0  0  0  0
  144.0672   76.8645  219.7253 H   0  0  0  0  0  0  0  0  0  0  0  0
  1  2  1  0
  2  3  1  0
  3  4  1  0
  4  5  1  0
  5  6  1  0
  6  7  2  0
  7  8  1  0
  8  9  2  0
  9 10  1  0
 10 11  1  0
 11 12  1  0
 10 13  2  0
  3 14  1  0
 14 15  1  0
 15 16  1  0
 16 17  1  0
 17 18  2  0
 18 19  1  0
 19 20  1  0
 20 21  1  0
 19 22  2  0
 22 23  1  0
 23 24  2  0
 24 25  1  0
 13  6  1  0
 25 14  1  0
 24 17  1  0
  1 26  1  0
  1 27  1  0
  1 28  1  0
  2 29  1  0
  2 30  1  0
  4 31  1  0
  4 32  1  0
  5 33  1  0
  5 34  1  0
  7 35  1  0
  8 36  1  0
  9 37  1  0
 12 38  1  0
 12 39  1  0
 12 40  1  0
 13 41  1  0
 14 42  1  1
 15 43  1  0
 15 44  1  0
 16 45  1  0
 16 46  1  0
 18 47  1  0
 21 48  1  0
 21 49  1  0
 21 50  1  0
 22 51  1  0
 23 52  1  0
 25 53  1  0
 25 54  1  0
M  END
>  <UniqueID>  (70) 
28

>  <SMILES>  (70) 
CCN(CCc1cccc(OC)c1)[C@H]1CCc2cc(OC)ccc2C1

>  <Energy>  (70) 
65.60821063572106

>  <Genealogy>  (70) 
CCN(CCc1cccc(OC)c1)[C@H]1CCc2cc(OC)ccc2C1 (chirality)
CCN(CCc1cccc(OC)c1)[C@H]1CCc2cc(OC)ccc2C1 (3D coordinates assigned)
CCN(CCc1cccc(OC)c1)[C@H]1CCc2cc(OC)ccc2C1 (nonaromatic ring conformer: 65.60821063572106 kcal/mol)

>  <smiles>  (70) 
CCN(CCc1cccc(OC)c1)C1CCc2cc(OC)ccc2C1

>  <score_type>  (70) 
oracle

>  <origin>  (70) 
autodockgpu

>  <m_score__min__energy>  (70) 
-6.0700000000000003

>  <m_primary>  (70) 
energy

>  <meeko>  (70) 
{"free_energy": -5.84, "intermolecular_energy": -7.93, "internal_energy": -1.0, "cluster_size": 6, "cluster_id": 4, "rank_in_cluster": 2}

>  <energy>  (70) 
-5.57

>  <cluster_rmsd>  (70) 
1.7

>  <rmsd>  (70) 
270.08

>  <cluster>  (70) 
4

$$$$
MXOKLQPDPZBAAI-FQEVSTJZNA-N
     RDKit          3D

 54 56  0  0  0  0  0  0  0  0999 V2000
  142.5510   82.3760  217.3490 C   0  0  0  0  0  0  0  0  0  0  0  0
  142.5390   80.9090  217.7880 C   0  0  0  0  0  0  0  0  0  0  0  0
  141.2290   80.4450  218.3140 N   0  0  0  0  0  0  0  0  0  0  0  0
  140.5620   81.4460  219.1930 C   0  0  0  0  0  0  0  0  0  0  0  0
  141.4350   82.0050  220.3490 C   0  0  0  0  0  0  0  0  0  0  0  0
  141.4070   81.1380  221.5850 C   0  0  0  0  0  0  0  0  0  0  0  0
  142.5720   80.4780  222.0100 C   0  0  0  0  0  0  0  0  0  0  0  0
  142.5520   79.6830  223.1570 C   0  0  0  0  0  0  0  0  0  0  0  0
  141.3710   79.5300  223.8860 C   0  0  0  0  0  0  0  0  0  0  0  0
  140.1940   80.1620  223.4700 C   0  0  0  0  0  0  0  0  0  0  0  0
  139.0330   79.9790  224.2350 O   0  0  0  0  0  0  0  0  0  0  0  0
  137.7090   80.1810  223.7510 C   0  0  0  0  0  0  0  0  0  0  0  0
  140.2140   80.9570  222.3070 C   0  0  0  0  0  0  0  0  0  0  0  0
  141.1150   79.0130  218.7280 C   0  0  1  0  0  0  0  0  0  0  0  0
  142.5190   78.4100  218.9730 C   0  0  0  0  0  0  0  0  0  0  0  0
  142.4380   76.9030  219.2290 C   0  0  0  0  0  0  0  0  0  0  0  0
  141.3960   76.5390  220.2530 C   0  0  0  0  0  0  0  0  0  0  0  0
  141.4200   75.2530  220.8170 C   0  0  0  0  0  0  0  0  0  0  0  0
  140.4310   74.8530  221.7350 C   0  0  0  0  0  0  0  0  0  0  0  0
  140.4220   73.5800  222.3250 O   0  0  0  0  0  0  0  0  0  0  0  0
  139.4690   72.5630  222.0300 C   0  0  0  0  0  0  0  0  0  0  0  0
  139.4160   75.7490  222.0760 C   0  0  0  0  0  0  0  0  0  0  0  0
  139.3740   77.0240  221.5100 C   0  0  0  0  0  0  0  0  0  0  0  0
  140.3460   77.4250  220.5810 C   0  0  0  0  0  0  0  0  0  0  0  0
  140.2990   78.8320  220.0350 C   0  0  0  0  0  0  0  0  0  0  0  0
  142.5563   83.0246  218.2374 H   0  0  0  0  0  0  0  0  0  0  0  0
  143.4508   82.5713  216.7471 H   0  0  0  0  0  0  0  0  0  0  0  0
  141.6545   82.5860  216.7471 H   0  0  0  0  0  0  0  0  0  0  0  0
  142.8033   80.2864  216.9205 H   0  0  0  0  0  0  0  0  0  0  0  0
  143.2624   80.8179  218.6117 H   0  0  0  0  0  0  0  0  0  0  0  0
  140.2478   82.2928  218.5652 H   0  0  0  0  0  0  0  0  0  0  0  0
  139.7257   80.9172  219.6736 H   0  0  0  0  0  0  0  0  0  0  0  0
  142.4747   82.0803  219.9977 H   0  0  0  0  0  0  0  0  0  0  0  0
  141.0221   82.9859  220.6270 H   0  0  0  0  0  0  0  0  0  0  0  0
  143.5041   80.5882  221.4363 H   0  0  0  0  0  0  0  0  0  0  0  0
  143.4699   79.1751  223.4879 H   0  0  0  0  0  0  0  0  0  0  0  0
  141.3659   78.9084  224.7935 H   0  0  0  0  0  0  0  0  0  0  0  0
  137.0197   80.2862  224.6018 H   0  0  0  0  0  0  0  0  0  0  0  0
  137.6778   81.0943  223.1387 H   0  0  0  0  0  0  0  0  0  0  0  0
  137.4069   79.3186  223.1387 H   0  0  0  0  0  0  0  0  0  0  0  0
  139.2885   81.4402  221.9608 H   0  0  0  0  0  0  0  0  0  0  0  0
  140.5951   78.4999  217.9055 H   0  0  0  0  0  0  0  0  0  0  0  0
  143.1463   78.5902  218.0875 H   0  0  0  0  0  0  0  0  0  0  0  0
  142.9542   78.8910  219.8614 H   0  0  0  0  0  0  0  0  0  0  0  0
  142.1918   76.3988  218.2829 H   0  0  0  0  0  0  0  0  0  0  0  0
  143.4139   76.5814  219.6217 H   0  0  0  0  0  0  0  0  0  0  0  0
  142.2199   74.5512  220.5384 H   0  0  0  0  0  0  0  0  0  0  0  0
  139.0769   72.1445  222.9687 H   0  0  0  0  0  0  0  0  0  0  0  0
  138.6418   72.9937  221.4468 H   0  0  0  0  0  0  0  0  0  0  0  0
  139.9525   71.7655  221.4468 H   0  0  0  0  0  0  0  0  0  0  0  0
  138.6423   75.4472  222.7974 H   0  0  0  0  0  0  0  0  0  0  0  0
  138.5718   77.7207  221.7947 H   0  0  0  0  0  0  0  0  0  0  0  0
  139.2499   79.0916  219.8299 H   0  0  0  0  0  0  0  0  0  0  0  0
  140.7494   79.4898  220.7929 H   0  0  0  0  0  0  0  0  0  0  0  0
  1  2  1  0
  2  3  1  0
  3  4  1  0
  4  5  1  0
  5  6  1  0
  6  7  2  0
  7  8  1  0
  8  9  2  0
  9 10  1  0
 10 11  1  0
 11 12  1  0
 10 13  2  0
  3 14  1  0
 14 15  1  0
 15 16  1  0
 16 17  1  0
 17 18  2  0
 18 19  1  0
 19 20  1  0
 20 21  1  0
 19 22  2  0
 22 23  1  0
 23 24  2  0
 24 25  1  0
 13  6  1  0
 25 14  1  0
 24 17  1  0
  1 26  1  0
  1 27  1  0
  1 28  1  0
  2 29  1  0
  2 30  1  0
  4 31  1  0
  4 32  1  0
  5 33  1  0
  5 34  1  0
  7 35  1  0
  8 36  1  0
  9 37  1  0
 12 38  1  0
 12 39  1  0
 12 40  1  0
 13 41  1  0
 14 42  1  6
 15 43  1  0
 15 44  1  0
 16 45  1  0
 16 46  1  0
 18 47  1  0
 21 48  1  0
 21 49  1  0
 21 50  1  0
 22 51  1  0
 23 52  1  0
 25 53  1  0
 25 54  1  0
M  END
>  <UniqueID>  (71) 
28

>  <SMILES>  (71) 
CCN(CCc1cccc(OC)c1)[C@H]1CCc2cc(OC)ccc2C1

>  <Energy>  (71) 
65.60821063572106

>  <Genealogy>  (71) 
CCN(CCc1cccc(OC)c1)[C@H]1CCc2cc(OC)ccc2C1 (chirality)
CCN(CCc1cccc(OC)c1)[C@H]1CCc2cc(OC)ccc2C1 (3D coordinates assigned)
CCN(CCc1cccc(OC)c1)[C@H]1CCc2cc(OC)ccc2C1 (nonaromatic ring conformer: 65.60821063572106 kcal/mol)

>  <smiles>  (71) 
CCN(CCc1cccc(OC)c1)C1CCc2cc(OC)ccc2C1

>  <score_type>  (71) 
oracle

>  <origin>  (71) 
autodockgpu

>  <m_score__min__energy>  (71) 
-6.0700000000000003

>  <m_primary>  (71) 
energy

>  <meeko>  (71) 
{"free_energy": -5.36, "intermolecular_energy": -7.45, "internal_energy": -1.65, "cluster_size": 7, "cluster_id": 5, "rank_in_cluster": 5}

>  <energy>  (71) 
-5.23

>  <cluster_rmsd>  (71) 
1.7

>  <rmsd>  (71) 
270.35

>  <cluster>  (71) 
4

$$$$
MXOKLQPDPZBAAI-FQEVSTJZNA-N
     RDKit          3D

 54 56  0  0  0  0  0  0  0  0999 V2000
  141.9020   80.1670  218.3090 C   0  0  0  0  0  0  0  0  0  0  0  0
  142.5820   78.8090  218.5040 C   0  0  0  0  0  0  0  0  0  0  0  0
  141.6450   77.7060  218.8420 N   0  0  0  0  0  0  0  0  0  0  0  0
  140.6770   78.0670  219.9150 C   0  0  0  0  0  0  0  0  0  0  0  0
  141.1550   77.7900  221.3660 C   0  0  0  0  0  0  0  0  0  0  0  0
  141.5200   79.0470  222.1200 C   0  0  0  0  0  0  0  0  0  0  0  0
  142.2020   78.9630  223.3450 C   0  0  0  0  0  0  0  0  0  0  0  0
  142.5490   80.1220  224.0400 C   0  0  0  0  0  0  0  0  0  0  0  0
  142.2100   81.3760  223.5260 C   0  0  0  0  0  0  0  0  0  0  0  0
  141.5130   81.4830  222.3180 C   0  0  0  0  0  0  0  0  0  0  0  0
  141.1970   82.7650  221.8430 O   0  0  0  0  0  0  0  0  0  0  0  0
  140.7010   83.0400  220.5370 C   0  0  0  0  0  0  0  0  0  0  0  0
  141.1570   80.3110  221.6230 C   0  0  0  0  0  0  0  0  0  0  0  0
  142.1950   76.3150  218.8800 C   0  0  1  0  0  0  0  0  0  0  0  0
  142.5340   75.8320  217.4510 C   0  0  0  0  0  0  0  0  0  0  0  0
  142.9350   74.3550  217.4470 C   0  0  0  0  0  0  0  0  0  0  0  0
  143.9630   74.0240  218.4960 C   0  0  0  0  0  0  0  0  0  0  0  0
  144.6510   72.8030  218.4100 C   0  0  0  0  0  0  0  0  0  0  0  0
  145.5780   72.4300  219.4020 C   0  0  0  0  0  0  0  0  0  0  0  0
  146.2900   71.2220  219.3510 O   0  0  0  0  0  0  0  0  0  0  0  0
  145.7450   69.9850  218.9040 C   0  0  0  0  0  0  0  0  0  0  0  0
  145.8030   73.2880  220.4810 C   0  0  0  0  0  0  0  0  0  0  0  0
  145.1130   74.4970  220.5830 C   0  0  0  0  0  0  0  0  0  0  0  0
  144.1750   74.8680  219.6080 C   0  0  0  0  0  0  0  0  0  0  0  0
  143.4910   76.2100  219.7250 C   0  0  0  0  0  0  0  0  0  0  0  0
  141.6800   80.6103  219.2910 H   0  0  0  0  0  0  0  0  0  0  0  0
  142.5718   80.8353  217.7480 H   0  0  0  0  0  0  0  0  0  0  0  0
  140.9656   80.0310  217.7480 H   0  0  0  0  0  0  0  0  0  0  0  0
  143.1033   78.5463  217.5717 H   0  0  0  0  0  0  0  0  0  0  0  0
  143.2677   78.9164  219.3574 H   0  0  0  0  0  0  0  0  0  0  0  0
  140.4605   79.1420  219.8287 H   0  0  0  0  0  0  0  0  0  0  0  0
  139.7982   77.4243  219.7582 H   0  0  0  0  0  0  0  0  0  0  0  0
  140.3468   77.2783  221.9091 H   0  0  0  0  0  0  0  0  0  0  0  0
  142.0626   77.1720  221.2999 H   0  0  0  0  0  0  0  0  0  0  0  0
  142.4640   77.9780  223.7587 H   0  0  0  0  0  0  0  0  0  0  0  0
  143.0906   80.0482  224.9946 H   0  0  0  0  0  0  0  0  0  0  0  0
  142.4933   82.2859  224.0753 H   0  0  0  0  0  0  0  0  0  0  0  0
  139.7413   83.5721  220.6138 H   0  0  0  0  0  0  0  0  0  0  0  0
  141.4248   83.6657  219.9941 H   0  0  0  0  0  0  0  0  0  0  0  0
  140.5537   82.0947  219.9941 H   0  0  0  0  0  0  0  0  0  0  0  0
  140.5901   80.3852  220.6833 H   0  0  0  0  0  0  0  0  0  0  0  0
  141.4144   75.6910  219.3397 H   0  0  0  0  0  0  0  0  0  0  0  0
  141.6516   75.9660  216.8081 H   0  0  0  0  0  0  0  0  0  0  0  0
  143.3812   76.4242  217.0748 H   0  0  0  0  0  0  0  0  0  0  0  0
  142.0370   73.7470  217.6315 H   0  0  0  0  0  0  0  0  0  0  0  0
  143.3825   74.1372  216.4660 H   0  0  0  0  0  0  0  0  0  0  0  0
  144.4639   72.1313  217.5593 H   0  0  0  0  0  0  0  0  0  0  0  0
  145.4734   69.3685  219.7735 H   0  0  0  0  0  0  0  0  0  0  0  0
  144.8484   70.1775  218.2966 H   0  0  0  0  0  0  0  0  0  0  0  0
  146.4922   69.4533  218.2966 H   0  0  0  0  0  0  0  0  0  0  0  0
  146.5304   73.0084  221.2573 H   0  0  0  0  0  0  0  0  0  0  0  0
  145.3064   75.1648  221.4354 H   0  0  0  0  0  0  0  0  0  0  0  0
  143.2337   76.3796  220.7810 H   0  0  0  0  0  0  0  0  0  0  0  0
  144.1914   76.9666  219.3417 H   0  0  0  0  0  0  0  0  0  0  0  0
  1  2  1  0
  2  3  1  0
  3  4  1  0
  4  5  1  0
  5  6  1  0
  6  7  2  0
  7  8  1  0
  8  9  2  0
  9 10  1  0
 10 11  1  0
 11 12  1  0
 10 13  2  0
  3 14  1  0
 14 15  1  0
 15 16  1  0
 16 17  1  0
 17 18  2  0
 18 19  1  0
 19 20  1  0
 20 21  1  0
 19 22  2  0
 22 23  1  0
 23 24  2  0
 24 25  1  0
 13  6  1  0
 25 14  1  0
 24 17  1  0
  1 26  1  0
  1 27  1  0
  1 28  1  0
  2 29  1  0
  2 30  1  0
  4 31  1  0
  4 32  1  0
  5 33  1  0
  5 34  1  0
  7 35  1  0
  8 36  1  0
  9 37  1  0
 12 38  1  0
 12 39  1  0
 12 40  1  0
 13 41  1  0
 14 42  1  1
 15 43  1  0
 15 44  1  0
 16 45  1  0
 16 46  1  0
 18 47  1  0
 21 48  1  0
 21 49  1  0
 21 50  1  0
 22 51  1  0
 23 52  1  0
 25 53  1  0
 25 54  1  0
M  END
>  <UniqueID>  (72) 
28

>  <SMILES>  (72) 
CCN(CCc1cccc(OC)c1)[C@H]1CCc2cc(OC)ccc2C1

>  <Energy>  (72) 
65.60821063572106

>  <Genealogy>  (72) 
CCN(CCc1cccc(OC)c1)[C@H]1CCc2cc(OC)ccc2C1 (chirality)
CCN(CCc1cccc(OC)c1)[C@H]1CCc2cc(OC)ccc2C1 (3D coordinates assigned)
CCN(CCc1cccc(OC)c1)[C@H]1CCc2cc(OC)ccc2C1 (nonaromatic ring conformer: 65.60821063572106 kcal/mol)

>  <smiles>  (72) 
CCN(CCc1cccc(OC)c1)C1CCc2cc(OC)ccc2C1

>  <score_type>  (72) 
oracle

>  <origin>  (72) 
autodockgpu

>  <m_score__min__energy>  (72) 
-6.0700000000000003

>  <m_primary>  (72) 
energy

>  <meeko>  (72) 
{"free_energy": -5.86, "intermolecular_energy": -7.95, "internal_energy": -1.07, "cluster_size": 6, "cluster_id": 4, "rank_in_cluster": 1}

>  <energy>  (72) 
-5.42

>  <cluster_rmsd>  (72) 
0.0

>  <rmsd>  (72) 
270.69

>  <cluster>  (72) 
5

$$$$
MXOKLQPDPZBAAI-FQEVSTJZNA-N
     RDKit          3D

 54 56  0  0  0  0  0  0  0  0999 V2000
  141.9600   80.9920  217.9740 C   0  0  0  0  0  0  0  0  0  0  0  0
  142.4830   79.6420  218.4740 C   0  0  0  0  0  0  0  0  0  0  0  0
  141.5190   78.5220  218.3150 N   0  0  0  0  0  0  0  0  0  0  0  0
  140.3050   78.6690  219.1630 C   0  0  0  0  0  0  0  0  0  0  0  0
  140.4380   78.1410  220.6170 C   0  0  0  0  0  0  0  0  0  0  0  0
  141.0820   79.1360  221.5520 C   0  0  0  0  0  0  0  0  0  0  0  0
  141.8000   78.6880  222.6740 C   0  0  0  0  0  0  0  0  0  0  0  0
  142.4050   79.6040  223.5350 C   0  0  0  0  0  0  0  0  0  0  0  0
  142.2920   80.9750  223.2940 C   0  0  0  0  0  0  0  0  0  0  0  0
  141.5650   81.4440  222.1950 C   0  0  0  0  0  0  0  0  0  0  0  0
  141.4810   82.8300  221.9940 O   0  0  0  0  0  0  0  0  0  0  0  0
  140.7170   83.4500  220.9650 C   0  0  0  0  0  0  0  0  0  0  0  0
  140.9480   80.5180  221.3310 C   0  0  0  0  0  0  0  0  0  0  0  0
  142.0770   77.1410  218.1810 C   0  0  1  0  0  0  0  0  0  0  0  0
  142.9240   77.0240  216.8920 C   0  0  0  0  0  0  0  0  0  0  0  0
  143.3620   75.5780  216.6460 C   0  0  0  0  0  0  0  0  0  0  0  0
  143.9600   74.9310  217.8680 C   0  0  0  0  0  0  0  0  0  0  0  0
  144.6830   73.7370  217.7160 C   0  0  0  0  0  0  0  0  0  0  0  0
  145.2100   73.0700  218.8380 C   0  0  0  0  0  0  0  0  0  0  0  0
  145.9430   71.8790  218.7310 O   0  0  0  0  0  0  0  0  0  0  0  0
  145.4500   70.5940  219.1000 C   0  0  0  0  0  0  0  0  0  0  0  0
  144.9990   73.6060  220.1110 C   0  0  0  0  0  0  0  0  0  0  0  0
  144.2680   74.7840  220.2720 C   0  0  0  0  0  0  0  0  0  0  0  0
  143.7250   75.4460  219.1610 C   0  0  0  0  0  0  0  0  0  0  0  0
  142.9900   76.7480  219.3730 C   0  0  0  0  0  0  0  0  0  0  0  0
  141.7125   81.6309  218.8346 H   0  0  0  0  0  0  0  0  0  0  0  0
  142.7335   81.4818  217.3642 H   0  0  0  0  0  0  0  0  0  0  0  0
  141.0585   80.8329  217.3642 H   0  0  0  0  0  0  0  0  0  0  0  0
  143.3955   79.3951  217.9115 H   0  0  0  0  0  0  0  0  0  0  0  0
  142.6663   79.7524  219.5530 H   0  0  0  0  0  0  0  0  0  0  0  0
  140.0535   79.7387  219.2125 H   0  0  0  0  0  0  0  0  0  0  0  0
  139.5278   78.0526  218.6875 H   0  0  0  0  0  0  0  0  0  0  0  0
  139.4332   77.9036  220.9965 H   0  0  0  0  0  0  0  0  0  0  0  0
  141.0868   77.2533  220.5854 H   0  0  0  0  0  0  0  0  0  0  0  0
  141.8854   77.6098  222.8743 H   0  0  0  0  0  0  0  0  0  0  0  0
  142.9727   79.2453  224.4063 H   0  0  0  0  0  0  0  0  0  0  0  0
  142.7781   81.6909  223.9731 H   0  0  0  0  0  0  0  0  0  0  0  0
  139.9382   84.0820  221.4167 H   0  0  0  0  0  0  0  0  0  0  0  0
  141.3772   84.0709  220.3416 H   0  0  0  0  0  0  0  0  0  0  0  0
  140.2453   82.6761  220.3416 H   0  0  0  0  0  0  0  0  0  0  0  0
  140.3567   80.8791  220.4766 H   0  0  0  0  0  0  0  0  0  0  0  0
  141.2097   76.4649  218.1534 H   0  0  0  0  0  0  0  0  0  0  0  0
  142.3243   77.3676  216.0363 H   0  0  0  0  0  0  0  0  0  0  0  0
  143.8242   77.6451  217.0095 H   0  0  0  0  0  0  0  0  0  0  0  0
  142.4841   74.9936  216.3334 H   0  0  0  0  0  0  0  0  0  0  0  0
  144.1395   75.5962  215.8681 H   0  0  0  0  0  0  0  0  0  0  0  0
  144.8391   73.3188  216.7106 H   0  0  0  0  0  0  0  0  0  0  0  0
  145.4193   70.5141  220.1967 H   0  0  0  0  0  0  0  0  0  0  0  0
  144.4365   70.4597  218.6941 H   0  0  0  0  0  0  0  0  0  0  0  0
  146.1136   69.8163  218.6941 H   0  0  0  0  0  0  0  0  0  0  0  0
  145.4123   73.0955  220.9933 H   0  0  0  0  0  0  0  0  0  0  0  0
  144.1162   75.1973  221.2800 H   0  0  0  0  0  0  0  0  0  0  0  0
  142.3660   76.6536  220.2739 H   0  0  0  0  0  0  0  0  0  0  0  0
  143.7496   77.5371  219.4745 H   0  0  0  0  0  0  0  0  0  0  0  0
  1  2  1  0
  2  3  1  0
  3  4  1  0
  4  5  1  0
  5  6  1  0
  6  7  2  0
  7  8  1  0
  8  9  2  0
  9 10  1  0
 10 11  1  0
 11 12  1  0
 10 13  2  0
  3 14  1  0
 14 15  1  0
 15 16  1  0
 16 17  1  0
 17 18  2  0
 18 19  1  0
 19 20  1  0
 20 21  1  0
 19 22  2  0
 22 23  1  0
 23 24  2  0
 24 25  1  0
 13  6  1  0
 25 14  1  0
 24 17  1  0
  1 26  1  0
  1 27  1  0
  1 28  1  0
  2 29  1  0
  2 30  1  0
  4 31  1  0
  4 32  1  0
  5 33  1  0
  5 34  1  0
  7 35  1  0
  8 36  1  0
  9 37  1  0
 12 38  1  0
 12 39  1  0
 12 40  1  0
 13 41  1  0
 14 42  1  6
 15 43  1  0
 15 44  1  0
 16 45  1  0
 16 46  1  0
 18 47  1  0
 21 48  1  0
 21 49  1  0
 21 50  1  0
 22 51  1  0
 23 52  1  0
 25 53  1  0
 25 54  1  0
M  END
>  <UniqueID>  (73) 
28

>  <SMILES>  (73) 
CCN(CCc1cccc(OC)c1)[C@H]1CCc2cc(OC)ccc2C1

>  <Energy>  (73) 
65.60821063572106

>  <Genealogy>  (73) 
CCN(CCc1cccc(OC)c1)[C@H]1CCc2cc(OC)ccc2C1 (chirality)
CCN(CCc1cccc(OC)c1)[C@H]1CCc2cc(OC)ccc2C1 (3D coordinates assigned)
CCN(CCc1cccc(OC)c1)[C@H]1CCc2cc(OC)ccc2C1 (nonaromatic ring conformer: 65.60821063572106 kcal/mol)

>  <smiles>  (73) 
CCN(CCc1cccc(OC)c1)C1CCc2cc(OC)ccc2C1

>  <score_type>  (73) 
oracle

>  <origin>  (73) 
autodockgpu

>  <m_score__min__energy>  (73) 
-6.0700000000000003

>  <m_primary>  (73) 
energy

>  <meeko>  (73) 
{"free_energy": -5.59, "intermolecular_energy": -7.68, "internal_energy": -1.18, "cluster_size": 6, "cluster_id": 4, "rank_in_cluster": 4}

>  <energy>  (73) 
-5.4

>  <cluster_rmsd>  (73) 
0.19

>  <rmsd>  (73) 
270.69

>  <cluster>  (73) 
5

$$$$
MXOKLQPDPZBAAI-FQEVSTJZNA-N
     RDKit          3D

 54 56  0  0  0  0  0  0  0  0999 V2000
  143.0200   74.5050  220.4560 C   0  0  0  0  0  0  0  0  0  0  0  0
  141.5940   73.9560  220.3630 C   0  0  0  0  0  0  0  0  0  0  0  0
  140.7540   74.2480  221.5550 N   0  0  0  0  0  0  0  0  0  0  0  0
  139.9100   73.0950  221.9730 C   0  0  0  0  0  0  0  0  0  0  0  0
  140.6780   71.7790  222.2750 C   0  0  0  0  0  0  0  0  0  0  0  0
  140.2800   71.1480  223.5870 C   0  0  0  0  0  0  0  0  0  0  0  0
  139.2740   70.1680  223.6220 C   0  0  0  0  0  0  0  0  0  0  0  0
  138.9090   69.5760  224.8320 C   0  0  0  0  0  0  0  0  0  0  0  0
  139.5360   69.9600  226.0190 C   0  0  0  0  0  0  0  0  0  0  0  0
  140.5270   70.9480  226.0110 C   0  0  0  0  0  0  0  0  0  0  0  0
  141.1280   71.2990  227.2290 O   0  0  0  0  0  0  0  0  0  0  0  0
  140.4230   71.7940  228.3620 C   0  0  0  0  0  0  0  0  0  0  0  0
  140.8870   71.5510  224.7900 C   0  0  0  0  0  0  0  0  0  0  0  0
  140.1260   75.6020  221.6460 C   0  0  1  0  0  0  0  0  0  0  0  0
  138.7380   75.5080  222.3200 C   0  0  0  0  0  0  0  0  0  0  0  0
  138.0050   76.8510  222.2690 C   0  0  0  0  0  0  0  0  0  0  0  0
  138.8620   78.0030  222.7240 C   0  0  0  0  0  0  0  0  0  0  0  0
  138.2440   79.2270  223.0290 C   0  0  0  0  0  0  0  0  0  0  0  0
  139.0140   80.3450  223.4020 C   0  0  0  0  0  0  0  0  0  0  0  0
  138.4380   81.5840  223.7200 O   0  0  0  0  0  0  0  0  0  0  0  0
  137.2880   81.7490  224.5440 C   0  0  0  0  0  0  0  0  0  0  0  0
  140.4050   80.2260  223.4600 C   0  0  0  0  0  0  0  0  0  0  0  0
  141.0280   79.0180  223.1440 C   0  0  0  0  0  0  0  0  0  0  0  0
  140.2700   77.9040  222.7540 C   0  0  0  0  0  0  0  0  0  0  0  0
  140.9780   76.5990  222.4750 C   0  0  0  0  0  0  0  0  0  0  0  0
  143.3028   74.6139  221.5134 H   0  0  0  0  0  0  0  0  0  0  0  0
  143.7136   73.8096  219.9607 H   0  0  0  0  0  0  0  0  0  0  0  0
  143.0683   75.4860  219.9607 H   0  0  0  0  0  0  0  0  0  0  0  0
  141.1092   74.4002  219.4811 H   0  0  0  0  0  0  0  0  0  0  0  0
  141.6785   72.8614  220.2939 H   0  0  0  0  0  0  0  0  0  0  0  0
  139.3654   73.3861  222.8833 H   0  0  0  0  0  0  0  0  0  0  0  0
  139.2559   72.8734  221.1168 H   0  0  0  0  0  0  0  0  0  0  0  0
  140.4750   71.0619  221.4660 H   0  0  0  0  0  0  0  0  0  0  0  0
  141.7464   72.0315  222.3437 H   0  0  0  0  0  0  0  0  0  0  0  0
  138.7716   69.8658  222.6913 H   0  0  0  0  0  0  0  0  0  0  0  0
  138.1250   68.8046  224.8506 H   0  0  0  0  0  0  0  0  0  0  0  0
  139.2489   69.4824  226.9674 H   0  0  0  0  0  0  0  0  0  0  0  0
  140.9170   71.4471  229.2816 H   0  0  0  0  0  0  0  0  0  0  0  0
  140.4196   72.8938  228.3400 H   0  0  0  0  0  0  0  0  0  0  0  0
  139.3875   71.4237  228.3400 H   0  0  0  0  0  0  0  0  0  0  0  0
  141.6494   72.3439  224.7772 H   0  0  0  0  0  0  0  0  0  0  0  0
  140.0451   75.9698  220.6125 H   0  0  0  0  0  0  0  0  0  0  0  0
  138.1358   74.7506  221.7969 H   0  0  0  0  0  0  0  0  0  0  0  0
  138.8813   75.2295  223.3745 H   0  0  0  0  0  0  0  0  0  0  0  0
  137.6864   77.0381  221.2329 H   0  0  0  0  0  0  0  0  0  0  0  0
  137.1475   76.7858  222.9549 H   0  0  0  0  0  0  0  0  0  0  0  0
  137.1486   79.3127  222.9760 H   0  0  0  0  0  0  0  0  0  0  0  0
  137.5858   81.7063  225.6021 H   0  0  0  0  0  0  0  0  0  0  0  0
  136.8226   82.7231  224.3332 H   0  0  0  0  0  0  0  0  0  0  0  0
  136.5674   80.9450  224.3332 H   0  0  0  0  0  0  0  0  0  0  0  0
  141.0143   81.0922  223.7574 H   0  0  0  0  0  0  0  0  0  0  0  0
  142.1236   78.9386  223.2013 H   0  0  0  0  0  0  0  0  0  0  0  0
  141.9018   76.8153  221.9184 H   0  0  0  0  0  0  0  0  0  0  0  0
  141.1801   76.1245  223.4466 H   0  0  0  0  0  0  0  0  0  0  0  0
  1  2  1  0
  2  3  1  0
  3  4  1  0
  4  5  1  0
  5  6  1  0
  6  7  2  0
  7  8  1  0
  8  9  2  0
  9 10  1  0
 10 11  1  0
 11 12  1  0
 10 13  2  0
  3 14  1  0
 14 15  1  0
 15 16  1  0
 16 17  1  0
 17 18  2  0
 18 19  1  0
 19 20  1  0
 20 21  1  0
 19 22  2  0
 22 23  1  0
 23 24  2  0
 24 25  1  0
 13  6  1  0
 25 14  1  0
 24 17  1  0
  1 26  1  0
  1 27  1  0
  1 28  1  0
  2 29  1  0
  2 30  1  0
  4 31  1  0
  4 32  1  0
  5 33  1  0
  5 34  1  0
  7 35  1  0
  8 36  1  0
  9 37  1  0
 12 38  1  0
 12 39  1  0
 12 40  1  0
 13 41  1  0
 14 42  1  6
 15 43  1  0
 15 44  1  0
 16 45  1  0
 16 46  1  0
 18 47  1  0
 21 48  1  0
 21 49  1  0
 21 50  1  0
 22 51  1  0
 23 52  1  0
 25 53  1  0
 25 54  1  0
M  END
>  <UniqueID>  (74) 
28

>  <SMILES>  (74) 
CCN(CCc1cccc(OC)c1)[C@H]1CCc2cc(OC)ccc2C1

>  <Energy>  (74) 
65.60821063572106

>  <Genealogy>  (74) 
CCN(CCc1cccc(OC)c1)[C@H]1CCc2cc(OC)ccc2C1 (chirality)
CCN(CCc1cccc(OC)c1)[C@H]1CCc2cc(OC)ccc2C1 (3D coordinates assigned)
CCN(CCc1cccc(OC)c1)[C@H]1CCc2cc(OC)ccc2C1 (nonaromatic ring conformer: 65.60821063572106 kcal/mol)

>  <smiles>  (74) 
CCN(CCc1cccc(OC)c1)C1CCc2cc(OC)ccc2C1

>  <score_type>  (74) 
oracle

>  <origin>  (74) 
autodockgpu

>  <m_score__min__energy>  (74) 
-6.0700000000000003

>  <m_primary>  (74) 
energy

>  <meeko>  (74) 
{"free_energy": -6.02, "intermolecular_energy": -8.11, "internal_energy": -0.8, "cluster_size": 1, "cluster_id": 2, "rank_in_cluster": 1}

>  <energy>  (74) 
-5.39

>  <cluster_rmsd>  (74) 
0.21

>  <rmsd>  (74) 
270.69

>  <cluster>  (74) 
5

$$$$
MXOKLQPDPZBAAI-FQEVSTJZNA-N
     RDKit          3D

 54 56  0  0  0  0  0  0  0  0999 V2000
  142.0450   80.9630  216.4250 C   0  0  0  0  0  0  0  0  0  0  0  0
  142.0270   81.3190  217.9150 C   0  0  0  0  0  0  0  0  0  0  0  0
  140.8270   80.8250  218.6410 N   0  0  0  0  0  0  0  0  0  0  0  0
  140.3330   81.7780  219.6730 C   0  0  0  0  0  0  0  0  0  0  0  0
  141.3600   82.1640  220.7720 C   0  0  0  0  0  0  0  0  0  0  0  0
  141.4000   81.1800  221.9170 C   0  0  0  0  0  0  0  0  0  0  0  0
  142.5910   80.4990  222.2200 C   0  0  0  0  0  0  0  0  0  0  0  0
  142.6350   79.5960  223.2840 C   0  0  0  0  0  0  0  0  0  0  0  0
  141.4910   79.3550  224.0480 C   0  0  0  0  0  0  0  0  0  0  0  0
  140.2900   80.0070  223.7510 C   0  0  0  0  0  0  0  0  0  0  0  0
  139.1680   79.7340  224.5490 O   0  0  0  0  0  0  0  0  0  0  0  0
  137.9890   80.5310  224.5810 C   0  0  0  0  0  0  0  0  0  0  0  0
  140.2450   80.9120  222.6720 C   0  0  0  0  0  0  0  0  0  0  0  0
  140.7800   79.3730  218.9960 C   0  0  1  0  0  0  0  0  0  0  0  0
  142.1990   78.8530  219.3250 C   0  0  0  0  0  0  0  0  0  0  0  0
  142.2000   77.3350  219.5220 C   0  0  0  0  0  0  0  0  0  0  0  0
  141.1130   76.8640  220.4520 C   0  0  0  0  0  0  0  0  0  0  0  0
  141.1830   75.5610  220.9720 C   0  0  0  0  0  0  0  0  0  0  0  0
  140.1580   75.0630  221.7980 C   0  0  0  0  0  0  0  0  0  0  0  0
  140.1910   73.7700  222.3420 O   0  0  0  0  0  0  0  0  0  0  0  0
  139.2640   72.7380  222.0210 C   0  0  0  0  0  0  0  0  0  0  0  0
  139.0630   75.8790  222.0930 C   0  0  0  0  0  0  0  0  0  0  0  0
  138.9780   77.1690  221.5690 C   0  0  0  0  0  0  0  0  0  0  0  0
  139.9860   77.6680  220.7300 C   0  0  0  0  0  0  0  0  0  0  0  0
  139.8850   79.0890  220.2300 C   0  0  0  0  0  0  0  0  0  0  0  0
  142.1003   79.8705  216.3097 H   0  0  0  0  0  0  0  0  0  0  0  0
  141.1268   81.3361  215.9477 H   0  0  0  0  0  0  0  0  0  0  0  0
  142.9208   81.4268  215.9477 H   0  0  0  0  0  0  0  0  0  0  0  0
  142.9201   80.8822  218.3857 H   0  0  0  0  0  0  0  0  0  0  0  0
  142.0080   82.4169  217.9794 H   0  0  0  0  0  0  0  0  0  0  0  0
  140.0214   82.7005  219.1611 H   0  0  0  0  0  0  0  0  0  0  0  0
  139.5131   81.2615  220.1936 H   0  0  0  0  0  0  0  0  0  0  0  0
  142.3598   82.2112  220.3158 H   0  0  0  0  0  0  0  0  0  0  0  0
  141.0495   83.1352  221.1847 H   0  0  0  0  0  0  0  0  0  0  0  0
  143.4929   80.6781  221.6162 H   0  0  0  0  0  0  0  0  0  0  0  0
  143.5732   79.0730  223.5211 H   0  0  0  0  0  0  0  0  0  0  0  0
  141.5349   78.6475  224.8891 H   0  0  0  0  0  0  0  0  0  0  0  0
  137.7046   80.7232  225.6261 H   0  0  0  0  0  0  0  0  0  0  0  0
  138.1786   81.4869  224.0708 H   0  0  0  0  0  0  0  0  0  0  0  0
  137.1727   79.9987  224.0708 H   0  0  0  0  0  0  0  0  0  0  0  0
  139.2989   81.4126  222.4185 H   0  0  0  0  0  0  0  0  0  0  0  0
  140.3576   78.8598  218.1196 H   0  0  0  0  0  0  0  0  0  0  0  0
  142.8757   79.1077  218.4960 H   0  0  0  0  0  0  0  0  0  0  0  0
  142.5355   79.3259  220.2594 H   0  0  0  0  0  0  0  0  0  0  0  0
  142.0573   76.8539  218.5431 H   0  0  0  0  0  0  0  0  0  0  0  0
  143.1640   77.0617  219.9758 H   0  0  0  0  0  0  0  0  0  0  0  0
  142.0469   74.9239  220.7314 H   0  0  0  0  0  0  0  0  0  0  0  0
  138.8691   72.2983  222.9487 H   0  0  0  0  0  0  0  0  0  0  0  0
  138.4352   73.1594  221.4331 H   0  0  0  0  0  0  0  0  0  0  0  0
  139.7716   71.9590  221.4331 H   0  0  0  0  0  0  0  0  0  0  0  0
  138.2610   75.5010  222.7441 H   0  0  0  0  0  0  0  0  0  0  0  0
  138.1124   77.8012  221.8159 H   0  0  0  0  0  0  0  0  0  0  0  0
  138.8387   79.2883  219.9551 H   0  0  0  0  0  0  0  0  0  0  0  0
  140.2338   79.7443  221.0417 H   0  0  0  0  0  0  0  0  0  0  0  0
  1  2  1  0
  2  3  1  0
  3  4  1  0
  4  5  1  0
  5  6  1  0
  6  7  2  0
  7  8  1  0
  8  9  2  0
  9 10  1  0
 10 11  1  0
 11 12  1  0
 10 13  2  0
  3 14  1  0
 14 15  1  0
 15 16  1  0
 16 17  1  0
 17 18  2  0
 18 19  1  0
 19 20  1  0
 20 21  1  0
 19 22  2  0
 22 23  1  0
 23 24  2  0
 24 25  1  0
 13  6  1  0
 25 14  1  0
 24 17  1  0
  1 26  1  0
  1 27  1  0
  1 28  1  0
  2 29  1  0
  2 30  1  0
  4 31  1  0
  4 32  1  0
  5 33  1  0
  5 34  1  0
  7 35  1  0
  8 36  1  0
  9 37  1  0
 12 38  1  0
 12 39  1  0
 12 40  1  0
 13 41  1  0
 14 42  1  6
 15 43  1  0
 15 44  1  0
 16 45  1  0
 16 46  1  0
 18 47  1  0
 21 48  1  0
 21 49  1  0
 21 50  1  0
 22 51  1  0
 23 52  1  0
 25 53  1  0
 25 54  1  0
M  END
>  <UniqueID>  (75) 
28

>  <SMILES>  (75) 
CCN(CCc1cccc(OC)c1)[C@H]1CCc2cc(OC)ccc2C1

>  <Energy>  (75) 
65.60821063572106

>  <Genealogy>  (75) 
CCN(CCc1cccc(OC)c1)[C@H]1CCc2cc(OC)ccc2C1 (chirality)
CCN(CCc1cccc(OC)c1)[C@H]1CCc2cc(OC)ccc2C1 (3D coordinates assigned)
CCN(CCc1cccc(OC)c1)[C@H]1CCc2cc(OC)ccc2C1 (nonaromatic ring conformer: 65.60821063572106 kcal/mol)

>  <smiles>  (75) 
CCN(CCc1cccc(OC)c1)C1CCc2cc(OC)ccc2C1

>  <score_type>  (75) 
oracle

>  <origin>  (75) 
autodockgpu

>  <m_score__min__energy>  (75) 
-6.0700000000000003

>  <m_primary>  (75) 
energy

>  <meeko>  (75) 
{"free_energy": -5.16, "intermolecular_energy": -7.25, "internal_energy": -1.81, "cluster_size": 7, "cluster_id": 5, "rank_in_cluster": 7}

>  <energy>  (75) 
-5.38

>  <cluster_rmsd>  (75) 
0.13

>  <rmsd>  (75) 
270.7

>  <cluster>  (75) 
5

$$$$
MXOKLQPDPZBAAI-FQEVSTJZNA-N
     RDKit          3D

 54 56  0  0  0  0  0  0  0  0999 V2000
  139.4370   77.5860  216.9870 C   0  0  0  0  0  0  0  0  0  0  0  0
  140.3190   78.7700  217.3950 C   0  0  0  0  0  0  0  0  0  0  0  0
  141.4040   78.4160  218.3470 N   0  0  0  0  0  0  0  0  0  0  0  0
  142.3450   79.5400  218.6070 C   0  0  0  0  0  0  0  0  0  0  0  0
  141.8430   80.6110  219.6140 C   0  0  0  0  0  0  0  0  0  0  0  0
  141.8080   80.1150  221.0390 C   0  0  0  0  0  0  0  0  0  0  0  0
  142.2180   80.9540  222.0890 C   0  0  0  0  0  0  0  0  0  0  0  0
  142.1780   80.5010  223.4090 C   0  0  0  0  0  0  0  0  0  0  0  0
  141.7400   79.2060  223.6940 C   0  0  0  0  0  0  0  0  0  0  0  0
  141.3470   78.3470  222.6630 C   0  0  0  0  0  0  0  0  0  0  0  0
  140.9140   77.0560  223.0010 O   0  0  0  0  0  0  0  0  0  0  0  0
  140.3800   76.1180  222.0720 C   0  0  0  0  0  0  0  0  0  0  0  0
  141.3960   78.8020  221.3310 C   0  0  0  0  0  0  0  0  0  0  0  0
  142.0090   77.0530  218.2330 C   0  0  1  0  0  0  0  0  0  0  0  0
  142.9620   76.9860  217.0170 C   0  0  0  0  0  0  0  0  0  0  0  0
  143.4580   75.5570  216.7790 C   0  0  0  0  0  0  0  0  0  0  0  0
  143.9720   74.9000  218.0330 C   0  0  0  0  0  0  0  0  0  0  0  0
  144.7380   73.7290  217.9190 C   0  0  0  0  0  0  0  0  0  0  0  0
  145.1890   73.0520  219.0670 C   0  0  0  0  0  0  0  0  0  0  0  0
  145.9610   71.8820  218.9980 O   0  0  0  0  0  0  0  0  0  0  0  0
  145.4230   70.5640  218.9640 C   0  0  0  0  0  0  0  0  0  0  0  0
  144.8590   73.5540  220.3280 C   0  0  0  0  0  0  0  0  0  0  0  0
  144.0860   74.7090  220.4520 C   0  0  0  0  0  0  0  0  0  0  0  0
  143.6180   75.3810  219.3120 C   0  0  0  0  0  0  0  0  0  0  0  0
  142.8320   76.6590  219.4880 C   0  0  0  0  0  0  0  0  0  0  0  0
  139.0608   77.0810  217.8890 H   0  0  0  0  0  0  0  0  0  0  0  0
  138.5881   77.9499  216.3895 H   0  0  0  0  0  0  0  0  0  0  0  0
  140.0286   76.8768  216.3895 H   0  0  0  0  0  0  0  0  0  0  0  0
  140.7783   79.1882  216.4871 H   0  0  0  0  0  0  0  0  0  0  0  0
  139.6664   79.4903  217.9100 H   0  0  0  0  0  0  0  0  0  0  0  0
  143.2799   79.1153  219.0015 H   0  0  0  0  0  0  0  0  0  0  0  0
  142.4666   80.0614  217.6461 H   0  0  0  0  0  0  0  0  0  0  0  0
  142.5140   81.4811  219.5628 H   0  0  0  0  0  0  0  0  0  0  0  0
  140.8116   80.8684  219.3313 H   0  0  0  0  0  0  0  0  0  0  0  0
  142.5720   81.9722  221.8700 H   0  0  0  0  0  0  0  0  0  0  0  0
  142.4924   81.1661  224.2268 H   0  0  0  0  0  0  0  0  0  0  0  0
  141.7039   78.8591  224.7372 H   0  0  0  0  0  0  0  0  0  0  0  0
  139.9078   75.2885  222.6189 H   0  0  0  0  0  0  0  0  0  0  0  0
  139.6293   76.6148  221.4398 H   0  0  0  0  0  0  0  0  0  0  0  0
  141.1904   75.7261  221.4398 H   0  0  0  0  0  0  0  0  0  0  0  0
  141.1098   78.1252  220.5124 H   0  0  0  0  0  0  0  0  0  0  0  0
  141.1659   76.3554  218.1209 H   0  0  0  0  0  0  0  0  0  0  0  0
  142.4258   77.3333  216.1215 H   0  0  0  0  0  0  0  0  0  0  0  0
  143.8324   77.6268  217.2214 H   0  0  0  0  0  0  0  0  0  0  0  0
  142.6247   74.9571  216.3844 H   0  0  0  0  0  0  0  0  0  0  0  0
  144.2950   75.6117  216.0674 H   0  0  0  0  0  0  0  0  0  0  0  0
  144.9881   73.3368  216.9222 H   0  0  0  0  0  0  0  0  0  0  0  0
  145.2751   70.2017  219.9920 H   0  0  0  0  0  0  0  0  0  0  0  0
  144.4576   70.5755  218.4369 H   0  0  0  0  0  0  0  0  0  0  0  0
  146.1207   69.8967  218.4369 H   0  0  0  0  0  0  0  0  0  0  0  0
  145.2115   73.0343  221.2311 H   0  0  0  0  0  0  0  0  0  0  0  0
  143.8412   75.0964  221.4520 H   0  0  0  0  0  0  0  0  0  0  0  0
  142.1394   76.5291  220.3327 H   0  0  0  0  0  0  0  0  0  0  0  0
  143.5584   77.4654  219.6668 H   0  0  0  0  0  0  0  0  0  0  0  0
  1  2  1  0
  2  3  1  0
  3  4  1  0
  4  5  1  0
  5  6  1  0
  6  7  2  0
  7  8  1  0
  8  9  2  0
  9 10  1  0
 10 11  1  0
 11 12  1  0
 10 13  2  0
  3 14  1  0
 14 15  1  0
 15 16  1  0
 16 17  1  0
 17 18  2  0
 18 19  1  0
 19 20  1  0
 20 21  1  0
 19 22  2  0
 22 23  1  0
 23 24  2  0
 24 25  1  0
 13  6  1  0
 25 14  1  0
 24 17  1  0
  1 26  1  0
  1 27  1  0
  1 28  1  0
  2 29  1  0
  2 30  1  0
  4 31  1  0
  4 32  1  0
  5 33  1  0
  5 34  1  0
  7 35  1  0
  8 36  1  0
  9 37  1  0
 12 38  1  0
 12 39  1  0
 12 40  1  0
 13 41  1  0
 14 42  1  6
 15 43  1  0
 15 44  1  0
 16 45  1  0
 16 46  1  0
 18 47  1  0
 21 48  1  0
 21 49  1  0
 21 50  1  0
 22 51  1  0
 23 52  1  0
 25 53  1  0
 25 54  1  0
M  END
>  <UniqueID>  (76) 
28

>  <SMILES>  (76) 
CCN(CCc1cccc(OC)c1)[C@H]1CCc2cc(OC)ccc2C1

>  <Energy>  (76) 
65.60821063572106

>  <Genealogy>  (76) 
CCN(CCc1cccc(OC)c1)[C@H]1CCc2cc(OC)ccc2C1 (chirality)
CCN(CCc1cccc(OC)c1)[C@H]1CCc2cc(OC)ccc2C1 (3D coordinates assigned)
CCN(CCc1cccc(OC)c1)[C@H]1CCc2cc(OC)ccc2C1 (nonaromatic ring conformer: 65.60821063572106 kcal/mol)

>  <smiles>  (76) 
CCN(CCc1cccc(OC)c1)C1CCc2cc(OC)ccc2C1

>  <score_type>  (76) 
oracle

>  <origin>  (76) 
autodockgpu

>  <m_score__min__energy>  (76) 
-6.0700000000000003

>  <m_primary>  (76) 
energy

>  <meeko>  (76) 
{"free_energy": -5.57, "intermolecular_energy": -7.66, "internal_energy": -1.26, "cluster_size": 6, "cluster_id": 4, "rank_in_cluster": 5}

>  <energy>  (76) 
-5.36

>  <cluster_rmsd>  (76) 
0.22

>  <rmsd>  (76) 
270.68

>  <cluster>  (76) 
5

$$$$
MXOKLQPDPZBAAI-FQEVSTJZNA-N
     RDKit          3D

 54 56  0  0  0  0  0  0  0  0999 V2000
  142.7680   82.0730  217.1090 C   0  0  0  0  0  0  0  0  0  0  0  0
  142.7360   80.7700  217.9140 C   0  0  0  0  0  0  0  0  0  0  0  0
  141.3700   80.3320  218.3020 N   0  0  0  0  0  0  0  0  0  0  0  0
  140.6310   81.3520  219.0960 C   0  0  0  0  0  0  0  0  0  0  0  0
  141.4370   82.0180  220.2440 C   0  0  0  0  0  0  0  0  0  0  0  0
  141.4180   81.2170  221.5240 C   0  0  0  0  0  0  0  0  0  0  0  0
  142.5740   80.5400  221.9500 C   0  0  0  0  0  0  0  0  0  0  0  0
  142.5630   79.8060  223.1370 C   0  0  0  0  0  0  0  0  0  0  0  0
  141.3990   79.7300  223.9050 C   0  0  0  0  0  0  0  0  0  0  0  0
  140.2310   80.3790  223.4890 C   0  0  0  0  0  0  0  0  0  0  0  0
  139.0880   80.2740  224.2960 O   0  0  0  0  0  0  0  0  0  0  0  0
  137.7570   80.1930  223.7980 C   0  0  0  0  0  0  0  0  0  0  0  0
  140.2420   81.1120  222.2870 C   0  0  0  0  0  0  0  0  0  0  0  0
  141.1900   78.9060  218.7150 C   0  0  1  0  0  0  0  0  0  0  0  0
  142.5630   78.2060  218.8450 C   0  0  0  0  0  0  0  0  0  0  0  0
  142.3970   76.7050  219.0980 C   0  0  0  0  0  0  0  0  0  0  0  0
  141.4160   76.4010  220.1990 C   0  0  0  0  0  0  0  0  0  0  0  0
  141.3950   75.1100  220.7510 C   0  0  0  0  0  0  0  0  0  0  0  0
  140.4560   74.7690  221.7420 C   0  0  0  0  0  0  0  0  0  0  0  0
  140.4040   73.4930  222.3230 O   0  0  0  0  0  0  0  0  0  0  0  0
  139.3500   72.5570  222.1190 C   0  0  0  0  0  0  0  0  0  0  0  0
  139.5350   75.7290  222.1680 C   0  0  0  0  0  0  0  0  0  0  0  0
  139.5380   77.0100  221.6140 C   0  0  0  0  0  0  0  0  0  0  0  0
  140.4600   77.3540  220.6140 C   0  0  0  0  0  0  0  0  0  0  0  0
  140.4680   78.7670  220.0810 C   0  0  0  0  0  0  0  0  0  0  0  0
  142.7891   82.9297  217.7987 H   0  0  0  0  0  0  0  0  0  0  0  0
  143.6668   82.0904  216.4751 H   0  0  0  0  0  0  0  0  0  0  0  0
  141.8711   82.1345  216.4751 H   0  0  0  0  0  0  0  0  0  0  0  0
  143.1938   79.9762  217.3055 H   0  0  0  0  0  0  0  0  0  0  0  0
  143.2864   80.9593  218.8474 H   0  0  0  0  0  0  0  0  0  0  0  0
  140.3032   82.1450  218.4077 H   0  0  0  0  0  0  0  0  0  0  0  0
  139.8023   80.8151  219.5808 H   0  0  0  0  0  0  0  0  0  0  0  0
  142.4814   82.1320  219.9180 H   0  0  0  0  0  0  0  0  0  0  0  0
  140.9635   82.9877  220.4572 H   0  0  0  0  0  0  0  0  0  0  0  0
  143.4914   80.5890  221.3450 H   0  0  0  0  0  0  0  0  0  0  0  0
  143.4738   79.2858  223.4686 H   0  0  0  0  0  0  0  0  0  0  0  0
  141.4003   79.1560  224.8434 H   0  0  0  0  0  0  0  0  0  0  0  0
  137.0520   80.1501  224.6413 H   0  0  0  0  0  0  0  0  0  0  0  0
  137.5407   81.0796  223.1839 H   0  0  0  0  0  0  0  0  0  0  0  0
  137.6498   79.2867  223.1839 H   0  0  0  0  0  0  0  0  0  0  0  0
  139.3222   81.6069  221.9419 H   0  0  0  0  0  0  0  0  0  0  0  0
  140.5735   78.4387  217.9329 H   0  0  0  0  0  0  0  0  0  0  0  0
  143.1301   78.3524  217.9139 H   0  0  0  0  0  0  0  0  0  0  0  0
  143.0992   78.6461  219.6987 H   0  0  0  0  0  0  0  0  0  0  0  0
  142.0427   76.2300  218.1713 H   0  0  0  0  0  0  0  0  0  0  0  0
  143.3760   76.3129  219.4108 H   0  0  0  0  0  0  0  0  0  0  0  0
  142.1196   74.3580  220.4054 H   0  0  0  0  0  0  0  0  0  0  0  0
  138.9676   72.2174  223.0929 H   0  0  0  0  0  0  0  0  0  0  0  0
  138.5378   73.0369  221.5533 H   0  0  0  0  0  0  0  0  0  0  0  0
  139.7306   71.6938  221.5533 H   0  0  0  0  0  0  0  0  0  0  0  0
  138.8013   75.4732  222.9466 H   0  0  0  0  0  0  0  0  0  0  0  0
  138.8106   77.7570  221.9647 H   0  0  0  0  0  0  0  0  0  0  0  0
  139.4266   79.1001  219.9605 H   0  0  0  0  0  0  0  0  0  0  0  0
  141.0207   79.3840  220.8047 H   0  0  0  0  0  0  0  0  0  0  0  0
  1  2  1  0
  2  3  1  0
  3  4  1  0
  4  5  1  0
  5  6  1  0
  6  7  2  0
  7  8  1  0
  8  9  2  0
  9 10  1  0
 10 11  1  0
 11 12  1  0
 10 13  2  0
  3 14  1  0
 14 15  1  0
 15 16  1  0
 16 17  1  0
 17 18  2  0
 18 19  1  0
 19 20  1  0
 20 21  1  0
 19 22  2  0
 22 23  1  0
 23 24  2  0
 24 25  1  0
 13  6  1  0
 25 14  1  0
 24 17  1  0
  1 26  1  0
  1 27  1  0
  1 28  1  0
  2 29  1  0
  2 30  1  0
  4 31  1  0
  4 32  1  0
  5 33  1  0
  5 34  1  0
  7 35  1  0
  8 36  1  0
  9 37  1  0
 12 38  1  0
 12 39  1  0
 12 40  1  0
 13 41  1  0
 14 42  1  6
 15 43  1  0
 15 44  1  0
 16 45  1  0
 16 46  1  0
 18 47  1  0
 21 48  1  0
 21 49  1  0
 21 50  1  0
 22 51  1  0
 23 52  1  0
 25 53  1  0
 25 54  1  0
M  END
>  <UniqueID>  (77) 
28

>  <SMILES>  (77) 
CCN(CCc1cccc(OC)c1)[C@H]1CCc2cc(OC)ccc2C1

>  <Energy>  (77) 
65.60821063572106

>  <Genealogy>  (77) 
CCN(CCc1cccc(OC)c1)[C@H]1CCc2cc(OC)ccc2C1 (chirality)
CCN(CCc1cccc(OC)c1)[C@H]1CCc2cc(OC)ccc2C1 (3D coordinates assigned)
CCN(CCc1cccc(OC)c1)[C@H]1CCc2cc(OC)ccc2C1 (nonaromatic ring conformer: 65.60821063572106 kcal/mol)

>  <smiles>  (77) 
CCN(CCc1cccc(OC)c1)C1CCc2cc(OC)ccc2C1

>  <score_type>  (77) 
oracle

>  <origin>  (77) 
autodockgpu

>  <m_score__min__energy>  (77) 
-6.0700000000000003

>  <m_primary>  (77) 
energy

>  <meeko>  (77) 
{"free_energy": -5.39, "intermolecular_energy": -7.48, "internal_energy": -1.62, "cluster_size": 7, "cluster_id": 5, "rank_in_cluster": 3}

>  <energy>  (77) 
-5.17

>  <cluster_rmsd>  (77) 
0.72

>  <rmsd>  (77) 
270.78

>  <cluster>  (77) 
5

$$$$
MXOKLQPDPZBAAI-FQEVSTJZNA-N
     RDKit          3D

 54 56  0  0  0  0  0  0  0  0999 V2000
  142.7230   82.1070  217.1290 C   0  0  0  0  0  0  0  0  0  0  0  0
  142.7120   80.7900  217.9100 C   0  0  0  0  0  0  0  0  0  0  0  0
  141.3560   80.3410  218.3220 N   0  0  0  0  0  0  0  0  0  0  0  0
  140.6240   81.3540  219.1310 C   0  0  0  0  0  0  0  0  0  0  0  0
  141.4350   81.9950  220.2910 C   0  0  0  0  0  0  0  0  0  0  0  0
  141.4270   81.1620  221.5500 C   0  0  0  0  0  0  0  0  0  0  0  0
  142.6030   80.5260  221.9830 C   0  0  0  0  0  0  0  0  0  0  0  0
  142.6020   79.7630  223.1520 C   0  0  0  0  0  0  0  0  0  0  0  0
  141.4290   79.6160  223.8940 C   0  0  0  0  0  0  0  0  0  0  0  0
  140.2420   80.2230  223.4710 C   0  0  0  0  0  0  0  0  0  0  0  0
  139.0890   80.0480  224.2510 O   0  0  0  0  0  0  0  0  0  0  0  0
  137.7920   80.5080  223.8860 C   0  0  0  0  0  0  0  0  0  0  0  0
  140.2420   80.9870  222.2870 C   0  0  0  0  0  0  0  0  0  0  0  0
  141.1940   78.9130  218.7340 C   0  0  1  0  0  0  0  0  0  0  0  0
  142.5760   78.2460  218.9200 C   0  0  0  0  0  0  0  0  0  0  0  0
  142.4360   76.7430  219.1730 C   0  0  0  0  0  0  0  0  0  0  0  0
  141.4200   76.4200  220.2370 C   0  0  0  0  0  0  0  0  0  0  0  0
  141.4080   75.1310  220.7940 C   0  0  0  0  0  0  0  0  0  0  0  0
  140.4390   74.7710  221.7490 C   0  0  0  0  0  0  0  0  0  0  0  0
  140.3950   73.4970  222.3340 O   0  0  0  0  0  0  0  0  0  0  0  0
  140.0730   72.3000  221.6330 C   0  0  0  0  0  0  0  0  0  0  0  0
  139.4800   75.7110  222.1350 C   0  0  0  0  0  0  0  0  0  0  0  0
  139.4750   76.9900  221.5760 C   0  0  0  0  0  0  0  0  0  0  0  0
  140.4270   77.3510  220.6100 C   0  0  0  0  0  0  0  0  0  0  0  0
  140.4220   78.7620  220.0720 C   0  0  0  0  0  0  0  0  0  0  0  0
  142.7301   82.9513  217.8340 H   0  0  0  0  0  0  0  0  0  0  0  0
  143.6215   82.1504  216.4960 H   0  0  0  0  0  0  0  0  0  0  0  0
  141.8253   82.1654  216.4960 H   0  0  0  0  0  0  0  0  0  0  0  0
  143.1571   80.0087  217.2764 H   0  0  0  0  0  0  0  0  0  0  0  0
  143.2833   80.9638  218.8338 H   0  0  0  0  0  0  0  0  0  0  0  0
  140.3035   82.1605  218.4551 H   0  0  0  0  0  0  0  0  0  0  0  0
  139.7899   80.8166  219.6059 H   0  0  0  0  0  0  0  0  0  0  0  0
  142.4768   82.1216  219.9616 H   0  0  0  0  0  0  0  0  0  0  0  0
  140.9592   82.9572  220.5313 H   0  0  0  0  0  0  0  0  0  0  0  0
  143.5287   80.6299  221.3980 H   0  0  0  0  0  0  0  0  0  0  0  0
  143.5288   79.2760  223.4895 H   0  0  0  0  0  0  0  0  0  0  0  0
  141.4381   79.0187  224.8177 H   0  0  0  0  0  0  0  0  0  0  0  0
  137.2074   80.7153  224.7944 H   0  0  0  0  0  0  0  0  0  0  0  0
  137.8835   81.4285  223.2908 H   0  0  0  0  0  0  0  0  0  0  0  0
  137.2831   79.7356  223.2908 H   0  0  0  0  0  0  0  0  0  0  0  0
  139.3079   81.4502  221.9364 H   0  0  0  0  0  0  0  0  0  0  0  0
  140.6199   78.4283  217.9305 H   0  0  0  0  0  0  0  0  0  0  0  0
  143.1751   78.4025  218.0108 H   0  0  0  0  0  0  0  0  0  0  0  0
  143.0679   78.7015  219.7921 H   0  0  0  0  0  0  0  0  0  0  0  0
  142.1293   76.2563  218.2354 H   0  0  0  0  0  0  0  0  0  0  0  0
  143.4111   76.3752  219.5251 H   0  0  0  0  0  0  0  0  0  0  0  0
  142.1635   74.3954  220.4808 H   0  0  0  0  0  0  0  0  0  0  0  0
  139.8575   71.4988  222.3552 H   0  0  0  0  0  0  0  0  0  0  0  0
  139.1891   72.4716  221.0011 H   0  0  0  0  0  0  0  0  0  0  0  0
  140.9237   72.0050  221.0011 H   0  0  0  0  0  0  0  0  0  0  0  0
  138.7227   75.4409  222.8856 H   0  0  0  0  0  0  0  0  0  0  0  0
  138.7182   77.7215  221.8955 H   0  0  0  0  0  0  0  0  0  0  0  0
  139.3785   79.0697  219.9094 H   0  0  0  0  0  0  0  0  0  0  0  0
  140.9306   79.3949  220.8142 H   0  0  0  0  0  0  0  0  0  0  0  0
  1  2  1  0
  2  3  1  0
  3  4  1  0
  4  5  1  0
  5  6  1  0
  6  7  2  0
  7  8  1  0
  8  9  2  0
  9 10  1  0
 10 11  1  0
 11 12  1  0
 10 13  2  0
  3 14  1  0
 14 15  1  0
 15 16  1  0
 16 17  1  0
 17 18  2  0
 18 19  1  0
 19 20  1  0
 20 21  1  0
 19 22  2  0
 22 23  1  0
 23 24  2  0
 24 25  1  0
 13  6  1  0
 25 14  1  0
 24 17  1  0
  1 26  1  0
  1 27  1  0
  1 28  1  0
  2 29  1  0
  2 30  1  0
  4 31  1  0
  4 32  1  0
  5 33  1  0
  5 34  1  0
  7 35  1  0
  8 36  1  0
  9 37  1  0
 12 38  1  0
 12 39  1  0
 12 40  1  0
 13 41  1  0
 14 42  1  6
 15 43  1  0
 15 44  1  0
 16 45  1  0
 16 46  1  0
 18 47  1  0
 21 48  1  0
 21 49  1  0
 21 50  1  0
 22 51  1  0
 23 52  1  0
 25 53  1  0
 25 54  1  0
M  END
>  <UniqueID>  (78) 
28

>  <SMILES>  (78) 
CCN(CCc1cccc(OC)c1)[C@H]1CCc2cc(OC)ccc2C1

>  <Energy>  (78) 
65.60821063572106

>  <Genealogy>  (78) 
CCN(CCc1cccc(OC)c1)[C@H]1CCc2cc(OC)ccc2C1 (chirality)
CCN(CCc1cccc(OC)c1)[C@H]1CCc2cc(OC)ccc2C1 (3D coordinates assigned)
CCN(CCc1cccc(OC)c1)[C@H]1CCc2cc(OC)ccc2C1 (nonaromatic ring conformer: 65.60821063572106 kcal/mol)

>  <smiles>  (78) 
CCN(CCc1cccc(OC)c1)C1CCc2cc(OC)ccc2C1

>  <score_type>  (78) 
oracle

>  <origin>  (78) 
autodockgpu

>  <m_score__min__energy>  (78) 
-6.0700000000000003

>  <m_primary>  (78) 
energy

>  <meeko>  (78) 
{"free_energy": -5.42, "intermolecular_energy": -7.5, "internal_energy": -1.62, "cluster_size": 7, "cluster_id": 5, "rank_in_cluster": 1}

>  <energy>  (78) 
-5.16

>  <cluster_rmsd>  (78) 
0.65

>  <rmsd>  (78) 
270.77

>  <cluster>  (78) 
5

$$$$
MXOKLQPDPZBAAI-FQEVSTJZNA-N
     RDKit          3D

 54 56  0  0  0  0  0  0  0  0999 V2000
  141.8640   80.8560  216.4420 C   0  0  0  0  0  0  0  0  0  0  0  0
  141.8090   81.4740  217.8410 C   0  0  0  0  0  0  0  0  0  0  0  0
  140.7030   80.9560  218.6890 N   0  0  0  0  0  0  0  0  0  0  0  0
  140.3210   81.8850  219.7870 C   0  0  0  0  0  0  0  0  0  0  0  0
  141.4250   82.1630  220.8430 C   0  0  0  0  0  0  0  0  0  0  0  0
  141.4100   81.1790  221.9880 C   0  0  0  0  0  0  0  0  0  0  0  0
  142.5790   80.4800  222.3340 C   0  0  0  0  0  0  0  0  0  0  0  0
  142.5700   79.5770  223.3980 C   0  0  0  0  0  0  0  0  0  0  0  0
  141.3970   79.3550  224.1210 C   0  0  0  0  0  0  0  0  0  0  0  0
  140.2170   80.0240  223.7820 C   0  0  0  0  0  0  0  0  0  0  0  0
  139.0640   79.7680  224.5390 O   0  0  0  0  0  0  0  0  0  0  0  0
  137.8560   80.5160  224.4450 C   0  0  0  0  0  0  0  0  0  0  0  0
  140.2250   80.9290  222.7020 C   0  0  0  0  0  0  0  0  0  0  0  0
  140.7080   79.4970  219.0210 C   0  0  1  0  0  0  0  0  0  0  0  0
  142.1460   79.0210  219.3340 C   0  0  0  0  0  0  0  0  0  0  0  0
  142.2020   77.5020  219.5070 C   0  0  0  0  0  0  0  0  0  0  0  0
  141.1370   76.9790  220.4350 C   0  0  0  0  0  0  0  0  0  0  0  0
  141.2550   75.6710  220.9330 C   0  0  0  0  0  0  0  0  0  0  0  0
  140.2530   75.1250  221.7570 C   0  0  0  0  0  0  0  0  0  0  0  0
  140.3340   73.8250  222.2800 O   0  0  0  0  0  0  0  0  0  0  0  0
  139.4420   72.7670  221.9470 C   0  0  0  0  0  0  0  0  0  0  0  0
  139.1320   75.8970  222.0710 C   0  0  0  0  0  0  0  0  0  0  0  0
  138.9990   77.1920  221.5680 C   0  0  0  0  0  0  0  0  0  0  0  0
  139.9840   77.7380  220.7320 C   0  0  0  0  0  0  0  0  0  0  0  0
  139.8310   79.1630  220.2560 C   0  0  0  0  0  0  0  0  0  0  0  0
  141.9612   79.7636  216.5273 H   0  0  0  0  0  0  0  0  0  0  0  0
  140.9405   81.1005  215.8966 H   0  0  0  0  0  0  0  0  0  0  0  0
  142.7298   81.2597  215.8966 H   0  0  0  0  0  0  0  0  0  0  0  0
  142.7617   81.2642  218.3493 H   0  0  0  0  0  0  0  0  0  0  0  0
  141.6284   82.5506  217.7059 H   0  0  0  0  0  0  0  0  0  0  0  0
  140.0360   82.8460  219.3339 H   0  0  0  0  0  0  0  0  0  0  0  0
  139.5022   81.3900  220.3298 H   0  0  0  0  0  0  0  0  0  0  0  0
  142.4054   82.1085  220.3473 H   0  0  0  0  0  0  0  0  0  0  0  0
  141.2319   83.1604  221.2649 H   0  0  0  0  0  0  0  0  0  0  0  0
  143.5050   80.6453  221.7638 H   0  0  0  0  0  0  0  0  0  0  0  0
  143.4904   79.0384  223.6677 H   0  0  0  0  0  0  0  0  0  0  0  0
  141.4009   78.6483  224.9640 H   0  0  0  0  0  0  0  0  0  0  0  0
  137.4867   80.7446  225.4556 H   0  0  0  0  0  0  0  0  0  0  0  0
  138.0469   81.4542  223.9034 H   0  0  0  0  0  0  0  0  0  0  0  0
  137.1012   79.9270  223.9034 H   0  0  0  0  0  0  0  0  0  0  0  0
  139.2964   81.4442  222.4152 H   0  0  0  0  0  0  0  0  0  0  0  0
  140.2980   78.9836  218.1388 H   0  0  0  0  0  0  0  0  0  0  0  0
  142.8084   79.3122  218.5055 H   0  0  0  0  0  0  0  0  0  0  0  0
  142.4707   79.4903  220.2744 H   0  0  0  0  0  0  0  0  0  0  0  0
  142.0711   77.0313  218.5215 H   0  0  0  0  0  0  0  0  0  0  0  0
  143.1776   77.2557  219.9514 H   0  0  0  0  0  0  0  0  0  0  0  0
  142.1385   75.0679  220.6767 H   0  0  0  0  0  0  0  0  0  0  0  0
  139.0558   72.3090  222.8695 H   0  0  0  0  0  0  0  0  0  0  0  0
  138.6037   73.1661  221.3571 H   0  0  0  0  0  0  0  0  0  0  0  0
  139.9771   72.0083  221.3571 H   0  0  0  0  0  0  0  0  0  0  0  0
  138.3475   75.4808  222.7201 H   0  0  0  0  0  0  0  0  0  0  0  0
  138.1135   77.7900  221.8296 H   0  0  0  0  0  0  0  0  0  0  0  0
  138.7767   79.3308  219.9907 H   0  0  0  0  0  0  0  0  0  0  0  0
  140.1623   79.8169  221.0762 H   0  0  0  0  0  0  0  0  0  0  0  0
  1  2  1  0
  2  3  1  0
  3  4  1  0
  4  5  1  0
  5  6  1  0
  6  7  2  0
  7  8  1  0
  8  9  2  0
  9 10  1  0
 10 11  1  0
 11 12  1  0
 10 13  2  0
  3 14  1  0
 14 15  1  0
 15 16  1  0
 16 17  1  0
 17 18  2  0
 18 19  1  0
 19 20  1  0
 20 21  1  0
 19 22  2  0
 22 23  1  0
 23 24  2  0
 24 25  1  0
 13  6  1  0
 25 14  1  0
 24 17  1  0
  1 26  1  0
  1 27  1  0
  1 28  1  0
  2 29  1  0
  2 30  1  0
  4 31  1  0
  4 32  1  0
  5 33  1  0
  5 34  1  0
  7 35  1  0
  8 36  1  0
  9 37  1  0
 12 38  1  0
 12 39  1  0
 12 40  1  0
 13 41  1  0
 14 42  1  6
 15 43  1  0
 15 44  1  0
 16 45  1  0
 16 46  1  0
 18 47  1  0
 21 48  1  0
 21 49  1  0
 21 50  1  0
 22 51  1  0
 23 52  1  0
 25 53  1  0
 25 54  1  0
M  END
>  <UniqueID>  (79) 
28

>  <SMILES>  (79) 
CCN(CCc1cccc(OC)c1)[C@H]1CCc2cc(OC)ccc2C1

>  <Energy>  (79) 
65.60821063572106

>  <Genealogy>  (79) 
CCN(CCc1cccc(OC)c1)[C@H]1CCc2cc(OC)ccc2C1 (chirality)
CCN(CCc1cccc(OC)c1)[C@H]1CCc2cc(OC)ccc2C1 (3D coordinates assigned)
CCN(CCc1cccc(OC)c1)[C@H]1CCc2cc(OC)ccc2C1 (nonaromatic ring conformer: 65.60821063572106 kcal/mol)

>  <smiles>  (79) 
CCN(CCc1cccc(OC)c1)C1CCc2cc(OC)ccc2C1

>  <score_type>  (79) 
oracle

>  <origin>  (79) 
autodockgpu

>  <m_score__min__energy>  (79) 
-6.0700000000000003

>  <m_primary>  (79) 
energy

>  <meeko>  (79) 
{"free_energy": -5.17, "intermolecular_energy": -7.25, "internal_energy": -1.81, "cluster_size": 7, "cluster_id": 5, "rank_in_cluster": 6}

>  <energy>  (79) 
-4.92

>  <cluster_rmsd>  (79) 
0.0

>  <rmsd>  (79) 
270.08

>  <cluster>  (79) 
6

$$$$
MXOKLQPDPZBAAI-FQEVSTJZNA-N
     RDKit          3D

 54 56  0  0  0  0  0  0  0  0999 V2000
  141.7910   71.9050  221.1850 C   0  0  0  0  0  0  0  0  0  0  0  0
  141.0980   73.1800  221.6730 C   0  0  0  0  0  0  0  0  0  0  0  0
  140.6160   74.0640  220.5790 N   0  0  0  0  0  0  0  0  0  0  0  0
  141.4520   73.9850  219.3500 C   0  0  0  0  0  0  0  0  0  0  0  0
  142.7310   74.8660  219.3540 C   0  0  0  0  0  0  0  0  0  0  0  0
  143.9760   74.1020  219.7360 C   0  0  0  0  0  0  0  0  0  0  0  0
  144.7520   74.5190  220.8320 C   0  0  0  0  0  0  0  0  0  0  0  0
  145.8980   73.8100  221.1940 C   0  0  0  0  0  0  0  0  0  0  0  0
  146.2890   72.6870  220.4620 C   0  0  0  0  0  0  0  0  0  0  0  0
  145.5430   72.2660  219.3560 C   0  0  0  0  0  0  0  0  0  0  0  0
  145.9760   71.1300  218.6540 O   0  0  0  0  0  0  0  0  0  0  0  0
  145.2790   69.8890  218.6240 C   0  0  0  0  0  0  0  0  0  0  0  0
  144.3910   72.9870  218.9870 C   0  0  0  0  0  0  0  0  0  0  0  0
  140.1090   75.4200  220.9560 C   0  0  1  0  0  0  0  0  0  0  0  0
  138.7370   75.3060  221.6600 C   0  0  0  0  0  0  0  0  0  0  0  0
  138.1210   76.6860  221.8990 C   0  0  0  0  0  0  0  0  0  0  0  0
  139.0850   77.6580  222.5280 C   0  0  0  0  0  0  0  0  0  0  0  0
  138.5840   78.8440  223.0880 C   0  0  0  0  0  0  0  0  0  0  0  0
  139.4560   79.8040  223.6340 C   0  0  0  0  0  0  0  0  0  0  0  0
  138.9970   80.9990  224.2080 O   0  0  0  0  0  0  0  0  0  0  0  0
  137.7030   81.1730  224.7760 C   0  0  0  0  0  0  0  0  0  0  0  0
  140.8330   79.5680  223.6060 C   0  0  0  0  0  0  0  0  0  0  0  0
  141.3420   78.3990  223.0380 C   0  0  0  0  0  0  0  0  0  0  0  0
  140.4800   77.4450  222.4760 C   0  0  0  0  0  0  0  0  0  0  0  0
  141.0660   76.1670  221.9220 C   0  0  0  0  0  0  0  0  0  0  0  0
  142.1148   71.3092  222.0511 H   0  0  0  0  0  0  0  0  0  0  0  0
  141.0889   71.3160  220.5766 H   0  0  0  0  0  0  0  0  0  0  0  0
  142.6672   72.1738  220.5766 H   0  0  0  0  0  0  0  0  0  0  0  0
  140.2341   72.8898  222.2890 H   0  0  0  0  0  0  0  0  0  0  0  0
  141.8481   73.7532  222.2377 H   0  0  0  0  0  0  0  0  0  0  0  0
  141.7621   72.9379  219.2177 H   0  0  0  0  0  0  0  0  0  0  0  0
  140.8239   74.3680  218.5322 H   0  0  0  0  0  0  0  0  0  0  0  0
  142.8718   75.2831  218.3459 H   0  0  0  0  0  0  0  0  0  0  0  0
  142.5847   75.6527  220.1088 H   0  0  0  0  0  0  0  0  0  0  0  0
  144.4542   75.4084  221.4067 H   0  0  0  0  0  0  0  0  0  0  0  0
  146.4950   74.1366  222.0583 H   0  0  0  0  0  0  0  0  0  0  0  0
  147.1901   72.1294  220.7572 H   0  0  0  0  0  0  0  0  0  0  0  0
  145.0888   69.5503  219.6531 H   0  0  0  0  0  0  0  0  0  0  0  0
  144.3218   70.0187  218.0978 H   0  0  0  0  0  0  0  0  0  0  0  0
  145.8879   69.1391  218.0978 H   0  0  0  0  0  0  0  0  0  0  0  0
  143.8112   72.6753  218.1057 H   0  0  0  0  0  0  0  0  0  0  0  0
  140.0311   75.9871  220.0167 H   0  0  0  0  0  0  0  0  0  0  0  0
  138.0578   74.7145  221.0285 H   0  0  0  0  0  0  0  0  0  0  0  0
  138.8851   74.8174  222.6343 H   0  0  0  0  0  0  0  0  0  0  0  0
  137.7908   77.0950  220.9327 H   0  0  0  0  0  0  0  0  0  0  0  0
  137.2811   76.5559  222.5973 H   0  0  0  0  0  0  0  0  0  0  0  0
  137.4990   79.0246  223.1000 H   0  0  0  0  0  0  0  0  0  0  0  0
  137.7798   81.1627  225.8733 H   0  0  0  0  0  0  0  0  0  0  0  0
  137.2844   82.1355  224.4468 H   0  0  0  0  0  0  0  0  0  0  0  0
  137.0451   80.3552  224.4468 H   0  0  0  0  0  0  0  0  0  0  0  0
  141.5220   80.3102  224.0355 H   0  0  0  0  0  0  0  0  0  0  0  0
  142.4280   78.2241  223.0309 H   0  0  0  0  0  0  0  0  0  0  0  0
  141.9891   76.4139  221.3770 H   0  0  0  0  0  0  0  0  0  0  0  0
  141.2539   75.4986  222.7752 H   0  0  0  0  0  0  0  0  0  0  0  0
  1  2  1  0
  2  3  1  0
  3  4  1  0
  4  5  1  0
  5  6  1  0
  6  7  2  0
  7  8  1  0
  8  9  2  0
  9 10  1  0
 10 11  1  0
 11 12  1  0
 10 13  2  0
  3 14  1  0
 14 15  1  0
 15 16  1  0
 16 17  1  0
 17 18  2  0
 18 19  1  0
 19 20  1  0
 20 21  1  0
 19 22  2  0
 22 23  1  0
 23 24  2  0
 24 25  1  0
 13  6  1  0
 25 14  1  0
 24 17  1  0
  1 26  1  0
  1 27  1  0
  1 28  1  0
  2 29  1  0
  2 30  1  0
  4 31  1  0
  4 32  1  0
  5 33  1  0
  5 34  1  0
  7 35  1  0
  8 36  1  0
  9 37  1  0
 12 38  1  0
 12 39  1  0
 12 40  1  0
 13 41  1  0
 14 42  1  6
 15 43  1  0
 15 44  1  0
 16 45  1  0
 16 46  1  0
 18 47  1  0
 21 48  1  0
 21 49  1  0
 21 50  1  0
 22 51  1  0
 23 52  1  0
 25 53  1  0
 25 54  1  0
M  END
>  <UniqueID>  (80) 
28

>  <SMILES>  (80) 
CCN(CCc1cccc(OC)c1)[C@H]1CCc2cc(OC)ccc2C1

>  <Energy>  (80) 
65.60821063572106

>  <Genealogy>  (80) 
CCN(CCc1cccc(OC)c1)[C@H]1CCc2cc(OC)ccc2C1 (chirality)
CCN(CCc1cccc(OC)c1)[C@H]1CCc2cc(OC)ccc2C1 (3D coordinates assigned)
CCN(CCc1cccc(OC)c1)[C@H]1CCc2cc(OC)ccc2C1 (nonaromatic ring conformer: 65.60821063572106 kcal/mol)

>  <smiles>  (80) 
CCN(CCc1cccc(OC)c1)C1CCc2cc(OC)ccc2C1

>  <score_type>  (80) 
oracle

>  <origin>  (80) 
autodockgpu

>  <m_score__min__energy>  (80) 
-6.0700000000000003

>  <m_primary>  (80) 
energy

>  <meeko>  (80) 
{"free_energy": -5.67, "intermolecular_energy": -7.75, "internal_energy": -1.13, "cluster_size": 3, "cluster_id": 1, "rank_in_cluster": 2}

>  <energy>  (80) 
-4.9

>  <cluster_rmsd>  (80) 
0.25

>  <rmsd>  (80) 
270.07

>  <cluster>  (80) 
6

$$$$
