VOQKIUCZPHIEKY-MWDOZMLPNA-M
     RDKit          3D

 42 45  0  0  0  0  0  0  0  0999 V2000
  139.4620   75.4290  221.4300 O   0  0  0  0  0  0  0  0  0  0  0  0
  140.2700   74.3110  221.5870 C   0  0  0  0  0  0  0  0  0  0  0  0
  141.4390   74.2190  220.9080 N   0  0  0  0  0  0  0  0  0  0  0  0
  142.2370   73.1280  221.0560 C   0  0  0  0  0  0  0  0  0  0  0  0
  143.4800   73.0320  220.3310 N   0  0  0  0  0  0  0  0  0  0  0  0
  144.6650   73.7340  220.8420 C   0  0  0  0  0  0  0  0  0  0  0  0
  145.8750   73.5050  219.9340 C   0  0  0  0  0  0  0  0  0  0  0  0
  145.9820   72.0860  219.5820 N   0  0  0  0  0  0  0  0  0  0  0  0
  144.8310   71.6060  218.7920 C   0  0  0  0  0  0  0  0  0  0  0  0
  143.5300   72.4130  218.9970 C   0  0  0  0  0  0  0  0  0  0  0  0
  141.8460   72.1300  221.8930 N   0  0  0  0  0  0  0  0  0  0  0  0
  140.6740   72.2130  222.5780 C   0  0  0  0  0  0  0  0  0  0  0  0
  140.2690   71.1510  223.4690 N   0  0  0  0  0  0  0  0  0  0  0  0
  139.4520   70.0370  222.9610 C   0  0  0  0  0  0  0  0  0  0  0  0
  138.5020   69.5290  224.0400 C   0  0  0  0  0  0  0  0  0  0  0  0
  139.2700   69.1660  225.2750 C   0  0  0  0  0  0  0  0  0  0  0  0
  138.8450   68.1040  226.0890 C   0  0  0  0  0  0  0  0  0  0  0  0
  139.5450   67.7900  227.2550 C   0  0  0  0  0  0  0  0  0  0  0  0
  140.6620   68.5400  227.6250 C   0  0  0  0  0  0  0  0  0  0  0  0
  141.0820   69.6100  226.8290 C   0  0  0  0  0  0  0  0  0  0  0  0
  140.3930   69.9290  225.6480 C   0  0  0  0  0  0  0  0  0  0  0  0
  140.8360   71.1210  224.8310 C   0  0  0  0  0  0  0  0  0  0  0  0
  139.8900   73.3110  222.4200 N   0  0  0  0  0  0  0  0  0  0  0  0
  144.4510   74.8119  220.8903 H   0  0  0  0  0  0  0  0  0  0  0  0
  144.8995   73.3412  221.8423 H   0  0  0  0  0  0  0  0  0  0  0  0
  145.7580   74.0994  219.0158 H   0  0  0  0  0  0  0  0  0  0  0  0
  146.7870   73.8126  220.4667 H   0  0  0  0  0  0  0  0  0  0  0  0
  146.0410   71.5270  220.4660 H   0  0  0  0  0  0  0  0  0  0  0  0
  145.1013   71.6553  217.7269 H   0  0  0  0  0  0  0  0  0  0  0  0
  144.6210   70.5827  219.1365 H   0  0  0  0  0  0  0  0  0  0  0  0
  143.4769   73.2040  218.2344 H   0  0  0  0  0  0  0  0  0  0  0  0
  142.6790   71.7218  218.9067 H   0  0  0  0  0  0  0  0  0  0  0  0
  138.8653   70.3840  222.0977 H   0  0  0  0  0  0  0  0  0  0  0  0
  140.1203   69.2156  222.6632 H   0  0  0  0  0  0  0  0  0  0  0  0
  137.7735   70.3165  224.2832 H   0  0  0  0  0  0  0  0  0  0  0  0
  137.9786   68.6364  223.6668 H   0  0  0  0  0  0  0  0  0  0  0  0
  137.9579   67.5178  225.8071 H   0  0  0  0  0  0  0  0  0  0  0  0
  139.2154   66.9496  227.8836 H   0  0  0  0  0  0  0  0  0  0  0  0
  141.2126   68.2892  228.5437 H   0  0  0  0  0  0  0  0  0  0  0  0
  141.9569   70.2051  227.1296 H   0  0  0  0  0  0  0  0  0  0  0  0
  140.5261   72.0364  225.3563 H   0  0  0  0  0  0  0  0  0  0  0  0
  141.9282   71.0482  224.7227 H   0  0  0  0  0  0  0  0  0  0  0  0
  1  2  1  0
  2  3  2  0
  3  4  1  0
  4  5  1  0
  5  6  1  0
  6  7  1  0
  7  8  1  0
  8  9  1  0
  9 10  1  0
  4 11  2  0
 11 12  1  0
 12 13  1  0
 13 14  1  0
 14 15  1  0
 15 16  1  0
 16 17  2  0
 17 18  1  0
 18 19  2  0
 19 20  1  0
 20 21  2  0
 21 22  1  0
 12 23  2  0
 23  2  1  0
 10  5  1  0
 22 13  1  0
 21 16  1  0
  6 24  1  0
  6 25  1  0
  7 26  1  0
  7 27  1  0
  8 28  1  0
  9 29  1  0
  9 30  1  0
 10 31  1  0
 10 32  1  0
 14 33  1  0
 14 34  1  0
 15 35  1  0
 15 36  1  0
 17 37  1  0
 18 38  1  0
 19 39  1  0
 20 40  1  0
 22 41  1  0
 22 42  1  0
M  CHG  1   1  -1
M  END
>  <UniqueID>  (1) 
701

>  <SMILES>  (1) 
[O-]c1nc(N2CCNCC2)nc(N2CCc3ccccc3C2)n1

>  <Energy>  (1) 
46.535626236519555

>  <Genealogy>  (1) 
[O-]c1nc(N2CCNCC2)nc(N2CCc3ccccc3C2)n1 (protonated)
[O-]c1nc(N2CCNCC2)nc(N2CCc3ccccc3C2)n1 (3D coordinates assigned)
[O-]c1nc(N2CCNCC2)nc(N2CCc3ccccc3C2)n1 (nonaromatic ring conformer: 46.535626236519555 kcal/mol)

>  <smiles>  (1) 
Oc1nc(N2CCNCC2)nc(N2CCc3ccccc3C2)n1

>  <score_type>  (1) 
oracle

>  <origin>  (1) 
autodockgpu

>  <m_score__min__energy>  (1) 
-7.2599999999999998

>  <m_primary>  (1) 
energy

>  <meeko>  (1) 
{"free_energy": -7.25, "intermolecular_energy": -7.85, "internal_energy": -0.56, "cluster_size": 19, "cluster_id": 1, "rank_in_cluster": 5}

>  <energy>  (1) 
-7.26

>  <cluster_rmsd>  (1) 
0.0

>  <rmsd>  (1) 
272.0

>  <cluster>  (1) 
1

$$$$
VOQKIUCZPHIEKY-MWDOZMLPNA-M
     RDKit          3D

 42 45  0  0  0  0  0  0  0  0999 V2000
  139.4660   75.4430  221.4400 O   0  0  0  0  0  0  0  0  0  0  0  0
  140.2710   74.3220  221.5950 C   0  0  0  0  0  0  0  0  0  0  0  0
  141.4380   74.2260  220.9110 N   0  0  0  0  0  0  0  0  0  0  0  0
  142.2320   73.1320  221.0570 C   0  0  0  0  0  0  0  0  0  0  0  0
  143.4720   73.0330  220.3270 N   0  0  0  0  0  0  0  0  0  0  0  0
  144.6620   73.7270  220.8380 C   0  0  0  0  0  0  0  0  0  0  0  0
  145.8690   73.4950  219.9250 C   0  0  0  0  0  0  0  0  0  0  0  0
  145.9670   72.0770  219.5680 N   0  0  0  0  0  0  0  0  0  0  0  0
  144.8120   71.6050  218.7800 C   0  0  0  0  0  0  0  0  0  0  0  0
  143.5150   72.4180  218.9920 C   0  0  0  0  0  0  0  0  0  0  0  0
  141.8410   72.1360  221.8950 N   0  0  0  0  0  0  0  0  0  0  0  0
  140.6720   72.2220  222.5840 C   0  0  0  0  0  0  0  0  0  0  0  0
  140.2660   71.1620  223.4760 N   0  0  0  0  0  0  0  0  0  0  0  0
  139.4400   70.0530  222.9710 C   0  0  0  0  0  0  0  0  0  0  0  0
  138.4930   69.5490  224.0550 C   0  0  0  0  0  0  0  0  0  0  0  0
  139.2670   69.1800  225.2850 C   0  0  0  0  0  0  0  0  0  0  0  0
  138.8410   68.1200  226.1010 C   0  0  0  0  0  0  0  0  0  0  0  0
  139.5460   67.8000  227.2630 C   0  0  0  0  0  0  0  0  0  0  0  0
  140.6700   68.5440  227.6270 C   0  0  0  0  0  0  0  0  0  0  0  0
  141.0910   69.6130  226.8300 C   0  0  0  0  0  0  0  0  0  0  0  0
  140.3970   69.9360  225.6530 C   0  0  0  0  0  0  0  0  0  0  0  0
  140.8410   71.1270  224.8350 C   0  0  0  0  0  0  0  0  0  0  0  0
  139.8900   73.3230  222.4280 N   0  0  0  0  0  0  0  0  0  0  0  0
  144.4537   74.8058  220.8912 H   0  0  0  0  0  0  0  0  0  0  0  0
  144.8971   73.3293  221.8363 H   0  0  0  0  0  0  0  0  0  0  0  0
  145.7525   74.0932  219.0093 H   0  0  0  0  0  0  0  0  0  0  0  0
  146.7842   73.7961  220.4557 H   0  0  0  0  0  0  0  0  0  0  0  0
  146.0270   71.5150  220.4500 H   0  0  0  0  0  0  0  0  0  0  0  0
  145.0793   71.6567  217.7142 H   0  0  0  0  0  0  0  0  0  0  0  0
  144.5983   70.5814  219.1213 H   0  0  0  0  0  0  0  0  0  0  0  0
  143.4631   73.2115  218.2319 H   0  0  0  0  0  0  0  0  0  0  0  0
  142.6606   71.7309  218.9028 H   0  0  0  0  0  0  0  0  0  0  0  0
  138.8505   70.4043  222.1113 H   0  0  0  0  0  0  0  0  0  0  0  0
  140.1020   69.2283  222.6684 H   0  0  0  0  0  0  0  0  0  0  0  0
  137.7706   70.3404  224.3036 H   0  0  0  0  0  0  0  0  0  0  0  0
  137.9618   68.6601  223.6839 H   0  0  0  0  0  0  0  0  0  0  0  0
  137.9487   67.5395  225.8240 H   0  0  0  0  0  0  0  0  0  0  0  0
  139.2154   66.9607  227.8925 H   0  0  0  0  0  0  0  0  0  0  0  0
  141.2250   68.2889  228.5418 H   0  0  0  0  0  0  0  0  0  0  0  0
  141.9702   70.2038  227.1266 H   0  0  0  0  0  0  0  0  0  0  0  0
  140.5388   72.0432  225.3635 H   0  0  0  0  0  0  0  0  0  0  0  0
  141.9322   71.0488  224.7201 H   0  0  0  0  0  0  0  0  0  0  0  0
  1  2  1  0
  2  3  2  0
  3  4  1  0
  4  5  1  0
  5  6  1  0
  6  7  1  0
  7  8  1  0
  8  9  1  0
  9 10  1  0
  4 11  2  0
 11 12  1  0
 12 13  1  0
 13 14  1  0
 14 15  1  0
 15 16  1  0
 16 17  2  0
 17 18  1  0
 18 19  2  0
 19 20  1  0
 20 21  2  0
 21 22  1  0
 12 23  2  0
 23  2  1  0
 10  5  1  0
 22 13  1  0
 21 16  1  0
  6 24  1  0
  6 25  1  0
  7 26  1  0
  7 27  1  0
  8 28  1  0
  9 29  1  0
  9 30  1  0
 10 31  1  0
 10 32  1  0
 14 33  1  0
 14 34  1  0
 15 35  1  0
 15 36  1  0
 17 37  1  0
 18 38  1  0
 19 39  1  0
 20 40  1  0
 22 41  1  0
 22 42  1  0
M  CHG  1   1  -1
M  END
>  <UniqueID>  (2) 
701

>  <SMILES>  (2) 
[O-]c1nc(N2CCNCC2)nc(N2CCc3ccccc3C2)n1

>  <Energy>  (2) 
46.535626236519555

>  <Genealogy>  (2) 
[O-]c1nc(N2CCNCC2)nc(N2CCc3ccccc3C2)n1 (protonated)
[O-]c1nc(N2CCNCC2)nc(N2CCc3ccccc3C2)n1 (3D coordinates assigned)
[O-]c1nc(N2CCNCC2)nc(N2CCc3ccccc3C2)n1 (nonaromatic ring conformer: 46.535626236519555 kcal/mol)

>  <smiles>  (2) 
Oc1nc(N2CCNCC2)nc(N2CCc3ccccc3C2)n1

>  <score_type>  (2) 
oracle

>  <origin>  (2) 
autodockgpu

>  <m_score__min__energy>  (2) 
-7.2599999999999998

>  <m_primary>  (2) 
energy

>  <meeko>  (2) 
{"free_energy": -7.26, "intermolecular_energy": -7.85, "internal_energy": -0.56, "cluster_size": 19, "cluster_id": 1, "rank_in_cluster": 4}

>  <energy>  (2) 
-7.26

>  <cluster_rmsd>  (2) 
0.04

>  <rmsd>  (2) 
272.0

>  <cluster>  (2) 
1

$$$$
VOQKIUCZPHIEKY-MWDOZMLPNA-M
     RDKit          3D

 42 45  0  0  0  0  0  0  0  0999 V2000
  139.7300   75.6040  221.5260 O   0  0  0  0  0  0  0  0  0  0  0  0
  140.4480   74.4170  221.5740 C   0  0  0  0  0  0  0  0  0  0  0  0
  141.5360   74.2500  220.7830 N   0  0  0  0  0  0  0  0  0  0  0  0
  142.2460   73.0910  220.8240 C   0  0  0  0  0  0  0  0  0  0  0  0
  143.4020   72.9170  219.9800 N   0  0  0  0  0  0  0  0  0  0  0  0
  143.5230   73.7200  218.7550 C   0  0  0  0  0  0  0  0  0  0  0  0
  144.8160   73.3880  218.0050 C   0  0  0  0  0  0  0  0  0  0  0  0
  145.9440   73.3360  218.9400 N   0  0  0  0  0  0  0  0  0  0  0  0
  145.8090   72.2570  219.9380 C   0  0  0  0  0  0  0  0  0  0  0  0
  144.3530   71.8200  220.2180 C   0  0  0  0  0  0  0  0  0  0  0  0
  141.8490   72.1010  221.6660 N   0  0  0  0  0  0  0  0  0  0  0  0
  140.7580   72.2570  222.4630 C   0  0  0  0  0  0  0  0  0  0  0  0
  140.3460   71.2020  223.3580 N   0  0  0  0  0  0  0  0  0  0  0  0
  139.5620   70.0670  222.8450 C   0  0  0  0  0  0  0  0  0  0  0  0
  138.5900   69.5590  223.9050 C   0  0  0  0  0  0  0  0  0  0  0  0
  139.3310   69.2270  225.1660 C   0  0  0  0  0  0  0  0  0  0  0  0
  138.9010   68.1700  225.9840 C   0  0  0  0  0  0  0  0  0  0  0  0
  139.5740   67.8850  227.1740 C   0  0  0  0  0  0  0  0  0  0  0  0
  140.6690   68.6590  227.5620 C   0  0  0  0  0  0  0  0  0  0  0  0
  141.0920   69.7250  226.7620 C   0  0  0  0  0  0  0  0  0  0  0  0
  140.4310   70.0140  225.5580 C   0  0  0  0  0  0  0  0  0  0  0  0
  140.8760   71.2010  224.7350 C   0  0  0  0  0  0  0  0  0  0  0  0
  140.0610   73.4230  222.4110 N   0  0  0  0  0  0  0  0  0  0  0  0
  142.6639   73.5096  218.1010 H   0  0  0  0  0  0  0  0  0  0  0  0
  143.5440   74.7837  219.0346 H   0  0  0  0  0  0  0  0  0  0  0  0
  144.7087   72.4114  217.5103 H   0  0  0  0  0  0  0  0  0  0  0  0
  145.0070   74.1697  217.2550 H   0  0  0  0  0  0  0  0  0  0  0  0
  146.0030   74.2550  219.4410 H   0  0  0  0  0  0  0  0  0  0  0  0
  146.3665   71.3812  219.5744 H   0  0  0  0  0  0  0  0  0  0  0  0
  146.2030   72.6558  220.8845 H   0  0  0  0  0  0  0  0  0  0  0  0
  144.0996   70.9784  219.5566 H   0  0  0  0  0  0  0  0  0  0  0  0
  144.2800   71.5252  221.2753 H   0  0  0  0  0  0  0  0  0  0  0  0
  138.9942   70.3910  221.9603 H   0  0  0  0  0  0  0  0  0  0  0  0
  140.2519   69.2526  222.5790 H   0  0  0  0  0  0  0  0  0  0  0  0
  137.8425   70.3378  224.1164 H   0  0  0  0  0  0  0  0  0  0  0  0
  138.0906   68.6529  223.5313 H   0  0  0  0  0  0  0  0  0  0  0  0
  138.0318   67.5648  225.6868 H   0  0  0  0  0  0  0  0  0  0  0  0
  139.2407   67.0492  227.8067 H   0  0  0  0  0  0  0  0  0  0  0  0
  141.1996   68.4301  228.4980 H   0  0  0  0  0  0  0  0  0  0  0  0
  141.9473   70.3403  227.0779 H   0  0  0  0  0  0  0  0  0  0  0  0
  140.5370   72.1187  225.2380 H   0  0  0  0  0  0  0  0  0  0  0  0
  141.9718   71.1445  224.6569 H   0  0  0  0  0  0  0  0  0  0  0  0
  1  2  1  0
  2  3  2  0
  3  4  1  0
  4  5  1  0
  5  6  1  0
  6  7  1  0
  7  8  1  0
  8  9  1  0
  9 10  1  0
  4 11  2  0
 11 12  1  0
 12 13  1  0
 13 14  1  0
 14 15  1  0
 15 16  1  0
 16 17  2  0
 17 18  1  0
 18 19  2  0
 19 20  1  0
 20 21  2  0
 21 22  1  0
 12 23  2  0
 23  2  1  0
 10  5  1  0
 22 13  1  0
 21 16  1  0
  6 24  1  0
  6 25  1  0
  7 26  1  0
  7 27  1  0
  8 28  1  0
  9 29  1  0
  9 30  1  0
 10 31  1  0
 10 32  1  0
 14 33  1  0
 14 34  1  0
 15 35  1  0
 15 36  1  0
 17 37  1  0
 18 38  1  0
 19 39  1  0
 20 40  1  0
 22 41  1  0
 22 42  1  0
M  CHG  1   1  -1
M  END
>  <UniqueID>  (3) 
701

>  <SMILES>  (3) 
[O-]c1nc(N2CCNCC2)nc(N2CCc3ccccc3C2)n1

>  <Energy>  (3) 
46.535626236519555

>  <Genealogy>  (3) 
[O-]c1nc(N2CCNCC2)nc(N2CCc3ccccc3C2)n1 (protonated)
[O-]c1nc(N2CCNCC2)nc(N2CCc3ccccc3C2)n1 (3D coordinates assigned)
[O-]c1nc(N2CCNCC2)nc(N2CCc3ccccc3C2)n1 (nonaromatic ring conformer: 46.535626236519555 kcal/mol)

>  <smiles>  (3) 
Oc1nc(N2CCNCC2)nc(N2CCc3ccccc3C2)n1

>  <score_type>  (3) 
oracle

>  <origin>  (3) 
autodockgpu

>  <m_score__min__energy>  (3) 
-7.2599999999999998

>  <m_primary>  (3) 
energy

>  <meeko>  (3) 
{"free_energy": -7.24, "intermolecular_energy": -7.84, "internal_energy": -0.57, "cluster_size": 19, "cluster_id": 1, "rank_in_cluster": 13}

>  <energy>  (3) 
-7.26

>  <cluster_rmsd>  (3) 
0.02

>  <rmsd>  (3) 
272.01

>  <cluster>  (3) 
1

$$$$
VOQKIUCZPHIEKY-MWDOZMLPNA-M
     RDKit          3D

 42 45  0  0  0  0  0  0  0  0999 V2000
  139.6870   75.5860  221.4890 O   0  0  0  0  0  0  0  0  0  0  0  0
  140.4160   74.4060  221.5510 C   0  0  0  0  0  0  0  0  0  0  0  0
  141.5110   74.2440  220.7690 N   0  0  0  0  0  0  0  0  0  0  0  0
  142.2310   73.0910  220.8240 C   0  0  0  0  0  0  0  0  0  0  0  0
  143.3950   72.9210  219.9900 N   0  0  0  0  0  0  0  0  0  0  0  0
  143.5230   73.7240  218.7660 C   0  0  0  0  0  0  0  0  0  0  0  0
  144.8230   73.3970  218.0260 C   0  0  0  0  0  0  0  0  0  0  0  0
  145.9430   73.3500  218.9710 N   0  0  0  0  0  0  0  0  0  0  0  0
  145.8040   72.2710  219.9680 C   0  0  0  0  0  0  0  0  0  0  0  0
  144.3480   71.8280  220.2370 C   0  0  0  0  0  0  0  0  0  0  0  0
  141.8370   72.1030  221.6710 N   0  0  0  0  0  0  0  0  0  0  0  0
  140.7390   72.2560  222.4590 C   0  0  0  0  0  0  0  0  0  0  0  0
  140.3310   71.2040  223.3590 N   0  0  0  0  0  0  0  0  0  0  0  0
  139.5470   70.0660  222.8520 C   0  0  0  0  0  0  0  0  0  0  0  0
  138.5780   69.5610  223.9160 C   0  0  0  0  0  0  0  0  0  0  0  0
  139.3210   69.2350  225.1770 C   0  0  0  0  0  0  0  0  0  0  0  0
  138.8950   68.1810  226.0000 C   0  0  0  0  0  0  0  0  0  0  0  0
  139.5700   67.9010  227.1900 C   0  0  0  0  0  0  0  0  0  0  0  0
  140.6650   68.6790  227.5730 C   0  0  0  0  0  0  0  0  0  0  0  0
  141.0850   69.7420  226.7680 C   0  0  0  0  0  0  0  0  0  0  0  0
  140.4210   70.0250  225.5630 C   0  0  0  0  0  0  0  0  0  0  0  0
  140.8630   71.2100  224.7350 C   0  0  0  0  0  0  0  0  0  0  0  0
  140.0320   73.4150  222.3930 N   0  0  0  0  0  0  0  0  0  0  0  0
  142.6699   73.5103  218.1053 H   0  0  0  0  0  0  0  0  0  0  0  0
  143.5382   74.7877  219.0458 H   0  0  0  0  0  0  0  0  0  0  0  0
  144.7237   72.4198  217.5307 H   0  0  0  0  0  0  0  0  0  0  0  0
  145.0169   74.1786  217.2767 H   0  0  0  0  0  0  0  0  0  0  0  0
  145.9950   74.2690  219.4720 H   0  0  0  0  0  0  0  0  0  0  0  0
  146.3678   71.3973  219.6091 H   0  0  0  0  0  0  0  0  0  0  0  0
  146.1886   72.6720  220.9174 H   0  0  0  0  0  0  0  0  0  0  0  0
  144.1033   70.9846  219.5746 H   0  0  0  0  0  0  0  0  0  0  0  0
  144.2676   71.5337  221.2938 H   0  0  0  0  0  0  0  0  0  0  0  0
  138.9769   70.3860  221.9674 H   0  0  0  0  0  0  0  0  0  0  0  0
  140.2372   69.2513  222.5876 H   0  0  0  0  0  0  0  0  0  0  0  0
  137.8298   70.3396  224.1256 H   0  0  0  0  0  0  0  0  0  0  0  0
  138.0797   68.6525  223.5468 H   0  0  0  0  0  0  0  0  0  0  0  0
  138.0263   67.5733  225.7066 H   0  0  0  0  0  0  0  0  0  0  0  0
  139.2391   67.0670  227.8263 H   0  0  0  0  0  0  0  0  0  0  0  0
  141.1975   68.4550  228.5091 H   0  0  0  0  0  0  0  0  0  0  0  0
  141.9399   70.3600  227.0799 H   0  0  0  0  0  0  0  0  0  0  0  0
  140.5229   72.1290  225.2348 H   0  0  0  0  0  0  0  0  0  0  0  0
  141.9588   71.1559  224.6560 H   0  0  0  0  0  0  0  0  0  0  0  0
  1  2  1  0
  2  3  2  0
  3  4  1  0
  4  5  1  0
  5  6  1  0
  6  7  1  0
  7  8  1  0
  8  9  1  0
  9 10  1  0
  4 11  2  0
 11 12  1  0
 12 13  1  0
 13 14  1  0
 14 15  1  0
 15 16  1  0
 16 17  2  0
 17 18  1  0
 18 19  2  0
 19 20  1  0
 20 21  2  0
 21 22  1  0
 12 23  2  0
 23  2  1  0
 10  5  1  0
 22 13  1  0
 21 16  1  0
  6 24  1  0
  6 25  1  0
  7 26  1  0
  7 27  1  0
  8 28  1  0
  9 29  1  0
  9 30  1  0
 10 31  1  0
 10 32  1  0
 14 33  1  0
 14 34  1  0
 15 35  1  0
 15 36  1  0
 17 37  1  0
 18 38  1  0
 19 39  1  0
 20 40  1  0
 22 41  1  0
 22 42  1  0
M  CHG  1   1  -1
M  END
>  <UniqueID>  (4) 
701

>  <SMILES>  (4) 
[O-]c1nc(N2CCNCC2)nc(N2CCc3ccccc3C2)n1

>  <Energy>  (4) 
46.535626236519555

>  <Genealogy>  (4) 
[O-]c1nc(N2CCNCC2)nc(N2CCc3ccccc3C2)n1 (protonated)
[O-]c1nc(N2CCNCC2)nc(N2CCc3ccccc3C2)n1 (3D coordinates assigned)
[O-]c1nc(N2CCNCC2)nc(N2CCc3ccccc3C2)n1 (nonaromatic ring conformer: 46.535626236519555 kcal/mol)

>  <smiles>  (4) 
Oc1nc(N2CCNCC2)nc(N2CCc3ccccc3C2)n1

>  <score_type>  (4) 
oracle

>  <origin>  (4) 
autodockgpu

>  <m_score__min__energy>  (4) 
-7.2599999999999998

>  <m_primary>  (4) 
energy

>  <meeko>  (4) 
{"free_energy": -7.24, "intermolecular_energy": -7.84, "internal_energy": -0.57, "cluster_size": 19, "cluster_id": 1, "rank_in_cluster": 10}

>  <energy>  (4) 
-7.26

>  <cluster_rmsd>  (4) 
0.01

>  <rmsd>  (4) 
272.0

>  <cluster>  (4) 
1

$$$$
VOQKIUCZPHIEKY-MWDOZMLPNA-M
     RDKit          3D

 42 45  0  0  0  0  0  0  0  0999 V2000
  140.3170   71.3910  218.7580 O   0  0  0  0  0  0  0  0  0  0  0  0
  140.2960   72.0640  219.9720 C   0  0  0  0  0  0  0  0  0  0  0  0
  140.3880   73.4160  220.0000 N   0  0  0  0  0  0  0  0  0  0  0  0
  140.3680   74.0830  221.1850 C   0  0  0  0  0  0  0  0  0  0  0  0
  140.4670   75.5220  221.2100 N   0  0  0  0  0  0  0  0  0  0  0  0
  139.8910   76.2600  222.3430 C   0  0  0  0  0  0  0  0  0  0  0  0
  140.1030   77.7670  222.1830 C   0  0  0  0  0  0  0  0  0  0  0  0
  141.4840   78.0440  221.7780 N   0  0  0  0  0  0  0  0  0  0  0  0
  141.8140   77.4810  220.4540 C   0  0  0  0  0  0  0  0  0  0  0  0
  140.9540   76.2660  220.0390 C   0  0  0  0  0  0  0  0  0  0  0  0
  140.2570   73.3760  222.3410 N   0  0  0  0  0  0  0  0  0  0  0  0
  140.1650   72.0200  222.3240 C   0  0  0  0  0  0  0  0  0  0  0  0
  140.0430   71.2780  223.5570 N   0  0  0  0  0  0  0  0  0  0  0  0
  139.5670   69.8850  223.5320 C   0  0  0  0  0  0  0  0  0  0  0  0
  138.7660   69.5660  224.7890 C   0  0  0  0  0  0  0  0  0  0  0  0
  139.5760   69.8780  226.0110 C   0  0  0  0  0  0  0  0  0  0  0  0
  139.4360   69.1040  227.1730 C   0  0  0  0  0  0  0  0  0  0  0  0
  140.1690   69.4180  228.3190 C   0  0  0  0  0  0  0  0  0  0  0  0
  141.0350   70.5130  228.3190 C   0  0  0  0  0  0  0  0  0  0  0  0
  141.1670   71.3000  227.1710 C   0  0  0  0  0  0  0  0  0  0  0  0
  140.4440   70.9870  226.0080 C   0  0  0  0  0  0  0  0  0  0  0  0
  140.5670   71.8820  224.7970 C   0  0  0  0  0  0  0  0  0  0  0  0
  140.1850   71.3690  221.1310 N   0  0  0  0  0  0  0  0  0  0  0  0
  138.8121   76.0525  222.3958 H   0  0  0  0  0  0  0  0  0  0  0  0
  140.3931   75.9323  223.2653 H   0  0  0  0  0  0  0  0  0  0  0  0
  139.4153   78.1511  221.4152 H   0  0  0  0  0  0  0  0  0  0  0  0
  139.9054   78.2613  223.1456 H   0  0  0  0  0  0  0  0  0  0  0  0
  142.1290   77.6280  222.4920 H   0  0  0  0  0  0  0  0  0  0  0  0
  141.6771   78.2714  219.7013 H   0  0  0  0  0  0  0  0  0  0  0  0
  142.8515   77.1212  220.5181 H   0  0  0  0  0  0  0  0  0  0  0  0
  140.0905   76.6217  219.4578 H   0  0  0  0  0  0  0  0  0  0  0  0
  141.5805   75.5902  219.4384 H   0  0  0  0  0  0  0  0  0  0  0  0
  138.9273   69.7379  222.6493 H   0  0  0  0  0  0  0  0  0  0  0  0
  140.4381   69.2147  223.4884 H   0  0  0  0  0  0  0  0  0  0  0  0
  137.8472   70.1707  224.7978 H   0  0  0  0  0  0  0  0  0  0  0  0
  138.5109   68.4960  224.7906 H   0  0  0  0  0  0  0  0  0  0  0  0
  138.7464   68.2470  227.1810 H   0  0  0  0  0  0  0  0  0  0  0  0
  140.0640   68.8013  229.2238 H   0  0  0  0  0  0  0  0  0  0  0  0
  141.6135   70.7566  229.2223 H   0  0  0  0  0  0  0  0  0  0  0  0
  141.8409   72.1693  227.1785 H   0  0  0  0  0  0  0  0  0  0  0  0
  140.0103   72.8102  224.9933 H   0  0  0  0  0  0  0  0  0  0  0  0
  141.6405   72.0619  224.6381 H   0  0  0  0  0  0  0  0  0  0  0  0
  1  2  1  0
  2  3  2  0
  3  4  1  0
  4  5  1  0
  5  6  1  0
  6  7  1  0
  7  8  1  0
  8  9  1  0
  9 10  1  0
  4 11  2  0
 11 12  1  0
 12 13  1  0
 13 14  1  0
 14 15  1  0
 15 16  1  0
 16 17  2  0
 17 18  1  0
 18 19  2  0
 19 20  1  0
 20 21  2  0
 21 22  1  0
 12 23  2  0
 23  2  1  0
 10  5  1  0
 22 13  1  0
 21 16  1  0
  6 24  1  0
  6 25  1  0
  7 26  1  0
  7 27  1  0
  8 28  1  0
  9 29  1  0
  9 30  1  0
 10 31  1  0
 10 32  1  0
 14 33  1  0
 14 34  1  0
 15 35  1  0
 15 36  1  0
 17 37  1  0
 18 38  1  0
 19 39  1  0
 20 40  1  0
 22 41  1  0
 22 42  1  0
M  CHG  1   1  -1
M  END
>  <UniqueID>  (5) 
701

>  <SMILES>  (5) 
[O-]c1nc(N2CCNCC2)nc(N2CCc3ccccc3C2)n1

>  <Energy>  (5) 
46.535626236519555

>  <Genealogy>  (5) 
[O-]c1nc(N2CCNCC2)nc(N2CCc3ccccc3C2)n1 (protonated)
[O-]c1nc(N2CCNCC2)nc(N2CCc3ccccc3C2)n1 (3D coordinates assigned)
[O-]c1nc(N2CCNCC2)nc(N2CCc3ccccc3C2)n1 (nonaromatic ring conformer: 46.535626236519555 kcal/mol)

>  <smiles>  (5) 
Oc1nc(N2CCNCC2)nc(N2CCc3ccccc3C2)n1

>  <score_type>  (5) 
oracle

>  <origin>  (5) 
autodockgpu

>  <m_score__min__energy>  (5) 
-7.2599999999999998

>  <m_primary>  (5) 
energy

>  <meeko>  (5) 
{"free_energy": -6.72, "intermolecular_energy": -7.31, "internal_energy": -0.58, "cluster_size": 1, "cluster_id": 2, "rank_in_cluster": 1}

>  <energy>  (5) 
-7.25

>  <cluster_rmsd>  (5) 
0.02

>  <rmsd>  (5) 
272.0

>  <cluster>  (5) 
1

$$$$
VOQKIUCZPHIEKY-MWDOZMLPNA-M
     RDKit          3D

 42 45  0  0  0  0  0  0  0  0999 V2000
  139.7110   75.6070  221.5360 O   0  0  0  0  0  0  0  0  0  0  0  0
  140.4330   74.4220  221.5890 C   0  0  0  0  0  0  0  0  0  0  0  0
  141.5240   74.2570  220.8000 N   0  0  0  0  0  0  0  0  0  0  0  0
  142.2360   73.0990  220.8460 C   0  0  0  0  0  0  0  0  0  0  0  0
  143.3950   72.9260  220.0050 N   0  0  0  0  0  0  0  0  0  0  0  0
  143.5170   73.7260  218.7790 C   0  0  0  0  0  0  0  0  0  0  0  0
  144.8120   73.3960  218.0320 C   0  0  0  0  0  0  0  0  0  0  0  0
  145.9380   73.3500  218.9700 N   0  0  0  0  0  0  0  0  0  0  0  0
  145.8030   72.2720  219.9700 C   0  0  0  0  0  0  0  0  0  0  0  0
  144.3480   71.8330  220.2480 C   0  0  0  0  0  0  0  0  0  0  0  0
  141.8400   72.1100  221.6900 N   0  0  0  0  0  0  0  0  0  0  0  0
  140.7470   72.2660  222.4840 C   0  0  0  0  0  0  0  0  0  0  0  0
  140.3370   71.2120  223.3810 N   0  0  0  0  0  0  0  0  0  0  0  0
  139.5450   70.0800  222.8720 C   0  0  0  0  0  0  0  0  0  0  0  0
  138.5780   69.5750  223.9380 C   0  0  0  0  0  0  0  0  0  0  0  0
  139.3240   69.2400  225.1940 C   0  0  0  0  0  0  0  0  0  0  0  0
  138.8950   68.1850  226.0150 C   0  0  0  0  0  0  0  0  0  0  0  0
  139.5740   67.8970  227.2010 C   0  0  0  0  0  0  0  0  0  0  0  0
  140.6740   68.6670  227.5840 C   0  0  0  0  0  0  0  0  0  0  0  0
  141.0960   69.7310  226.7810 C   0  0  0  0  0  0  0  0  0  0  0  0
  140.4290   70.0230  225.5800 C   0  0  0  0  0  0  0  0  0  0  0  0
  140.8740   71.2090  224.7560 C   0  0  0  0  0  0  0  0  0  0  0  0
  140.0470   73.4290  222.4270 N   0  0  0  0  0  0  0  0  0  0  0  0
  142.6598   73.5121  218.1237 H   0  0  0  0  0  0  0  0  0  0  0  0
  143.5354   74.7902  219.0567 H   0  0  0  0  0  0  0  0  0  0  0  0
  144.7086   72.4178  217.5396 H   0  0  0  0  0  0  0  0  0  0  0  0
  145.0021   74.1759  217.2799 H   0  0  0  0  0  0  0  0  0  0  0  0
  145.9940   74.2690  219.4690 H   0  0  0  0  0  0  0  0  0  0  0  0
  146.3627   71.3966  219.6089 H   0  0  0  0  0  0  0  0  0  0  0  0
  146.1945   72.6731  220.9165 H   0  0  0  0  0  0  0  0  0  0  0  0
  144.0981   70.9888  219.5886 H   0  0  0  0  0  0  0  0  0  0  0  0
  144.2736   71.5417  221.3061 H   0  0  0  0  0  0  0  0  0  0  0  0
  138.9727   70.4069  221.9913 H   0  0  0  0  0  0  0  0  0  0  0  0
  140.2300   69.2631  222.6008 H   0  0  0  0  0  0  0  0  0  0  0  0
  137.8345   70.3563  224.1540 H   0  0  0  0  0  0  0  0  0  0  0  0
  138.0739   68.6705  223.5669 H   0  0  0  0  0  0  0  0  0  0  0  0
  138.0215   67.5834  225.7233 H   0  0  0  0  0  0  0  0  0  0  0  0
  139.2415   67.0617  227.8348 H   0  0  0  0  0  0  0  0  0  0  0  0
  141.2085   68.4366  228.5174 H   0  0  0  0  0  0  0  0  0  0  0  0
  141.9555   70.3431  227.0918 H   0  0  0  0  0  0  0  0  0  0  0  0
  140.5402   72.1274  225.2610 H   0  0  0  0  0  0  0  0  0  0  0  0
  141.9692   71.1496  224.6729 H   0  0  0  0  0  0  0  0  0  0  0  0
  1  2  1  0
  2  3  2  0
  3  4  1  0
  4  5  1  0
  5  6  1  0
  6  7  1  0
  7  8  1  0
  8  9  1  0
  9 10  1  0
  4 11  2  0
 11 12  1  0
 12 13  1  0
 13 14  1  0
 14 15  1  0
 15 16  1  0
 16 17  2  0
 17 18  1  0
 18 19  2  0
 19 20  1  0
 20 21  2  0
 21 22  1  0
 12 23  2  0
 23  2  1  0
 10  5  1  0
 22 13  1  0
 21 16  1  0
  6 24  1  0
  6 25  1  0
  7 26  1  0
  7 27  1  0
  8 28  1  0
  9 29  1  0
  9 30  1  0
 10 31  1  0
 10 32  1  0
 14 33  1  0
 14 34  1  0
 15 35  1  0
 15 36  1  0
 17 37  1  0
 18 38  1  0
 19 39  1  0
 20 40  1  0
 22 41  1  0
 22 42  1  0
M  CHG  1   1  -1
M  END
>  <UniqueID>  (6) 
701

>  <SMILES>  (6) 
[O-]c1nc(N2CCNCC2)nc(N2CCc3ccccc3C2)n1

>  <Energy>  (6) 
46.535626236519555

>  <Genealogy>  (6) 
[O-]c1nc(N2CCNCC2)nc(N2CCc3ccccc3C2)n1 (protonated)
[O-]c1nc(N2CCNCC2)nc(N2CCc3ccccc3C2)n1 (3D coordinates assigned)
[O-]c1nc(N2CCNCC2)nc(N2CCc3ccccc3C2)n1 (nonaromatic ring conformer: 46.535626236519555 kcal/mol)

>  <smiles>  (6) 
Oc1nc(N2CCNCC2)nc(N2CCc3ccccc3C2)n1

>  <score_type>  (6) 
oracle

>  <origin>  (6) 
autodockgpu

>  <m_score__min__energy>  (6) 
-7.2599999999999998

>  <m_primary>  (6) 
energy

>  <meeko>  (6) 
{"free_energy": -7.24, "intermolecular_energy": -7.84, "internal_energy": -0.57, "cluster_size": 19, "cluster_id": 1, "rank_in_cluster": 12}

>  <energy>  (6) 
-7.25

>  <cluster_rmsd>  (6) 
0.03

>  <rmsd>  (6) 
272.0

>  <cluster>  (6) 
1

$$$$
VOQKIUCZPHIEKY-MWDOZMLPNA-M
     RDKit          3D

 42 45  0  0  0  0  0  0  0  0999 V2000
  139.7360   75.5940  221.5460 O   0  0  0  0  0  0  0  0  0  0  0  0
  140.4510   74.4050  221.5900 C   0  0  0  0  0  0  0  0  0  0  0  0
  141.5380   74.2380  220.7980 N   0  0  0  0  0  0  0  0  0  0  0  0
  142.2440   73.0760  220.8350 C   0  0  0  0  0  0  0  0  0  0  0  0
  143.4000   72.9010  219.9910 N   0  0  0  0  0  0  0  0  0  0  0  0
  143.5270   73.7130  218.7720 C   0  0  0  0  0  0  0  0  0  0  0  0
  144.8180   73.3790  218.0210 C   0  0  0  0  0  0  0  0  0  0  0  0
  145.9450   73.3130  218.9560 N   0  0  0  0  0  0  0  0  0  0  0  0
  145.8020   72.2270  219.9450 C   0  0  0  0  0  0  0  0  0  0  0  0
  144.3440   71.7970  220.2210 C   0  0  0  0  0  0  0  0  0  0  0  0
  141.8440   72.0840  221.6740 N   0  0  0  0  0  0  0  0  0  0  0  0
  140.7530   72.2410  222.4710 C   0  0  0  0  0  0  0  0  0  0  0  0
  140.3380   71.1840  223.3620 N   0  0  0  0  0  0  0  0  0  0  0  0
  139.5480   70.0540  222.8450 C   0  0  0  0  0  0  0  0  0  0  0  0
  138.5760   69.5460  223.9050 C   0  0  0  0  0  0  0  0  0  0  0  0
  139.3160   69.2060  225.1630 C   0  0  0  0  0  0  0  0  0  0  0  0
  138.8830   68.1480  225.9770 C   0  0  0  0  0  0  0  0  0  0  0  0
  139.5560   67.8550  227.1650 C   0  0  0  0  0  0  0  0  0  0  0  0
  140.6550   68.6230  227.5560 C   0  0  0  0  0  0  0  0  0  0  0  0
  141.0820   69.6900  226.7590 C   0  0  0  0  0  0  0  0  0  0  0  0
  140.4200   69.9870  225.5570 C   0  0  0  0  0  0  0  0  0  0  0  0
  140.8690   71.1750  224.7390 C   0  0  0  0  0  0  0  0  0  0  0  0
  140.0600   73.4090  222.4230 N   0  0  0  0  0  0  0  0  0  0  0  0
  142.6673   73.5130  218.1156 H   0  0  0  0  0  0  0  0  0  0  0  0
  143.5542   74.7743  219.0598 H   0  0  0  0  0  0  0  0  0  0  0  0
  144.7051   72.4068  217.5188 H   0  0  0  0  0  0  0  0  0  0  0  0
  145.0143   74.1653  217.2773 H   0  0  0  0  0  0  0  0  0  0  0  0
  146.0100   74.2270  219.4640 H   0  0  0  0  0  0  0  0  0  0  0  0
  146.3540   71.3506  219.5746 H   0  0  0  0  0  0  0  0  0  0  0  0
  146.1976   72.6160  220.8948 H   0  0  0  0  0  0  0  0  0  0  0  0
  144.0858   70.9619  219.5532 H   0  0  0  0  0  0  0  0  0  0  0  0
  144.2688   71.4948  221.2760 H   0  0  0  0  0  0  0  0  0  0  0  0
  138.9800   70.3842  221.9628 H   0  0  0  0  0  0  0  0  0  0  0  0
  140.2338   69.2378  222.5738 H   0  0  0  0  0  0  0  0  0  0  0  0
  137.8321   70.3271  224.1205 H   0  0  0  0  0  0  0  0  0  0  0  0
  138.0730   68.6431  223.5285 H   0  0  0  0  0  0  0  0  0  0  0  0
  138.0109   67.5478  225.6784 H   0  0  0  0  0  0  0  0  0  0  0  0
  139.2198   67.0176  227.7941 H   0  0  0  0  0  0  0  0  0  0  0  0
  141.1849   68.3886  228.4910 H   0  0  0  0  0  0  0  0  0  0  0  0
  141.9411   70.2998  227.0756 H   0  0  0  0  0  0  0  0  0  0  0  0
  140.5340   72.0919  225.2460 H   0  0  0  0  0  0  0  0  0  0  0  0
  141.9645   71.1144  224.6599 H   0  0  0  0  0  0  0  0  0  0  0  0
  1  2  1  0
  2  3  2  0
  3  4  1  0
  4  5  1  0
  5  6  1  0
  6  7  1  0
  7  8  1  0
  8  9  1  0
  9 10  1  0
  4 11  2  0
 11 12  1  0
 12 13  1  0
 13 14  1  0
 14 15  1  0
 15 16  1  0
 16 17  2  0
 17 18  1  0
 18 19  2  0
 19 20  1  0
 20 21  2  0
 21 22  1  0
 12 23  2  0
 23  2  1  0
 10  5  1  0
 22 13  1  0
 21 16  1  0
  6 24  1  0
  6 25  1  0
  7 26  1  0
  7 27  1  0
  8 28  1  0
  9 29  1  0
  9 30  1  0
 10 31  1  0
 10 32  1  0
 14 33  1  0
 14 34  1  0
 15 35  1  0
 15 36  1  0
 17 37  1  0
 18 38  1  0
 19 39  1  0
 20 40  1  0
 22 41  1  0
 22 42  1  0
M  CHG  1   1  -1
M  END
>  <UniqueID>  (7) 
701

>  <SMILES>  (7) 
[O-]c1nc(N2CCNCC2)nc(N2CCc3ccccc3C2)n1

>  <Energy>  (7) 
46.535626236519555

>  <Genealogy>  (7) 
[O-]c1nc(N2CCNCC2)nc(N2CCc3ccccc3C2)n1 (protonated)
[O-]c1nc(N2CCNCC2)nc(N2CCc3ccccc3C2)n1 (3D coordinates assigned)
[O-]c1nc(N2CCNCC2)nc(N2CCc3ccccc3C2)n1 (nonaromatic ring conformer: 46.535626236519555 kcal/mol)

>  <smiles>  (7) 
Oc1nc(N2CCNCC2)nc(N2CCc3ccccc3C2)n1

>  <score_type>  (7) 
oracle

>  <origin>  (7) 
autodockgpu

>  <m_score__min__energy>  (7) 
-7.2599999999999998

>  <m_primary>  (7) 
energy

>  <meeko>  (7) 
{"free_energy": -7.23, "intermolecular_energy": -7.83, "internal_energy": -0.57, "cluster_size": 19, "cluster_id": 1, "rank_in_cluster": 16}

>  <energy>  (7) 
-7.25

>  <cluster_rmsd>  (7) 
0.02

>  <rmsd>  (7) 
272.01

>  <cluster>  (7) 
1

$$$$
VOQKIUCZPHIEKY-MWDOZMLPNA-M
     RDKit          3D

 42 45  0  0  0  0  0  0  0  0999 V2000
  139.7400   75.6080  221.5640 O   0  0  0  0  0  0  0  0  0  0  0  0
  140.4510   74.4160  221.5930 C   0  0  0  0  0  0  0  0  0  0  0  0
  141.5310   74.2520  220.7900 N   0  0  0  0  0  0  0  0  0  0  0  0
  142.2330   73.0880  220.8120 C   0  0  0  0  0  0  0  0  0  0  0  0
  143.3820   72.9160  219.9560 N   0  0  0  0  0  0  0  0  0  0  0  0
  143.5160   73.7580  218.7590 C   0  0  0  0  0  0  0  0  0  0  0  0
  144.7970   73.4220  217.9910 C   0  0  0  0  0  0  0  0  0  0  0  0
  145.9280   73.3110  218.9170 N   0  0  0  0  0  0  0  0  0  0  0  0
  145.7710   72.2010  219.8770 C   0  0  0  0  0  0  0  0  0  0  0  0
  144.3070   71.7890  220.1500 C   0  0  0  0  0  0  0  0  0  0  0  0
  141.8380   72.0900  221.6470 N   0  0  0  0  0  0  0  0  0  0  0  0
  140.7550   72.2450  222.4540 C   0  0  0  0  0  0  0  0  0  0  0  0
  140.3440   71.1820  223.3410 N   0  0  0  0  0  0  0  0  0  0  0  0
  139.5630   70.0490  222.8190 C   0  0  0  0  0  0  0  0  0  0  0  0
  138.5910   69.5320  223.8740 C   0  0  0  0  0  0  0  0  0  0  0  0
  139.3300   69.1920  225.1330 C   0  0  0  0  0  0  0  0  0  0  0  0
  138.9020   68.1290  225.9430 C   0  0  0  0  0  0  0  0  0  0  0  0
  139.5740   67.8360  227.1320 C   0  0  0  0  0  0  0  0  0  0  0  0
  140.6670   68.6100  227.5280 C   0  0  0  0  0  0  0  0  0  0  0  0
  141.0890   69.6820  226.7350 C   0  0  0  0  0  0  0  0  0  0  0  0
  140.4280   69.9790  225.5320 C   0  0  0  0  0  0  0  0  0  0  0  0
  140.8720   71.1730  224.7190 C   0  0  0  0  0  0  0  0  0  0  0  0
  140.0650   73.4160  222.4220 N   0  0  0  0  0  0  0  0  0  0  0  0
  142.6491   73.5907  218.1029 H   0  0  0  0  0  0  0  0  0  0  0  0
  143.5634   74.8106  219.0751 H   0  0  0  0  0  0  0  0  0  0  0  0
  144.6642   72.4660  217.4634 H   0  0  0  0  0  0  0  0  0  0  0  0
  145.0028   74.2247  217.2676 H   0  0  0  0  0  0  0  0  0  0  0  0
  146.0110   74.2090  219.4490 H   0  0  0  0  0  0  0  0  0  0  0  0
  146.3054   71.3255  219.4796 H   0  0  0  0  0  0  0  0  0  0  0  0
  146.1785   72.5571  220.8347 H   0  0  0  0  0  0  0  0  0  0  0  0
  144.0302   70.9774  219.4610 H   0  0  0  0  0  0  0  0  0  0  0  0
  144.2321   71.4587  221.1966 H   0  0  0  0  0  0  0  0  0  0  0  0
  138.9957   70.3780  221.9359 H   0  0  0  0  0  0  0  0  0  0  0  0
  140.2549   69.2378  222.5482 H   0  0  0  0  0  0  0  0  0  0  0  0
  137.8420   70.3081  224.0901 H   0  0  0  0  0  0  0  0  0  0  0  0
  138.0939   68.6277  223.4931 H   0  0  0  0  0  0  0  0  0  0  0  0
  138.0343   67.5244  225.6405 H   0  0  0  0  0  0  0  0  0  0  0  0
  139.2418   66.9943  227.7574 H   0  0  0  0  0  0  0  0  0  0  0  0
  141.1961   68.3765  228.4637 H   0  0  0  0  0  0  0  0  0  0  0  0
  141.9436   70.2960  227.0554 H   0  0  0  0  0  0  0  0  0  0  0  0
  140.5299   72.0862  225.2279 H   0  0  0  0  0  0  0  0  0  0  0  0
  141.9681   71.1204  224.6429 H   0  0  0  0  0  0  0  0  0  0  0  0
  1  2  1  0
  2  3  2  0
  3  4  1  0
  4  5  1  0
  5  6  1  0
  6  7  1  0
  7  8  1  0
  8  9  1  0
  9 10  1  0
  4 11  2  0
 11 12  1  0
 12 13  1  0
 13 14  1  0
 14 15  1  0
 15 16  1  0
 16 17  2  0
 17 18  1  0
 18 19  2  0
 19 20  1  0
 20 21  2  0
 21 22  1  0
 12 23  2  0
 23  2  1  0
 10  5  1  0
 22 13  1  0
 21 16  1  0
  6 24  1  0
  6 25  1  0
  7 26  1  0
  7 27  1  0
  8 28  1  0
  9 29  1  0
  9 30  1  0
 10 31  1  0
 10 32  1  0
 14 33  1  0
 14 34  1  0
 15 35  1  0
 15 36  1  0
 17 37  1  0
 18 38  1  0
 19 39  1  0
 20 40  1  0
 22 41  1  0
 22 42  1  0
M  CHG  1   1  -1
M  END
>  <UniqueID>  (8) 
701

>  <SMILES>  (8) 
[O-]c1nc(N2CCNCC2)nc(N2CCc3ccccc3C2)n1

>  <Energy>  (8) 
46.535626236519555

>  <Genealogy>  (8) 
[O-]c1nc(N2CCNCC2)nc(N2CCc3ccccc3C2)n1 (protonated)
[O-]c1nc(N2CCNCC2)nc(N2CCc3ccccc3C2)n1 (3D coordinates assigned)
[O-]c1nc(N2CCNCC2)nc(N2CCc3ccccc3C2)n1 (nonaromatic ring conformer: 46.535626236519555 kcal/mol)

>  <smiles>  (8) 
Oc1nc(N2CCNCC2)nc(N2CCc3ccccc3C2)n1

>  <score_type>  (8) 
oracle

>  <origin>  (8) 
autodockgpu

>  <m_score__min__energy>  (8) 
-7.2599999999999998

>  <m_primary>  (8) 
energy

>  <meeko>  (8) 
{"free_energy": -7.23, "intermolecular_energy": -7.83, "internal_energy": -0.57, "cluster_size": 19, "cluster_id": 1, "rank_in_cluster": 18}

>  <energy>  (8) 
-7.25

>  <cluster_rmsd>  (8) 
0.02

>  <rmsd>  (8) 
272.0

>  <cluster>  (8) 
1

$$$$
VOQKIUCZPHIEKY-MWDOZMLPNA-M
     RDKit          3D

 42 45  0  0  0  0  0  0  0  0999 V2000
  139.7040   75.5690  221.5300 O   0  0  0  0  0  0  0  0  0  0  0  0
  140.4240   74.3830  221.5750 C   0  0  0  0  0  0  0  0  0  0  0  0
  141.5090   74.2170  220.7790 N   0  0  0  0  0  0  0  0  0  0  0  0
  142.2190   73.0580  220.8170 C   0  0  0  0  0  0  0  0  0  0  0  0
  143.3730   72.8850  219.9680 N   0  0  0  0  0  0  0  0  0  0  0  0
  143.5270   73.7420  218.7850 C   0  0  0  0  0  0  0  0  0  0  0  0
  144.8100   73.4030  218.0220 C   0  0  0  0  0  0  0  0  0  0  0  0
  145.9320   73.2640  218.9560 N   0  0  0  0  0  0  0  0  0  0  0  0
  145.7540   72.1430  219.8990 C   0  0  0  0  0  0  0  0  0  0  0  0
  144.2830   71.7450  220.1540 C   0  0  0  0  0  0  0  0  0  0  0  0
  141.8270   72.0680  221.6610 N   0  0  0  0  0  0  0  0  0  0  0  0
  140.7390   72.2230  222.4620 C   0  0  0  0  0  0  0  0  0  0  0  0
  140.3330   71.1680  223.3590 N   0  0  0  0  0  0  0  0  0  0  0  0
  139.5590   70.0250  222.8470 C   0  0  0  0  0  0  0  0  0  0  0  0
  138.5880   69.5130  223.9050 C   0  0  0  0  0  0  0  0  0  0  0  0
  139.3250   69.1910  225.1700 C   0  0  0  0  0  0  0  0  0  0  0  0
  138.9000   68.1340  225.9900 C   0  0  0  0  0  0  0  0  0  0  0  0
  139.5710   67.8580  227.1830 C   0  0  0  0  0  0  0  0  0  0  0  0
  140.6570   68.6420  227.5740 C   0  0  0  0  0  0  0  0  0  0  0  0
  141.0760   69.7080  226.7710 C   0  0  0  0  0  0  0  0  0  0  0  0
  140.4170   69.9880  225.5630 C   0  0  0  0  0  0  0  0  0  0  0  0
  140.8560   71.1760  224.7390 C   0  0  0  0  0  0  0  0  0  0  0  0
  140.0410   73.3890  222.4130 N   0  0  0  0  0  0  0  0  0  0  0  0
  142.6636   73.5943  218.1196 H   0  0  0  0  0  0  0  0  0  0  0  0
  143.5845   74.7890  219.1173 H   0  0  0  0  0  0  0  0  0  0  0  0
  144.6704   72.4571  217.4782 H   0  0  0  0  0  0  0  0  0  0  0  0
  145.0313   74.2143  217.3128 H   0  0  0  0  0  0  0  0  0  0  0  0
  146.0210   74.1540  219.5020 H   0  0  0  0  0  0  0  0  0  0  0  0
  146.2813   71.2667  219.4939 H   0  0  0  0  0  0  0  0  0  0  0  0
  146.1577   72.4808  220.8649 H   0  0  0  0  0  0  0  0  0  0  0  0
  144.0025   70.9462  219.4516 H   0  0  0  0  0  0  0  0  0  0  0  0
  144.1954   71.4016  221.1954 H   0  0  0  0  0  0  0  0  0  0  0  0
  138.9916   70.3419  221.9596 H   0  0  0  0  0  0  0  0  0  0  0  0
  140.2560   69.2151  222.5858 H   0  0  0  0  0  0  0  0  0  0  0  0
  137.8334   70.2865  224.1107 H   0  0  0  0  0  0  0  0  0  0  0  0
  138.0984   68.6012  223.5323 H   0  0  0  0  0  0  0  0  0  0  0  0
  138.0362   67.5216  225.6920 H   0  0  0  0  0  0  0  0  0  0  0  0
  139.2427   67.0205  227.8161 H   0  0  0  0  0  0  0  0  0  0  0  0
  141.1839   68.4217  228.5141 H   0  0  0  0  0  0  0  0  0  0  0  0
  141.9261   70.3302  227.0875 H   0  0  0  0  0  0  0  0  0  0  0  0
  140.5064   72.0922  225.2373 H   0  0  0  0  0  0  0  0  0  0  0  0
  141.9526   71.1290  224.6669 H   0  0  0  0  0  0  0  0  0  0  0  0
  1  2  1  0
  2  3  2  0
  3  4  1  0
  4  5  1  0
  5  6  1  0
  6  7  1  0
  7  8  1  0
  8  9  1  0
  9 10  1  0
  4 11  2  0
 11 12  1  0
 12 13  1  0
 13 14  1  0
 14 15  1  0
 15 16  1  0
 16 17  2  0
 17 18  1  0
 18 19  2  0
 19 20  1  0
 20 21  2  0
 21 22  1  0
 12 23  2  0
 23  2  1  0
 10  5  1  0
 22 13  1  0
 21 16  1  0
  6 24  1  0
  6 25  1  0
  7 26  1  0
  7 27  1  0
  8 28  1  0
  9 29  1  0
  9 30  1  0
 10 31  1  0
 10 32  1  0
 14 33  1  0
 14 34  1  0
 15 35  1  0
 15 36  1  0
 17 37  1  0
 18 38  1  0
 19 39  1  0
 20 40  1  0
 22 41  1  0
 22 42  1  0
M  CHG  1   1  -1
M  END
>  <UniqueID>  (9) 
701

>  <SMILES>  (9) 
[O-]c1nc(N2CCNCC2)nc(N2CCc3ccccc3C2)n1

>  <Energy>  (9) 
46.535626236519555

>  <Genealogy>  (9) 
[O-]c1nc(N2CCNCC2)nc(N2CCc3ccccc3C2)n1 (protonated)
[O-]c1nc(N2CCNCC2)nc(N2CCc3ccccc3C2)n1 (3D coordinates assigned)
[O-]c1nc(N2CCNCC2)nc(N2CCc3ccccc3C2)n1 (nonaromatic ring conformer: 46.535626236519555 kcal/mol)

>  <smiles>  (9) 
Oc1nc(N2CCNCC2)nc(N2CCc3ccccc3C2)n1

>  <score_type>  (9) 
oracle

>  <origin>  (9) 
autodockgpu

>  <m_score__min__energy>  (9) 
-7.2599999999999998

>  <m_primary>  (9) 
energy

>  <meeko>  (9) 
{"free_energy": -7.23, "intermolecular_energy": -7.83, "internal_energy": -0.57, "cluster_size": 19, "cluster_id": 1, "rank_in_cluster": 17}

>  <energy>  (9) 
-7.25

>  <cluster_rmsd>  (9) 
0.03

>  <rmsd>  (9) 
271.98

>  <cluster>  (9) 
1

$$$$
VOQKIUCZPHIEKY-MWDOZMLPNA-M
     RDKit          3D

 42 45  0  0  0  0  0  0  0  0999 V2000
  139.4730   75.4500  221.4400 O   0  0  0  0  0  0  0  0  0  0  0  0
  140.2770   74.3290  221.5940 C   0  0  0  0  0  0  0  0  0  0  0  0
  141.4420   74.2320  220.9080 N   0  0  0  0  0  0  0  0  0  0  0  0
  142.2370   73.1380  221.0530 C   0  0  0  0  0  0  0  0  0  0  0  0
  143.4750   73.0370  220.3200 N   0  0  0  0  0  0  0  0  0  0  0  0
  144.6670   73.7290  220.8280 C   0  0  0  0  0  0  0  0  0  0  0  0
  145.8710   73.4960  219.9130 C   0  0  0  0  0  0  0  0  0  0  0  0
  145.9670   72.0780  219.5550 N   0  0  0  0  0  0  0  0  0  0  0  0
  144.8090   71.6080  218.7690 C   0  0  0  0  0  0  0  0  0  0  0  0
  143.5140   72.4230  218.9840 C   0  0  0  0  0  0  0  0  0  0  0  0
  141.8470   72.1420  221.8920 N   0  0  0  0  0  0  0  0  0  0  0  0
  140.6790   72.2300  222.5840 C   0  0  0  0  0  0  0  0  0  0  0  0
  140.2750   71.1700  223.4770 N   0  0  0  0  0  0  0  0  0  0  0  0
  139.4530   70.0580  222.9740 C   0  0  0  0  0  0  0  0  0  0  0  0
  138.5050   69.5530  224.0570 C   0  0  0  0  0  0  0  0  0  0  0  0
  139.2780   69.1900  225.2890 C   0  0  0  0  0  0  0  0  0  0  0  0
  138.8530   68.1300  226.1060 C   0  0  0  0  0  0  0  0  0  0  0  0
  139.5570   67.8150  227.2710 C   0  0  0  0  0  0  0  0  0  0  0  0
  140.6780   68.5630  227.6350 C   0  0  0  0  0  0  0  0  0  0  0  0
  141.0970   69.6310  226.8360 C   0  0  0  0  0  0  0  0  0  0  0  0
  140.4050   69.9500  225.6570 C   0  0  0  0  0  0  0  0  0  0  0  0
  140.8470   71.1400  224.8370 C   0  0  0  0  0  0  0  0  0  0  0  0
  139.8980   73.3310  222.4290 N   0  0  0  0  0  0  0  0  0  0  0  0
  144.4603   74.8080  220.8820 H   0  0  0  0  0  0  0  0  0  0  0  0
  144.9039   73.3303  221.8255 H   0  0  0  0  0  0  0  0  0  0  0  0
  145.7532   74.0948  218.9978 H   0  0  0  0  0  0  0  0  0  0  0  0
  146.7876   73.7957  220.4421 H   0  0  0  0  0  0  0  0  0  0  0  0
  146.0280   71.5160  220.4370 H   0  0  0  0  0  0  0  0  0  0  0  0
  145.0741   71.6595  217.7027 H   0  0  0  0  0  0  0  0  0  0  0  0
  144.5943   70.5846  219.1105 H   0  0  0  0  0  0  0  0  0  0  0  0
  143.4621   73.2172  218.2247 H   0  0  0  0  0  0  0  0  0  0  0  0
  142.6581   71.7377  218.8957 H   0  0  0  0  0  0  0  0  0  0  0  0
  138.8640   70.4057  222.1125 H   0  0  0  0  0  0  0  0  0  0  0  0
  140.1182   69.2344  222.6753 H   0  0  0  0  0  0  0  0  0  0  0  0
  137.7791   70.3423  224.3022 H   0  0  0  0  0  0  0  0  0  0  0  0
  137.9774   68.6615  223.6870 H   0  0  0  0  0  0  0  0  0  0  0  0
  137.9633   67.5460  225.8280 H   0  0  0  0  0  0  0  0  0  0  0  0
  139.2275   66.9765  227.9022 H   0  0  0  0  0  0  0  0  0  0  0  0
  141.2322   68.3119  228.5514 H   0  0  0  0  0  0  0  0  0  0  0  0
  141.9741   70.2248  227.1329 H   0  0  0  0  0  0  0  0  0  0  0  0
  140.5409   72.0566  225.3626 H   0  0  0  0  0  0  0  0  0  0  0  0
  141.9386   71.0646  224.7245 H   0  0  0  0  0  0  0  0  0  0  0  0
  1  2  1  0
  2  3  2  0
  3  4  1  0
  4  5  1  0
  5  6  1  0
  6  7  1  0
  7  8  1  0
  8  9  1  0
  9 10  1  0
  4 11  2  0
 11 12  1  0
 12 13  1  0
 13 14  1  0
 14 15  1  0
 15 16  1  0
 16 17  2  0
 17 18  1  0
 18 19  2  0
 19 20  1  0
 20 21  2  0
 21 22  1  0
 12 23  2  0
 23  2  1  0
 10  5  1  0
 22 13  1  0
 21 16  1  0
  6 24  1  0
  6 25  1  0
  7 26  1  0
  7 27  1  0
  8 28  1  0
  9 29  1  0
  9 30  1  0
 10 31  1  0
 10 32  1  0
 14 33  1  0
 14 34  1  0
 15 35  1  0
 15 36  1  0
 17 37  1  0
 18 38  1  0
 19 39  1  0
 20 40  1  0
 22 41  1  0
 22 42  1  0
M  CHG  1   1  -1
M  END
>  <UniqueID>  (10) 
701

>  <SMILES>  (10) 
[O-]c1nc(N2CCNCC2)nc(N2CCc3ccccc3C2)n1

>  <Energy>  (10) 
46.535626236519555

>  <Genealogy>  (10) 
[O-]c1nc(N2CCNCC2)nc(N2CCc3ccccc3C2)n1 (protonated)
[O-]c1nc(N2CCNCC2)nc(N2CCc3ccccc3C2)n1 (3D coordinates assigned)
[O-]c1nc(N2CCNCC2)nc(N2CCc3ccccc3C2)n1 (nonaromatic ring conformer: 46.535626236519555 kcal/mol)

>  <smiles>  (10) 
Oc1nc(N2CCNCC2)nc(N2CCc3ccccc3C2)n1

>  <score_type>  (10) 
oracle

>  <origin>  (10) 
autodockgpu

>  <m_score__min__energy>  (10) 
-7.2599999999999998

>  <m_primary>  (10) 
energy

>  <meeko>  (10) 
{"free_energy": -7.25, "intermolecular_energy": -7.85, "internal_energy": -0.56, "cluster_size": 19, "cluster_id": 1, "rank_in_cluster": 7}

>  <energy>  (10) 
-7.24

>  <cluster_rmsd>  (10) 
0.92

>  <rmsd>  (10) 
271.9

>  <cluster>  (10) 
1

$$$$
VOQKIUCZPHIEKY-MWDOZMLPNA-M
     RDKit          3D

 42 45  0  0  0  0  0  0  0  0999 V2000
  139.4590   75.4340  221.4280 O   0  0  0  0  0  0  0  0  0  0  0  0
  140.2650   74.3140  221.5800 C   0  0  0  0  0  0  0  0  0  0  0  0
  141.4320   74.2210  220.8960 N   0  0  0  0  0  0  0  0  0  0  0  0
  142.2270   73.1270  221.0400 C   0  0  0  0  0  0  0  0  0  0  0  0
  143.4680   73.0310  220.3100 N   0  0  0  0  0  0  0  0  0  0  0  0
  144.6580   73.7240  220.8230 C   0  0  0  0  0  0  0  0  0  0  0  0
  145.8650   73.4950  219.9100 C   0  0  0  0  0  0  0  0  0  0  0  0
  145.9640   72.0780  219.5480 N   0  0  0  0  0  0  0  0  0  0  0  0
  144.8090   71.6090  218.7570 C   0  0  0  0  0  0  0  0  0  0  0  0
  143.5110   72.4210  218.9720 C   0  0  0  0  0  0  0  0  0  0  0  0
  141.8370   72.1280  221.8740 N   0  0  0  0  0  0  0  0  0  0  0  0
  140.6670   72.2110  222.5630 C   0  0  0  0  0  0  0  0  0  0  0  0
  140.2630   71.1480  223.4520 N   0  0  0  0  0  0  0  0  0  0  0  0
  139.4470   70.0340  222.9410 C   0  0  0  0  0  0  0  0  0  0  0  0
  138.4960   69.5230  224.0180 C   0  0  0  0  0  0  0  0  0  0  0  0
  139.2630   69.1590  225.2530 C   0  0  0  0  0  0  0  0  0  0  0  0
  138.8380   68.0950  226.0650 C   0  0  0  0  0  0  0  0  0  0  0  0
  139.5370   67.7800  227.2320 C   0  0  0  0  0  0  0  0  0  0  0  0
  140.6540   68.5300  227.6040 C   0  0  0  0  0  0  0  0  0  0  0  0
  141.0730   69.6020  226.8100 C   0  0  0  0  0  0  0  0  0  0  0  0
  140.3850   69.9220  225.6290 C   0  0  0  0  0  0  0  0  0  0  0  0
  140.8280   71.1160  224.8140 C   0  0  0  0  0  0  0  0  0  0  0  0
  139.8850   73.3120  222.4100 N   0  0  0  0  0  0  0  0  0  0  0  0
  144.4494   74.8026  220.8791 H   0  0  0  0  0  0  0  0  0  0  0  0
  144.8930   73.3234  221.8202 H   0  0  0  0  0  0  0  0  0  0  0  0
  145.7487   74.0962  218.9962 H   0  0  0  0  0  0  0  0  0  0  0  0
  146.7798   73.7943  220.4425 H   0  0  0  0  0  0  0  0  0  0  0  0
  146.0230   71.5130  220.4280 H   0  0  0  0  0  0  0  0  0  0  0  0
  145.0768   71.6655  217.6916 H   0  0  0  0  0  0  0  0  0  0  0  0
  144.5955   70.5838  219.0937 H   0  0  0  0  0  0  0  0  0  0  0  0
  143.4588   73.2174  218.2150 H   0  0  0  0  0  0  0  0  0  0  0  0
  142.6568   71.7341  218.8799 H   0  0  0  0  0  0  0  0  0  0  0  0
  138.8610   70.3822  222.0777 H   0  0  0  0  0  0  0  0  0  0  0  0
  140.1163   69.2137  222.6426 H   0  0  0  0  0  0  0  0  0  0  0  0
  137.7663   70.3093  224.2616 H   0  0  0  0  0  0  0  0  0  0  0  0
  137.9739   68.6305  223.6428 H   0  0  0  0  0  0  0  0  0  0  0  0
  137.9520   67.5081  225.7809 H   0  0  0  0  0  0  0  0  0  0  0  0
  139.2068   66.9391  227.8595 H   0  0  0  0  0  0  0  0  0  0  0  0
  141.2048   68.2776  228.5221 H   0  0  0  0  0  0  0  0  0  0  0  0
  141.9467   70.1979  227.1125 H   0  0  0  0  0  0  0  0  0  0  0  0
  140.5168   72.0303  225.3404 H   0  0  0  0  0  0  0  0  0  0  0  0
  141.9204   71.0440  224.7068 H   0  0  0  0  0  0  0  0  0  0  0  0
  1  2  1  0
  2  3  2  0
  3  4  1  0
  4  5  1  0
  5  6  1  0
  6  7  1  0
  7  8  1  0
  8  9  1  0
  9 10  1  0
  4 11  2  0
 11 12  1  0
 12 13  1  0
 13 14  1  0
 14 15  1  0
 15 16  1  0
 16 17  2  0
 17 18  1  0
 18 19  2  0
 19 20  1  0
 20 21  2  0
 21 22  1  0
 12 23  2  0
 23  2  1  0
 10  5  1  0
 22 13  1  0
 21 16  1  0
  6 24  1  0
  6 25  1  0
  7 26  1  0
  7 27  1  0
  8 28  1  0
  9 29  1  0
  9 30  1  0
 10 31  1  0
 10 32  1  0
 14 33  1  0
 14 34  1  0
 15 35  1  0
 15 36  1  0
 17 37  1  0
 18 38  1  0
 19 39  1  0
 20 40  1  0
 22 41  1  0
 22 42  1  0
M  CHG  1   1  -1
M  END
>  <UniqueID>  (11) 
701

>  <SMILES>  (11) 
[O-]c1nc(N2CCNCC2)nc(N2CCc3ccccc3C2)n1

>  <Energy>  (11) 
46.535626236519555

>  <Genealogy>  (11) 
[O-]c1nc(N2CCNCC2)nc(N2CCc3ccccc3C2)n1 (protonated)
[O-]c1nc(N2CCNCC2)nc(N2CCc3ccccc3C2)n1 (3D coordinates assigned)
[O-]c1nc(N2CCNCC2)nc(N2CCc3ccccc3C2)n1 (nonaromatic ring conformer: 46.535626236519555 kcal/mol)

>  <smiles>  (11) 
Oc1nc(N2CCNCC2)nc(N2CCc3ccccc3C2)n1

>  <score_type>  (11) 
oracle

>  <origin>  (11) 
autodockgpu

>  <m_score__min__energy>  (11) 
-7.2599999999999998

>  <m_primary>  (11) 
energy

>  <meeko>  (11) 
{"free_energy": -7.25, "intermolecular_energy": -7.84, "internal_energy": -0.56, "cluster_size": 19, "cluster_id": 1, "rank_in_cluster": 9}

>  <energy>  (11) 
-7.24

>  <cluster_rmsd>  (11) 
0.91

>  <rmsd>  (11) 
271.91

>  <cluster>  (11) 
1

$$$$
VOQKIUCZPHIEKY-MWDOZMLPNA-M
     RDKit          3D

 42 45  0  0  0  0  0  0  0  0999 V2000
  139.4600   75.4710  221.4720 O   0  0  0  0  0  0  0  0  0  0  0  0
  140.2650   74.3490  221.6130 C   0  0  0  0  0  0  0  0  0  0  0  0
  141.4290   74.2590  220.9240 N   0  0  0  0  0  0  0  0  0  0  0  0
  142.2240   73.1640  221.0570 C   0  0  0  0  0  0  0  0  0  0  0  0
  143.4610   73.0700  220.3220 N   0  0  0  0  0  0  0  0  0  0  0  0
  144.6530   73.7600  220.8330 C   0  0  0  0  0  0  0  0  0  0  0  0
  145.8560   73.5360  219.9140 C   0  0  0  0  0  0  0  0  0  0  0  0
  145.9540   72.1200  219.5450 N   0  0  0  0  0  0  0  0  0  0  0  0
  144.7950   71.6550  218.7570 C   0  0  0  0  0  0  0  0  0  0  0  0
  143.4990   72.4670  218.9810 C   0  0  0  0  0  0  0  0  0  0  0  0
  141.8360   72.1600  221.8880 N   0  0  0  0  0  0  0  0  0  0  0  0
  140.6690   72.2400  222.5820 C   0  0  0  0  0  0  0  0  0  0  0  0
  140.2670   71.1720  223.4660 N   0  0  0  0  0  0  0  0  0  0  0  0
  139.4460   70.0630  222.9520 C   0  0  0  0  0  0  0  0  0  0  0  0
  138.5000   69.5480  224.0310 C   0  0  0  0  0  0  0  0  0  0  0  0
  139.2730   69.1740  225.2600 C   0  0  0  0  0  0  0  0  0  0  0  0
  138.8500   68.1060  226.0670 C   0  0  0  0  0  0  0  0  0  0  0  0
  139.5540   67.7810  227.2280 C   0  0  0  0  0  0  0  0  0  0  0  0
  140.6750   68.5270  227.5990 C   0  0  0  0  0  0  0  0  0  0  0  0
  141.0920   69.6040  226.8100 C   0  0  0  0  0  0  0  0  0  0  0  0
  140.3990   69.9320  225.6340 C   0  0  0  0  0  0  0  0  0  0  0  0
  140.8390   71.1300  224.8250 C   0  0  0  0  0  0  0  0  0  0  0  0
  139.8870   73.3430  222.4390 N   0  0  0  0  0  0  0  0  0  0  0  0
  144.4447   74.8383  220.8956 H   0  0  0  0  0  0  0  0  0  0  0  0
  144.8924   73.3540  221.8269 H   0  0  0  0  0  0  0  0  0  0  0  0
  145.7355   74.1414  219.0035 H   0  0  0  0  0  0  0  0  0  0  0  0
  146.7730   73.8334  220.4438 H   0  0  0  0  0  0  0  0  0  0  0  0
  146.0160   71.5510  220.4220 H   0  0  0  0  0  0  0  0  0  0  0  0
  145.0582   71.7156  217.6907 H   0  0  0  0  0  0  0  0  0  0  0  0
  144.5821   70.6286  219.0904 H   0  0  0  0  0  0  0  0  0  0  0  0
  143.4450   73.2674  218.2284 H   0  0  0  0  0  0  0  0  0  0  0  0
  142.6439   71.7813  218.8885 H   0  0  0  0  0  0  0  0  0  0  0  0
  138.8562   70.4179  222.0940 H   0  0  0  0  0  0  0  0  0  0  0  0
  140.1117   69.2431  222.6444 H   0  0  0  0  0  0  0  0  0  0  0  0
  137.7738   70.3347  224.2836 H   0  0  0  0  0  0  0  0  0  0  0  0
  137.9735   68.6592  223.6531 H   0  0  0  0  0  0  0  0  0  0  0  0
  137.9610   67.5234  225.7837 H   0  0  0  0  0  0  0  0  0  0  0  0
  139.2254   66.9363  227.8513 H   0  0  0  0  0  0  0  0  0  0  0  0
  141.2303   68.2673  228.5123 H   0  0  0  0  0  0  0  0  0  0  0  0
  141.9676   70.1971  227.1126 H   0  0  0  0  0  0  0  0  0  0  0  0
  140.5318   72.0412  225.3591 H   0  0  0  0  0  0  0  0  0  0  0  0
  141.9307   71.0571  224.7115 H   0  0  0  0  0  0  0  0  0  0  0  0
  1  2  1  0
  2  3  2  0
  3  4  1  0
  4  5  1  0
  5  6  1  0
  6  7  1  0
  7  8  1  0
  8  9  1  0
  9 10  1  0
  4 11  2  0
 11 12  1  0
 12 13  1  0
 13 14  1  0
 14 15  1  0
 15 16  1  0
 16 17  2  0
 17 18  1  0
 18 19  2  0
 19 20  1  0
 20 21  2  0
 21 22  1  0
 12 23  2  0
 23  2  1  0
 10  5  1  0
 22 13  1  0
 21 16  1  0
  6 24  1  0
  6 25  1  0
  7 26  1  0
  7 27  1  0
  8 28  1  0
  9 29  1  0
  9 30  1  0
 10 31  1  0
 10 32  1  0
 14 33  1  0
 14 34  1  0
 15 35  1  0
 15 36  1  0
 17 37  1  0
 18 38  1  0
 19 39  1  0
 20 40  1  0
 22 41  1  0
 22 42  1  0
M  CHG  1   1  -1
M  END
>  <UniqueID>  (12) 
701

>  <SMILES>  (12) 
[O-]c1nc(N2CCNCC2)nc(N2CCc3ccccc3C2)n1

>  <Energy>  (12) 
46.535626236519555

>  <Genealogy>  (12) 
[O-]c1nc(N2CCNCC2)nc(N2CCc3ccccc3C2)n1 (protonated)
[O-]c1nc(N2CCNCC2)nc(N2CCc3ccccc3C2)n1 (3D coordinates assigned)
[O-]c1nc(N2CCNCC2)nc(N2CCc3ccccc3C2)n1 (nonaromatic ring conformer: 46.535626236519555 kcal/mol)

>  <smiles>  (12) 
Oc1nc(N2CCNCC2)nc(N2CCc3ccccc3C2)n1

>  <score_type>  (12) 
oracle

>  <origin>  (12) 
autodockgpu

>  <m_score__min__energy>  (12) 
-7.2599999999999998

>  <m_primary>  (12) 
energy

>  <meeko>  (12) 
{"free_energy": -7.25, "intermolecular_energy": -7.85, "internal_energy": -0.56, "cluster_size": 19, "cluster_id": 1, "rank_in_cluster": 6}

>  <energy>  (12) 
-7.24

>  <cluster_rmsd>  (12) 
0.92

>  <rmsd>  (12) 
271.91

>  <cluster>  (12) 
1

$$$$
VOQKIUCZPHIEKY-MWDOZMLPNA-M
     RDKit          3D

 42 45  0  0  0  0  0  0  0  0999 V2000
  139.7090   75.5870  221.5350 O   0  0  0  0  0  0  0  0  0  0  0  0
  140.4310   74.4020  221.5870 C   0  0  0  0  0  0  0  0  0  0  0  0
  141.5220   74.2370  220.7990 N   0  0  0  0  0  0  0  0  0  0  0  0
  142.2340   73.0800  220.8450 C   0  0  0  0  0  0  0  0  0  0  0  0
  143.3930   72.9070  220.0030 N   0  0  0  0  0  0  0  0  0  0  0  0
  143.5120   73.7040  218.7750 C   0  0  0  0  0  0  0  0  0  0  0  0
  144.8080   73.3740  218.0280 C   0  0  0  0  0  0  0  0  0  0  0  0
  145.9340   73.3330  218.9650 N   0  0  0  0  0  0  0  0  0  0  0  0
  145.8030   72.2590  219.9690 C   0  0  0  0  0  0  0  0  0  0  0  0
  144.3490   71.8160  220.2490 C   0  0  0  0  0  0  0  0  0  0  0  0
  141.8380   72.0900  221.6890 N   0  0  0  0  0  0  0  0  0  0  0  0
  140.7450   72.2460  222.4820 C   0  0  0  0  0  0  0  0  0  0  0  0
  140.3350   71.1920  223.3790 N   0  0  0  0  0  0  0  0  0  0  0  0
  139.5510   70.0550  222.8680 C   0  0  0  0  0  0  0  0  0  0  0  0
  138.5800   69.5480  223.9290 C   0  0  0  0  0  0  0  0  0  0  0  0
  139.3210   69.2190  225.1900 C   0  0  0  0  0  0  0  0  0  0  0  0
  138.8920   68.1630  226.0100 C   0  0  0  0  0  0  0  0  0  0  0  0
  139.5660   67.8800  227.2010 C   0  0  0  0  0  0  0  0  0  0  0  0
  140.6600   68.6560  227.5880 C   0  0  0  0  0  0  0  0  0  0  0  0
  141.0820   69.7210  226.7850 C   0  0  0  0  0  0  0  0  0  0  0  0
  140.4210   70.0080  225.5810 C   0  0  0  0  0  0  0  0  0  0  0  0
  140.8640   71.1940  224.7560 C   0  0  0  0  0  0  0  0  0  0  0  0
  140.0450   73.4100  222.4260 N   0  0  0  0  0  0  0  0  0  0  0  0
  142.6548   73.4866  218.1209 H   0  0  0  0  0  0  0  0  0  0  0  0
  143.5279   74.7691  219.0494 H   0  0  0  0  0  0  0  0  0  0  0  0
  144.7063   72.3941  217.5387 H   0  0  0  0  0  0  0  0  0  0  0  0
  144.9962   74.1520  217.2735 H   0  0  0  0  0  0  0  0  0  0  0  0
  145.9880   74.2550  219.4620 H   0  0  0  0  0  0  0  0  0  0  0  0
  146.3657   71.3841  219.6114 H   0  0  0  0  0  0  0  0  0  0  0  0
  146.1933   72.6652  220.9138 H   0  0  0  0  0  0  0  0  0  0  0  0
  144.1011   70.9693  219.5920 H   0  0  0  0  0  0  0  0  0  0  0  0
  144.2755   71.5266  221.3077 H   0  0  0  0  0  0  0  0  0  0  0  0
  138.9826   70.3773  221.9831 H   0  0  0  0  0  0  0  0  0  0  0  0
  140.2414   69.2406  222.6031 H   0  0  0  0  0  0  0  0  0  0  0  0
  137.8317   70.3264  224.1392 H   0  0  0  0  0  0  0  0  0  0  0  0
  138.0816   68.6407  223.5570 H   0  0  0  0  0  0  0  0  0  0  0  0
  138.0231   67.5569  225.7141 H   0  0  0  0  0  0  0  0  0  0  0  0
  139.2339   67.0444  227.8346 H   0  0  0  0  0  0  0  0  0  0  0  0
  141.1905   68.4300  228.5247 H   0  0  0  0  0  0  0  0  0  0  0  0
  141.9372   70.3372  227.0994 H   0  0  0  0  0  0  0  0  0  0  0  0
  140.5231   72.1119  225.2572 H   0  0  0  0  0  0  0  0  0  0  0  0
  141.9599   71.1390  224.6784 H   0  0  0  0  0  0  0  0  0  0  0  0
  1  2  1  0
  2  3  2  0
  3  4  1  0
  4  5  1  0
  5  6  1  0
  6  7  1  0
  7  8  1  0
  8  9  1  0
  9 10  1  0
  4 11  2  0
 11 12  1  0
 12 13  1  0
 13 14  1  0
 14 15  1  0
 15 16  1  0
 16 17  2  0
 17 18  1  0
 18 19  2  0
 19 20  1  0
 20 21  2  0
 21 22  1  0
 12 23  2  0
 23  2  1  0
 10  5  1  0
 22 13  1  0
 21 16  1  0
  6 24  1  0
  6 25  1  0
  7 26  1  0
  7 27  1  0
  8 28  1  0
  9 29  1  0
  9 30  1  0
 10 31  1  0
 10 32  1  0
 14 33  1  0
 14 34  1  0
 15 35  1  0
 15 36  1  0
 17 37  1  0
 18 38  1  0
 19 39  1  0
 20 40  1  0
 22 41  1  0
 22 42  1  0
M  CHG  1   1  -1
M  END
>  <UniqueID>  (13) 
701

>  <SMILES>  (13) 
[O-]c1nc(N2CCNCC2)nc(N2CCc3ccccc3C2)n1

>  <Energy>  (13) 
46.535626236519555

>  <Genealogy>  (13) 
[O-]c1nc(N2CCNCC2)nc(N2CCc3ccccc3C2)n1 (protonated)
[O-]c1nc(N2CCNCC2)nc(N2CCc3ccccc3C2)n1 (3D coordinates assigned)
[O-]c1nc(N2CCNCC2)nc(N2CCc3ccccc3C2)n1 (nonaromatic ring conformer: 46.535626236519555 kcal/mol)

>  <smiles>  (13) 
Oc1nc(N2CCNCC2)nc(N2CCc3ccccc3C2)n1

>  <score_type>  (13) 
oracle

>  <origin>  (13) 
autodockgpu

>  <m_score__min__energy>  (13) 
-7.2599999999999998

>  <m_primary>  (13) 
energy

>  <meeko>  (13) 
{"free_energy": -7.24, "intermolecular_energy": -7.84, "internal_energy": -0.57, "cluster_size": 19, "cluster_id": 1, "rank_in_cluster": 11}

>  <energy>  (13) 
-7.24

>  <cluster_rmsd>  (13) 
0.92

>  <rmsd>  (13) 
271.9

>  <cluster>  (13) 
1

$$$$
VOQKIUCZPHIEKY-MWDOZMLPNA-M
     RDKit          3D

 42 45  0  0  0  0  0  0  0  0999 V2000
  139.4570   75.4760  221.4420 O   0  0  0  0  0  0  0  0  0  0  0  0
  140.2630   74.3560  221.5930 C   0  0  0  0  0  0  0  0  0  0  0  0
  141.4320   74.2640  220.9120 N   0  0  0  0  0  0  0  0  0  0  0  0
  142.2270   73.1700  221.0550 C   0  0  0  0  0  0  0  0  0  0  0  0
  143.4690   73.0740  220.3270 N   0  0  0  0  0  0  0  0  0  0  0  0
  144.6600   73.7580  220.8490 C   0  0  0  0  0  0  0  0  0  0  0  0
  145.8680   73.5330  219.9370 C   0  0  0  0  0  0  0  0  0  0  0  0
  145.9630   72.1190  219.5630 N   0  0  0  0  0  0  0  0  0  0  0  0
  144.8070   71.6610  218.7660 C   0  0  0  0  0  0  0  0  0  0  0  0
  143.5130   72.4760  218.9840 C   0  0  0  0  0  0  0  0  0  0  0  0
  141.8350   72.1700  221.8880 N   0  0  0  0  0  0  0  0  0  0  0  0
  140.6640   72.2520  222.5750 C   0  0  0  0  0  0  0  0  0  0  0  0
  140.2580   71.1870  223.4620 N   0  0  0  0  0  0  0  0  0  0  0  0
  139.4100   70.0950  222.9580 C   0  0  0  0  0  0  0  0  0  0  0  0
  138.4730   69.5920  224.0500 C   0  0  0  0  0  0  0  0  0  0  0  0
  139.2600   69.2000  225.2650 C   0  0  0  0  0  0  0  0  0  0  0  0
  138.8320   68.1360  226.0750 C   0  0  0  0  0  0  0  0  0  0  0  0
  139.5500   67.7950  227.2230 C   0  0  0  0  0  0  0  0  0  0  0  0
  140.6890   68.5200  227.5780 C   0  0  0  0  0  0  0  0  0  0  0  0
  141.1120   69.5920  226.7860 C   0  0  0  0  0  0  0  0  0  0  0  0
  140.4050   69.9370  225.6230 C   0  0  0  0  0  0  0  0  0  0  0  0
  140.8520   71.1300  224.8110 C   0  0  0  0  0  0  0  0  0  0  0  0
  139.8820   73.3530  222.4220 N   0  0  0  0  0  0  0  0  0  0  0  0
  144.4551   74.8368  220.9144 H   0  0  0  0  0  0  0  0  0  0  0  0
  144.8912   73.3477  221.8431 H   0  0  0  0  0  0  0  0  0  0  0  0
  145.7558   74.1425  219.0282 H   0  0  0  0  0  0  0  0  0  0  0  0
  146.7826   73.8246  220.4740 H   0  0  0  0  0  0  0  0  0  0  0  0
  146.0170   71.5460  220.4390 H   0  0  0  0  0  0  0  0  0  0  0  0
  145.0773   71.7243  217.7016 H   0  0  0  0  0  0  0  0  0  0  0  0
  144.5883   70.6344  219.0950 H   0  0  0  0  0  0  0  0  0  0  0  0
  143.4665   73.2793  218.2339 H   0  0  0  0  0  0  0  0  0  0  0  0
  142.6559   71.7939  218.8831 H   0  0  0  0  0  0  0  0  0  0  0  0
  138.8125   70.4634  222.1111 H   0  0  0  0  0  0  0  0  0  0  0  0
  140.0564   69.2649  222.6369 H   0  0  0  0  0  0  0  0  0  0  0  0
  137.7646   70.3899  224.3174 H   0  0  0  0  0  0  0  0  0  0  0  0
  137.9251   68.7139  223.6775 H   0  0  0  0  0  0  0  0  0  0  0  0
  137.9287   67.5696  225.8045 H   0  0  0  0  0  0  0  0  0  0  0  0
  139.2176   66.9536  227.8488 H   0  0  0  0  0  0  0  0  0  0  0  0
  141.2542   68.2477  228.4816 H   0  0  0  0  0  0  0  0  0  0  0  0
  142.0033   70.1680  227.0756 H   0  0  0  0  0  0  0  0  0  0  0  0
  140.5697   72.0444  225.3534 H   0  0  0  0  0  0  0  0  0  0  0  0
  141.9402   71.0386  224.6788 H   0  0  0  0  0  0  0  0  0  0  0  0
  1  2  1  0
  2  3  2  0
  3  4  1  0
  4  5  1  0
  5  6  1  0
  6  7  1  0
  7  8  1  0
  8  9  1  0
  9 10  1  0
  4 11  2  0
 11 12  1  0
 12 13  1  0
 13 14  1  0
 14 15  1  0
 15 16  1  0
 16 17  2  0
 17 18  1  0
 18 19  2  0
 19 20  1  0
 20 21  2  0
 21 22  1  0
 12 23  2  0
 23  2  1  0
 10  5  1  0
 22 13  1  0
 21 16  1  0
  6 24  1  0
  6 25  1  0
  7 26  1  0
  7 27  1  0
  8 28  1  0
  9 29  1  0
  9 30  1  0
 10 31  1  0
 10 32  1  0
 14 33  1  0
 14 34  1  0
 15 35  1  0
 15 36  1  0
 17 37  1  0
 18 38  1  0
 19 39  1  0
 20 40  1  0
 22 41  1  0
 22 42  1  0
M  CHG  1   1  -1
M  END
>  <UniqueID>  (14) 
701

>  <SMILES>  (14) 
[O-]c1nc(N2CCNCC2)nc(N2CCc3ccccc3C2)n1

>  <Energy>  (14) 
46.535626236519555

>  <Genealogy>  (14) 
[O-]c1nc(N2CCNCC2)nc(N2CCc3ccccc3C2)n1 (protonated)
[O-]c1nc(N2CCNCC2)nc(N2CCc3ccccc3C2)n1 (3D coordinates assigned)
[O-]c1nc(N2CCNCC2)nc(N2CCc3ccccc3C2)n1 (nonaromatic ring conformer: 46.535626236519555 kcal/mol)

>  <smiles>  (14) 
Oc1nc(N2CCNCC2)nc(N2CCc3ccccc3C2)n1

>  <score_type>  (14) 
oracle

>  <origin>  (14) 
autodockgpu

>  <m_score__min__energy>  (14) 
-7.2599999999999998

>  <m_primary>  (14) 
energy

>  <meeko>  (14) 
{"free_energy": -7.26, "intermolecular_energy": -7.85, "internal_energy": -0.56, "cluster_size": 19, "cluster_id": 1, "rank_in_cluster": 2}

>  <energy>  (14) 
-7.24

>  <cluster_rmsd>  (14) 
0.91

>  <rmsd>  (14) 
271.86

>  <cluster>  (14) 
1

$$$$
VOQKIUCZPHIEKY-MWDOZMLPNA-M
     RDKit          3D

 42 45  0  0  0  0  0  0  0  0999 V2000
  139.4500   75.4710  221.4530 O   0  0  0  0  0  0  0  0  0  0  0  0
  140.2570   74.3520  221.6030 C   0  0  0  0  0  0  0  0  0  0  0  0
  141.4240   74.2600  220.9190 N   0  0  0  0  0  0  0  0  0  0  0  0
  142.2200   73.1680  221.0610 C   0  0  0  0  0  0  0  0  0  0  0  0
  143.4600   73.0730  220.3300 N   0  0  0  0  0  0  0  0  0  0  0  0
  144.6500   73.7660  220.8420 C   0  0  0  0  0  0  0  0  0  0  0  0
  145.8560   73.5400  219.9280 C   0  0  0  0  0  0  0  0  0  0  0  0
  145.9560   72.1230  219.5640 N   0  0  0  0  0  0  0  0  0  0  0  0
  144.8010   71.6540  218.7750 C   0  0  0  0  0  0  0  0  0  0  0  0
  143.5030   72.4640  218.9910 C   0  0  0  0  0  0  0  0  0  0  0  0
  141.8320   72.1680  221.8960 N   0  0  0  0  0  0  0  0  0  0  0  0
  140.6630   72.2490  222.5860 C   0  0  0  0  0  0  0  0  0  0  0  0
  140.2610   71.1860  223.4750 N   0  0  0  0  0  0  0  0  0  0  0  0
  139.4360   70.0760  222.9670 C   0  0  0  0  0  0  0  0  0  0  0  0
  138.4910   69.5670  224.0500 C   0  0  0  0  0  0  0  0  0  0  0  0
  139.2660   69.1960  225.2790 C   0  0  0  0  0  0  0  0  0  0  0  0
  138.8430   68.1320  226.0910 C   0  0  0  0  0  0  0  0  0  0  0  0
  139.5500   67.8110  227.2520 C   0  0  0  0  0  0  0  0  0  0  0  0
  140.6730   68.5560  227.6170 C   0  0  0  0  0  0  0  0  0  0  0  0
  141.0900   69.6280  226.8230 C   0  0  0  0  0  0  0  0  0  0  0  0
  140.3950   69.9540  225.6480 C   0  0  0  0  0  0  0  0  0  0  0  0
  140.8360   71.1480  224.8330 C   0  0  0  0  0  0  0  0  0  0  0  0
  139.8790   73.3490  222.4340 N   0  0  0  0  0  0  0  0  0  0  0  0
  144.4404   74.8443  220.9000 H   0  0  0  0  0  0  0  0  0  0  0  0
  144.8867   73.3636  221.8380 H   0  0  0  0  0  0  0  0  0  0  0  0
  145.7382   74.1424  219.0152 H   0  0  0  0  0  0  0  0  0  0  0  0
  146.7710   73.8398  220.4598 H   0  0  0  0  0  0  0  0  0  0  0  0
  146.0170   71.5580  220.4450 H   0  0  0  0  0  0  0  0  0  0  0  0
  145.0676   71.7109  217.7093 H   0  0  0  0  0  0  0  0  0  0  0  0
  144.5885   70.6288  219.1124 H   0  0  0  0  0  0  0  0  0  0  0  0
  143.4497   73.2609  218.2347 H   0  0  0  0  0  0  0  0  0  0  0  0
  142.6494   71.7764  218.8986 H   0  0  0  0  0  0  0  0  0  0  0  0
  138.8451   70.4287  222.1088 H   0  0  0  0  0  0  0  0  0  0  0  0
  140.0994   69.2535  222.6615 H   0  0  0  0  0  0  0  0  0  0  0  0
  137.7670   70.3562  224.3011 H   0  0  0  0  0  0  0  0  0  0  0  0
  137.9618   68.6779  223.6766 H   0  0  0  0  0  0  0  0  0  0  0  0
  137.9525   67.5496  225.8123 H   0  0  0  0  0  0  0  0  0  0  0  0
  139.2215   66.9697  227.8799 H   0  0  0  0  0  0  0  0  0  0  0  0
  141.2300   68.2991  228.5301 H   0  0  0  0  0  0  0  0  0  0  0  0
  141.9682   70.2197  227.1208 H   0  0  0  0  0  0  0  0  0  0  0  0
  140.5321   72.0620  225.3642 H   0  0  0  0  0  0  0  0  0  0  0  0
  141.9273   71.0720  224.7173 H   0  0  0  0  0  0  0  0  0  0  0  0
  1  2  1  0
  2  3  2  0
  3  4  1  0
  4  5  1  0
  5  6  1  0
  6  7  1  0
  7  8  1  0
  8  9  1  0
  9 10  1  0
  4 11  2  0
 11 12  1  0
 12 13  1  0
 13 14  1  0
 14 15  1  0
 15 16  1  0
 16 17  2  0
 17 18  1  0
 18 19  2  0
 19 20  1  0
 20 21  2  0
 21 22  1  0
 12 23  2  0
 23  2  1  0
 10  5  1  0
 22 13  1  0
 21 16  1  0
  6 24  1  0
  6 25  1  0
  7 26  1  0
  7 27  1  0
  8 28  1  0
  9 29  1  0
  9 30  1  0
 10 31  1  0
 10 32  1  0
 14 33  1  0
 14 34  1  0
 15 35  1  0
 15 36  1  0
 17 37  1  0
 18 38  1  0
 19 39  1  0
 20 40  1  0
 22 41  1  0
 22 42  1  0
M  CHG  1   1  -1
M  END
>  <UniqueID>  (15) 
701

>  <SMILES>  (15) 
[O-]c1nc(N2CCNCC2)nc(N2CCc3ccccc3C2)n1

>  <Energy>  (15) 
46.535626236519555

>  <Genealogy>  (15) 
[O-]c1nc(N2CCNCC2)nc(N2CCc3ccccc3C2)n1 (protonated)
[O-]c1nc(N2CCNCC2)nc(N2CCc3ccccc3C2)n1 (3D coordinates assigned)
[O-]c1nc(N2CCNCC2)nc(N2CCc3ccccc3C2)n1 (nonaromatic ring conformer: 46.535626236519555 kcal/mol)

>  <smiles>  (15) 
Oc1nc(N2CCNCC2)nc(N2CCc3ccccc3C2)n1

>  <score_type>  (15) 
oracle

>  <origin>  (15) 
autodockgpu

>  <m_score__min__energy>  (15) 
-7.2599999999999998

>  <m_primary>  (15) 
energy

>  <meeko>  (15) 
{"free_energy": -7.26, "intermolecular_energy": -7.85, "internal_energy": -0.56, "cluster_size": 19, "cluster_id": 1, "rank_in_cluster": 3}

>  <energy>  (15) 
-7.24

>  <cluster_rmsd>  (15) 
0.91

>  <rmsd>  (15) 
271.86

>  <cluster>  (15) 
1

$$$$
VOQKIUCZPHIEKY-MWDOZMLPNA-M
     RDKit          3D

 42 45  0  0  0  0  0  0  0  0999 V2000
  139.7500   75.5900  221.5120 O   0  0  0  0  0  0  0  0  0  0  0  0
  140.4610   74.3980  221.5500 C   0  0  0  0  0  0  0  0  0  0  0  0
  141.5430   74.2290  220.7520 N   0  0  0  0  0  0  0  0  0  0  0  0
  142.2450   73.0650  220.7830 C   0  0  0  0  0  0  0  0  0  0  0  0
  143.3960   72.8870  219.9310 N   0  0  0  0  0  0  0  0  0  0  0  0
  143.5420   73.7320  218.7380 C   0  0  0  0  0  0  0  0  0  0  0  0
  144.8230   73.3900  217.9740 C   0  0  0  0  0  0  0  0  0  0  0  0
  145.9490   73.2670  218.9050 N   0  0  0  0  0  0  0  0  0  0  0  0
  145.7810   72.1550  219.8610 C   0  0  0  0  0  0  0  0  0  0  0  0
  144.3120   71.7540  220.1260 C   0  0  0  0  0  0  0  0  0  0  0  0
  141.8470   72.0730  221.6220 N   0  0  0  0  0  0  0  0  0  0  0  0
  140.7620   72.2320  222.4260 C   0  0  0  0  0  0  0  0  0  0  0  0
  140.3490   71.1750  223.3180 N   0  0  0  0  0  0  0  0  0  0  0  0
  139.5650   70.0410  222.8010 C   0  0  0  0  0  0  0  0  0  0  0  0
  138.5920   69.5310  223.8590 C   0  0  0  0  0  0  0  0  0  0  0  0
  139.3300   69.1960  225.1200 C   0  0  0  0  0  0  0  0  0  0  0  0
  138.8980   68.1380  225.9350 C   0  0  0  0  0  0  0  0  0  0  0  0
  139.5690   67.8500  227.1260 C   0  0  0  0  0  0  0  0  0  0  0  0
  140.6630   68.6240  227.5180 C   0  0  0  0  0  0  0  0  0  0  0  0
  141.0880   69.6910  226.7200 C   0  0  0  0  0  0  0  0  0  0  0  0
  140.4290   69.9830  225.5160 C   0  0  0  0  0  0  0  0  0  0  0  0
  140.8760   71.1720  224.6960 C   0  0  0  0  0  0  0  0  0  0  0  0
  140.0720   73.4030  222.3840 N   0  0  0  0  0  0  0  0  0  0  0  0
  142.6767   73.5737  218.0776 H   0  0  0  0  0  0  0  0  0  0  0  0
  143.5965   74.7828  219.0587 H   0  0  0  0  0  0  0  0  0  0  0  0
  144.6855   72.4372  217.4418 H   0  0  0  0  0  0  0  0  0  0  0  0
  145.0378   74.1938  217.2544 H   0  0  0  0  0  0  0  0  0  0  0  0
  146.0370   74.1640  219.4410 H   0  0  0  0  0  0  0  0  0  0  0  0
  146.3104   71.2768  219.4630 H   0  0  0  0  0  0  0  0  0  0  0  0
  146.1882   72.5039  220.8214 H   0  0  0  0  0  0  0  0  0  0  0  0
  144.0324   70.9462  219.4337 H   0  0  0  0  0  0  0  0  0  0  0  0
  144.2301   71.4226  221.1717 H   0  0  0  0  0  0  0  0  0  0  0  0
  138.9982   70.3673  221.9166 H   0  0  0  0  0  0  0  0  0  0  0  0
  140.2548   69.2270  222.5334 H   0  0  0  0  0  0  0  0  0  0  0  0
  137.8444   70.3096  224.0710 H   0  0  0  0  0  0  0  0  0  0  0  0
  138.0935   68.6255  223.4826 H   0  0  0  0  0  0  0  0  0  0  0  0
  138.0289   67.5341  225.6351 H   0  0  0  0  0  0  0  0  0  0  0  0
  139.2350   67.0123  227.7558 H   0  0  0  0  0  0  0  0  0  0  0  0
  141.1910   68.3943  228.4553 H   0  0  0  0  0  0  0  0  0  0  0  0
  141.9437   70.3048  227.0379 H   0  0  0  0  0  0  0  0  0  0  0  0
  140.5357   72.0887  225.1998 H   0  0  0  0  0  0  0  0  0  0  0  0
  141.9720   71.1161  224.6205 H   0  0  0  0  0  0  0  0  0  0  0  0
  1  2  1  0
  2  3  2  0
  3  4  1  0
  4  5  1  0
  5  6  1  0
  6  7  1  0
  7  8  1  0
  8  9  1  0
  9 10  1  0
  4 11  2  0
 11 12  1  0
 12 13  1  0
 13 14  1  0
 14 15  1  0
 15 16  1  0
 16 17  2  0
 17 18  1  0
 18 19  2  0
 19 20  1  0
 20 21  2  0
 21 22  1  0
 12 23  2  0
 23  2  1  0
 10  5  1  0
 22 13  1  0
 21 16  1  0
  6 24  1  0
  6 25  1  0
  7 26  1  0
  7 27  1  0
  8 28  1  0
  9 29  1  0
  9 30  1  0
 10 31  1  0
 10 32  1  0
 14 33  1  0
 14 34  1  0
 15 35  1  0
 15 36  1  0
 17 37  1  0
 18 38  1  0
 19 39  1  0
 20 40  1  0
 22 41  1  0
 22 42  1  0
M  CHG  1   1  -1
M  END
>  <UniqueID>  (16) 
701

>  <SMILES>  (16) 
[O-]c1nc(N2CCNCC2)nc(N2CCc3ccccc3C2)n1

>  <Energy>  (16) 
46.535626236519555

>  <Genealogy>  (16) 
[O-]c1nc(N2CCNCC2)nc(N2CCc3ccccc3C2)n1 (protonated)
[O-]c1nc(N2CCNCC2)nc(N2CCc3ccccc3C2)n1 (3D coordinates assigned)
[O-]c1nc(N2CCNCC2)nc(N2CCc3ccccc3C2)n1 (nonaromatic ring conformer: 46.535626236519555 kcal/mol)

>  <smiles>  (16) 
Oc1nc(N2CCNCC2)nc(N2CCc3ccccc3C2)n1

>  <score_type>  (16) 
oracle

>  <origin>  (16) 
autodockgpu

>  <m_score__min__energy>  (16) 
-7.2599999999999998

>  <m_primary>  (16) 
energy

>  <meeko>  (16) 
{"free_energy": -7.24, "intermolecular_energy": -7.83, "internal_energy": -0.57, "cluster_size": 19, "cluster_id": 1, "rank_in_cluster": 14}

>  <energy>  (16) 
-7.23

>  <cluster_rmsd>  (16) 
0.91

>  <rmsd>  (16) 
271.89

>  <cluster>  (16) 
1

$$$$
VOQKIUCZPHIEKY-MWDOZMLPNA-M
     RDKit          3D

 42 45  0  0  0  0  0  0  0  0999 V2000
  139.7570   75.5810  221.5350 O   0  0  0  0  0  0  0  0  0  0  0  0
  140.4660   74.3880  221.5690 C   0  0  0  0  0  0  0  0  0  0  0  0
  141.5460   74.2190  220.7680 N   0  0  0  0  0  0  0  0  0  0  0  0
  142.2470   73.0540  220.7950 C   0  0  0  0  0  0  0  0  0  0  0  0
  143.3950   72.8760  219.9400 N   0  0  0  0  0  0  0  0  0  0  0  0
  143.5440   73.7300  218.7530 C   0  0  0  0  0  0  0  0  0  0  0  0
  144.8230   73.3860  217.9850 C   0  0  0  0  0  0  0  0  0  0  0  0
  145.9490   73.2500  218.9130 N   0  0  0  0  0  0  0  0  0  0  0  0
  145.7760   72.1320  219.8610 C   0  0  0  0  0  0  0  0  0  0  0  0
  144.3050   71.7360  220.1260 C   0  0  0  0  0  0  0  0  0  0  0  0
  141.8490   72.0610  221.6330 N   0  0  0  0  0  0  0  0  0  0  0  0
  140.7650   72.2200  222.4400 C   0  0  0  0  0  0  0  0  0  0  0  0
  140.3530   71.1620  223.3310 N   0  0  0  0  0  0  0  0  0  0  0  0
  139.5770   70.0240  222.8110 C   0  0  0  0  0  0  0  0  0  0  0  0
  138.6010   69.5100  223.8630 C   0  0  0  0  0  0  0  0  0  0  0  0
  139.3340   69.1800  225.1290 C   0  0  0  0  0  0  0  0  0  0  0  0
  138.9030   68.1200  225.9430 C   0  0  0  0  0  0  0  0  0  0  0  0
  139.5690   67.8360  227.1370 C   0  0  0  0  0  0  0  0  0  0  0  0
  140.6580   68.6150  227.5340 C   0  0  0  0  0  0  0  0  0  0  0  0
  141.0820   69.6840  226.7380 C   0  0  0  0  0  0  0  0  0  0  0  0
  140.4270   69.9720  225.5290 C   0  0  0  0  0  0  0  0  0  0  0  0
  140.8730   71.1620  224.7120 C   0  0  0  0  0  0  0  0  0  0  0  0
  140.0770   73.3920  222.4020 N   0  0  0  0  0  0  0  0  0  0  0  0
  142.6771   73.5817  218.0923 H   0  0  0  0  0  0  0  0  0  0  0  0
  143.6043   74.7781  219.0814 H   0  0  0  0  0  0  0  0  0  0  0  0
  144.6795   72.4378  217.4463 H   0  0  0  0  0  0  0  0  0  0  0  0
  145.0415   74.1939  217.2712 H   0  0  0  0  0  0  0  0  0  0  0  0
  146.0420   74.1420  219.4560 H   0  0  0  0  0  0  0  0  0  0  0  0
  146.3002   71.2540  219.4557 H   0  0  0  0  0  0  0  0  0  0  0  0
  146.1860   72.4724  220.8233 H   0  0  0  0  0  0  0  0  0  0  0  0
  144.0200   70.9344  219.4287 H   0  0  0  0  0  0  0  0  0  0  0  0
  144.2228   71.3971  221.1693 H   0  0  0  0  0  0  0  0  0  0  0  0
  139.0135   70.3471  221.9232 H   0  0  0  0  0  0  0  0  0  0  0  0
  140.2723   69.2131  222.5483 H   0  0  0  0  0  0  0  0  0  0  0  0
  137.8480   70.2847  224.0700 H   0  0  0  0  0  0  0  0  0  0  0  0
  138.1094   68.6016  223.4846 H   0  0  0  0  0  0  0  0  0  0  0  0
  138.0383   67.5117  225.6392 H   0  0  0  0  0  0  0  0  0  0  0  0
  139.2354   66.9974  227.7658 H   0  0  0  0  0  0  0  0  0  0  0  0
  141.1828   68.3876  228.4736 H   0  0  0  0  0  0  0  0  0  0  0  0
  141.9327   70.3024  227.0603 H   0  0  0  0  0  0  0  0  0  0  0  0
  140.5260   72.0774  225.2137 H   0  0  0  0  0  0  0  0  0  0  0  0
  141.9696   71.1113  224.6425 H   0  0  0  0  0  0  0  0  0  0  0  0
  1  2  1  0
  2  3  2  0
  3  4  1  0
  4  5  1  0
  5  6  1  0
  6  7  1  0
  7  8  1  0
  8  9  1  0
  9 10  1  0
  4 11  2  0
 11 12  1  0
 12 13  1  0
 13 14  1  0
 14 15  1  0
 15 16  1  0
 16 17  2  0
 17 18  1  0
 18 19  2  0
 19 20  1  0
 20 21  2  0
 21 22  1  0
 12 23  2  0
 23  2  1  0
 10  5  1  0
 22 13  1  0
 21 16  1  0
  6 24  1  0
  6 25  1  0
  7 26  1  0
  7 27  1  0
  8 28  1  0
  9 29  1  0
  9 30  1  0
 10 31  1  0
 10 32  1  0
 14 33  1  0
 14 34  1  0
 15 35  1  0
 15 36  1  0
 17 37  1  0
 18 38  1  0
 19 39  1  0
 20 40  1  0
 22 41  1  0
 22 42  1  0
M  CHG  1   1  -1
M  END
>  <UniqueID>  (17) 
701

>  <SMILES>  (17) 
[O-]c1nc(N2CCNCC2)nc(N2CCc3ccccc3C2)n1

>  <Energy>  (17) 
46.535626236519555

>  <Genealogy>  (17) 
[O-]c1nc(N2CCNCC2)nc(N2CCc3ccccc3C2)n1 (protonated)
[O-]c1nc(N2CCNCC2)nc(N2CCc3ccccc3C2)n1 (3D coordinates assigned)
[O-]c1nc(N2CCNCC2)nc(N2CCc3ccccc3C2)n1 (nonaromatic ring conformer: 46.535626236519555 kcal/mol)

>  <smiles>  (17) 
Oc1nc(N2CCNCC2)nc(N2CCc3ccccc3C2)n1

>  <score_type>  (17) 
oracle

>  <origin>  (17) 
autodockgpu

>  <m_score__min__energy>  (17) 
-7.2599999999999998

>  <m_primary>  (17) 
energy

>  <meeko>  (17) 
{"free_energy": -7.24, "intermolecular_energy": -7.83, "internal_energy": -0.57, "cluster_size": 19, "cluster_id": 1, "rank_in_cluster": 15}

>  <energy>  (17) 
-7.23

>  <cluster_rmsd>  (17) 
0.9

>  <rmsd>  (17) 
271.88

>  <cluster>  (17) 
1

$$$$
VOQKIUCZPHIEKY-MWDOZMLPNA-M
     RDKit          3D

 42 45  0  0  0  0  0  0  0  0999 V2000
  139.4500   75.4460  221.4420 O   0  0  0  0  0  0  0  0  0  0  0  0
  140.2570   74.3280  221.5970 C   0  0  0  0  0  0  0  0  0  0  0  0
  141.4250   74.2340  220.9150 N   0  0  0  0  0  0  0  0  0  0  0  0
  142.2220   73.1420  221.0610 C   0  0  0  0  0  0  0  0  0  0  0  0
  143.4630   73.0450  220.3330 N   0  0  0  0  0  0  0  0  0  0  0  0
  144.6510   73.7400  220.8460 C   0  0  0  0  0  0  0  0  0  0  0  0
  145.8600   73.5110  219.9340 C   0  0  0  0  0  0  0  0  0  0  0  0
  145.9610   72.0930  219.5750 N   0  0  0  0  0  0  0  0  0  0  0  0
  144.8070   71.6210  218.7850 C   0  0  0  0  0  0  0  0  0  0  0  0
  143.5080   72.4320  218.9960 C   0  0  0  0  0  0  0  0  0  0  0  0
  141.8310   72.1440  221.8980 N   0  0  0  0  0  0  0  0  0  0  0  0
  140.6610   72.2280  222.5860 C   0  0  0  0  0  0  0  0  0  0  0  0
  140.2570   71.1660  223.4770 N   0  0  0  0  0  0  0  0  0  0  0  0
  139.4350   70.0550  222.9710 C   0  0  0  0  0  0  0  0  0  0  0  0
  138.4870   69.5490  224.0530 C   0  0  0  0  0  0  0  0  0  0  0  0
  139.2590   69.1820  225.2840 C   0  0  0  0  0  0  0  0  0  0  0  0
  138.8340   68.1200  226.0990 C   0  0  0  0  0  0  0  0  0  0  0  0
  139.5380   67.8030  227.2620 C   0  0  0  0  0  0  0  0  0  0  0  0
  140.6600   68.5490  227.6280 C   0  0  0  0  0  0  0  0  0  0  0  0
  141.0790   69.6190  226.8320 C   0  0  0  0  0  0  0  0  0  0  0  0
  140.3860   69.9410  225.6540 C   0  0  0  0  0  0  0  0  0  0  0  0
  140.8290   71.1330  224.8370 C   0  0  0  0  0  0  0  0  0  0  0  0
  139.8780   73.3270  222.4290 N   0  0  0  0  0  0  0  0  0  0  0  0
  144.4410   74.8184  220.9003 H   0  0  0  0  0  0  0  0  0  0  0  0
  144.8855   73.3413  221.8440 H   0  0  0  0  0  0  0  0  0  0  0  0
  145.7437   74.1103  219.0189 H   0  0  0  0  0  0  0  0  0  0  0  0
  146.7740   73.8128  220.4665 H   0  0  0  0  0  0  0  0  0  0  0  0
  146.0190   71.5310  220.4570 H   0  0  0  0  0  0  0  0  0  0  0  0
  145.0756   71.6744  217.7196 H   0  0  0  0  0  0  0  0  0  0  0  0
  144.5940   70.5969  219.1254 H   0  0  0  0  0  0  0  0  0  0  0  0
  143.4560   73.2266  218.2371 H   0  0  0  0  0  0  0  0  0  0  0  0
  142.6544   71.7443  218.9040 H   0  0  0  0  0  0  0  0  0  0  0  0
  138.8464   70.4044  222.1099 H   0  0  0  0  0  0  0  0  0  0  0  0
  140.0998   69.2318  222.6703 H   0  0  0  0  0  0  0  0  0  0  0  0
  137.7623   70.3388  224.3001 H   0  0  0  0  0  0  0  0  0  0  0  0
  137.9585   68.6589  223.6809 H   0  0  0  0  0  0  0  0  0  0  0  0
  137.9441   67.5366  225.8201 H   0  0  0  0  0  0  0  0  0  0  0  0
  139.2080   66.9635  227.8915 H   0  0  0  0  0  0  0  0  0  0  0  0
  141.2146   68.2946  228.5433 H   0  0  0  0  0  0  0  0  0  0  0  0
  141.9563   70.2119  227.1301 H   0  0  0  0  0  0  0  0  0  0  0  0
  140.5232   72.0485  225.3646 H   0  0  0  0  0  0  0  0  0  0  0  0
  141.9207   71.0578  224.7247 H   0  0  0  0  0  0  0  0  0  0  0  0
  1  2  1  0
  2  3  2  0
  3  4  1  0
  4  5  1  0
  5  6  1  0
  6  7  1  0
  7  8  1  0
  8  9  1  0
  9 10  1  0
  4 11  2  0
 11 12  1  0
 12 13  1  0
 13 14  1  0
 14 15  1  0
 15 16  1  0
 16 17  2  0
 17 18  1  0
 18 19  2  0
 19 20  1  0
 20 21  2  0
 21 22  1  0
 12 23  2  0
 23  2  1  0
 10  5  1  0
 22 13  1  0
 21 16  1  0
  6 24  1  0
  6 25  1  0
  7 26  1  0
  7 27  1  0
  8 28  1  0
  9 29  1  0
  9 30  1  0
 10 31  1  0
 10 32  1  0
 14 33  1  0
 14 34  1  0
 15 35  1  0
 15 36  1  0
 17 37  1  0
 18 38  1  0
 19 39  1  0
 20 40  1  0
 22 41  1  0
 22 42  1  0
M  CHG  1   1  -1
M  END
>  <UniqueID>  (18) 
701

>  <SMILES>  (18) 
[O-]c1nc(N2CCNCC2)nc(N2CCc3ccccc3C2)n1

>  <Energy>  (18) 
46.535626236519555

>  <Genealogy>  (18) 
[O-]c1nc(N2CCNCC2)nc(N2CCc3ccccc3C2)n1 (protonated)
[O-]c1nc(N2CCNCC2)nc(N2CCc3ccccc3C2)n1 (3D coordinates assigned)
[O-]c1nc(N2CCNCC2)nc(N2CCc3ccccc3C2)n1 (nonaromatic ring conformer: 46.535626236519555 kcal/mol)

>  <smiles>  (18) 
Oc1nc(N2CCNCC2)nc(N2CCc3ccccc3C2)n1

>  <score_type>  (18) 
oracle

>  <origin>  (18) 
autodockgpu

>  <m_score__min__energy>  (18) 
-7.2599999999999998

>  <m_primary>  (18) 
energy

>  <meeko>  (18) 
{"free_energy": -7.26, "intermolecular_energy": -7.85, "internal_energy": -0.56, "cluster_size": 19, "cluster_id": 1, "rank_in_cluster": 1}

>  <energy>  (18) 
-7.23

>  <cluster_rmsd>  (18) 
0.92

>  <rmsd>  (18) 
271.87

>  <cluster>  (18) 
1

$$$$
VOQKIUCZPHIEKY-MWDOZMLPNA-M
     RDKit          3D

 42 45  0  0  0  0  0  0  0  0999 V2000
  139.4490   75.4650  221.4500 O   0  0  0  0  0  0  0  0  0  0  0  0
  140.2570   74.3460  221.6000 C   0  0  0  0  0  0  0  0  0  0  0  0
  141.4210   74.2530  220.9120 N   0  0  0  0  0  0  0  0  0  0  0  0
  142.2180   73.1600  221.0530 C   0  0  0  0  0  0  0  0  0  0  0  0
  143.4550   73.0640  220.3190 N   0  0  0  0  0  0  0  0  0  0  0  0
  144.6460   73.7610  220.8250 C   0  0  0  0  0  0  0  0  0  0  0  0
  145.8500   73.5320  219.9080 C   0  0  0  0  0  0  0  0  0  0  0  0
  145.9500   72.1140  219.5500 N   0  0  0  0  0  0  0  0  0  0  0  0
  144.7930   71.6400  218.7660 C   0  0  0  0  0  0  0  0  0  0  0  0
  143.4950   72.4500  218.9830 C   0  0  0  0  0  0  0  0  0  0  0  0
  141.8310   72.1620  221.8910 N   0  0  0  0  0  0  0  0  0  0  0  0
  140.6640   72.2450  222.5840 C   0  0  0  0  0  0  0  0  0  0  0  0
  140.2640   71.1830  223.4760 N   0  0  0  0  0  0  0  0  0  0  0  0
  139.4520   70.0650  222.9690 C   0  0  0  0  0  0  0  0  0  0  0  0
  138.5030   69.5530  224.0480 C   0  0  0  0  0  0  0  0  0  0  0  0
  139.2730   69.1950  225.2830 C   0  0  0  0  0  0  0  0  0  0  0  0
  138.8520   68.1320  226.0980 C   0  0  0  0  0  0  0  0  0  0  0  0
  139.5530   67.8230  227.2660 C   0  0  0  0  0  0  0  0  0  0  0  0
  140.6670   68.5790  227.6360 C   0  0  0  0  0  0  0  0  0  0  0  0
  141.0820   69.6500  226.8380 C   0  0  0  0  0  0  0  0  0  0  0  0
  140.3920   69.9640  225.6560 C   0  0  0  0  0  0  0  0  0  0  0  0
  140.8300   71.1570  224.8380 C   0  0  0  0  0  0  0  0  0  0  0  0
  139.8800   73.3450  222.4330 N   0  0  0  0  0  0  0  0  0  0  0  0
  144.4354   74.8393  220.8788 H   0  0  0  0  0  0  0  0  0  0  0  0
  144.8859   73.3636  221.8222 H   0  0  0  0  0  0  0  0  0  0  0  0
  145.7290   74.1303  218.9929 H   0  0  0  0  0  0  0  0  0  0  0  0
  146.7664   73.8349  220.4357 H   0  0  0  0  0  0  0  0  0  0  0  0
  146.0140   71.5520  220.4320 H   0  0  0  0  0  0  0  0  0  0  0  0
  145.0563   71.6927  217.6993 H   0  0  0  0  0  0  0  0  0  0  0  0
  144.5827   70.6158  219.1078 H   0  0  0  0  0  0  0  0  0  0  0  0
  143.4389   73.2440  218.2237 H   0  0  0  0  0  0  0  0  0  0  0  0
  142.6418   71.7611  218.8960 H   0  0  0  0  0  0  0  0  0  0  0  0
  138.8642   70.4087  222.1051 H   0  0  0  0  0  0  0  0  0  0  0  0
  140.1243   69.2463  222.6728 H   0  0  0  0  0  0  0  0  0  0  0  0
  137.7706   70.3371  224.2903 H   0  0  0  0  0  0  0  0  0  0  0  0
  137.9834   68.6579  223.6754 H   0  0  0  0  0  0  0  0  0  0  0  0
  137.9680   67.5412  225.8160 H   0  0  0  0  0  0  0  0  0  0  0  0
  139.2266   66.9822  227.8957 H   0  0  0  0  0  0  0  0  0  0  0  0
  141.2184   68.3322  228.5553 H   0  0  0  0  0  0  0  0  0  0  0  0
  141.9539   70.2498  227.1380 H   0  0  0  0  0  0  0  0  0  0  0  0
  140.5156   72.0716  225.3621 H   0  0  0  0  0  0  0  0  0  0  0  0
  141.9226   71.0890  224.7305 H   0  0  0  0  0  0  0  0  0  0  0  0
  1  2  1  0
  2  3  2  0
  3  4  1  0
  4  5  1  0
  5  6  1  0
  6  7  1  0
  7  8  1  0
  8  9  1  0
  9 10  1  0
  4 11  2  0
 11 12  1  0
 12 13  1  0
 13 14  1  0
 14 15  1  0
 15 16  1  0
 16 17  2  0
 17 18  1  0
 18 19  2  0
 19 20  1  0
 20 21  2  0
 21 22  1  0
 12 23  2  0
 23  2  1  0
 10  5  1  0
 22 13  1  0
 21 16  1  0
  6 24  1  0
  6 25  1  0
  7 26  1  0
  7 27  1  0
  8 28  1  0
  9 29  1  0
  9 30  1  0
 10 31  1  0
 10 32  1  0
 14 33  1  0
 14 34  1  0
 15 35  1  0
 15 36  1  0
 17 37  1  0
 18 38  1  0
 19 39  1  0
 20 40  1  0
 22 41  1  0
 22 42  1  0
M  CHG  1   1  -1
M  END
>  <UniqueID>  (19) 
701

>  <SMILES>  (19) 
[O-]c1nc(N2CCNCC2)nc(N2CCc3ccccc3C2)n1

>  <Energy>  (19) 
46.535626236519555

>  <Genealogy>  (19) 
[O-]c1nc(N2CCNCC2)nc(N2CCc3ccccc3C2)n1 (protonated)
[O-]c1nc(N2CCNCC2)nc(N2CCc3ccccc3C2)n1 (3D coordinates assigned)
[O-]c1nc(N2CCNCC2)nc(N2CCc3ccccc3C2)n1 (nonaromatic ring conformer: 46.535626236519555 kcal/mol)

>  <smiles>  (19) 
Oc1nc(N2CCNCC2)nc(N2CCc3ccccc3C2)n1

>  <score_type>  (19) 
oracle

>  <origin>  (19) 
autodockgpu

>  <m_score__min__energy>  (19) 
-7.2599999999999998

>  <m_primary>  (19) 
energy

>  <meeko>  (19) 
{"free_energy": -7.25, "intermolecular_energy": -7.85, "internal_energy": -0.56, "cluster_size": 19, "cluster_id": 1, "rank_in_cluster": 8}

>  <energy>  (19) 
-7.22

>  <cluster_rmsd>  (19) 
0.96

>  <rmsd>  (19) 
271.92

>  <cluster>  (19) 
1

$$$$
VOQKIUCZPHIEKY-MWDOZMLPNA-M
     RDKit          3D

 42 45  0  0  0  0  0  0  0  0999 V2000
  139.7130   75.7160  221.4180 O   0  0  0  0  0  0  0  0  0  0  0  0
  140.4390   74.5340  221.4880 C   0  0  0  0  0  0  0  0  0  0  0  0
  141.5240   74.3570  220.6960 N   0  0  0  0  0  0  0  0  0  0  0  0
  142.2400   73.2020  220.7590 C   0  0  0  0  0  0  0  0  0  0  0  0
  143.3930   73.0160  219.9130 N   0  0  0  0  0  0  0  0  0  0  0  0
  143.5450   73.8500  218.7130 C   0  0  0  0  0  0  0  0  0  0  0  0
  144.8290   73.4990  217.9570 C   0  0  0  0  0  0  0  0  0  0  0  0
  145.9510   73.3830  218.8930 N   0  0  0  0  0  0  0  0  0  0  0  0
  145.7770   72.2800  219.8580 C   0  0  0  0  0  0  0  0  0  0  0  0
  144.3070   71.8820  220.1220 C   0  0  0  0  0  0  0  0  0  0  0  0
  141.8520   72.2280  221.6250 N   0  0  0  0  0  0  0  0  0  0  0  0
  140.7640   72.3960  222.4230 C   0  0  0  0  0  0  0  0  0  0  0  0
  140.3630   71.3590  223.3430 N   0  0  0  0  0  0  0  0  0  0  0  0
  139.6190   70.1880  222.8510 C   0  0  0  0  0  0  0  0  0  0  0  0
  138.6410   69.6870  223.9080 C   0  0  0  0  0  0  0  0  0  0  0  0
  139.3640   69.4150  225.1930 C   0  0  0  0  0  0  0  0  0  0  0  0
  138.9460   68.3730  226.0360 C   0  0  0  0  0  0  0  0  0  0  0  0
  139.6020   68.1440  227.2470 C   0  0  0  0  0  0  0  0  0  0  0  0
  140.6680   68.9600  227.6320 C   0  0  0  0  0  0  0  0  0  0  0  0
  141.0790   70.0100  226.8060 C   0  0  0  0  0  0  0  0  0  0  0  0
  140.4340   70.2440  225.5810 C   0  0  0  0  0  0  0  0  0  0  0  0
  140.8640   71.4160  224.7300 C   0  0  0  0  0  0  0  0  0  0  0  0
  140.0610   73.5570  222.3480 N   0  0  0  0  0  0  0  0  0  0  0  0
  142.6821   73.6870  218.0506 H   0  0  0  0  0  0  0  0  0  0  0  0
  143.5998   74.9036  219.0244 H   0  0  0  0  0  0  0  0  0  0  0  0
  144.6922   72.5415  217.4331 H   0  0  0  0  0  0  0  0  0  0  0  0
  145.0477   74.2959  217.2310 H   0  0  0  0  0  0  0  0  0  0  0  0
  146.0380   74.2840  219.4210 H   0  0  0  0  0  0  0  0  0  0  0  0
  146.3069   71.3977  219.4698 H   0  0  0  0  0  0  0  0  0  0  0  0
  146.1800   72.6381  220.8168 H   0  0  0  0  0  0  0  0  0  0  0  0
  144.0288   71.0682  219.4362 H   0  0  0  0  0  0  0  0  0  0  0  0
  144.2208   71.5592  221.1700 H   0  0  0  0  0  0  0  0  0  0  0  0
  139.0599   70.4695  221.9465 H   0  0  0  0  0  0  0  0  0  0  0  0
  140.3350   69.3847  222.6230 H   0  0  0  0  0  0  0  0  0  0  0  0
  137.8687   70.4511  224.0801 H   0  0  0  0  0  0  0  0  0  0  0  0
  138.1747   68.7558  223.5538 H   0  0  0  0  0  0  0  0  0  0  0  0
  138.0994   67.7353  225.7416 H   0  0  0  0  0  0  0  0  0  0  0  0
  139.2786   67.3193  227.8991 H   0  0  0  0  0  0  0  0  0  0  0  0
  141.1844   68.7763  228.5857 H   0  0  0  0  0  0  0  0  0  0  0  0
  141.9125   70.6567  227.1175 H   0  0  0  0  0  0  0  0  0  0  0  0
  140.4899   72.3393  225.1964 H   0  0  0  0  0  0  0  0  0  0  0  0
  141.9623   71.3875  224.6759 H   0  0  0  0  0  0  0  0  0  0  0  0
  1  2  1  0
  2  3  2  0
  3  4  1  0
  4  5  1  0
  5  6  1  0
  6  7  1  0
  7  8  1  0
  8  9  1  0
  9 10  1  0
  4 11  2  0
 11 12  1  0
 12 13  1  0
 13 14  1  0
 14 15  1  0
 15 16  1  0
 16 17  2  0
 17 18  1  0
 18 19  2  0
 19 20  1  0
 20 21  2  0
 21 22  1  0
 12 23  2  0
 23  2  1  0
 10  5  1  0
 22 13  1  0
 21 16  1  0
  6 24  1  0
  6 25  1  0
  7 26  1  0
  7 27  1  0
  8 28  1  0
  9 29  1  0
  9 30  1  0
 10 31  1  0
 10 32  1  0
 14 33  1  0
 14 34  1  0
 15 35  1  0
 15 36  1  0
 17 37  1  0
 18 38  1  0
 19 39  1  0
 20 40  1  0
 22 41  1  0
 22 42  1  0
M  CHG  1   1  -1
M  END
>  <UniqueID>  (20) 
701

>  <SMILES>  (20) 
[O-]c1nc(N2CCNCC2)nc(N2CCc3ccccc3C2)n1

>  <Energy>  (20) 
46.535626236519555

>  <Genealogy>  (20) 
[O-]c1nc(N2CCNCC2)nc(N2CCc3ccccc3C2)n1 (protonated)
[O-]c1nc(N2CCNCC2)nc(N2CCc3ccccc3C2)n1 (3D coordinates assigned)
[O-]c1nc(N2CCNCC2)nc(N2CCc3ccccc3C2)n1 (nonaromatic ring conformer: 46.535626236519555 kcal/mol)

>  <smiles>  (20) 
Oc1nc(N2CCNCC2)nc(N2CCc3ccccc3C2)n1

>  <score_type>  (20) 
oracle

>  <origin>  (20) 
autodockgpu

>  <m_score__min__energy>  (20) 
-7.2599999999999998

>  <m_primary>  (20) 
energy

>  <meeko>  (20) 
{"free_energy": -7.22, "intermolecular_energy": -7.82, "internal_energy": -0.57, "cluster_size": 19, "cluster_id": 1, "rank_in_cluster": 19}

>  <energy>  (20) 
-6.72

>  <cluster_rmsd>  (20) 
0.0

>  <rmsd>  (20) 
272.1

>  <cluster>  (20) 
2

$$$$
VOQKIUCZPHIEKY-VSZADFCQNA-O
     RDKit          3D

 44 47  0  0  0  0  0  0  0  0999 V2000
  137.5260   71.9300  219.5110 O   0  0  0  0  0  0  0  0  0  0  0  0
  138.4840   72.3080  220.4450 C   0  0  0  0  0  0  0  0  0  0  0  0
  139.2560   73.3990  220.2150 N   0  0  0  0  0  0  0  0  0  0  0  0
  140.1950   73.7820  221.1200 C   0  0  0  0  0  0  0  0  0  0  0  0
  141.0190   74.9430  220.8760 N   0  0  0  0  0  0  0  0  0  0  0  0
  140.5660   76.2700  221.3190 C   0  0  0  0  0  0  0  0  0  0  0  0
  141.1420   77.3670  220.4180 C   0  0  0  0  0  0  0  0  0  0  0  0
  142.5970   77.2290  220.2810 N   0  0  0  0  0  0  0  0  0  0  0  0
  142.9470   75.9320  219.6890 C   0  0  0  0  0  0  0  0  0  0  0  0
  142.4460   74.7750  220.5600 C   0  0  0  0  0  0  0  0  0  0  0  0
  140.3510   73.0540  222.2580 N   0  0  0  0  0  0  0  0  0  0  0  0
  139.5840   71.9580  222.4990 C   0  0  0  0  0  0  0  0  0  0  0  0
  139.7550   71.1940  223.7130 N   0  0  0  0  0  0  0  0  0  0  0  0
  139.5620   69.7350  223.6950 C   0  0  0  0  0  0  0  0  0  0  0  0
  138.9770   69.2550  225.0200 C   0  0  0  0  0  0  0  0  0  0  0  0
  139.8370   69.7120  226.1590 C   0  0  0  0  0  0  0  0  0  0  0  0
  139.9690   68.9190  227.3100 C   0  0  0  0  0  0  0  0  0  0  0  0
  140.7510   69.3580  228.3810 C   0  0  0  0  0  0  0  0  0  0  0  0
  141.3920   70.5960  228.3170 C   0  0  0  0  0  0  0  0  0  0  0  0
  141.2510   71.4000  227.1830 C   0  0  0  0  0  0  0  0  0  0  0  0
  140.4780   70.9640  226.0960 C   0  0  0  0  0  0  0  0  0  0  0  0
  140.3000   71.8760  224.9020 C   0  0  0  0  0  0  0  0  0  0  0  0
  138.6470   71.5910  221.5840 N   0  0  0  0  0  0  0  0  0  0  0  0
  137.4980   70.9850  219.1490 H   0  0  0  0  0  0  0  0  0  0  0  0
  139.4674   76.3089  221.2781 H   0  0  0  0  0  0  0  0  0  0  0  0
  140.9156   76.4378  222.3484 H   0  0  0  0  0  0  0  0  0  0  0  0
  140.6790   77.2943  219.4228 H   0  0  0  0  0  0  0  0  0  0  0  0
  140.9253   78.3438  220.8750 H   0  0  0  0  0  0  0  0  0  0  0  0
  142.9500   77.9900  219.6560 H   0  0  0  0  0  0  0  0  0  0  0  0
  143.0560   77.3300  221.2180 H   0  0  0  0  0  0  0  0  0  0  0  0
  142.4878   75.8564  218.6923 H   0  0  0  0  0  0  0  0  0  0  0  0
  144.0426   75.8654  219.6159 H   0  0  0  0  0  0  0  0  0  0  0  0
  142.5870   73.8279  220.0186 H   0  0  0  0  0  0  0  0  0  0  0  0
  143.0179   74.7659  221.4996 H   0  0  0  0  0  0  0  0  0  0  0  0
  138.8732   69.4714  222.8789 H   0  0  0  0  0  0  0  0  0  0  0  0
  140.5372   69.2498  223.5411 H   0  0  0  0  0  0  0  0  0  0  0  0
  137.9642   69.6669  225.1409 H   0  0  0  0  0  0  0  0  0  0  0  0
  138.9366   68.1557  225.0182 H   0  0  0  0  0  0  0  0  0  0  0  0
  139.4547   67.9484  227.3687 H   0  0  0  0  0  0  0  0  0  0  0  0
  140.8617   68.7274  229.2755 H   0  0  0  0  0  0  0  0  0  0  0  0
  142.0091   70.9393  229.1604 H   0  0  0  0  0  0  0  0  0  0  0  0
  141.7487   72.3801  227.1421 H   0  0  0  0  0  0  0  0  0  0  0  0
  139.6120   72.6869  225.1835 H   0  0  0  0  0  0  0  0  0  0  0  0
  141.2983   72.2493  224.6300 H   0  0  0  0  0  0  0  0  0  0  0  0
  1  2  1  0
  2  3  2  0
  3  4  1  0
  4  5  1  0
  5  6  1  0
  6  7  1  0
  7  8  1  0
  8  9  1  0
  9 10  1  0
  4 11  2  0
 11 12  1  0
 12 13  1  0
 13 14  1  0
 14 15  1  0
 15 16  1  0
 16 17  2  0
 17 18  1  0
 18 19  2  0
 19 20  1  0
 20 21  2  0
 21 22  1  0
 12 23  2  0
 23  2  1  0
 10  5  1  0
 22 13  1  0
 21 16  1  0
  1 24  1  0
  6 25  1  0
  6 26  1  0
  7 27  1  0
  7 28  1  0
  8 29  1  0
  8 30  1  0
  9 31  1  0
  9 32  1  0
 10 33  1  0
 10 34  1  0
 14 35  1  0
 14 36  1  0
 15 37  1  0
 15 38  1  0
 17 39  1  0
 18 40  1  0
 19 41  1  0
 20 42  1  0
 22 43  1  0
 22 44  1  0
M  CHG  1   8   1
M  END
>  <UniqueID>  (21) 
702

>  <SMILES>  (21) 
Oc1nc(N2CC[NH2+]CC2)nc(N2CCc3ccccc3C2)n1

>  <Energy>  (21) 
48.14596656196317

>  <Genealogy>  (21) 
Oc1nc(N2CC[NH2+]CC2)nc(N2CCc3ccccc3C2)n1 (protonated)
Oc1nc(N2CC[NH2+]CC2)nc(N2CCc3ccccc3C2)n1 (3D coordinates assigned)
Oc1nc(N2CC[NH2+]CC2)nc(N2CCc3ccccc3C2)n1 (nonaromatic ring conformer: 48.14596656196317 kcal/mol)

>  <smiles>  (21) 
Oc1nc(N2CCNCC2)nc(N2CCc3ccccc3C2)n1

>  <score_type>  (21) 
oracle

>  <origin>  (21) 
autodockgpu

>  <m_score__min__energy>  (21) 
-7.0499999999999998

>  <m_primary>  (21) 
energy

>  <meeko>  (21) 
{"free_energy": -7.0, "intermolecular_energy": -7.9, "internal_energy": -0.36, "cluster_size": 20, "cluster_id": 1, "rank_in_cluster": 13}

>  <energy>  (21) 
-7.05

>  <cluster_rmsd>  (21) 
0.0

>  <rmsd>  (21) 
272.25

>  <cluster>  (21) 
1

$$$$
VOQKIUCZPHIEKY-VSZADFCQNA-O
     RDKit          3D

 44 47  0  0  0  0  0  0  0  0999 V2000
  136.1580   73.5550  220.9210 O   0  0  0  0  0  0  0  0  0  0  0  0
  137.4530   73.4380  221.4150 C   0  0  0  0  0  0  0  0  0  0  0  0
  138.3900   74.3570  221.0760 N   0  0  0  0  0  0  0  0  0  0  0  0
  139.6590   74.2560  221.5510 C   0  0  0  0  0  0  0  0  0  0  0  0
  140.6590   75.2350  221.1900 N   0  0  0  0  0  0  0  0  0  0  0  0
  140.5860   76.5960  221.7440 C   0  0  0  0  0  0  0  0  0  0  0  0
  141.2180   77.6060  220.7810 C   0  0  0  0  0  0  0  0  0  0  0  0
  142.5630   77.1780  220.3750 N   0  0  0  0  0  0  0  0  0  0  0  0
  142.5160   75.8780  219.6950 C   0  0  0  0  0  0  0  0  0  0  0  0
  141.9390   74.7960  220.6120 C   0  0  0  0  0  0  0  0  0  0  0  0
  139.9770   73.2180  222.3700 N   0  0  0  0  0  0  0  0  0  0  0  0
  139.0470   72.2890  222.7150 C   0  0  0  0  0  0  0  0  0  0  0  0
  139.3930   71.1910  223.5880 N   0  0  0  0  0  0  0  0  0  0  0  0
  139.5650   69.8380  223.0350 C   0  0  0  0  0  0  0  0  0  0  0  0
  139.1080   68.7860  224.0400 C   0  0  0  0  0  0  0  0  0  0  0  0
  139.8230   68.9730  225.3440 C   0  0  0  0  0  0  0  0  0  0  0  0
  140.1390   67.8640  226.1440 C   0  0  0  0  0  0  0  0  0  0  0  0
  140.7830   68.0430  227.3710 C   0  0  0  0  0  0  0  0  0  0  0  0
  141.1020   69.3280  227.8130 C   0  0  0  0  0  0  0  0  0  0  0  0
  140.7730   70.4390  227.0310 C   0  0  0  0  0  0  0  0  0  0  0  0
  140.1370   70.2710  225.7910 C   0  0  0  0  0  0  0  0  0  0  0  0
  139.7480   71.4920  224.9880 C   0  0  0  0  0  0  0  0  0  0  0  0
  137.7810   72.4070  222.2330 N   0  0  0  0  0  0  0  0  0  0  0  0
  135.3580   73.3920  221.5190 H   0  0  0  0  0  0  0  0  0  0  0  0
  139.5316   76.8635  221.9074 H   0  0  0  0  0  0  0  0  0  0  0  0
  141.1373   76.6211  222.6955 H   0  0  0  0  0  0  0  0  0  0  0  0
  140.5839   77.6951  219.8866 H   0  0  0  0  0  0  0  0  0  0  0  0
  141.2996   78.5752  221.2947 H   0  0  0  0  0  0  0  0  0  0  0  0
  142.9570   77.8890  219.7160 H   0  0  0  0  0  0  0  0  0  0  0  0
  143.1890   77.1210  221.2140 H   0  0  0  0  0  0  0  0  0  0  0  0
  141.8837   75.9640  218.7990 H   0  0  0  0  0  0  0  0  0  0  0  0
  143.5414   75.5912  219.4189 H   0  0  0  0  0  0  0  0  0  0  0  0
  141.7763   73.8774  220.0292 H   0  0  0  0  0  0  0  0  0  0  0  0
  142.6508   74.6074  221.4292 H   0  0  0  0  0  0  0  0  0  0  0  0
  138.9674   69.7442  222.1163 H   0  0  0  0  0  0  0  0  0  0  0  0
  140.6305   69.6780  222.8135 H   0  0  0  0  0  0  0  0  0  0  0  0
  138.0245   68.8844  224.2020 H   0  0  0  0  0  0  0  0  0  0  0  0
  139.3384   67.7861  223.6437 H   0  0  0  0  0  0  0  0  0  0  0  0
  139.8789   66.8507  225.8040 H   0  0  0  0  0  0  0  0  0  0  0  0
  141.0390   67.1701  227.9895 H   0  0  0  0  0  0  0  0  0  0  0  0
  141.6127   69.4665  228.7774 H   0  0  0  0  0  0  0  0  0  0  0  0
  141.0139   71.4507  227.3894 H   0  0  0  0  0  0  0  0  0  0  0  0
  138.8810   71.9648  225.4725 H   0  0  0  0  0  0  0  0  0  0  0  0
  140.6262   72.1539  224.9624 H   0  0  0  0  0  0  0  0  0  0  0  0
  1  2  1  0
  2  3  2  0
  3  4  1  0
  4  5  1  0
  5  6  1  0
  6  7  1  0
  7  8  1  0
  8  9  1  0
  9 10  1  0
  4 11  2  0
 11 12  1  0
 12 13  1  0
 13 14  1  0
 14 15  1  0
 15 16  1  0
 16 17  2  0
 17 18  1  0
 18 19  2  0
 19 20  1  0
 20 21  2  0
 21 22  1  0
 12 23  2  0
 23  2  1  0
 10  5  1  0
 22 13  1  0
 21 16  1  0
  1 24  1  0
  6 25  1  0
  6 26  1  0
  7 27  1  0
  7 28  1  0
  8 29  1  0
  8 30  1  0
  9 31  1  0
  9 32  1  0
 10 33  1  0
 10 34  1  0
 14 35  1  0
 14 36  1  0
 15 37  1  0
 15 38  1  0
 17 39  1  0
 18 40  1  0
 19 41  1  0
 20 42  1  0
 22 43  1  0
 22 44  1  0
M  CHG  1   8   1
M  END
>  <UniqueID>  (22) 
702

>  <SMILES>  (22) 
Oc1nc(N2CC[NH2+]CC2)nc(N2CCc3ccccc3C2)n1

>  <Energy>  (22) 
48.14596656196317

>  <Genealogy>  (22) 
Oc1nc(N2CC[NH2+]CC2)nc(N2CCc3ccccc3C2)n1 (protonated)
Oc1nc(N2CC[NH2+]CC2)nc(N2CCc3ccccc3C2)n1 (3D coordinates assigned)
Oc1nc(N2CC[NH2+]CC2)nc(N2CCc3ccccc3C2)n1 (nonaromatic ring conformer: 48.14596656196317 kcal/mol)

>  <smiles>  (22) 
Oc1nc(N2CCNCC2)nc(N2CCc3ccccc3C2)n1

>  <score_type>  (22) 
oracle

>  <origin>  (22) 
autodockgpu

>  <m_score__min__energy>  (22) 
-7.0499999999999998

>  <m_primary>  (22) 
energy

>  <meeko>  (22) 
{"free_energy": -7.01, "intermolecular_energy": -7.91, "internal_energy": -0.35, "cluster_size": 20, "cluster_id": 1, "rank_in_cluster": 9}

>  <energy>  (22) 
-7.03

>  <cluster_rmsd>  (22) 
1.39

>  <rmsd>  (22) 
272.46

>  <cluster>  (22) 
1

$$$$
VOQKIUCZPHIEKY-VSZADFCQNA-O
     RDKit          3D

 44 47  0  0  0  0  0  0  0  0999 V2000
  138.6360   71.7140  218.9560 O   0  0  0  0  0  0  0  0  0  0  0  0
  139.2130   72.2410  220.1070 C   0  0  0  0  0  0  0  0  0  0  0  0
  139.7480   73.4860  220.0840 N   0  0  0  0  0  0  0  0  0  0  0  0
  140.3130   74.0150  221.2000 C   0  0  0  0  0  0  0  0  0  0  0  0
  140.8840   75.3420  221.1770 N   0  0  0  0  0  0  0  0  0  0  0  0
  140.4360   76.3500  222.1500 C   0  0  0  0  0  0  0  0  0  0  0  0
  140.5800   77.7610  221.5710 C   0  0  0  0  0  0  0  0  0  0  0  0
  141.9310   77.9790  221.0390 N   0  0  0  0  0  0  0  0  0  0  0  0
  142.2320   77.0210  219.9670 C   0  0  0  0  0  0  0  0  0  0  0  0
  142.1580   75.5790  220.4790 C   0  0  0  0  0  0  0  0  0  0  0  0
  140.3390   73.2750  222.3410 N   0  0  0  0  0  0  0  0  0  0  0  0
  139.8070   72.0250  222.3760 C   0  0  0  0  0  0  0  0  0  0  0  0
  139.8360   71.2480  223.5940 N   0  0  0  0  0  0  0  0  0  0  0  0
  139.5390   69.8070  223.5530 C   0  0  0  0  0  0  0  0  0  0  0  0
  138.8280   69.3690  224.8310 C   0  0  0  0  0  0  0  0  0  0  0  0
  139.6360   69.7600  226.0300 C   0  0  0  0  0  0  0  0  0  0  0  0
  139.6270   68.9580  227.1820 C   0  0  0  0  0  0  0  0  0  0  0  0
  140.3610   69.3370  228.3090 C   0  0  0  0  0  0  0  0  0  0  0  0
  141.0950   70.5260  228.2980 C   0  0  0  0  0  0  0  0  0  0  0  0
  141.0930   71.3390  227.1630 C   0  0  0  0  0  0  0  0  0  0  0  0
  140.3690   70.9630  226.0210 C   0  0  0  0  0  0  0  0  0  0  0  0
  140.3430   71.8860  224.8230 C   0  0  0  0  0  0  0  0  0  0  0  0
  139.2430   71.5120  221.2500 N   0  0  0  0  0  0  0  0  0  0  0  0
  137.8980   71.0230  219.0140 H   0  0  0  0  0  0  0  0  0  0  0  0
  139.3802   76.1676  222.3990 H   0  0  0  0  0  0  0  0  0  0  0  0
  141.0593   76.2723  223.0530 H   0  0  0  0  0  0  0  0  0  0  0  0
  139.8489   77.8927  220.7597 H   0  0  0  0  0  0  0  0  0  0  0  0
  140.3999   78.4889  222.3759 H   0  0  0  0  0  0  0  0  0  0  0  0
  141.9870   78.9480  220.6500 H   0  0  0  0  0  0  0  0  0  0  0  0
  142.6380   77.8900  221.8080 H   0  0  0  0  0  0  0  0  0  0  0  0
  141.5030   77.1513  219.1537 H   0  0  0  0  0  0  0  0  0  0  0  0
  143.2532   77.2112  219.6051 H   0  0  0  0  0  0  0  0  0  0  0  0
  142.2372   74.8882  219.6267 H   0  0  0  0  0  0  0  0  0  0  0  0
  142.9854   75.4100  221.1839 H   0  0  0  0  0  0  0  0  0  0  0  0
  138.8922   69.5955  222.6887 H   0  0  0  0  0  0  0  0  0  0  0  0
  140.4847   69.2521  223.4650 H   0  0  0  0  0  0  0  0  0  0  0  0
  137.8420   69.8538  224.8830 H   0  0  0  0  0  0  0  0  0  0  0  0
  138.7077   68.2757  224.8192 H   0  0  0  0  0  0  0  0  0  0  0  0
  139.0400   68.0278  227.1976 H   0  0  0  0  0  0  0  0  0  0  0  0
  140.3610   68.6991  229.2052 H   0  0  0  0  0  0  0  0  0  0  0  0
  141.6750   70.8218  229.1846 H   0  0  0  0  0  0  0  0  0  0  0  0
  141.6624   72.2801  227.1638 H   0  0  0  0  0  0  0  0  0  0  0  0
  139.6977   72.7447  225.0601 H   0  0  0  0  0  0  0  0  0  0  0  0
  141.3829   72.1846  224.6247 H   0  0  0  0  0  0  0  0  0  0  0  0
  1  2  1  0
  2  3  2  0
  3  4  1  0
  4  5  1  0
  5  6  1  0
  6  7  1  0
  7  8  1  0
  8  9  1  0
  9 10  1  0
  4 11  2  0
 11 12  1  0
 12 13  1  0
 13 14  1  0
 14 15  1  0
 15 16  1  0
 16 17  2  0
 17 18  1  0
 18 19  2  0
 19 20  1  0
 20 21  2  0
 21 22  1  0
 12 23  2  0
 23  2  1  0
 10  5  1  0
 22 13  1  0
 21 16  1  0
  1 24  1  0
  6 25  1  0
  6 26  1  0
  7 27  1  0
  7 28  1  0
  8 29  1  0
  8 30  1  0
  9 31  1  0
  9 32  1  0
 10 33  1  0
 10 34  1  0
 14 35  1  0
 14 36  1  0
 15 37  1  0
 15 38  1  0
 17 39  1  0
 18 40  1  0
 19 41  1  0
 20 42  1  0
 22 43  1  0
 22 44  1  0
M  CHG  1   8   1
M  END
>  <UniqueID>  (23) 
702

>  <SMILES>  (23) 
Oc1nc(N2CC[NH2+]CC2)nc(N2CCc3ccccc3C2)n1

>  <Energy>  (23) 
48.14596656196317

>  <Genealogy>  (23) 
Oc1nc(N2CC[NH2+]CC2)nc(N2CCc3ccccc3C2)n1 (protonated)
Oc1nc(N2CC[NH2+]CC2)nc(N2CCc3ccccc3C2)n1 (3D coordinates assigned)
Oc1nc(N2CC[NH2+]CC2)nc(N2CCc3ccccc3C2)n1 (nonaromatic ring conformer: 48.14596656196317 kcal/mol)

>  <smiles>  (23) 
Oc1nc(N2CCNCC2)nc(N2CCc3ccccc3C2)n1

>  <score_type>  (23) 
oracle

>  <origin>  (23) 
autodockgpu

>  <m_score__min__energy>  (23) 
-7.0499999999999998

>  <m_primary>  (23) 
energy

>  <meeko>  (23) 
{"free_energy": -6.89, "intermolecular_energy": -7.79, "internal_energy": -0.36, "cluster_size": 20, "cluster_id": 1, "rank_in_cluster": 20}

>  <energy>  (23) 
-7.03

>  <cluster_rmsd>  (23) 
1.16

>  <rmsd>  (23) 
272.3

>  <cluster>  (23) 
1

$$$$
VOQKIUCZPHIEKY-VSZADFCQNA-O
     RDKit          3D

 44 47  0  0  0  0  0  0  0  0999 V2000
  136.8680   72.9660  220.4500 O   0  0  0  0  0  0  0  0  0  0  0  0
  138.0940   73.0610  221.0990 C   0  0  0  0  0  0  0  0  0  0  0  0
  138.9940   73.9970  220.7090 N   0  0  0  0  0  0  0  0  0  0  0  0
  140.1950   74.1030  221.3350 C   0  0  0  0  0  0  0  0  0  0  0  0
  141.1550   75.1000  220.9200 N   0  0  0  0  0  0  0  0  0  0  0  0
  141.0290   76.4840  221.4010 C   0  0  0  0  0  0  0  0  0  0  0  0
  141.6190   77.4660  220.3840 C   0  0  0  0  0  0  0  0  0  0  0  0
  142.9800   77.0720  219.9970 N   0  0  0  0  0  0  0  0  0  0  0  0
  142.9830   75.7360  219.3860 C   0  0  0  0  0  0  0  0  0  0  0  0
  142.4500   74.6820  220.3610 C   0  0  0  0  0  0  0  0  0  0  0  0
  140.4840   73.2540  222.3570 N   0  0  0  0  0  0  0  0  0  0  0  0
  139.5920   72.3100  222.7560 C   0  0  0  0  0  0  0  0  0  0  0  0
  139.9070   71.4150  223.8450 N   0  0  0  0  0  0  0  0  0  0  0  0
  140.7110   71.8950  224.9810 C   0  0  0  0  0  0  0  0  0  0  0  0
  141.5910   70.7730  225.5270 C   0  0  0  0  0  0  0  0  0  0  0  0
  140.7500   69.5820  225.8740 C   0  0  0  0  0  0  0  0  0  0  0  0
  141.1060   68.7540  226.9510 C   0  0  0  0  0  0  0  0  0  0  0  0
  140.3360   67.6300  227.2580 C   0  0  0  0  0  0  0  0  0  0  0  0
  139.2170   67.3160  226.4840 C   0  0  0  0  0  0  0  0  0  0  0  0
  138.8680   68.1240  225.3990 C   0  0  0  0  0  0  0  0  0  0  0  0
  139.6260   69.2630  225.0880 C   0  0  0  0  0  0  0  0  0  0  0  0
  139.2560   70.0910  223.8780 C   0  0  0  0  0  0  0  0  0  0  0  0
  138.3930   72.2200  222.1210 N   0  0  0  0  0  0  0  0  0  0  0  0
  136.4220   72.0680  220.3110 H   0  0  0  0  0  0  0  0  0  0  0  0
  139.9650   76.7179  221.5536 H   0  0  0  0  0  0  0  0  0  0  0  0
  141.5805   76.5812  222.3478 H   0  0  0  0  0  0  0  0  0  0  0  0
  140.9811   77.4819  219.4880 H   0  0  0  0  0  0  0  0  0  0  0  0
  141.6619   78.4635  220.8456 H   0  0  0  0  0  0  0  0  0  0  0  0
  143.3440   77.7620  219.3000 H   0  0  0  0  0  0  0  0  0  0  0  0
  143.6090   77.0840  220.8350 H   0  0  0  0  0  0  0  0  0  0  0  0
  142.3466   75.7499  218.4889 H   0  0  0  0  0  0  0  0  0  0  0  0
  144.0185   75.4753  219.1218 H   0  0  0  0  0  0  0  0  0  0  0  0
  142.3225   73.7283  219.8279 H   0  0  0  0  0  0  0  0  0  0  0  0
  143.1700   74.5650  221.1844 H   0  0  0  0  0  0  0  0  0  0  0  0
  141.3499   72.7257  224.6466 H   0  0  0  0  0  0  0  0  0  0  0  0
  140.0329   72.2343  225.7779 H   0  0  0  0  0  0  0  0  0  0  0  0
  142.3304   70.4867  224.7646 H   0  0  0  0  0  0  0  0  0  0  0  0
  142.1054   71.1269  226.4326 H   0  0  0  0  0  0  0  0  0  0  0  0
  141.9943   68.9915  227.5548 H   0  0  0  0  0  0  0  0  0  0  0  0
  140.6113   66.9915  228.1103 H   0  0  0  0  0  0  0  0  0  0  0  0
  138.6099   66.4319  226.7287 H   0  0  0  0  0  0  0  0  0  0  0  0
  137.9931   67.8655  224.7844 H   0  0  0  0  0  0  0  0  0  0  0  0
  139.5499   69.5366  222.9745 H   0  0  0  0  0  0  0  0  0  0  0  0
  138.1713   70.2667  223.9276 H   0  0  0  0  0  0  0  0  0  0  0  0
  1  2  1  0
  2  3  2  0
  3  4  1  0
  4  5  1  0
  5  6  1  0
  6  7  1  0
  7  8  1  0
  8  9  1  0
  9 10  1  0
  4 11  2  0
 11 12  1  0
 12 13  1  0
 13 14  1  0
 14 15  1  0
 15 16  1  0
 16 17  2  0
 17 18  1  0
 18 19  2  0
 19 20  1  0
 20 21  2  0
 21 22  1  0
 12 23  2  0
 23  2  1  0
 10  5  1  0
 22 13  1  0
 21 16  1  0
  1 24  1  0
  6 25  1  0
  6 26  1  0
  7 27  1  0
  7 28  1  0
  8 29  1  0
  8 30  1  0
  9 31  1  0
  9 32  1  0
 10 33  1  0
 10 34  1  0
 14 35  1  0
 14 36  1  0
 15 37  1  0
 15 38  1  0
 17 39  1  0
 18 40  1  0
 19 41  1  0
 20 42  1  0
 22 43  1  0
 22 44  1  0
M  CHG  1   8   1
M  END
>  <UniqueID>  (24) 
702

>  <SMILES>  (24) 
Oc1nc(N2CC[NH2+]CC2)nc(N2CCc3ccccc3C2)n1

>  <Energy>  (24) 
48.14596656196317

>  <Genealogy>  (24) 
Oc1nc(N2CC[NH2+]CC2)nc(N2CCc3ccccc3C2)n1 (protonated)
Oc1nc(N2CC[NH2+]CC2)nc(N2CCc3ccccc3C2)n1 (3D coordinates assigned)
Oc1nc(N2CC[NH2+]CC2)nc(N2CCc3ccccc3C2)n1 (nonaromatic ring conformer: 48.14596656196317 kcal/mol)

>  <smiles>  (24) 
Oc1nc(N2CCNCC2)nc(N2CCc3ccccc3C2)n1

>  <score_type>  (24) 
oracle

>  <origin>  (24) 
autodockgpu

>  <m_score__min__energy>  (24) 
-7.0499999999999998

>  <m_primary>  (24) 
energy

>  <meeko>  (24) 
{"free_energy": -6.98, "intermolecular_energy": -7.88, "internal_energy": -0.36, "cluster_size": 20, "cluster_id": 1, "rank_in_cluster": 18}

>  <energy>  (24) 
-7.02

>  <cluster_rmsd>  (24) 
1.05

>  <rmsd>  (24) 
272.4

>  <cluster>  (24) 
1

$$$$
VOQKIUCZPHIEKY-VSZADFCQNA-O
     RDKit          3D

 44 47  0  0  0  0  0  0  0  0999 V2000
  138.6940   71.5820  218.9210 O   0  0  0  0  0  0  0  0  0  0  0  0
  139.2890   72.1240  220.0550 C   0  0  0  0  0  0  0  0  0  0  0  0
  139.8660   73.3490  219.9940 N   0  0  0  0  0  0  0  0  0  0  0  0
  140.4500   73.8920  221.0940 C   0  0  0  0  0  0  0  0  0  0  0  0
  141.0660   75.1970  221.0310 N   0  0  0  0  0  0  0  0  0  0  0  0
  140.6890   76.2350  222.0030 C   0  0  0  0  0  0  0  0  0  0  0  0
  140.8610   77.6310  221.3980 C   0  0  0  0  0  0  0  0  0  0  0  0
  142.2000   77.7930  220.8160 N   0  0  0  0  0  0  0  0  0  0  0  0
  142.4280   76.8110  219.7480 C   0  0  0  0  0  0  0  0  0  0  0  0
  142.3210   75.3800  220.2840 C   0  0  0  0  0  0  0  0  0  0  0  0
  140.4500   73.1880  222.2580 N   0  0  0  0  0  0  0  0  0  0  0  0
  139.8760   71.9580  222.3310 C   0  0  0  0  0  0  0  0  0  0  0  0
  139.8780   71.2190  223.5720 N   0  0  0  0  0  0  0  0  0  0  0  0
  139.5600   69.7820  223.5720 C   0  0  0  0  0  0  0  0  0  0  0  0
  138.8270   69.3940  224.8530 C   0  0  0  0  0  0  0  0  0  0  0  0
  139.6270   69.8100  226.0500 C   0  0  0  0  0  0  0  0  0  0  0  0
  139.5920   69.0440  227.2260 C   0  0  0  0  0  0  0  0  0  0  0  0
  140.3180   69.4470  228.3490 C   0  0  0  0  0  0  0  0  0  0  0  0
  141.0700   70.6230  228.3110 C   0  0  0  0  0  0  0  0  0  0  0  0
  141.0940   71.4010  227.1520 C   0  0  0  0  0  0  0  0  0  0  0  0
  140.3780   71.0010  226.0130 C   0  0  0  0  0  0  0  0  0  0  0  0
  140.3810   71.8870  224.7870 C   0  0  0  0  0  0  0  0  0  0  0  0
  139.2940   71.4310  221.2210 N   0  0  0  0  0  0  0  0  0  0  0  0
  137.8510   71.9850  218.5340 H   0  0  0  0  0  0  0  0  0  0  0  0
  139.6371   76.0939  222.2923 H   0  0  0  0  0  0  0  0  0  0  0  0
  141.3420   76.1484  222.8840 H   0  0  0  0  0  0  0  0  0  0  0  0
  140.1068   77.7769  220.6106 H   0  0  0  0  0  0  0  0  0  0  0  0
  140.7344   78.3764  222.1969 H   0  0  0  0  0  0  0  0  0  0  0  0
  142.2760   78.7550  220.4090 H   0  0  0  0  0  0  0  0  0  0  0  0
  142.9300   77.6900  221.5600 H   0  0  0  0  0  0  0  0  0  0  0  0
  141.6753   76.9566  218.9592 H   0  0  0  0  0  0  0  0  0  0  0  0
  143.4414   76.9594  219.3468 H   0  0  0  0  0  0  0  0  0  0  0  0
  142.3447   74.6754  219.4396 H   0  0  0  0  0  0  0  0  0  0  0  0
  143.1668   75.1919  220.9617 H   0  0  0  0  0  0  0  0  0  0  0  0
  138.9210   69.5532  222.7064 H   0  0  0  0  0  0  0  0  0  0  0  0
  140.4985   69.2112  223.5137 H   0  0  0  0  0  0  0  0  0  0  0  0
  137.8479   69.8947  224.8778 H   0  0  0  0  0  0  0  0  0  0  0  0
  138.6899   68.3028  224.8730 H   0  0  0  0  0  0  0  0  0  0  0  0
  138.9909   68.1235  227.2631 H   0  0  0  0  0  0  0  0  0  0  0  0
  140.2974   68.8374  229.2644 H   0  0  0  0  0  0  0  0  0  0  0  0
  141.6442   70.9368  229.1953 H   0  0  0  0  0  0  0  0  0  0  0  0
  141.6776   72.3332  227.1313 H   0  0  0  0  0  0  0  0  0  0  0  0
  139.7469   72.7627  224.9897 H   0  0  0  0  0  0  0  0  0  0  0  0
  141.4278   72.1632  224.5923 H   0  0  0  0  0  0  0  0  0  0  0  0
  1  2  1  0
  2  3  2  0
  3  4  1  0
  4  5  1  0
  5  6  1  0
  6  7  1  0
  7  8  1  0
  8  9  1  0
  9 10  1  0
  4 11  2  0
 11 12  1  0
 12 13  1  0
 13 14  1  0
 14 15  1  0
 15 16  1  0
 16 17  2  0
 17 18  1  0
 18 19  2  0
 19 20  1  0
 20 21  2  0
 21 22  1  0
 12 23  2  0
 23  2  1  0
 10  5  1  0
 22 13  1  0
 21 16  1  0
  1 24  1  0
  6 25  1  0
  6 26  1  0
  7 27  1  0
  7 28  1  0
  8 29  1  0
  8 30  1  0
  9 31  1  0
  9 32  1  0
 10 33  1  0
 10 34  1  0
 14 35  1  0
 14 36  1  0
 15 37  1  0
 15 38  1  0
 17 39  1  0
 18 40  1  0
 19 41  1  0
 20 42  1  0
 22 43  1  0
 22 44  1  0
M  CHG  1   8   1
M  END
>  <UniqueID>  (25) 
702

>  <SMILES>  (25) 
Oc1nc(N2CC[NH2+]CC2)nc(N2CCc3ccccc3C2)n1

>  <Energy>  (25) 
48.14596656196317

>  <Genealogy>  (25) 
Oc1nc(N2CC[NH2+]CC2)nc(N2CCc3ccccc3C2)n1 (protonated)
Oc1nc(N2CC[NH2+]CC2)nc(N2CCc3ccccc3C2)n1 (3D coordinates assigned)
Oc1nc(N2CC[NH2+]CC2)nc(N2CCc3ccccc3C2)n1 (nonaromatic ring conformer: 48.14596656196317 kcal/mol)

>  <smiles>  (25) 
Oc1nc(N2CCNCC2)nc(N2CCc3ccccc3C2)n1

>  <score_type>  (25) 
oracle

>  <origin>  (25) 
autodockgpu

>  <m_score__min__energy>  (25) 
-7.0499999999999998

>  <m_primary>  (25) 
energy

>  <meeko>  (25) 
{"free_energy": -7.01, "intermolecular_energy": -7.9, "internal_energy": -0.36, "cluster_size": 20, "cluster_id": 1, "rank_in_cluster": 11}

>  <energy>  (25) 
-7.02

>  <cluster_rmsd>  (25) 
1.13

>  <rmsd>  (25) 
272.43

>  <cluster>  (25) 
1

$$$$
VOQKIUCZPHIEKY-VSZADFCQNA-O
     RDKit          3D

 44 47  0  0  0  0  0  0  0  0999 V2000
  138.2120   71.5450  218.9570 O   0  0  0  0  0  0  0  0  0  0  0  0
  139.0100   72.0230  219.9910 C   0  0  0  0  0  0  0  0  0  0  0  0
  139.7650   73.1320  219.8030 N   0  0  0  0  0  0  0  0  0  0  0  0
  140.5480   73.6120  220.8040 C   0  0  0  0  0  0  0  0  0  0  0  0
  141.3550   74.7940  220.6050 N   0  0  0  0  0  0  0  0  0  0  0  0
  140.8160   76.1170  220.9540 C   0  0  0  0  0  0  0  0  0  0  0  0
  141.4430   77.2060  220.0780 C   0  0  0  0  0  0  0  0  0  0  0  0
  142.9090   77.1160  220.0930 N   0  0  0  0  0  0  0  0  0  0  0  0
  143.3590   75.8150  219.5840 C   0  0  0  0  0  0  0  0  0  0  0  0
  142.8110   74.6680  220.4390 C   0  0  0  0  0  0  0  0  0  0  0  0
  140.5660   72.9610  221.9980 N   0  0  0  0  0  0  0  0  0  0  0  0
  139.8150   71.8460  222.1990 C   0  0  0  0  0  0  0  0  0  0  0  0
  139.8370   71.1640  223.4720 N   0  0  0  0  0  0  0  0  0  0  0  0
  139.5300   69.7260  223.5400 C   0  0  0  0  0  0  0  0  0  0  0  0
  138.8160   69.3910  224.8460 C   0  0  0  0  0  0  0  0  0  0  0  0
  139.6270   69.8660  226.0130 C   0  0  0  0  0  0  0  0  0  0  0  0
  139.6120   69.1530  227.2230 C   0  0  0  0  0  0  0  0  0  0  0  0
  140.3490   69.6110  228.3180 C   0  0  0  0  0  0  0  0  0  0  0  0
  141.0910   70.7900  228.2180 C   0  0  0  0  0  0  0  0  0  0  0  0
  141.0950   71.5160  227.0240 C   0  0  0  0  0  0  0  0  0  0  0  0
  140.3690   71.0590  225.9130 C   0  0  0  0  0  0  0  0  0  0  0  0
  140.3500   71.8890  224.6500 C   0  0  0  0  0  0  0  0  0  0  0  0
  139.0340   71.3820  221.1870 N   0  0  0  0  0  0  0  0  0  0  0  0
  137.5710   70.7760  219.1080 H   0  0  0  0  0  0  0  0  0  0  0  0
  139.7265   76.1144  220.8022 H   0  0  0  0  0  0  0  0  0  0  0  0
  141.0545   76.3293  222.0066 H   0  0  0  0  0  0  0  0  0  0  0  0
  141.0860   77.0859  219.0445 H   0  0  0  0  0  0  0  0  0  0  0  0
  141.1486   78.1882  220.4763 H   0  0  0  0  0  0  0  0  0  0  0  0
  143.2980   77.8700  219.4810 H   0  0  0  0  0  0  0  0  0  0  0  0
  143.2670   77.2620  221.0670 H   0  0  0  0  0  0  0  0  0  0  0  0
  143.0057   75.6924  218.5495 H   0  0  0  0  0  0  0  0  0  0  0  0
  144.4579   75.7858  219.6236 H   0  0  0  0  0  0  0  0  0  0  0  0
  143.0369   73.7106  219.9467 H   0  0  0  0  0  0  0  0  0  0  0  0
  143.2851   74.7080  221.4308 H   0  0  0  0  0  0  0  0  0  0  0  0
  138.8821   69.4542  222.6936 H   0  0  0  0  0  0  0  0  0  0  0  0
  140.4719   69.1596  223.4951 H   0  0  0  0  0  0  0  0  0  0  0  0
  137.8334   69.8853  224.8606 H   0  0  0  0  0  0  0  0  0  0  0  0
  138.6878   68.3008  224.9167 H   0  0  0  0  0  0  0  0  0  0  0  0
  139.0181   68.2311  227.3088 H   0  0  0  0  0  0  0  0  0  0  0  0
  140.3449   69.0425  229.2597 H   0  0  0  0  0  0  0  0  0  0  0  0
  141.6730   71.1476  229.0802 H   0  0  0  0  0  0  0  0  0  0  0  0
  141.6704   72.4509  226.9544 H   0  0  0  0  0  0  0  0  0  0  0  0
  139.7118   72.7683  224.8218 H   0  0  0  0  0  0  0  0  0  0  0  0
  141.3922   72.1636  224.4299 H   0  0  0  0  0  0  0  0  0  0  0  0
  1  2  1  0
  2  3  2  0
  3  4  1  0
  4  5  1  0
  5  6  1  0
  6  7  1  0
  7  8  1  0
  8  9  1  0
  9 10  1  0
  4 11  2  0
 11 12  1  0
 12 13  1  0
 13 14  1  0
 14 15  1  0
 15 16  1  0
 16 17  2  0
 17 18  1  0
 18 19  2  0
 19 20  1  0
 20 21  2  0
 21 22  1  0
 12 23  2  0
 23  2  1  0
 10  5  1  0
 22 13  1  0
 21 16  1  0
  1 24  1  0
  6 25  1  0
  6 26  1  0
  7 27  1  0
  7 28  1  0
  8 29  1  0
  8 30  1  0
  9 31  1  0
  9 32  1  0
 10 33  1  0
 10 34  1  0
 14 35  1  0
 14 36  1  0
 15 37  1  0
 15 38  1  0
 17 39  1  0
 18 40  1  0
 19 41  1  0
 20 42  1  0
 22 43  1  0
 22 44  1  0
M  CHG  1   8   1
M  END
>  <UniqueID>  (26) 
702

>  <SMILES>  (26) 
Oc1nc(N2CC[NH2+]CC2)nc(N2CCc3ccccc3C2)n1

>  <Energy>  (26) 
48.14596656196317

>  <Genealogy>  (26) 
Oc1nc(N2CC[NH2+]CC2)nc(N2CCc3ccccc3C2)n1 (protonated)
Oc1nc(N2CC[NH2+]CC2)nc(N2CCc3ccccc3C2)n1 (3D coordinates assigned)
Oc1nc(N2CC[NH2+]CC2)nc(N2CCc3ccccc3C2)n1 (nonaromatic ring conformer: 48.14596656196317 kcal/mol)

>  <smiles>  (26) 
Oc1nc(N2CCNCC2)nc(N2CCc3ccccc3C2)n1

>  <score_type>  (26) 
oracle

>  <origin>  (26) 
autodockgpu

>  <m_score__min__energy>  (26) 
-7.0499999999999998

>  <m_primary>  (26) 
energy

>  <meeko>  (26) 
{"free_energy": -6.98, "intermolecular_energy": -7.87, "internal_energy": -0.36, "cluster_size": 20, "cluster_id": 1, "rank_in_cluster": 19}

>  <energy>  (26) 
-7.02

>  <cluster_rmsd>  (26) 
1.26

>  <rmsd>  (26) 
272.48

>  <cluster>  (26) 
1

$$$$
VOQKIUCZPHIEKY-VSZADFCQNA-O
     RDKit          3D

 44 47  0  0  0  0  0  0  0  0999 V2000
  137.3650   72.0350  219.6550 O   0  0  0  0  0  0  0  0  0  0  0  0
  138.3660   72.3730  220.5590 C   0  0  0  0  0  0  0  0  0  0  0  0
  139.1580   73.4470  220.3180 N   0  0  0  0  0  0  0  0  0  0  0  0
  140.1390   73.7900  221.1940 C   0  0  0  0  0  0  0  0  0  0  0  0
  140.9840   74.9340  220.9380 N   0  0  0  0  0  0  0  0  0  0  0  0
  140.6440   76.2410  221.5200 C   0  0  0  0  0  0  0  0  0  0  0  0
  141.1660   77.3790  220.6370 C   0  0  0  0  0  0  0  0  0  0  0  0
  142.5900   77.1960  220.3280 N   0  0  0  0  0  0  0  0  0  0  0  0
  142.8120   75.9330  219.6110 C   0  0  0  0  0  0  0  0  0  0  0  0
  142.3580   74.7360  220.4520 C   0  0  0  0  0  0  0  0  0  0  0  0
  140.3190   73.0390  222.3130 N   0  0  0  0  0  0  0  0  0  0  0  0
  139.5330   71.9580  222.5640 C   0  0  0  0  0  0  0  0  0  0  0  0
  139.7280   71.1690  223.7580 N   0  0  0  0  0  0  0  0  0  0  0  0
  139.5590   69.7070  223.7070 C   0  0  0  0  0  0  0  0  0  0  0  0
  138.9950   69.1870  225.0260 C   0  0  0  0  0  0  0  0  0  0  0  0
  139.8600   69.6310  226.1670 C   0  0  0  0  0  0  0  0  0  0  0  0
  140.0160   68.8140  227.2980 C   0  0  0  0  0  0  0  0  0  0  0  0
  140.8020   69.2400  228.3710 C   0  0  0  0  0  0  0  0  0  0  0  0
  141.4220   70.4900  228.3300 C   0  0  0  0  0  0  0  0  0  0  0  0
  141.2560   71.3180  227.2170 C   0  0  0  0  0  0  0  0  0  0  0  0
  140.4790   70.8950  226.1270 C   0  0  0  0  0  0  0  0  0  0  0  0
  140.2750   71.8310  224.9570 C   0  0  0  0  0  0  0  0  0  0  0  0
  138.5540   71.6310  221.6790 N   0  0  0  0  0  0  0  0  0  0  0  0
  136.9470   71.1130  219.6630 H   0  0  0  0  0  0  0  0  0  0  0  0
  139.5506   76.3240  221.6073 H   0  0  0  0  0  0  0  0  0  0  0  0
  141.1129   76.3193  222.5120 H   0  0  0  0  0  0  0  0  0  0  0  0
  140.5937   77.3967  219.6978 H   0  0  0  0  0  0  0  0  0  0  0  0
  141.0449   78.3276  221.1807 H   0  0  0  0  0  0  0  0  0  0  0  0
  142.9060   77.9870  219.7210 H   0  0  0  0  0  0  0  0  0  0  0  0
  143.1530   77.2110  221.2110 H   0  0  0  0  0  0  0  0  0  0  0  0
  142.2418   75.9485  218.6704 H   0  0  0  0  0  0  0  0  0  0  0  0
  143.8882   75.8302  219.4082 H   0  0  0  0  0  0  0  0  0  0  0  0
  142.3953   73.8261  219.8349 H   0  0  0  0  0  0  0  0  0  0  0  0
  143.0289   74.6372  221.3181 H   0  0  0  0  0  0  0  0  0  0  0  0
  138.8666   69.4510  222.8915 H   0  0  0  0  0  0  0  0  0  0  0  0
  140.5403   69.2417  223.5321 H   0  0  0  0  0  0  0  0  0  0  0  0
  137.9773   69.5800  225.1666 H   0  0  0  0  0  0  0  0  0  0  0  0
  138.9713   68.0876  224.9989 H   0  0  0  0  0  0  0  0  0  0  0  0
  139.5172   67.8345  227.3392 H   0  0  0  0  0  0  0  0  0  0  0  0
  140.9326   68.5902  229.2489 H   0  0  0  0  0  0  0  0  0  0  0  0
  142.0421   70.8235  229.1751 H   0  0  0  0  0  0  0  0  0  0  0  0
  141.7369   72.3071  227.1946 H   0  0  0  0  0  0  0  0  0  0  0  0
  139.5780   72.6246  225.2643 H   0  0  0  0  0  0  0  0  0  0  0  0
  141.2649   72.2253  224.6837 H   0  0  0  0  0  0  0  0  0  0  0  0
  1  2  1  0
  2  3  2  0
  3  4  1  0
  4  5  1  0
  5  6  1  0
  6  7  1  0
  7  8  1  0
  8  9  1  0
  9 10  1  0
  4 11  2  0
 11 12  1  0
 12 13  1  0
 13 14  1  0
 14 15  1  0
 15 16  1  0
 16 17  2  0
 17 18  1  0
 18 19  2  0
 19 20  1  0
 20 21  2  0
 21 22  1  0
 12 23  2  0
 23  2  1  0
 10  5  1  0
 22 13  1  0
 21 16  1  0
  1 24  1  0
  6 25  1  0
  6 26  1  0
  7 27  1  0
  7 28  1  0
  8 29  1  0
  8 30  1  0
  9 31  1  0
  9 32  1  0
 10 33  1  0
 10 34  1  0
 14 35  1  0
 14 36  1  0
 15 37  1  0
 15 38  1  0
 17 39  1  0
 18 40  1  0
 19 41  1  0
 20 42  1  0
 22 43  1  0
 22 44  1  0
M  CHG  1   8   1
M  END
>  <UniqueID>  (27) 
702

>  <SMILES>  (27) 
Oc1nc(N2CC[NH2+]CC2)nc(N2CCc3ccccc3C2)n1

>  <Energy>  (27) 
48.14596656196317

>  <Genealogy>  (27) 
Oc1nc(N2CC[NH2+]CC2)nc(N2CCc3ccccc3C2)n1 (protonated)
Oc1nc(N2CC[NH2+]CC2)nc(N2CCc3ccccc3C2)n1 (3D coordinates assigned)
Oc1nc(N2CC[NH2+]CC2)nc(N2CCc3ccccc3C2)n1 (nonaromatic ring conformer: 48.14596656196317 kcal/mol)

>  <smiles>  (27) 
Oc1nc(N2CCNCC2)nc(N2CCc3ccccc3C2)n1

>  <score_type>  (27) 
oracle

>  <origin>  (27) 
autodockgpu

>  <m_score__min__energy>  (27) 
-7.0499999999999998

>  <m_primary>  (27) 
energy

>  <meeko>  (27) 
{"free_energy": -7.02, "intermolecular_energy": -7.91, "internal_energy": -0.36, "cluster_size": 20, "cluster_id": 1, "rank_in_cluster": 7}

>  <energy>  (27) 
-7.02

>  <cluster_rmsd>  (27) 
1.06

>  <rmsd>  (27) 
272.42

>  <cluster>  (27) 
1

$$$$
VOQKIUCZPHIEKY-VSZADFCQNA-O
     RDKit          3D

 44 47  0  0  0  0  0  0  0  0999 V2000
  137.5900   71.9000  219.4760 O   0  0  0  0  0  0  0  0  0  0  0  0
  138.5320   72.2900  220.4210 C   0  0  0  0  0  0  0  0  0  0  0  0
  139.3000   73.3850  220.1960 N   0  0  0  0  0  0  0  0  0  0  0  0
  140.2240   73.7790  221.1120 C   0  0  0  0  0  0  0  0  0  0  0  0
  141.0430   74.9440  220.8730 N   0  0  0  0  0  0  0  0  0  0  0  0
  140.5990   76.2630  221.3500 C   0  0  0  0  0  0  0  0  0  0  0  0
  141.1560   77.3770  220.4580 C   0  0  0  0  0  0  0  0  0  0  0  0
  142.6090   77.2410  220.2900 N   0  0  0  0  0  0  0  0  0  0  0  0
  142.9460   75.9560  219.6660 C   0  0  0  0  0  0  0  0  0  0  0  0
  142.4640   74.7830  220.5250 C   0  0  0  0  0  0  0  0  0  0  0  0
  140.3700   73.0580  222.2550 N   0  0  0  0  0  0  0  0  0  0  0  0
  139.6070   71.9580  222.4910 C   0  0  0  0  0  0  0  0  0  0  0  0
  139.7670   71.2000  223.7110 N   0  0  0  0  0  0  0  0  0  0  0  0
  139.5630   69.7420  223.7020 C   0  0  0  0  0  0  0  0  0  0  0  0
  138.9690   69.2760  225.0280 C   0  0  0  0  0  0  0  0  0  0  0  0
  139.8270   69.7340  226.1680 C   0  0  0  0  0  0  0  0  0  0  0  0
  139.9480   68.9480  227.3240 C   0  0  0  0  0  0  0  0  0  0  0  0
  140.7280   69.3890  228.3960 C   0  0  0  0  0  0  0  0  0  0  0  0
  141.3800   70.6220  228.3260 C   0  0  0  0  0  0  0  0  0  0  0  0
  141.2490   71.4190  227.1860 C   0  0  0  0  0  0  0  0  0  0  0  0
  140.4780   70.9820  226.0990 C   0  0  0  0  0  0  0  0  0  0  0  0
  140.3120   71.8860  224.8980 C   0  0  0  0  0  0  0  0  0  0  0  0
  138.6850   71.5790  221.5660 N   0  0  0  0  0  0  0  0  0  0  0  0
  137.8760   71.4890  218.5960 H   0  0  0  0  0  0  0  0  0  0  0  0
  139.4998   76.3021  221.3326 H   0  0  0  0  0  0  0  0  0  0  0  0
  140.9700   76.4117  222.3748 H   0  0  0  0  0  0  0  0  0  0  0  0
  140.6733   77.3226  219.4711 H   0  0  0  0  0  0  0  0  0  0  0  0
  140.9480   78.3455  220.9363 H   0  0  0  0  0  0  0  0  0  0  0  0
  142.9500   78.0150  219.6730 H   0  0  0  0  0  0  0  0  0  0  0  0
  143.0870   77.3250  221.2190 H   0  0  0  0  0  0  0  0  0  0  0  0
  142.4654   75.8993  218.6782 H   0  0  0  0  0  0  0  0  0  0  0  0
  144.0397   75.8912  219.5680 H   0  0  0  0  0  0  0  0  0  0  0  0
  142.5946   73.8462  219.9633 H   0  0  0  0  0  0  0  0  0  0  0  0
  143.0550   74.7568  221.4524 H   0  0  0  0  0  0  0  0  0  0  0  0
  138.8755   69.4779  222.8849 H   0  0  0  0  0  0  0  0  0  0  0  0
  140.5349   69.2482  223.5551 H   0  0  0  0  0  0  0  0  0  0  0  0
  137.9589   69.6965  225.1415 H   0  0  0  0  0  0  0  0  0  0  0  0
  138.9208   68.1771  225.0336 H   0  0  0  0  0  0  0  0  0  0  0  0
  139.4269   67.9812  227.3865 H   0  0  0  0  0  0  0  0  0  0  0  0
  140.8286   68.7645  229.2959 H   0  0  0  0  0  0  0  0  0  0  0  0
  141.9972   70.9660  229.1691 H   0  0  0  0  0  0  0  0  0  0  0  0
  141.7537   72.3953  227.1407 H   0  0  0  0  0  0  0  0  0  0  0  0
  139.6290   72.7040  225.1706 H   0  0  0  0  0  0  0  0  0  0  0  0
  141.3145   72.2493  224.6277 H   0  0  0  0  0  0  0  0  0  0  0  0
  1  2  1  0
  2  3  2  0
  3  4  1  0
  4  5  1  0
  5  6  1  0
  6  7  1  0
  7  8  1  0
  8  9  1  0
  9 10  1  0
  4 11  2  0
 11 12  1  0
 12 13  1  0
 13 14  1  0
 14 15  1  0
 15 16  1  0
 16 17  2  0
 17 18  1  0
 18 19  2  0
 19 20  1  0
 20 21  2  0
 21 22  1  0
 12 23  2  0
 23  2  1  0
 10  5  1  0
 22 13  1  0
 21 16  1  0
  1 24  1  0
  6 25  1  0
  6 26  1  0
  7 27  1  0
  7 28  1  0
  8 29  1  0
  8 30  1  0
  9 31  1  0
  9 32  1  0
 10 33  1  0
 10 34  1  0
 14 35  1  0
 14 36  1  0
 15 37  1  0
 15 38  1  0
 17 39  1  0
 18 40  1  0
 19 41  1  0
 20 42  1  0
 22 43  1  0
 22 44  1  0
M  CHG  1   8   1
M  END
>  <UniqueID>  (28) 
702

>  <SMILES>  (28) 
Oc1nc(N2CC[NH2+]CC2)nc(N2CCc3ccccc3C2)n1

>  <Energy>  (28) 
48.14596656196317

>  <Genealogy>  (28) 
Oc1nc(N2CC[NH2+]CC2)nc(N2CCc3ccccc3C2)n1 (protonated)
Oc1nc(N2CC[NH2+]CC2)nc(N2CCc3ccccc3C2)n1 (3D coordinates assigned)
Oc1nc(N2CC[NH2+]CC2)nc(N2CCc3ccccc3C2)n1 (nonaromatic ring conformer: 48.14596656196317 kcal/mol)

>  <smiles>  (28) 
Oc1nc(N2CCNCC2)nc(N2CCc3ccccc3C2)n1

>  <score_type>  (28) 
oracle

>  <origin>  (28) 
autodockgpu

>  <m_score__min__energy>  (28) 
-7.0499999999999998

>  <m_primary>  (28) 
energy

>  <meeko>  (28) 
{"free_energy": -7.01, "intermolecular_energy": -7.91, "internal_energy": -0.35, "cluster_size": 20, "cluster_id": 1, "rank_in_cluster": 8}

>  <energy>  (28) 
-7.01

>  <cluster_rmsd>  (28) 
1.19

>  <rmsd>  (28) 
272.4

>  <cluster>  (28) 
1

$$$$
VOQKIUCZPHIEKY-VSZADFCQNA-O
     RDKit          3D

 44 47  0  0  0  0  0  0  0  0999 V2000
  138.1920   71.7840  219.1540 O   0  0  0  0  0  0  0  0  0  0  0  0
  138.9240   72.2600  220.2360 C   0  0  0  0  0  0  0  0  0  0  0  0
  139.5580   73.4560  220.1480 N   0  0  0  0  0  0  0  0  0  0  0  0
  140.2760   73.9350  221.1970 C   0  0  0  0  0  0  0  0  0  0  0  0
  140.9520   75.2080  221.1050 N   0  0  0  0  0  0  0  0  0  0  0  0
  140.6180   76.2860  222.0490 C   0  0  0  0  0  0  0  0  0  0  0  0
  140.8570   77.6580  221.4100 C   0  0  0  0  0  0  0  0  0  0  0  0
  142.2040   77.7430  220.8320 N   0  0  0  0  0  0  0  0  0  0  0  0
  142.3930   76.7250  219.7910 C   0  0  0  0  0  0  0  0  0  0  0  0
  142.2170   75.3140  220.3620 C   0  0  0  0  0  0  0  0  0  0  0  0
  140.3540   73.1960  222.3360 N   0  0  0  0  0  0  0  0  0  0  0  0
  139.7250   71.9950  222.4360 C   0  0  0  0  0  0  0  0  0  0  0  0
  139.8110   71.2190  223.6510 N   0  0  0  0  0  0  0  0  0  0  0  0
  139.5760   69.7670  223.6130 C   0  0  0  0  0  0  0  0  0  0  0  0
  138.9090   69.2980  224.9040 C   0  0  0  0  0  0  0  0  0  0  0  0
  139.7230   69.7220  226.0880 C   0  0  0  0  0  0  0  0  0  0  0  0
  139.7710   68.9190  227.2390 C   0  0  0  0  0  0  0  0  0  0  0  0
  140.5100   69.3290  228.3520 C   0  0  0  0  0  0  0  0  0  0  0  0
  141.1910   70.5480  228.3290 C   0  0  0  0  0  0  0  0  0  0  0  0
  141.1310   71.3620  227.1950 C   0  0  0  0  0  0  0  0  0  0  0  0
  140.4030   70.9550  226.0660 C   0  0  0  0  0  0  0  0  0  0  0  0
  140.3140   71.8780  224.8720 C   0  0  0  0  0  0  0  0  0  0  0  0
  139.0080   71.5320  221.3770 N   0  0  0  0  0  0  0  0  0  0  0  0
  137.2610   72.1320  218.9640 H   0  0  0  0  0  0  0  0  0  0  0  0
  139.5593   76.2003  222.3352 H   0  0  0  0  0  0  0  0  0  0  0  0
  141.2617   76.1917  222.9360 H   0  0  0  0  0  0  0  0  0  0  0  0
  140.1139   77.8187  220.6151 H   0  0  0  0  0  0  0  0  0  0  0  0
  140.7613   78.4284  222.1893 H   0  0  0  0  0  0  0  0  0  0  0  0
  142.3260   78.6900  220.4020 H   0  0  0  0  0  0  0  0  0  0  0  0
  142.9250   77.6250  221.5830 H   0  0  0  0  0  0  0  0  0  0  0  0
  141.6526   76.8849  218.9933 H   0  0  0  0  0  0  0  0  0  0  0  0
  143.4146   76.8166  219.3937 H   0  0  0  0  0  0  0  0  0  0  0  0
  142.2123   74.5880  219.5356 H   0  0  0  0  0  0  0  0  0  0  0  0
  143.0497   75.1043  221.0495 H   0  0  0  0  0  0  0  0  0  0  0  0
  138.9226   69.5285  222.7609 H   0  0  0  0  0  0  0  0  0  0  0  0
  140.5428   69.2534  223.5058 H   0  0  0  0  0  0  0  0  0  0  0  0
  137.9045   69.7404  224.9760 H   0  0  0  0  0  0  0  0  0  0  0  0
  138.8349   68.2006  224.8927 H   0  0  0  0  0  0  0  0  0  0  0  0
  139.2252   67.9643  227.2646 H   0  0  0  0  0  0  0  0  0  0  0  0
  140.5553   68.6910  229.2469 H   0  0  0  0  0  0  0  0  0  0  0  0
  141.7752   70.8676  229.2045 H   0  0  0  0  0  0  0  0  0  0  0  0
  141.6575   72.3278  227.1869 H   0  0  0  0  0  0  0  0  0  0  0  0
  139.6366   72.7074  225.1235 H   0  0  0  0  0  0  0  0  0  0  0  0
  141.3356   72.2229  224.6545 H   0  0  0  0  0  0  0  0  0  0  0  0
  1  2  1  0
  2  3  2  0
  3  4  1  0
  4  5  1  0
  5  6  1  0
  6  7  1  0
  7  8  1  0
  8  9  1  0
  9 10  1  0
  4 11  2  0
 11 12  1  0
 12 13  1  0
 13 14  1  0
 14 15  1  0
 15 16  1  0
 16 17  2  0
 17 18  1  0
 18 19  2  0
 19 20  1  0
 20 21  2  0
 21 22  1  0
 12 23  2  0
 23  2  1  0
 10  5  1  0
 22 13  1  0
 21 16  1  0
  1 24  1  0
  6 25  1  0
  6 26  1  0
  7 27  1  0
  7 28  1  0
  8 29  1  0
  8 30  1  0
  9 31  1  0
  9 32  1  0
 10 33  1  0
 10 34  1  0
 14 35  1  0
 14 36  1  0
 15 37  1  0
 15 38  1  0
 17 39  1  0
 18 40  1  0
 19 41  1  0
 20 42  1  0
 22 43  1  0
 22 44  1  0
M  CHG  1   8   1
M  END
>  <UniqueID>  (29) 
702

>  <SMILES>  (29) 
Oc1nc(N2CC[NH2+]CC2)nc(N2CCc3ccccc3C2)n1

>  <Energy>  (29) 
48.14596656196317

>  <Genealogy>  (29) 
Oc1nc(N2CC[NH2+]CC2)nc(N2CCc3ccccc3C2)n1 (protonated)
Oc1nc(N2CC[NH2+]CC2)nc(N2CCc3ccccc3C2)n1 (3D coordinates assigned)
Oc1nc(N2CC[NH2+]CC2)nc(N2CCc3ccccc3C2)n1 (nonaromatic ring conformer: 48.14596656196317 kcal/mol)

>  <smiles>  (29) 
Oc1nc(N2CCNCC2)nc(N2CCc3ccccc3C2)n1

>  <score_type>  (29) 
oracle

>  <origin>  (29) 
autodockgpu

>  <m_score__min__energy>  (29) 
-7.0499999999999998

>  <m_primary>  (29) 
energy

>  <meeko>  (29) 
{"free_energy": -7.02, "intermolecular_energy": -7.91, "internal_energy": -0.36, "cluster_size": 20, "cluster_id": 1, "rank_in_cluster": 6}

>  <energy>  (29) 
-7.01

>  <cluster_rmsd>  (29) 
0.34

>  <rmsd>  (29) 
272.29

>  <cluster>  (29) 
1

$$$$
VOQKIUCZPHIEKY-VSZADFCQNA-O
     RDKit          3D

 44 47  0  0  0  0  0  0  0  0999 V2000
  137.3970   71.9970  219.6100 O   0  0  0  0  0  0  0  0  0  0  0  0
  138.3900   72.3440  220.5200 C   0  0  0  0  0  0  0  0  0  0  0  0
  139.1800   73.4190  220.2790 N   0  0  0  0  0  0  0  0  0  0  0  0
  140.1530   73.7710  221.1600 C   0  0  0  0  0  0  0  0  0  0  0  0
  140.9970   74.9160  220.9040 N   0  0  0  0  0  0  0  0  0  0  0  0
  140.5740   76.2520  221.3490 C   0  0  0  0  0  0  0  0  0  0  0  0
  141.1600   77.3360  220.4390 C   0  0  0  0  0  0  0  0  0  0  0  0
  142.6110   77.1700  220.2870 N   0  0  0  0  0  0  0  0  0  0  0  0
  142.9290   75.8640  219.6930 C   0  0  0  0  0  0  0  0  0  0  0  0
  142.4170   74.7200  220.5730 C   0  0  0  0  0  0  0  0  0  0  0  0
  140.3250   73.0280  222.2860 N   0  0  0  0  0  0  0  0  0  0  0  0
  139.5400   71.9470  222.5380 C   0  0  0  0  0  0  0  0  0  0  0  0
  139.7280   71.1660  223.7390 N   0  0  0  0  0  0  0  0  0  0  0  0
  139.5680   69.7040  223.6960 C   0  0  0  0  0  0  0  0  0  0  0  0
  138.9940   69.1880  225.0120 C   0  0  0  0  0  0  0  0  0  0  0  0
  139.8430   69.6450  226.1590 C   0  0  0  0  0  0  0  0  0  0  0  0
  139.9920   68.8360  227.2970 C   0  0  0  0  0  0  0  0  0  0  0  0
  140.7640   69.2740  228.3760 C   0  0  0  0  0  0  0  0  0  0  0  0
  141.3770   70.5270  228.3330 C   0  0  0  0  0  0  0  0  0  0  0  0
  141.2180   71.3470  227.2130 C   0  0  0  0  0  0  0  0  0  0  0  0
  140.4550   70.9130  226.1180 C   0  0  0  0  0  0  0  0  0  0  0  0
  140.2570   71.8400  224.9400 C   0  0  0  0  0  0  0  0  0  0  0  0
  138.5690   71.6110  221.6470 N   0  0  0  0  0  0  0  0  0  0  0  0
  136.5680   71.5000  219.9100 H   0  0  0  0  0  0  0  0  0  0  0  0
  139.4760   76.3113  221.3206 H   0  0  0  0  0  0  0  0  0  0  0  0
  140.9384   76.4154  222.3740 H   0  0  0  0  0  0  0  0  0  0  0  0
  140.6850   77.2696  219.4491 H   0  0  0  0  0  0  0  0  0  0  0  0
  140.9663   78.3180  220.8953 H   0  0  0  0  0  0  0  0  0  0  0  0
  142.9720   77.9230  219.6560 H   0  0  0  0  0  0  0  0  0  0  0  0
  143.0820   77.2640  221.2180 H   0  0  0  0  0  0  0  0  0  0  0  0
  142.4559   75.7949  218.7023 H   0  0  0  0  0  0  0  0  0  0  0  0
  144.0220   75.7761  219.6058 H   0  0  0  0  0  0  0  0  0  0  0  0
  142.5343   73.7687  220.0334 H   0  0  0  0  0  0  0  0  0  0  0  0
  142.9992   74.7029  221.5061 H   0  0  0  0  0  0  0  0  0  0  0  0
  138.8853   69.4390  222.8752 H   0  0  0  0  0  0  0  0  0  0  0  0
  140.5539   69.2438  223.5343 H   0  0  0  0  0  0  0  0  0  0  0  0
  137.9720   69.5743  225.1394 H   0  0  0  0  0  0  0  0  0  0  0  0
  138.9788   68.0883  224.9913 H   0  0  0  0  0  0  0  0  0  0  0  0
  139.4990   67.8536  227.3391 H   0  0  0  0  0  0  0  0  0  0  0  0
  140.8887   68.6310  229.2597 H   0  0  0  0  0  0  0  0  0  0  0  0
  141.9864   70.8696  229.1823 H   0  0  0  0  0  0  0  0  0  0  0  0
  141.6937   72.3386  227.1893 H   0  0  0  0  0  0  0  0  0  0  0  0
  139.5508   72.6302  225.2345 H   0  0  0  0  0  0  0  0  0  0  0  0
  141.2468   72.2401  224.6751 H   0  0  0  0  0  0  0  0  0  0  0  0
  1  2  1  0
  2  3  2  0
  3  4  1  0
  4  5  1  0
  5  6  1  0
  6  7  1  0
  7  8  1  0
  8  9  1  0
  9 10  1  0
  4 11  2  0
 11 12  1  0
 12 13  1  0
 13 14  1  0
 14 15  1  0
 15 16  1  0
 16 17  2  0
 17 18  1  0
 18 19  2  0
 19 20  1  0
 20 21  2  0
 21 22  1  0
 12 23  2  0
 23  2  1  0
 10  5  1  0
 22 13  1  0
 21 16  1  0
  1 24  1  0
  6 25  1  0
  6 26  1  0
  7 27  1  0
  7 28  1  0
  8 29  1  0
  8 30  1  0
  9 31  1  0
  9 32  1  0
 10 33  1  0
 10 34  1  0
 14 35  1  0
 14 36  1  0
 15 37  1  0
 15 38  1  0
 17 39  1  0
 18 40  1  0
 19 41  1  0
 20 42  1  0
 22 43  1  0
 22 44  1  0
M  CHG  1   8   1
M  END
>  <UniqueID>  (30) 
702

>  <SMILES>  (30) 
Oc1nc(N2CC[NH2+]CC2)nc(N2CCc3ccccc3C2)n1

>  <Energy>  (30) 
48.14596656196317

>  <Genealogy>  (30) 
Oc1nc(N2CC[NH2+]CC2)nc(N2CCc3ccccc3C2)n1 (protonated)
Oc1nc(N2CC[NH2+]CC2)nc(N2CCc3ccccc3C2)n1 (3D coordinates assigned)
Oc1nc(N2CC[NH2+]CC2)nc(N2CCc3ccccc3C2)n1 (nonaromatic ring conformer: 48.14596656196317 kcal/mol)

>  <smiles>  (30) 
Oc1nc(N2CCNCC2)nc(N2CCc3ccccc3C2)n1

>  <score_type>  (30) 
oracle

>  <origin>  (30) 
autodockgpu

>  <m_score__min__energy>  (30) 
-7.0499999999999998

>  <m_primary>  (30) 
energy

>  <meeko>  (30) 
{"free_energy": -7.0, "intermolecular_energy": -7.9, "internal_energy": -0.36, "cluster_size": 20, "cluster_id": 1, "rank_in_cluster": 12}

>  <energy>  (30) 
-7.01

>  <cluster_rmsd>  (30) 
0.99

>  <rmsd>  (30) 
272.43

>  <cluster>  (30) 
1

$$$$
VOQKIUCZPHIEKY-VSZADFCQNA-O
     RDKit          3D

 44 47  0  0  0  0  0  0  0  0999 V2000
  138.2250   71.5520  218.9530 O   0  0  0  0  0  0  0  0  0  0  0  0
  139.0250   72.0280  219.9870 C   0  0  0  0  0  0  0  0  0  0  0  0
  139.7810   73.1370  219.7980 N   0  0  0  0  0  0  0  0  0  0  0  0
  140.5670   73.6150  220.7990 C   0  0  0  0  0  0  0  0  0  0  0  0
  141.3740   74.7960  220.5990 N   0  0  0  0  0  0  0  0  0  0  0  0
  140.8340   76.1200  220.9460 C   0  0  0  0  0  0  0  0  0  0  0  0
  141.4630   77.2070  220.0700 C   0  0  0  0  0  0  0  0  0  0  0  0
  142.9290   77.1170  220.0880 N   0  0  0  0  0  0  0  0  0  0  0  0
  143.3800   75.8150  219.5810 C   0  0  0  0  0  0  0  0  0  0  0  0
  142.8310   74.6700  220.4370 C   0  0  0  0  0  0  0  0  0  0  0  0
  140.5860   72.9620  221.9920 N   0  0  0  0  0  0  0  0  0  0  0  0
  139.8340   71.8480  222.1920 C   0  0  0  0  0  0  0  0  0  0  0  0
  139.8580   71.1640  223.4640 N   0  0  0  0  0  0  0  0  0  0  0  0
  139.5570   69.7240  223.5300 C   0  0  0  0  0  0  0  0  0  0  0  0
  138.8430   69.3850  224.8350 C   0  0  0  0  0  0  0  0  0  0  0  0
  139.6510   69.8610  226.0040 C   0  0  0  0  0  0  0  0  0  0  0  0
  139.6380   69.1470  227.2120 C   0  0  0  0  0  0  0  0  0  0  0  0
  140.3720   69.6070  228.3090 C   0  0  0  0  0  0  0  0  0  0  0  0
  141.1090   70.7890  228.2110 C   0  0  0  0  0  0  0  0  0  0  0  0
  141.1110   71.5160  227.0190 C   0  0  0  0  0  0  0  0  0  0  0  0
  140.3880   71.0580  225.9060 C   0  0  0  0  0  0  0  0  0  0  0  0
  140.3660   71.8900  224.6440 C   0  0  0  0  0  0  0  0  0  0  0  0
  139.0520   71.3850  221.1810 N   0  0  0  0  0  0  0  0  0  0  0  0
  138.2970   71.9390  218.0210 H   0  0  0  0  0  0  0  0  0  0  0  0
  139.7448   76.1175  220.7921 H   0  0  0  0  0  0  0  0  0  0  0  0
  141.0700   76.3335  221.9990 H   0  0  0  0  0  0  0  0  0  0  0  0
  141.1081   77.0853  219.0360 H   0  0  0  0  0  0  0  0  0  0  0  0
  141.1681   78.1898  220.4664 H   0  0  0  0  0  0  0  0  0  0  0  0
  143.3200   77.8710  219.4760 H   0  0  0  0  0  0  0  0  0  0  0  0
  143.2850   77.2650  221.0630 H   0  0  0  0  0  0  0  0  0  0  0  0
  143.0279   75.6908  218.5463 H   0  0  0  0  0  0  0  0  0  0  0  0
  144.4789   75.7858  219.6215 H   0  0  0  0  0  0  0  0  0  0  0  0
  143.0586   73.7116  219.9475 H   0  0  0  0  0  0  0  0  0  0  0  0
  143.3028   74.7122  221.4298 H   0  0  0  0  0  0  0  0  0  0  0  0
  138.9112   69.4503  222.6827 H   0  0  0  0  0  0  0  0  0  0  0  0
  140.5012   69.1615  223.4853 H   0  0  0  0  0  0  0  0  0  0  0  0
  137.8588   69.8760  224.8492 H   0  0  0  0  0  0  0  0  0  0  0  0
  138.7187   68.2942  224.9041 H   0  0  0  0  0  0  0  0  0  0  0  0
  139.0482   68.2223  227.2959 H   0  0  0  0  0  0  0  0  0  0  0  0
  140.3691   69.0375  229.2501 H   0  0  0  0  0  0  0  0  0  0  0  0
  141.6888   71.1479  229.0741 H   0  0  0  0  0  0  0  0  0  0  0  0
  141.6826   72.4534  226.9515 H   0  0  0  0  0  0  0  0  0  0  0  0
  139.7230   72.7657  224.8164 H   0  0  0  0  0  0  0  0  0  0  0  0
  141.4070   72.1704  224.4255 H   0  0  0  0  0  0  0  0  0  0  0  0
  1  2  1  0
  2  3  2  0
  3  4  1  0
  4  5  1  0
  5  6  1  0
  6  7  1  0
  7  8  1  0
  8  9  1  0
  9 10  1  0
  4 11  2  0
 11 12  1  0
 12 13  1  0
 13 14  1  0
 14 15  1  0
 15 16  1  0
 16 17  2  0
 17 18  1  0
 18 19  2  0
 19 20  1  0
 20 21  2  0
 21 22  1  0
 12 23  2  0
 23  2  1  0
 10  5  1  0
 22 13  1  0
 21 16  1  0
  1 24  1  0
  6 25  1  0
  6 26  1  0
  7 27  1  0
  7 28  1  0
  8 29  1  0
  8 30  1  0
  9 31  1  0
  9 32  1  0
 10 33  1  0
 10 34  1  0
 14 35  1  0
 14 36  1  0
 15 37  1  0
 15 38  1  0
 17 39  1  0
 18 40  1  0
 19 41  1  0
 20 42  1  0
 22 43  1  0
 22 44  1  0
M  CHG  1   8   1
M  END
>  <UniqueID>  (31) 
702

>  <SMILES>  (31) 
Oc1nc(N2CC[NH2+]CC2)nc(N2CCc3ccccc3C2)n1

>  <Energy>  (31) 
48.14596656196317

>  <Genealogy>  (31) 
Oc1nc(N2CC[NH2+]CC2)nc(N2CCc3ccccc3C2)n1 (protonated)
Oc1nc(N2CC[NH2+]CC2)nc(N2CCc3ccccc3C2)n1 (3D coordinates assigned)
Oc1nc(N2CC[NH2+]CC2)nc(N2CCc3ccccc3C2)n1 (nonaromatic ring conformer: 48.14596656196317 kcal/mol)

>  <smiles>  (31) 
Oc1nc(N2CCNCC2)nc(N2CCc3ccccc3C2)n1

>  <score_type>  (31) 
oracle

>  <origin>  (31) 
autodockgpu

>  <m_score__min__energy>  (31) 
-7.0499999999999998

>  <m_primary>  (31) 
energy

>  <meeko>  (31) 
{"free_energy": -6.98, "intermolecular_energy": -7.88, "internal_energy": -0.35, "cluster_size": 20, "cluster_id": 1, "rank_in_cluster": 17}

>  <energy>  (31) 
-7.01

>  <cluster_rmsd>  (31) 
1.46

>  <rmsd>  (31) 
272.46

>  <cluster>  (31) 
1

$$$$
VOQKIUCZPHIEKY-VSZADFCQNA-O
     RDKit          3D

 44 47  0  0  0  0  0  0  0  0999 V2000
  136.1430   73.5590  220.9280 O   0  0  0  0  0  0  0  0  0  0  0  0
  137.4400   73.4460  221.4180 C   0  0  0  0  0  0  0  0  0  0  0  0
  138.3730   74.3680  221.0740 N   0  0  0  0  0  0  0  0  0  0  0  0
  139.6440   74.2710  221.5460 C   0  0  0  0  0  0  0  0  0  0  0  0
  140.6400   75.2520  221.1810 N   0  0  0  0  0  0  0  0  0  0  0  0
  140.5270   76.6320  221.6780 C   0  0  0  0  0  0  0  0  0  0  0  0
  141.1750   77.6150  220.6980 C   0  0  0  0  0  0  0  0  0  0  0  0
  142.5400   77.1960  220.3550 N   0  0  0  0  0  0  0  0  0  0  0  0
  142.5370   75.8690  219.7240 C   0  0  0  0  0  0  0  0  0  0  0  0
  141.9450   74.8140  220.6630 C   0  0  0  0  0  0  0  0  0  0  0  0
  139.9680   73.2350  222.3650 N   0  0  0  0  0  0  0  0  0  0  0  0
  139.0410   72.3040  222.7140 C   0  0  0  0  0  0  0  0  0  0  0  0
  139.3940   71.2080  223.5880 N   0  0  0  0  0  0  0  0  0  0  0  0
  139.5740   69.8560  223.0340 C   0  0  0  0  0  0  0  0  0  0  0  0
  139.1230   68.8010  224.0400 C   0  0  0  0  0  0  0  0  0  0  0  0
  139.8360   68.9930  225.3440 C   0  0  0  0  0  0  0  0  0  0  0  0
  140.1580   67.8860  226.1440 C   0  0  0  0  0  0  0  0  0  0  0  0
  140.8000   68.0680  227.3720 C   0  0  0  0  0  0  0  0  0  0  0  0
  141.1100   69.3560  227.8140 C   0  0  0  0  0  0  0  0  0  0  0  0
  140.7760   70.4640  227.0320 C   0  0  0  0  0  0  0  0  0  0  0  0
  140.1420   70.2920  225.7910 C   0  0  0  0  0  0  0  0  0  0  0  0
  139.7460   71.5110  224.9880 C   0  0  0  0  0  0  0  0  0  0  0  0
  137.7740   72.4170  222.2360 N   0  0  0  0  0  0  0  0  0  0  0  0
  135.9710   73.7020  219.9410 H   0  0  0  0  0  0  0  0  0  0  0  0
  139.4636   76.8875  221.7956 H   0  0  0  0  0  0  0  0  0  0  0  0
  141.0458   76.7032  222.6454 H   0  0  0  0  0  0  0  0  0  0  0  0
  140.5708   77.6579  219.7798 H   0  0  0  0  0  0  0  0  0  0  0  0
  141.2227   78.6047  221.1757 H   0  0  0  0  0  0  0  0  0  0  0  0
  142.9450   77.8870  219.6820 H   0  0  0  0  0  0  0  0  0  0  0  0
  143.1380   77.1820  221.2150 H   0  0  0  0  0  0  0  0  0  0  0  0
  141.9350   75.9098  218.8042 H   0  0  0  0  0  0  0  0  0  0  0  0
  143.5756   75.5889  219.4939 H   0  0  0  0  0  0  0  0  0  0  0  0
  141.8164   73.8711  220.1113 H   0  0  0  0  0  0  0  0  0  0  0  0
  142.6314   74.6701  221.5104 H   0  0  0  0  0  0  0  0  0  0  0  0
  138.9767   69.7589  222.1154 H   0  0  0  0  0  0  0  0  0  0  0  0
  140.6402   69.7021  222.8115 H   0  0  0  0  0  0  0  0  0  0  0  0
  138.0388   68.8926  224.2015 H   0  0  0  0  0  0  0  0  0  0  0  0
  139.3600   67.8024  223.6443 H   0  0  0  0  0  0  0  0  0  0  0  0
  139.9042   66.8713  225.8034 H   0  0  0  0  0  0  0  0  0  0  0  0
  141.0612   67.1966  227.9905 H   0  0  0  0  0  0  0  0  0  0  0  0
  141.6179   69.4980  228.7793 H   0  0  0  0  0  0  0  0  0  0  0  0
  141.0110   71.4771  227.3903 H   0  0  0  0  0  0  0  0  0  0  0  0
  138.8757   71.9783  225.4719 H   0  0  0  0  0  0  0  0  0  0  0  0
  140.6200   72.1785  224.9633 H   0  0  0  0  0  0  0  0  0  0  0  0
  1  2  1  0
  2  3  2  0
  3  4  1  0
  4  5  1  0
  5  6  1  0
  6  7  1  0
  7  8  1  0
  8  9  1  0
  9 10  1  0
  4 11  2  0
 11 12  1  0
 12 13  1  0
 13 14  1  0
 14 15  1  0
 15 16  1  0
 16 17  2  0
 17 18  1  0
 18 19  2  0
 19 20  1  0
 20 21  2  0
 21 22  1  0
 12 23  2  0
 23  2  1  0
 10  5  1  0
 22 13  1  0
 21 16  1  0
  1 24  1  0
  6 25  1  0
  6 26  1  0
  7 27  1  0
  7 28  1  0
  8 29  1  0
  8 30  1  0
  9 31  1  0
  9 32  1  0
 10 33  1  0
 10 34  1  0
 14 35  1  0
 14 36  1  0
 15 37  1  0
 15 38  1  0
 17 39  1  0
 18 40  1  0
 19 41  1  0
 20 42  1  0
 22 43  1  0
 22 44  1  0
M  CHG  1   8   1
M  END
>  <UniqueID>  (32) 
702

>  <SMILES>  (32) 
Oc1nc(N2CC[NH2+]CC2)nc(N2CCc3ccccc3C2)n1

>  <Energy>  (32) 
48.14596656196317

>  <Genealogy>  (32) 
Oc1nc(N2CC[NH2+]CC2)nc(N2CCc3ccccc3C2)n1 (protonated)
Oc1nc(N2CC[NH2+]CC2)nc(N2CCc3ccccc3C2)n1 (3D coordinates assigned)
Oc1nc(N2CC[NH2+]CC2)nc(N2CCc3ccccc3C2)n1 (nonaromatic ring conformer: 48.14596656196317 kcal/mol)

>  <smiles>  (32) 
Oc1nc(N2CCNCC2)nc(N2CCc3ccccc3C2)n1

>  <score_type>  (32) 
oracle

>  <origin>  (32) 
autodockgpu

>  <m_score__min__energy>  (32) 
-7.0499999999999998

>  <m_primary>  (32) 
energy

>  <meeko>  (32) 
{"free_energy": -7.05, "intermolecular_energy": -7.95, "internal_energy": -0.35, "cluster_size": 20, "cluster_id": 1, "rank_in_cluster": 1}

>  <energy>  (32) 
-7.0

>  <cluster_rmsd>  (32) 
1.03

>  <rmsd>  (32) 
272.4

>  <cluster>  (32) 
1

$$$$
VOQKIUCZPHIEKY-VSZADFCQNA-O
     RDKit          3D

 44 47  0  0  0  0  0  0  0  0999 V2000
  138.6500   71.6100  218.9450 O   0  0  0  0  0  0  0  0  0  0  0  0
  139.2600   72.1440  220.0750 C   0  0  0  0  0  0  0  0  0  0  0  0
  139.8450   73.3650  220.0120 N   0  0  0  0  0  0  0  0  0  0  0  0
  140.4430   73.9000  221.1090 C   0  0  0  0  0  0  0  0  0  0  0  0
  141.0680   75.2020  221.0430 N   0  0  0  0  0  0  0  0  0  0  0  0
  140.6680   76.2550  221.9880 C   0  0  0  0  0  0  0  0  0  0  0  0
  140.8640   77.6420  221.3680 C   0  0  0  0  0  0  0  0  0  0  0  0
  142.2200   77.7890  220.8220 N   0  0  0  0  0  0  0  0  0  0  0  0
  142.4740   76.7890  219.7770 C   0  0  0  0  0  0  0  0  0  0  0  0
  142.3450   75.3670  220.3310 C   0  0  0  0  0  0  0  0  0  0  0  0
  140.4500   73.1920  222.2690 N   0  0  0  0  0  0  0  0  0  0  0  0
  139.8690   71.9650  222.3440 C   0  0  0  0  0  0  0  0  0  0  0  0
  139.8790   71.2220  223.5820 N   0  0  0  0  0  0  0  0  0  0  0  0
  139.5680   69.7830  223.5770 C   0  0  0  0  0  0  0  0  0  0  0  0
  138.8410   69.3870  224.8590 C   0  0  0  0  0  0  0  0  0  0  0  0
  139.6420   69.8020  226.0560 C   0  0  0  0  0  0  0  0  0  0  0  0
  139.6150   69.0320  227.2290 C   0  0  0  0  0  0  0  0  0  0  0  0
  140.3420   69.4340  228.3520 C   0  0  0  0  0  0  0  0  0  0  0  0
  141.0870   70.6150  228.3160 C   0  0  0  0  0  0  0  0  0  0  0  0
  141.1040   71.3970  227.1590 C   0  0  0  0  0  0  0  0  0  0  0  0
  140.3870   70.9970  226.0200 C   0  0  0  0  0  0  0  0  0  0  0  0
  140.3810   71.8880  224.7990 C   0  0  0  0  0  0  0  0  0  0  0  0
  139.2720   71.4460  221.2380 N   0  0  0  0  0  0  0  0  0  0  0  0
  138.5880   70.6080  218.8120 H   0  0  0  0  0  0  0  0  0  0  0  0
  139.6075   76.1225  222.2485 H   0  0  0  0  0  0  0  0  0  0  0  0
  141.2948   76.1785  222.8887 H   0  0  0  0  0  0  0  0  0  0  0  0
  140.1332   77.7800  220.5575 H   0  0  0  0  0  0  0  0  0  0  0  0
  140.7184   78.3996  222.1521 H   0  0  0  0  0  0  0  0  0  0  0  0
  142.3120   78.7430  220.4040 H   0  0  0  0  0  0  0  0  0  0  0  0
  142.9270   77.6930  221.5890 H   0  0  0  0  0  0  0  0  0  0  0  0
  141.7451   76.9254  218.9645 H   0  0  0  0  0  0  0  0  0  0  0  0
  143.4996   76.9267  219.4038 H   0  0  0  0  0  0  0  0  0  0  0  0
  142.3900   74.6493  219.4986 H   0  0  0  0  0  0  0  0  0  0  0  0
  143.1698   75.1850  221.0357 H   0  0  0  0  0  0  0  0  0  0  0  0
  138.9273   69.5545  222.7126 H   0  0  0  0  0  0  0  0  0  0  0  0
  140.5088   69.2167  223.5130 H   0  0  0  0  0  0  0  0  0  0  0  0
  137.8596   69.8830  224.8885 H   0  0  0  0  0  0  0  0  0  0  0  0
  138.7098   68.2950  224.8752 H   0  0  0  0  0  0  0  0  0  0  0  0
  139.0189   68.1082  227.2642 H   0  0  0  0  0  0  0  0  0  0  0  0
  140.3278   68.8204  229.2649 H   0  0  0  0  0  0  0  0  0  0  0  0
  141.6610   70.9295  229.2001 H   0  0  0  0  0  0  0  0  0  0  0  0
  141.6828   72.3322  227.1399 H   0  0  0  0  0  0  0  0  0  0  0  0
  139.7418   72.7586  225.0074 H   0  0  0  0  0  0  0  0  0  0  0  0
  141.4254   72.1720  224.6028 H   0  0  0  0  0  0  0  0  0  0  0  0
  1  2  1  0
  2  3  2  0
  3  4  1  0
  4  5  1  0
  5  6  1  0
  6  7  1  0
  7  8  1  0
  8  9  1  0
  9 10  1  0
  4 11  2  0
 11 12  1  0
 12 13  1  0
 13 14  1  0
 14 15  1  0
 15 16  1  0
 16 17  2  0
 17 18  1  0
 18 19  2  0
 19 20  1  0
 20 21  2  0
 21 22  1  0
 12 23  2  0
 23  2  1  0
 10  5  1  0
 22 13  1  0
 21 16  1  0
  1 24  1  0
  6 25  1  0
  6 26  1  0
  7 27  1  0
  7 28  1  0
  8 29  1  0
  8 30  1  0
  9 31  1  0
  9 32  1  0
 10 33  1  0
 10 34  1  0
 14 35  1  0
 14 36  1  0
 15 37  1  0
 15 38  1  0
 17 39  1  0
 18 40  1  0
 19 41  1  0
 20 42  1  0
 22 43  1  0
 22 44  1  0
M  CHG  1   8   1
M  END
>  <UniqueID>  (33) 
702

>  <SMILES>  (33) 
Oc1nc(N2CC[NH2+]CC2)nc(N2CCc3ccccc3C2)n1

>  <Energy>  (33) 
48.14596656196317

>  <Genealogy>  (33) 
Oc1nc(N2CC[NH2+]CC2)nc(N2CCc3ccccc3C2)n1 (protonated)
Oc1nc(N2CC[NH2+]CC2)nc(N2CCc3ccccc3C2)n1 (3D coordinates assigned)
Oc1nc(N2CC[NH2+]CC2)nc(N2CCc3ccccc3C2)n1 (nonaromatic ring conformer: 48.14596656196317 kcal/mol)

>  <smiles>  (33) 
Oc1nc(N2CCNCC2)nc(N2CCc3ccccc3C2)n1

>  <score_type>  (33) 
oracle

>  <origin>  (33) 
autodockgpu

>  <m_score__min__energy>  (33) 
-7.0499999999999998

>  <m_primary>  (33) 
energy

>  <meeko>  (33) 
{"free_energy": -7.0, "intermolecular_energy": -7.89, "internal_energy": -0.36, "cluster_size": 20, "cluster_id": 1, "rank_in_cluster": 14}

>  <energy>  (33) 
-7.0

>  <cluster_rmsd>  (33) 
1.17

>  <rmsd>  (33) 
272.39

>  <cluster>  (33) 
1

$$$$
VOQKIUCZPHIEKY-VSZADFCQNA-O
     RDKit          3D

 44 47  0  0  0  0  0  0  0  0999 V2000
  137.9810   71.7500  219.1890 O   0  0  0  0  0  0  0  0  0  0  0  0
  138.8020   72.2060  220.2150 C   0  0  0  0  0  0  0  0  0  0  0  0
  139.5040   73.3550  220.0560 N   0  0  0  0  0  0  0  0  0  0  0  0
  140.3090   73.8140  221.0510 C   0  0  0  0  0  0  0  0  0  0  0  0
  141.0580   75.0380  220.8830 N   0  0  0  0  0  0  0  0  0  0  0  0
  140.8300   76.1680  221.7970 C   0  0  0  0  0  0  0  0  0  0  0  0
  141.1280   77.4980  221.0980 C   0  0  0  0  0  0  0  0  0  0  0  0
  142.4530   77.4770  220.4650 N   0  0  0  0  0  0  0  0  0  0  0  0
  142.5350   76.4110  219.4570 C   0  0  0  0  0  0  0  0  0  0  0  0
  142.2960   75.0360  220.0880 C   0  0  0  0  0  0  0  0  0  0  0  0
  140.4030   73.1020  222.2050 N   0  0  0  0  0  0  0  0  0  0  0  0
  139.7060   71.9480  222.3750 C   0  0  0  0  0  0  0  0  0  0  0  0
  139.8100   71.2010  223.6070 N   0  0  0  0  0  0  0  0  0  0  0  0
  139.5830   69.7460  223.6060 C   0  0  0  0  0  0  0  0  0  0  0  0
  138.9340   69.3040  224.9140 C   0  0  0  0  0  0  0  0  0  0  0  0
  139.7590   69.7600  226.0790 C   0  0  0  0  0  0  0  0  0  0  0  0
  139.8250   68.9840  227.2470 C   0  0  0  0  0  0  0  0  0  0  0  0
  140.5740   69.4240  228.3420 C   0  0  0  0  0  0  0  0  0  0  0  0
  141.2480   70.6450  228.2830 C   0  0  0  0  0  0  0  0  0  0  0  0
  141.1710   71.4320  227.1310 C   0  0  0  0  0  0  0  0  0  0  0  0
  140.4310   70.9960  226.0210 C   0  0  0  0  0  0  0  0  0  0  0  0
  140.3230   71.8900  224.8060 C   0  0  0  0  0  0  0  0  0  0  0  0
  138.9030   71.5050  221.3710 N   0  0  0  0  0  0  0  0  0  0  0  0
  136.9760   71.8580  219.2410 H   0  0  0  0  0  0  0  0  0  0  0  0
  139.7804   76.1602  222.1261 H   0  0  0  0  0  0  0  0  0  0  0  0
  141.5018   76.0646  222.6619 H   0  0  0  0  0  0  0  0  0  0  0  0
  140.3643   77.6778  220.3270 H   0  0  0  0  0  0  0  0  0  0  0  0
  141.1131   78.2997  221.8511 H   0  0  0  0  0  0  0  0  0  0  0  0
  142.6150   78.3970  219.9950 H   0  0  0  0  0  0  0  0  0  0  0  0
  143.1950   77.3400  221.1920 H   0  0  0  0  0  0  0  0  0  0  0  0
  141.7733   76.5886  218.6835 H   0  0  0  0  0  0  0  0  0  0  0  0
  143.5431   76.4230  219.0169 H   0  0  0  0  0  0  0  0  0  0  0  0
  142.2124   74.2824  219.2911 H   0  0  0  0  0  0  0  0  0  0  0  0
  143.1417   74.7983  220.7501 H   0  0  0  0  0  0  0  0  0  0  0  0
  138.9214   69.4837  222.7672 H   0  0  0  0  0  0  0  0  0  0  0  0
  140.5516   69.2356  223.5000 H   0  0  0  0  0  0  0  0  0  0  0  0
  137.9278   69.7425  224.9871 H   0  0  0  0  0  0  0  0  0  0  0  0
  138.8663   68.2062  224.9290 H   0  0  0  0  0  0  0  0  0  0  0  0
  139.2856   68.0268  227.3006 H   0  0  0  0  0  0  0  0  0  0  0  0
  140.6324   68.8075  229.2511 H   0  0  0  0  0  0  0  0  0  0  0  0
  141.8403   70.9879  229.1442 H   0  0  0  0  0  0  0  0  0  0  0  0
  141.6936   72.3992  227.0938 H   0  0  0  0  0  0  0  0  0  0  0  0
  139.6441   72.7216  225.0459 H   0  0  0  0  0  0  0  0  0  0  0  0
  141.3404   72.2342  224.5685 H   0  0  0  0  0  0  0  0  0  0  0  0
  1  2  1  0
  2  3  2  0
  3  4  1  0
  4  5  1  0
  5  6  1  0
  6  7  1  0
  7  8  1  0
  8  9  1  0
  9 10  1  0
  4 11  2  0
 11 12  1  0
 12 13  1  0
 13 14  1  0
 14 15  1  0
 15 16  1  0
 16 17  2  0
 17 18  1  0
 18 19  2  0
 19 20  1  0
 20 21  2  0
 21 22  1  0
 12 23  2  0
 23  2  1  0
 10  5  1  0
 22 13  1  0
 21 16  1  0
  1 24  1  0
  6 25  1  0
  6 26  1  0
  7 27  1  0
  7 28  1  0
  8 29  1  0
  8 30  1  0
  9 31  1  0
  9 32  1  0
 10 33  1  0
 10 34  1  0
 14 35  1  0
 14 36  1  0
 15 37  1  0
 15 38  1  0
 17 39  1  0
 18 40  1  0
 19 41  1  0
 20 42  1  0
 22 43  1  0
 22 44  1  0
M  CHG  1   8   1
M  END
>  <UniqueID>  (34) 
702

>  <SMILES>  (34) 
Oc1nc(N2CC[NH2+]CC2)nc(N2CCc3ccccc3C2)n1

>  <Energy>  (34) 
48.14596656196317

>  <Genealogy>  (34) 
Oc1nc(N2CC[NH2+]CC2)nc(N2CCc3ccccc3C2)n1 (protonated)
Oc1nc(N2CC[NH2+]CC2)nc(N2CCc3ccccc3C2)n1 (3D coordinates assigned)
Oc1nc(N2CC[NH2+]CC2)nc(N2CCc3ccccc3C2)n1 (nonaromatic ring conformer: 48.14596656196317 kcal/mol)

>  <smiles>  (34) 
Oc1nc(N2CCNCC2)nc(N2CCc3ccccc3C2)n1

>  <score_type>  (34) 
oracle

>  <origin>  (34) 
autodockgpu

>  <m_score__min__energy>  (34) 
-7.0499999999999998

>  <m_primary>  (34) 
energy

>  <meeko>  (34) 
{"free_energy": -6.99, "intermolecular_energy": -7.89, "internal_energy": -0.36, "cluster_size": 20, "cluster_id": 1, "rank_in_cluster": 16}

>  <energy>  (34) 
-7.0

>  <cluster_rmsd>  (34) 
1.57

>  <rmsd>  (34) 
272.48

>  <cluster>  (34) 
1

$$$$
VOQKIUCZPHIEKY-VSZADFCQNA-O
     RDKit          3D

 44 47  0  0  0  0  0  0  0  0999 V2000
  137.6050   71.9930  219.7530 O   0  0  0  0  0  0  0  0  0  0  0  0
  138.5980   72.3830  220.6460 C   0  0  0  0  0  0  0  0  0  0  0  0
  139.3340   73.4930  220.3930 N   0  0  0  0  0  0  0  0  0  0  0  0
  140.3060   73.8880  221.2570 C   0  0  0  0  0  0  0  0  0  0  0  0
  141.0910   75.0710  220.9880 N   0  0  0  0  0  0  0  0  0  0  0  0
  140.7150   76.3550  221.5990 C   0  0  0  0  0  0  0  0  0  0  0  0
  141.1570   77.5250  220.7140 C   0  0  0  0  0  0  0  0  0  0  0  0
  142.5750   77.4080  220.3540 N   0  0  0  0  0  0  0  0  0  0  0  0
  142.8270   76.1650  219.6130 C   0  0  0  0  0  0  0  0  0  0  0  0
  142.4550   74.9380  220.4520 C   0  0  0  0  0  0  0  0  0  0  0  0
  140.5320   73.1520  222.3770 N   0  0  0  0  0  0  0  0  0  0  0  0
  139.8030   72.0350  222.6410 C   0  0  0  0  0  0  0  0  0  0  0  0
  140.0490   71.2620  223.8350 N   0  0  0  0  0  0  0  0  0  0  0  0
  140.7050   71.8890  224.9940 C   0  0  0  0  0  0  0  0  0  0  0  0
  141.5800   70.8760  225.7280 C   0  0  0  0  0  0  0  0  0  0  0  0
  140.7710   69.6720  226.1020 C   0  0  0  0  0  0  0  0  0  0  0  0
  141.0550   68.9660  227.2820 C   0  0  0  0  0  0  0  0  0  0  0  0
  140.3160   67.8280  227.6170 C   0  0  0  0  0  0  0  0  0  0  0  0
  139.3020   67.3790  226.7690 C   0  0  0  0  0  0  0  0  0  0  0  0
  139.0260   68.0640  225.5830 C   0  0  0  0  0  0  0  0  0  0  0  0
  139.7530   69.2160  225.2420 C   0  0  0  0  0  0  0  0  0  0  0  0
  139.4670   69.9090  223.9290 C   0  0  0  0  0  0  0  0  0  0  0  0
  138.8320   71.6570  221.7670 N   0  0  0  0  0  0  0  0  0  0  0  0
  137.7760   71.9910  218.7560 H   0  0  0  0  0  0  0  0  0  0  0  0
  139.6227   76.3893  221.7242 H   0  0  0  0  0  0  0  0  0  0  0  0
  141.2136   76.4418  222.5756 H   0  0  0  0  0  0  0  0  0  0  0  0
  140.5521   77.5292  219.7953 H   0  0  0  0  0  0  0  0  0  0  0  0
  141.0146   78.4607  221.2745 H   0  0  0  0  0  0  0  0  0  0  0  0
  142.8360   78.2200  219.7470 H   0  0  0  0  0  0  0  0  0  0  0  0
  143.1680   77.4360  221.2170 H   0  0  0  0  0  0  0  0  0  0  0  0
  142.2247   76.1670  218.6926 H   0  0  0  0  0  0  0  0  0  0  0  0
  143.8992   76.1124  219.3731 H   0  0  0  0  0  0  0  0  0  0  0  0
  142.5093   74.0387  219.8210 H   0  0  0  0  0  0  0  0  0  0  0  0
  143.1598   74.8563  221.2925 H   0  0  0  0  0  0  0  0  0  0  0  0
  141.3316   72.7239  224.6470 H   0  0  0  0  0  0  0  0  0  0  0  0
  139.9312   72.2559  225.6844 H   0  0  0  0  0  0  0  0  0  0  0  0
  142.4083   70.5685  225.0728 H   0  0  0  0  0  0  0  0  0  0  0  0
  141.9783   71.3401  226.6423 H   0  0  0  0  0  0  0  0  0  0  0  0
  141.8623   69.3099  227.9454 H   0  0  0  0  0  0  0  0  0  0  0  0
  140.5334   67.2860  228.5492 H   0  0  0  0  0  0  0  0  0  0  0  0
  138.7195   66.4846  227.0350 H   0  0  0  0  0  0  0  0  0  0  0  0
  138.2344   67.6987  224.9123 H   0  0  0  0  0  0  0  0  0  0  0  0
  139.8803   69.2955  223.1149 H   0  0  0  0  0  0  0  0  0  0  0  0
  138.3753   70.0220  223.8554 H   0  0  0  0  0  0  0  0  0  0  0  0
  1  2  1  0
  2  3  2  0
  3  4  1  0
  4  5  1  0
  5  6  1  0
  6  7  1  0
  7  8  1  0
  8  9  1  0
  9 10  1  0
  4 11  2  0
 11 12  1  0
 12 13  1  0
 13 14  1  0
 14 15  1  0
 15 16  1  0
 16 17  2  0
 17 18  1  0
 18 19  2  0
 19 20  1  0
 20 21  2  0
 21 22  1  0
 12 23  2  0
 23  2  1  0
 10  5  1  0
 22 13  1  0
 21 16  1  0
  1 24  1  0
  6 25  1  0
  6 26  1  0
  7 27  1  0
  7 28  1  0
  8 29  1  0
  8 30  1  0
  9 31  1  0
  9 32  1  0
 10 33  1  0
 10 34  1  0
 14 35  1  0
 14 36  1  0
 15 37  1  0
 15 38  1  0
 17 39  1  0
 18 40  1  0
 19 41  1  0
 20 42  1  0
 22 43  1  0
 22 44  1  0
M  CHG  1   8   1
M  END
>  <UniqueID>  (35) 
702

>  <SMILES>  (35) 
Oc1nc(N2CC[NH2+]CC2)nc(N2CCc3ccccc3C2)n1

>  <Energy>  (35) 
48.14596656196317

>  <Genealogy>  (35) 
Oc1nc(N2CC[NH2+]CC2)nc(N2CCc3ccccc3C2)n1 (protonated)
Oc1nc(N2CC[NH2+]CC2)nc(N2CCc3ccccc3C2)n1 (3D coordinates assigned)
Oc1nc(N2CC[NH2+]CC2)nc(N2CCc3ccccc3C2)n1 (nonaromatic ring conformer: 48.14596656196317 kcal/mol)

>  <smiles>  (35) 
Oc1nc(N2CCNCC2)nc(N2CCc3ccccc3C2)n1

>  <score_type>  (35) 
oracle

>  <origin>  (35) 
autodockgpu

>  <m_score__min__energy>  (35) 
-7.0499999999999998

>  <m_primary>  (35) 
energy

>  <meeko>  (35) 
{"free_energy": -7.03, "intermolecular_energy": -7.92, "internal_energy": -0.35, "cluster_size": 20, "cluster_id": 1, "rank_in_cluster": 3}

>  <energy>  (35) 
-6.99

>  <cluster_rmsd>  (35) 
1.54

>  <rmsd>  (35) 
272.35

>  <cluster>  (35) 
1

$$$$
VOQKIUCZPHIEKY-VSZADFCQNA-O
     RDKit          3D

 44 47  0  0  0  0  0  0  0  0999 V2000
  137.2640   72.1490  219.7530 O   0  0  0  0  0  0  0  0  0  0  0  0
  138.2990   72.4570  220.6290 C   0  0  0  0  0  0  0  0  0  0  0  0
  139.1080   73.5140  220.3710 N   0  0  0  0  0  0  0  0  0  0  0  0
  140.1230   73.8280  221.2190 C   0  0  0  0  0  0  0  0  0  0  0  0
  140.9860   74.9540  220.9450 N   0  0  0  0  0  0  0  0  0  0  0  0
  140.5970   76.3020  221.3860 C   0  0  0  0  0  0  0  0  0  0  0  0
  141.1930   77.3670  220.4620 C   0  0  0  0  0  0  0  0  0  0  0  0
  142.6380   77.1710  220.2930 N   0  0  0  0  0  0  0  0  0  0  0  0
  142.9220   75.8560  219.7040 C   0  0  0  0  0  0  0  0  0  0  0  0
  142.3980   74.7270  220.5970 C   0  0  0  0  0  0  0  0  0  0  0  0
  140.3180   73.0660  222.3270 N   0  0  0  0  0  0  0  0  0  0  0  0
  139.5150   72.0020  222.5950 C   0  0  0  0  0  0  0  0  0  0  0  0
  139.7270   71.2000  223.7780 N   0  0  0  0  0  0  0  0  0  0  0  0
  139.5850   69.7370  223.7080 C   0  0  0  0  0  0  0  0  0  0  0  0
  139.0340   69.1890  225.0210 C   0  0  0  0  0  0  0  0  0  0  0  0
  139.8920   69.6330  226.1660 C   0  0  0  0  0  0  0  0  0  0  0  0
  140.0650   68.8030  227.2850 C   0  0  0  0  0  0  0  0  0  0  0  0
  140.8460   69.2300  228.3630 C   0  0  0  0  0  0  0  0  0  0  0  0
  141.4440   70.4910  228.3370 C   0  0  0  0  0  0  0  0  0  0  0  0
  141.2600   71.3310  227.2360 C   0  0  0  0  0  0  0  0  0  0  0  0
  140.4880   70.9090  226.1420 C   0  0  0  0  0  0  0  0  0  0  0  0
  140.2640   71.8560  224.9850 C   0  0  0  0  0  0  0  0  0  0  0  0
  138.5020   71.7040  221.7390 N   0  0  0  0  0  0  0  0  0  0  0  0
  137.4270   72.0870  218.7570 H   0  0  0  0  0  0  0  0  0  0  0  0
  139.5002   76.3842  221.3713 H   0  0  0  0  0  0  0  0  0  0  0  0
  140.9785   76.4644  222.4049 H   0  0  0  0  0  0  0  0  0  0  0  0
  140.7044   77.3036  219.4785 H   0  0  0  0  0  0  0  0  0  0  0  0
  141.0249   78.3556  220.9141 H   0  0  0  0  0  0  0  0  0  0  0  0
  143.0060   77.9120  219.6530 H   0  0  0  0  0  0  0  0  0  0  0  0
  143.1230   77.2610  221.2170 H   0  0  0  0  0  0  0  0  0  0  0  0
  142.4355   75.7906  218.7196 H   0  0  0  0  0  0  0  0  0  0  0  0
  144.0119   75.7457  219.6047 H   0  0  0  0  0  0  0  0  0  0  0  0
  142.4889   73.7706  220.0612 H   0  0  0  0  0  0  0  0  0  0  0  0
  142.9917   74.7028  221.5227 H   0  0  0  0  0  0  0  0  0  0  0  0
  138.8955   69.4791  222.8906 H   0  0  0  0  0  0  0  0  0  0  0  0
  140.5743   69.2924  223.5248 H   0  0  0  0  0  0  0  0  0  0  0  0
  138.0094   69.5610  225.1688 H   0  0  0  0  0  0  0  0  0  0  0  0
  139.0313   68.0898  224.9789 H   0  0  0  0  0  0  0  0  0  0  0  0
  139.5846   67.8138  227.3136 H   0  0  0  0  0  0  0  0  0  0  0  0
  140.9894   68.5717  229.2325 H   0  0  0  0  0  0  0  0  0  0  0  0
  142.0610   70.8238  229.1847 H   0  0  0  0  0  0  0  0  0  0  0  0
  141.7227   72.3289  227.2262 H   0  0  0  0  0  0  0  0  0  0  0  0
  139.5528   72.6322  225.3041 H   0  0  0  0  0  0  0  0  0  0  0  0
  141.2458   72.2722  224.7151 H   0  0  0  0  0  0  0  0  0  0  0  0
  1  2  1  0
  2  3  2  0
  3  4  1  0
  4  5  1  0
  5  6  1  0
  6  7  1  0
  7  8  1  0
  8  9  1  0
  9 10  1  0
  4 11  2  0
 11 12  1  0
 12 13  1  0
 13 14  1  0
 14 15  1  0
 15 16  1  0
 16 17  2  0
 17 18  1  0
 18 19  2  0
 19 20  1  0
 20 21  2  0
 21 22  1  0
 12 23  2  0
 23  2  1  0
 10  5  1  0
 22 13  1  0
 21 16  1  0
  1 24  1  0
  6 25  1  0
  6 26  1  0
  7 27  1  0
  7 28  1  0
  8 29  1  0
  8 30  1  0
  9 31  1  0
  9 32  1  0
 10 33  1  0
 10 34  1  0
 14 35  1  0
 14 36  1  0
 15 37  1  0
 15 38  1  0
 17 39  1  0
 18 40  1  0
 19 41  1  0
 20 42  1  0
 22 43  1  0
 22 44  1  0
M  CHG  1   8   1
M  END
>  <UniqueID>  (36) 
702

>  <SMILES>  (36) 
Oc1nc(N2CC[NH2+]CC2)nc(N2CCc3ccccc3C2)n1

>  <Energy>  (36) 
48.14596656196317

>  <Genealogy>  (36) 
Oc1nc(N2CC[NH2+]CC2)nc(N2CCc3ccccc3C2)n1 (protonated)
Oc1nc(N2CC[NH2+]CC2)nc(N2CCc3ccccc3C2)n1 (3D coordinates assigned)
Oc1nc(N2CC[NH2+]CC2)nc(N2CCc3ccccc3C2)n1 (nonaromatic ring conformer: 48.14596656196317 kcal/mol)

>  <smiles>  (36) 
Oc1nc(N2CCNCC2)nc(N2CCc3ccccc3C2)n1

>  <score_type>  (36) 
oracle

>  <origin>  (36) 
autodockgpu

>  <m_score__min__energy>  (36) 
-7.0499999999999998

>  <m_primary>  (36) 
energy

>  <meeko>  (36) 
{"free_energy": -7.01, "intermolecular_energy": -7.91, "internal_energy": -0.35, "cluster_size": 20, "cluster_id": 1, "rank_in_cluster": 10}

>  <energy>  (36) 
-6.99

>  <cluster_rmsd>  (36) 
1.21

>  <rmsd>  (36) 
272.39

>  <cluster>  (36) 
1

$$$$
VOQKIUCZPHIEKY-VSZADFCQNA-O
     RDKit          3D

 44 47  0  0  0  0  0  0  0  0999 V2000
  138.4960   71.6740  219.0010 O   0  0  0  0  0  0  0  0  0  0  0  0
  139.1420   72.1890  220.1190 C   0  0  0  0  0  0  0  0  0  0  0  0
  139.7430   73.4030  220.0520 N   0  0  0  0  0  0  0  0  0  0  0  0
  140.3770   73.9190  221.1370 C   0  0  0  0  0  0  0  0  0  0  0  0
  141.0180   75.2120  221.0670 N   0  0  0  0  0  0  0  0  0  0  0  0
  140.6660   76.2590  222.0390 C   0  0  0  0  0  0  0  0  0  0  0  0
  140.8620   77.6500  221.4290 C   0  0  0  0  0  0  0  0  0  0  0  0
  142.2010   77.7850  220.8400 N   0  0  0  0  0  0  0  0  0  0  0  0
  142.4050   76.7950  219.7740 C   0  0  0  0  0  0  0  0  0  0  0  0
  142.2730   75.3680  220.3150 C   0  0  0  0  0  0  0  0  0  0  0  0
  140.4040   73.2000  222.2910 N   0  0  0  0  0  0  0  0  0  0  0  0
  139.8070   71.9810  222.3700 C   0  0  0  0  0  0  0  0  0  0  0  0
  139.8370   71.2260  223.6010 N   0  0  0  0  0  0  0  0  0  0  0  0
  139.5530   69.7820  223.5840 C   0  0  0  0  0  0  0  0  0  0  0  0
  138.8410   69.3610  224.8670 C   0  0  0  0  0  0  0  0  0  0  0  0
  139.6420   69.7800  226.0620 C   0  0  0  0  0  0  0  0  0  0  0  0
  139.6360   68.9980  227.2280 C   0  0  0  0  0  0  0  0  0  0  0  0
  140.3620   69.4030  228.3510 C   0  0  0  0  0  0  0  0  0  0  0  0
  141.0850   70.5980  228.3220 C   0  0  0  0  0  0  0  0  0  0  0  0
  141.0800   71.3910  227.1720 C   0  0  0  0  0  0  0  0  0  0  0  0
  140.3640   70.9880  226.0340 C   0  0  0  0  0  0  0  0  0  0  0  0
  140.3350   71.8910  224.8210 C   0  0  0  0  0  0  0  0  0  0  0  0
  139.1740   71.4810  221.2750 N   0  0  0  0  0  0  0  0  0  0  0  0
  137.7030   72.1530  218.5930 H   0  0  0  0  0  0  0  0  0  0  0  0
  139.6131   76.1389  222.3340 H   0  0  0  0  0  0  0  0  0  0  0  0
  141.3212   76.1618  222.9172 H   0  0  0  0  0  0  0  0  0  0  0  0
  140.1069   77.8081  220.6449 H   0  0  0  0  0  0  0  0  0  0  0  0
  140.7538   78.3998  222.2266 H   0  0  0  0  0  0  0  0  0  0  0  0
  142.2930   78.7430  220.4310 H   0  0  0  0  0  0  0  0  0  0  0  0
  142.9320   77.6690  221.5810 H   0  0  0  0  0  0  0  0  0  0  0  0
  141.6515   76.9526  218.9882 H   0  0  0  0  0  0  0  0  0  0  0  0
  143.4193   76.9225  219.3678 H   0  0  0  0  0  0  0  0  0  0  0  0
  142.2799   74.6603  219.4729 H   0  0  0  0  0  0  0  0  0  0  0  0
  143.1177   75.1656  220.9899 H   0  0  0  0  0  0  0  0  0  0  0  0
  138.9114   69.5496  222.7212 H   0  0  0  0  0  0  0  0  0  0  0  0
  140.5037   69.2337  223.5089 H   0  0  0  0  0  0  0  0  0  0  0  0
  137.8509   69.8386  224.9071 H   0  0  0  0  0  0  0  0  0  0  0  0
  138.7294   68.2667  224.8742 H   0  0  0  0  0  0  0  0  0  0  0  0
  139.0575   68.0629  227.2576 H   0  0  0  0  0  0  0  0  0  0  0  0
  140.3643   68.7808  229.2581 H   0  0  0  0  0  0  0  0  0  0  0  0
  141.6587   70.9148  229.2055 H   0  0  0  0  0  0  0  0  0  0  0  0
  141.6407   72.3372  227.1582 H   0  0  0  0  0  0  0  0  0  0  0  0
  139.6817   72.7482  225.0411 H   0  0  0  0  0  0  0  0  0  0  0  0
  141.3728   72.1963  224.6212 H   0  0  0  0  0  0  0  0  0  0  0  0
  1  2  1  0
  2  3  2  0
  3  4  1  0
  4  5  1  0
  5  6  1  0
  6  7  1  0
  7  8  1  0
  8  9  1  0
  9 10  1  0
  4 11  2  0
 11 12  1  0
 12 13  1  0
 13 14  1  0
 14 15  1  0
 15 16  1  0
 16 17  2  0
 17 18  1  0
 18 19  2  0
 19 20  1  0
 20 21  2  0
 21 22  1  0
 12 23  2  0
 23  2  1  0
 10  5  1  0
 22 13  1  0
 21 16  1  0
  1 24  1  0
  6 25  1  0
  6 26  1  0
  7 27  1  0
  7 28  1  0
  8 29  1  0
  8 30  1  0
  9 31  1  0
  9 32  1  0
 10 33  1  0
 10 34  1  0
 14 35  1  0
 14 36  1  0
 15 37  1  0
 15 38  1  0
 17 39  1  0
 18 40  1  0
 19 41  1  0
 20 42  1  0
 22 43  1  0
 22 44  1  0
M  CHG  1   8   1
M  END
>  <UniqueID>  (37) 
702

>  <SMILES>  (37) 
Oc1nc(N2CC[NH2+]CC2)nc(N2CCc3ccccc3C2)n1

>  <Energy>  (37) 
48.14596656196317

>  <Genealogy>  (37) 
Oc1nc(N2CC[NH2+]CC2)nc(N2CCc3ccccc3C2)n1 (protonated)
Oc1nc(N2CC[NH2+]CC2)nc(N2CCc3ccccc3C2)n1 (3D coordinates assigned)
Oc1nc(N2CC[NH2+]CC2)nc(N2CCc3ccccc3C2)n1 (nonaromatic ring conformer: 48.14596656196317 kcal/mol)

>  <smiles>  (37) 
Oc1nc(N2CCNCC2)nc(N2CCc3ccccc3C2)n1

>  <score_type>  (37) 
oracle

>  <origin>  (37) 
autodockgpu

>  <m_score__min__energy>  (37) 
-7.0499999999999998

>  <m_primary>  (37) 
energy

>  <meeko>  (37) 
{"free_energy": -7.03, "intermolecular_energy": -7.93, "internal_energy": -0.35, "cluster_size": 20, "cluster_id": 1, "rank_in_cluster": 2}

>  <energy>  (37) 
-6.98

>  <cluster_rmsd>  (37) 
1.49

>  <rmsd>  (37) 
272.27

>  <cluster>  (37) 
1

$$$$
VOQKIUCZPHIEKY-VSZADFCQNA-O
     RDKit          3D

 44 47  0  0  0  0  0  0  0  0999 V2000
  137.3470   72.0420  219.6650 O   0  0  0  0  0  0  0  0  0  0  0  0
  138.3540   72.3780  220.5630 C   0  0  0  0  0  0  0  0  0  0  0  0
  139.1480   73.4490  220.3160 N   0  0  0  0  0  0  0  0  0  0  0  0
  140.1350   73.7900  221.1850 C   0  0  0  0  0  0  0  0  0  0  0  0
  140.9820   74.9310  220.9230 N   0  0  0  0  0  0  0  0  0  0  0  0
  140.5820   76.2650  221.3950 C   0  0  0  0  0  0  0  0  0  0  0  0
  141.1550   77.3560  220.4850 C   0  0  0  0  0  0  0  0  0  0  0  0
  142.6000   77.1800  220.2960 N   0  0  0  0  0  0  0  0  0  0  0  0
  142.8930   75.8800  219.6780 C   0  0  0  0  0  0  0  0  0  0  0  0
  142.3920   74.7280  220.5550 C   0  0  0  0  0  0  0  0  0  0  0  0
  140.3190   73.0400  222.3040 N   0  0  0  0  0  0  0  0  0  0  0  0
  139.5310   71.9620  222.5610 C   0  0  0  0  0  0  0  0  0  0  0  0
  139.7320   71.1730  223.7540 N   0  0  0  0  0  0  0  0  0  0  0  0
  139.5720   69.7110  223.7030 C   0  0  0  0  0  0  0  0  0  0  0  0
  139.0120   69.1860  225.0220 C   0  0  0  0  0  0  0  0  0  0  0  0
  139.8730   69.6350  226.1630 C   0  0  0  0  0  0  0  0  0  0  0  0
  140.0340   68.8180  227.2930 C   0  0  0  0  0  0  0  0  0  0  0  0
  140.8160   69.2490  228.3670 C   0  0  0  0  0  0  0  0  0  0  0  0
  141.4290   70.5030  228.3270 C   0  0  0  0  0  0  0  0  0  0  0  0
  141.2580   71.3300  227.2140 C   0  0  0  0  0  0  0  0  0  0  0  0
  140.4840   70.9030  226.1240 C   0  0  0  0  0  0  0  0  0  0  0  0
  140.2730   71.8380  224.9540 C   0  0  0  0  0  0  0  0  0  0  0  0
  138.5460   71.6370  221.6820 N   0  0  0  0  0  0  0  0  0  0  0  0
  137.5540   71.8850  218.6870 H   0  0  0  0  0  0  0  0  0  0  0  0
  139.4842   76.3340  221.3943 H   0  0  0  0  0  0  0  0  0  0  0  0
  140.9731   76.4119  222.4126 H   0  0  0  0  0  0  0  0  0  0  0  0
  140.6558   77.3064  219.5061 H   0  0  0  0  0  0  0  0  0  0  0  0
  140.9806   78.3336  220.9582 H   0  0  0  0  0  0  0  0  0  0  0  0
  142.9520   77.9380  219.6660 H   0  0  0  0  0  0  0  0  0  0  0  0
  143.0950   77.2580  221.2160 H   0  0  0  0  0  0  0  0  0  0  0  0
  142.3964   75.8279  218.6979 H   0  0  0  0  0  0  0  0  0  0  0  0
  143.9829   75.7845  219.5642 H   0  0  0  0  0  0  0  0  0  0  0  0
  142.4881   73.7832  219.9999 H   0  0  0  0  0  0  0  0  0  0  0  0
  142.9962   74.6936  221.4735 H   0  0  0  0  0  0  0  0  0  0  0  0
  138.8808   69.4511  222.8877 H   0  0  0  0  0  0  0  0  0  0  0  0
  140.5563   69.2523  223.5278 H   0  0  0  0  0  0  0  0  0  0  0  0
  137.9914   69.5715  225.1629 H   0  0  0  0  0  0  0  0  0  0  0  0
  138.9967   68.0865  224.9940 H   0  0  0  0  0  0  0  0  0  0  0  0
  139.5425   67.8347  227.3328 H   0  0  0  0  0  0  0  0  0  0  0  0
  140.9491   68.6000  229.2451 H   0  0  0  0  0  0  0  0  0  0  0  0
  142.0469   70.8399  229.1723 H   0  0  0  0  0  0  0  0  0  0  0  0
  141.7330   72.3219  227.1919 H   0  0  0  0  0  0  0  0  0  0  0  0
  139.5695   72.6258  225.2614 H   0  0  0  0  0  0  0  0  0  0  0  0
  141.2600   72.2399  224.6815 H   0  0  0  0  0  0  0  0  0  0  0  0
  1  2  1  0
  2  3  2  0
  3  4  1  0
  4  5  1  0
  5  6  1  0
  6  7  1  0
  7  8  1  0
  8  9  1  0
  9 10  1  0
  4 11  2  0
 11 12  1  0
 12 13  1  0
 13 14  1  0
 14 15  1  0
 15 16  1  0
 16 17  2  0
 17 18  1  0
 18 19  2  0
 19 20  1  0
 20 21  2  0
 21 22  1  0
 12 23  2  0
 23  2  1  0
 10  5  1  0
 22 13  1  0
 21 16  1  0
  1 24  1  0
  6 25  1  0
  6 26  1  0
  7 27  1  0
  7 28  1  0
  8 29  1  0
  8 30  1  0
  9 31  1  0
  9 32  1  0
 10 33  1  0
 10 34  1  0
 14 35  1  0
 14 36  1  0
 15 37  1  0
 15 38  1  0
 17 39  1  0
 18 40  1  0
 19 41  1  0
 20 42  1  0
 22 43  1  0
 22 44  1  0
M  CHG  1   8   1
M  END
>  <UniqueID>  (38) 
702

>  <SMILES>  (38) 
Oc1nc(N2CC[NH2+]CC2)nc(N2CCc3ccccc3C2)n1

>  <Energy>  (38) 
48.14596656196317

>  <Genealogy>  (38) 
Oc1nc(N2CC[NH2+]CC2)nc(N2CCc3ccccc3C2)n1 (protonated)
Oc1nc(N2CC[NH2+]CC2)nc(N2CCc3ccccc3C2)n1 (3D coordinates assigned)
Oc1nc(N2CC[NH2+]CC2)nc(N2CCc3ccccc3C2)n1 (nonaromatic ring conformer: 48.14596656196317 kcal/mol)

>  <smiles>  (38) 
Oc1nc(N2CCNCC2)nc(N2CCc3ccccc3C2)n1

>  <score_type>  (38) 
oracle

>  <origin>  (38) 
autodockgpu

>  <m_score__min__energy>  (38) 
-7.0499999999999998

>  <m_primary>  (38) 
energy

>  <meeko>  (38) 
{"free_energy": -7.02, "intermolecular_energy": -7.92, "internal_energy": -0.35, "cluster_size": 20, "cluster_id": 1, "rank_in_cluster": 4}

>  <energy>  (38) 
-6.98

>  <cluster_rmsd>  (38) 
0.91

>  <rmsd>  (38) 
272.26

>  <cluster>  (38) 
1

$$$$
VOQKIUCZPHIEKY-VSZADFCQNA-O
     RDKit          3D

 44 47  0  0  0  0  0  0  0  0999 V2000
  137.4650   72.0090  219.5870 O   0  0  0  0  0  0  0  0  0  0  0  0
  138.4410   72.3660  220.5100 C   0  0  0  0  0  0  0  0  0  0  0  0
  139.2250   73.4480  220.2780 N   0  0  0  0  0  0  0  0  0  0  0  0
  140.1830   73.8100  221.1710 C   0  0  0  0  0  0  0  0  0  0  0  0
  141.0200   74.9620  220.9250 N   0  0  0  0  0  0  0  0  0  0  0  0
  140.6730   76.2610  221.5210 C   0  0  0  0  0  0  0  0  0  0  0  0
  141.1850   77.4110  220.6480 C   0  0  0  0  0  0  0  0  0  0  0  0
  142.6090   77.2400  220.3310 N   0  0  0  0  0  0  0  0  0  0  0  0
  142.8360   75.9870  219.6010 C   0  0  0  0  0  0  0  0  0  0  0  0
  142.3930   74.7780  220.4310 C   0  0  0  0  0  0  0  0  0  0  0  0
  140.3460   73.0710  222.3010 N   0  0  0  0  0  0  0  0  0  0  0  0
  139.5680   71.9830  222.5440 C   0  0  0  0  0  0  0  0  0  0  0  0
  139.7460   71.2060  223.7490 N   0  0  0  0  0  0  0  0  0  0  0  0
  139.5670   69.7460  223.7140 C   0  0  0  0  0  0  0  0  0  0  0  0
  138.9870   69.2450  225.0340 C   0  0  0  0  0  0  0  0  0  0  0  0
  139.8440   69.6960  226.1770 C   0  0  0  0  0  0  0  0  0  0  0  0
  139.9830   68.8910  227.3190 C   0  0  0  0  0  0  0  0  0  0  0  0
  140.7620   69.3250  228.3950 C   0  0  0  0  0  0  0  0  0  0  0  0
  141.3920   70.5700  228.3450 C   0  0  0  0  0  0  0  0  0  0  0  0
  141.2430   71.3850  227.2200 C   0  0  0  0  0  0  0  0  0  0  0  0
  140.4730   70.9550  226.1280 C   0  0  0  0  0  0  0  0  0  0  0  0
  140.2860   71.8790  224.9460 C   0  0  0  0  0  0  0  0  0  0  0  0
  138.6130   71.6370  221.6410 N   0  0  0  0  0  0  0  0  0  0  0  0
  137.5760   71.1890  219.0040 H   0  0  0  0  0  0  0  0  0  0  0  0
  139.5793   76.3360  221.6121 H   0  0  0  0  0  0  0  0  0  0  0  0
  141.1442   76.3326  222.5124 H   0  0  0  0  0  0  0  0  0  0  0  0
  140.6087   77.4353  219.7113 H   0  0  0  0  0  0  0  0  0  0  0  0
  141.0609   78.3529  221.2024 H   0  0  0  0  0  0  0  0  0  0  0  0
  142.9180   78.0400  219.7310 H   0  0  0  0  0  0  0  0  0  0  0  0
  143.1760   77.2500  221.2120 H   0  0  0  0  0  0  0  0  0  0  0  0
  142.2621   76.0086  218.6628 H   0  0  0  0  0  0  0  0  0  0  0  0
  143.9122   75.8933  219.3934 H   0  0  0  0  0  0  0  0  0  0  0  0
  142.4333   73.8751  219.8039 H   0  0  0  0  0  0  0  0  0  0  0  0
  143.0683   74.6741  221.2931 H   0  0  0  0  0  0  0  0  0  0  0  0
  138.8803   69.4853  222.8951 H   0  0  0  0  0  0  0  0  0  0  0  0
  140.5466   69.2720  223.5540 H   0  0  0  0  0  0  0  0  0  0  0  0
  137.9708   69.6466  225.1606 H   0  0  0  0  0  0  0  0  0  0  0  0
  138.9558   68.1455  225.0193 H   0  0  0  0  0  0  0  0  0  0  0  0
  139.4770   67.9154  227.3669 H   0  0  0  0  0  0  0  0  0  0  0  0
  140.8789   68.6852  229.2821 H   0  0  0  0  0  0  0  0  0  0  0  0
  142.0062   70.9095  229.1921 H   0  0  0  0  0  0  0  0  0  0  0  0
  141.7322   72.3698  227.1899 H   0  0  0  0  0  0  0  0  0  0  0  0
  139.5910   72.6802  225.2376 H   0  0  0  0  0  0  0  0  0  0  0  0
  141.2807   72.2646  224.6778 H   0  0  0  0  0  0  0  0  0  0  0  0
  1  2  1  0
  2  3  2  0
  3  4  1  0
  4  5  1  0
  5  6  1  0
  6  7  1  0
  7  8  1  0
  8  9  1  0
  9 10  1  0
  4 11  2  0
 11 12  1  0
 12 13  1  0
 13 14  1  0
 14 15  1  0
 15 16  1  0
 16 17  2  0
 17 18  1  0
 18 19  2  0
 19 20  1  0
 20 21  2  0
 21 22  1  0
 12 23  2  0
 23  2  1  0
 10  5  1  0
 22 13  1  0
 21 16  1  0
  1 24  1  0
  6 25  1  0
  6 26  1  0
  7 27  1  0
  7 28  1  0
  8 29  1  0
  8 30  1  0
  9 31  1  0
  9 32  1  0
 10 33  1  0
 10 34  1  0
 14 35  1  0
 14 36  1  0
 15 37  1  0
 15 38  1  0
 17 39  1  0
 18 40  1  0
 19 41  1  0
 20 42  1  0
 22 43  1  0
 22 44  1  0
M  CHG  1   8   1
M  END
>  <UniqueID>  (39) 
702

>  <SMILES>  (39) 
Oc1nc(N2CC[NH2+]CC2)nc(N2CCc3ccccc3C2)n1

>  <Energy>  (39) 
48.14596656196317

>  <Genealogy>  (39) 
Oc1nc(N2CC[NH2+]CC2)nc(N2CCc3ccccc3C2)n1 (protonated)
Oc1nc(N2CC[NH2+]CC2)nc(N2CCc3ccccc3C2)n1 (3D coordinates assigned)
Oc1nc(N2CC[NH2+]CC2)nc(N2CCc3ccccc3C2)n1 (nonaromatic ring conformer: 48.14596656196317 kcal/mol)

>  <smiles>  (39) 
Oc1nc(N2CCNCC2)nc(N2CCc3ccccc3C2)n1

>  <score_type>  (39) 
oracle

>  <origin>  (39) 
autodockgpu

>  <m_score__min__energy>  (39) 
-7.0499999999999998

>  <m_primary>  (39) 
energy

>  <meeko>  (39) 
{"free_energy": -7.02, "intermolecular_energy": -7.91, "internal_energy": -0.35, "cluster_size": 20, "cluster_id": 1, "rank_in_cluster": 5}

>  <energy>  (39) 
-6.98

>  <cluster_rmsd>  (39) 
1.48

>  <rmsd>  (39) 
272.27

>  <cluster>  (39) 
1

$$$$
VOQKIUCZPHIEKY-VSZADFCQNA-O
     RDKit          3D

 44 47  0  0  0  0  0  0  0  0999 V2000
  138.6640   71.4050  218.8530 O   0  0  0  0  0  0  0  0  0  0  0  0
  139.2950   71.9640  219.9590 C   0  0  0  0  0  0  0  0  0  0  0  0
  139.9230   73.1590  219.8450 N   0  0  0  0  0  0  0  0  0  0  0  0
  140.5430   73.7180  220.9170 C   0  0  0  0  0  0  0  0  0  0  0  0
  141.2140   74.9920  220.7970 N   0  0  0  0  0  0  0  0  0  0  0  0
  140.8870   76.0840  221.7260 C   0  0  0  0  0  0  0  0  0  0  0  0
  141.1150   77.4460  221.0630 C   0  0  0  0  0  0  0  0  0  0  0  0
  142.4560   77.5250  220.4690 N   0  0  0  0  0  0  0  0  0  0  0  0
  142.6360   76.4910  219.4430 C   0  0  0  0  0  0  0  0  0  0  0  0
  142.4710   75.0890  220.0390 C   0  0  0  0  0  0  0  0  0  0  0  0
  140.5260   73.0590  222.1070 N   0  0  0  0  0  0  0  0  0  0  0  0
  139.9010   71.8590  222.2330 C   0  0  0  0  0  0  0  0  0  0  0  0
  139.8860   71.1690  223.5020 N   0  0  0  0  0  0  0  0  0  0  0  0
  139.5460   69.7370  223.5550 C   0  0  0  0  0  0  0  0  0  0  0  0
  138.8010   69.4110  224.8470 C   0  0  0  0  0  0  0  0  0  0  0  0
  139.6010   69.8600  226.0310 C   0  0  0  0  0  0  0  0  0  0  0  0
  139.5490   69.1410  227.2350 C   0  0  0  0  0  0  0  0  0  0  0  0
  140.2770   69.5760  228.3460 C   0  0  0  0  0  0  0  0  0  0  0  0
  141.0460   70.7380  228.2670 C   0  0  0  0  0  0  0  0  0  0  0  0
  141.0880   71.4700  227.0780 C   0  0  0  0  0  0  0  0  0  0  0  0
  140.3710   71.0370  225.9520 C   0  0  0  0  0  0  0  0  0  0  0  0
  140.3930   71.8750  224.6930 C   0  0  0  0  0  0  0  0  0  0  0  0
  139.2840   71.3160  221.1500 N   0  0  0  0  0  0  0  0  0  0  0  0
  137.8330   70.8370  218.9600 H   0  0  0  0  0  0  0  0  0  0  0  0
  139.8317   76.0000  222.0247 H   0  0  0  0  0  0  0  0  0  0  0  0
  141.5406   76.0060  222.6073 H   0  0  0  0  0  0  0  0  0  0  0  0
  140.3629   77.5922  220.2737 H   0  0  0  0  0  0  0  0  0  0  0  0
  141.0254   78.2286  221.8308 H   0  0  0  0  0  0  0  0  0  0  0  0
  142.5700   78.4650  220.0230 H   0  0  0  0  0  0  0  0  0  0  0  0
  143.1850   77.4220  221.2150 H   0  0  0  0  0  0  0  0  0  0  0  0
  141.8859   76.6356  218.6515 H   0  0  0  0  0  0  0  0  0  0  0  0
  143.6527   76.5790  219.0324 H   0  0  0  0  0  0  0  0  0  0  0  0
  142.4600   74.3493  219.2249 H   0  0  0  0  0  0  0  0  0  0  0  0
  143.3117   74.8929  220.7208 H   0  0  0  0  0  0  0  0  0  0  0  0
  138.9075   69.4846  222.6956 H   0  0  0  0  0  0  0  0  0  0  0  0
  140.4755   69.1496  223.5228 H   0  0  0  0  0  0  0  0  0  0  0  0
  137.8300   69.9278  224.8471 H   0  0  0  0  0  0  0  0  0  0  0  0
  138.6469   68.3236  224.9086 H   0  0  0  0  0  0  0  0  0  0  0  0
  138.9333   68.2321  227.3046 H   0  0  0  0  0  0  0  0  0  0  0  0
  140.2438   69.0019  229.2837 H   0  0  0  0  0  0  0  0  0  0  0  0
  141.6196   71.0778  229.1419 H   0  0  0  0  0  0  0  0  0  0  0  0
  141.6866   72.3913  227.0240 H   0  0  0  0  0  0  0  0  0  0  0  0
  139.7712   72.7671  224.8587 H   0  0  0  0  0  0  0  0  0  0  0  0
  141.4448   72.1276  224.4934 H   0  0  0  0  0  0  0  0  0  0  0  0
  1  2  1  0
  2  3  2  0
  3  4  1  0
  4  5  1  0
  5  6  1  0
  6  7  1  0
  7  8  1  0
  8  9  1  0
  9 10  1  0
  4 11  2  0
 11 12  1  0
 12 13  1  0
 13 14  1  0
 14 15  1  0
 15 16  1  0
 16 17  2  0
 17 18  1  0
 18 19  2  0
 19 20  1  0
 20 21  2  0
 21 22  1  0
 12 23  2  0
 23  2  1  0
 10  5  1  0
 22 13  1  0
 21 16  1  0
  1 24  1  0
  6 25  1  0
  6 26  1  0
  7 27  1  0
  7 28  1  0
  8 29  1  0
  8 30  1  0
  9 31  1  0
  9 32  1  0
 10 33  1  0
 10 34  1  0
 14 35  1  0
 14 36  1  0
 15 37  1  0
 15 38  1  0
 17 39  1  0
 18 40  1  0
 19 41  1  0
 20 42  1  0
 22 43  1  0
 22 44  1  0
M  CHG  1   8   1
M  END
>  <UniqueID>  (40) 
702

>  <SMILES>  (40) 
Oc1nc(N2CC[NH2+]CC2)nc(N2CCc3ccccc3C2)n1

>  <Energy>  (40) 
48.14596656196317

>  <Genealogy>  (40) 
Oc1nc(N2CC[NH2+]CC2)nc(N2CCc3ccccc3C2)n1 (protonated)
Oc1nc(N2CC[NH2+]CC2)nc(N2CCc3ccccc3C2)n1 (3D coordinates assigned)
Oc1nc(N2CC[NH2+]CC2)nc(N2CCc3ccccc3C2)n1 (nonaromatic ring conformer: 48.14596656196317 kcal/mol)

>  <smiles>  (40) 
Oc1nc(N2CCNCC2)nc(N2CCc3ccccc3C2)n1

>  <score_type>  (40) 
oracle

>  <origin>  (40) 
autodockgpu

>  <m_score__min__energy>  (40) 
-7.0499999999999998

>  <m_primary>  (40) 
energy

>  <meeko>  (40) 
{"free_energy": -6.99, "intermolecular_energy": -7.89, "internal_energy": -0.36, "cluster_size": 20, "cluster_id": 1, "rank_in_cluster": 15}

>  <energy>  (40) 
-6.89

>  <cluster_rmsd>  (40) 
1.5

>  <rmsd>  (40) 
272.49

>  <cluster>  (40) 
1

$$$$
VOQKIUCZPHIEKY-MWDOZMLPNA-M
     RDKit          3D

 42 45  0  0  0  0  0  0  0  0999 V2000
  139.4620   75.4290  221.4300 O   0  0  0  0  0  0  0  0  0  0  0  0
  140.2700   74.3110  221.5870 C   0  0  0  0  0  0  0  0  0  0  0  0
  141.4390   74.2190  220.9080 N   0  0  0  0  0  0  0  0  0  0  0  0
  142.2370   73.1280  221.0560 C   0  0  0  0  0  0  0  0  0  0  0  0
  143.4800   73.0320  220.3310 N   0  0  0  0  0  0  0  0  0  0  0  0
  144.6650   73.7340  220.8420 C   0  0  0  0  0  0  0  0  0  0  0  0
  145.8750   73.5050  219.9340 C   0  0  0  0  0  0  0  0  0  0  0  0
  145.9820   72.0860  219.5820 N   0  0  0  0  0  0  0  0  0  0  0  0
  144.8310   71.6060  218.7920 C   0  0  0  0  0  0  0  0  0  0  0  0
  143.5300   72.4130  218.9970 C   0  0  0  0  0  0  0  0  0  0  0  0
  141.8460   72.1300  221.8930 N   0  0  0  0  0  0  0  0  0  0  0  0
  140.6740   72.2130  222.5780 C   0  0  0  0  0  0  0  0  0  0  0  0
  140.2690   71.1510  223.4690 N   0  0  0  0  0  0  0  0  0  0  0  0
  139.4520   70.0370  222.9610 C   0  0  0  0  0  0  0  0  0  0  0  0
  138.5020   69.5290  224.0400 C   0  0  0  0  0  0  0  0  0  0  0  0
  139.2700   69.1660  225.2750 C   0  0  0  0  0  0  0  0  0  0  0  0
  138.8450   68.1040  226.0890 C   0  0  0  0  0  0  0  0  0  0  0  0
  139.5450   67.7900  227.2550 C   0  0  0  0  0  0  0  0  0  0  0  0
  140.6620   68.5400  227.6250 C   0  0  0  0  0  0  0  0  0  0  0  0
  141.0820   69.6100  226.8290 C   0  0  0  0  0  0  0  0  0  0  0  0
  140.3930   69.9290  225.6480 C   0  0  0  0  0  0  0  0  0  0  0  0
  140.8360   71.1210  224.8310 C   0  0  0  0  0  0  0  0  0  0  0  0
  139.8900   73.3110  222.4200 N   0  0  0  0  0  0  0  0  0  0  0  0
  144.4510   74.8119  220.8903 H   0  0  0  0  0  0  0  0  0  0  0  0
  144.8995   73.3412  221.8423 H   0  0  0  0  0  0  0  0  0  0  0  0
  145.7580   74.0994  219.0158 H   0  0  0  0  0  0  0  0  0  0  0  0
  146.7870   73.8126  220.4667 H   0  0  0  0  0  0  0  0  0  0  0  0
  146.0410   71.5270  220.4660 H   0  0  0  0  0  0  0  0  0  0  0  0
  145.1013   71.6553  217.7269 H   0  0  0  0  0  0  0  0  0  0  0  0
  144.6210   70.5827  219.1365 H   0  0  0  0  0  0  0  0  0  0  0  0
  143.4769   73.2040  218.2344 H   0  0  0  0  0  0  0  0  0  0  0  0
  142.6790   71.7218  218.9067 H   0  0  0  0  0  0  0  0  0  0  0  0
  138.8653   70.3840  222.0977 H   0  0  0  0  0  0  0  0  0  0  0  0
  140.1203   69.2156  222.6632 H   0  0  0  0  0  0  0  0  0  0  0  0
  137.7735   70.3165  224.2832 H   0  0  0  0  0  0  0  0  0  0  0  0
  137.9786   68.6364  223.6668 H   0  0  0  0  0  0  0  0  0  0  0  0
  137.9579   67.5178  225.8071 H   0  0  0  0  0  0  0  0  0  0  0  0
  139.2154   66.9496  227.8836 H   0  0  0  0  0  0  0  0  0  0  0  0
  141.2126   68.2892  228.5437 H   0  0  0  0  0  0  0  0  0  0  0  0
  141.9569   70.2051  227.1296 H   0  0  0  0  0  0  0  0  0  0  0  0
  140.5261   72.0364  225.3563 H   0  0  0  0  0  0  0  0  0  0  0  0
  141.9282   71.0482  224.7227 H   0  0  0  0  0  0  0  0  0  0  0  0
  1  2  1  0
  2  3  2  0
  3  4  1  0
  4  5  1  0
  5  6  1  0
  6  7  1  0
  7  8  1  0
  8  9  1  0
  9 10  1  0
  4 11  2  0
 11 12  1  0
 12 13  1  0
 13 14  1  0
 14 15  1  0
 15 16  1  0
 16 17  2  0
 17 18  1  0
 18 19  2  0
 19 20  1  0
 20 21  2  0
 21 22  1  0
 12 23  2  0
 23  2  1  0
 10  5  1  0
 22 13  1  0
 21 16  1  0
  6 24  1  0
  6 25  1  0
  7 26  1  0
  7 27  1  0
  8 28  1  0
  9 29  1  0
  9 30  1  0
 10 31  1  0
 10 32  1  0
 14 33  1  0
 14 34  1  0
 15 35  1  0
 15 36  1  0
 17 37  1  0
 18 38  1  0
 19 39  1  0
 20 40  1  0
 22 41  1  0
 22 42  1  0
M  CHG  1   1  -1
M  END
>  <UniqueID>  (41) 
703

>  <SMILES>  (41) 
[O-]c1nc(N2CCNCC2)nc(N2CCc3ccccc3C2)n1

>  <Energy>  (41) 
52.13574034752136

>  <Genealogy>  (41) 
[O-]c1nc(N2CCNCC2)nc(N2CCc3ccccc3C2)n1 (protonated)
[O-]c1nc(N2CCNCC2)nc(N2CCc3ccccc3C2)n1 (3D coordinates assigned)
[O-]c1nc(N2CCNCC2)nc(N2CCc3ccccc3C2)n1 (nonaromatic ring conformer: 52.13574034752136 kcal/mol)

>  <smiles>  (41) 
Oc1nc(N2CCNCC2)nc(N2CCc3ccccc3C2)n1

>  <score_type>  (41) 
oracle

>  <origin>  (41) 
autodockgpu

>  <m_score__min__energy>  (41) 
-7.2599999999999998

>  <m_primary>  (41) 
energy

>  <meeko>  (41) 
{"free_energy": -7.25, "intermolecular_energy": -7.85, "internal_energy": -0.56, "cluster_size": 19, "cluster_id": 1, "rank_in_cluster": 5}

>  <energy>  (41) 
-7.26

>  <cluster_rmsd>  (41) 
0.0

>  <rmsd>  (41) 
272.0

>  <cluster>  (41) 
1

$$$$
VOQKIUCZPHIEKY-MWDOZMLPNA-M
     RDKit          3D

 42 45  0  0  0  0  0  0  0  0999 V2000
  139.4660   75.4430  221.4400 O   0  0  0  0  0  0  0  0  0  0  0  0
  140.2710   74.3220  221.5950 C   0  0  0  0  0  0  0  0  0  0  0  0
  141.4380   74.2260  220.9110 N   0  0  0  0  0  0  0  0  0  0  0  0
  142.2320   73.1320  221.0570 C   0  0  0  0  0  0  0  0  0  0  0  0
  143.4720   73.0330  220.3270 N   0  0  0  0  0  0  0  0  0  0  0  0
  144.6620   73.7270  220.8380 C   0  0  0  0  0  0  0  0  0  0  0  0
  145.8690   73.4950  219.9250 C   0  0  0  0  0  0  0  0  0  0  0  0
  145.9670   72.0770  219.5680 N   0  0  0  0  0  0  0  0  0  0  0  0
  144.8120   71.6050  218.7800 C   0  0  0  0  0  0  0  0  0  0  0  0
  143.5150   72.4180  218.9920 C   0  0  0  0  0  0  0  0  0  0  0  0
  141.8410   72.1360  221.8950 N   0  0  0  0  0  0  0  0  0  0  0  0
  140.6720   72.2220  222.5840 C   0  0  0  0  0  0  0  0  0  0  0  0
  140.2660   71.1620  223.4760 N   0  0  0  0  0  0  0  0  0  0  0  0
  139.4400   70.0530  222.9710 C   0  0  0  0  0  0  0  0  0  0  0  0
  138.4930   69.5490  224.0550 C   0  0  0  0  0  0  0  0  0  0  0  0
  139.2670   69.1800  225.2850 C   0  0  0  0  0  0  0  0  0  0  0  0
  138.8410   68.1200  226.1010 C   0  0  0  0  0  0  0  0  0  0  0  0
  139.5460   67.8000  227.2630 C   0  0  0  0  0  0  0  0  0  0  0  0
  140.6700   68.5440  227.6270 C   0  0  0  0  0  0  0  0  0  0  0  0
  141.0910   69.6130  226.8300 C   0  0  0  0  0  0  0  0  0  0  0  0
  140.3970   69.9360  225.6530 C   0  0  0  0  0  0  0  0  0  0  0  0
  140.8410   71.1270  224.8350 C   0  0  0  0  0  0  0  0  0  0  0  0
  139.8900   73.3230  222.4280 N   0  0  0  0  0  0  0  0  0  0  0  0
  144.4537   74.8058  220.8912 H   0  0  0  0  0  0  0  0  0  0  0  0
  144.8971   73.3293  221.8363 H   0  0  0  0  0  0  0  0  0  0  0  0
  145.7525   74.0932  219.0093 H   0  0  0  0  0  0  0  0  0  0  0  0
  146.7842   73.7961  220.4557 H   0  0  0  0  0  0  0  0  0  0  0  0
  146.0270   71.5150  220.4500 H   0  0  0  0  0  0  0  0  0  0  0  0
  145.0793   71.6567  217.7142 H   0  0  0  0  0  0  0  0  0  0  0  0
  144.5983   70.5814  219.1213 H   0  0  0  0  0  0  0  0  0  0  0  0
  143.4631   73.2115  218.2319 H   0  0  0  0  0  0  0  0  0  0  0  0
  142.6606   71.7309  218.9028 H   0  0  0  0  0  0  0  0  0  0  0  0
  138.8505   70.4043  222.1113 H   0  0  0  0  0  0  0  0  0  0  0  0
  140.1020   69.2283  222.6684 H   0  0  0  0  0  0  0  0  0  0  0  0
  137.7706   70.3404  224.3036 H   0  0  0  0  0  0  0  0  0  0  0  0
  137.9618   68.6601  223.6839 H   0  0  0  0  0  0  0  0  0  0  0  0
  137.9487   67.5395  225.8240 H   0  0  0  0  0  0  0  0  0  0  0  0
  139.2154   66.9607  227.8925 H   0  0  0  0  0  0  0  0  0  0  0  0
  141.2250   68.2889  228.5418 H   0  0  0  0  0  0  0  0  0  0  0  0
  141.9702   70.2038  227.1266 H   0  0  0  0  0  0  0  0  0  0  0  0
  140.5388   72.0432  225.3635 H   0  0  0  0  0  0  0  0  0  0  0  0
  141.9322   71.0488  224.7201 H   0  0  0  0  0  0  0  0  0  0  0  0
  1  2  1  0
  2  3  2  0
  3  4  1  0
  4  5  1  0
  5  6  1  0
  6  7  1  0
  7  8  1  0
  8  9  1  0
  9 10  1  0
  4 11  2  0
 11 12  1  0
 12 13  1  0
 13 14  1  0
 14 15  1  0
 15 16  1  0
 16 17  2  0
 17 18  1  0
 18 19  2  0
 19 20  1  0
 20 21  2  0
 21 22  1  0
 12 23  2  0
 23  2  1  0
 10  5  1  0
 22 13  1  0
 21 16  1  0
  6 24  1  0
  6 25  1  0
  7 26  1  0
  7 27  1  0
  8 28  1  0
  9 29  1  0
  9 30  1  0
 10 31  1  0
 10 32  1  0
 14 33  1  0
 14 34  1  0
 15 35  1  0
 15 36  1  0
 17 37  1  0
 18 38  1  0
 19 39  1  0
 20 40  1  0
 22 41  1  0
 22 42  1  0
M  CHG  1   1  -1
M  END
>  <UniqueID>  (42) 
703

>  <SMILES>  (42) 
[O-]c1nc(N2CCNCC2)nc(N2CCc3ccccc3C2)n1

>  <Energy>  (42) 
52.13574034752136

>  <Genealogy>  (42) 
[O-]c1nc(N2CCNCC2)nc(N2CCc3ccccc3C2)n1 (protonated)
[O-]c1nc(N2CCNCC2)nc(N2CCc3ccccc3C2)n1 (3D coordinates assigned)
[O-]c1nc(N2CCNCC2)nc(N2CCc3ccccc3C2)n1 (nonaromatic ring conformer: 52.13574034752136 kcal/mol)

>  <smiles>  (42) 
Oc1nc(N2CCNCC2)nc(N2CCc3ccccc3C2)n1

>  <score_type>  (42) 
oracle

>  <origin>  (42) 
autodockgpu

>  <m_score__min__energy>  (42) 
-7.2599999999999998

>  <m_primary>  (42) 
energy

>  <meeko>  (42) 
{"free_energy": -7.26, "intermolecular_energy": -7.85, "internal_energy": -0.56, "cluster_size": 19, "cluster_id": 1, "rank_in_cluster": 4}

>  <energy>  (42) 
-7.26

>  <cluster_rmsd>  (42) 
0.04

>  <rmsd>  (42) 
272.0

>  <cluster>  (42) 
1

$$$$
VOQKIUCZPHIEKY-MWDOZMLPNA-M
     RDKit          3D

 42 45  0  0  0  0  0  0  0  0999 V2000
  139.7300   75.6040  221.5260 O   0  0  0  0  0  0  0  0  0  0  0  0
  140.4480   74.4170  221.5740 C   0  0  0  0  0  0  0  0  0  0  0  0
  141.5360   74.2500  220.7830 N   0  0  0  0  0  0  0  0  0  0  0  0
  142.2460   73.0910  220.8240 C   0  0  0  0  0  0  0  0  0  0  0  0
  143.4020   72.9170  219.9800 N   0  0  0  0  0  0  0  0  0  0  0  0
  143.5230   73.7200  218.7550 C   0  0  0  0  0  0  0  0  0  0  0  0
  144.8160   73.3880  218.0050 C   0  0  0  0  0  0  0  0  0  0  0  0
  145.9440   73.3360  218.9400 N   0  0  0  0  0  0  0  0  0  0  0  0
  145.8090   72.2570  219.9380 C   0  0  0  0  0  0  0  0  0  0  0  0
  144.3530   71.8200  220.2180 C   0  0  0  0  0  0  0  0  0  0  0  0
  141.8490   72.1010  221.6660 N   0  0  0  0  0  0  0  0  0  0  0  0
  140.7580   72.2570  222.4630 C   0  0  0  0  0  0  0  0  0  0  0  0
  140.3460   71.2020  223.3580 N   0  0  0  0  0  0  0  0  0  0  0  0
  139.5620   70.0670  222.8450 C   0  0  0  0  0  0  0  0  0  0  0  0
  138.5900   69.5590  223.9050 C   0  0  0  0  0  0  0  0  0  0  0  0
  139.3310   69.2270  225.1660 C   0  0  0  0  0  0  0  0  0  0  0  0
  138.9010   68.1700  225.9840 C   0  0  0  0  0  0  0  0  0  0  0  0
  139.5740   67.8850  227.1740 C   0  0  0  0  0  0  0  0  0  0  0  0
  140.6690   68.6590  227.5620 C   0  0  0  0  0  0  0  0  0  0  0  0
  141.0920   69.7250  226.7620 C   0  0  0  0  0  0  0  0  0  0  0  0
  140.4310   70.0140  225.5580 C   0  0  0  0  0  0  0  0  0  0  0  0
  140.8760   71.2010  224.7350 C   0  0  0  0  0  0  0  0  0  0  0  0
  140.0610   73.4230  222.4110 N   0  0  0  0  0  0  0  0  0  0  0  0
  142.6639   73.5096  218.1010 H   0  0  0  0  0  0  0  0  0  0  0  0
  143.5440   74.7837  219.0346 H   0  0  0  0  0  0  0  0  0  0  0  0
  144.7087   72.4114  217.5103 H   0  0  0  0  0  0  0  0  0  0  0  0
  145.0070   74.1697  217.2550 H   0  0  0  0  0  0  0  0  0  0  0  0
  146.0030   74.2550  219.4410 H   0  0  0  0  0  0  0  0  0  0  0  0
  146.3665   71.3812  219.5744 H   0  0  0  0  0  0  0  0  0  0  0  0
  146.2030   72.6558  220.8845 H   0  0  0  0  0  0  0  0  0  0  0  0
  144.0996   70.9784  219.5566 H   0  0  0  0  0  0  0  0  0  0  0  0
  144.2800   71.5252  221.2753 H   0  0  0  0  0  0  0  0  0  0  0  0
  138.9942   70.3910  221.9603 H   0  0  0  0  0  0  0  0  0  0  0  0
  140.2519   69.2526  222.5790 H   0  0  0  0  0  0  0  0  0  0  0  0
  137.8425   70.3378  224.1164 H   0  0  0  0  0  0  0  0  0  0  0  0
  138.0906   68.6529  223.5313 H   0  0  0  0  0  0  0  0  0  0  0  0
  138.0318   67.5648  225.6868 H   0  0  0  0  0  0  0  0  0  0  0  0
  139.2407   67.0492  227.8067 H   0  0  0  0  0  0  0  0  0  0  0  0
  141.1996   68.4301  228.4980 H   0  0  0  0  0  0  0  0  0  0  0  0
  141.9473   70.3403  227.0779 H   0  0  0  0  0  0  0  0  0  0  0  0
  140.5370   72.1187  225.2380 H   0  0  0  0  0  0  0  0  0  0  0  0
  141.9718   71.1445  224.6569 H   0  0  0  0  0  0  0  0  0  0  0  0
  1  2  1  0
  2  3  2  0
  3  4  1  0
  4  5  1  0
  5  6  1  0
  6  7  1  0
  7  8  1  0
  8  9  1  0
  9 10  1  0
  4 11  2  0
 11 12  1  0
 12 13  1  0
 13 14  1  0
 14 15  1  0
 15 16  1  0
 16 17  2  0
 17 18  1  0
 18 19  2  0
 19 20  1  0
 20 21  2  0
 21 22  1  0
 12 23  2  0
 23  2  1  0
 10  5  1  0
 22 13  1  0
 21 16  1  0
  6 24  1  0
  6 25  1  0
  7 26  1  0
  7 27  1  0
  8 28  1  0
  9 29  1  0
  9 30  1  0
 10 31  1  0
 10 32  1  0
 14 33  1  0
 14 34  1  0
 15 35  1  0
 15 36  1  0
 17 37  1  0
 18 38  1  0
 19 39  1  0
 20 40  1  0
 22 41  1  0
 22 42  1  0
M  CHG  1   1  -1
M  END
>  <UniqueID>  (43) 
703

>  <SMILES>  (43) 
[O-]c1nc(N2CCNCC2)nc(N2CCc3ccccc3C2)n1

>  <Energy>  (43) 
52.13574034752136

>  <Genealogy>  (43) 
[O-]c1nc(N2CCNCC2)nc(N2CCc3ccccc3C2)n1 (protonated)
[O-]c1nc(N2CCNCC2)nc(N2CCc3ccccc3C2)n1 (3D coordinates assigned)
[O-]c1nc(N2CCNCC2)nc(N2CCc3ccccc3C2)n1 (nonaromatic ring conformer: 52.13574034752136 kcal/mol)

>  <smiles>  (43) 
Oc1nc(N2CCNCC2)nc(N2CCc3ccccc3C2)n1

>  <score_type>  (43) 
oracle

>  <origin>  (43) 
autodockgpu

>  <m_score__min__energy>  (43) 
-7.2599999999999998

>  <m_primary>  (43) 
energy

>  <meeko>  (43) 
{"free_energy": -7.24, "intermolecular_energy": -7.84, "internal_energy": -0.57, "cluster_size": 19, "cluster_id": 1, "rank_in_cluster": 13}

>  <energy>  (43) 
-7.26

>  <cluster_rmsd>  (43) 
0.02

>  <rmsd>  (43) 
272.01

>  <cluster>  (43) 
1

$$$$
VOQKIUCZPHIEKY-MWDOZMLPNA-M
     RDKit          3D

 42 45  0  0  0  0  0  0  0  0999 V2000
  139.6870   75.5860  221.4890 O   0  0  0  0  0  0  0  0  0  0  0  0
  140.4160   74.4060  221.5510 C   0  0  0  0  0  0  0  0  0  0  0  0
  141.5110   74.2440  220.7690 N   0  0  0  0  0  0  0  0  0  0  0  0
  142.2310   73.0910  220.8240 C   0  0  0  0  0  0  0  0  0  0  0  0
  143.3950   72.9210  219.9900 N   0  0  0  0  0  0  0  0  0  0  0  0
  143.5230   73.7240  218.7660 C   0  0  0  0  0  0  0  0  0  0  0  0
  144.8230   73.3970  218.0260 C   0  0  0  0  0  0  0  0  0  0  0  0
  145.9430   73.3500  218.9710 N   0  0  0  0  0  0  0  0  0  0  0  0
  145.8040   72.2710  219.9680 C   0  0  0  0  0  0  0  0  0  0  0  0
  144.3480   71.8280  220.2370 C   0  0  0  0  0  0  0  0  0  0  0  0
  141.8370   72.1030  221.6710 N   0  0  0  0  0  0  0  0  0  0  0  0
  140.7390   72.2560  222.4590 C   0  0  0  0  0  0  0  0  0  0  0  0
  140.3310   71.2040  223.3590 N   0  0  0  0  0  0  0  0  0  0  0  0
  139.5470   70.0660  222.8520 C   0  0  0  0  0  0  0  0  0  0  0  0
  138.5780   69.5610  223.9160 C   0  0  0  0  0  0  0  0  0  0  0  0
  139.3210   69.2350  225.1770 C   0  0  0  0  0  0  0  0  0  0  0  0
  138.8950   68.1810  226.0000 C   0  0  0  0  0  0  0  0  0  0  0  0
  139.5700   67.9010  227.1900 C   0  0  0  0  0  0  0  0  0  0  0  0
  140.6650   68.6790  227.5730 C   0  0  0  0  0  0  0  0  0  0  0  0
  141.0850   69.7420  226.7680 C   0  0  0  0  0  0  0  0  0  0  0  0
  140.4210   70.0250  225.5630 C   0  0  0  0  0  0  0  0  0  0  0  0
  140.8630   71.2100  224.7350 C   0  0  0  0  0  0  0  0  0  0  0  0
  140.0320   73.4150  222.3930 N   0  0  0  0  0  0  0  0  0  0  0  0
  142.6699   73.5103  218.1053 H   0  0  0  0  0  0  0  0  0  0  0  0
  143.5382   74.7877  219.0458 H   0  0  0  0  0  0  0  0  0  0  0  0
  144.7237   72.4198  217.5307 H   0  0  0  0  0  0  0  0  0  0  0  0
  145.0169   74.1786  217.2767 H   0  0  0  0  0  0  0  0  0  0  0  0
  145.9950   74.2690  219.4720 H   0  0  0  0  0  0  0  0  0  0  0  0
  146.3678   71.3973  219.6091 H   0  0  0  0  0  0  0  0  0  0  0  0
  146.1886   72.6720  220.9174 H   0  0  0  0  0  0  0  0  0  0  0  0
  144.1033   70.9846  219.5746 H   0  0  0  0  0  0  0  0  0  0  0  0
  144.2676   71.5337  221.2938 H   0  0  0  0  0  0  0  0  0  0  0  0
  138.9769   70.3860  221.9674 H   0  0  0  0  0  0  0  0  0  0  0  0
  140.2372   69.2513  222.5876 H   0  0  0  0  0  0  0  0  0  0  0  0
  137.8298   70.3396  224.1256 H   0  0  0  0  0  0  0  0  0  0  0  0
  138.0797   68.6525  223.5468 H   0  0  0  0  0  0  0  0  0  0  0  0
  138.0263   67.5733  225.7066 H   0  0  0  0  0  0  0  0  0  0  0  0
  139.2391   67.0670  227.8263 H   0  0  0  0  0  0  0  0  0  0  0  0
  141.1975   68.4550  228.5091 H   0  0  0  0  0  0  0  0  0  0  0  0
  141.9399   70.3600  227.0799 H   0  0  0  0  0  0  0  0  0  0  0  0
  140.5229   72.1290  225.2348 H   0  0  0  0  0  0  0  0  0  0  0  0
  141.9588   71.1559  224.6560 H   0  0  0  0  0  0  0  0  0  0  0  0
  1  2  1  0
  2  3  2  0
  3  4  1  0
  4  5  1  0
  5  6  1  0
  6  7  1  0
  7  8  1  0
  8  9  1  0
  9 10  1  0
  4 11  2  0
 11 12  1  0
 12 13  1  0
 13 14  1  0
 14 15  1  0
 15 16  1  0
 16 17  2  0
 17 18  1  0
 18 19  2  0
 19 20  1  0
 20 21  2  0
 21 22  1  0
 12 23  2  0
 23  2  1  0
 10  5  1  0
 22 13  1  0
 21 16  1  0
  6 24  1  0
  6 25  1  0
  7 26  1  0
  7 27  1  0
  8 28  1  0
  9 29  1  0
  9 30  1  0
 10 31  1  0
 10 32  1  0
 14 33  1  0
 14 34  1  0
 15 35  1  0
 15 36  1  0
 17 37  1  0
 18 38  1  0
 19 39  1  0
 20 40  1  0
 22 41  1  0
 22 42  1  0
M  CHG  1   1  -1
M  END
>  <UniqueID>  (44) 
703

>  <SMILES>  (44) 
[O-]c1nc(N2CCNCC2)nc(N2CCc3ccccc3C2)n1

>  <Energy>  (44) 
52.13574034752136

>  <Genealogy>  (44) 
[O-]c1nc(N2CCNCC2)nc(N2CCc3ccccc3C2)n1 (protonated)
[O-]c1nc(N2CCNCC2)nc(N2CCc3ccccc3C2)n1 (3D coordinates assigned)
[O-]c1nc(N2CCNCC2)nc(N2CCc3ccccc3C2)n1 (nonaromatic ring conformer: 52.13574034752136 kcal/mol)

>  <smiles>  (44) 
Oc1nc(N2CCNCC2)nc(N2CCc3ccccc3C2)n1

>  <score_type>  (44) 
oracle

>  <origin>  (44) 
autodockgpu

>  <m_score__min__energy>  (44) 
-7.2599999999999998

>  <m_primary>  (44) 
energy

>  <meeko>  (44) 
{"free_energy": -7.24, "intermolecular_energy": -7.84, "internal_energy": -0.57, "cluster_size": 19, "cluster_id": 1, "rank_in_cluster": 10}

>  <energy>  (44) 
-7.26

>  <cluster_rmsd>  (44) 
0.01

>  <rmsd>  (44) 
272.0

>  <cluster>  (44) 
1

$$$$
VOQKIUCZPHIEKY-MWDOZMLPNA-M
     RDKit          3D

 42 45  0  0  0  0  0  0  0  0999 V2000
  140.3170   71.3910  218.7580 O   0  0  0  0  0  0  0  0  0  0  0  0
  140.2960   72.0640  219.9720 C   0  0  0  0  0  0  0  0  0  0  0  0
  140.3880   73.4160  220.0000 N   0  0  0  0  0  0  0  0  0  0  0  0
  140.3680   74.0830  221.1850 C   0  0  0  0  0  0  0  0  0  0  0  0
  140.4670   75.5220  221.2100 N   0  0  0  0  0  0  0  0  0  0  0  0
  139.8910   76.2600  222.3430 C   0  0  0  0  0  0  0  0  0  0  0  0
  140.1030   77.7670  222.1830 C   0  0  0  0  0  0  0  0  0  0  0  0
  141.4840   78.0440  221.7780 N   0  0  0  0  0  0  0  0  0  0  0  0
  141.8140   77.4810  220.4540 C   0  0  0  0  0  0  0  0  0  0  0  0
  140.9540   76.2660  220.0390 C   0  0  0  0  0  0  0  0  0  0  0  0
  140.2570   73.3760  222.3410 N   0  0  0  0  0  0  0  0  0  0  0  0
  140.1650   72.0200  222.3240 C   0  0  0  0  0  0  0  0  0  0  0  0
  140.0430   71.2780  223.5570 N   0  0  0  0  0  0  0  0  0  0  0  0
  139.5670   69.8850  223.5320 C   0  0  0  0  0  0  0  0  0  0  0  0
  138.7660   69.5660  224.7890 C   0  0  0  0  0  0  0  0  0  0  0  0
  139.5760   69.8780  226.0110 C   0  0  0  0  0  0  0  0  0  0  0  0
  139.4360   69.1040  227.1730 C   0  0  0  0  0  0  0  0  0  0  0  0
  140.1690   69.4180  228.3190 C   0  0  0  0  0  0  0  0  0  0  0  0
  141.0350   70.5130  228.3190 C   0  0  0  0  0  0  0  0  0  0  0  0
  141.1670   71.3000  227.1710 C   0  0  0  0  0  0  0  0  0  0  0  0
  140.4440   70.9870  226.0080 C   0  0  0  0  0  0  0  0  0  0  0  0
  140.5670   71.8820  224.7970 C   0  0  0  0  0  0  0  0  0  0  0  0
  140.1850   71.3690  221.1310 N   0  0  0  0  0  0  0  0  0  0  0  0
  138.8121   76.0525  222.3958 H   0  0  0  0  0  0  0  0  0  0  0  0
  140.3931   75.9323  223.2653 H   0  0  0  0  0  0  0  0  0  0  0  0
  139.4153   78.1511  221.4152 H   0  0  0  0  0  0  0  0  0  0  0  0
  139.9054   78.2613  223.1456 H   0  0  0  0  0  0  0  0  0  0  0  0
  142.1290   77.6280  222.4920 H   0  0  0  0  0  0  0  0  0  0  0  0
  141.6771   78.2714  219.7013 H   0  0  0  0  0  0  0  0  0  0  0  0
  142.8515   77.1212  220.5181 H   0  0  0  0  0  0  0  0  0  0  0  0
  140.0905   76.6217  219.4578 H   0  0  0  0  0  0  0  0  0  0  0  0
  141.5805   75.5902  219.4384 H   0  0  0  0  0  0  0  0  0  0  0  0
  138.9273   69.7379  222.6493 H   0  0  0  0  0  0  0  0  0  0  0  0
  140.4381   69.2147  223.4884 H   0  0  0  0  0  0  0  0  0  0  0  0
  137.8472   70.1707  224.7978 H   0  0  0  0  0  0  0  0  0  0  0  0
  138.5109   68.4960  224.7906 H   0  0  0  0  0  0  0  0  0  0  0  0
  138.7464   68.2470  227.1810 H   0  0  0  0  0  0  0  0  0  0  0  0
  140.0640   68.8013  229.2238 H   0  0  0  0  0  0  0  0  0  0  0  0
  141.6135   70.7566  229.2223 H   0  0  0  0  0  0  0  0  0  0  0  0
  141.8409   72.1693  227.1785 H   0  0  0  0  0  0  0  0  0  0  0  0
  140.0103   72.8102  224.9933 H   0  0  0  0  0  0  0  0  0  0  0  0
  141.6405   72.0619  224.6381 H   0  0  0  0  0  0  0  0  0  0  0  0
  1  2  1  0
  2  3  2  0
  3  4  1  0
  4  5  1  0
  5  6  1  0
  6  7  1  0
  7  8  1  0
  8  9  1  0
  9 10  1  0
  4 11  2  0
 11 12  1  0
 12 13  1  0
 13 14  1  0
 14 15  1  0
 15 16  1  0
 16 17  2  0
 17 18  1  0
 18 19  2  0
 19 20  1  0
 20 21  2  0
 21 22  1  0
 12 23  2  0
 23  2  1  0
 10  5  1  0
 22 13  1  0
 21 16  1  0
  6 24  1  0
  6 25  1  0
  7 26  1  0
  7 27  1  0
  8 28  1  0
  9 29  1  0
  9 30  1  0
 10 31  1  0
 10 32  1  0
 14 33  1  0
 14 34  1  0
 15 35  1  0
 15 36  1  0
 17 37  1  0
 18 38  1  0
 19 39  1  0
 20 40  1  0
 22 41  1  0
 22 42  1  0
M  CHG  1   1  -1
M  END
>  <UniqueID>  (45) 
703

>  <SMILES>  (45) 
[O-]c1nc(N2CCNCC2)nc(N2CCc3ccccc3C2)n1

>  <Energy>  (45) 
52.13574034752136

>  <Genealogy>  (45) 
[O-]c1nc(N2CCNCC2)nc(N2CCc3ccccc3C2)n1 (protonated)
[O-]c1nc(N2CCNCC2)nc(N2CCc3ccccc3C2)n1 (3D coordinates assigned)
[O-]c1nc(N2CCNCC2)nc(N2CCc3ccccc3C2)n1 (nonaromatic ring conformer: 52.13574034752136 kcal/mol)

>  <smiles>  (45) 
Oc1nc(N2CCNCC2)nc(N2CCc3ccccc3C2)n1

>  <score_type>  (45) 
oracle

>  <origin>  (45) 
autodockgpu

>  <m_score__min__energy>  (45) 
-7.2599999999999998

>  <m_primary>  (45) 
energy

>  <meeko>  (45) 
{"free_energy": -6.72, "intermolecular_energy": -7.31, "internal_energy": -0.58, "cluster_size": 1, "cluster_id": 2, "rank_in_cluster": 1}

>  <energy>  (45) 
-7.25

>  <cluster_rmsd>  (45) 
0.02

>  <rmsd>  (45) 
272.0

>  <cluster>  (45) 
1

$$$$
VOQKIUCZPHIEKY-MWDOZMLPNA-M
     RDKit          3D

 42 45  0  0  0  0  0  0  0  0999 V2000
  139.7110   75.6070  221.5360 O   0  0  0  0  0  0  0  0  0  0  0  0
  140.4330   74.4220  221.5890 C   0  0  0  0  0  0  0  0  0  0  0  0
  141.5240   74.2570  220.8000 N   0  0  0  0  0  0  0  0  0  0  0  0
  142.2360   73.0990  220.8460 C   0  0  0  0  0  0  0  0  0  0  0  0
  143.3950   72.9260  220.0050 N   0  0  0  0  0  0  0  0  0  0  0  0
  143.5170   73.7260  218.7790 C   0  0  0  0  0  0  0  0  0  0  0  0
  144.8120   73.3960  218.0320 C   0  0  0  0  0  0  0  0  0  0  0  0
  145.9380   73.3500  218.9700 N   0  0  0  0  0  0  0  0  0  0  0  0
  145.8030   72.2720  219.9700 C   0  0  0  0  0  0  0  0  0  0  0  0
  144.3480   71.8330  220.2480 C   0  0  0  0  0  0  0  0  0  0  0  0
  141.8400   72.1100  221.6900 N   0  0  0  0  0  0  0  0  0  0  0  0
  140.7470   72.2660  222.4840 C   0  0  0  0  0  0  0  0  0  0  0  0
  140.3370   71.2120  223.3810 N   0  0  0  0  0  0  0  0  0  0  0  0
  139.5450   70.0800  222.8720 C   0  0  0  0  0  0  0  0  0  0  0  0
  138.5780   69.5750  223.9380 C   0  0  0  0  0  0  0  0  0  0  0  0
  139.3240   69.2400  225.1940 C   0  0  0  0  0  0  0  0  0  0  0  0
  138.8950   68.1850  226.0150 C   0  0  0  0  0  0  0  0  0  0  0  0
  139.5740   67.8970  227.2010 C   0  0  0  0  0  0  0  0  0  0  0  0
  140.6740   68.6670  227.5840 C   0  0  0  0  0  0  0  0  0  0  0  0
  141.0960   69.7310  226.7810 C   0  0  0  0  0  0  0  0  0  0  0  0
  140.4290   70.0230  225.5800 C   0  0  0  0  0  0  0  0  0  0  0  0
  140.8740   71.2090  224.7560 C   0  0  0  0  0  0  0  0  0  0  0  0
  140.0470   73.4290  222.4270 N   0  0  0  0  0  0  0  0  0  0  0  0
  142.6598   73.5121  218.1237 H   0  0  0  0  0  0  0  0  0  0  0  0
  143.5354   74.7902  219.0567 H   0  0  0  0  0  0  0  0  0  0  0  0
  144.7086   72.4178  217.5396 H   0  0  0  0  0  0  0  0  0  0  0  0
  145.0021   74.1759  217.2799 H   0  0  0  0  0  0  0  0  0  0  0  0
  145.9940   74.2690  219.4690 H   0  0  0  0  0  0  0  0  0  0  0  0
  146.3627   71.3966  219.6089 H   0  0  0  0  0  0  0  0  0  0  0  0
  146.1945   72.6731  220.9165 H   0  0  0  0  0  0  0  0  0  0  0  0
  144.0981   70.9888  219.5886 H   0  0  0  0  0  0  0  0  0  0  0  0
  144.2736   71.5417  221.3061 H   0  0  0  0  0  0  0  0  0  0  0  0
  138.9727   70.4069  221.9913 H   0  0  0  0  0  0  0  0  0  0  0  0
  140.2300   69.2631  222.6008 H   0  0  0  0  0  0  0  0  0  0  0  0
  137.8345   70.3563  224.1540 H   0  0  0  0  0  0  0  0  0  0  0  0
  138.0739   68.6705  223.5669 H   0  0  0  0  0  0  0  0  0  0  0  0
  138.0215   67.5834  225.7233 H   0  0  0  0  0  0  0  0  0  0  0  0
  139.2415   67.0617  227.8348 H   0  0  0  0  0  0  0  0  0  0  0  0
  141.2085   68.4366  228.5174 H   0  0  0  0  0  0  0  0  0  0  0  0
  141.9555   70.3431  227.0918 H   0  0  0  0  0  0  0  0  0  0  0  0
  140.5402   72.1274  225.2610 H   0  0  0  0  0  0  0  0  0  0  0  0
  141.9692   71.1496  224.6729 H   0  0  0  0  0  0  0  0  0  0  0  0
  1  2  1  0
  2  3  2  0
  3  4  1  0
  4  5  1  0
  5  6  1  0
  6  7  1  0
  7  8  1  0
  8  9  1  0
  9 10  1  0
  4 11  2  0
 11 12  1  0
 12 13  1  0
 13 14  1  0
 14 15  1  0
 15 16  1  0
 16 17  2  0
 17 18  1  0
 18 19  2  0
 19 20  1  0
 20 21  2  0
 21 22  1  0
 12 23  2  0
 23  2  1  0
 10  5  1  0
 22 13  1  0
 21 16  1  0
  6 24  1  0
  6 25  1  0
  7 26  1  0
  7 27  1  0
  8 28  1  0
  9 29  1  0
  9 30  1  0
 10 31  1  0
 10 32  1  0
 14 33  1  0
 14 34  1  0
 15 35  1  0
 15 36  1  0
 17 37  1  0
 18 38  1  0
 19 39  1  0
 20 40  1  0
 22 41  1  0
 22 42  1  0
M  CHG  1   1  -1
M  END
>  <UniqueID>  (46) 
703

>  <SMILES>  (46) 
[O-]c1nc(N2CCNCC2)nc(N2CCc3ccccc3C2)n1

>  <Energy>  (46) 
52.13574034752136

>  <Genealogy>  (46) 
[O-]c1nc(N2CCNCC2)nc(N2CCc3ccccc3C2)n1 (protonated)
[O-]c1nc(N2CCNCC2)nc(N2CCc3ccccc3C2)n1 (3D coordinates assigned)
[O-]c1nc(N2CCNCC2)nc(N2CCc3ccccc3C2)n1 (nonaromatic ring conformer: 52.13574034752136 kcal/mol)

>  <smiles>  (46) 
Oc1nc(N2CCNCC2)nc(N2CCc3ccccc3C2)n1

>  <score_type>  (46) 
oracle

>  <origin>  (46) 
autodockgpu

>  <m_score__min__energy>  (46) 
-7.2599999999999998

>  <m_primary>  (46) 
energy

>  <meeko>  (46) 
{"free_energy": -7.24, "intermolecular_energy": -7.84, "internal_energy": -0.57, "cluster_size": 19, "cluster_id": 1, "rank_in_cluster": 12}

>  <energy>  (46) 
-7.25

>  <cluster_rmsd>  (46) 
0.03

>  <rmsd>  (46) 
272.0

>  <cluster>  (46) 
1

$$$$
VOQKIUCZPHIEKY-MWDOZMLPNA-M
     RDKit          3D

 42 45  0  0  0  0  0  0  0  0999 V2000
  139.7360   75.5940  221.5460 O   0  0  0  0  0  0  0  0  0  0  0  0
  140.4510   74.4050  221.5900 C   0  0  0  0  0  0  0  0  0  0  0  0
  141.5380   74.2380  220.7980 N   0  0  0  0  0  0  0  0  0  0  0  0
  142.2440   73.0760  220.8350 C   0  0  0  0  0  0  0  0  0  0  0  0
  143.4000   72.9010  219.9910 N   0  0  0  0  0  0  0  0  0  0  0  0
  143.5270   73.7130  218.7720 C   0  0  0  0  0  0  0  0  0  0  0  0
  144.8180   73.3790  218.0210 C   0  0  0  0  0  0  0  0  0  0  0  0
  145.9450   73.3130  218.9560 N   0  0  0  0  0  0  0  0  0  0  0  0
  145.8020   72.2270  219.9450 C   0  0  0  0  0  0  0  0  0  0  0  0
  144.3440   71.7970  220.2210 C   0  0  0  0  0  0  0  0  0  0  0  0
  141.8440   72.0840  221.6740 N   0  0  0  0  0  0  0  0  0  0  0  0
  140.7530   72.2410  222.4710 C   0  0  0  0  0  0  0  0  0  0  0  0
  140.3380   71.1840  223.3620 N   0  0  0  0  0  0  0  0  0  0  0  0
  139.5480   70.0540  222.8450 C   0  0  0  0  0  0  0  0  0  0  0  0
  138.5760   69.5460  223.9050 C   0  0  0  0  0  0  0  0  0  0  0  0
  139.3160   69.2060  225.1630 C   0  0  0  0  0  0  0  0  0  0  0  0
  138.8830   68.1480  225.9770 C   0  0  0  0  0  0  0  0  0  0  0  0
  139.5560   67.8550  227.1650 C   0  0  0  0  0  0  0  0  0  0  0  0
  140.6550   68.6230  227.5560 C   0  0  0  0  0  0  0  0  0  0  0  0
  141.0820   69.6900  226.7590 C   0  0  0  0  0  0  0  0  0  0  0  0
  140.4200   69.9870  225.5570 C   0  0  0  0  0  0  0  0  0  0  0  0
  140.8690   71.1750  224.7390 C   0  0  0  0  0  0  0  0  0  0  0  0
  140.0600   73.4090  222.4230 N   0  0  0  0  0  0  0  0  0  0  0  0
  142.6673   73.5130  218.1156 H   0  0  0  0  0  0  0  0  0  0  0  0
  143.5542   74.7743  219.0598 H   0  0  0  0  0  0  0  0  0  0  0  0
  144.7051   72.4068  217.5188 H   0  0  0  0  0  0  0  0  0  0  0  0
  145.0143   74.1653  217.2773 H   0  0  0  0  0  0  0  0  0  0  0  0
  146.0100   74.2270  219.4640 H   0  0  0  0  0  0  0  0  0  0  0  0
  146.3540   71.3506  219.5746 H   0  0  0  0  0  0  0  0  0  0  0  0
  146.1976   72.6160  220.8948 H   0  0  0  0  0  0  0  0  0  0  0  0
  144.0858   70.9619  219.5532 H   0  0  0  0  0  0  0  0  0  0  0  0
  144.2688   71.4948  221.2760 H   0  0  0  0  0  0  0  0  0  0  0  0
  138.9800   70.3842  221.9628 H   0  0  0  0  0  0  0  0  0  0  0  0
  140.2338   69.2378  222.5738 H   0  0  0  0  0  0  0  0  0  0  0  0
  137.8321   70.3271  224.1205 H   0  0  0  0  0  0  0  0  0  0  0  0
  138.0730   68.6431  223.5285 H   0  0  0  0  0  0  0  0  0  0  0  0
  138.0109   67.5478  225.6784 H   0  0  0  0  0  0  0  0  0  0  0  0
  139.2198   67.0176  227.7941 H   0  0  0  0  0  0  0  0  0  0  0  0
  141.1849   68.3886  228.4910 H   0  0  0  0  0  0  0  0  0  0  0  0
  141.9411   70.2998  227.0756 H   0  0  0  0  0  0  0  0  0  0  0  0
  140.5340   72.0919  225.2460 H   0  0  0  0  0  0  0  0  0  0  0  0
  141.9645   71.1144  224.6599 H   0  0  0  0  0  0  0  0  0  0  0  0
  1  2  1  0
  2  3  2  0
  3  4  1  0
  4  5  1  0
  5  6  1  0
  6  7  1  0
  7  8  1  0
  8  9  1  0
  9 10  1  0
  4 11  2  0
 11 12  1  0
 12 13  1  0
 13 14  1  0
 14 15  1  0
 15 16  1  0
 16 17  2  0
 17 18  1  0
 18 19  2  0
 19 20  1  0
 20 21  2  0
 21 22  1  0
 12 23  2  0
 23  2  1  0
 10  5  1  0
 22 13  1  0
 21 16  1  0
  6 24  1  0
  6 25  1  0
  7 26  1  0
  7 27  1  0
  8 28  1  0
  9 29  1  0
  9 30  1  0
 10 31  1  0
 10 32  1  0
 14 33  1  0
 14 34  1  0
 15 35  1  0
 15 36  1  0
 17 37  1  0
 18 38  1  0
 19 39  1  0
 20 40  1  0
 22 41  1  0
 22 42  1  0
M  CHG  1   1  -1
M  END
>  <UniqueID>  (47) 
703

>  <SMILES>  (47) 
[O-]c1nc(N2CCNCC2)nc(N2CCc3ccccc3C2)n1

>  <Energy>  (47) 
52.13574034752136

>  <Genealogy>  (47) 
[O-]c1nc(N2CCNCC2)nc(N2CCc3ccccc3C2)n1 (protonated)
[O-]c1nc(N2CCNCC2)nc(N2CCc3ccccc3C2)n1 (3D coordinates assigned)
[O-]c1nc(N2CCNCC2)nc(N2CCc3ccccc3C2)n1 (nonaromatic ring conformer: 52.13574034752136 kcal/mol)

>  <smiles>  (47) 
Oc1nc(N2CCNCC2)nc(N2CCc3ccccc3C2)n1

>  <score_type>  (47) 
oracle

>  <origin>  (47) 
autodockgpu

>  <m_score__min__energy>  (47) 
-7.2599999999999998

>  <m_primary>  (47) 
energy

>  <meeko>  (47) 
{"free_energy": -7.23, "intermolecular_energy": -7.83, "internal_energy": -0.57, "cluster_size": 19, "cluster_id": 1, "rank_in_cluster": 16}

>  <energy>  (47) 
-7.25

>  <cluster_rmsd>  (47) 
0.02

>  <rmsd>  (47) 
272.01

>  <cluster>  (47) 
1

$$$$
VOQKIUCZPHIEKY-MWDOZMLPNA-M
     RDKit          3D

 42 45  0  0  0  0  0  0  0  0999 V2000
  139.7400   75.6080  221.5640 O   0  0  0  0  0  0  0  0  0  0  0  0
  140.4510   74.4160  221.5930 C   0  0  0  0  0  0  0  0  0  0  0  0
  141.5310   74.2520  220.7900 N   0  0  0  0  0  0  0  0  0  0  0  0
  142.2330   73.0880  220.8120 C   0  0  0  0  0  0  0  0  0  0  0  0
  143.3820   72.9160  219.9560 N   0  0  0  0  0  0  0  0  0  0  0  0
  143.5160   73.7580  218.7590 C   0  0  0  0  0  0  0  0  0  0  0  0
  144.7970   73.4220  217.9910 C   0  0  0  0  0  0  0  0  0  0  0  0
  145.9280   73.3110  218.9170 N   0  0  0  0  0  0  0  0  0  0  0  0
  145.7710   72.2010  219.8770 C   0  0  0  0  0  0  0  0  0  0  0  0
  144.3070   71.7890  220.1500 C   0  0  0  0  0  0  0  0  0  0  0  0
  141.8380   72.0900  221.6470 N   0  0  0  0  0  0  0  0  0  0  0  0
  140.7550   72.2450  222.4540 C   0  0  0  0  0  0  0  0  0  0  0  0
  140.3440   71.1820  223.3410 N   0  0  0  0  0  0  0  0  0  0  0  0
  139.5630   70.0490  222.8190 C   0  0  0  0  0  0  0  0  0  0  0  0
  138.5910   69.5320  223.8740 C   0  0  0  0  0  0  0  0  0  0  0  0
  139.3300   69.1920  225.1330 C   0  0  0  0  0  0  0  0  0  0  0  0
  138.9020   68.1290  225.9430 C   0  0  0  0  0  0  0  0  0  0  0  0
  139.5740   67.8360  227.1320 C   0  0  0  0  0  0  0  0  0  0  0  0
  140.6670   68.6100  227.5280 C   0  0  0  0  0  0  0  0  0  0  0  0
  141.0890   69.6820  226.7350 C   0  0  0  0  0  0  0  0  0  0  0  0
  140.4280   69.9790  225.5320 C   0  0  0  0  0  0  0  0  0  0  0  0
  140.8720   71.1730  224.7190 C   0  0  0  0  0  0  0  0  0  0  0  0
  140.0650   73.4160  222.4220 N   0  0  0  0  0  0  0  0  0  0  0  0
  142.6491   73.5907  218.1029 H   0  0  0  0  0  0  0  0  0  0  0  0
  143.5634   74.8106  219.0751 H   0  0  0  0  0  0  0  0  0  0  0  0
  144.6642   72.4660  217.4634 H   0  0  0  0  0  0  0  0  0  0  0  0
  145.0028   74.2247  217.2676 H   0  0  0  0  0  0  0  0  0  0  0  0
  146.0110   74.2090  219.4490 H   0  0  0  0  0  0  0  0  0  0  0  0
  146.3054   71.3255  219.4796 H   0  0  0  0  0  0  0  0  0  0  0  0
  146.1785   72.5571  220.8347 H   0  0  0  0  0  0  0  0  0  0  0  0
  144.0302   70.9774  219.4610 H   0  0  0  0  0  0  0  0  0  0  0  0
  144.2321   71.4587  221.1966 H   0  0  0  0  0  0  0  0  0  0  0  0
  138.9957   70.3780  221.9359 H   0  0  0  0  0  0  0  0  0  0  0  0
  140.2549   69.2378  222.5482 H   0  0  0  0  0  0  0  0  0  0  0  0
  137.8420   70.3081  224.0901 H   0  0  0  0  0  0  0  0  0  0  0  0
  138.0939   68.6277  223.4931 H   0  0  0  0  0  0  0  0  0  0  0  0
  138.0343   67.5244  225.6405 H   0  0  0  0  0  0  0  0  0  0  0  0
  139.2418   66.9943  227.7574 H   0  0  0  0  0  0  0  0  0  0  0  0
  141.1961   68.3765  228.4637 H   0  0  0  0  0  0  0  0  0  0  0  0
  141.9436   70.2960  227.0554 H   0  0  0  0  0  0  0  0  0  0  0  0
  140.5299   72.0862  225.2279 H   0  0  0  0  0  0  0  0  0  0  0  0
  141.9681   71.1204  224.6429 H   0  0  0  0  0  0  0  0  0  0  0  0
  1  2  1  0
  2  3  2  0
  3  4  1  0
  4  5  1  0
  5  6  1  0
  6  7  1  0
  7  8  1  0
  8  9  1  0
  9 10  1  0
  4 11  2  0
 11 12  1  0
 12 13  1  0
 13 14  1  0
 14 15  1  0
 15 16  1  0
 16 17  2  0
 17 18  1  0
 18 19  2  0
 19 20  1  0
 20 21  2  0
 21 22  1  0
 12 23  2  0
 23  2  1  0
 10  5  1  0
 22 13  1  0
 21 16  1  0
  6 24  1  0
  6 25  1  0
  7 26  1  0
  7 27  1  0
  8 28  1  0
  9 29  1  0
  9 30  1  0
 10 31  1  0
 10 32  1  0
 14 33  1  0
 14 34  1  0
 15 35  1  0
 15 36  1  0
 17 37  1  0
 18 38  1  0
 19 39  1  0
 20 40  1  0
 22 41  1  0
 22 42  1  0
M  CHG  1   1  -1
M  END
>  <UniqueID>  (48) 
703

>  <SMILES>  (48) 
[O-]c1nc(N2CCNCC2)nc(N2CCc3ccccc3C2)n1

>  <Energy>  (48) 
52.13574034752136

>  <Genealogy>  (48) 
[O-]c1nc(N2CCNCC2)nc(N2CCc3ccccc3C2)n1 (protonated)
[O-]c1nc(N2CCNCC2)nc(N2CCc3ccccc3C2)n1 (3D coordinates assigned)
[O-]c1nc(N2CCNCC2)nc(N2CCc3ccccc3C2)n1 (nonaromatic ring conformer: 52.13574034752136 kcal/mol)

>  <smiles>  (48) 
Oc1nc(N2CCNCC2)nc(N2CCc3ccccc3C2)n1

>  <score_type>  (48) 
oracle

>  <origin>  (48) 
autodockgpu

>  <m_score__min__energy>  (48) 
-7.2599999999999998

>  <m_primary>  (48) 
energy

>  <meeko>  (48) 
{"free_energy": -7.23, "intermolecular_energy": -7.83, "internal_energy": -0.57, "cluster_size": 19, "cluster_id": 1, "rank_in_cluster": 18}

>  <energy>  (48) 
-7.25

>  <cluster_rmsd>  (48) 
0.02

>  <rmsd>  (48) 
272.0

>  <cluster>  (48) 
1

$$$$
VOQKIUCZPHIEKY-MWDOZMLPNA-M
     RDKit          3D

 42 45  0  0  0  0  0  0  0  0999 V2000
  139.7040   75.5690  221.5300 O   0  0  0  0  0  0  0  0  0  0  0  0
  140.4240   74.3830  221.5750 C   0  0  0  0  0  0  0  0  0  0  0  0
  141.5090   74.2170  220.7790 N   0  0  0  0  0  0  0  0  0  0  0  0
  142.2190   73.0580  220.8170 C   0  0  0  0  0  0  0  0  0  0  0  0
  143.3730   72.8850  219.9680 N   0  0  0  0  0  0  0  0  0  0  0  0
  143.5270   73.7420  218.7850 C   0  0  0  0  0  0  0  0  0  0  0  0
  144.8100   73.4030  218.0220 C   0  0  0  0  0  0  0  0  0  0  0  0
  145.9320   73.2640  218.9560 N   0  0  0  0  0  0  0  0  0  0  0  0
  145.7540   72.1430  219.8990 C   0  0  0  0  0  0  0  0  0  0  0  0
  144.2830   71.7450  220.1540 C   0  0  0  0  0  0  0  0  0  0  0  0
  141.8270   72.0680  221.6610 N   0  0  0  0  0  0  0  0  0  0  0  0
  140.7390   72.2230  222.4620 C   0  0  0  0  0  0  0  0  0  0  0  0
  140.3330   71.1680  223.3590 N   0  0  0  0  0  0  0  0  0  0  0  0
  139.5590   70.0250  222.8470 C   0  0  0  0  0  0  0  0  0  0  0  0
  138.5880   69.5130  223.9050 C   0  0  0  0  0  0  0  0  0  0  0  0
  139.3250   69.1910  225.1700 C   0  0  0  0  0  0  0  0  0  0  0  0
  138.9000   68.1340  225.9900 C   0  0  0  0  0  0  0  0  0  0  0  0
  139.5710   67.8580  227.1830 C   0  0  0  0  0  0  0  0  0  0  0  0
  140.6570   68.6420  227.5740 C   0  0  0  0  0  0  0  0  0  0  0  0
  141.0760   69.7080  226.7710 C   0  0  0  0  0  0  0  0  0  0  0  0
  140.4170   69.9880  225.5630 C   0  0  0  0  0  0  0  0  0  0  0  0
  140.8560   71.1760  224.7390 C   0  0  0  0  0  0  0  0  0  0  0  0
  140.0410   73.3890  222.4130 N   0  0  0  0  0  0  0  0  0  0  0  0
  142.6636   73.5943  218.1196 H   0  0  0  0  0  0  0  0  0  0  0  0
  143.5845   74.7890  219.1173 H   0  0  0  0  0  0  0  0  0  0  0  0
  144.6704   72.4571  217.4782 H   0  0  0  0  0  0  0  0  0  0  0  0
  145.0313   74.2143  217.3128 H   0  0  0  0  0  0  0  0  0  0  0  0
  146.0210   74.1540  219.5020 H   0  0  0  0  0  0  0  0  0  0  0  0
  146.2813   71.2667  219.4939 H   0  0  0  0  0  0  0  0  0  0  0  0
  146.1577   72.4808  220.8649 H   0  0  0  0  0  0  0  0  0  0  0  0
  144.0025   70.9462  219.4516 H   0  0  0  0  0  0  0  0  0  0  0  0
  144.1954   71.4016  221.1954 H   0  0  0  0  0  0  0  0  0  0  0  0
  138.9916   70.3419  221.9596 H   0  0  0  0  0  0  0  0  0  0  0  0
  140.2560   69.2151  222.5858 H   0  0  0  0  0  0  0  0  0  0  0  0
  137.8334   70.2865  224.1107 H   0  0  0  0  0  0  0  0  0  0  0  0
  138.0984   68.6012  223.5323 H   0  0  0  0  0  0  0  0  0  0  0  0
  138.0362   67.5216  225.6920 H   0  0  0  0  0  0  0  0  0  0  0  0
  139.2427   67.0205  227.8161 H   0  0  0  0  0  0  0  0  0  0  0  0
  141.1839   68.4217  228.5141 H   0  0  0  0  0  0  0  0  0  0  0  0
  141.9261   70.3302  227.0875 H   0  0  0  0  0  0  0  0  0  0  0  0
  140.5064   72.0922  225.2373 H   0  0  0  0  0  0  0  0  0  0  0  0
  141.9526   71.1290  224.6669 H   0  0  0  0  0  0  0  0  0  0  0  0
  1  2  1  0
  2  3  2  0
  3  4  1  0
  4  5  1  0
  5  6  1  0
  6  7  1  0
  7  8  1  0
  8  9  1  0
  9 10  1  0
  4 11  2  0
 11 12  1  0
 12 13  1  0
 13 14  1  0
 14 15  1  0
 15 16  1  0
 16 17  2  0
 17 18  1  0
 18 19  2  0
 19 20  1  0
 20 21  2  0
 21 22  1  0
 12 23  2  0
 23  2  1  0
 10  5  1  0
 22 13  1  0
 21 16  1  0
  6 24  1  0
  6 25  1  0
  7 26  1  0
  7 27  1  0
  8 28  1  0
  9 29  1  0
  9 30  1  0
 10 31  1  0
 10 32  1  0
 14 33  1  0
 14 34  1  0
 15 35  1  0
 15 36  1  0
 17 37  1  0
 18 38  1  0
 19 39  1  0
 20 40  1  0
 22 41  1  0
 22 42  1  0
M  CHG  1   1  -1
M  END
>  <UniqueID>  (49) 
703

>  <SMILES>  (49) 
[O-]c1nc(N2CCNCC2)nc(N2CCc3ccccc3C2)n1

>  <Energy>  (49) 
52.13574034752136

>  <Genealogy>  (49) 
[O-]c1nc(N2CCNCC2)nc(N2CCc3ccccc3C2)n1 (protonated)
[O-]c1nc(N2CCNCC2)nc(N2CCc3ccccc3C2)n1 (3D coordinates assigned)
[O-]c1nc(N2CCNCC2)nc(N2CCc3ccccc3C2)n1 (nonaromatic ring conformer: 52.13574034752136 kcal/mol)

>  <smiles>  (49) 
Oc1nc(N2CCNCC2)nc(N2CCc3ccccc3C2)n1

>  <score_type>  (49) 
oracle

>  <origin>  (49) 
autodockgpu

>  <m_score__min__energy>  (49) 
-7.2599999999999998

>  <m_primary>  (49) 
energy

>  <meeko>  (49) 
{"free_energy": -7.23, "intermolecular_energy": -7.83, "internal_energy": -0.57, "cluster_size": 19, "cluster_id": 1, "rank_in_cluster": 17}

>  <energy>  (49) 
-7.25

>  <cluster_rmsd>  (49) 
0.03

>  <rmsd>  (49) 
271.98

>  <cluster>  (49) 
1

$$$$
VOQKIUCZPHIEKY-MWDOZMLPNA-M
     RDKit          3D

 42 45  0  0  0  0  0  0  0  0999 V2000
  139.4730   75.4500  221.4400 O   0  0  0  0  0  0  0  0  0  0  0  0
  140.2770   74.3290  221.5940 C   0  0  0  0  0  0  0  0  0  0  0  0
  141.4420   74.2320  220.9080 N   0  0  0  0  0  0  0  0  0  0  0  0
  142.2370   73.1380  221.0530 C   0  0  0  0  0  0  0  0  0  0  0  0
  143.4750   73.0370  220.3200 N   0  0  0  0  0  0  0  0  0  0  0  0
  144.6670   73.7290  220.8280 C   0  0  0  0  0  0  0  0  0  0  0  0
  145.8710   73.4960  219.9130 C   0  0  0  0  0  0  0  0  0  0  0  0
  145.9670   72.0780  219.5550 N   0  0  0  0  0  0  0  0  0  0  0  0
  144.8090   71.6080  218.7690 C   0  0  0  0  0  0  0  0  0  0  0  0
  143.5140   72.4230  218.9840 C   0  0  0  0  0  0  0  0  0  0  0  0
  141.8470   72.1420  221.8920 N   0  0  0  0  0  0  0  0  0  0  0  0
  140.6790   72.2300  222.5840 C   0  0  0  0  0  0  0  0  0  0  0  0
  140.2750   71.1700  223.4770 N   0  0  0  0  0  0  0  0  0  0  0  0
  139.4530   70.0580  222.9740 C   0  0  0  0  0  0  0  0  0  0  0  0
  138.5050   69.5530  224.0570 C   0  0  0  0  0  0  0  0  0  0  0  0
  139.2780   69.1900  225.2890 C   0  0  0  0  0  0  0  0  0  0  0  0
  138.8530   68.1300  226.1060 C   0  0  0  0  0  0  0  0  0  0  0  0
  139.5570   67.8150  227.2710 C   0  0  0  0  0  0  0  0  0  0  0  0
  140.6780   68.5630  227.6350 C   0  0  0  0  0  0  0  0  0  0  0  0
  141.0970   69.6310  226.8360 C   0  0  0  0  0  0  0  0  0  0  0  0
  140.4050   69.9500  225.6570 C   0  0  0  0  0  0  0  0  0  0  0  0
  140.8470   71.1400  224.8370 C   0  0  0  0  0  0  0  0  0  0  0  0
  139.8980   73.3310  222.4290 N   0  0  0  0  0  0  0  0  0  0  0  0
  144.4603   74.8080  220.8820 H   0  0  0  0  0  0  0  0  0  0  0  0
  144.9039   73.3303  221.8255 H   0  0  0  0  0  0  0  0  0  0  0  0
  145.7532   74.0948  218.9978 H   0  0  0  0  0  0  0  0  0  0  0  0
  146.7876   73.7957  220.4421 H   0  0  0  0  0  0  0  0  0  0  0  0
  146.0280   71.5160  220.4370 H   0  0  0  0  0  0  0  0  0  0  0  0
  145.0741   71.6595  217.7027 H   0  0  0  0  0  0  0  0  0  0  0  0
  144.5943   70.5846  219.1105 H   0  0  0  0  0  0  0  0  0  0  0  0
  143.4621   73.2172  218.2247 H   0  0  0  0  0  0  0  0  0  0  0  0
  142.6581   71.7377  218.8957 H   0  0  0  0  0  0  0  0  0  0  0  0
  138.8640   70.4057  222.1125 H   0  0  0  0  0  0  0  0  0  0  0  0
  140.1182   69.2344  222.6753 H   0  0  0  0  0  0  0  0  0  0  0  0
  137.7791   70.3423  224.3022 H   0  0  0  0  0  0  0  0  0  0  0  0
  137.9774   68.6615  223.6870 H   0  0  0  0  0  0  0  0  0  0  0  0
  137.9633   67.5460  225.8280 H   0  0  0  0  0  0  0  0  0  0  0  0
  139.2275   66.9765  227.9022 H   0  0  0  0  0  0  0  0  0  0  0  0
  141.2322   68.3119  228.5514 H   0  0  0  0  0  0  0  0  0  0  0  0
  141.9741   70.2248  227.1329 H   0  0  0  0  0  0  0  0  0  0  0  0
  140.5409   72.0566  225.3626 H   0  0  0  0  0  0  0  0  0  0  0  0
  141.9386   71.0646  224.7245 H   0  0  0  0  0  0  0  0  0  0  0  0
  1  2  1  0
  2  3  2  0
  3  4  1  0
  4  5  1  0
  5  6  1  0
  6  7  1  0
  7  8  1  0
  8  9  1  0
  9 10  1  0
  4 11  2  0
 11 12  1  0
 12 13  1  0
 13 14  1  0
 14 15  1  0
 15 16  1  0
 16 17  2  0
 17 18  1  0
 18 19  2  0
 19 20  1  0
 20 21  2  0
 21 22  1  0
 12 23  2  0
 23  2  1  0
 10  5  1  0
 22 13  1  0
 21 16  1  0
  6 24  1  0
  6 25  1  0
  7 26  1  0
  7 27  1  0
  8 28  1  0
  9 29  1  0
  9 30  1  0
 10 31  1  0
 10 32  1  0
 14 33  1  0
 14 34  1  0
 15 35  1  0
 15 36  1  0
 17 37  1  0
 18 38  1  0
 19 39  1  0
 20 40  1  0
 22 41  1  0
 22 42  1  0
M  CHG  1   1  -1
M  END
>  <UniqueID>  (50) 
703

>  <SMILES>  (50) 
[O-]c1nc(N2CCNCC2)nc(N2CCc3ccccc3C2)n1

>  <Energy>  (50) 
52.13574034752136

>  <Genealogy>  (50) 
[O-]c1nc(N2CCNCC2)nc(N2CCc3ccccc3C2)n1 (protonated)
[O-]c1nc(N2CCNCC2)nc(N2CCc3ccccc3C2)n1 (3D coordinates assigned)
[O-]c1nc(N2CCNCC2)nc(N2CCc3ccccc3C2)n1 (nonaromatic ring conformer: 52.13574034752136 kcal/mol)

>  <smiles>  (50) 
Oc1nc(N2CCNCC2)nc(N2CCc3ccccc3C2)n1

>  <score_type>  (50) 
oracle

>  <origin>  (50) 
autodockgpu

>  <m_score__min__energy>  (50) 
-7.2599999999999998

>  <m_primary>  (50) 
energy

>  <meeko>  (50) 
{"free_energy": -7.25, "intermolecular_energy": -7.85, "internal_energy": -0.56, "cluster_size": 19, "cluster_id": 1, "rank_in_cluster": 7}

>  <energy>  (50) 
-7.24

>  <cluster_rmsd>  (50) 
0.92

>  <rmsd>  (50) 
271.9

>  <cluster>  (50) 
1

$$$$
VOQKIUCZPHIEKY-MWDOZMLPNA-M
     RDKit          3D

 42 45  0  0  0  0  0  0  0  0999 V2000
  139.4590   75.4340  221.4280 O   0  0  0  0  0  0  0  0  0  0  0  0
  140.2650   74.3140  221.5800 C   0  0  0  0  0  0  0  0  0  0  0  0
  141.4320   74.2210  220.8960 N   0  0  0  0  0  0  0  0  0  0  0  0
  142.2270   73.1270  221.0400 C   0  0  0  0  0  0  0  0  0  0  0  0
  143.4680   73.0310  220.3100 N   0  0  0  0  0  0  0  0  0  0  0  0
  144.6580   73.7240  220.8230 C   0  0  0  0  0  0  0  0  0  0  0  0
  145.8650   73.4950  219.9100 C   0  0  0  0  0  0  0  0  0  0  0  0
  145.9640   72.0780  219.5480 N   0  0  0  0  0  0  0  0  0  0  0  0
  144.8090   71.6090  218.7570 C   0  0  0  0  0  0  0  0  0  0  0  0
  143.5110   72.4210  218.9720 C   0  0  0  0  0  0  0  0  0  0  0  0
  141.8370   72.1280  221.8740 N   0  0  0  0  0  0  0  0  0  0  0  0
  140.6670   72.2110  222.5630 C   0  0  0  0  0  0  0  0  0  0  0  0
  140.2630   71.1480  223.4520 N   0  0  0  0  0  0  0  0  0  0  0  0
  139.4470   70.0340  222.9410 C   0  0  0  0  0  0  0  0  0  0  0  0
  138.4960   69.5230  224.0180 C   0  0  0  0  0  0  0  0  0  0  0  0
  139.2630   69.1590  225.2530 C   0  0  0  0  0  0  0  0  0  0  0  0
  138.8380   68.0950  226.0650 C   0  0  0  0  0  0  0  0  0  0  0  0
  139.5370   67.7800  227.2320 C   0  0  0  0  0  0  0  0  0  0  0  0
  140.6540   68.5300  227.6040 C   0  0  0  0  0  0  0  0  0  0  0  0
  141.0730   69.6020  226.8100 C   0  0  0  0  0  0  0  0  0  0  0  0
  140.3850   69.9220  225.6290 C   0  0  0  0  0  0  0  0  0  0  0  0
  140.8280   71.1160  224.8140 C   0  0  0  0  0  0  0  0  0  0  0  0
  139.8850   73.3120  222.4100 N   0  0  0  0  0  0  0  0  0  0  0  0
  144.4494   74.8026  220.8791 H   0  0  0  0  0  0  0  0  0  0  0  0
  144.8930   73.3234  221.8202 H   0  0  0  0  0  0  0  0  0  0  0  0
  145.7487   74.0962  218.9962 H   0  0  0  0  0  0  0  0  0  0  0  0
  146.7798   73.7943  220.4425 H   0  0  0  0  0  0  0  0  0  0  0  0
  146.0230   71.5130  220.4280 H   0  0  0  0  0  0  0  0  0  0  0  0
  145.0768   71.6655  217.6916 H   0  0  0  0  0  0  0  0  0  0  0  0
  144.5955   70.5838  219.0937 H   0  0  0  0  0  0  0  0  0  0  0  0
  143.4588   73.2174  218.2150 H   0  0  0  0  0  0  0  0  0  0  0  0
  142.6568   71.7341  218.8799 H   0  0  0  0  0  0  0  0  0  0  0  0
  138.8610   70.3822  222.0777 H   0  0  0  0  0  0  0  0  0  0  0  0
  140.1163   69.2137  222.6426 H   0  0  0  0  0  0  0  0  0  0  0  0
  137.7663   70.3093  224.2616 H   0  0  0  0  0  0  0  0  0  0  0  0
  137.9739   68.6305  223.6428 H   0  0  0  0  0  0  0  0  0  0  0  0
  137.9520   67.5081  225.7809 H   0  0  0  0  0  0  0  0  0  0  0  0
  139.2068   66.9391  227.8595 H   0  0  0  0  0  0  0  0  0  0  0  0
  141.2048   68.2776  228.5221 H   0  0  0  0  0  0  0  0  0  0  0  0
  141.9467   70.1979  227.1125 H   0  0  0  0  0  0  0  0  0  0  0  0
  140.5168   72.0303  225.3404 H   0  0  0  0  0  0  0  0  0  0  0  0
  141.9204   71.0440  224.7068 H   0  0  0  0  0  0  0  0  0  0  0  0
  1  2  1  0
  2  3  2  0
  3  4  1  0
  4  5  1  0
  5  6  1  0
  6  7  1  0
  7  8  1  0
  8  9  1  0
  9 10  1  0
  4 11  2  0
 11 12  1  0
 12 13  1  0
 13 14  1  0
 14 15  1  0
 15 16  1  0
 16 17  2  0
 17 18  1  0
 18 19  2  0
 19 20  1  0
 20 21  2  0
 21 22  1  0
 12 23  2  0
 23  2  1  0
 10  5  1  0
 22 13  1  0
 21 16  1  0
  6 24  1  0
  6 25  1  0
  7 26  1  0
  7 27  1  0
  8 28  1  0
  9 29  1  0
  9 30  1  0
 10 31  1  0
 10 32  1  0
 14 33  1  0
 14 34  1  0
 15 35  1  0
 15 36  1  0
 17 37  1  0
 18 38  1  0
 19 39  1  0
 20 40  1  0
 22 41  1  0
 22 42  1  0
M  CHG  1   1  -1
M  END
>  <UniqueID>  (51) 
703

>  <SMILES>  (51) 
[O-]c1nc(N2CCNCC2)nc(N2CCc3ccccc3C2)n1

>  <Energy>  (51) 
52.13574034752136

>  <Genealogy>  (51) 
[O-]c1nc(N2CCNCC2)nc(N2CCc3ccccc3C2)n1 (protonated)
[O-]c1nc(N2CCNCC2)nc(N2CCc3ccccc3C2)n1 (3D coordinates assigned)
[O-]c1nc(N2CCNCC2)nc(N2CCc3ccccc3C2)n1 (nonaromatic ring conformer: 52.13574034752136 kcal/mol)

>  <smiles>  (51) 
Oc1nc(N2CCNCC2)nc(N2CCc3ccccc3C2)n1

>  <score_type>  (51) 
oracle

>  <origin>  (51) 
autodockgpu

>  <m_score__min__energy>  (51) 
-7.2599999999999998

>  <m_primary>  (51) 
energy

>  <meeko>  (51) 
{"free_energy": -7.25, "intermolecular_energy": -7.84, "internal_energy": -0.56, "cluster_size": 19, "cluster_id": 1, "rank_in_cluster": 9}

>  <energy>  (51) 
-7.24

>  <cluster_rmsd>  (51) 
0.91

>  <rmsd>  (51) 
271.91

>  <cluster>  (51) 
1

$$$$
VOQKIUCZPHIEKY-MWDOZMLPNA-M
     RDKit          3D

 42 45  0  0  0  0  0  0  0  0999 V2000
  139.4600   75.4710  221.4720 O   0  0  0  0  0  0  0  0  0  0  0  0
  140.2650   74.3490  221.6130 C   0  0  0  0  0  0  0  0  0  0  0  0
  141.4290   74.2590  220.9240 N   0  0  0  0  0  0  0  0  0  0  0  0
  142.2240   73.1640  221.0570 C   0  0  0  0  0  0  0  0  0  0  0  0
  143.4610   73.0700  220.3220 N   0  0  0  0  0  0  0  0  0  0  0  0
  144.6530   73.7600  220.8330 C   0  0  0  0  0  0  0  0  0  0  0  0
  145.8560   73.5360  219.9140 C   0  0  0  0  0  0  0  0  0  0  0  0
  145.9540   72.1200  219.5450 N   0  0  0  0  0  0  0  0  0  0  0  0
  144.7950   71.6550  218.7570 C   0  0  0  0  0  0  0  0  0  0  0  0
  143.4990   72.4670  218.9810 C   0  0  0  0  0  0  0  0  0  0  0  0
  141.8360   72.1600  221.8880 N   0  0  0  0  0  0  0  0  0  0  0  0
  140.6690   72.2400  222.5820 C   0  0  0  0  0  0  0  0  0  0  0  0
  140.2670   71.1720  223.4660 N   0  0  0  0  0  0  0  0  0  0  0  0
  139.4460   70.0630  222.9520 C   0  0  0  0  0  0  0  0  0  0  0  0
  138.5000   69.5480  224.0310 C   0  0  0  0  0  0  0  0  0  0  0  0
  139.2730   69.1740  225.2600 C   0  0  0  0  0  0  0  0  0  0  0  0
  138.8500   68.1060  226.0670 C   0  0  0  0  0  0  0  0  0  0  0  0
  139.5540   67.7810  227.2280 C   0  0  0  0  0  0  0  0  0  0  0  0
  140.6750   68.5270  227.5990 C   0  0  0  0  0  0  0  0  0  0  0  0
  141.0920   69.6040  226.8100 C   0  0  0  0  0  0  0  0  0  0  0  0
  140.3990   69.9320  225.6340 C   0  0  0  0  0  0  0  0  0  0  0  0
  140.8390   71.1300  224.8250 C   0  0  0  0  0  0  0  0  0  0  0  0
  139.8870   73.3430  222.4390 N   0  0  0  0  0  0  0  0  0  0  0  0
  144.4447   74.8383  220.8956 H   0  0  0  0  0  0  0  0  0  0  0  0
  144.8924   73.3540  221.8269 H   0  0  0  0  0  0  0  0  0  0  0  0
  145.7355   74.1414  219.0035 H   0  0  0  0  0  0  0  0  0  0  0  0
  146.7730   73.8334  220.4438 H   0  0  0  0  0  0  0  0  0  0  0  0
  146.0160   71.5510  220.4220 H   0  0  0  0  0  0  0  0  0  0  0  0
  145.0582   71.7156  217.6907 H   0  0  0  0  0  0  0  0  0  0  0  0
  144.5821   70.6286  219.0904 H   0  0  0  0  0  0  0  0  0  0  0  0
  143.4450   73.2674  218.2284 H   0  0  0  0  0  0  0  0  0  0  0  0
  142.6439   71.7813  218.8885 H   0  0  0  0  0  0  0  0  0  0  0  0
  138.8562   70.4179  222.0940 H   0  0  0  0  0  0  0  0  0  0  0  0
  140.1117   69.2431  222.6444 H   0  0  0  0  0  0  0  0  0  0  0  0
  137.7738   70.3347  224.2836 H   0  0  0  0  0  0  0  0  0  0  0  0
  137.9735   68.6592  223.6531 H   0  0  0  0  0  0  0  0  0  0  0  0
  137.9610   67.5234  225.7837 H   0  0  0  0  0  0  0  0  0  0  0  0
  139.2254   66.9363  227.8513 H   0  0  0  0  0  0  0  0  0  0  0  0
  141.2303   68.2673  228.5123 H   0  0  0  0  0  0  0  0  0  0  0  0
  141.9676   70.1971  227.1126 H   0  0  0  0  0  0  0  0  0  0  0  0
  140.5318   72.0412  225.3591 H   0  0  0  0  0  0  0  0  0  0  0  0
  141.9307   71.0571  224.7115 H   0  0  0  0  0  0  0  0  0  0  0  0
  1  2  1  0
  2  3  2  0
  3  4  1  0
  4  5  1  0
  5  6  1  0
  6  7  1  0
  7  8  1  0
  8  9  1  0
  9 10  1  0
  4 11  2  0
 11 12  1  0
 12 13  1  0
 13 14  1  0
 14 15  1  0
 15 16  1  0
 16 17  2  0
 17 18  1  0
 18 19  2  0
 19 20  1  0
 20 21  2  0
 21 22  1  0
 12 23  2  0
 23  2  1  0
 10  5  1  0
 22 13  1  0
 21 16  1  0
  6 24  1  0
  6 25  1  0
  7 26  1  0
  7 27  1  0
  8 28  1  0
  9 29  1  0
  9 30  1  0
 10 31  1  0
 10 32  1  0
 14 33  1  0
 14 34  1  0
 15 35  1  0
 15 36  1  0
 17 37  1  0
 18 38  1  0
 19 39  1  0
 20 40  1  0
 22 41  1  0
 22 42  1  0
M  CHG  1   1  -1
M  END
>  <UniqueID>  (52) 
703

>  <SMILES>  (52) 
[O-]c1nc(N2CCNCC2)nc(N2CCc3ccccc3C2)n1

>  <Energy>  (52) 
52.13574034752136

>  <Genealogy>  (52) 
[O-]c1nc(N2CCNCC2)nc(N2CCc3ccccc3C2)n1 (protonated)
[O-]c1nc(N2CCNCC2)nc(N2CCc3ccccc3C2)n1 (3D coordinates assigned)
[O-]c1nc(N2CCNCC2)nc(N2CCc3ccccc3C2)n1 (nonaromatic ring conformer: 52.13574034752136 kcal/mol)

>  <smiles>  (52) 
Oc1nc(N2CCNCC2)nc(N2CCc3ccccc3C2)n1

>  <score_type>  (52) 
oracle

>  <origin>  (52) 
autodockgpu

>  <m_score__min__energy>  (52) 
-7.2599999999999998

>  <m_primary>  (52) 
energy

>  <meeko>  (52) 
{"free_energy": -7.25, "intermolecular_energy": -7.85, "internal_energy": -0.56, "cluster_size": 19, "cluster_id": 1, "rank_in_cluster": 6}

>  <energy>  (52) 
-7.24

>  <cluster_rmsd>  (52) 
0.92

>  <rmsd>  (52) 
271.91

>  <cluster>  (52) 
1

$$$$
VOQKIUCZPHIEKY-MWDOZMLPNA-M
     RDKit          3D

 42 45  0  0  0  0  0  0  0  0999 V2000
  139.7090   75.5870  221.5350 O   0  0  0  0  0  0  0  0  0  0  0  0
  140.4310   74.4020  221.5870 C   0  0  0  0  0  0  0  0  0  0  0  0
  141.5220   74.2370  220.7990 N   0  0  0  0  0  0  0  0  0  0  0  0
  142.2340   73.0800  220.8450 C   0  0  0  0  0  0  0  0  0  0  0  0
  143.3930   72.9070  220.0030 N   0  0  0  0  0  0  0  0  0  0  0  0
  143.5120   73.7040  218.7750 C   0  0  0  0  0  0  0  0  0  0  0  0
  144.8080   73.3740  218.0280 C   0  0  0  0  0  0  0  0  0  0  0  0
  145.9340   73.3330  218.9650 N   0  0  0  0  0  0  0  0  0  0  0  0
  145.8030   72.2590  219.9690 C   0  0  0  0  0  0  0  0  0  0  0  0
  144.3490   71.8160  220.2490 C   0  0  0  0  0  0  0  0  0  0  0  0
  141.8380   72.0900  221.6890 N   0  0  0  0  0  0  0  0  0  0  0  0
  140.7450   72.2460  222.4820 C   0  0  0  0  0  0  0  0  0  0  0  0
  140.3350   71.1920  223.3790 N   0  0  0  0  0  0  0  0  0  0  0  0
  139.5510   70.0550  222.8680 C   0  0  0  0  0  0  0  0  0  0  0  0
  138.5800   69.5480  223.9290 C   0  0  0  0  0  0  0  0  0  0  0  0
  139.3210   69.2190  225.1900 C   0  0  0  0  0  0  0  0  0  0  0  0
  138.8920   68.1630  226.0100 C   0  0  0  0  0  0  0  0  0  0  0  0
  139.5660   67.8800  227.2010 C   0  0  0  0  0  0  0  0  0  0  0  0
  140.6600   68.6560  227.5880 C   0  0  0  0  0  0  0  0  0  0  0  0
  141.0820   69.7210  226.7850 C   0  0  0  0  0  0  0  0  0  0  0  0
  140.4210   70.0080  225.5810 C   0  0  0  0  0  0  0  0  0  0  0  0
  140.8640   71.1940  224.7560 C   0  0  0  0  0  0  0  0  0  0  0  0
  140.0450   73.4100  222.4260 N   0  0  0  0  0  0  0  0  0  0  0  0
  142.6548   73.4866  218.1209 H   0  0  0  0  0  0  0  0  0  0  0  0
  143.5279   74.7691  219.0494 H   0  0  0  0  0  0  0  0  0  0  0  0
  144.7063   72.3941  217.5387 H   0  0  0  0  0  0  0  0  0  0  0  0
  144.9962   74.1520  217.2735 H   0  0  0  0  0  0  0  0  0  0  0  0
  145.9880   74.2550  219.4620 H   0  0  0  0  0  0  0  0  0  0  0  0
  146.3657   71.3841  219.6114 H   0  0  0  0  0  0  0  0  0  0  0  0
  146.1933   72.6652  220.9138 H   0  0  0  0  0  0  0  0  0  0  0  0
  144.1011   70.9693  219.5920 H   0  0  0  0  0  0  0  0  0  0  0  0
  144.2755   71.5266  221.3077 H   0  0  0  0  0  0  0  0  0  0  0  0
  138.9826   70.3773  221.9831 H   0  0  0  0  0  0  0  0  0  0  0  0
  140.2414   69.2406  222.6031 H   0  0  0  0  0  0  0  0  0  0  0  0
  137.8317   70.3264  224.1392 H   0  0  0  0  0  0  0  0  0  0  0  0
  138.0816   68.6407  223.5570 H   0  0  0  0  0  0  0  0  0  0  0  0
  138.0231   67.5569  225.7141 H   0  0  0  0  0  0  0  0  0  0  0  0
  139.2339   67.0444  227.8346 H   0  0  0  0  0  0  0  0  0  0  0  0
  141.1905   68.4300  228.5247 H   0  0  0  0  0  0  0  0  0  0  0  0
  141.9372   70.3372  227.0994 H   0  0  0  0  0  0  0  0  0  0  0  0
  140.5231   72.1119  225.2572 H   0  0  0  0  0  0  0  0  0  0  0  0
  141.9599   71.1390  224.6784 H   0  0  0  0  0  0  0  0  0  0  0  0
  1  2  1  0
  2  3  2  0
  3  4  1  0
  4  5  1  0
  5  6  1  0
  6  7  1  0
  7  8  1  0
  8  9  1  0
  9 10  1  0
  4 11  2  0
 11 12  1  0
 12 13  1  0
 13 14  1  0
 14 15  1  0
 15 16  1  0
 16 17  2  0
 17 18  1  0
 18 19  2  0
 19 20  1  0
 20 21  2  0
 21 22  1  0
 12 23  2  0
 23  2  1  0
 10  5  1  0
 22 13  1  0
 21 16  1  0
  6 24  1  0
  6 25  1  0
  7 26  1  0
  7 27  1  0
  8 28  1  0
  9 29  1  0
  9 30  1  0
 10 31  1  0
 10 32  1  0
 14 33  1  0
 14 34  1  0
 15 35  1  0
 15 36  1  0
 17 37  1  0
 18 38  1  0
 19 39  1  0
 20 40  1  0
 22 41  1  0
 22 42  1  0
M  CHG  1   1  -1
M  END
>  <UniqueID>  (53) 
703

>  <SMILES>  (53) 
[O-]c1nc(N2CCNCC2)nc(N2CCc3ccccc3C2)n1

>  <Energy>  (53) 
52.13574034752136

>  <Genealogy>  (53) 
[O-]c1nc(N2CCNCC2)nc(N2CCc3ccccc3C2)n1 (protonated)
[O-]c1nc(N2CCNCC2)nc(N2CCc3ccccc3C2)n1 (3D coordinates assigned)
[O-]c1nc(N2CCNCC2)nc(N2CCc3ccccc3C2)n1 (nonaromatic ring conformer: 52.13574034752136 kcal/mol)

>  <smiles>  (53) 
Oc1nc(N2CCNCC2)nc(N2CCc3ccccc3C2)n1

>  <score_type>  (53) 
oracle

>  <origin>  (53) 
autodockgpu

>  <m_score__min__energy>  (53) 
-7.2599999999999998

>  <m_primary>  (53) 
energy

>  <meeko>  (53) 
{"free_energy": -7.24, "intermolecular_energy": -7.84, "internal_energy": -0.57, "cluster_size": 19, "cluster_id": 1, "rank_in_cluster": 11}

>  <energy>  (53) 
-7.24

>  <cluster_rmsd>  (53) 
0.92

>  <rmsd>  (53) 
271.9

>  <cluster>  (53) 
1

$$$$
VOQKIUCZPHIEKY-MWDOZMLPNA-M
     RDKit          3D

 42 45  0  0  0  0  0  0  0  0999 V2000
  139.4570   75.4760  221.4420 O   0  0  0  0  0  0  0  0  0  0  0  0
  140.2630   74.3560  221.5930 C   0  0  0  0  0  0  0  0  0  0  0  0
  141.4320   74.2640  220.9120 N   0  0  0  0  0  0  0  0  0  0  0  0
  142.2270   73.1700  221.0550 C   0  0  0  0  0  0  0  0  0  0  0  0
  143.4690   73.0740  220.3270 N   0  0  0  0  0  0  0  0  0  0  0  0
  144.6600   73.7580  220.8490 C   0  0  0  0  0  0  0  0  0  0  0  0
  145.8680   73.5330  219.9370 C   0  0  0  0  0  0  0  0  0  0  0  0
  145.9630   72.1190  219.5630 N   0  0  0  0  0  0  0  0  0  0  0  0
  144.8070   71.6610  218.7660 C   0  0  0  0  0  0  0  0  0  0  0  0
  143.5130   72.4760  218.9840 C   0  0  0  0  0  0  0  0  0  0  0  0
  141.8350   72.1700  221.8880 N   0  0  0  0  0  0  0  0  0  0  0  0
  140.6640   72.2520  222.5750 C   0  0  0  0  0  0  0  0  0  0  0  0
  140.2580   71.1870  223.4620 N   0  0  0  0  0  0  0  0  0  0  0  0
  139.4100   70.0950  222.9580 C   0  0  0  0  0  0  0  0  0  0  0  0
  138.4730   69.5920  224.0500 C   0  0  0  0  0  0  0  0  0  0  0  0
  139.2600   69.2000  225.2650 C   0  0  0  0  0  0  0  0  0  0  0  0
  138.8320   68.1360  226.0750 C   0  0  0  0  0  0  0  0  0  0  0  0
  139.5500   67.7950  227.2230 C   0  0  0  0  0  0  0  0  0  0  0  0
  140.6890   68.5200  227.5780 C   0  0  0  0  0  0  0  0  0  0  0  0
  141.1120   69.5920  226.7860 C   0  0  0  0  0  0  0  0  0  0  0  0
  140.4050   69.9370  225.6230 C   0  0  0  0  0  0  0  0  0  0  0  0
  140.8520   71.1300  224.8110 C   0  0  0  0  0  0  0  0  0  0  0  0
  139.8820   73.3530  222.4220 N   0  0  0  0  0  0  0  0  0  0  0  0
  144.4551   74.8368  220.9144 H   0  0  0  0  0  0  0  0  0  0  0  0
  144.8912   73.3477  221.8431 H   0  0  0  0  0  0  0  0  0  0  0  0
  145.7558   74.1425  219.0282 H   0  0  0  0  0  0  0  0  0  0  0  0
  146.7826   73.8246  220.4740 H   0  0  0  0  0  0  0  0  0  0  0  0
  146.0170   71.5460  220.4390 H   0  0  0  0  0  0  0  0  0  0  0  0
  145.0773   71.7243  217.7016 H   0  0  0  0  0  0  0  0  0  0  0  0
  144.5883   70.6344  219.0950 H   0  0  0  0  0  0  0  0  0  0  0  0
  143.4665   73.2793  218.2339 H   0  0  0  0  0  0  0  0  0  0  0  0
  142.6559   71.7939  218.8831 H   0  0  0  0  0  0  0  0  0  0  0  0
  138.8125   70.4634  222.1111 H   0  0  0  0  0  0  0  0  0  0  0  0
  140.0564   69.2649  222.6369 H   0  0  0  0  0  0  0  0  0  0  0  0
  137.7646   70.3899  224.3174 H   0  0  0  0  0  0  0  0  0  0  0  0
  137.9251   68.7139  223.6775 H   0  0  0  0  0  0  0  0  0  0  0  0
  137.9287   67.5696  225.8045 H   0  0  0  0  0  0  0  0  0  0  0  0
  139.2176   66.9536  227.8488 H   0  0  0  0  0  0  0  0  0  0  0  0
  141.2542   68.2477  228.4816 H   0  0  0  0  0  0  0  0  0  0  0  0
  142.0033   70.1680  227.0756 H   0  0  0  0  0  0  0  0  0  0  0  0
  140.5697   72.0444  225.3534 H   0  0  0  0  0  0  0  0  0  0  0  0
  141.9402   71.0386  224.6788 H   0  0  0  0  0  0  0  0  0  0  0  0
  1  2  1  0
  2  3  2  0
  3  4  1  0
  4  5  1  0
  5  6  1  0
  6  7  1  0
  7  8  1  0
  8  9  1  0
  9 10  1  0
  4 11  2  0
 11 12  1  0
 12 13  1  0
 13 14  1  0
 14 15  1  0
 15 16  1  0
 16 17  2  0
 17 18  1  0
 18 19  2  0
 19 20  1  0
 20 21  2  0
 21 22  1  0
 12 23  2  0
 23  2  1  0
 10  5  1  0
 22 13  1  0
 21 16  1  0
  6 24  1  0
  6 25  1  0
  7 26  1  0
  7 27  1  0
  8 28  1  0
  9 29  1  0
  9 30  1  0
 10 31  1  0
 10 32  1  0
 14 33  1  0
 14 34  1  0
 15 35  1  0
 15 36  1  0
 17 37  1  0
 18 38  1  0
 19 39  1  0
 20 40  1  0
 22 41  1  0
 22 42  1  0
M  CHG  1   1  -1
M  END
>  <UniqueID>  (54) 
703

>  <SMILES>  (54) 
[O-]c1nc(N2CCNCC2)nc(N2CCc3ccccc3C2)n1

>  <Energy>  (54) 
52.13574034752136

>  <Genealogy>  (54) 
[O-]c1nc(N2CCNCC2)nc(N2CCc3ccccc3C2)n1 (protonated)
[O-]c1nc(N2CCNCC2)nc(N2CCc3ccccc3C2)n1 (3D coordinates assigned)
[O-]c1nc(N2CCNCC2)nc(N2CCc3ccccc3C2)n1 (nonaromatic ring conformer: 52.13574034752136 kcal/mol)

>  <smiles>  (54) 
Oc1nc(N2CCNCC2)nc(N2CCc3ccccc3C2)n1

>  <score_type>  (54) 
oracle

>  <origin>  (54) 
autodockgpu

>  <m_score__min__energy>  (54) 
-7.2599999999999998

>  <m_primary>  (54) 
energy

>  <meeko>  (54) 
{"free_energy": -7.26, "intermolecular_energy": -7.85, "internal_energy": -0.56, "cluster_size": 19, "cluster_id": 1, "rank_in_cluster": 2}

>  <energy>  (54) 
-7.24

>  <cluster_rmsd>  (54) 
0.91

>  <rmsd>  (54) 
271.86

>  <cluster>  (54) 
1

$$$$
VOQKIUCZPHIEKY-MWDOZMLPNA-M
     RDKit          3D

 42 45  0  0  0  0  0  0  0  0999 V2000
  139.4500   75.4710  221.4530 O   0  0  0  0  0  0  0  0  0  0  0  0
  140.2570   74.3520  221.6030 C   0  0  0  0  0  0  0  0  0  0  0  0
  141.4240   74.2600  220.9190 N   0  0  0  0  0  0  0  0  0  0  0  0
  142.2200   73.1680  221.0610 C   0  0  0  0  0  0  0  0  0  0  0  0
  143.4600   73.0730  220.3300 N   0  0  0  0  0  0  0  0  0  0  0  0
  144.6500   73.7660  220.8420 C   0  0  0  0  0  0  0  0  0  0  0  0
  145.8560   73.5400  219.9280 C   0  0  0  0  0  0  0  0  0  0  0  0
  145.9560   72.1230  219.5640 N   0  0  0  0  0  0  0  0  0  0  0  0
  144.8010   71.6540  218.7750 C   0  0  0  0  0  0  0  0  0  0  0  0
  143.5030   72.4640  218.9910 C   0  0  0  0  0  0  0  0  0  0  0  0
  141.8320   72.1680  221.8960 N   0  0  0  0  0  0  0  0  0  0  0  0
  140.6630   72.2490  222.5860 C   0  0  0  0  0  0  0  0  0  0  0  0
  140.2610   71.1860  223.4750 N   0  0  0  0  0  0  0  0  0  0  0  0
  139.4360   70.0760  222.9670 C   0  0  0  0  0  0  0  0  0  0  0  0
  138.4910   69.5670  224.0500 C   0  0  0  0  0  0  0  0  0  0  0  0
  139.2660   69.1960  225.2790 C   0  0  0  0  0  0  0  0  0  0  0  0
  138.8430   68.1320  226.0910 C   0  0  0  0  0  0  0  0  0  0  0  0
  139.5500   67.8110  227.2520 C   0  0  0  0  0  0  0  0  0  0  0  0
  140.6730   68.5560  227.6170 C   0  0  0  0  0  0  0  0  0  0  0  0
  141.0900   69.6280  226.8230 C   0  0  0  0  0  0  0  0  0  0  0  0
  140.3950   69.9540  225.6480 C   0  0  0  0  0  0  0  0  0  0  0  0
  140.8360   71.1480  224.8330 C   0  0  0  0  0  0  0  0  0  0  0  0
  139.8790   73.3490  222.4340 N   0  0  0  0  0  0  0  0  0  0  0  0
  144.4404   74.8443  220.9000 H   0  0  0  0  0  0  0  0  0  0  0  0
  144.8867   73.3636  221.8380 H   0  0  0  0  0  0  0  0  0  0  0  0
  145.7382   74.1424  219.0152 H   0  0  0  0  0  0  0  0  0  0  0  0
  146.7710   73.8398  220.4598 H   0  0  0  0  0  0  0  0  0  0  0  0
  146.0170   71.5580  220.4450 H   0  0  0  0  0  0  0  0  0  0  0  0
  145.0676   71.7109  217.7093 H   0  0  0  0  0  0  0  0  0  0  0  0
  144.5885   70.6288  219.1124 H   0  0  0  0  0  0  0  0  0  0  0  0
  143.4497   73.2609  218.2347 H   0  0  0  0  0  0  0  0  0  0  0  0
  142.6494   71.7764  218.8986 H   0  0  0  0  0  0  0  0  0  0  0  0
  138.8451   70.4287  222.1088 H   0  0  0  0  0  0  0  0  0  0  0  0
  140.0994   69.2535  222.6615 H   0  0  0  0  0  0  0  0  0  0  0  0
  137.7670   70.3562  224.3011 H   0  0  0  0  0  0  0  0  0  0  0  0
  137.9618   68.6779  223.6766 H   0  0  0  0  0  0  0  0  0  0  0  0
  137.9525   67.5496  225.8123 H   0  0  0  0  0  0  0  0  0  0  0  0
  139.2215   66.9697  227.8799 H   0  0  0  0  0  0  0  0  0  0  0  0
  141.2300   68.2991  228.5301 H   0  0  0  0  0  0  0  0  0  0  0  0
  141.9682   70.2197  227.1208 H   0  0  0  0  0  0  0  0  0  0  0  0
  140.5321   72.0620  225.3642 H   0  0  0  0  0  0  0  0  0  0  0  0
  141.9273   71.0720  224.7173 H   0  0  0  0  0  0  0  0  0  0  0  0
  1  2  1  0
  2  3  2  0
  3  4  1  0
  4  5  1  0
  5  6  1  0
  6  7  1  0
  7  8  1  0
  8  9  1  0
  9 10  1  0
  4 11  2  0
 11 12  1  0
 12 13  1  0
 13 14  1  0
 14 15  1  0
 15 16  1  0
 16 17  2  0
 17 18  1  0
 18 19  2  0
 19 20  1  0
 20 21  2  0
 21 22  1  0
 12 23  2  0
 23  2  1  0
 10  5  1  0
 22 13  1  0
 21 16  1  0
  6 24  1  0
  6 25  1  0
  7 26  1  0
  7 27  1  0
  8 28  1  0
  9 29  1  0
  9 30  1  0
 10 31  1  0
 10 32  1  0
 14 33  1  0
 14 34  1  0
 15 35  1  0
 15 36  1  0
 17 37  1  0
 18 38  1  0
 19 39  1  0
 20 40  1  0
 22 41  1  0
 22 42  1  0
M  CHG  1   1  -1
M  END
>  <UniqueID>  (55) 
703

>  <SMILES>  (55) 
[O-]c1nc(N2CCNCC2)nc(N2CCc3ccccc3C2)n1

>  <Energy>  (55) 
52.13574034752136

>  <Genealogy>  (55) 
[O-]c1nc(N2CCNCC2)nc(N2CCc3ccccc3C2)n1 (protonated)
[O-]c1nc(N2CCNCC2)nc(N2CCc3ccccc3C2)n1 (3D coordinates assigned)
[O-]c1nc(N2CCNCC2)nc(N2CCc3ccccc3C2)n1 (nonaromatic ring conformer: 52.13574034752136 kcal/mol)

>  <smiles>  (55) 
Oc1nc(N2CCNCC2)nc(N2CCc3ccccc3C2)n1

>  <score_type>  (55) 
oracle

>  <origin>  (55) 
autodockgpu

>  <m_score__min__energy>  (55) 
-7.2599999999999998

>  <m_primary>  (55) 
energy

>  <meeko>  (55) 
{"free_energy": -7.26, "intermolecular_energy": -7.85, "internal_energy": -0.56, "cluster_size": 19, "cluster_id": 1, "rank_in_cluster": 3}

>  <energy>  (55) 
-7.24

>  <cluster_rmsd>  (55) 
0.91

>  <rmsd>  (55) 
271.86

>  <cluster>  (55) 
1

$$$$
VOQKIUCZPHIEKY-MWDOZMLPNA-M
     RDKit          3D

 42 45  0  0  0  0  0  0  0  0999 V2000
  139.7500   75.5900  221.5120 O   0  0  0  0  0  0  0  0  0  0  0  0
  140.4610   74.3980  221.5500 C   0  0  0  0  0  0  0  0  0  0  0  0
  141.5430   74.2290  220.7520 N   0  0  0  0  0  0  0  0  0  0  0  0
  142.2450   73.0650  220.7830 C   0  0  0  0  0  0  0  0  0  0  0  0
  143.3960   72.8870  219.9310 N   0  0  0  0  0  0  0  0  0  0  0  0
  143.5420   73.7320  218.7380 C   0  0  0  0  0  0  0  0  0  0  0  0
  144.8230   73.3900  217.9740 C   0  0  0  0  0  0  0  0  0  0  0  0
  145.9490   73.2670  218.9050 N   0  0  0  0  0  0  0  0  0  0  0  0
  145.7810   72.1550  219.8610 C   0  0  0  0  0  0  0  0  0  0  0  0
  144.3120   71.7540  220.1260 C   0  0  0  0  0  0  0  0  0  0  0  0
  141.8470   72.0730  221.6220 N   0  0  0  0  0  0  0  0  0  0  0  0
  140.7620   72.2320  222.4260 C   0  0  0  0  0  0  0  0  0  0  0  0
  140.3490   71.1750  223.3180 N   0  0  0  0  0  0  0  0  0  0  0  0
  139.5650   70.0410  222.8010 C   0  0  0  0  0  0  0  0  0  0  0  0
  138.5920   69.5310  223.8590 C   0  0  0  0  0  0  0  0  0  0  0  0
  139.3300   69.1960  225.1200 C   0  0  0  0  0  0  0  0  0  0  0  0
  138.8980   68.1380  225.9350 C   0  0  0  0  0  0  0  0  0  0  0  0
  139.5690   67.8500  227.1260 C   0  0  0  0  0  0  0  0  0  0  0  0
  140.6630   68.6240  227.5180 C   0  0  0  0  0  0  0  0  0  0  0  0
  141.0880   69.6910  226.7200 C   0  0  0  0  0  0  0  0  0  0  0  0
  140.4290   69.9830  225.5160 C   0  0  0  0  0  0  0  0  0  0  0  0
  140.8760   71.1720  224.6960 C   0  0  0  0  0  0  0  0  0  0  0  0
  140.0720   73.4030  222.3840 N   0  0  0  0  0  0  0  0  0  0  0  0
  142.6767   73.5737  218.0776 H   0  0  0  0  0  0  0  0  0  0  0  0
  143.5965   74.7828  219.0587 H   0  0  0  0  0  0  0  0  0  0  0  0
  144.6855   72.4372  217.4418 H   0  0  0  0  0  0  0  0  0  0  0  0
  145.0378   74.1938  217.2544 H   0  0  0  0  0  0  0  0  0  0  0  0
  146.0370   74.1640  219.4410 H   0  0  0  0  0  0  0  0  0  0  0  0
  146.3104   71.2768  219.4630 H   0  0  0  0  0  0  0  0  0  0  0  0
  146.1882   72.5039  220.8214 H   0  0  0  0  0  0  0  0  0  0  0  0
  144.0324   70.9462  219.4337 H   0  0  0  0  0  0  0  0  0  0  0  0
  144.2301   71.4226  221.1717 H   0  0  0  0  0  0  0  0  0  0  0  0
  138.9982   70.3673  221.9166 H   0  0  0  0  0  0  0  0  0  0  0  0
  140.2548   69.2270  222.5334 H   0  0  0  0  0  0  0  0  0  0  0  0
  137.8444   70.3096  224.0710 H   0  0  0  0  0  0  0  0  0  0  0  0
  138.0935   68.6255  223.4826 H   0  0  0  0  0  0  0  0  0  0  0  0
  138.0289   67.5341  225.6351 H   0  0  0  0  0  0  0  0  0  0  0  0
  139.2350   67.0123  227.7558 H   0  0  0  0  0  0  0  0  0  0  0  0
  141.1910   68.3943  228.4553 H   0  0  0  0  0  0  0  0  0  0  0  0
  141.9437   70.3048  227.0379 H   0  0  0  0  0  0  0  0  0  0  0  0
  140.5357   72.0887  225.1998 H   0  0  0  0  0  0  0  0  0  0  0  0
  141.9720   71.1161  224.6205 H   0  0  0  0  0  0  0  0  0  0  0  0
  1  2  1  0
  2  3  2  0
  3  4  1  0
  4  5  1  0
  5  6  1  0
  6  7  1  0
  7  8  1  0
  8  9  1  0
  9 10  1  0
  4 11  2  0
 11 12  1  0
 12 13  1  0
 13 14  1  0
 14 15  1  0
 15 16  1  0
 16 17  2  0
 17 18  1  0
 18 19  2  0
 19 20  1  0
 20 21  2  0
 21 22  1  0
 12 23  2  0
 23  2  1  0
 10  5  1  0
 22 13  1  0
 21 16  1  0
  6 24  1  0
  6 25  1  0
  7 26  1  0
  7 27  1  0
  8 28  1  0
  9 29  1  0
  9 30  1  0
 10 31  1  0
 10 32  1  0
 14 33  1  0
 14 34  1  0
 15 35  1  0
 15 36  1  0
 17 37  1  0
 18 38  1  0
 19 39  1  0
 20 40  1  0
 22 41  1  0
 22 42  1  0
M  CHG  1   1  -1
M  END
>  <UniqueID>  (56) 
703

>  <SMILES>  (56) 
[O-]c1nc(N2CCNCC2)nc(N2CCc3ccccc3C2)n1

>  <Energy>  (56) 
52.13574034752136

>  <Genealogy>  (56) 
[O-]c1nc(N2CCNCC2)nc(N2CCc3ccccc3C2)n1 (protonated)
[O-]c1nc(N2CCNCC2)nc(N2CCc3ccccc3C2)n1 (3D coordinates assigned)
[O-]c1nc(N2CCNCC2)nc(N2CCc3ccccc3C2)n1 (nonaromatic ring conformer: 52.13574034752136 kcal/mol)

>  <smiles>  (56) 
Oc1nc(N2CCNCC2)nc(N2CCc3ccccc3C2)n1

>  <score_type>  (56) 
oracle

>  <origin>  (56) 
autodockgpu

>  <m_score__min__energy>  (56) 
-7.2599999999999998

>  <m_primary>  (56) 
energy

>  <meeko>  (56) 
{"free_energy": -7.24, "intermolecular_energy": -7.83, "internal_energy": -0.57, "cluster_size": 19, "cluster_id": 1, "rank_in_cluster": 14}

>  <energy>  (56) 
-7.23

>  <cluster_rmsd>  (56) 
0.91

>  <rmsd>  (56) 
271.89

>  <cluster>  (56) 
1

$$$$
VOQKIUCZPHIEKY-MWDOZMLPNA-M
     RDKit          3D

 42 45  0  0  0  0  0  0  0  0999 V2000
  139.7570   75.5810  221.5350 O   0  0  0  0  0  0  0  0  0  0  0  0
  140.4660   74.3880  221.5690 C   0  0  0  0  0  0  0  0  0  0  0  0
  141.5460   74.2190  220.7680 N   0  0  0  0  0  0  0  0  0  0  0  0
  142.2470   73.0540  220.7950 C   0  0  0  0  0  0  0  0  0  0  0  0
  143.3950   72.8760  219.9400 N   0  0  0  0  0  0  0  0  0  0  0  0
  143.5440   73.7300  218.7530 C   0  0  0  0  0  0  0  0  0  0  0  0
  144.8230   73.3860  217.9850 C   0  0  0  0  0  0  0  0  0  0  0  0
  145.9490   73.2500  218.9130 N   0  0  0  0  0  0  0  0  0  0  0  0
  145.7760   72.1320  219.8610 C   0  0  0  0  0  0  0  0  0  0  0  0
  144.3050   71.7360  220.1260 C   0  0  0  0  0  0  0  0  0  0  0  0
  141.8490   72.0610  221.6330 N   0  0  0  0  0  0  0  0  0  0  0  0
  140.7650   72.2200  222.4400 C   0  0  0  0  0  0  0  0  0  0  0  0
  140.3530   71.1620  223.3310 N   0  0  0  0  0  0  0  0  0  0  0  0
  139.5770   70.0240  222.8110 C   0  0  0  0  0  0  0  0  0  0  0  0
  138.6010   69.5100  223.8630 C   0  0  0  0  0  0  0  0  0  0  0  0
  139.3340   69.1800  225.1290 C   0  0  0  0  0  0  0  0  0  0  0  0
  138.9030   68.1200  225.9430 C   0  0  0  0  0  0  0  0  0  0  0  0
  139.5690   67.8360  227.1370 C   0  0  0  0  0  0  0  0  0  0  0  0
  140.6580   68.6150  227.5340 C   0  0  0  0  0  0  0  0  0  0  0  0
  141.0820   69.6840  226.7380 C   0  0  0  0  0  0  0  0  0  0  0  0
  140.4270   69.9720  225.5290 C   0  0  0  0  0  0  0  0  0  0  0  0
  140.8730   71.1620  224.7120 C   0  0  0  0  0  0  0  0  0  0  0  0
  140.0770   73.3920  222.4020 N   0  0  0  0  0  0  0  0  0  0  0  0
  142.6771   73.5817  218.0923 H   0  0  0  0  0  0  0  0  0  0  0  0
  143.6043   74.7781  219.0814 H   0  0  0  0  0  0  0  0  0  0  0  0
  144.6795   72.4378  217.4463 H   0  0  0  0  0  0  0  0  0  0  0  0
  145.0415   74.1939  217.2712 H   0  0  0  0  0  0  0  0  0  0  0  0
  146.0420   74.1420  219.4560 H   0  0  0  0  0  0  0  0  0  0  0  0
  146.3002   71.2540  219.4557 H   0  0  0  0  0  0  0  0  0  0  0  0
  146.1860   72.4724  220.8233 H   0  0  0  0  0  0  0  0  0  0  0  0
  144.0200   70.9344  219.4287 H   0  0  0  0  0  0  0  0  0  0  0  0
  144.2228   71.3971  221.1693 H   0  0  0  0  0  0  0  0  0  0  0  0
  139.0135   70.3471  221.9232 H   0  0  0  0  0  0  0  0  0  0  0  0
  140.2723   69.2131  222.5483 H   0  0  0  0  0  0  0  0  0  0  0  0
  137.8480   70.2847  224.0700 H   0  0  0  0  0  0  0  0  0  0  0  0
  138.1094   68.6016  223.4846 H   0  0  0  0  0  0  0  0  0  0  0  0
  138.0383   67.5117  225.6392 H   0  0  0  0  0  0  0  0  0  0  0  0
  139.2354   66.9974  227.7658 H   0  0  0  0  0  0  0  0  0  0  0  0
  141.1828   68.3876  228.4736 H   0  0  0  0  0  0  0  0  0  0  0  0
  141.9327   70.3024  227.0603 H   0  0  0  0  0  0  0  0  0  0  0  0
  140.5260   72.0774  225.2137 H   0  0  0  0  0  0  0  0  0  0  0  0
  141.9696   71.1113  224.6425 H   0  0  0  0  0  0  0  0  0  0  0  0
  1  2  1  0
  2  3  2  0
  3  4  1  0
  4  5  1  0
  5  6  1  0
  6  7  1  0
  7  8  1  0
  8  9  1  0
  9 10  1  0
  4 11  2  0
 11 12  1  0
 12 13  1  0
 13 14  1  0
 14 15  1  0
 15 16  1  0
 16 17  2  0
 17 18  1  0
 18 19  2  0
 19 20  1  0
 20 21  2  0
 21 22  1  0
 12 23  2  0
 23  2  1  0
 10  5  1  0
 22 13  1  0
 21 16  1  0
  6 24  1  0
  6 25  1  0
  7 26  1  0
  7 27  1  0
  8 28  1  0
  9 29  1  0
  9 30  1  0
 10 31  1  0
 10 32  1  0
 14 33  1  0
 14 34  1  0
 15 35  1  0
 15 36  1  0
 17 37  1  0
 18 38  1  0
 19 39  1  0
 20 40  1  0
 22 41  1  0
 22 42  1  0
M  CHG  1   1  -1
M  END
>  <UniqueID>  (57) 
703

>  <SMILES>  (57) 
[O-]c1nc(N2CCNCC2)nc(N2CCc3ccccc3C2)n1

>  <Energy>  (57) 
52.13574034752136

>  <Genealogy>  (57) 
[O-]c1nc(N2CCNCC2)nc(N2CCc3ccccc3C2)n1 (protonated)
[O-]c1nc(N2CCNCC2)nc(N2CCc3ccccc3C2)n1 (3D coordinates assigned)
[O-]c1nc(N2CCNCC2)nc(N2CCc3ccccc3C2)n1 (nonaromatic ring conformer: 52.13574034752136 kcal/mol)

>  <smiles>  (57) 
Oc1nc(N2CCNCC2)nc(N2CCc3ccccc3C2)n1

>  <score_type>  (57) 
oracle

>  <origin>  (57) 
autodockgpu

>  <m_score__min__energy>  (57) 
-7.2599999999999998

>  <m_primary>  (57) 
energy

>  <meeko>  (57) 
{"free_energy": -7.24, "intermolecular_energy": -7.83, "internal_energy": -0.57, "cluster_size": 19, "cluster_id": 1, "rank_in_cluster": 15}

>  <energy>  (57) 
-7.23

>  <cluster_rmsd>  (57) 
0.9

>  <rmsd>  (57) 
271.88

>  <cluster>  (57) 
1

$$$$
VOQKIUCZPHIEKY-MWDOZMLPNA-M
     RDKit          3D

 42 45  0  0  0  0  0  0  0  0999 V2000
  139.4500   75.4460  221.4420 O   0  0  0  0  0  0  0  0  0  0  0  0
  140.2570   74.3280  221.5970 C   0  0  0  0  0  0  0  0  0  0  0  0
  141.4250   74.2340  220.9150 N   0  0  0  0  0  0  0  0  0  0  0  0
  142.2220   73.1420  221.0610 C   0  0  0  0  0  0  0  0  0  0  0  0
  143.4630   73.0450  220.3330 N   0  0  0  0  0  0  0  0  0  0  0  0
  144.6510   73.7400  220.8460 C   0  0  0  0  0  0  0  0  0  0  0  0
  145.8600   73.5110  219.9340 C   0  0  0  0  0  0  0  0  0  0  0  0
  145.9610   72.0930  219.5750 N   0  0  0  0  0  0  0  0  0  0  0  0
  144.8070   71.6210  218.7850 C   0  0  0  0  0  0  0  0  0  0  0  0
  143.5080   72.4320  218.9960 C   0  0  0  0  0  0  0  0  0  0  0  0
  141.8310   72.1440  221.8980 N   0  0  0  0  0  0  0  0  0  0  0  0
  140.6610   72.2280  222.5860 C   0  0  0  0  0  0  0  0  0  0  0  0
  140.2570   71.1660  223.4770 N   0  0  0  0  0  0  0  0  0  0  0  0
  139.4350   70.0550  222.9710 C   0  0  0  0  0  0  0  0  0  0  0  0
  138.4870   69.5490  224.0530 C   0  0  0  0  0  0  0  0  0  0  0  0
  139.2590   69.1820  225.2840 C   0  0  0  0  0  0  0  0  0  0  0  0
  138.8340   68.1200  226.0990 C   0  0  0  0  0  0  0  0  0  0  0  0
  139.5380   67.8030  227.2620 C   0  0  0  0  0  0  0  0  0  0  0  0
  140.6600   68.5490  227.6280 C   0  0  0  0  0  0  0  0  0  0  0  0
  141.0790   69.6190  226.8320 C   0  0  0  0  0  0  0  0  0  0  0  0
  140.3860   69.9410  225.6540 C   0  0  0  0  0  0  0  0  0  0  0  0
  140.8290   71.1330  224.8370 C   0  0  0  0  0  0  0  0  0  0  0  0
  139.8780   73.3270  222.4290 N   0  0  0  0  0  0  0  0  0  0  0  0
  144.4410   74.8184  220.9003 H   0  0  0  0  0  0  0  0  0  0  0  0
  144.8855   73.3413  221.8440 H   0  0  0  0  0  0  0  0  0  0  0  0
  145.7437   74.1103  219.0189 H   0  0  0  0  0  0  0  0  0  0  0  0
  146.7740   73.8128  220.4665 H   0  0  0  0  0  0  0  0  0  0  0  0
  146.0190   71.5310  220.4570 H   0  0  0  0  0  0  0  0  0  0  0  0
  145.0756   71.6744  217.7196 H   0  0  0  0  0  0  0  0  0  0  0  0
  144.5940   70.5969  219.1254 H   0  0  0  0  0  0  0  0  0  0  0  0
  143.4560   73.2266  218.2371 H   0  0  0  0  0  0  0  0  0  0  0  0
  142.6544   71.7443  218.9040 H   0  0  0  0  0  0  0  0  0  0  0  0
  138.8464   70.4044  222.1099 H   0  0  0  0  0  0  0  0  0  0  0  0
  140.0998   69.2318  222.6703 H   0  0  0  0  0  0  0  0  0  0  0  0
  137.7623   70.3388  224.3001 H   0  0  0  0  0  0  0  0  0  0  0  0
  137.9585   68.6589  223.6809 H   0  0  0  0  0  0  0  0  0  0  0  0
  137.9441   67.5366  225.8201 H   0  0  0  0  0  0  0  0  0  0  0  0
  139.2080   66.9635  227.8915 H   0  0  0  0  0  0  0  0  0  0  0  0
  141.2146   68.2946  228.5433 H   0  0  0  0  0  0  0  0  0  0  0  0
  141.9563   70.2119  227.1301 H   0  0  0  0  0  0  0  0  0  0  0  0
  140.5232   72.0485  225.3646 H   0  0  0  0  0  0  0  0  0  0  0  0
  141.9207   71.0578  224.7247 H   0  0  0  0  0  0  0  0  0  0  0  0
  1  2  1  0
  2  3  2  0
  3  4  1  0
  4  5  1  0
  5  6  1  0
  6  7  1  0
  7  8  1  0
  8  9  1  0
  9 10  1  0
  4 11  2  0
 11 12  1  0
 12 13  1  0
 13 14  1  0
 14 15  1  0
 15 16  1  0
 16 17  2  0
 17 18  1  0
 18 19  2  0
 19 20  1  0
 20 21  2  0
 21 22  1  0
 12 23  2  0
 23  2  1  0
 10  5  1  0
 22 13  1  0
 21 16  1  0
  6 24  1  0
  6 25  1  0
  7 26  1  0
  7 27  1  0
  8 28  1  0
  9 29  1  0
  9 30  1  0
 10 31  1  0
 10 32  1  0
 14 33  1  0
 14 34  1  0
 15 35  1  0
 15 36  1  0
 17 37  1  0
 18 38  1  0
 19 39  1  0
 20 40  1  0
 22 41  1  0
 22 42  1  0
M  CHG  1   1  -1
M  END
>  <UniqueID>  (58) 
703

>  <SMILES>  (58) 
[O-]c1nc(N2CCNCC2)nc(N2CCc3ccccc3C2)n1

>  <Energy>  (58) 
52.13574034752136

>  <Genealogy>  (58) 
[O-]c1nc(N2CCNCC2)nc(N2CCc3ccccc3C2)n1 (protonated)
[O-]c1nc(N2CCNCC2)nc(N2CCc3ccccc3C2)n1 (3D coordinates assigned)
[O-]c1nc(N2CCNCC2)nc(N2CCc3ccccc3C2)n1 (nonaromatic ring conformer: 52.13574034752136 kcal/mol)

>  <smiles>  (58) 
Oc1nc(N2CCNCC2)nc(N2CCc3ccccc3C2)n1

>  <score_type>  (58) 
oracle

>  <origin>  (58) 
autodockgpu

>  <m_score__min__energy>  (58) 
-7.2599999999999998

>  <m_primary>  (58) 
energy

>  <meeko>  (58) 
{"free_energy": -7.26, "intermolecular_energy": -7.85, "internal_energy": -0.56, "cluster_size": 19, "cluster_id": 1, "rank_in_cluster": 1}

>  <energy>  (58) 
-7.23

>  <cluster_rmsd>  (58) 
0.92

>  <rmsd>  (58) 
271.87

>  <cluster>  (58) 
1

$$$$
VOQKIUCZPHIEKY-MWDOZMLPNA-M
     RDKit          3D

 42 45  0  0  0  0  0  0  0  0999 V2000
  139.4490   75.4650  221.4500 O   0  0  0  0  0  0  0  0  0  0  0  0
  140.2570   74.3460  221.6000 C   0  0  0  0  0  0  0  0  0  0  0  0
  141.4210   74.2530  220.9120 N   0  0  0  0  0  0  0  0  0  0  0  0
  142.2180   73.1600  221.0530 C   0  0  0  0  0  0  0  0  0  0  0  0
  143.4550   73.0640  220.3190 N   0  0  0  0  0  0  0  0  0  0  0  0
  144.6460   73.7610  220.8250 C   0  0  0  0  0  0  0  0  0  0  0  0
  145.8500   73.5320  219.9080 C   0  0  0  0  0  0  0  0  0  0  0  0
  145.9500   72.1140  219.5500 N   0  0  0  0  0  0  0  0  0  0  0  0
  144.7930   71.6400  218.7660 C   0  0  0  0  0  0  0  0  0  0  0  0
  143.4950   72.4500  218.9830 C   0  0  0  0  0  0  0  0  0  0  0  0
  141.8310   72.1620  221.8910 N   0  0  0  0  0  0  0  0  0  0  0  0
  140.6640   72.2450  222.5840 C   0  0  0  0  0  0  0  0  0  0  0  0
  140.2640   71.1830  223.4760 N   0  0  0  0  0  0  0  0  0  0  0  0
  139.4520   70.0650  222.9690 C   0  0  0  0  0  0  0  0  0  0  0  0
  138.5030   69.5530  224.0480 C   0  0  0  0  0  0  0  0  0  0  0  0
  139.2730   69.1950  225.2830 C   0  0  0  0  0  0  0  0  0  0  0  0
  138.8520   68.1320  226.0980 C   0  0  0  0  0  0  0  0  0  0  0  0
  139.5530   67.8230  227.2660 C   0  0  0  0  0  0  0  0  0  0  0  0
  140.6670   68.5790  227.6360 C   0  0  0  0  0  0  0  0  0  0  0  0
  141.0820   69.6500  226.8380 C   0  0  0  0  0  0  0  0  0  0  0  0
  140.3920   69.9640  225.6560 C   0  0  0  0  0  0  0  0  0  0  0  0
  140.8300   71.1570  224.8380 C   0  0  0  0  0  0  0  0  0  0  0  0
  139.8800   73.3450  222.4330 N   0  0  0  0  0  0  0  0  0  0  0  0
  144.4354   74.8393  220.8788 H   0  0  0  0  0  0  0  0  0  0  0  0
  144.8859   73.3636  221.8222 H   0  0  0  0  0  0  0  0  0  0  0  0
  145.7290   74.1303  218.9929 H   0  0  0  0  0  0  0  0  0  0  0  0
  146.7664   73.8349  220.4357 H   0  0  0  0  0  0  0  0  0  0  0  0
  146.0140   71.5520  220.4320 H   0  0  0  0  0  0  0  0  0  0  0  0
  145.0563   71.6927  217.6993 H   0  0  0  0  0  0  0  0  0  0  0  0
  144.5827   70.6158  219.1078 H   0  0  0  0  0  0  0  0  0  0  0  0
  143.4389   73.2440  218.2237 H   0  0  0  0  0  0  0  0  0  0  0  0
  142.6418   71.7611  218.8960 H   0  0  0  0  0  0  0  0  0  0  0  0
  138.8642   70.4087  222.1051 H   0  0  0  0  0  0  0  0  0  0  0  0
  140.1243   69.2463  222.6728 H   0  0  0  0  0  0  0  0  0  0  0  0
  137.7706   70.3371  224.2903 H   0  0  0  0  0  0  0  0  0  0  0  0
  137.9834   68.6579  223.6754 H   0  0  0  0  0  0  0  0  0  0  0  0
  137.9680   67.5412  225.8160 H   0  0  0  0  0  0  0  0  0  0  0  0
  139.2266   66.9822  227.8957 H   0  0  0  0  0  0  0  0  0  0  0  0
  141.2184   68.3322  228.5553 H   0  0  0  0  0  0  0  0  0  0  0  0
  141.9539   70.2498  227.1380 H   0  0  0  0  0  0  0  0  0  0  0  0
  140.5156   72.0716  225.3621 H   0  0  0  0  0  0  0  0  0  0  0  0
  141.9226   71.0890  224.7305 H   0  0  0  0  0  0  0  0  0  0  0  0
  1  2  1  0
  2  3  2  0
  3  4  1  0
  4  5  1  0
  5  6  1  0
  6  7  1  0
  7  8  1  0
  8  9  1  0
  9 10  1  0
  4 11  2  0
 11 12  1  0
 12 13  1  0
 13 14  1  0
 14 15  1  0
 15 16  1  0
 16 17  2  0
 17 18  1  0
 18 19  2  0
 19 20  1  0
 20 21  2  0
 21 22  1  0
 12 23  2  0
 23  2  1  0
 10  5  1  0
 22 13  1  0
 21 16  1  0
  6 24  1  0
  6 25  1  0
  7 26  1  0
  7 27  1  0
  8 28  1  0
  9 29  1  0
  9 30  1  0
 10 31  1  0
 10 32  1  0
 14 33  1  0
 14 34  1  0
 15 35  1  0
 15 36  1  0
 17 37  1  0
 18 38  1  0
 19 39  1  0
 20 40  1  0
 22 41  1  0
 22 42  1  0
M  CHG  1   1  -1
M  END
>  <UniqueID>  (59) 
703

>  <SMILES>  (59) 
[O-]c1nc(N2CCNCC2)nc(N2CCc3ccccc3C2)n1

>  <Energy>  (59) 
52.13574034752136

>  <Genealogy>  (59) 
[O-]c1nc(N2CCNCC2)nc(N2CCc3ccccc3C2)n1 (protonated)
[O-]c1nc(N2CCNCC2)nc(N2CCc3ccccc3C2)n1 (3D coordinates assigned)
[O-]c1nc(N2CCNCC2)nc(N2CCc3ccccc3C2)n1 (nonaromatic ring conformer: 52.13574034752136 kcal/mol)

>  <smiles>  (59) 
Oc1nc(N2CCNCC2)nc(N2CCc3ccccc3C2)n1

>  <score_type>  (59) 
oracle

>  <origin>  (59) 
autodockgpu

>  <m_score__min__energy>  (59) 
-7.2599999999999998

>  <m_primary>  (59) 
energy

>  <meeko>  (59) 
{"free_energy": -7.25, "intermolecular_energy": -7.85, "internal_energy": -0.56, "cluster_size": 19, "cluster_id": 1, "rank_in_cluster": 8}

>  <energy>  (59) 
-7.22

>  <cluster_rmsd>  (59) 
0.96

>  <rmsd>  (59) 
271.92

>  <cluster>  (59) 
1

$$$$
VOQKIUCZPHIEKY-MWDOZMLPNA-M
     RDKit          3D

 42 45  0  0  0  0  0  0  0  0999 V2000
  139.7130   75.7160  221.4180 O   0  0  0  0  0  0  0  0  0  0  0  0
  140.4390   74.5340  221.4880 C   0  0  0  0  0  0  0  0  0  0  0  0
  141.5240   74.3570  220.6960 N   0  0  0  0  0  0  0  0  0  0  0  0
  142.2400   73.2020  220.7590 C   0  0  0  0  0  0  0  0  0  0  0  0
  143.3930   73.0160  219.9130 N   0  0  0  0  0  0  0  0  0  0  0  0
  143.5450   73.8500  218.7130 C   0  0  0  0  0  0  0  0  0  0  0  0
  144.8290   73.4990  217.9570 C   0  0  0  0  0  0  0  0  0  0  0  0
  145.9510   73.3830  218.8930 N   0  0  0  0  0  0  0  0  0  0  0  0
  145.7770   72.2800  219.8580 C   0  0  0  0  0  0  0  0  0  0  0  0
  144.3070   71.8820  220.1220 C   0  0  0  0  0  0  0  0  0  0  0  0
  141.8520   72.2280  221.6250 N   0  0  0  0  0  0  0  0  0  0  0  0
  140.7640   72.3960  222.4230 C   0  0  0  0  0  0  0  0  0  0  0  0
  140.3630   71.3590  223.3430 N   0  0  0  0  0  0  0  0  0  0  0  0
  139.6190   70.1880  222.8510 C   0  0  0  0  0  0  0  0  0  0  0  0
  138.6410   69.6870  223.9080 C   0  0  0  0  0  0  0  0  0  0  0  0
  139.3640   69.4150  225.1930 C   0  0  0  0  0  0  0  0  0  0  0  0
  138.9460   68.3730  226.0360 C   0  0  0  0  0  0  0  0  0  0  0  0
  139.6020   68.1440  227.2470 C   0  0  0  0  0  0  0  0  0  0  0  0
  140.6680   68.9600  227.6320 C   0  0  0  0  0  0  0  0  0  0  0  0
  141.0790   70.0100  226.8060 C   0  0  0  0  0  0  0  0  0  0  0  0
  140.4340   70.2440  225.5810 C   0  0  0  0  0  0  0  0  0  0  0  0
  140.8640   71.4160  224.7300 C   0  0  0  0  0  0  0  0  0  0  0  0
  140.0610   73.5570  222.3480 N   0  0  0  0  0  0  0  0  0  0  0  0
  142.6821   73.6870  218.0506 H   0  0  0  0  0  0  0  0  0  0  0  0
  143.5998   74.9036  219.0244 H   0  0  0  0  0  0  0  0  0  0  0  0
  144.6922   72.5415  217.4331 H   0  0  0  0  0  0  0  0  0  0  0  0
  145.0477   74.2959  217.2310 H   0  0  0  0  0  0  0  0  0  0  0  0
  146.0380   74.2840  219.4210 H   0  0  0  0  0  0  0  0  0  0  0  0
  146.3069   71.3977  219.4698 H   0  0  0  0  0  0  0  0  0  0  0  0
  146.1800   72.6381  220.8168 H   0  0  0  0  0  0  0  0  0  0  0  0
  144.0288   71.0682  219.4362 H   0  0  0  0  0  0  0  0  0  0  0  0
  144.2208   71.5592  221.1700 H   0  0  0  0  0  0  0  0  0  0  0  0
  139.0599   70.4695  221.9465 H   0  0  0  0  0  0  0  0  0  0  0  0
  140.3350   69.3847  222.6230 H   0  0  0  0  0  0  0  0  0  0  0  0
  137.8687   70.4511  224.0801 H   0  0  0  0  0  0  0  0  0  0  0  0
  138.1747   68.7558  223.5538 H   0  0  0  0  0  0  0  0  0  0  0  0
  138.0994   67.7353  225.7416 H   0  0  0  0  0  0  0  0  0  0  0  0
  139.2786   67.3193  227.8991 H   0  0  0  0  0  0  0  0  0  0  0  0
  141.1844   68.7763  228.5857 H   0  0  0  0  0  0  0  0  0  0  0  0
  141.9125   70.6567  227.1175 H   0  0  0  0  0  0  0  0  0  0  0  0
  140.4899   72.3393  225.1964 H   0  0  0  0  0  0  0  0  0  0  0  0
  141.9623   71.3875  224.6759 H   0  0  0  0  0  0  0  0  0  0  0  0
  1  2  1  0
  2  3  2  0
  3  4  1  0
  4  5  1  0
  5  6  1  0
  6  7  1  0
  7  8  1  0
  8  9  1  0
  9 10  1  0
  4 11  2  0
 11 12  1  0
 12 13  1  0
 13 14  1  0
 14 15  1  0
 15 16  1  0
 16 17  2  0
 17 18  1  0
 18 19  2  0
 19 20  1  0
 20 21  2  0
 21 22  1  0
 12 23  2  0
 23  2  1  0
 10  5  1  0
 22 13  1  0
 21 16  1  0
  6 24  1  0
  6 25  1  0
  7 26  1  0
  7 27  1  0
  8 28  1  0
  9 29  1  0
  9 30  1  0
 10 31  1  0
 10 32  1  0
 14 33  1  0
 14 34  1  0
 15 35  1  0
 15 36  1  0
 17 37  1  0
 18 38  1  0
 19 39  1  0
 20 40  1  0
 22 41  1  0
 22 42  1  0
M  CHG  1   1  -1
M  END
>  <UniqueID>  (60) 
703

>  <SMILES>  (60) 
[O-]c1nc(N2CCNCC2)nc(N2CCc3ccccc3C2)n1

>  <Energy>  (60) 
52.13574034752136

>  <Genealogy>  (60) 
[O-]c1nc(N2CCNCC2)nc(N2CCc3ccccc3C2)n1 (protonated)
[O-]c1nc(N2CCNCC2)nc(N2CCc3ccccc3C2)n1 (3D coordinates assigned)
[O-]c1nc(N2CCNCC2)nc(N2CCc3ccccc3C2)n1 (nonaromatic ring conformer: 52.13574034752136 kcal/mol)

>  <smiles>  (60) 
Oc1nc(N2CCNCC2)nc(N2CCc3ccccc3C2)n1

>  <score_type>  (60) 
oracle

>  <origin>  (60) 
autodockgpu

>  <m_score__min__energy>  (60) 
-7.2599999999999998

>  <m_primary>  (60) 
energy

>  <meeko>  (60) 
{"free_energy": -7.22, "intermolecular_energy": -7.82, "internal_energy": -0.57, "cluster_size": 19, "cluster_id": 1, "rank_in_cluster": 19}

>  <energy>  (60) 
-6.72

>  <cluster_rmsd>  (60) 
0.0

>  <rmsd>  (60) 
272.1

>  <cluster>  (60) 
2

$$$$
VOQKIUCZPHIEKY-MWDOZMLPNA-M
     RDKit          3D

 42 45  0  0  0  0  0  0  0  0999 V2000
  139.4620   75.4290  221.4300 O   0  0  0  0  0  0  0  0  0  0  0  0
  140.2700   74.3110  221.5870 C   0  0  0  0  0  0  0  0  0  0  0  0
  141.4390   74.2190  220.9080 N   0  0  0  0  0  0  0  0  0  0  0  0
  142.2370   73.1280  221.0560 C   0  0  0  0  0  0  0  0  0  0  0  0
  143.4800   73.0320  220.3310 N   0  0  0  0  0  0  0  0  0  0  0  0
  144.6650   73.7340  220.8420 C   0  0  0  0  0  0  0  0  0  0  0  0
  145.8750   73.5050  219.9340 C   0  0  0  0  0  0  0  0  0  0  0  0
  145.9820   72.0860  219.5820 N   0  0  0  0  0  0  0  0  0  0  0  0
  144.8310   71.6060  218.7920 C   0  0  0  0  0  0  0  0  0  0  0  0
  143.5300   72.4130  218.9970 C   0  0  0  0  0  0  0  0  0  0  0  0
  141.8460   72.1300  221.8930 N   0  0  0  0  0  0  0  0  0  0  0  0
  140.6740   72.2130  222.5780 C   0  0  0  0  0  0  0  0  0  0  0  0
  140.2690   71.1510  223.4690 N   0  0  0  0  0  0  0  0  0  0  0  0
  139.4520   70.0370  222.9610 C   0  0  0  0  0  0  0  0  0  0  0  0
  138.5020   69.5290  224.0400 C   0  0  0  0  0  0  0  0  0  0  0  0
  139.2700   69.1660  225.2750 C   0  0  0  0  0  0  0  0  0  0  0  0
  138.8450   68.1040  226.0890 C   0  0  0  0  0  0  0  0  0  0  0  0
  139.5450   67.7900  227.2550 C   0  0  0  0  0  0  0  0  0  0  0  0
  140.6620   68.5400  227.6250 C   0  0  0  0  0  0  0  0  0  0  0  0
  141.0820   69.6100  226.8290 C   0  0  0  0  0  0  0  0  0  0  0  0
  140.3930   69.9290  225.6480 C   0  0  0  0  0  0  0  0  0  0  0  0
  140.8360   71.1210  224.8310 C   0  0  0  0  0  0  0  0  0  0  0  0
  139.8900   73.3110  222.4200 N   0  0  0  0  0  0  0  0  0  0  0  0
  144.4510   74.8119  220.8903 H   0  0  0  0  0  0  0  0  0  0  0  0
  144.8995   73.3412  221.8423 H   0  0  0  0  0  0  0  0  0  0  0  0
  145.7580   74.0994  219.0158 H   0  0  0  0  0  0  0  0  0  0  0  0
  146.7870   73.8126  220.4667 H   0  0  0  0  0  0  0  0  0  0  0  0
  146.0410   71.5270  220.4660 H   0  0  0  0  0  0  0  0  0  0  0  0
  145.1013   71.6553  217.7269 H   0  0  0  0  0  0  0  0  0  0  0  0
  144.6210   70.5827  219.1365 H   0  0  0  0  0  0  0  0  0  0  0  0
  143.4769   73.2040  218.2344 H   0  0  0  0  0  0  0  0  0  0  0  0
  142.6790   71.7218  218.9067 H   0  0  0  0  0  0  0  0  0  0  0  0
  138.8653   70.3840  222.0977 H   0  0  0  0  0  0  0  0  0  0  0  0
  140.1203   69.2156  222.6632 H   0  0  0  0  0  0  0  0  0  0  0  0
  137.7735   70.3165  224.2832 H   0  0  0  0  0  0  0  0  0  0  0  0
  137.9786   68.6364  223.6668 H   0  0  0  0  0  0  0  0  0  0  0  0
  137.9579   67.5178  225.8071 H   0  0  0  0  0  0  0  0  0  0  0  0
  139.2154   66.9496  227.8836 H   0  0  0  0  0  0  0  0  0  0  0  0
  141.2126   68.2892  228.5437 H   0  0  0  0  0  0  0  0  0  0  0  0
  141.9569   70.2051  227.1296 H   0  0  0  0  0  0  0  0  0  0  0  0
  140.5261   72.0364  225.3563 H   0  0  0  0  0  0  0  0  0  0  0  0
  141.9282   71.0482  224.7227 H   0  0  0  0  0  0  0  0  0  0  0  0
  1  2  1  0
  2  3  2  0
  3  4  1  0
  4  5  1  0
  5  6  1  0
  6  7  1  0
  7  8  1  0
  8  9  1  0
  9 10  1  0
  4 11  2  0
 11 12  1  0
 12 13  1  0
 13 14  1  0
 14 15  1  0
 15 16  1  0
 16 17  2  0
 17 18  1  0
 18 19  2  0
 19 20  1  0
 20 21  2  0
 21 22  1  0
 12 23  2  0
 23  2  1  0
 10  5  1  0
 22 13  1  0
 21 16  1  0
  6 24  1  0
  6 25  1  0
  7 26  1  0
  7 27  1  0
  8 28  1  0
  9 29  1  0
  9 30  1  0
 10 31  1  0
 10 32  1  0
 14 33  1  0
 14 34  1  0
 15 35  1  0
 15 36  1  0
 17 37  1  0
 18 38  1  0
 19 39  1  0
 20 40  1  0
 22 41  1  0
 22 42  1  0
M  CHG  1   1  -1
M  END
>  <UniqueID>  (61) 
704

>  <SMILES>  (61) 
[O-]c1nc(N2CCNCC2)nc(N2CCc3ccccc3C2)n1

>  <Energy>  (61) 
52.14116509113121

>  <Genealogy>  (61) 
[O-]c1nc(N2CCNCC2)nc(N2CCc3ccccc3C2)n1 (protonated)
[O-]c1nc(N2CCNCC2)nc(N2CCc3ccccc3C2)n1 (3D coordinates assigned)
[O-]c1nc(N2CCNCC2)nc(N2CCc3ccccc3C2)n1 (nonaromatic ring conformer: 52.14116509113121 kcal/mol)

>  <smiles>  (61) 
Oc1nc(N2CCNCC2)nc(N2CCc3ccccc3C2)n1

>  <score_type>  (61) 
oracle

>  <origin>  (61) 
autodockgpu

>  <m_score__min__energy>  (61) 
-7.2599999999999998

>  <m_primary>  (61) 
energy

>  <meeko>  (61) 
{"free_energy": -7.25, "intermolecular_energy": -7.85, "internal_energy": -0.56, "cluster_size": 19, "cluster_id": 1, "rank_in_cluster": 5}

>  <energy>  (61) 
-7.26

>  <cluster_rmsd>  (61) 
0.0

>  <rmsd>  (61) 
272.0

>  <cluster>  (61) 
1

$$$$
VOQKIUCZPHIEKY-MWDOZMLPNA-M
     RDKit          3D

 42 45  0  0  0  0  0  0  0  0999 V2000
  139.4660   75.4430  221.4400 O   0  0  0  0  0  0  0  0  0  0  0  0
  140.2710   74.3220  221.5950 C   0  0  0  0  0  0  0  0  0  0  0  0
  141.4380   74.2260  220.9110 N   0  0  0  0  0  0  0  0  0  0  0  0
  142.2320   73.1320  221.0570 C   0  0  0  0  0  0  0  0  0  0  0  0
  143.4720   73.0330  220.3270 N   0  0  0  0  0  0  0  0  0  0  0  0
  144.6620   73.7270  220.8380 C   0  0  0  0  0  0  0  0  0  0  0  0
  145.8690   73.4950  219.9250 C   0  0  0  0  0  0  0  0  0  0  0  0
  145.9670   72.0770  219.5680 N   0  0  0  0  0  0  0  0  0  0  0  0
  144.8120   71.6050  218.7800 C   0  0  0  0  0  0  0  0  0  0  0  0
  143.5150   72.4180  218.9920 C   0  0  0  0  0  0  0  0  0  0  0  0
  141.8410   72.1360  221.8950 N   0  0  0  0  0  0  0  0  0  0  0  0
  140.6720   72.2220  222.5840 C   0  0  0  0  0  0  0  0  0  0  0  0
  140.2660   71.1620  223.4760 N   0  0  0  0  0  0  0  0  0  0  0  0
  139.4400   70.0530  222.9710 C   0  0  0  0  0  0  0  0  0  0  0  0
  138.4930   69.5490  224.0550 C   0  0  0  0  0  0  0  0  0  0  0  0
  139.2670   69.1800  225.2850 C   0  0  0  0  0  0  0  0  0  0  0  0
  138.8410   68.1200  226.1010 C   0  0  0  0  0  0  0  0  0  0  0  0
  139.5460   67.8000  227.2630 C   0  0  0  0  0  0  0  0  0  0  0  0
  140.6700   68.5440  227.6270 C   0  0  0  0  0  0  0  0  0  0  0  0
  141.0910   69.6130  226.8300 C   0  0  0  0  0  0  0  0  0  0  0  0
  140.3970   69.9360  225.6530 C   0  0  0  0  0  0  0  0  0  0  0  0
  140.8410   71.1270  224.8350 C   0  0  0  0  0  0  0  0  0  0  0  0
  139.8900   73.3230  222.4280 N   0  0  0  0  0  0  0  0  0  0  0  0
  144.4537   74.8058  220.8912 H   0  0  0  0  0  0  0  0  0  0  0  0
  144.8971   73.3293  221.8363 H   0  0  0  0  0  0  0  0  0  0  0  0
  145.7525   74.0932  219.0093 H   0  0  0  0  0  0  0  0  0  0  0  0
  146.7842   73.7961  220.4557 H   0  0  0  0  0  0  0  0  0  0  0  0
  146.0270   71.5150  220.4500 H   0  0  0  0  0  0  0  0  0  0  0  0
  145.0793   71.6567  217.7142 H   0  0  0  0  0  0  0  0  0  0  0  0
  144.5983   70.5814  219.1213 H   0  0  0  0  0  0  0  0  0  0  0  0
  143.4631   73.2115  218.2319 H   0  0  0  0  0  0  0  0  0  0  0  0
  142.6606   71.7309  218.9028 H   0  0  0  0  0  0  0  0  0  0  0  0
  138.8505   70.4043  222.1113 H   0  0  0  0  0  0  0  0  0  0  0  0
  140.1020   69.2283  222.6684 H   0  0  0  0  0  0  0  0  0  0  0  0
  137.7706   70.3404  224.3036 H   0  0  0  0  0  0  0  0  0  0  0  0
  137.9618   68.6601  223.6839 H   0  0  0  0  0  0  0  0  0  0  0  0
  137.9487   67.5395  225.8240 H   0  0  0  0  0  0  0  0  0  0  0  0
  139.2154   66.9607  227.8925 H   0  0  0  0  0  0  0  0  0  0  0  0
  141.2250   68.2889  228.5418 H   0  0  0  0  0  0  0  0  0  0  0  0
  141.9702   70.2038  227.1266 H   0  0  0  0  0  0  0  0  0  0  0  0
  140.5388   72.0432  225.3635 H   0  0  0  0  0  0  0  0  0  0  0  0
  141.9322   71.0488  224.7201 H   0  0  0  0  0  0  0  0  0  0  0  0
  1  2  1  0
  2  3  2  0
  3  4  1  0
  4  5  1  0
  5  6  1  0
  6  7  1  0
  7  8  1  0
  8  9  1  0
  9 10  1  0
  4 11  2  0
 11 12  1  0
 12 13  1  0
 13 14  1  0
 14 15  1  0
 15 16  1  0
 16 17  2  0
 17 18  1  0
 18 19  2  0
 19 20  1  0
 20 21  2  0
 21 22  1  0
 12 23  2  0
 23  2  1  0
 10  5  1  0
 22 13  1  0
 21 16  1  0
  6 24  1  0
  6 25  1  0
  7 26  1  0
  7 27  1  0
  8 28  1  0
  9 29  1  0
  9 30  1  0
 10 31  1  0
 10 32  1  0
 14 33  1  0
 14 34  1  0
 15 35  1  0
 15 36  1  0
 17 37  1  0
 18 38  1  0
 19 39  1  0
 20 40  1  0
 22 41  1  0
 22 42  1  0
M  CHG  1   1  -1
M  END
>  <UniqueID>  (62) 
704

>  <SMILES>  (62) 
[O-]c1nc(N2CCNCC2)nc(N2CCc3ccccc3C2)n1

>  <Energy>  (62) 
52.14116509113121

>  <Genealogy>  (62) 
[O-]c1nc(N2CCNCC2)nc(N2CCc3ccccc3C2)n1 (protonated)
[O-]c1nc(N2CCNCC2)nc(N2CCc3ccccc3C2)n1 (3D coordinates assigned)
[O-]c1nc(N2CCNCC2)nc(N2CCc3ccccc3C2)n1 (nonaromatic ring conformer: 52.14116509113121 kcal/mol)

>  <smiles>  (62) 
Oc1nc(N2CCNCC2)nc(N2CCc3ccccc3C2)n1

>  <score_type>  (62) 
oracle

>  <origin>  (62) 
autodockgpu

>  <m_score__min__energy>  (62) 
-7.2599999999999998

>  <m_primary>  (62) 
energy

>  <meeko>  (62) 
{"free_energy": -7.26, "intermolecular_energy": -7.85, "internal_energy": -0.56, "cluster_size": 19, "cluster_id": 1, "rank_in_cluster": 4}

>  <energy>  (62) 
-7.26

>  <cluster_rmsd>  (62) 
0.04

>  <rmsd>  (62) 
272.0

>  <cluster>  (62) 
1

$$$$
VOQKIUCZPHIEKY-MWDOZMLPNA-M
     RDKit          3D

 42 45  0  0  0  0  0  0  0  0999 V2000
  139.7300   75.6040  221.5260 O   0  0  0  0  0  0  0  0  0  0  0  0
  140.4480   74.4170  221.5740 C   0  0  0  0  0  0  0  0  0  0  0  0
  141.5360   74.2500  220.7830 N   0  0  0  0  0  0  0  0  0  0  0  0
  142.2460   73.0910  220.8240 C   0  0  0  0  0  0  0  0  0  0  0  0
  143.4020   72.9170  219.9800 N   0  0  0  0  0  0  0  0  0  0  0  0
  143.5230   73.7200  218.7550 C   0  0  0  0  0  0  0  0  0  0  0  0
  144.8160   73.3880  218.0050 C   0  0  0  0  0  0  0  0  0  0  0  0
  145.9440   73.3360  218.9400 N   0  0  0  0  0  0  0  0  0  0  0  0
  145.8090   72.2570  219.9380 C   0  0  0  0  0  0  0  0  0  0  0  0
  144.3530   71.8200  220.2180 C   0  0  0  0  0  0  0  0  0  0  0  0
  141.8490   72.1010  221.6660 N   0  0  0  0  0  0  0  0  0  0  0  0
  140.7580   72.2570  222.4630 C   0  0  0  0  0  0  0  0  0  0  0  0
  140.3460   71.2020  223.3580 N   0  0  0  0  0  0  0  0  0  0  0  0
  139.5620   70.0670  222.8450 C   0  0  0  0  0  0  0  0  0  0  0  0
  138.5900   69.5590  223.9050 C   0  0  0  0  0  0  0  0  0  0  0  0
  139.3310   69.2270  225.1660 C   0  0  0  0  0  0  0  0  0  0  0  0
  138.9010   68.1700  225.9840 C   0  0  0  0  0  0  0  0  0  0  0  0
  139.5740   67.8850  227.1740 C   0  0  0  0  0  0  0  0  0  0  0  0
  140.6690   68.6590  227.5620 C   0  0  0  0  0  0  0  0  0  0  0  0
  141.0920   69.7250  226.7620 C   0  0  0  0  0  0  0  0  0  0  0  0
  140.4310   70.0140  225.5580 C   0  0  0  0  0  0  0  0  0  0  0  0
  140.8760   71.2010  224.7350 C   0  0  0  0  0  0  0  0  0  0  0  0
  140.0610   73.4230  222.4110 N   0  0  0  0  0  0  0  0  0  0  0  0
  142.6639   73.5096  218.1010 H   0  0  0  0  0  0  0  0  0  0  0  0
  143.5440   74.7837  219.0346 H   0  0  0  0  0  0  0  0  0  0  0  0
  144.7087   72.4114  217.5103 H   0  0  0  0  0  0  0  0  0  0  0  0
  145.0070   74.1697  217.2550 H   0  0  0  0  0  0  0  0  0  0  0  0
  146.0030   74.2550  219.4410 H   0  0  0  0  0  0  0  0  0  0  0  0
  146.3665   71.3812  219.5744 H   0  0  0  0  0  0  0  0  0  0  0  0
  146.2030   72.6558  220.8845 H   0  0  0  0  0  0  0  0  0  0  0  0
  144.0996   70.9784  219.5566 H   0  0  0  0  0  0  0  0  0  0  0  0
  144.2800   71.5252  221.2753 H   0  0  0  0  0  0  0  0  0  0  0  0
  138.9942   70.3910  221.9603 H   0  0  0  0  0  0  0  0  0  0  0  0
  140.2519   69.2526  222.5790 H   0  0  0  0  0  0  0  0  0  0  0  0
  137.8425   70.3378  224.1164 H   0  0  0  0  0  0  0  0  0  0  0  0
  138.0906   68.6529  223.5313 H   0  0  0  0  0  0  0  0  0  0  0  0
  138.0318   67.5648  225.6868 H   0  0  0  0  0  0  0  0  0  0  0  0
  139.2407   67.0492  227.8067 H   0  0  0  0  0  0  0  0  0  0  0  0
  141.1996   68.4301  228.4980 H   0  0  0  0  0  0  0  0  0  0  0  0
  141.9473   70.3403  227.0779 H   0  0  0  0  0  0  0  0  0  0  0  0
  140.5370   72.1187  225.2380 H   0  0  0  0  0  0  0  0  0  0  0  0
  141.9718   71.1445  224.6569 H   0  0  0  0  0  0  0  0  0  0  0  0
  1  2  1  0
  2  3  2  0
  3  4  1  0
  4  5  1  0
  5  6  1  0
  6  7  1  0
  7  8  1  0
  8  9  1  0
  9 10  1  0
  4 11  2  0
 11 12  1  0
 12 13  1  0
 13 14  1  0
 14 15  1  0
 15 16  1  0
 16 17  2  0
 17 18  1  0
 18 19  2  0
 19 20  1  0
 20 21  2  0
 21 22  1  0
 12 23  2  0
 23  2  1  0
 10  5  1  0
 22 13  1  0
 21 16  1  0
  6 24  1  0
  6 25  1  0
  7 26  1  0
  7 27  1  0
  8 28  1  0
  9 29  1  0
  9 30  1  0
 10 31  1  0
 10 32  1  0
 14 33  1  0
 14 34  1  0
 15 35  1  0
 15 36  1  0
 17 37  1  0
 18 38  1  0
 19 39  1  0
 20 40  1  0
 22 41  1  0
 22 42  1  0
M  CHG  1   1  -1
M  END
>  <UniqueID>  (63) 
704

>  <SMILES>  (63) 
[O-]c1nc(N2CCNCC2)nc(N2CCc3ccccc3C2)n1

>  <Energy>  (63) 
52.14116509113121

>  <Genealogy>  (63) 
[O-]c1nc(N2CCNCC2)nc(N2CCc3ccccc3C2)n1 (protonated)
[O-]c1nc(N2CCNCC2)nc(N2CCc3ccccc3C2)n1 (3D coordinates assigned)
[O-]c1nc(N2CCNCC2)nc(N2CCc3ccccc3C2)n1 (nonaromatic ring conformer: 52.14116509113121 kcal/mol)

>  <smiles>  (63) 
Oc1nc(N2CCNCC2)nc(N2CCc3ccccc3C2)n1

>  <score_type>  (63) 
oracle

>  <origin>  (63) 
autodockgpu

>  <m_score__min__energy>  (63) 
-7.2599999999999998

>  <m_primary>  (63) 
energy

>  <meeko>  (63) 
{"free_energy": -7.24, "intermolecular_energy": -7.84, "internal_energy": -0.57, "cluster_size": 19, "cluster_id": 1, "rank_in_cluster": 13}

>  <energy>  (63) 
-7.26

>  <cluster_rmsd>  (63) 
0.02

>  <rmsd>  (63) 
272.01

>  <cluster>  (63) 
1

$$$$
VOQKIUCZPHIEKY-MWDOZMLPNA-M
     RDKit          3D

 42 45  0  0  0  0  0  0  0  0999 V2000
  139.6870   75.5860  221.4890 O   0  0  0  0  0  0  0  0  0  0  0  0
  140.4160   74.4060  221.5510 C   0  0  0  0  0  0  0  0  0  0  0  0
  141.5110   74.2440  220.7690 N   0  0  0  0  0  0  0  0  0  0  0  0
  142.2310   73.0910  220.8240 C   0  0  0  0  0  0  0  0  0  0  0  0
  143.3950   72.9210  219.9900 N   0  0  0  0  0  0  0  0  0  0  0  0
  143.5230   73.7240  218.7660 C   0  0  0  0  0  0  0  0  0  0  0  0
  144.8230   73.3970  218.0260 C   0  0  0  0  0  0  0  0  0  0  0  0
  145.9430   73.3500  218.9710 N   0  0  0  0  0  0  0  0  0  0  0  0
  145.8040   72.2710  219.9680 C   0  0  0  0  0  0  0  0  0  0  0  0
  144.3480   71.8280  220.2370 C   0  0  0  0  0  0  0  0  0  0  0  0
  141.8370   72.1030  221.6710 N   0  0  0  0  0  0  0  0  0  0  0  0
  140.7390   72.2560  222.4590 C   0  0  0  0  0  0  0  0  0  0  0  0
  140.3310   71.2040  223.3590 N   0  0  0  0  0  0  0  0  0  0  0  0
  139.5470   70.0660  222.8520 C   0  0  0  0  0  0  0  0  0  0  0  0
  138.5780   69.5610  223.9160 C   0  0  0  0  0  0  0  0  0  0  0  0
  139.3210   69.2350  225.1770 C   0  0  0  0  0  0  0  0  0  0  0  0
  138.8950   68.1810  226.0000 C   0  0  0  0  0  0  0  0  0  0  0  0
  139.5700   67.9010  227.1900 C   0  0  0  0  0  0  0  0  0  0  0  0
  140.6650   68.6790  227.5730 C   0  0  0  0  0  0  0  0  0  0  0  0
  141.0850   69.7420  226.7680 C   0  0  0  0  0  0  0  0  0  0  0  0
  140.4210   70.0250  225.5630 C   0  0  0  0  0  0  0  0  0  0  0  0
  140.8630   71.2100  224.7350 C   0  0  0  0  0  0  0  0  0  0  0  0
  140.0320   73.4150  222.3930 N   0  0  0  0  0  0  0  0  0  0  0  0
  142.6699   73.5103  218.1053 H   0  0  0  0  0  0  0  0  0  0  0  0
  143.5382   74.7877  219.0458 H   0  0  0  0  0  0  0  0  0  0  0  0
  144.7237   72.4198  217.5307 H   0  0  0  0  0  0  0  0  0  0  0  0
  145.0169   74.1786  217.2767 H   0  0  0  0  0  0  0  0  0  0  0  0
  145.9950   74.2690  219.4720 H   0  0  0  0  0  0  0  0  0  0  0  0
  146.3678   71.3973  219.6091 H   0  0  0  0  0  0  0  0  0  0  0  0
  146.1886   72.6720  220.9174 H   0  0  0  0  0  0  0  0  0  0  0  0
  144.1033   70.9846  219.5746 H   0  0  0  0  0  0  0  0  0  0  0  0
  144.2676   71.5337  221.2938 H   0  0  0  0  0  0  0  0  0  0  0  0
  138.9769   70.3860  221.9674 H   0  0  0  0  0  0  0  0  0  0  0  0
  140.2372   69.2513  222.5876 H   0  0  0  0  0  0  0  0  0  0  0  0
  137.8298   70.3396  224.1256 H   0  0  0  0  0  0  0  0  0  0  0  0
  138.0797   68.6525  223.5468 H   0  0  0  0  0  0  0  0  0  0  0  0
  138.0263   67.5733  225.7066 H   0  0  0  0  0  0  0  0  0  0  0  0
  139.2391   67.0670  227.8263 H   0  0  0  0  0  0  0  0  0  0  0  0
  141.1975   68.4550  228.5091 H   0  0  0  0  0  0  0  0  0  0  0  0
  141.9399   70.3600  227.0799 H   0  0  0  0  0  0  0  0  0  0  0  0
  140.5229   72.1290  225.2348 H   0  0  0  0  0  0  0  0  0  0  0  0
  141.9588   71.1559  224.6560 H   0  0  0  0  0  0  0  0  0  0  0  0
  1  2  1  0
  2  3  2  0
  3  4  1  0
  4  5  1  0
  5  6  1  0
  6  7  1  0
  7  8  1  0
  8  9  1  0
  9 10  1  0
  4 11  2  0
 11 12  1  0
 12 13  1  0
 13 14  1  0
 14 15  1  0
 15 16  1  0
 16 17  2  0
 17 18  1  0
 18 19  2  0
 19 20  1  0
 20 21  2  0
 21 22  1  0
 12 23  2  0
 23  2  1  0
 10  5  1  0
 22 13  1  0
 21 16  1  0
  6 24  1  0
  6 25  1  0
  7 26  1  0
  7 27  1  0
  8 28  1  0
  9 29  1  0
  9 30  1  0
 10 31  1  0
 10 32  1  0
 14 33  1  0
 14 34  1  0
 15 35  1  0
 15 36  1  0
 17 37  1  0
 18 38  1  0
 19 39  1  0
 20 40  1  0
 22 41  1  0
 22 42  1  0
M  CHG  1   1  -1
M  END
>  <UniqueID>  (64) 
704

>  <SMILES>  (64) 
[O-]c1nc(N2CCNCC2)nc(N2CCc3ccccc3C2)n1

>  <Energy>  (64) 
52.14116509113121

>  <Genealogy>  (64) 
[O-]c1nc(N2CCNCC2)nc(N2CCc3ccccc3C2)n1 (protonated)
[O-]c1nc(N2CCNCC2)nc(N2CCc3ccccc3C2)n1 (3D coordinates assigned)
[O-]c1nc(N2CCNCC2)nc(N2CCc3ccccc3C2)n1 (nonaromatic ring conformer: 52.14116509113121 kcal/mol)

>  <smiles>  (64) 
Oc1nc(N2CCNCC2)nc(N2CCc3ccccc3C2)n1

>  <score_type>  (64) 
oracle

>  <origin>  (64) 
autodockgpu

>  <m_score__min__energy>  (64) 
-7.2599999999999998

>  <m_primary>  (64) 
energy

>  <meeko>  (64) 
{"free_energy": -7.24, "intermolecular_energy": -7.84, "internal_energy": -0.57, "cluster_size": 19, "cluster_id": 1, "rank_in_cluster": 10}

>  <energy>  (64) 
-7.26

>  <cluster_rmsd>  (64) 
0.01

>  <rmsd>  (64) 
272.0

>  <cluster>  (64) 
1

$$$$
VOQKIUCZPHIEKY-MWDOZMLPNA-M
     RDKit          3D

 42 45  0  0  0  0  0  0  0  0999 V2000
  140.3170   71.3910  218.7580 O   0  0  0  0  0  0  0  0  0  0  0  0
  140.2960   72.0640  219.9720 C   0  0  0  0  0  0  0  0  0  0  0  0
  140.3880   73.4160  220.0000 N   0  0  0  0  0  0  0  0  0  0  0  0
  140.3680   74.0830  221.1850 C   0  0  0  0  0  0  0  0  0  0  0  0
  140.4670   75.5220  221.2100 N   0  0  0  0  0  0  0  0  0  0  0  0
  139.8910   76.2600  222.3430 C   0  0  0  0  0  0  0  0  0  0  0  0
  140.1030   77.7670  222.1830 C   0  0  0  0  0  0  0  0  0  0  0  0
  141.4840   78.0440  221.7780 N   0  0  0  0  0  0  0  0  0  0  0  0
  141.8140   77.4810  220.4540 C   0  0  0  0  0  0  0  0  0  0  0  0
  140.9540   76.2660  220.0390 C   0  0  0  0  0  0  0  0  0  0  0  0
  140.2570   73.3760  222.3410 N   0  0  0  0  0  0  0  0  0  0  0  0
  140.1650   72.0200  222.3240 C   0  0  0  0  0  0  0  0  0  0  0  0
  140.0430   71.2780  223.5570 N   0  0  0  0  0  0  0  0  0  0  0  0
  139.5670   69.8850  223.5320 C   0  0  0  0  0  0  0  0  0  0  0  0
  138.7660   69.5660  224.7890 C   0  0  0  0  0  0  0  0  0  0  0  0
  139.5760   69.8780  226.0110 C   0  0  0  0  0  0  0  0  0  0  0  0
  139.4360   69.1040  227.1730 C   0  0  0  0  0  0  0  0  0  0  0  0
  140.1690   69.4180  228.3190 C   0  0  0  0  0  0  0  0  0  0  0  0
  141.0350   70.5130  228.3190 C   0  0  0  0  0  0  0  0  0  0  0  0
  141.1670   71.3000  227.1710 C   0  0  0  0  0  0  0  0  0  0  0  0
  140.4440   70.9870  226.0080 C   0  0  0  0  0  0  0  0  0  0  0  0
  140.5670   71.8820  224.7970 C   0  0  0  0  0  0  0  0  0  0  0  0
  140.1850   71.3690  221.1310 N   0  0  0  0  0  0  0  0  0  0  0  0
  138.8121   76.0525  222.3958 H   0  0  0  0  0  0  0  0  0  0  0  0
  140.3931   75.9323  223.2653 H   0  0  0  0  0  0  0  0  0  0  0  0
  139.4153   78.1511  221.4152 H   0  0  0  0  0  0  0  0  0  0  0  0
  139.9054   78.2613  223.1456 H   0  0  0  0  0  0  0  0  0  0  0  0
  142.1290   77.6280  222.4920 H   0  0  0  0  0  0  0  0  0  0  0  0
  141.6771   78.2714  219.7013 H   0  0  0  0  0  0  0  0  0  0  0  0
  142.8515   77.1212  220.5181 H   0  0  0  0  0  0  0  0  0  0  0  0
  140.0905   76.6217  219.4578 H   0  0  0  0  0  0  0  0  0  0  0  0
  141.5805   75.5902  219.4384 H   0  0  0  0  0  0  0  0  0  0  0  0
  138.9273   69.7379  222.6493 H   0  0  0  0  0  0  0  0  0  0  0  0
  140.4381   69.2147  223.4884 H   0  0  0  0  0  0  0  0  0  0  0  0
  137.8472   70.1707  224.7978 H   0  0  0  0  0  0  0  0  0  0  0  0
  138.5109   68.4960  224.7906 H   0  0  0  0  0  0  0  0  0  0  0  0
  138.7464   68.2470  227.1810 H   0  0  0  0  0  0  0  0  0  0  0  0
  140.0640   68.8013  229.2238 H   0  0  0  0  0  0  0  0  0  0  0  0
  141.6135   70.7566  229.2223 H   0  0  0  0  0  0  0  0  0  0  0  0
  141.8409   72.1693  227.1785 H   0  0  0  0  0  0  0  0  0  0  0  0
  140.0103   72.8102  224.9933 H   0  0  0  0  0  0  0  0  0  0  0  0
  141.6405   72.0619  224.6381 H   0  0  0  0  0  0  0  0  0  0  0  0
  1  2  1  0
  2  3  2  0
  3  4  1  0
  4  5  1  0
  5  6  1  0
  6  7  1  0
  7  8  1  0
  8  9  1  0
  9 10  1  0
  4 11  2  0
 11 12  1  0
 12 13  1  0
 13 14  1  0
 14 15  1  0
 15 16  1  0
 16 17  2  0
 17 18  1  0
 18 19  2  0
 19 20  1  0
 20 21  2  0
 21 22  1  0
 12 23  2  0
 23  2  1  0
 10  5  1  0
 22 13  1  0
 21 16  1  0
  6 24  1  0
  6 25  1  0
  7 26  1  0
  7 27  1  0
  8 28  1  0
  9 29  1  0
  9 30  1  0
 10 31  1  0
 10 32  1  0
 14 33  1  0
 14 34  1  0
 15 35  1  0
 15 36  1  0
 17 37  1  0
 18 38  1  0
 19 39  1  0
 20 40  1  0
 22 41  1  0
 22 42  1  0
M  CHG  1   1  -1
M  END
>  <UniqueID>  (65) 
704

>  <SMILES>  (65) 
[O-]c1nc(N2CCNCC2)nc(N2CCc3ccccc3C2)n1

>  <Energy>  (65) 
52.14116509113121

>  <Genealogy>  (65) 
[O-]c1nc(N2CCNCC2)nc(N2CCc3ccccc3C2)n1 (protonated)
[O-]c1nc(N2CCNCC2)nc(N2CCc3ccccc3C2)n1 (3D coordinates assigned)
[O-]c1nc(N2CCNCC2)nc(N2CCc3ccccc3C2)n1 (nonaromatic ring conformer: 52.14116509113121 kcal/mol)

>  <smiles>  (65) 
Oc1nc(N2CCNCC2)nc(N2CCc3ccccc3C2)n1

>  <score_type>  (65) 
oracle

>  <origin>  (65) 
autodockgpu

>  <m_score__min__energy>  (65) 
-7.2599999999999998

>  <m_primary>  (65) 
energy

>  <meeko>  (65) 
{"free_energy": -6.72, "intermolecular_energy": -7.31, "internal_energy": -0.58, "cluster_size": 1, "cluster_id": 2, "rank_in_cluster": 1}

>  <energy>  (65) 
-7.25

>  <cluster_rmsd>  (65) 
0.02

>  <rmsd>  (65) 
272.0

>  <cluster>  (65) 
1

$$$$
VOQKIUCZPHIEKY-MWDOZMLPNA-M
     RDKit          3D

 42 45  0  0  0  0  0  0  0  0999 V2000
  139.7110   75.6070  221.5360 O   0  0  0  0  0  0  0  0  0  0  0  0
  140.4330   74.4220  221.5890 C   0  0  0  0  0  0  0  0  0  0  0  0
  141.5240   74.2570  220.8000 N   0  0  0  0  0  0  0  0  0  0  0  0
  142.2360   73.0990  220.8460 C   0  0  0  0  0  0  0  0  0  0  0  0
  143.3950   72.9260  220.0050 N   0  0  0  0  0  0  0  0  0  0  0  0
  143.5170   73.7260  218.7790 C   0  0  0  0  0  0  0  0  0  0  0  0
  144.8120   73.3960  218.0320 C   0  0  0  0  0  0  0  0  0  0  0  0
  145.9380   73.3500  218.9700 N   0  0  0  0  0  0  0  0  0  0  0  0
  145.8030   72.2720  219.9700 C   0  0  0  0  0  0  0  0  0  0  0  0
  144.3480   71.8330  220.2480 C   0  0  0  0  0  0  0  0  0  0  0  0
  141.8400   72.1100  221.6900 N   0  0  0  0  0  0  0  0  0  0  0  0
  140.7470   72.2660  222.4840 C   0  0  0  0  0  0  0  0  0  0  0  0
  140.3370   71.2120  223.3810 N   0  0  0  0  0  0  0  0  0  0  0  0
  139.5450   70.0800  222.8720 C   0  0  0  0  0  0  0  0  0  0  0  0
  138.5780   69.5750  223.9380 C   0  0  0  0  0  0  0  0  0  0  0  0
  139.3240   69.2400  225.1940 C   0  0  0  0  0  0  0  0  0  0  0  0
  138.8950   68.1850  226.0150 C   0  0  0  0  0  0  0  0  0  0  0  0
  139.5740   67.8970  227.2010 C   0  0  0  0  0  0  0  0  0  0  0  0
  140.6740   68.6670  227.5840 C   0  0  0  0  0  0  0  0  0  0  0  0
  141.0960   69.7310  226.7810 C   0  0  0  0  0  0  0  0  0  0  0  0
  140.4290   70.0230  225.5800 C   0  0  0  0  0  0  0  0  0  0  0  0
  140.8740   71.2090  224.7560 C   0  0  0  0  0  0  0  0  0  0  0  0
  140.0470   73.4290  222.4270 N   0  0  0  0  0  0  0  0  0  0  0  0
  142.6598   73.5121  218.1237 H   0  0  0  0  0  0  0  0  0  0  0  0
  143.5354   74.7902  219.0567 H   0  0  0  0  0  0  0  0  0  0  0  0
  144.7086   72.4178  217.5396 H   0  0  0  0  0  0  0  0  0  0  0  0
  145.0021   74.1759  217.2799 H   0  0  0  0  0  0  0  0  0  0  0  0
  145.9940   74.2690  219.4690 H   0  0  0  0  0  0  0  0  0  0  0  0
  146.3627   71.3966  219.6089 H   0  0  0  0  0  0  0  0  0  0  0  0
  146.1945   72.6731  220.9165 H   0  0  0  0  0  0  0  0  0  0  0  0
  144.0981   70.9888  219.5886 H   0  0  0  0  0  0  0  0  0  0  0  0
  144.2736   71.5417  221.3061 H   0  0  0  0  0  0  0  0  0  0  0  0
  138.9727   70.4069  221.9913 H   0  0  0  0  0  0  0  0  0  0  0  0
  140.2300   69.2631  222.6008 H   0  0  0  0  0  0  0  0  0  0  0  0
  137.8345   70.3563  224.1540 H   0  0  0  0  0  0  0  0  0  0  0  0
  138.0739   68.6705  223.5669 H   0  0  0  0  0  0  0  0  0  0  0  0
  138.0215   67.5834  225.7233 H   0  0  0  0  0  0  0  0  0  0  0  0
  139.2415   67.0617  227.8348 H   0  0  0  0  0  0  0  0  0  0  0  0
  141.2085   68.4366  228.5174 H   0  0  0  0  0  0  0  0  0  0  0  0
  141.9555   70.3431  227.0918 H   0  0  0  0  0  0  0  0  0  0  0  0
  140.5402   72.1274  225.2610 H   0  0  0  0  0  0  0  0  0  0  0  0
  141.9692   71.1496  224.6729 H   0  0  0  0  0  0  0  0  0  0  0  0
  1  2  1  0
  2  3  2  0
  3  4  1  0
  4  5  1  0
  5  6  1  0
  6  7  1  0
  7  8  1  0
  8  9  1  0
  9 10  1  0
  4 11  2  0
 11 12  1  0
 12 13  1  0
 13 14  1  0
 14 15  1  0
 15 16  1  0
 16 17  2  0
 17 18  1  0
 18 19  2  0
 19 20  1  0
 20 21  2  0
 21 22  1  0
 12 23  2  0
 23  2  1  0
 10  5  1  0
 22 13  1  0
 21 16  1  0
  6 24  1  0
  6 25  1  0
  7 26  1  0
  7 27  1  0
  8 28  1  0
  9 29  1  0
  9 30  1  0
 10 31  1  0
 10 32  1  0
 14 33  1  0
 14 34  1  0
 15 35  1  0
 15 36  1  0
 17 37  1  0
 18 38  1  0
 19 39  1  0
 20 40  1  0
 22 41  1  0
 22 42  1  0
M  CHG  1   1  -1
M  END
>  <UniqueID>  (66) 
704

>  <SMILES>  (66) 
[O-]c1nc(N2CCNCC2)nc(N2CCc3ccccc3C2)n1

>  <Energy>  (66) 
52.14116509113121

>  <Genealogy>  (66) 
[O-]c1nc(N2CCNCC2)nc(N2CCc3ccccc3C2)n1 (protonated)
[O-]c1nc(N2CCNCC2)nc(N2CCc3ccccc3C2)n1 (3D coordinates assigned)
[O-]c1nc(N2CCNCC2)nc(N2CCc3ccccc3C2)n1 (nonaromatic ring conformer: 52.14116509113121 kcal/mol)

>  <smiles>  (66) 
Oc1nc(N2CCNCC2)nc(N2CCc3ccccc3C2)n1

>  <score_type>  (66) 
oracle

>  <origin>  (66) 
autodockgpu

>  <m_score__min__energy>  (66) 
-7.2599999999999998

>  <m_primary>  (66) 
energy

>  <meeko>  (66) 
{"free_energy": -7.24, "intermolecular_energy": -7.84, "internal_energy": -0.57, "cluster_size": 19, "cluster_id": 1, "rank_in_cluster": 12}

>  <energy>  (66) 
-7.25

>  <cluster_rmsd>  (66) 
0.03

>  <rmsd>  (66) 
272.0

>  <cluster>  (66) 
1

$$$$
VOQKIUCZPHIEKY-MWDOZMLPNA-M
     RDKit          3D

 42 45  0  0  0  0  0  0  0  0999 V2000
  139.7360   75.5940  221.5460 O   0  0  0  0  0  0  0  0  0  0  0  0
  140.4510   74.4050  221.5900 C   0  0  0  0  0  0  0  0  0  0  0  0
  141.5380   74.2380  220.7980 N   0  0  0  0  0  0  0  0  0  0  0  0
  142.2440   73.0760  220.8350 C   0  0  0  0  0  0  0  0  0  0  0  0
  143.4000   72.9010  219.9910 N   0  0  0  0  0  0  0  0  0  0  0  0
  143.5270   73.7130  218.7720 C   0  0  0  0  0  0  0  0  0  0  0  0
  144.8180   73.3790  218.0210 C   0  0  0  0  0  0  0  0  0  0  0  0
  145.9450   73.3130  218.9560 N   0  0  0  0  0  0  0  0  0  0  0  0
  145.8020   72.2270  219.9450 C   0  0  0  0  0  0  0  0  0  0  0  0
  144.3440   71.7970  220.2210 C   0  0  0  0  0  0  0  0  0  0  0  0
  141.8440   72.0840  221.6740 N   0  0  0  0  0  0  0  0  0  0  0  0
  140.7530   72.2410  222.4710 C   0  0  0  0  0  0  0  0  0  0  0  0
  140.3380   71.1840  223.3620 N   0  0  0  0  0  0  0  0  0  0  0  0
  139.5480   70.0540  222.8450 C   0  0  0  0  0  0  0  0  0  0  0  0
  138.5760   69.5460  223.9050 C   0  0  0  0  0  0  0  0  0  0  0  0
  139.3160   69.2060  225.1630 C   0  0  0  0  0  0  0  0  0  0  0  0
  138.8830   68.1480  225.9770 C   0  0  0  0  0  0  0  0  0  0  0  0
  139.5560   67.8550  227.1650 C   0  0  0  0  0  0  0  0  0  0  0  0
  140.6550   68.6230  227.5560 C   0  0  0  0  0  0  0  0  0  0  0  0
  141.0820   69.6900  226.7590 C   0  0  0  0  0  0  0  0  0  0  0  0
  140.4200   69.9870  225.5570 C   0  0  0  0  0  0  0  0  0  0  0  0
  140.8690   71.1750  224.7390 C   0  0  0  0  0  0  0  0  0  0  0  0
  140.0600   73.4090  222.4230 N   0  0  0  0  0  0  0  0  0  0  0  0
  142.6673   73.5130  218.1156 H   0  0  0  0  0  0  0  0  0  0  0  0
  143.5542   74.7743  219.0598 H   0  0  0  0  0  0  0  0  0  0  0  0
  144.7051   72.4068  217.5188 H   0  0  0  0  0  0  0  0  0  0  0  0
  145.0143   74.1653  217.2773 H   0  0  0  0  0  0  0  0  0  0  0  0
  146.0100   74.2270  219.4640 H   0  0  0  0  0  0  0  0  0  0  0  0
  146.3540   71.3506  219.5746 H   0  0  0  0  0  0  0  0  0  0  0  0
  146.1976   72.6160  220.8948 H   0  0  0  0  0  0  0  0  0  0  0  0
  144.0858   70.9619  219.5532 H   0  0  0  0  0  0  0  0  0  0  0  0
  144.2688   71.4948  221.2760 H   0  0  0  0  0  0  0  0  0  0  0  0
  138.9800   70.3842  221.9628 H   0  0  0  0  0  0  0  0  0  0  0  0
  140.2338   69.2378  222.5738 H   0  0  0  0  0  0  0  0  0  0  0  0
  137.8321   70.3271  224.1205 H   0  0  0  0  0  0  0  0  0  0  0  0
  138.0730   68.6431  223.5285 H   0  0  0  0  0  0  0  0  0  0  0  0
  138.0109   67.5478  225.6784 H   0  0  0  0  0  0  0  0  0  0  0  0
  139.2198   67.0176  227.7941 H   0  0  0  0  0  0  0  0  0  0  0  0
  141.1849   68.3886  228.4910 H   0  0  0  0  0  0  0  0  0  0  0  0
  141.9411   70.2998  227.0756 H   0  0  0  0  0  0  0  0  0  0  0  0
  140.5340   72.0919  225.2460 H   0  0  0  0  0  0  0  0  0  0  0  0
  141.9645   71.1144  224.6599 H   0  0  0  0  0  0  0  0  0  0  0  0
  1  2  1  0
  2  3  2  0
  3  4  1  0
  4  5  1  0
  5  6  1  0
  6  7  1  0
  7  8  1  0
  8  9  1  0
  9 10  1  0
  4 11  2  0
 11 12  1  0
 12 13  1  0
 13 14  1  0
 14 15  1  0
 15 16  1  0
 16 17  2  0
 17 18  1  0
 18 19  2  0
 19 20  1  0
 20 21  2  0
 21 22  1  0
 12 23  2  0
 23  2  1  0
 10  5  1  0
 22 13  1  0
 21 16  1  0
  6 24  1  0
  6 25  1  0
  7 26  1  0
  7 27  1  0
  8 28  1  0
  9 29  1  0
  9 30  1  0
 10 31  1  0
 10 32  1  0
 14 33  1  0
 14 34  1  0
 15 35  1  0
 15 36  1  0
 17 37  1  0
 18 38  1  0
 19 39  1  0
 20 40  1  0
 22 41  1  0
 22 42  1  0
M  CHG  1   1  -1
M  END
>  <UniqueID>  (67) 
704

>  <SMILES>  (67) 
[O-]c1nc(N2CCNCC2)nc(N2CCc3ccccc3C2)n1

>  <Energy>  (67) 
52.14116509113121

>  <Genealogy>  (67) 
[O-]c1nc(N2CCNCC2)nc(N2CCc3ccccc3C2)n1 (protonated)
[O-]c1nc(N2CCNCC2)nc(N2CCc3ccccc3C2)n1 (3D coordinates assigned)
[O-]c1nc(N2CCNCC2)nc(N2CCc3ccccc3C2)n1 (nonaromatic ring conformer: 52.14116509113121 kcal/mol)

>  <smiles>  (67) 
Oc1nc(N2CCNCC2)nc(N2CCc3ccccc3C2)n1

>  <score_type>  (67) 
oracle

>  <origin>  (67) 
autodockgpu

>  <m_score__min__energy>  (67) 
-7.2599999999999998

>  <m_primary>  (67) 
energy

>  <meeko>  (67) 
{"free_energy": -7.23, "intermolecular_energy": -7.83, "internal_energy": -0.57, "cluster_size": 19, "cluster_id": 1, "rank_in_cluster": 16}

>  <energy>  (67) 
-7.25

>  <cluster_rmsd>  (67) 
0.02

>  <rmsd>  (67) 
272.01

>  <cluster>  (67) 
1

$$$$
VOQKIUCZPHIEKY-MWDOZMLPNA-M
     RDKit          3D

 42 45  0  0  0  0  0  0  0  0999 V2000
  139.7400   75.6080  221.5640 O   0  0  0  0  0  0  0  0  0  0  0  0
  140.4510   74.4160  221.5930 C   0  0  0  0  0  0  0  0  0  0  0  0
  141.5310   74.2520  220.7900 N   0  0  0  0  0  0  0  0  0  0  0  0
  142.2330   73.0880  220.8120 C   0  0  0  0  0  0  0  0  0  0  0  0
  143.3820   72.9160  219.9560 N   0  0  0  0  0  0  0  0  0  0  0  0
  143.5160   73.7580  218.7590 C   0  0  0  0  0  0  0  0  0  0  0  0
  144.7970   73.4220  217.9910 C   0  0  0  0  0  0  0  0  0  0  0  0
  145.9280   73.3110  218.9170 N   0  0  0  0  0  0  0  0  0  0  0  0
  145.7710   72.2010  219.8770 C   0  0  0  0  0  0  0  0  0  0  0  0
  144.3070   71.7890  220.1500 C   0  0  0  0  0  0  0  0  0  0  0  0
  141.8380   72.0900  221.6470 N   0  0  0  0  0  0  0  0  0  0  0  0
  140.7550   72.2450  222.4540 C   0  0  0  0  0  0  0  0  0  0  0  0
  140.3440   71.1820  223.3410 N   0  0  0  0  0  0  0  0  0  0  0  0
  139.5630   70.0490  222.8190 C   0  0  0  0  0  0  0  0  0  0  0  0
  138.5910   69.5320  223.8740 C   0  0  0  0  0  0  0  0  0  0  0  0
  139.3300   69.1920  225.1330 C   0  0  0  0  0  0  0  0  0  0  0  0
  138.9020   68.1290  225.9430 C   0  0  0  0  0  0  0  0  0  0  0  0
  139.5740   67.8360  227.1320 C   0  0  0  0  0  0  0  0  0  0  0  0
  140.6670   68.6100  227.5280 C   0  0  0  0  0  0  0  0  0  0  0  0
  141.0890   69.6820  226.7350 C   0  0  0  0  0  0  0  0  0  0  0  0
  140.4280   69.9790  225.5320 C   0  0  0  0  0  0  0  0  0  0  0  0
  140.8720   71.1730  224.7190 C   0  0  0  0  0  0  0  0  0  0  0  0
  140.0650   73.4160  222.4220 N   0  0  0  0  0  0  0  0  0  0  0  0
  142.6491   73.5907  218.1029 H   0  0  0  0  0  0  0  0  0  0  0  0
  143.5634   74.8106  219.0751 H   0  0  0  0  0  0  0  0  0  0  0  0
  144.6642   72.4660  217.4634 H   0  0  0  0  0  0  0  0  0  0  0  0
  145.0028   74.2247  217.2676 H   0  0  0  0  0  0  0  0  0  0  0  0
  146.0110   74.2090  219.4490 H   0  0  0  0  0  0  0  0  0  0  0  0
  146.3054   71.3255  219.4796 H   0  0  0  0  0  0  0  0  0  0  0  0
  146.1785   72.5571  220.8347 H   0  0  0  0  0  0  0  0  0  0  0  0
  144.0302   70.9774  219.4610 H   0  0  0  0  0  0  0  0  0  0  0  0
  144.2321   71.4587  221.1966 H   0  0  0  0  0  0  0  0  0  0  0  0
  138.9957   70.3780  221.9359 H   0  0  0  0  0  0  0  0  0  0  0  0
  140.2549   69.2378  222.5482 H   0  0  0  0  0  0  0  0  0  0  0  0
  137.8420   70.3081  224.0901 H   0  0  0  0  0  0  0  0  0  0  0  0
  138.0939   68.6277  223.4931 H   0  0  0  0  0  0  0  0  0  0  0  0
  138.0343   67.5244  225.6405 H   0  0  0  0  0  0  0  0  0  0  0  0
  139.2418   66.9943  227.7574 H   0  0  0  0  0  0  0  0  0  0  0  0
  141.1961   68.3765  228.4637 H   0  0  0  0  0  0  0  0  0  0  0  0
  141.9436   70.2960  227.0554 H   0  0  0  0  0  0  0  0  0  0  0  0
  140.5299   72.0862  225.2279 H   0  0  0  0  0  0  0  0  0  0  0  0
  141.9681   71.1204  224.6429 H   0  0  0  0  0  0  0  0  0  0  0  0
  1  2  1  0
  2  3  2  0
  3  4  1  0
  4  5  1  0
  5  6  1  0
  6  7  1  0
  7  8  1  0
  8  9  1  0
  9 10  1  0
  4 11  2  0
 11 12  1  0
 12 13  1  0
 13 14  1  0
 14 15  1  0
 15 16  1  0
 16 17  2  0
 17 18  1  0
 18 19  2  0
 19 20  1  0
 20 21  2  0
 21 22  1  0
 12 23  2  0
 23  2  1  0
 10  5  1  0
 22 13  1  0
 21 16  1  0
  6 24  1  0
  6 25  1  0
  7 26  1  0
  7 27  1  0
  8 28  1  0
  9 29  1  0
  9 30  1  0
 10 31  1  0
 10 32  1  0
 14 33  1  0
 14 34  1  0
 15 35  1  0
 15 36  1  0
 17 37  1  0
 18 38  1  0
 19 39  1  0
 20 40  1  0
 22 41  1  0
 22 42  1  0
M  CHG  1   1  -1
M  END
>  <UniqueID>  (68) 
704

>  <SMILES>  (68) 
[O-]c1nc(N2CCNCC2)nc(N2CCc3ccccc3C2)n1

>  <Energy>  (68) 
52.14116509113121

>  <Genealogy>  (68) 
[O-]c1nc(N2CCNCC2)nc(N2CCc3ccccc3C2)n1 (protonated)
[O-]c1nc(N2CCNCC2)nc(N2CCc3ccccc3C2)n1 (3D coordinates assigned)
[O-]c1nc(N2CCNCC2)nc(N2CCc3ccccc3C2)n1 (nonaromatic ring conformer: 52.14116509113121 kcal/mol)

>  <smiles>  (68) 
Oc1nc(N2CCNCC2)nc(N2CCc3ccccc3C2)n1

>  <score_type>  (68) 
oracle

>  <origin>  (68) 
autodockgpu

>  <m_score__min__energy>  (68) 
-7.2599999999999998

>  <m_primary>  (68) 
energy

>  <meeko>  (68) 
{"free_energy": -7.23, "intermolecular_energy": -7.83, "internal_energy": -0.57, "cluster_size": 19, "cluster_id": 1, "rank_in_cluster": 18}

>  <energy>  (68) 
-7.25

>  <cluster_rmsd>  (68) 
0.02

>  <rmsd>  (68) 
272.0

>  <cluster>  (68) 
1

$$$$
VOQKIUCZPHIEKY-MWDOZMLPNA-M
     RDKit          3D

 42 45  0  0  0  0  0  0  0  0999 V2000
  139.7040   75.5690  221.5300 O   0  0  0  0  0  0  0  0  0  0  0  0
  140.4240   74.3830  221.5750 C   0  0  0  0  0  0  0  0  0  0  0  0
  141.5090   74.2170  220.7790 N   0  0  0  0  0  0  0  0  0  0  0  0
  142.2190   73.0580  220.8170 C   0  0  0  0  0  0  0  0  0  0  0  0
  143.3730   72.8850  219.9680 N   0  0  0  0  0  0  0  0  0  0  0  0
  143.5270   73.7420  218.7850 C   0  0  0  0  0  0  0  0  0  0  0  0
  144.8100   73.4030  218.0220 C   0  0  0  0  0  0  0  0  0  0  0  0
  145.9320   73.2640  218.9560 N   0  0  0  0  0  0  0  0  0  0  0  0
  145.7540   72.1430  219.8990 C   0  0  0  0  0  0  0  0  0  0  0  0
  144.2830   71.7450  220.1540 C   0  0  0  0  0  0  0  0  0  0  0  0
  141.8270   72.0680  221.6610 N   0  0  0  0  0  0  0  0  0  0  0  0
  140.7390   72.2230  222.4620 C   0  0  0  0  0  0  0  0  0  0  0  0
  140.3330   71.1680  223.3590 N   0  0  0  0  0  0  0  0  0  0  0  0
  139.5590   70.0250  222.8470 C   0  0  0  0  0  0  0  0  0  0  0  0
  138.5880   69.5130  223.9050 C   0  0  0  0  0  0  0  0  0  0  0  0
  139.3250   69.1910  225.1700 C   0  0  0  0  0  0  0  0  0  0  0  0
  138.9000   68.1340  225.9900 C   0  0  0  0  0  0  0  0  0  0  0  0
  139.5710   67.8580  227.1830 C   0  0  0  0  0  0  0  0  0  0  0  0
  140.6570   68.6420  227.5740 C   0  0  0  0  0  0  0  0  0  0  0  0
  141.0760   69.7080  226.7710 C   0  0  0  0  0  0  0  0  0  0  0  0
  140.4170   69.9880  225.5630 C   0  0  0  0  0  0  0  0  0  0  0  0
  140.8560   71.1760  224.7390 C   0  0  0  0  0  0  0  0  0  0  0  0
  140.0410   73.3890  222.4130 N   0  0  0  0  0  0  0  0  0  0  0  0
  142.6636   73.5943  218.1196 H   0  0  0  0  0  0  0  0  0  0  0  0
  143.5845   74.7890  219.1173 H   0  0  0  0  0  0  0  0  0  0  0  0
  144.6704   72.4571  217.4782 H   0  0  0  0  0  0  0  0  0  0  0  0
  145.0313   74.2143  217.3128 H   0  0  0  0  0  0  0  0  0  0  0  0
  146.0210   74.1540  219.5020 H   0  0  0  0  0  0  0  0  0  0  0  0
  146.2813   71.2667  219.4939 H   0  0  0  0  0  0  0  0  0  0  0  0
  146.1577   72.4808  220.8649 H   0  0  0  0  0  0  0  0  0  0  0  0
  144.0025   70.9462  219.4516 H   0  0  0  0  0  0  0  0  0  0  0  0
  144.1954   71.4016  221.1954 H   0  0  0  0  0  0  0  0  0  0  0  0
  138.9916   70.3419  221.9596 H   0  0  0  0  0  0  0  0  0  0  0  0
  140.2560   69.2151  222.5858 H   0  0  0  0  0  0  0  0  0  0  0  0
  137.8334   70.2865  224.1107 H   0  0  0  0  0  0  0  0  0  0  0  0
  138.0984   68.6012  223.5323 H   0  0  0  0  0  0  0  0  0  0  0  0
  138.0362   67.5216  225.6920 H   0  0  0  0  0  0  0  0  0  0  0  0
  139.2427   67.0205  227.8161 H   0  0  0  0  0  0  0  0  0  0  0  0
  141.1839   68.4217  228.5141 H   0  0  0  0  0  0  0  0  0  0  0  0
  141.9261   70.3302  227.0875 H   0  0  0  0  0  0  0  0  0  0  0  0
  140.5064   72.0922  225.2373 H   0  0  0  0  0  0  0  0  0  0  0  0
  141.9526   71.1290  224.6669 H   0  0  0  0  0  0  0  0  0  0  0  0
  1  2  1  0
  2  3  2  0
  3  4  1  0
  4  5  1  0
  5  6  1  0
  6  7  1  0
  7  8  1  0
  8  9  1  0
  9 10  1  0
  4 11  2  0
 11 12  1  0
 12 13  1  0
 13 14  1  0
 14 15  1  0
 15 16  1  0
 16 17  2  0
 17 18  1  0
 18 19  2  0
 19 20  1  0
 20 21  2  0
 21 22  1  0
 12 23  2  0
 23  2  1  0
 10  5  1  0
 22 13  1  0
 21 16  1  0
  6 24  1  0
  6 25  1  0
  7 26  1  0
  7 27  1  0
  8 28  1  0
  9 29  1  0
  9 30  1  0
 10 31  1  0
 10 32  1  0
 14 33  1  0
 14 34  1  0
 15 35  1  0
 15 36  1  0
 17 37  1  0
 18 38  1  0
 19 39  1  0
 20 40  1  0
 22 41  1  0
 22 42  1  0
M  CHG  1   1  -1
M  END
>  <UniqueID>  (69) 
704

>  <SMILES>  (69) 
[O-]c1nc(N2CCNCC2)nc(N2CCc3ccccc3C2)n1

>  <Energy>  (69) 
52.14116509113121

>  <Genealogy>  (69) 
[O-]c1nc(N2CCNCC2)nc(N2CCc3ccccc3C2)n1 (protonated)
[O-]c1nc(N2CCNCC2)nc(N2CCc3ccccc3C2)n1 (3D coordinates assigned)
[O-]c1nc(N2CCNCC2)nc(N2CCc3ccccc3C2)n1 (nonaromatic ring conformer: 52.14116509113121 kcal/mol)

>  <smiles>  (69) 
Oc1nc(N2CCNCC2)nc(N2CCc3ccccc3C2)n1

>  <score_type>  (69) 
oracle

>  <origin>  (69) 
autodockgpu

>  <m_score__min__energy>  (69) 
-7.2599999999999998

>  <m_primary>  (69) 
energy

>  <meeko>  (69) 
{"free_energy": -7.23, "intermolecular_energy": -7.83, "internal_energy": -0.57, "cluster_size": 19, "cluster_id": 1, "rank_in_cluster": 17}

>  <energy>  (69) 
-7.25

>  <cluster_rmsd>  (69) 
0.03

>  <rmsd>  (69) 
271.98

>  <cluster>  (69) 
1

$$$$
VOQKIUCZPHIEKY-MWDOZMLPNA-M
     RDKit          3D

 42 45  0  0  0  0  0  0  0  0999 V2000
  139.4730   75.4500  221.4400 O   0  0  0  0  0  0  0  0  0  0  0  0
  140.2770   74.3290  221.5940 C   0  0  0  0  0  0  0  0  0  0  0  0
  141.4420   74.2320  220.9080 N   0  0  0  0  0  0  0  0  0  0  0  0
  142.2370   73.1380  221.0530 C   0  0  0  0  0  0  0  0  0  0  0  0
  143.4750   73.0370  220.3200 N   0  0  0  0  0  0  0  0  0  0  0  0
  144.6670   73.7290  220.8280 C   0  0  0  0  0  0  0  0  0  0  0  0
  145.8710   73.4960  219.9130 C   0  0  0  0  0  0  0  0  0  0  0  0
  145.9670   72.0780  219.5550 N   0  0  0  0  0  0  0  0  0  0  0  0
  144.8090   71.6080  218.7690 C   0  0  0  0  0  0  0  0  0  0  0  0
  143.5140   72.4230  218.9840 C   0  0  0  0  0  0  0  0  0  0  0  0
  141.8470   72.1420  221.8920 N   0  0  0  0  0  0  0  0  0  0  0  0
  140.6790   72.2300  222.5840 C   0  0  0  0  0  0  0  0  0  0  0  0
  140.2750   71.1700  223.4770 N   0  0  0  0  0  0  0  0  0  0  0  0
  139.4530   70.0580  222.9740 C   0  0  0  0  0  0  0  0  0  0  0  0
  138.5050   69.5530  224.0570 C   0  0  0  0  0  0  0  0  0  0  0  0
  139.2780   69.1900  225.2890 C   0  0  0  0  0  0  0  0  0  0  0  0
  138.8530   68.1300  226.1060 C   0  0  0  0  0  0  0  0  0  0  0  0
  139.5570   67.8150  227.2710 C   0  0  0  0  0  0  0  0  0  0  0  0
  140.6780   68.5630  227.6350 C   0  0  0  0  0  0  0  0  0  0  0  0
  141.0970   69.6310  226.8360 C   0  0  0  0  0  0  0  0  0  0  0  0
  140.4050   69.9500  225.6570 C   0  0  0  0  0  0  0  0  0  0  0  0
  140.8470   71.1400  224.8370 C   0  0  0  0  0  0  0  0  0  0  0  0
  139.8980   73.3310  222.4290 N   0  0  0  0  0  0  0  0  0  0  0  0
  144.4603   74.8080  220.8820 H   0  0  0  0  0  0  0  0  0  0  0  0
  144.9039   73.3303  221.8255 H   0  0  0  0  0  0  0  0  0  0  0  0
  145.7532   74.0948  218.9978 H   0  0  0  0  0  0  0  0  0  0  0  0
  146.7876   73.7957  220.4421 H   0  0  0  0  0  0  0  0  0  0  0  0
  146.0280   71.5160  220.4370 H   0  0  0  0  0  0  0  0  0  0  0  0
  145.0741   71.6595  217.7027 H   0  0  0  0  0  0  0  0  0  0  0  0
  144.5943   70.5846  219.1105 H   0  0  0  0  0  0  0  0  0  0  0  0
  143.4621   73.2172  218.2247 H   0  0  0  0  0  0  0  0  0  0  0  0
  142.6581   71.7377  218.8957 H   0  0  0  0  0  0  0  0  0  0  0  0
  138.8640   70.4057  222.1125 H   0  0  0  0  0  0  0  0  0  0  0  0
  140.1182   69.2344  222.6753 H   0  0  0  0  0  0  0  0  0  0  0  0
  137.7791   70.3423  224.3022 H   0  0  0  0  0  0  0  0  0  0  0  0
  137.9774   68.6615  223.6870 H   0  0  0  0  0  0  0  0  0  0  0  0
  137.9633   67.5460  225.8280 H   0  0  0  0  0  0  0  0  0  0  0  0
  139.2275   66.9765  227.9022 H   0  0  0  0  0  0  0  0  0  0  0  0
  141.2322   68.3119  228.5514 H   0  0  0  0  0  0  0  0  0  0  0  0
  141.9741   70.2248  227.1329 H   0  0  0  0  0  0  0  0  0  0  0  0
  140.5409   72.0566  225.3626 H   0  0  0  0  0  0  0  0  0  0  0  0
  141.9386   71.0646  224.7245 H   0  0  0  0  0  0  0  0  0  0  0  0
  1  2  1  0
  2  3  2  0
  3  4  1  0
  4  5  1  0
  5  6  1  0
  6  7  1  0
  7  8  1  0
  8  9  1  0
  9 10  1  0
  4 11  2  0
 11 12  1  0
 12 13  1  0
 13 14  1  0
 14 15  1  0
 15 16  1  0
 16 17  2  0
 17 18  1  0
 18 19  2  0
 19 20  1  0
 20 21  2  0
 21 22  1  0
 12 23  2  0
 23  2  1  0
 10  5  1  0
 22 13  1  0
 21 16  1  0
  6 24  1  0
  6 25  1  0
  7 26  1  0
  7 27  1  0
  8 28  1  0
  9 29  1  0
  9 30  1  0
 10 31  1  0
 10 32  1  0
 14 33  1  0
 14 34  1  0
 15 35  1  0
 15 36  1  0
 17 37  1  0
 18 38  1  0
 19 39  1  0
 20 40  1  0
 22 41  1  0
 22 42  1  0
M  CHG  1   1  -1
M  END
>  <UniqueID>  (70) 
704

>  <SMILES>  (70) 
[O-]c1nc(N2CCNCC2)nc(N2CCc3ccccc3C2)n1

>  <Energy>  (70) 
52.14116509113121

>  <Genealogy>  (70) 
[O-]c1nc(N2CCNCC2)nc(N2CCc3ccccc3C2)n1 (protonated)
[O-]c1nc(N2CCNCC2)nc(N2CCc3ccccc3C2)n1 (3D coordinates assigned)
[O-]c1nc(N2CCNCC2)nc(N2CCc3ccccc3C2)n1 (nonaromatic ring conformer: 52.14116509113121 kcal/mol)

>  <smiles>  (70) 
Oc1nc(N2CCNCC2)nc(N2CCc3ccccc3C2)n1

>  <score_type>  (70) 
oracle

>  <origin>  (70) 
autodockgpu

>  <m_score__min__energy>  (70) 
-7.2599999999999998

>  <m_primary>  (70) 
energy

>  <meeko>  (70) 
{"free_energy": -7.25, "intermolecular_energy": -7.85, "internal_energy": -0.56, "cluster_size": 19, "cluster_id": 1, "rank_in_cluster": 7}

>  <energy>  (70) 
-7.24

>  <cluster_rmsd>  (70) 
0.92

>  <rmsd>  (70) 
271.9

>  <cluster>  (70) 
1

$$$$
VOQKIUCZPHIEKY-MWDOZMLPNA-M
     RDKit          3D

 42 45  0  0  0  0  0  0  0  0999 V2000
  139.4590   75.4340  221.4280 O   0  0  0  0  0  0  0  0  0  0  0  0
  140.2650   74.3140  221.5800 C   0  0  0  0  0  0  0  0  0  0  0  0
  141.4320   74.2210  220.8960 N   0  0  0  0  0  0  0  0  0  0  0  0
  142.2270   73.1270  221.0400 C   0  0  0  0  0  0  0  0  0  0  0  0
  143.4680   73.0310  220.3100 N   0  0  0  0  0  0  0  0  0  0  0  0
  144.6580   73.7240  220.8230 C   0  0  0  0  0  0  0  0  0  0  0  0
  145.8650   73.4950  219.9100 C   0  0  0  0  0  0  0  0  0  0  0  0
  145.9640   72.0780  219.5480 N   0  0  0  0  0  0  0  0  0  0  0  0
  144.8090   71.6090  218.7570 C   0  0  0  0  0  0  0  0  0  0  0  0
  143.5110   72.4210  218.9720 C   0  0  0  0  0  0  0  0  0  0  0  0
  141.8370   72.1280  221.8740 N   0  0  0  0  0  0  0  0  0  0  0  0
  140.6670   72.2110  222.5630 C   0  0  0  0  0  0  0  0  0  0  0  0
  140.2630   71.1480  223.4520 N   0  0  0  0  0  0  0  0  0  0  0  0
  139.4470   70.0340  222.9410 C   0  0  0  0  0  0  0  0  0  0  0  0
  138.4960   69.5230  224.0180 C   0  0  0  0  0  0  0  0  0  0  0  0
  139.2630   69.1590  225.2530 C   0  0  0  0  0  0  0  0  0  0  0  0
  138.8380   68.0950  226.0650 C   0  0  0  0  0  0  0  0  0  0  0  0
  139.5370   67.7800  227.2320 C   0  0  0  0  0  0  0  0  0  0  0  0
  140.6540   68.5300  227.6040 C   0  0  0  0  0  0  0  0  0  0  0  0
  141.0730   69.6020  226.8100 C   0  0  0  0  0  0  0  0  0  0  0  0
  140.3850   69.9220  225.6290 C   0  0  0  0  0  0  0  0  0  0  0  0
  140.8280   71.1160  224.8140 C   0  0  0  0  0  0  0  0  0  0  0  0
  139.8850   73.3120  222.4100 N   0  0  0  0  0  0  0  0  0  0  0  0
  144.4494   74.8026  220.8791 H   0  0  0  0  0  0  0  0  0  0  0  0
  144.8930   73.3234  221.8202 H   0  0  0  0  0  0  0  0  0  0  0  0
  145.7487   74.0962  218.9962 H   0  0  0  0  0  0  0  0  0  0  0  0
  146.7798   73.7943  220.4425 H   0  0  0  0  0  0  0  0  0  0  0  0
  146.0230   71.5130  220.4280 H   0  0  0  0  0  0  0  0  0  0  0  0
  145.0768   71.6655  217.6916 H   0  0  0  0  0  0  0  0  0  0  0  0
  144.5955   70.5838  219.0937 H   0  0  0  0  0  0  0  0  0  0  0  0
  143.4588   73.2174  218.2150 H   0  0  0  0  0  0  0  0  0  0  0  0
  142.6568   71.7341  218.8799 H   0  0  0  0  0  0  0  0  0  0  0  0
  138.8610   70.3822  222.0777 H   0  0  0  0  0  0  0  0  0  0  0  0
  140.1163   69.2137  222.6426 H   0  0  0  0  0  0  0  0  0  0  0  0
  137.7663   70.3093  224.2616 H   0  0  0  0  0  0  0  0  0  0  0  0
  137.9739   68.6305  223.6428 H   0  0  0  0  0  0  0  0  0  0  0  0
  137.9520   67.5081  225.7809 H   0  0  0  0  0  0  0  0  0  0  0  0
  139.2068   66.9391  227.8595 H   0  0  0  0  0  0  0  0  0  0  0  0
  141.2048   68.2776  228.5221 H   0  0  0  0  0  0  0  0  0  0  0  0
  141.9467   70.1979  227.1125 H   0  0  0  0  0  0  0  0  0  0  0  0
  140.5168   72.0303  225.3404 H   0  0  0  0  0  0  0  0  0  0  0  0
  141.9204   71.0440  224.7068 H   0  0  0  0  0  0  0  0  0  0  0  0
  1  2  1  0
  2  3  2  0
  3  4  1  0
  4  5  1  0
  5  6  1  0
  6  7  1  0
  7  8  1  0
  8  9  1  0
  9 10  1  0
  4 11  2  0
 11 12  1  0
 12 13  1  0
 13 14  1  0
 14 15  1  0
 15 16  1  0
 16 17  2  0
 17 18  1  0
 18 19  2  0
 19 20  1  0
 20 21  2  0
 21 22  1  0
 12 23  2  0
 23  2  1  0
 10  5  1  0
 22 13  1  0
 21 16  1  0
  6 24  1  0
  6 25  1  0
  7 26  1  0
  7 27  1  0
  8 28  1  0
  9 29  1  0
  9 30  1  0
 10 31  1  0
 10 32  1  0
 14 33  1  0
 14 34  1  0
 15 35  1  0
 15 36  1  0
 17 37  1  0
 18 38  1  0
 19 39  1  0
 20 40  1  0
 22 41  1  0
 22 42  1  0
M  CHG  1   1  -1
M  END
>  <UniqueID>  (71) 
704

>  <SMILES>  (71) 
[O-]c1nc(N2CCNCC2)nc(N2CCc3ccccc3C2)n1

>  <Energy>  (71) 
52.14116509113121

>  <Genealogy>  (71) 
[O-]c1nc(N2CCNCC2)nc(N2CCc3ccccc3C2)n1 (protonated)
[O-]c1nc(N2CCNCC2)nc(N2CCc3ccccc3C2)n1 (3D coordinates assigned)
[O-]c1nc(N2CCNCC2)nc(N2CCc3ccccc3C2)n1 (nonaromatic ring conformer: 52.14116509113121 kcal/mol)

>  <smiles>  (71) 
Oc1nc(N2CCNCC2)nc(N2CCc3ccccc3C2)n1

>  <score_type>  (71) 
oracle

>  <origin>  (71) 
autodockgpu

>  <m_score__min__energy>  (71) 
-7.2599999999999998

>  <m_primary>  (71) 
energy

>  <meeko>  (71) 
{"free_energy": -7.25, "intermolecular_energy": -7.84, "internal_energy": -0.56, "cluster_size": 19, "cluster_id": 1, "rank_in_cluster": 9}

>  <energy>  (71) 
-7.24

>  <cluster_rmsd>  (71) 
0.91

>  <rmsd>  (71) 
271.91

>  <cluster>  (71) 
1

$$$$
VOQKIUCZPHIEKY-MWDOZMLPNA-M
     RDKit          3D

 42 45  0  0  0  0  0  0  0  0999 V2000
  139.4600   75.4710  221.4720 O   0  0  0  0  0  0  0  0  0  0  0  0
  140.2650   74.3490  221.6130 C   0  0  0  0  0  0  0  0  0  0  0  0
  141.4290   74.2590  220.9240 N   0  0  0  0  0  0  0  0  0  0  0  0
  142.2240   73.1640  221.0570 C   0  0  0  0  0  0  0  0  0  0  0  0
  143.4610   73.0700  220.3220 N   0  0  0  0  0  0  0  0  0  0  0  0
  144.6530   73.7600  220.8330 C   0  0  0  0  0  0  0  0  0  0  0  0
  145.8560   73.5360  219.9140 C   0  0  0  0  0  0  0  0  0  0  0  0
  145.9540   72.1200  219.5450 N   0  0  0  0  0  0  0  0  0  0  0  0
  144.7950   71.6550  218.7570 C   0  0  0  0  0  0  0  0  0  0  0  0
  143.4990   72.4670  218.9810 C   0  0  0  0  0  0  0  0  0  0  0  0
  141.8360   72.1600  221.8880 N   0  0  0  0  0  0  0  0  0  0  0  0
  140.6690   72.2400  222.5820 C   0  0  0  0  0  0  0  0  0  0  0  0
  140.2670   71.1720  223.4660 N   0  0  0  0  0  0  0  0  0  0  0  0
  139.4460   70.0630  222.9520 C   0  0  0  0  0  0  0  0  0  0  0  0
  138.5000   69.5480  224.0310 C   0  0  0  0  0  0  0  0  0  0  0  0
  139.2730   69.1740  225.2600 C   0  0  0  0  0  0  0  0  0  0  0  0
  138.8500   68.1060  226.0670 C   0  0  0  0  0  0  0  0  0  0  0  0
  139.5540   67.7810  227.2280 C   0  0  0  0  0  0  0  0  0  0  0  0
  140.6750   68.5270  227.5990 C   0  0  0  0  0  0  0  0  0  0  0  0
  141.0920   69.6040  226.8100 C   0  0  0  0  0  0  0  0  0  0  0  0
  140.3990   69.9320  225.6340 C   0  0  0  0  0  0  0  0  0  0  0  0
  140.8390   71.1300  224.8250 C   0  0  0  0  0  0  0  0  0  0  0  0
  139.8870   73.3430  222.4390 N   0  0  0  0  0  0  0  0  0  0  0  0
  144.4447   74.8383  220.8956 H   0  0  0  0  0  0  0  0  0  0  0  0
  144.8924   73.3540  221.8269 H   0  0  0  0  0  0  0  0  0  0  0  0
  145.7355   74.1414  219.0035 H   0  0  0  0  0  0  0  0  0  0  0  0
  146.7730   73.8334  220.4438 H   0  0  0  0  0  0  0  0  0  0  0  0
  146.0160   71.5510  220.4220 H   0  0  0  0  0  0  0  0  0  0  0  0
  145.0582   71.7156  217.6907 H   0  0  0  0  0  0  0  0  0  0  0  0
  144.5821   70.6286  219.0904 H   0  0  0  0  0  0  0  0  0  0  0  0
  143.4450   73.2674  218.2284 H   0  0  0  0  0  0  0  0  0  0  0  0
  142.6439   71.7813  218.8885 H   0  0  0  0  0  0  0  0  0  0  0  0
  138.8562   70.4179  222.0940 H   0  0  0  0  0  0  0  0  0  0  0  0
  140.1117   69.2431  222.6444 H   0  0  0  0  0  0  0  0  0  0  0  0
  137.7738   70.3347  224.2836 H   0  0  0  0  0  0  0  0  0  0  0  0
  137.9735   68.6592  223.6531 H   0  0  0  0  0  0  0  0  0  0  0  0
  137.9610   67.5234  225.7837 H   0  0  0  0  0  0  0  0  0  0  0  0
  139.2254   66.9363  227.8513 H   0  0  0  0  0  0  0  0  0  0  0  0
  141.2303   68.2673  228.5123 H   0  0  0  0  0  0  0  0  0  0  0  0
  141.9676   70.1971  227.1126 H   0  0  0  0  0  0  0  0  0  0  0  0
  140.5318   72.0412  225.3591 H   0  0  0  0  0  0  0  0  0  0  0  0
  141.9307   71.0571  224.7115 H   0  0  0  0  0  0  0  0  0  0  0  0
  1  2  1  0
  2  3  2  0
  3  4  1  0
  4  5  1  0
  5  6  1  0
  6  7  1  0
  7  8  1  0
  8  9  1  0
  9 10  1  0
  4 11  2  0
 11 12  1  0
 12 13  1  0
 13 14  1  0
 14 15  1  0
 15 16  1  0
 16 17  2  0
 17 18  1  0
 18 19  2  0
 19 20  1  0
 20 21  2  0
 21 22  1  0
 12 23  2  0
 23  2  1  0
 10  5  1  0
 22 13  1  0
 21 16  1  0
  6 24  1  0
  6 25  1  0
  7 26  1  0
  7 27  1  0
  8 28  1  0
  9 29  1  0
  9 30  1  0
 10 31  1  0
 10 32  1  0
 14 33  1  0
 14 34  1  0
 15 35  1  0
 15 36  1  0
 17 37  1  0
 18 38  1  0
 19 39  1  0
 20 40  1  0
 22 41  1  0
 22 42  1  0
M  CHG  1   1  -1
M  END
>  <UniqueID>  (72) 
704

>  <SMILES>  (72) 
[O-]c1nc(N2CCNCC2)nc(N2CCc3ccccc3C2)n1

>  <Energy>  (72) 
52.14116509113121

>  <Genealogy>  (72) 
[O-]c1nc(N2CCNCC2)nc(N2CCc3ccccc3C2)n1 (protonated)
[O-]c1nc(N2CCNCC2)nc(N2CCc3ccccc3C2)n1 (3D coordinates assigned)
[O-]c1nc(N2CCNCC2)nc(N2CCc3ccccc3C2)n1 (nonaromatic ring conformer: 52.14116509113121 kcal/mol)

>  <smiles>  (72) 
Oc1nc(N2CCNCC2)nc(N2CCc3ccccc3C2)n1

>  <score_type>  (72) 
oracle

>  <origin>  (72) 
autodockgpu

>  <m_score__min__energy>  (72) 
-7.2599999999999998

>  <m_primary>  (72) 
energy

>  <meeko>  (72) 
{"free_energy": -7.25, "intermolecular_energy": -7.85, "internal_energy": -0.56, "cluster_size": 19, "cluster_id": 1, "rank_in_cluster": 6}

>  <energy>  (72) 
-7.24

>  <cluster_rmsd>  (72) 
0.92

>  <rmsd>  (72) 
271.91

>  <cluster>  (72) 
1

$$$$
VOQKIUCZPHIEKY-MWDOZMLPNA-M
     RDKit          3D

 42 45  0  0  0  0  0  0  0  0999 V2000
  139.7090   75.5870  221.5350 O   0  0  0  0  0  0  0  0  0  0  0  0
  140.4310   74.4020  221.5870 C   0  0  0  0  0  0  0  0  0  0  0  0
  141.5220   74.2370  220.7990 N   0  0  0  0  0  0  0  0  0  0  0  0
  142.2340   73.0800  220.8450 C   0  0  0  0  0  0  0  0  0  0  0  0
  143.3930   72.9070  220.0030 N   0  0  0  0  0  0  0  0  0  0  0  0
  143.5120   73.7040  218.7750 C   0  0  0  0  0  0  0  0  0  0  0  0
  144.8080   73.3740  218.0280 C   0  0  0  0  0  0  0  0  0  0  0  0
  145.9340   73.3330  218.9650 N   0  0  0  0  0  0  0  0  0  0  0  0
  145.8030   72.2590  219.9690 C   0  0  0  0  0  0  0  0  0  0  0  0
  144.3490   71.8160  220.2490 C   0  0  0  0  0  0  0  0  0  0  0  0
  141.8380   72.0900  221.6890 N   0  0  0  0  0  0  0  0  0  0  0  0
  140.7450   72.2460  222.4820 C   0  0  0  0  0  0  0  0  0  0  0  0
  140.3350   71.1920  223.3790 N   0  0  0  0  0  0  0  0  0  0  0  0
  139.5510   70.0550  222.8680 C   0  0  0  0  0  0  0  0  0  0  0  0
  138.5800   69.5480  223.9290 C   0  0  0  0  0  0  0  0  0  0  0  0
  139.3210   69.2190  225.1900 C   0  0  0  0  0  0  0  0  0  0  0  0
  138.8920   68.1630  226.0100 C   0  0  0  0  0  0  0  0  0  0  0  0
  139.5660   67.8800  227.2010 C   0  0  0  0  0  0  0  0  0  0  0  0
  140.6600   68.6560  227.5880 C   0  0  0  0  0  0  0  0  0  0  0  0
  141.0820   69.7210  226.7850 C   0  0  0  0  0  0  0  0  0  0  0  0
  140.4210   70.0080  225.5810 C   0  0  0  0  0  0  0  0  0  0  0  0
  140.8640   71.1940  224.7560 C   0  0  0  0  0  0  0  0  0  0  0  0
  140.0450   73.4100  222.4260 N   0  0  0  0  0  0  0  0  0  0  0  0
  142.6548   73.4866  218.1209 H   0  0  0  0  0  0  0  0  0  0  0  0
  143.5279   74.7691  219.0494 H   0  0  0  0  0  0  0  0  0  0  0  0
  144.7063   72.3941  217.5387 H   0  0  0  0  0  0  0  0  0  0  0  0
  144.9962   74.1520  217.2735 H   0  0  0  0  0  0  0  0  0  0  0  0
  145.9880   74.2550  219.4620 H   0  0  0  0  0  0  0  0  0  0  0  0
  146.3657   71.3841  219.6114 H   0  0  0  0  0  0  0  0  0  0  0  0
  146.1933   72.6652  220.9138 H   0  0  0  0  0  0  0  0  0  0  0  0
  144.1011   70.9693  219.5920 H   0  0  0  0  0  0  0  0  0  0  0  0
  144.2755   71.5266  221.3077 H   0  0  0  0  0  0  0  0  0  0  0  0
  138.9826   70.3773  221.9831 H   0  0  0  0  0  0  0  0  0  0  0  0
  140.2414   69.2406  222.6031 H   0  0  0  0  0  0  0  0  0  0  0  0
  137.8317   70.3264  224.1392 H   0  0  0  0  0  0  0  0  0  0  0  0
  138.0816   68.6407  223.5570 H   0  0  0  0  0  0  0  0  0  0  0  0
  138.0231   67.5569  225.7141 H   0  0  0  0  0  0  0  0  0  0  0  0
  139.2339   67.0444  227.8346 H   0  0  0  0  0  0  0  0  0  0  0  0
  141.1905   68.4300  228.5247 H   0  0  0  0  0  0  0  0  0  0  0  0
  141.9372   70.3372  227.0994 H   0  0  0  0  0  0  0  0  0  0  0  0
  140.5231   72.1119  225.2572 H   0  0  0  0  0  0  0  0  0  0  0  0
  141.9599   71.1390  224.6784 H   0  0  0  0  0  0  0  0  0  0  0  0
  1  2  1  0
  2  3  2  0
  3  4  1  0
  4  5  1  0
  5  6  1  0
  6  7  1  0
  7  8  1  0
  8  9  1  0
  9 10  1  0
  4 11  2  0
 11 12  1  0
 12 13  1  0
 13 14  1  0
 14 15  1  0
 15 16  1  0
 16 17  2  0
 17 18  1  0
 18 19  2  0
 19 20  1  0
 20 21  2  0
 21 22  1  0
 12 23  2  0
 23  2  1  0
 10  5  1  0
 22 13  1  0
 21 16  1  0
  6 24  1  0
  6 25  1  0
  7 26  1  0
  7 27  1  0
  8 28  1  0
  9 29  1  0
  9 30  1  0
 10 31  1  0
 10 32  1  0
 14 33  1  0
 14 34  1  0
 15 35  1  0
 15 36  1  0
 17 37  1  0
 18 38  1  0
 19 39  1  0
 20 40  1  0
 22 41  1  0
 22 42  1  0
M  CHG  1   1  -1
M  END
>  <UniqueID>  (73) 
704

>  <SMILES>  (73) 
[O-]c1nc(N2CCNCC2)nc(N2CCc3ccccc3C2)n1

>  <Energy>  (73) 
52.14116509113121

>  <Genealogy>  (73) 
[O-]c1nc(N2CCNCC2)nc(N2CCc3ccccc3C2)n1 (protonated)
[O-]c1nc(N2CCNCC2)nc(N2CCc3ccccc3C2)n1 (3D coordinates assigned)
[O-]c1nc(N2CCNCC2)nc(N2CCc3ccccc3C2)n1 (nonaromatic ring conformer: 52.14116509113121 kcal/mol)

>  <smiles>  (73) 
Oc1nc(N2CCNCC2)nc(N2CCc3ccccc3C2)n1

>  <score_type>  (73) 
oracle

>  <origin>  (73) 
autodockgpu

>  <m_score__min__energy>  (73) 
-7.2599999999999998

>  <m_primary>  (73) 
energy

>  <meeko>  (73) 
{"free_energy": -7.24, "intermolecular_energy": -7.84, "internal_energy": -0.57, "cluster_size": 19, "cluster_id": 1, "rank_in_cluster": 11}

>  <energy>  (73) 
-7.24

>  <cluster_rmsd>  (73) 
0.92

>  <rmsd>  (73) 
271.9

>  <cluster>  (73) 
1

$$$$
VOQKIUCZPHIEKY-MWDOZMLPNA-M
     RDKit          3D

 42 45  0  0  0  0  0  0  0  0999 V2000
  139.4570   75.4760  221.4420 O   0  0  0  0  0  0  0  0  0  0  0  0
  140.2630   74.3560  221.5930 C   0  0  0  0  0  0  0  0  0  0  0  0
  141.4320   74.2640  220.9120 N   0  0  0  0  0  0  0  0  0  0  0  0
  142.2270   73.1700  221.0550 C   0  0  0  0  0  0  0  0  0  0  0  0
  143.4690   73.0740  220.3270 N   0  0  0  0  0  0  0  0  0  0  0  0
  144.6600   73.7580  220.8490 C   0  0  0  0  0  0  0  0  0  0  0  0
  145.8680   73.5330  219.9370 C   0  0  0  0  0  0  0  0  0  0  0  0
  145.9630   72.1190  219.5630 N   0  0  0  0  0  0  0  0  0  0  0  0
  144.8070   71.6610  218.7660 C   0  0  0  0  0  0  0  0  0  0  0  0
  143.5130   72.4760  218.9840 C   0  0  0  0  0  0  0  0  0  0  0  0
  141.8350   72.1700  221.8880 N   0  0  0  0  0  0  0  0  0  0  0  0
  140.6640   72.2520  222.5750 C   0  0  0  0  0  0  0  0  0  0  0  0
  140.2580   71.1870  223.4620 N   0  0  0  0  0  0  0  0  0  0  0  0
  139.4100   70.0950  222.9580 C   0  0  0  0  0  0  0  0  0  0  0  0
  138.4730   69.5920  224.0500 C   0  0  0  0  0  0  0  0  0  0  0  0
  139.2600   69.2000  225.2650 C   0  0  0  0  0  0  0  0  0  0  0  0
  138.8320   68.1360  226.0750 C   0  0  0  0  0  0  0  0  0  0  0  0
  139.5500   67.7950  227.2230 C   0  0  0  0  0  0  0  0  0  0  0  0
  140.6890   68.5200  227.5780 C   0  0  0  0  0  0  0  0  0  0  0  0
  141.1120   69.5920  226.7860 C   0  0  0  0  0  0  0  0  0  0  0  0
  140.4050   69.9370  225.6230 C   0  0  0  0  0  0  0  0  0  0  0  0
  140.8520   71.1300  224.8110 C   0  0  0  0  0  0  0  0  0  0  0  0
  139.8820   73.3530  222.4220 N   0  0  0  0  0  0  0  0  0  0  0  0
  144.4551   74.8368  220.9144 H   0  0  0  0  0  0  0  0  0  0  0  0
  144.8912   73.3477  221.8431 H   0  0  0  0  0  0  0  0  0  0  0  0
  145.7558   74.1425  219.0282 H   0  0  0  0  0  0  0  0  0  0  0  0
  146.7826   73.8246  220.4740 H   0  0  0  0  0  0  0  0  0  0  0  0
  146.0170   71.5460  220.4390 H   0  0  0  0  0  0  0  0  0  0  0  0
  145.0773   71.7243  217.7016 H   0  0  0  0  0  0  0  0  0  0  0  0
  144.5883   70.6344  219.0950 H   0  0  0  0  0  0  0  0  0  0  0  0
  143.4665   73.2793  218.2339 H   0  0  0  0  0  0  0  0  0  0  0  0
  142.6559   71.7939  218.8831 H   0  0  0  0  0  0  0  0  0  0  0  0
  138.8125   70.4634  222.1111 H   0  0  0  0  0  0  0  0  0  0  0  0
  140.0564   69.2649  222.6369 H   0  0  0  0  0  0  0  0  0  0  0  0
  137.7646   70.3899  224.3174 H   0  0  0  0  0  0  0  0  0  0  0  0
  137.9251   68.7139  223.6775 H   0  0  0  0  0  0  0  0  0  0  0  0
  137.9287   67.5696  225.8045 H   0  0  0  0  0  0  0  0  0  0  0  0
  139.2176   66.9536  227.8488 H   0  0  0  0  0  0  0  0  0  0  0  0
  141.2542   68.2477  228.4816 H   0  0  0  0  0  0  0  0  0  0  0  0
  142.0033   70.1680  227.0756 H   0  0  0  0  0  0  0  0  0  0  0  0
  140.5697   72.0444  225.3534 H   0  0  0  0  0  0  0  0  0  0  0  0
  141.9402   71.0386  224.6788 H   0  0  0  0  0  0  0  0  0  0  0  0
  1  2  1  0
  2  3  2  0
  3  4  1  0
  4  5  1  0
  5  6  1  0
  6  7  1  0
  7  8  1  0
  8  9  1  0
  9 10  1  0
  4 11  2  0
 11 12  1  0
 12 13  1  0
 13 14  1  0
 14 15  1  0
 15 16  1  0
 16 17  2  0
 17 18  1  0
 18 19  2  0
 19 20  1  0
 20 21  2  0
 21 22  1  0
 12 23  2  0
 23  2  1  0
 10  5  1  0
 22 13  1  0
 21 16  1  0
  6 24  1  0
  6 25  1  0
  7 26  1  0
  7 27  1  0
  8 28  1  0
  9 29  1  0
  9 30  1  0
 10 31  1  0
 10 32  1  0
 14 33  1  0
 14 34  1  0
 15 35  1  0
 15 36  1  0
 17 37  1  0
 18 38  1  0
 19 39  1  0
 20 40  1  0
 22 41  1  0
 22 42  1  0
M  CHG  1   1  -1
M  END
>  <UniqueID>  (74) 
704

>  <SMILES>  (74) 
[O-]c1nc(N2CCNCC2)nc(N2CCc3ccccc3C2)n1

>  <Energy>  (74) 
52.14116509113121

>  <Genealogy>  (74) 
[O-]c1nc(N2CCNCC2)nc(N2CCc3ccccc3C2)n1 (protonated)
[O-]c1nc(N2CCNCC2)nc(N2CCc3ccccc3C2)n1 (3D coordinates assigned)
[O-]c1nc(N2CCNCC2)nc(N2CCc3ccccc3C2)n1 (nonaromatic ring conformer: 52.14116509113121 kcal/mol)

>  <smiles>  (74) 
Oc1nc(N2CCNCC2)nc(N2CCc3ccccc3C2)n1

>  <score_type>  (74) 
oracle

>  <origin>  (74) 
autodockgpu

>  <m_score__min__energy>  (74) 
-7.2599999999999998

>  <m_primary>  (74) 
energy

>  <meeko>  (74) 
{"free_energy": -7.26, "intermolecular_energy": -7.85, "internal_energy": -0.56, "cluster_size": 19, "cluster_id": 1, "rank_in_cluster": 2}

>  <energy>  (74) 
-7.24

>  <cluster_rmsd>  (74) 
0.91

>  <rmsd>  (74) 
271.86

>  <cluster>  (74) 
1

$$$$
VOQKIUCZPHIEKY-MWDOZMLPNA-M
     RDKit          3D

 42 45  0  0  0  0  0  0  0  0999 V2000
  139.4500   75.4710  221.4530 O   0  0  0  0  0  0  0  0  0  0  0  0
  140.2570   74.3520  221.6030 C   0  0  0  0  0  0  0  0  0  0  0  0
  141.4240   74.2600  220.9190 N   0  0  0  0  0  0  0  0  0  0  0  0
  142.2200   73.1680  221.0610 C   0  0  0  0  0  0  0  0  0  0  0  0
  143.4600   73.0730  220.3300 N   0  0  0  0  0  0  0  0  0  0  0  0
  144.6500   73.7660  220.8420 C   0  0  0  0  0  0  0  0  0  0  0  0
  145.8560   73.5400  219.9280 C   0  0  0  0  0  0  0  0  0  0  0  0
  145.9560   72.1230  219.5640 N   0  0  0  0  0  0  0  0  0  0  0  0
  144.8010   71.6540  218.7750 C   0  0  0  0  0  0  0  0  0  0  0  0
  143.5030   72.4640  218.9910 C   0  0  0  0  0  0  0  0  0  0  0  0
  141.8320   72.1680  221.8960 N   0  0  0  0  0  0  0  0  0  0  0  0
  140.6630   72.2490  222.5860 C   0  0  0  0  0  0  0  0  0  0  0  0
  140.2610   71.1860  223.4750 N   0  0  0  0  0  0  0  0  0  0  0  0
  139.4360   70.0760  222.9670 C   0  0  0  0  0  0  0  0  0  0  0  0
  138.4910   69.5670  224.0500 C   0  0  0  0  0  0  0  0  0  0  0  0
  139.2660   69.1960  225.2790 C   0  0  0  0  0  0  0  0  0  0  0  0
  138.8430   68.1320  226.0910 C   0  0  0  0  0  0  0  0  0  0  0  0
  139.5500   67.8110  227.2520 C   0  0  0  0  0  0  0  0  0  0  0  0
  140.6730   68.5560  227.6170 C   0  0  0  0  0  0  0  0  0  0  0  0
  141.0900   69.6280  226.8230 C   0  0  0  0  0  0  0  0  0  0  0  0
  140.3950   69.9540  225.6480 C   0  0  0  0  0  0  0  0  0  0  0  0
  140.8360   71.1480  224.8330 C   0  0  0  0  0  0  0  0  0  0  0  0
  139.8790   73.3490  222.4340 N   0  0  0  0  0  0  0  0  0  0  0  0
  144.4404   74.8443  220.9000 H   0  0  0  0  0  0  0  0  0  0  0  0
  144.8867   73.3636  221.8380 H   0  0  0  0  0  0  0  0  0  0  0  0
  145.7382   74.1424  219.0152 H   0  0  0  0  0  0  0  0  0  0  0  0
  146.7710   73.8398  220.4598 H   0  0  0  0  0  0  0  0  0  0  0  0
  146.0170   71.5580  220.4450 H   0  0  0  0  0  0  0  0  0  0  0  0
  145.0676   71.7109  217.7093 H   0  0  0  0  0  0  0  0  0  0  0  0
  144.5885   70.6288  219.1124 H   0  0  0  0  0  0  0  0  0  0  0  0
  143.4497   73.2609  218.2347 H   0  0  0  0  0  0  0  0  0  0  0  0
  142.6494   71.7764  218.8986 H   0  0  0  0  0  0  0  0  0  0  0  0
  138.8451   70.4287  222.1088 H   0  0  0  0  0  0  0  0  0  0  0  0
  140.0994   69.2535  222.6615 H   0  0  0  0  0  0  0  0  0  0  0  0
  137.7670   70.3562  224.3011 H   0  0  0  0  0  0  0  0  0  0  0  0
  137.9618   68.6779  223.6766 H   0  0  0  0  0  0  0  0  0  0  0  0
  137.9525   67.5496  225.8123 H   0  0  0  0  0  0  0  0  0  0  0  0
  139.2215   66.9697  227.8799 H   0  0  0  0  0  0  0  0  0  0  0  0
  141.2300   68.2991  228.5301 H   0  0  0  0  0  0  0  0  0  0  0  0
  141.9682   70.2197  227.1208 H   0  0  0  0  0  0  0  0  0  0  0  0
  140.5321   72.0620  225.3642 H   0  0  0  0  0  0  0  0  0  0  0  0
  141.9273   71.0720  224.7173 H   0  0  0  0  0  0  0  0  0  0  0  0
  1  2  1  0
  2  3  2  0
  3  4  1  0
  4  5  1  0
  5  6  1  0
  6  7  1  0
  7  8  1  0
  8  9  1  0
  9 10  1  0
  4 11  2  0
 11 12  1  0
 12 13  1  0
 13 14  1  0
 14 15  1  0
 15 16  1  0
 16 17  2  0
 17 18  1  0
 18 19  2  0
 19 20  1  0
 20 21  2  0
 21 22  1  0
 12 23  2  0
 23  2  1  0
 10  5  1  0
 22 13  1  0
 21 16  1  0
  6 24  1  0
  6 25  1  0
  7 26  1  0
  7 27  1  0
  8 28  1  0
  9 29  1  0
  9 30  1  0
 10 31  1  0
 10 32  1  0
 14 33  1  0
 14 34  1  0
 15 35  1  0
 15 36  1  0
 17 37  1  0
 18 38  1  0
 19 39  1  0
 20 40  1  0
 22 41  1  0
 22 42  1  0
M  CHG  1   1  -1
M  END
>  <UniqueID>  (75) 
704

>  <SMILES>  (75) 
[O-]c1nc(N2CCNCC2)nc(N2CCc3ccccc3C2)n1

>  <Energy>  (75) 
52.14116509113121

>  <Genealogy>  (75) 
[O-]c1nc(N2CCNCC2)nc(N2CCc3ccccc3C2)n1 (protonated)
[O-]c1nc(N2CCNCC2)nc(N2CCc3ccccc3C2)n1 (3D coordinates assigned)
[O-]c1nc(N2CCNCC2)nc(N2CCc3ccccc3C2)n1 (nonaromatic ring conformer: 52.14116509113121 kcal/mol)

>  <smiles>  (75) 
Oc1nc(N2CCNCC2)nc(N2CCc3ccccc3C2)n1

>  <score_type>  (75) 
oracle

>  <origin>  (75) 
autodockgpu

>  <m_score__min__energy>  (75) 
-7.2599999999999998

>  <m_primary>  (75) 
energy

>  <meeko>  (75) 
{"free_energy": -7.26, "intermolecular_energy": -7.85, "internal_energy": -0.56, "cluster_size": 19, "cluster_id": 1, "rank_in_cluster": 3}

>  <energy>  (75) 
-7.24

>  <cluster_rmsd>  (75) 
0.91

>  <rmsd>  (75) 
271.86

>  <cluster>  (75) 
1

$$$$
VOQKIUCZPHIEKY-MWDOZMLPNA-M
     RDKit          3D

 42 45  0  0  0  0  0  0  0  0999 V2000
  139.7500   75.5900  221.5120 O   0  0  0  0  0  0  0  0  0  0  0  0
  140.4610   74.3980  221.5500 C   0  0  0  0  0  0  0  0  0  0  0  0
  141.5430   74.2290  220.7520 N   0  0  0  0  0  0  0  0  0  0  0  0
  142.2450   73.0650  220.7830 C   0  0  0  0  0  0  0  0  0  0  0  0
  143.3960   72.8870  219.9310 N   0  0  0  0  0  0  0  0  0  0  0  0
  143.5420   73.7320  218.7380 C   0  0  0  0  0  0  0  0  0  0  0  0
  144.8230   73.3900  217.9740 C   0  0  0  0  0  0  0  0  0  0  0  0
  145.9490   73.2670  218.9050 N   0  0  0  0  0  0  0  0  0  0  0  0
  145.7810   72.1550  219.8610 C   0  0  0  0  0  0  0  0  0  0  0  0
  144.3120   71.7540  220.1260 C   0  0  0  0  0  0  0  0  0  0  0  0
  141.8470   72.0730  221.6220 N   0  0  0  0  0  0  0  0  0  0  0  0
  140.7620   72.2320  222.4260 C   0  0  0  0  0  0  0  0  0  0  0  0
  140.3490   71.1750  223.3180 N   0  0  0  0  0  0  0  0  0  0  0  0
  139.5650   70.0410  222.8010 C   0  0  0  0  0  0  0  0  0  0  0  0
  138.5920   69.5310  223.8590 C   0  0  0  0  0  0  0  0  0  0  0  0
  139.3300   69.1960  225.1200 C   0  0  0  0  0  0  0  0  0  0  0  0
  138.8980   68.1380  225.9350 C   0  0  0  0  0  0  0  0  0  0  0  0
  139.5690   67.8500  227.1260 C   0  0  0  0  0  0  0  0  0  0  0  0
  140.6630   68.6240  227.5180 C   0  0  0  0  0  0  0  0  0  0  0  0
  141.0880   69.6910  226.7200 C   0  0  0  0  0  0  0  0  0  0  0  0
  140.4290   69.9830  225.5160 C   0  0  0  0  0  0  0  0  0  0  0  0
  140.8760   71.1720  224.6960 C   0  0  0  0  0  0  0  0  0  0  0  0
  140.0720   73.4030  222.3840 N   0  0  0  0  0  0  0  0  0  0  0  0
  142.6767   73.5737  218.0776 H   0  0  0  0  0  0  0  0  0  0  0  0
  143.5965   74.7828  219.0587 H   0  0  0  0  0  0  0  0  0  0  0  0
  144.6855   72.4372  217.4418 H   0  0  0  0  0  0  0  0  0  0  0  0
  145.0378   74.1938  217.2544 H   0  0  0  0  0  0  0  0  0  0  0  0
  146.0370   74.1640  219.4410 H   0  0  0  0  0  0  0  0  0  0  0  0
  146.3104   71.2768  219.4630 H   0  0  0  0  0  0  0  0  0  0  0  0
  146.1882   72.5039  220.8214 H   0  0  0  0  0  0  0  0  0  0  0  0
  144.0324   70.9462  219.4337 H   0  0  0  0  0  0  0  0  0  0  0  0
  144.2301   71.4226  221.1717 H   0  0  0  0  0  0  0  0  0  0  0  0
  138.9982   70.3673  221.9166 H   0  0  0  0  0  0  0  0  0  0  0  0
  140.2548   69.2270  222.5334 H   0  0  0  0  0  0  0  0  0  0  0  0
  137.8444   70.3096  224.0710 H   0  0  0  0  0  0  0  0  0  0  0  0
  138.0935   68.6255  223.4826 H   0  0  0  0  0  0  0  0  0  0  0  0
  138.0289   67.5341  225.6351 H   0  0  0  0  0  0  0  0  0  0  0  0
  139.2350   67.0123  227.7558 H   0  0  0  0  0  0  0  0  0  0  0  0
  141.1910   68.3943  228.4553 H   0  0  0  0  0  0  0  0  0  0  0  0
  141.9437   70.3048  227.0379 H   0  0  0  0  0  0  0  0  0  0  0  0
  140.5357   72.0887  225.1998 H   0  0  0  0  0  0  0  0  0  0  0  0
  141.9720   71.1161  224.6205 H   0  0  0  0  0  0  0  0  0  0  0  0
  1  2  1  0
  2  3  2  0
  3  4  1  0
  4  5  1  0
  5  6  1  0
  6  7  1  0
  7  8  1  0
  8  9  1  0
  9 10  1  0
  4 11  2  0
 11 12  1  0
 12 13  1  0
 13 14  1  0
 14 15  1  0
 15 16  1  0
 16 17  2  0
 17 18  1  0
 18 19  2  0
 19 20  1  0
 20 21  2  0
 21 22  1  0
 12 23  2  0
 23  2  1  0
 10  5  1  0
 22 13  1  0
 21 16  1  0
  6 24  1  0
  6 25  1  0
  7 26  1  0
  7 27  1  0
  8 28  1  0
  9 29  1  0
  9 30  1  0
 10 31  1  0
 10 32  1  0
 14 33  1  0
 14 34  1  0
 15 35  1  0
 15 36  1  0
 17 37  1  0
 18 38  1  0
 19 39  1  0
 20 40  1  0
 22 41  1  0
 22 42  1  0
M  CHG  1   1  -1
M  END
>  <UniqueID>  (76) 
704

>  <SMILES>  (76) 
[O-]c1nc(N2CCNCC2)nc(N2CCc3ccccc3C2)n1

>  <Energy>  (76) 
52.14116509113121

>  <Genealogy>  (76) 
[O-]c1nc(N2CCNCC2)nc(N2CCc3ccccc3C2)n1 (protonated)
[O-]c1nc(N2CCNCC2)nc(N2CCc3ccccc3C2)n1 (3D coordinates assigned)
[O-]c1nc(N2CCNCC2)nc(N2CCc3ccccc3C2)n1 (nonaromatic ring conformer: 52.14116509113121 kcal/mol)

>  <smiles>  (76) 
Oc1nc(N2CCNCC2)nc(N2CCc3ccccc3C2)n1

>  <score_type>  (76) 
oracle

>  <origin>  (76) 
autodockgpu

>  <m_score__min__energy>  (76) 
-7.2599999999999998

>  <m_primary>  (76) 
energy

>  <meeko>  (76) 
{"free_energy": -7.24, "intermolecular_energy": -7.83, "internal_energy": -0.57, "cluster_size": 19, "cluster_id": 1, "rank_in_cluster": 14}

>  <energy>  (76) 
-7.23

>  <cluster_rmsd>  (76) 
0.91

>  <rmsd>  (76) 
271.89

>  <cluster>  (76) 
1

$$$$
VOQKIUCZPHIEKY-MWDOZMLPNA-M
     RDKit          3D

 42 45  0  0  0  0  0  0  0  0999 V2000
  139.7570   75.5810  221.5350 O   0  0  0  0  0  0  0  0  0  0  0  0
  140.4660   74.3880  221.5690 C   0  0  0  0  0  0  0  0  0  0  0  0
  141.5460   74.2190  220.7680 N   0  0  0  0  0  0  0  0  0  0  0  0
  142.2470   73.0540  220.7950 C   0  0  0  0  0  0  0  0  0  0  0  0
  143.3950   72.8760  219.9400 N   0  0  0  0  0  0  0  0  0  0  0  0
  143.5440   73.7300  218.7530 C   0  0  0  0  0  0  0  0  0  0  0  0
  144.8230   73.3860  217.9850 C   0  0  0  0  0  0  0  0  0  0  0  0
  145.9490   73.2500  218.9130 N   0  0  0  0  0  0  0  0  0  0  0  0
  145.7760   72.1320  219.8610 C   0  0  0  0  0  0  0  0  0  0  0  0
  144.3050   71.7360  220.1260 C   0  0  0  0  0  0  0  0  0  0  0  0
  141.8490   72.0610  221.6330 N   0  0  0  0  0  0  0  0  0  0  0  0
  140.7650   72.2200  222.4400 C   0  0  0  0  0  0  0  0  0  0  0  0
  140.3530   71.1620  223.3310 N   0  0  0  0  0  0  0  0  0  0  0  0
  139.5770   70.0240  222.8110 C   0  0  0  0  0  0  0  0  0  0  0  0
  138.6010   69.5100  223.8630 C   0  0  0  0  0  0  0  0  0  0  0  0
  139.3340   69.1800  225.1290 C   0  0  0  0  0  0  0  0  0  0  0  0
  138.9030   68.1200  225.9430 C   0  0  0  0  0  0  0  0  0  0  0  0
  139.5690   67.8360  227.1370 C   0  0  0  0  0  0  0  0  0  0  0  0
  140.6580   68.6150  227.5340 C   0  0  0  0  0  0  0  0  0  0  0  0
  141.0820   69.6840  226.7380 C   0  0  0  0  0  0  0  0  0  0  0  0
  140.4270   69.9720  225.5290 C   0  0  0  0  0  0  0  0  0  0  0  0
  140.8730   71.1620  224.7120 C   0  0  0  0  0  0  0  0  0  0  0  0
  140.0770   73.3920  222.4020 N   0  0  0  0  0  0  0  0  0  0  0  0
  142.6771   73.5817  218.0923 H   0  0  0  0  0  0  0  0  0  0  0  0
  143.6043   74.7781  219.0814 H   0  0  0  0  0  0  0  0  0  0  0  0
  144.6795   72.4378  217.4463 H   0  0  0  0  0  0  0  0  0  0  0  0
  145.0415   74.1939  217.2712 H   0  0  0  0  0  0  0  0  0  0  0  0
  146.0420   74.1420  219.4560 H   0  0  0  0  0  0  0  0  0  0  0  0
  146.3002   71.2540  219.4557 H   0  0  0  0  0  0  0  0  0  0  0  0
  146.1860   72.4724  220.8233 H   0  0  0  0  0  0  0  0  0  0  0  0
  144.0200   70.9344  219.4287 H   0  0  0  0  0  0  0  0  0  0  0  0
  144.2228   71.3971  221.1693 H   0  0  0  0  0  0  0  0  0  0  0  0
  139.0135   70.3471  221.9232 H   0  0  0  0  0  0  0  0  0  0  0  0
  140.2723   69.2131  222.5483 H   0  0  0  0  0  0  0  0  0  0  0  0
  137.8480   70.2847  224.0700 H   0  0  0  0  0  0  0  0  0  0  0  0
  138.1094   68.6016  223.4846 H   0  0  0  0  0  0  0  0  0  0  0  0
  138.0383   67.5117  225.6392 H   0  0  0  0  0  0  0  0  0  0  0  0
  139.2354   66.9974  227.7658 H   0  0  0  0  0  0  0  0  0  0  0  0
  141.1828   68.3876  228.4736 H   0  0  0  0  0  0  0  0  0  0  0  0
  141.9327   70.3024  227.0603 H   0  0  0  0  0  0  0  0  0  0  0  0
  140.5260   72.0774  225.2137 H   0  0  0  0  0  0  0  0  0  0  0  0
  141.9696   71.1113  224.6425 H   0  0  0  0  0  0  0  0  0  0  0  0
  1  2  1  0
  2  3  2  0
  3  4  1  0
  4  5  1  0
  5  6  1  0
  6  7  1  0
  7  8  1  0
  8  9  1  0
  9 10  1  0
  4 11  2  0
 11 12  1  0
 12 13  1  0
 13 14  1  0
 14 15  1  0
 15 16  1  0
 16 17  2  0
 17 18  1  0
 18 19  2  0
 19 20  1  0
 20 21  2  0
 21 22  1  0
 12 23  2  0
 23  2  1  0
 10  5  1  0
 22 13  1  0
 21 16  1  0
  6 24  1  0
  6 25  1  0
  7 26  1  0
  7 27  1  0
  8 28  1  0
  9 29  1  0
  9 30  1  0
 10 31  1  0
 10 32  1  0
 14 33  1  0
 14 34  1  0
 15 35  1  0
 15 36  1  0
 17 37  1  0
 18 38  1  0
 19 39  1  0
 20 40  1  0
 22 41  1  0
 22 42  1  0
M  CHG  1   1  -1
M  END
>  <UniqueID>  (77) 
704

>  <SMILES>  (77) 
[O-]c1nc(N2CCNCC2)nc(N2CCc3ccccc3C2)n1

>  <Energy>  (77) 
52.14116509113121

>  <Genealogy>  (77) 
[O-]c1nc(N2CCNCC2)nc(N2CCc3ccccc3C2)n1 (protonated)
[O-]c1nc(N2CCNCC2)nc(N2CCc3ccccc3C2)n1 (3D coordinates assigned)
[O-]c1nc(N2CCNCC2)nc(N2CCc3ccccc3C2)n1 (nonaromatic ring conformer: 52.14116509113121 kcal/mol)

>  <smiles>  (77) 
Oc1nc(N2CCNCC2)nc(N2CCc3ccccc3C2)n1

>  <score_type>  (77) 
oracle

>  <origin>  (77) 
autodockgpu

>  <m_score__min__energy>  (77) 
-7.2599999999999998

>  <m_primary>  (77) 
energy

>  <meeko>  (77) 
{"free_energy": -7.24, "intermolecular_energy": -7.83, "internal_energy": -0.57, "cluster_size": 19, "cluster_id": 1, "rank_in_cluster": 15}

>  <energy>  (77) 
-7.23

>  <cluster_rmsd>  (77) 
0.9

>  <rmsd>  (77) 
271.88

>  <cluster>  (77) 
1

$$$$
VOQKIUCZPHIEKY-MWDOZMLPNA-M
     RDKit          3D

 42 45  0  0  0  0  0  0  0  0999 V2000
  139.4500   75.4460  221.4420 O   0  0  0  0  0  0  0  0  0  0  0  0
  140.2570   74.3280  221.5970 C   0  0  0  0  0  0  0  0  0  0  0  0
  141.4250   74.2340  220.9150 N   0  0  0  0  0  0  0  0  0  0  0  0
  142.2220   73.1420  221.0610 C   0  0  0  0  0  0  0  0  0  0  0  0
  143.4630   73.0450  220.3330 N   0  0  0  0  0  0  0  0  0  0  0  0
  144.6510   73.7400  220.8460 C   0  0  0  0  0  0  0  0  0  0  0  0
  145.8600   73.5110  219.9340 C   0  0  0  0  0  0  0  0  0  0  0  0
  145.9610   72.0930  219.5750 N   0  0  0  0  0  0  0  0  0  0  0  0
  144.8070   71.6210  218.7850 C   0  0  0  0  0  0  0  0  0  0  0  0
  143.5080   72.4320  218.9960 C   0  0  0  0  0  0  0  0  0  0  0  0
  141.8310   72.1440  221.8980 N   0  0  0  0  0  0  0  0  0  0  0  0
  140.6610   72.2280  222.5860 C   0  0  0  0  0  0  0  0  0  0  0  0
  140.2570   71.1660  223.4770 N   0  0  0  0  0  0  0  0  0  0  0  0
  139.4350   70.0550  222.9710 C   0  0  0  0  0  0  0  0  0  0  0  0
  138.4870   69.5490  224.0530 C   0  0  0  0  0  0  0  0  0  0  0  0
  139.2590   69.1820  225.2840 C   0  0  0  0  0  0  0  0  0  0  0  0
  138.8340   68.1200  226.0990 C   0  0  0  0  0  0  0  0  0  0  0  0
  139.5380   67.8030  227.2620 C   0  0  0  0  0  0  0  0  0  0  0  0
  140.6600   68.5490  227.6280 C   0  0  0  0  0  0  0  0  0  0  0  0
  141.0790   69.6190  226.8320 C   0  0  0  0  0  0  0  0  0  0  0  0
  140.3860   69.9410  225.6540 C   0  0  0  0  0  0  0  0  0  0  0  0
  140.8290   71.1330  224.8370 C   0  0  0  0  0  0  0  0  0  0  0  0
  139.8780   73.3270  222.4290 N   0  0  0  0  0  0  0  0  0  0  0  0
  144.4410   74.8184  220.9003 H   0  0  0  0  0  0  0  0  0  0  0  0
  144.8855   73.3413  221.8440 H   0  0  0  0  0  0  0  0  0  0  0  0
  145.7437   74.1103  219.0189 H   0  0  0  0  0  0  0  0  0  0  0  0
  146.7740   73.8128  220.4665 H   0  0  0  0  0  0  0  0  0  0  0  0
  146.0190   71.5310  220.4570 H   0  0  0  0  0  0  0  0  0  0  0  0
  145.0756   71.6744  217.7196 H   0  0  0  0  0  0  0  0  0  0  0  0
  144.5940   70.5969  219.1254 H   0  0  0  0  0  0  0  0  0  0  0  0
  143.4560   73.2266  218.2371 H   0  0  0  0  0  0  0  0  0  0  0  0
  142.6544   71.7443  218.9040 H   0  0  0  0  0  0  0  0  0  0  0  0
  138.8464   70.4044  222.1099 H   0  0  0  0  0  0  0  0  0  0  0  0
  140.0998   69.2318  222.6703 H   0  0  0  0  0  0  0  0  0  0  0  0
  137.7623   70.3388  224.3001 H   0  0  0  0  0  0  0  0  0  0  0  0
  137.9585   68.6589  223.6809 H   0  0  0  0  0  0  0  0  0  0  0  0
  137.9441   67.5366  225.8201 H   0  0  0  0  0  0  0  0  0  0  0  0
  139.2080   66.9635  227.8915 H   0  0  0  0  0  0  0  0  0  0  0  0
  141.2146   68.2946  228.5433 H   0  0  0  0  0  0  0  0  0  0  0  0
  141.9563   70.2119  227.1301 H   0  0  0  0  0  0  0  0  0  0  0  0
  140.5232   72.0485  225.3646 H   0  0  0  0  0  0  0  0  0  0  0  0
  141.9207   71.0578  224.7247 H   0  0  0  0  0  0  0  0  0  0  0  0
  1  2  1  0
  2  3  2  0
  3  4  1  0
  4  5  1  0
  5  6  1  0
  6  7  1  0
  7  8  1  0
  8  9  1  0
  9 10  1  0
  4 11  2  0
 11 12  1  0
 12 13  1  0
 13 14  1  0
 14 15  1  0
 15 16  1  0
 16 17  2  0
 17 18  1  0
 18 19  2  0
 19 20  1  0
 20 21  2  0
 21 22  1  0
 12 23  2  0
 23  2  1  0
 10  5  1  0
 22 13  1  0
 21 16  1  0
  6 24  1  0
  6 25  1  0
  7 26  1  0
  7 27  1  0
  8 28  1  0
  9 29  1  0
  9 30  1  0
 10 31  1  0
 10 32  1  0
 14 33  1  0
 14 34  1  0
 15 35  1  0
 15 36  1  0
 17 37  1  0
 18 38  1  0
 19 39  1  0
 20 40  1  0
 22 41  1  0
 22 42  1  0
M  CHG  1   1  -1
M  END
>  <UniqueID>  (78) 
704

>  <SMILES>  (78) 
[O-]c1nc(N2CCNCC2)nc(N2CCc3ccccc3C2)n1

>  <Energy>  (78) 
52.14116509113121

>  <Genealogy>  (78) 
[O-]c1nc(N2CCNCC2)nc(N2CCc3ccccc3C2)n1 (protonated)
[O-]c1nc(N2CCNCC2)nc(N2CCc3ccccc3C2)n1 (3D coordinates assigned)
[O-]c1nc(N2CCNCC2)nc(N2CCc3ccccc3C2)n1 (nonaromatic ring conformer: 52.14116509113121 kcal/mol)

>  <smiles>  (78) 
Oc1nc(N2CCNCC2)nc(N2CCc3ccccc3C2)n1

>  <score_type>  (78) 
oracle

>  <origin>  (78) 
autodockgpu

>  <m_score__min__energy>  (78) 
-7.2599999999999998

>  <m_primary>  (78) 
energy

>  <meeko>  (78) 
{"free_energy": -7.26, "intermolecular_energy": -7.85, "internal_energy": -0.56, "cluster_size": 19, "cluster_id": 1, "rank_in_cluster": 1}

>  <energy>  (78) 
-7.23

>  <cluster_rmsd>  (78) 
0.92

>  <rmsd>  (78) 
271.87

>  <cluster>  (78) 
1

$$$$
VOQKIUCZPHIEKY-MWDOZMLPNA-M
     RDKit          3D

 42 45  0  0  0  0  0  0  0  0999 V2000
  139.4490   75.4650  221.4500 O   0  0  0  0  0  0  0  0  0  0  0  0
  140.2570   74.3460  221.6000 C   0  0  0  0  0  0  0  0  0  0  0  0
  141.4210   74.2530  220.9120 N   0  0  0  0  0  0  0  0  0  0  0  0
  142.2180   73.1600  221.0530 C   0  0  0  0  0  0  0  0  0  0  0  0
  143.4550   73.0640  220.3190 N   0  0  0  0  0  0  0  0  0  0  0  0
  144.6460   73.7610  220.8250 C   0  0  0  0  0  0  0  0  0  0  0  0
  145.8500   73.5320  219.9080 C   0  0  0  0  0  0  0  0  0  0  0  0
  145.9500   72.1140  219.5500 N   0  0  0  0  0  0  0  0  0  0  0  0
  144.7930   71.6400  218.7660 C   0  0  0  0  0  0  0  0  0  0  0  0
  143.4950   72.4500  218.9830 C   0  0  0  0  0  0  0  0  0  0  0  0
  141.8310   72.1620  221.8910 N   0  0  0  0  0  0  0  0  0  0  0  0
  140.6640   72.2450  222.5840 C   0  0  0  0  0  0  0  0  0  0  0  0
  140.2640   71.1830  223.4760 N   0  0  0  0  0  0  0  0  0  0  0  0
  139.4520   70.0650  222.9690 C   0  0  0  0  0  0  0  0  0  0  0  0
  138.5030   69.5530  224.0480 C   0  0  0  0  0  0  0  0  0  0  0  0
  139.2730   69.1950  225.2830 C   0  0  0  0  0  0  0  0  0  0  0  0
  138.8520   68.1320  226.0980 C   0  0  0  0  0  0  0  0  0  0  0  0
  139.5530   67.8230  227.2660 C   0  0  0  0  0  0  0  0  0  0  0  0
  140.6670   68.5790  227.6360 C   0  0  0  0  0  0  0  0  0  0  0  0
  141.0820   69.6500  226.8380 C   0  0  0  0  0  0  0  0  0  0  0  0
  140.3920   69.9640  225.6560 C   0  0  0  0  0  0  0  0  0  0  0  0
  140.8300   71.1570  224.8380 C   0  0  0  0  0  0  0  0  0  0  0  0
  139.8800   73.3450  222.4330 N   0  0  0  0  0  0  0  0  0  0  0  0
  144.4354   74.8393  220.8788 H   0  0  0  0  0  0  0  0  0  0  0  0
  144.8859   73.3636  221.8222 H   0  0  0  0  0  0  0  0  0  0  0  0
  145.7290   74.1303  218.9929 H   0  0  0  0  0  0  0  0  0  0  0  0
  146.7664   73.8349  220.4357 H   0  0  0  0  0  0  0  0  0  0  0  0
  146.0140   71.5520  220.4320 H   0  0  0  0  0  0  0  0  0  0  0  0
  145.0563   71.6927  217.6993 H   0  0  0  0  0  0  0  0  0  0  0  0
  144.5827   70.6158  219.1078 H   0  0  0  0  0  0  0  0  0  0  0  0
  143.4389   73.2440  218.2237 H   0  0  0  0  0  0  0  0  0  0  0  0
  142.6418   71.7611  218.8960 H   0  0  0  0  0  0  0  0  0  0  0  0
  138.8642   70.4087  222.1051 H   0  0  0  0  0  0  0  0  0  0  0  0
  140.1243   69.2463  222.6728 H   0  0  0  0  0  0  0  0  0  0  0  0
  137.7706   70.3371  224.2903 H   0  0  0  0  0  0  0  0  0  0  0  0
  137.9834   68.6579  223.6754 H   0  0  0  0  0  0  0  0  0  0  0  0
  137.9680   67.5412  225.8160 H   0  0  0  0  0  0  0  0  0  0  0  0
  139.2266   66.9822  227.8957 H   0  0  0  0  0  0  0  0  0  0  0  0
  141.2184   68.3322  228.5553 H   0  0  0  0  0  0  0  0  0  0  0  0
  141.9539   70.2498  227.1380 H   0  0  0  0  0  0  0  0  0  0  0  0
  140.5156   72.0716  225.3621 H   0  0  0  0  0  0  0  0  0  0  0  0
  141.9226   71.0890  224.7305 H   0  0  0  0  0  0  0  0  0  0  0  0
  1  2  1  0
  2  3  2  0
  3  4  1  0
  4  5  1  0
  5  6  1  0
  6  7  1  0
  7  8  1  0
  8  9  1  0
  9 10  1  0
  4 11  2  0
 11 12  1  0
 12 13  1  0
 13 14  1  0
 14 15  1  0
 15 16  1  0
 16 17  2  0
 17 18  1  0
 18 19  2  0
 19 20  1  0
 20 21  2  0
 21 22  1  0
 12 23  2  0
 23  2  1  0
 10  5  1  0
 22 13  1  0
 21 16  1  0
  6 24  1  0
  6 25  1  0
  7 26  1  0
  7 27  1  0
  8 28  1  0
  9 29  1  0
  9 30  1  0
 10 31  1  0
 10 32  1  0
 14 33  1  0
 14 34  1  0
 15 35  1  0
 15 36  1  0
 17 37  1  0
 18 38  1  0
 19 39  1  0
 20 40  1  0
 22 41  1  0
 22 42  1  0
M  CHG  1   1  -1
M  END
>  <UniqueID>  (79) 
704

>  <SMILES>  (79) 
[O-]c1nc(N2CCNCC2)nc(N2CCc3ccccc3C2)n1

>  <Energy>  (79) 
52.14116509113121

>  <Genealogy>  (79) 
[O-]c1nc(N2CCNCC2)nc(N2CCc3ccccc3C2)n1 (protonated)
[O-]c1nc(N2CCNCC2)nc(N2CCc3ccccc3C2)n1 (3D coordinates assigned)
[O-]c1nc(N2CCNCC2)nc(N2CCc3ccccc3C2)n1 (nonaromatic ring conformer: 52.14116509113121 kcal/mol)

>  <smiles>  (79) 
Oc1nc(N2CCNCC2)nc(N2CCc3ccccc3C2)n1

>  <score_type>  (79) 
oracle

>  <origin>  (79) 
autodockgpu

>  <m_score__min__energy>  (79) 
-7.2599999999999998

>  <m_primary>  (79) 
energy

>  <meeko>  (79) 
{"free_energy": -7.25, "intermolecular_energy": -7.85, "internal_energy": -0.56, "cluster_size": 19, "cluster_id": 1, "rank_in_cluster": 8}

>  <energy>  (79) 
-7.22

>  <cluster_rmsd>  (79) 
0.96

>  <rmsd>  (79) 
271.92

>  <cluster>  (79) 
1

$$$$
VOQKIUCZPHIEKY-MWDOZMLPNA-M
     RDKit          3D

 42 45  0  0  0  0  0  0  0  0999 V2000
  139.7130   75.7160  221.4180 O   0  0  0  0  0  0  0  0  0  0  0  0
  140.4390   74.5340  221.4880 C   0  0  0  0  0  0  0  0  0  0  0  0
  141.5240   74.3570  220.6960 N   0  0  0  0  0  0  0  0  0  0  0  0
  142.2400   73.2020  220.7590 C   0  0  0  0  0  0  0  0  0  0  0  0
  143.3930   73.0160  219.9130 N   0  0  0  0  0  0  0  0  0  0  0  0
  143.5450   73.8500  218.7130 C   0  0  0  0  0  0  0  0  0  0  0  0
  144.8290   73.4990  217.9570 C   0  0  0  0  0  0  0  0  0  0  0  0
  145.9510   73.3830  218.8930 N   0  0  0  0  0  0  0  0  0  0  0  0
  145.7770   72.2800  219.8580 C   0  0  0  0  0  0  0  0  0  0  0  0
  144.3070   71.8820  220.1220 C   0  0  0  0  0  0  0  0  0  0  0  0
  141.8520   72.2280  221.6250 N   0  0  0  0  0  0  0  0  0  0  0  0
  140.7640   72.3960  222.4230 C   0  0  0  0  0  0  0  0  0  0  0  0
  140.3630   71.3590  223.3430 N   0  0  0  0  0  0  0  0  0  0  0  0
  139.6190   70.1880  222.8510 C   0  0  0  0  0  0  0  0  0  0  0  0
  138.6410   69.6870  223.9080 C   0  0  0  0  0  0  0  0  0  0  0  0
  139.3640   69.4150  225.1930 C   0  0  0  0  0  0  0  0  0  0  0  0
  138.9460   68.3730  226.0360 C   0  0  0  0  0  0  0  0  0  0  0  0
  139.6020   68.1440  227.2470 C   0  0  0  0  0  0  0  0  0  0  0  0
  140.6680   68.9600  227.6320 C   0  0  0  0  0  0  0  0  0  0  0  0
  141.0790   70.0100  226.8060 C   0  0  0  0  0  0  0  0  0  0  0  0
  140.4340   70.2440  225.5810 C   0  0  0  0  0  0  0  0  0  0  0  0
  140.8640   71.4160  224.7300 C   0  0  0  0  0  0  0  0  0  0  0  0
  140.0610   73.5570  222.3480 N   0  0  0  0  0  0  0  0  0  0  0  0
  142.6821   73.6870  218.0506 H   0  0  0  0  0  0  0  0  0  0  0  0
  143.5998   74.9036  219.0244 H   0  0  0  0  0  0  0  0  0  0  0  0
  144.6922   72.5415  217.4331 H   0  0  0  0  0  0  0  0  0  0  0  0
  145.0477   74.2959  217.2310 H   0  0  0  0  0  0  0  0  0  0  0  0
  146.0380   74.2840  219.4210 H   0  0  0  0  0  0  0  0  0  0  0  0
  146.3069   71.3977  219.4698 H   0  0  0  0  0  0  0  0  0  0  0  0
  146.1800   72.6381  220.8168 H   0  0  0  0  0  0  0  0  0  0  0  0
  144.0288   71.0682  219.4362 H   0  0  0  0  0  0  0  0  0  0  0  0
  144.2208   71.5592  221.1700 H   0  0  0  0  0  0  0  0  0  0  0  0
  139.0599   70.4695  221.9465 H   0  0  0  0  0  0  0  0  0  0  0  0
  140.3350   69.3847  222.6230 H   0  0  0  0  0  0  0  0  0  0  0  0
  137.8687   70.4511  224.0801 H   0  0  0  0  0  0  0  0  0  0  0  0
  138.1747   68.7558  223.5538 H   0  0  0  0  0  0  0  0  0  0  0  0
  138.0994   67.7353  225.7416 H   0  0  0  0  0  0  0  0  0  0  0  0
  139.2786   67.3193  227.8991 H   0  0  0  0  0  0  0  0  0  0  0  0
  141.1844   68.7763  228.5857 H   0  0  0  0  0  0  0  0  0  0  0  0
  141.9125   70.6567  227.1175 H   0  0  0  0  0  0  0  0  0  0  0  0
  140.4899   72.3393  225.1964 H   0  0  0  0  0  0  0  0  0  0  0  0
  141.9623   71.3875  224.6759 H   0  0  0  0  0  0  0  0  0  0  0  0
  1  2  1  0
  2  3  2  0
  3  4  1  0
  4  5  1  0
  5  6  1  0
  6  7  1  0
  7  8  1  0
  8  9  1  0
  9 10  1  0
  4 11  2  0
 11 12  1  0
 12 13  1  0
 13 14  1  0
 14 15  1  0
 15 16  1  0
 16 17  2  0
 17 18  1  0
 18 19  2  0
 19 20  1  0
 20 21  2  0
 21 22  1  0
 12 23  2  0
 23  2  1  0
 10  5  1  0
 22 13  1  0
 21 16  1  0
  6 24  1  0
  6 25  1  0
  7 26  1  0
  7 27  1  0
  8 28  1  0
  9 29  1  0
  9 30  1  0
 10 31  1  0
 10 32  1  0
 14 33  1  0
 14 34  1  0
 15 35  1  0
 15 36  1  0
 17 37  1  0
 18 38  1  0
 19 39  1  0
 20 40  1  0
 22 41  1  0
 22 42  1  0
M  CHG  1   1  -1
M  END
>  <UniqueID>  (80) 
704

>  <SMILES>  (80) 
[O-]c1nc(N2CCNCC2)nc(N2CCc3ccccc3C2)n1

>  <Energy>  (80) 
52.14116509113121

>  <Genealogy>  (80) 
[O-]c1nc(N2CCNCC2)nc(N2CCc3ccccc3C2)n1 (protonated)
[O-]c1nc(N2CCNCC2)nc(N2CCc3ccccc3C2)n1 (3D coordinates assigned)
[O-]c1nc(N2CCNCC2)nc(N2CCc3ccccc3C2)n1 (nonaromatic ring conformer: 52.14116509113121 kcal/mol)

>  <smiles>  (80) 
Oc1nc(N2CCNCC2)nc(N2CCc3ccccc3C2)n1

>  <score_type>  (80) 
oracle

>  <origin>  (80) 
autodockgpu

>  <m_score__min__energy>  (80) 
-7.2599999999999998

>  <m_primary>  (80) 
energy

>  <meeko>  (80) 
{"free_energy": -7.22, "intermolecular_energy": -7.82, "internal_energy": -0.57, "cluster_size": 19, "cluster_id": 1, "rank_in_cluster": 19}

>  <energy>  (80) 
-6.72

>  <cluster_rmsd>  (80) 
0.0

>  <rmsd>  (80) 
272.1

>  <cluster>  (80) 
2

$$$$
