
     RDKit          3D

 60 63  0  0  0  0  0  0  0  0999 V2000
  141.4730   71.9880  221.5950 O   0  0  0  0  0  0  0  0  0  0  0  0
  140.6190   72.3070  222.4710 C   0  0  0  0  0  0  0  0  0  0  0  0
  139.8780   73.5190  222.2360 N   0  0  0  0  0  0  0  0  0  0  0  0
  140.1860   74.2310  221.0410 C   0  0  0  0  0  0  0  0  0  0  0  0
  141.0170   75.4220  221.0980 C   0  0  0  0  0  0  0  0  0  0  0  0
  141.0640   75.9700  222.2830 O   0  0  0  0  0  0  0  0  0  0  0  0
  141.7640   76.0570  220.0720 N   0  0  0  0  0  0  0  0  0  0  0  0
  142.1760   77.4340  219.9120 C   0  0  0  0  0  0  0  0  0  0  0  0
  142.6820   77.5310  218.4640 C   0  0  2  0  0  0  0  0  0  0  0  0
  141.5470   77.6590  217.6710 O   0  0  0  0  0  0  0  0  0  0  0  0
  143.2800   76.1700  218.3000 C   0  0  0  0  0  0  0  0  0  0  0  0
  142.2770   75.2570  218.9360 C   0  0  1  0  0  0  0  0  0  0  0  0
  142.9690   74.0220  219.4250 C   0  0  0  0  0  0  0  0  0  0  0  0
  142.3060   72.9300  219.4350 O   0  0  0  0  0  0  0  0  0  0  0  0
  144.3180   74.0220  219.8710 N   0  0  0  0  0  0  0  0  0  0  0  0
  144.9420   72.7990  220.3400 C   0  0  2  0  0  0  0  0  0  0  0  0
  146.1890   73.0200  221.1350 C   0  0  0  0  0  0  0  0  0  0  0  0
  146.8770   74.1440  220.7000 O   0  0  0  0  0  0  0  0  0  0  0  0
  145.1820   71.8750  219.2000 C   0  0  0  0  0  0  0  0  0  0  0  0
  145.2650   72.4530  217.9440 C   0  0  0  0  0  0  0  0  0  0  0  0
  145.4870   71.6430  216.8460 C   0  0  0  0  0  0  0  0  0  0  0  0
  145.6300   70.2810  216.9450 C   0  0  0  0  0  0  0  0  0  0  0  0
  145.5420   69.7370  218.2180 C   0  0  0  0  0  0  0  0  0  0  0  0
  145.7170   68.0140  218.3930 Cl  0  0  0  0  0  0  0  0  0  0  0  0
  145.3190   70.5220  219.3420 C   0  0  0  0  0  0  0  0  0  0  0  0
  140.3670   71.5200  223.6650 C   0  0  0  0  0  0  0  0  0  0  0  0
  139.6410   70.3540  223.5050 C   0  0  0  0  0  0  0  0  0  0  0  0
  139.3530   69.5420  224.5830 C   0  0  0  0  0  0  0  0  0  0  0  0
  139.8140   69.9320  225.8310 C   0  0  0  0  0  0  0  0  0  0  0  0
  139.5650   69.1710  226.9540 C   0  0  0  0  0  0  0  0  0  0  0  0
  140.0190   69.5520  228.2000 C   0  0  0  0  0  0  0  0  0  0  0  0
  139.7550   68.7760  229.2880 F   0  0  0  0  0  0  0  0  0  0  0  0
  140.7420   70.7250  228.3170 C   0  0  0  0  0  0  0  0  0  0  0  0
  141.0110   71.5120  227.2110 C   0  0  0  0  0  0  0  0  0  0  0  0
  140.5380   71.1010  225.9700 C   0  0  0  0  0  0  0  0  0  0  0  0
  140.8090   71.8840  224.8910 N   0  0  0  0  0  0  0  0  0  0  0  0
  139.1990   73.7610  222.9730 H   0  0  0  0  0  0  0  0  0  0  0  0
  140.6934   73.5217  220.3706 H   0  0  0  0  0  0  0  0  0  0  0  0
  139.2086   74.6200  220.7196 H   0  0  0  0  0  0  0  0  0  0  0  0
  141.3254   78.1132  220.0708 H   0  0  0  0  0  0  0  0  0  0  0  0
  142.9485   77.7219  220.6402 H   0  0  0  0  0  0  0  0  0  0  0  0
  143.3750   78.3498  218.2204 H   0  0  0  0  0  0  0  0  0  0  0  0
  141.8330   78.1820  216.8660 H   0  0  0  0  0  0  0  0  0  0  0  0
  143.4117   75.9260  217.2355 H   0  0  0  0  0  0  0  0  0  0  0  0
  144.2778   76.0873  218.7555 H   0  0  0  0  0  0  0  0  0  0  0  0
  141.4783   74.9264  218.2556 H   0  0  0  0  0  0  0  0  0  0  0  0
  144.9160   74.8750  219.8690 H   0  0  0  0  0  0  0  0  0  0  0  0
  144.2323   72.3353  221.0409 H   0  0  0  0  0  0  0  0  0  0  0  0
  145.9194   73.1532  222.1931 H   0  0  0  0  0  0  0  0  0  0  0  0
  146.8414   72.1440  221.0044 H   0  0  0  0  0  0  0  0  0  0  0  0
  146.6000   74.2730  219.7510 H   0  0  0  0  0  0  0  0  0  0  0  0
  145.1558   73.5408  217.8220 H   0  0  0  0  0  0  0  0  0  0  0  0
  145.5518   72.1090  215.8517 H   0  0  0  0  0  0  0  0  0  0  0  0
  145.8055   69.6528  216.0593 H   0  0  0  0  0  0  0  0  0  0  0  0
  145.2532   70.0592  220.3377 H   0  0  0  0  0  0  0  0  0  0  0  0
  139.2876   70.0693  222.5030 H   0  0  0  0  0  0  0  0  0  0  0  0
  138.7757   68.6143  224.4561 H   0  0  0  0  0  0  0  0  0  0  0  0
  138.9908   68.2381  226.8539 H   0  0  0  0  0  0  0  0  0  0  0  0
  141.1094   71.0376  229.3056 H   0  0  0  0  0  0  0  0  0  0  0  0
  141.5872   72.4436  227.3117 H   0  0  0  0  0  0  0  0  0  0  0  0
  1  2  2  0
  2  3  1  0
  3  4  1  0
  4  5  1  0
  5  6  2  0
  5  7  1  0
  7  8  1  0
  8  9  1  0
  9 10  1  0
  9 11  1  0
 11 12  1  0
 12 13  1  0
 13 14  2  0
 13 15  1  0
 15 16  1  0
 16 17  1  0
 17 18  1  0
 16 19  1  0
 19 20  2  0
 20 21  1  0
 21 22  2  0
 22 23  1  0
 23 24  1  0
 23 25  2  0
  2 26  1  0
 26 27  2  0
 27 28  1  0
 28 29  2  0
 29 30  1  0
 30 31  2  0
 31 32  1  0
 31 33  1  0
 33 34  2  0
 34 35  1  0
 35 36  2  0
 12  7  1  0
 25 19  1  0
 36 26  1  0
 35 29  1  0
  3 37  1  0
  4 38  1  0
  4 39  1  0
  8 40  1  0
  8 41  1  0
  9 42  1  1
 10 43  1  0
 11 44  1  0
 11 45  1  0
 12 46  1  6
 15 47  1  0
 16 48  1  1
 17 49  1  0
 17 50  1  0
 18 51  1  0
 20 52  1  0
 21 53  1  0
 22 54  1  0
 25 55  1  0
 27 56  1  0
 28 57  1  0
 30 58  1  0
 33 59  1  0
 34 60  1  0
M  END
>  <smiles>  (1) 
O=C(NCC(=O)N1C[C@H](O)C[C@H]1C(=O)N[C@H](CO)c1cccc(Cl)c1)c1ccc2cc(F)ccc2n1

>  <score_type>  (1) 
oracle

>  <origin>  (1) 
autodockgpu

>  <m_score__min__energy>  (1) 
-8.9600000000000009

>  <m_primary>  (1) 
energy

>  <meeko>  (1) 
{"free_energy": -8.51, "intermolecular_energy": -11.49, "internal_energy": -2.64, "cluster_size": 1, "cluster_id": 3, "rank_in_cluster": 1}

>  <energy>  (1) 
-8.96

>  <cluster_rmsd>  (1) 
0.0

>  <rmsd>  (1) 
270.91

>  <cluster>  (1) 
1

$$$$

     RDKit          3D

 60 63  0  0  0  0  0  0  0  0999 V2000
  141.6740   79.1330  219.1660 O   0  0  0  0  0  0  0  0  0  0  0  0
  141.5280   78.5790  220.2920 C   0  0  0  0  0  0  0  0  0  0  0  0
  142.2310   77.3380  220.4950 N   0  0  0  0  0  0  0  0  0  0  0  0
  143.0160   76.8670  219.4030 C   0  0  0  0  0  0  0  0  0  0  0  0
  143.1070   75.4420  219.1340 C   0  0  0  0  0  0  0  0  0  0  0  0
  142.3110   75.0380  218.1800 O   0  0  0  0  0  0  0  0  0  0  0  0
  143.9190   74.4520  219.7480 N   0  0  0  0  0  0  0  0  0  0  0  0
  145.1590   74.5640  220.4820 C   0  0  0  0  0  0  0  0  0  0  0  0
  145.6750   73.1220  220.6120 C   0  0  2  0  0  0  0  0  0  0  0  0
  146.2860   72.8240  219.4000 O   0  0  0  0  0  0  0  0  0  0  0  0
  144.3770   72.3870  220.7340 C   0  0  0  0  0  0  0  0  0  0  0  0
  143.4990   73.0330  219.7060 C   0  0  1  0  0  0  0  0  0  0  0  0
  142.0660   72.8880  220.1150 C   0  0  0  0  0  0  0  0  0  0  0  0
  141.3980   71.9180  219.6200 O   0  0  0  0  0  0  0  0  0  0  0  0
  141.4320   73.7780  221.0230 N   0  0  0  0  0  0  0  0  0  0  0  0
  140.0380   73.5990  221.3840 C   0  0  2  0  0  0  0  0  0  0  0  0
  139.3940   74.8250  221.9480 C   0  0  0  0  0  0  0  0  0  0  0  0
  140.2960   75.8760  222.0410 O   0  0  0  0  0  0  0  0  0  0  0  0
  139.8910   72.4380  222.3010 C   0  0  0  0  0  0  0  0  0  0  0  0
  138.9620   71.4770  221.9370 C   0  0  0  0  0  0  0  0  0  0  0  0
  138.7820   70.3740  222.7510 C   0  0  0  0  0  0  0  0  0  0  0  0
  139.4870   70.1880  223.9150 C   0  0  0  0  0  0  0  0  0  0  0  0
  140.4080   71.1710  224.2480 C   0  0  0  0  0  0  0  0  0  0  0  0
  141.3260   70.9760  225.7150 Cl  0  0  0  0  0  0  0  0  0  0  0  0
  140.6140   72.2890  223.4530 C   0  0  0  0  0  0  0  0  0  0  0  0
  140.7050   79.1300  221.3540 C   0  0  0  0  0  0  0  0  0  0  0  0
  141.3260   79.9800  222.2510 C   0  0  0  0  0  0  0  0  0  0  0  0
  140.6230   80.5510  223.2920 C   0  0  0  0  0  0  0  0  0  0  0  0
  139.2760   80.2480  223.4100 C   0  0  0  0  0  0  0  0  0  0  0  0
  138.5090   80.7810  224.4250 C   0  0  0  0  0  0  0  0  0  0  0  0
  137.1680   80.4840  224.5510 C   0  0  0  0  0  0  0  0  0  0  0  0
  136.4410   81.0290  225.5660 F   0  0  0  0  0  0  0  0  0  0  0  0
  136.5850   79.6300  223.6330 C   0  0  0  0  0  0  0  0  0  0  0  0
  137.3240   79.0770  222.6010 C   0  0  0  0  0  0  0  0  0  0  0  0
  138.6730   79.3960  222.5040 C   0  0  0  0  0  0  0  0  0  0  0  0
  139.3880   78.8450  221.4850 N   0  0  0  0  0  0  0  0  0  0  0  0
  142.0810   76.9020  221.4170 H   0  0  0  0  0  0  0  0  0  0  0  0
  142.6100   77.3362  218.4947 H   0  0  0  0  0  0  0  0  0  0  0  0
  144.0420   77.1347  219.6957 H   0  0  0  0  0  0  0  0  0  0  0  0
  145.8803   75.1846  219.9302 H   0  0  0  0  0  0  0  0  0  0  0  0
  145.0175   75.0425  221.4623 H   0  0  0  0  0  0  0  0  0  0  0  0
  146.3839   72.9060  221.4249 H   0  0  0  0  0  0  0  0  0  0  0  0
  146.3620   73.6930  218.9090 H   0  0  0  0  0  0  0  0  0  0  0  0
  144.5113   71.3170  220.5173 H   0  0  0  0  0  0  0  0  0  0  0  0
  143.9531   72.4401  221.7477 H   0  0  0  0  0  0  0  0  0  0  0  0
  143.5879   72.5949  218.7009 H   0  0  0  0  0  0  0  0  0  0  0  0
  141.9270   74.5760  221.4750 H   0  0  0  0  0  0  0  0  0  0  0  0
  139.4967   73.3951  220.4484 H   0  0  0  0  0  0  0  0  0  0  0  0
  138.5619   75.1248  221.2940 H   0  0  0  0  0  0  0  0  0  0  0  0
  139.0316   74.5904  222.9598 H   0  0  0  0  0  0  0  0  0  0  0  0
  139.7760   76.6930  221.8040 H   0  0  0  0  0  0  0  0  0  0  0  0
  138.3757   71.5899  221.0132 H   0  0  0  0  0  0  0  0  0  0  0  0
  138.0439   69.6143  222.4543 H   0  0  0  0  0  0  0  0  0  0  0  0
  139.3295   69.3045  224.5510 H   0  0  0  0  0  0  0  0  0  0  0  0
  141.3526   73.0495  223.7464 H   0  0  0  0  0  0  0  0  0  0  0  0
  142.3964   80.2042  222.1328 H   0  0  0  0  0  0  0  0  0  0  0  0
  141.1168   81.2261  224.0064 H   0  0  0  0  0  0  0  0  0  0  0  0
  138.9785   81.4599  225.1521 H   0  0  0  0  0  0  0  0  0  0  0  0
  135.5163   79.3859  223.7241 H   0  0  0  0  0  0  0  0  0  0  0  0
  136.8533   78.3995  221.8734 H   0  0  0  0  0  0  0  0  0  0  0  0
  1  2  2  0
  2  3  1  0
  3  4  1  0
  4  5  1  0
  5  6  2  0
  5  7  1  0
  7  8  1  0
  8  9  1  0
  9 10  1  0
  9 11  1  0
 11 12  1  0
 12 13  1  0
 13 14  2  0
 13 15  1  0
 15 16  1  0
 16 17  1  0
 17 18  1  0
 16 19  1  0
 19 20  2  0
 20 21  1  0
 21 22  2  0
 22 23  1  0
 23 24  1  0
 23 25  2  0
  2 26  1  0
 26 27  2  0
 27 28  1  0
 28 29  2  0
 29 30  1  0
 30 31  2  0
 31 32  1  0
 31 33  1  0
 33 34  2  0
 34 35  1  0
 35 36  2  0
 12  7  1  0
 25 19  1  0
 36 26  1  0
 35 29  1  0
  3 37  1  0
  4 38  1  0
  4 39  1  0
  8 40  1  0
  8 41  1  0
  9 42  1  1
 10 43  1  0
 11 44  1  0
 11 45  1  0
 12 46  1  6
 15 47  1  0
 16 48  1  6
 17 49  1  0
 17 50  1  0
 18 51  1  0
 20 52  1  0
 21 53  1  0
 22 54  1  0
 25 55  1  0
 27 56  1  0
 28 57  1  0
 30 58  1  0
 33 59  1  0
 34 60  1  0
M  END
>  <smiles>  (2) 
O=C(NCC(=O)N1C[C@H](O)C[C@H]1C(=O)N[C@H](CO)c1cccc(Cl)c1)c1ccc2cc(F)ccc2n1

>  <score_type>  (2) 
oracle

>  <origin>  (2) 
autodockgpu

>  <m_score__min__energy>  (2) 
-8.9600000000000009

>  <m_primary>  (2) 
energy

>  <meeko>  (2) 
{"free_energy": -7.32, "intermolecular_energy": -10.3, "internal_energy": -4.27, "cluster_size": 1, "cluster_id": 8, "rank_in_cluster": 1}

>  <energy>  (2) 
-7.8

>  <cluster_rmsd>  (2) 
1.77

>  <rmsd>  (2) 
270.59

>  <cluster>  (2) 
1

$$$$

     RDKit          3D

 60 63  0  0  0  0  0  0  0  0999 V2000
  136.9720   69.9200  222.0460 O   0  0  0  0  0  0  0  0  0  0  0  0
  137.4720   70.6530  222.9460 C   0  0  0  0  0  0  0  0  0  0  0  0
  137.2330   72.0680  222.8290 N   0  0  0  0  0  0  0  0  0  0  0  0
  136.4590   72.4920  221.7110 C   0  0  0  0  0  0  0  0  0  0  0  0
  136.7090   73.7880  221.1030 C   0  0  0  0  0  0  0  0  0  0  0  0
  136.7080   73.7610  219.7960 O   0  0  0  0  0  0  0  0  0  0  0  0
  136.9480   75.0470  221.7140 N   0  0  0  0  0  0  0  0  0  0  0  0
  136.1680   75.8010  222.6690 C   0  0  0  0  0  0  0  0  0  0  0  0
  136.8110   77.1960  222.6940 C   0  0  2  0  0  0  0  0  0  0  0  0
  136.3110   77.8670  221.5840 O   0  0  0  0  0  0  0  0  0  0  0  0
  138.2460   76.8300  222.4770 C   0  0  0  0  0  0  0  0  0  0  0  0
  138.1930   75.7860  221.4040 C   0  0  1  0  0  0  0  0  0  0  0  0
  139.3880   74.8910  221.5230 C   0  0  0  0  0  0  0  0  0  0  0  0
  140.3000   75.2210  222.3550 O   0  0  0  0  0  0  0  0  0  0  0  0
  139.5390   73.7050  220.7560 N   0  0  0  0  0  0  0  0  0  0  0  0
  140.7200   72.8740  220.9050 C   0  0  2  0  0  0  0  0  0  0  0  0
  140.8770   72.2820  222.2680 C   0  0  0  0  0  0  0  0  0  0  0  0
  139.7860   72.5670  223.0770 O   0  0  0  0  0  0  0  0  0  0  0  0
  141.9340   73.6290  220.4970 C   0  0  0  0  0  0  0  0  0  0  0  0
  141.7280   74.7430  219.7000 C   0  0  0  0  0  0  0  0  0  0  0  0
  142.8200   75.4850  219.2890 C   0  0  0  0  0  0  0  0  0  0  0  0
  144.1090   75.1640  219.6380 C   0  0  0  0  0  0  0  0  0  0  0  0
  144.2770   74.0420  220.4370 C   0  0  0  0  0  0  0  0  0  0  0  0
  145.8930   73.5970  220.9050 Cl  0  0  0  0  0  0  0  0  0  0  0  0
  143.2020   73.2760  220.8660 C   0  0  0  0  0  0  0  0  0  0  0  0
  138.2510   70.1360  224.0570 C   0  0  0  0  0  0  0  0  0  0  0  0
  138.3180   68.7600  224.1890 C   0  0  0  0  0  0  0  0  0  0  0  0
  139.0350   68.1790  225.2140 C   0  0  0  0  0  0  0  0  0  0  0  0
  139.6880   69.0160  226.1060 C   0  0  0  0  0  0  0  0  0  0  0  0
  140.4230   68.5070  227.1560 C   0  0  0  0  0  0  0  0  0  0  0  0
  141.0750   69.3320  228.0490 C   0  0  0  0  0  0  0  0  0  0  0  0
  141.7930   68.7940  229.0740 F   0  0  0  0  0  0  0  0  0  0  0  0
  140.9840   70.7010  227.8810 C   0  0  0  0  0  0  0  0  0  0  0  0
  140.2540   71.2470  226.8390 C   0  0  0  0  0  0  0  0  0  0  0  0
  139.6080   70.3880  225.9580 C   0  0  0  0  0  0  0  0  0  0  0  0
  138.8950   70.9370  224.9380 N   0  0  0  0  0  0  0  0  0  0  0  0
  137.6640   72.6420  223.5700 H   0  0  0  0  0  0  0  0  0  0  0  0
  136.6014   71.7386  220.9223 H   0  0  0  0  0  0  0  0  0  0  0  0
  135.4479   72.6006  222.1304 H   0  0  0  0  0  0  0  0  0  0  0  0
  135.1183   75.8648  222.3465 H   0  0  0  0  0  0  0  0  0  0  0  0
  136.1638   75.3299  223.6630 H   0  0  0  0  0  0  0  0  0  0  0  0
  136.6433   77.8182  223.5855 H   0  0  0  0  0  0  0  0  0  0  0  0
  135.7030   78.5760  221.9430 H   0  0  0  0  0  0  0  0  0  0  0  0
  138.8268   77.7032  222.1451 H   0  0  0  0  0  0  0  0  0  0  0  0
  138.7358   76.4712  223.3943 H   0  0  0  0  0  0  0  0  0  0  0  0
  138.2007   76.1925  220.3819 H   0  0  0  0  0  0  0  0  0  0  0  0
  138.8230   73.3730  220.0760 H   0  0  0  0  0  0  0  0  0  0  0  0
  140.5841   72.0142  220.2325 H   0  0  0  0  0  0  0  0  0  0  0  0
  140.9764   71.1905  222.1740 H   0  0  0  0  0  0  0  0  0  0  0  0
  141.7733   72.7193  222.7321 H   0  0  0  0  0  0  0  0  0  0  0  0
  139.8070   73.5550  223.2100 H   0  0  0  0  0  0  0  0  0  0  0  0
  140.7107   75.0331  219.3985 H   0  0  0  0  0  0  0  0  0  0  0  0
  142.6494   76.3687  218.6565 H   0  0  0  0  0  0  0  0  0  0  0  0
  144.9655   75.7663  219.3009 H   0  0  0  0  0  0  0  0  0  0  0  0
  143.3691   72.3915  221.4982 H   0  0  0  0  0  0  0  0  0  0  0  0
  137.7915   68.1201  223.4656 H   0  0  0  0  0  0  0  0  0  0  0  0
  139.0872   67.0854  225.3206 H   0  0  0  0  0  0  0  0  0  0  0  0
  140.4911   67.4167  227.2846 H   0  0  0  0  0  0  0  0  0  0  0  0
  141.5003   71.3679  228.5871 H   0  0  0  0  0  0  0  0  0  0  0  0
  140.1867   72.3375  226.7112 H   0  0  0  0  0  0  0  0  0  0  0  0
  1  2  2  0
  2  3  1  0
  3  4  1  0
  4  5  1  0
  5  6  2  0
  5  7  1  0
  7  8  1  0
  8  9  1  0
  9 10  1  0
  9 11  1  0
 11 12  1  0
 12 13  1  0
 13 14  2  0
 13 15  1  0
 15 16  1  0
 16 17  1  0
 17 18  1  0
 16 19  1  0
 19 20  2  0
 20 21  1  0
 21 22  2  0
 22 23  1  0
 23 24  1  0
 23 25  2  0
  2 26  1  0
 26 27  2  0
 27 28  1  0
 28 29  2  0
 29 30  1  0
 30 31  2  0
 31 32  1  0
 31 33  1  0
 33 34  2  0
 34 35  1  0
 35 36  2  0
 12  7  1  0
 25 19  1  0
 36 26  1  0
 35 29  1  0
  3 37  1  0
  4 38  1  0
  4 39  1  0
  8 40  1  0
  8 41  1  0
  9 42  1  1
 10 43  1  0
 11 44  1  0
 11 45  1  0
 12 46  1  6
 15 47  1  0
 16 48  1  6
 17 49  1  0
 17 50  1  0
 18 51  1  0
 20 52  1  0
 21 53  1  0
 22 54  1  0
 25 55  1  0
 27 56  1  0
 28 57  1  0
 30 58  1  0
 33 59  1  0
 34 60  1  0
M  END
>  <smiles>  (3) 
O=C(NCC(=O)N1C[C@H](O)C[C@H]1C(=O)N[C@H](CO)c1cccc(Cl)c1)c1ccc2cc(F)ccc2n1

>  <score_type>  (3) 
oracle

>  <origin>  (3) 
autodockgpu

>  <m_score__min__energy>  (3) 
-8.9600000000000009

>  <m_primary>  (3) 
energy

>  <meeko>  (3) 
{"free_energy": -7.61, "intermolecular_energy": -10.6, "internal_energy": -4.3, "cluster_size": 1, "cluster_id": 5, "rank_in_cluster": 1}

>  <energy>  (3) 
-7.3

>  <cluster_rmsd>  (3) 
1.64

>  <rmsd>  (3) 
270.53

>  <cluster>  (3) 
1

$$$$

     RDKit          3D

 60 63  0  0  0  0  0  0  0  0999 V2000
  136.9340   70.1830  222.2450 O   0  0  0  0  0  0  0  0  0  0  0  0
  137.7800   70.8190  222.9360 C   0  0  0  0  0  0  0  0  0  0  0  0
  138.0250   72.1860  222.5550 N   0  0  0  0  0  0  0  0  0  0  0  0
  137.2870   72.6760  221.4380 C   0  0  0  0  0  0  0  0  0  0  0  0
  136.0390   73.3890  221.6480 C   0  0  0  0  0  0  0  0  0  0  0  0
  135.1840   73.2450  220.6700 O   0  0  0  0  0  0  0  0  0  0  0  0
  135.6290   74.2010  222.7380 N   0  0  0  0  0  0  0  0  0  0  0  0
  135.2480   73.8540  224.0880 C   0  0  0  0  0  0  0  0  0  0  0  0
  134.6260   75.1340  224.6670 C   0  0  2  0  0  0  0  0  0  0  0  0
  133.3210   75.1750  224.1880 O   0  0  0  0  0  0  0  0  0  0  0  0
  135.4630   76.1680  223.9830 C   0  0  0  0  0  0  0  0  0  0  0  0
  135.5680   75.6710  222.5730 C   0  0  1  0  0  0  0  0  0  0  0  0
  136.8310   76.1900  221.9570 C   0  0  0  0  0  0  0  0  0  0  0  0
  136.7260   76.9960  220.9700 O   0  0  0  0  0  0  0  0  0  0  0  0
  138.1210   75.8250  222.4240 N   0  0  0  0  0  0  0  0  0  0  0  0
  139.3150   76.3510  221.7880 C   0  0  2  0  0  0  0  0  0  0  0  0
  140.4450   75.3750  221.7170 C   0  0  0  0  0  0  0  0  0  0  0  0
  140.1160   74.1700  222.3210 O   0  0  0  0  0  0  0  0  0  0  0  0
  139.7320   77.6170  222.4480 C   0  0  0  0  0  0  0  0  0  0  0  0
  138.7370   78.3330  223.0930 C   0  0  0  0  0  0  0  0  0  0  0  0
  139.0650   79.5190  223.7250 C   0  0  0  0  0  0  0  0  0  0  0  0
  140.3430   80.0220  223.7400 C   0  0  0  0  0  0  0  0  0  0  0  0
  141.3130   79.2780  223.0840 C   0  0  0  0  0  0  0  0  0  0  0  0
  142.9470   79.8780  223.0780 Cl  0  0  0  0  0  0  0  0  0  0  0  0
  141.0170   78.0850  222.4400 C   0  0  0  0  0  0  0  0  0  0  0  0
  138.4890   70.2400  224.0630 C   0  0  0  0  0  0  0  0  0  0  0  0
  138.4940   68.8600  224.1590 C   0  0  0  0  0  0  0  0  0  0  0  0
  139.1420   68.2220  225.1960 C   0  0  0  0  0  0  0  0  0  0  0  0
  139.7890   69.0060  226.1380 C   0  0  0  0  0  0  0  0  0  0  0  0
  140.4580   68.4390  227.2020 C   0  0  0  0  0  0  0  0  0  0  0  0
  141.1040   69.2110  228.1450 C   0  0  0  0  0  0  0  0  0  0  0  0
  141.7560   68.6170  229.1830 F   0  0  0  0  0  0  0  0  0  0  0  0
  141.0770   70.5880  228.0120 C   0  0  0  0  0  0  0  0  0  0  0  0
  140.4150   71.1910  226.9570 C   0  0  0  0  0  0  0  0  0  0  0  0
  139.7730   70.3830  226.0250 C   0  0  0  0  0  0  0  0  0  0  0  0
  139.1270   70.9890  224.9920 N   0  0  0  0  0  0  0  0  0  0  0  0
  138.7290   72.6750  223.1280 H   0  0  0  0  0  0  0  0  0  0  0  0
  137.9544   73.3584  220.8912 H   0  0  0  0  0  0  0  0  0  0  0  0
  136.9697   71.7577  220.9223 H   0  0  0  0  0  0  0  0  0  0  0  0
  134.5138   73.0349  224.0841 H   0  0  0  0  0  0  0  0  0  0  0  0
  136.1053   73.5056  224.6827 H   0  0  0  0  0  0  0  0  0  0  0  0
  134.6018   75.2384  225.7618 H   0  0  0  0  0  0  0  0  0  0  0  0
  133.2800   74.5070  223.4440 H   0  0  0  0  0  0  0  0  0  0  0  0
  134.9732   77.1524  224.0156 H   0  0  0  0  0  0  0  0  0  0  0  0
  136.4451   76.3024  224.4599 H   0  0  0  0  0  0  0  0  0  0  0  0
  134.7410   75.9907  221.9219 H   0  0  0  0  0  0  0  0  0  0  0  0
  138.2720   75.1880  223.2350 H   0  0  0  0  0  0  0  0  0  0  0  0
  139.0469   76.5569  220.7412 H   0  0  0  0  0  0  0  0  0  0  0  0
  140.6913   75.1898  220.6610 H   0  0  0  0  0  0  0  0  0  0  0  0
  141.3055   75.8045  222.2508 H   0  0  0  0  0  0  0  0  0  0  0  0
  139.5400   74.4120  223.0980 H   0  0  0  0  0  0  0  0  0  0  0  0
  137.7009   77.9638  223.1025 H   0  0  0  0  0  0  0  0  0  0  0  0
  138.2702   80.0820  224.2362 H   0  0  0  0  0  0  0  0  0  0  0  0
  140.5854   80.9677  224.2469 H   0  0  0  0  0  0  0  0  0  0  0  0
  141.8095   77.5203  221.9272 H   0  0  0  0  0  0  0  0  0  0  0  0
  137.9731   68.2623  223.3965 H   0  0  0  0  0  0  0  0  0  0  0  0
  139.1452   67.1247  225.2730 H   0  0  0  0  0  0  0  0  0  0  0  0
  140.4770   67.3437  227.3013 H   0  0  0  0  0  0  0  0  0  0  0  0
  141.5902   71.2136  228.7571 H   0  0  0  0  0  0  0  0  0  0  0  0
  140.3970   72.2864  226.8577 H   0  0  0  0  0  0  0  0  0  0  0  0
  1  2  2  0
  2  3  1  0
  3  4  1  0
  4  5  1  0
  5  6  2  0
  5  7  1  0
  7  8  1  0
  8  9  1  0
  9 10  1  0
  9 11  1  0
 11 12  1  0
 12 13  1  0
 13 14  2  0
 13 15  1  0
 15 16  1  0
 16 17  1  0
 17 18  1  0
 16 19  1  0
 19 20  2  0
 20 21  1  0
 21 22  2  0
 22 23  1  0
 23 24  1  0
 23 25  2  0
  2 26  1  0
 26 27  2  0
 27 28  1  0
 28 29  2  0
 29 30  1  0
 30 31  2  0
 31 32  1  0
 31 33  1  0
 33 34  2  0
 34 35  1  0
 35 36  2  0
 12  7  1  0
 25 19  1  0
 36 26  1  0
 35 29  1  0
  3 37  1  0
  4 38  1  0
  4 39  1  0
  8 40  1  0
  8 41  1  0
  9 42  1  1
 10 43  1  0
 11 44  1  0
 11 45  1  0
 12 46  1  6
 15 47  1  0
 16 48  1  6
 17 49  1  0
 17 50  1  0
 18 51  1  0
 20 52  1  0
 21 53  1  0
 22 54  1  0
 25 55  1  0
 27 56  1  0
 28 57  1  0
 30 58  1  0
 33 59  1  0
 34 60  1  0
M  END
>  <smiles>  (4) 
O=C(NCC(=O)N1C[C@H](O)C[C@H]1C(=O)N[C@H](CO)c1cccc(Cl)c1)c1ccc2cc(F)ccc2n1

>  <score_type>  (4) 
oracle

>  <origin>  (4) 
autodockgpu

>  <m_score__min__energy>  (4) 
-8.9600000000000009

>  <m_primary>  (4) 
energy

>  <meeko>  (4) 
{"free_energy": -8.95, "intermolecular_energy": -11.93, "internal_energy": -3.52, "cluster_size": 10, "cluster_id": 2, "rank_in_cluster": 1}

>  <energy>  (4) 
-6.74

>  <cluster_rmsd>  (4) 
1.62

>  <rmsd>  (4) 
270.11

>  <cluster>  (4) 
1

$$$$

     RDKit          3D

 60 63  0  0  0  0  0  0  0  0999 V2000
  138.5340   70.5700  221.2610 O   0  0  0  0  0  0  0  0  0  0  0  0
  138.6650   71.1400  222.3810 C   0  0  0  0  0  0  0  0  0  0  0  0
  138.3690   72.5490  222.4240 N   0  0  0  0  0  0  0  0  0  0  0  0
  137.9600   73.1500  221.1990 C   0  0  0  0  0  0  0  0  0  0  0  0
  138.9140   73.3110  220.1140 C   0  0  0  0  0  0  0  0  0  0  0  0
  138.6130   74.2830  219.2940 O   0  0  0  0  0  0  0  0  0  0  0  0
  140.0950   72.5780  219.8280 N   0  0  0  0  0  0  0  0  0  0  0  0
  140.3320   71.4780  218.9210 C   0  0  0  0  0  0  0  0  0  0  0  0
  141.7220   70.9430  219.3000 C   0  0  2  0  0  0  0  0  0  0  0  0
  141.5290   70.1330  220.4130 O   0  0  0  0  0  0  0  0  0  0  0  0
  142.3970   72.2190  219.6950 C   0  0  0  0  0  0  0  0  0  0  0  0
  141.3620   72.9390  220.5040 C   0  0  1  0  0  0  0  0  0  0  0  0
  141.6070   74.4140  220.4250 C   0  0  0  0  0  0  0  0  0  0  0  0
  142.2840   74.9580  221.3630 O   0  0  0  0  0  0  0  0  0  0  0  0
  141.1230   75.2180  219.3590 N   0  0  0  0  0  0  0  0  0  0  0  0
  141.3830   76.6450  219.3310 C   0  0  2  0  0  0  0  0  0  0  0  0
  142.7870   76.9990  218.9600 C   0  0  0  0  0  0  0  0  0  0  0  0
  143.7080   76.2970  219.7260 O   0  0  0  0  0  0  0  0  0  0  0  0
  140.9910   77.2640  220.6250 C   0  0  0  0  0  0  0  0  0  0  0  0
  139.7740   76.8670  221.1550 C   0  0  0  0  0  0  0  0  0  0  0  0
  139.3560   77.4090  222.3570 C   0  0  0  0  0  0  0  0  0  0  0  0
  140.1000   78.3290  223.0530 C   0  0  0  0  0  0  0  0  0  0  0  0
  141.3130   78.7030  222.4930 C   0  0  0  0  0  0  0  0  0  0  0  0
  142.2890   79.8680  223.3410 Cl  0  0  0  0  0  0  0  0  0  0  0  0
  141.7610   78.1790  221.2880 C   0  0  0  0  0  0  0  0  0  0  0  0
  139.0880   70.4490  223.5860 C   0  0  0  0  0  0  0  0  0  0  0  0
  138.8580   69.0860  223.6400 C   0  0  0  0  0  0  0  0  0  0  0  0
  139.2260   68.3460  224.7440 C   0  0  0  0  0  0  0  0  0  0  0  0
  139.8350   69.0110  225.7970 C   0  0  0  0  0  0  0  0  0  0  0  0
  140.2310   68.3370  226.9340 C   0  0  0  0  0  0  0  0  0  0  0  0
  140.8360   68.9910  227.9870 C   0  0  0  0  0  0  0  0  0  0  0  0
  141.2150   68.2940  229.0950 F   0  0  0  0  0  0  0  0  0  0  0  0
  141.0490   70.3540  227.8940 C   0  0  0  0  0  0  0  0  0  0  0  0
  140.6650   71.0610  226.7680 C   0  0  0  0  0  0  0  0  0  0  0  0
  140.0560   70.3730  225.7250 C   0  0  0  0  0  0  0  0  0  0  0  0
  139.6840   71.0800  224.6240 N   0  0  0  0  0  0  0  0  0  0  0  0
  138.4980   72.9900  223.3470 H   0  0  0  0  0  0  0  0  0  0  0  0
  137.1330   72.5400  220.8067 H   0  0  0  0  0  0  0  0  0  0  0  0
  137.7309   74.1858  221.4898 H   0  0  0  0  0  0  0  0  0  0  0  0
  139.5682   70.6973  219.0521 H   0  0  0  0  0  0  0  0  0  0  0  0
  140.2831   71.7925  217.8681 H   0  0  0  0  0  0  0  0  0  0  0  0
  142.2722   70.3689  218.5400 H   0  0  0  0  0  0  0  0  0  0  0  0
  140.5660   70.2380  220.6660 H   0  0  0  0  0  0  0  0  0  0  0  0
  143.2942   72.0166  220.2984 H   0  0  0  0  0  0  0  0  0  0  0  0
  142.7399   72.8033  218.8284 H   0  0  0  0  0  0  0  0  0  0  0  0
  141.3631   72.6738  221.5715 H   0  0  0  0  0  0  0  0  0  0  0  0
  140.5820   74.8310  218.5570 H   0  0  0  0  0  0  0  0  0  0  0  0
  140.7594   77.0601  218.5255 H   0  0  0  0  0  0  0  0  0  0  0  0
  142.9477   76.7587  217.8987 H   0  0  0  0  0  0  0  0  0  0  0  0
  142.9323   78.0736  219.1445 H   0  0  0  0  0  0  0  0  0  0  0  0
  143.2730   76.1730  220.6140 H   0  0  0  0  0  0  0  0  0  0  0  0
  139.1491   76.1313  220.6275 H   0  0  0  0  0  0  0  0  0  0  0  0
  138.3885   77.0900  222.7718 H   0  0  0  0  0  0  0  0  0  0  0  0
  139.7515   78.7491  224.0080 H   0  0  0  0  0  0  0  0  0  0  0  0
  142.7274   78.4973  220.8700 H   0  0  0  0  0  0  0  0  0  0  0  0
  138.3740   68.5845  222.7890 H   0  0  0  0  0  0  0  0  0  0  0  0
  139.0421   67.2624  224.7877 H   0  0  0  0  0  0  0  0  0  0  0  0
  140.0602   67.2525  227.0023 H   0  0  0  0  0  0  0  0  0  0  0  0
  141.5313   70.8847  228.7281 H   0  0  0  0  0  0  0  0  0  0  0  0
  140.8381   72.1451  226.6998 H   0  0  0  0  0  0  0  0  0  0  0  0
  1  2  2  0
  2  3  1  0
  3  4  1  0
  4  5  1  0
  5  6  2  0
  5  7  1  0
  7  8  1  0
  8  9  1  0
  9 10  1  0
  9 11  1  0
 11 12  1  0
 12 13  1  0
 13 14  2  0
 13 15  1  0
 15 16  1  0
 16 17  1  0
 17 18  1  0
 16 19  1  0
 19 20  2  0
 20 21  1  0
 21 22  2  0
 22 23  1  0
 23 24  1  0
 23 25  2  0
  2 26  1  0
 26 27  2  0
 27 28  1  0
 28 29  2  0
 29 30  1  0
 30 31  2  0
 31 32  1  0
 31 33  1  0
 33 34  2  0
 34 35  1  0
 35 36  2  0
 12  7  1  0
 25 19  1  0
 36 26  1  0
 35 29  1  0
  3 37  1  0
  4 38  1  0
  4 39  1  0
  8 40  1  0
  8 41  1  0
  9 42  1  6
 10 43  1  0
 11 44  1  0
 11 45  1  0
 12 46  1  1
 15 47  1  0
 16 48  1  6
 17 49  1  0
 17 50  1  0
 18 51  1  0
 20 52  1  0
 21 53  1  0
 22 54  1  0
 25 55  1  0
 27 56  1  0
 28 57  1  0
 30 58  1  0
 33 59  1  0
 34 60  1  0
M  END
>  <smiles>  (5) 
O=C(NCC(=O)N1C[C@H](O)C[C@H]1C(=O)N[C@H](CO)c1cccc(Cl)c1)c1ccc2cc(F)ccc2n1

>  <score_type>  (5) 
oracle

>  <origin>  (5) 
autodockgpu

>  <m_score__min__energy>  (5) 
-8.9600000000000009

>  <m_primary>  (5) 
energy

>  <meeko>  (5) 
{"free_energy": -6.74, "intermolecular_energy": -9.72, "internal_energy": -4.59, "cluster_size": 4, "cluster_id": 1, "rank_in_cluster": 4}

>  <energy>  (5) 
-8.95

>  <cluster_rmsd>  (5) 
0.0

>  <rmsd>  (5) 
270.47

>  <cluster>  (5) 
2

$$$$

     RDKit          3D

 60 63  0  0  0  0  0  0  0  0999 V2000
  139.3970   72.9850  222.6150 O   0  0  0  0  0  0  0  0  0  0  0  0
  139.6490   71.7510  222.7150 C   0  0  0  0  0  0  0  0  0  0  0  0
  139.5420   70.9720  221.5090 N   0  0  0  0  0  0  0  0  0  0  0  0
  139.1630   71.6760  220.3290 C   0  0  0  0  0  0  0  0  0  0  0  0
  140.1300   72.5110  219.6380 C   0  0  0  0  0  0  0  0  0  0  0  0
  139.6380   73.1280  218.5970 O   0  0  0  0  0  0  0  0  0  0  0  0
  141.5000   72.7430  219.9270 N   0  0  0  0  0  0  0  0  0  0  0  0
  142.7000   72.2450  219.2930 C   0  0  0  0  0  0  0  0  0  0  0  0
  143.8400   72.6150  220.2560 C   0  0  2  0  0  0  0  0  0  0  0  0
  143.8280   71.6460  221.2530 O   0  0  0  0  0  0  0  0  0  0  0  0
  143.3250   73.9150  220.7880 C   0  0  0  0  0  0  0  0  0  0  0  0
  141.8710   73.6530  221.0350 C   0  0  1  0  0  0  0  0  0  0  0  0
  141.1110   74.9410  220.9420 C   0  0  0  0  0  0  0  0  0  0  0  0
  141.3300   75.6910  219.9310 O   0  0  0  0  0  0  0  0  0  0  0  0
  140.1700   75.3510  221.9240 N   0  0  0  0  0  0  0  0  0  0  0  0
  139.4640   76.6120  221.7910 C   0  0  2  0  0  0  0  0  0  0  0  0
  138.6400   76.7180  220.5480 C   0  0  0  0  0  0  0  0  0  0  0  0
  138.3810   75.4680  220.0010 O   0  0  0  0  0  0  0  0  0  0  0  0
  140.4160   77.7480  221.9100 C   0  0  0  0  0  0  0  0  0  0  0  0
  141.0650   77.8840  223.1260 C   0  0  0  0  0  0  0  0  0  0  0  0
  141.9620   78.9230  223.2950 C   0  0  0  0  0  0  0  0  0  0  0  0
  142.2400   79.8320  222.3040 C   0  0  0  0  0  0  0  0  0  0  0  0
  141.5720   79.6640  221.1000 C   0  0  0  0  0  0  0  0  0  0  0  0
  141.8930   80.7930  219.8140 Cl  0  0  0  0  0  0  0  0  0  0  0  0
  140.6650   78.6320  220.8970 C   0  0  0  0  0  0  0  0  0  0  0  0
  140.0310   71.1120  223.9620 C   0  0  0  0  0  0  0  0  0  0  0  0
  140.7290   71.8830  224.8740 C   0  0  0  0  0  0  0  0  0  0  0  0
  141.1340   71.3610  226.0850 C   0  0  0  0  0  0  0  0  0  0  0  0
  140.8170   70.0400  226.3600 C   0  0  0  0  0  0  0  0  0  0  0  0
  141.1880   69.4500  227.5500 C   0  0  0  0  0  0  0  0  0  0  0  0
  140.8780   68.1350  227.8320 C   0  0  0  0  0  0  0  0  0  0  0  0
  141.2600   67.5840  229.0190 F   0  0  0  0  0  0  0  0  0  0  0  0
  140.1780   67.3980  226.8950 C   0  0  0  0  0  0  0  0  0  0  0  0
  139.7900   67.9590  225.6910 C   0  0  0  0  0  0  0  0  0  0  0  0
  140.1190   69.2850  225.4370 C   0  0  0  0  0  0  0  0  0  0  0  0
  139.7310   69.8240  224.2490 N   0  0  0  0  0  0  0  0  0  0  0  0
  139.7400   69.9670  221.6240 H   0  0  0  0  0  0  0  0  0  0  0  0
  138.8209   70.9214  219.6054 H   0  0  0  0  0  0  0  0  0  0  0  0
  138.4202   72.4001  220.6948 H   0  0  0  0  0  0  0  0  0  0  0  0
  142.6437   71.1544  219.1610 H   0  0  0  0  0  0  0  0  0  0  0  0
  142.8481   72.6756  218.2917 H   0  0  0  0  0  0  0  0  0  0  0  0
  144.8568   72.6788  219.8413 H   0  0  0  0  0  0  0  0  0  0  0  0
  144.7650   71.6000  221.6010 H   0  0  0  0  0  0  0  0  0  0  0  0
  143.8380   74.1861  221.7225 H   0  0  0  0  0  0  0  0  0  0  0  0
  143.4932   74.7530  220.0956 H   0  0  0  0  0  0  0  0  0  0  0  0
  141.6547   73.2263  222.0255 H   0  0  0  0  0  0  0  0  0  0  0  0
  139.9350   74.7750  222.7600 H   0  0  0  0  0  0  0  0  0  0  0  0
  138.7414   76.6547  222.6193 H   0  0  0  0  0  0  0  0  0  0  0  0
  137.6850   77.2059  220.7928 H   0  0  0  0  0  0  0  0  0  0  0  0
  139.2032   77.3078  219.8098 H   0  0  0  0  0  0  0  0  0  0  0  0
  139.2480   75.1630  219.6160 H   0  0  0  0  0  0  0  0  0  0  0  0
  140.8699   77.1762  223.9451 H   0  0  0  0  0  0  0  0  0  0  0  0
  142.4739   79.0255  224.2632 H   0  0  0  0  0  0  0  0  0  0  0  0
  142.9566   80.6524  222.4573 H   0  0  0  0  0  0  0  0  0  0  0  0
  140.1515   78.5267  219.9299 H   0  0  0  0  0  0  0  0  0  0  0  0
  140.9649   72.9292  224.6297 H   0  0  0  0  0  0  0  0  0  0  0  0
  141.6908   71.9736  226.8093 H   0  0  0  0  0  0  0  0  0  0  0  0
  141.7442   70.0415  228.2921 H   0  0  0  0  0  0  0  0  0  0  0  0
  139.9255   66.3492  227.1099 H   0  0  0  0  0  0  0  0  0  0  0  0
  139.2324   67.3673  224.9500 H   0  0  0  0  0  0  0  0  0  0  0  0
  1  2  2  0
  2  3  1  0
  3  4  1  0
  4  5  1  0
  5  6  2  0
  5  7  1  0
  7  8  1  0
  8  9  1  0
  9 10  1  0
  9 11  1  0
 11 12  1  0
 12 13  1  0
 13 14  2  0
 13 15  1  0
 15 16  1  0
 16 17  1  0
 17 18  1  0
 16 19  1  0
 19 20  2  0
 20 21  1  0
 21 22  2  0
 22 23  1  0
 23 24  1  0
 23 25  2  0
  2 26  1  0
 26 27  2  0
 27 28  1  0
 28 29  2  0
 29 30  1  0
 30 31  2  0
 31 32  1  0
 31 33  1  0
 33 34  2  0
 34 35  1  0
 35 36  2  0
 12  7  1  0
 25 19  1  0
 36 26  1  0
 35 29  1  0
  3 37  1  0
  4 38  1  0
  4 39  1  0
  8 40  1  0
  8 41  1  0
  9 42  1  6
 10 43  1  0
 11 44  1  0
 11 45  1  0
 12 46  1  1
 15 47  1  0
 16 48  1  1
 17 49  1  0
 17 50  1  0
 18 51  1  0
 20 52  1  0
 21 53  1  0
 22 54  1  0
 25 55  1  0
 27 56  1  0
 28 57  1  0
 30 58  1  0
 33 59  1  0
 34 60  1  0
M  END
>  <smiles>  (6) 
O=C(NCC(=O)N1C[C@H](O)C[C@H]1C(=O)N[C@H](CO)c1cccc(Cl)c1)c1ccc2cc(F)ccc2n1

>  <score_type>  (6) 
oracle

>  <origin>  (6) 
autodockgpu

>  <m_score__min__energy>  (6) 
-8.9600000000000009

>  <m_primary>  (6) 
energy

>  <meeko>  (6) 
{"free_energy": -7.3, "intermolecular_energy": -10.28, "internal_energy": -4.47, "cluster_size": 4, "cluster_id": 1, "rank_in_cluster": 3}

>  <energy>  (6) 
-8.58

>  <cluster_rmsd>  (6) 
0.89

>  <rmsd>  (6) 
270.53

>  <cluster>  (6) 
2

$$$$

     RDKit          3D

 60 63  0  0  0  0  0  0  0  0999 V2000
  139.5390   72.9760  222.6430 O   0  0  0  0  0  0  0  0  0  0  0  0
  139.2330   71.7960  222.9780 C   0  0  0  0  0  0  0  0  0  0  0  0
  138.3510   71.0830  222.0900 N   0  0  0  0  0  0  0  0  0  0  0  0
  137.9170   71.7840  220.9280 C   0  0  0  0  0  0  0  0  0  0  0  0
  137.0340   72.9310  221.0590 C   0  0  0  0  0  0  0  0  0  0  0  0
  136.7150   73.4770  219.9160 O   0  0  0  0  0  0  0  0  0  0  0  0
  136.4860   73.5270  222.2240 N   0  0  0  0  0  0  0  0  0  0  0  0
  136.2240   72.9790  223.5360 C   0  0  0  0  0  0  0  0  0  0  0  0
  135.3540   74.0320  224.2400 C   0  0  2  0  0  0  0  0  0  0  0  0
  134.0600   73.8330  223.7730 O   0  0  0  0  0  0  0  0  0  0  0  0
  135.9300   75.2840  223.6570 C   0  0  0  0  0  0  0  0  0  0  0  0
  136.1040   74.9580  222.2050 C   0  0  1  0  0  0  0  0  0  0  0  0
  137.2080   75.7950  221.6370 C   0  0  0  0  0  0  0  0  0  0  0  0
  136.8950   76.7040  220.7940 O   0  0  0  0  0  0  0  0  0  0  0  0
  138.5710   75.6190  221.9980 N   0  0  0  0  0  0  0  0  0  0  0  0
  139.6050   76.4540  221.4140 C   0  0  2  0  0  0  0  0  0  0  0  0
  140.8800   75.7280  221.1270 C   0  0  0  0  0  0  0  0  0  0  0  0
  141.0480   74.6400  221.9730 O   0  0  0  0  0  0  0  0  0  0  0  0
  139.8400   77.6500  222.2660 C   0  0  0  0  0  0  0  0  0  0  0  0
  141.1580   77.9260  222.5900 C   0  0  0  0  0  0  0  0  0  0  0  0
  141.4390   79.0260  223.3800 C   0  0  0  0  0  0  0  0  0  0  0  0
  140.4610   79.8620  223.8610 C   0  0  0  0  0  0  0  0  0  0  0  0
  139.1530   79.5540  223.5160 C   0  0  0  0  0  0  0  0  0  0  0  0
  137.8810   80.5870  224.1030 Cl  0  0  0  0  0  0  0  0  0  0  0  0
  138.8380   78.4580  222.7250 C   0  0  0  0  0  0  0  0  0  0  0  0
  139.7240   71.1550  224.1850 C   0  0  0  0  0  0  0  0  0  0  0  0
  140.6200   71.8730  224.9570 C   0  0  0  0  0  0  0  0  0  0  0  0
  141.1390   71.3440  226.1200 C   0  0  0  0  0  0  0  0  0  0  0  0
  140.7330   70.0720  226.4930 C   0  0  0  0  0  0  0  0  0  0  0  0
  141.2090   69.4790  227.6440 C   0  0  0  0  0  0  0  0  0  0  0  0
  140.8120   68.2130  228.0220 C   0  0  0  0  0  0  0  0  0  0  0  0
  141.3030   67.6580  229.1650 F   0  0  0  0  0  0  0  0  0  0  0  0
  139.9140   67.5290  227.2240 C   0  0  0  0  0  0  0  0  0  0  0  0
  139.4160   68.0940  226.0630 C   0  0  0  0  0  0  0  0  0  0  0  0
  139.8370   69.3700  225.7090 C   0  0  0  0  0  0  0  0  0  0  0  0
  139.3390   69.9140  224.5650 N   0  0  0  0  0  0  0  0  0  0  0  0
  138.1090   70.1290  222.3960 H   0  0  0  0  0  0  0  0  0  0  0  0
  138.8227   72.1376  220.4136 H   0  0  0  0  0  0  0  0  0  0  0  0
  137.2944   71.0440  220.4039 H   0  0  0  0  0  0  0  0  0  0  0  0
  135.6851   72.0234  223.4554 H   0  0  0  0  0  0  0  0  0  0  0  0
  137.1514   72.7717  224.0900 H   0  0  0  0  0  0  0  0  0  0  0  0
  135.3353   74.0243  225.3398 H   0  0  0  0  0  0  0  0  0  0  0  0
  133.5600   74.6750  223.9810 H   0  0  0  0  0  0  0  0  0  0  0  0
  135.2398   76.1304  223.7882 H   0  0  0  0  0  0  0  0  0  0  0  0
  136.8716   75.5832  224.1406 H   0  0  0  0  0  0  0  0  0  0  0  0
  135.2107   75.1506  221.5927 H   0  0  0  0  0  0  0  0  0  0  0  0
  138.8870   74.9090  222.6920 H   0  0  0  0  0  0  0  0  0  0  0  0
  139.2303   76.7760  220.4312 H   0  0  0  0  0  0  0  0  0  0  0  0
  140.8621   75.3721  220.0863 H   0  0  0  0  0  0  0  0  0  0  0  0
  141.7168   76.4233  221.2889 H   0  0  0  0  0  0  0  0  0  0  0  0
  140.3740   73.9690  221.6770 H   0  0  0  0  0  0  0  0  0  0  0  0
  141.9696   77.2797  222.2243 H   0  0  0  0  0  0  0  0  0  0  0  0
  142.4878   79.2399  223.6333 H   0  0  0  0  0  0  0  0  0  0  0  0
  140.7029   80.7325  224.4885 H   0  0  0  0  0  0  0  0  0  0  0  0
  137.7902   78.2414  222.4696 H   0  0  0  0  0  0  0  0  0  0  0  0
  140.9230   72.8813  224.6382 H   0  0  0  0  0  0  0  0  0  0  0  0
  141.8531   71.9137  226.7328 H   0  0  0  0  0  0  0  0  0  0  0  0
  141.9223   70.0288  228.2756 H   0  0  0  0  0  0  0  0  0  0  0  0
  139.5901   66.5193  227.5166 H   0  0  0  0  0  0  0  0  0  0  0  0
  138.7013   67.5441  225.4331 H   0  0  0  0  0  0  0  0  0  0  0  0
  1  2  2  0
  2  3  1  0
  3  4  1  0
  4  5  1  0
  5  6  2  0
  5  7  1  0
  7  8  1  0
  8  9  1  0
  9 10  1  0
  9 11  1  0
 11 12  1  0
 12 13  1  0
 13 14  2  0
 13 15  1  0
 15 16  1  0
 16 17  1  0
 17 18  1  0
 16 19  1  0
 19 20  2  0
 20 21  1  0
 21 22  2  0
 22 23  1  0
 23 24  1  0
 23 25  2  0
  2 26  1  0
 26 27  2  0
 27 28  1  0
 28 29  2  0
 29 30  1  0
 30 31  2  0
 31 32  1  0
 31 33  1  0
 33 34  2  0
 34 35  1  0
 35 36  2  0
 12  7  1  0
 25 19  1  0
 36 26  1  0
 35 29  1  0
  3 37  1  0
  4 38  1  0
  4 39  1  0
  8 40  1  0
  8 41  1  0
  9 42  1  1
 10 43  1  0
 11 44  1  0
 11 45  1  0
 12 46  1  6
 15 47  1  0
 16 48  1  6
 17 49  1  0
 17 50  1  0
 18 51  1  0
 20 52  1  0
 21 53  1  0
 22 54  1  0
 25 55  1  0
 27 56  1  0
 28 57  1  0
 30 58  1  0
 33 59  1  0
 34 60  1  0
M  END
>  <smiles>  (7) 
O=C(NCC(=O)N1C[C@H](O)C[C@H]1C(=O)N[C@H](CO)c1cccc(Cl)c1)c1ccc2cc(F)ccc2n1

>  <score_type>  (7) 
oracle

>  <origin>  (7) 
autodockgpu

>  <m_score__min__energy>  (7) 
-8.9600000000000009

>  <m_primary>  (7) 
energy

>  <meeko>  (7) 
{"free_energy": -7.76, "intermolecular_energy": -10.74, "internal_energy": -4.43, "cluster_size": 10, "cluster_id": 2, "rank_in_cluster": 7}

>  <energy>  (7) 
-8.44

>  <cluster_rmsd>  (7) 
1.18

>  <rmsd>  (7) 
270.43

>  <cluster>  (7) 
2

$$$$

     RDKit          3D

 60 63  0  0  0  0  0  0  0  0999 V2000
  138.4960   71.7700  222.3600 O   0  0  0  0  0  0  0  0  0  0  0  0
  139.6250   71.8480  222.9210 C   0  0  0  0  0  0  0  0  0  0  0  0
  140.6350   72.6140  222.2360 N   0  0  0  0  0  0  0  0  0  0  0  0
  140.2520   73.2020  220.9960 C   0  0  0  0  0  0  0  0  0  0  0  0
  139.3790   74.3640  220.9810 C   0  0  0  0  0  0  0  0  0  0  0  0
  138.2240   74.1430  220.4120 O   0  0  0  0  0  0  0  0  0  0  0  0
  139.6010   75.6720  221.4850 N   0  0  0  0  0  0  0  0  0  0  0  0
  140.4170   76.7560  220.9850 C   0  0  0  0  0  0  0  0  0  0  0  0
  140.4680   77.7770  222.1320 C   0  0  2  0  0  0  0  0  0  0  0  0
  141.4310   77.3090  223.0190 O   0  0  0  0  0  0  0  0  0  0  0  0
  139.0990   77.5960  222.7090 C   0  0  0  0  0  0  0  0  0  0  0  0
  138.9060   76.1100  222.7170 C   0  0  1  0  0  0  0  0  0  0  0  0
  137.4420   75.7990  222.6420 C   0  0  0  0  0  0  0  0  0  0  0  0
  136.6310   76.7770  222.5060 O   0  0  0  0  0  0  0  0  0  0  0  0
  136.9320   74.4760  222.7140 N   0  0  0  0  0  0  0  0  0  0  0  0
  135.5050   74.2280  222.6420 C   0  0  2  0  0  0  0  0  0  0  0  0
  134.8030   75.0250  221.5900 C   0  0  0  0  0  0  0  0  0  0  0  0
  135.5810   75.1590  220.4480 O   0  0  0  0  0  0  0  0  0  0  0  0
  134.8820   74.4250  223.9780 C   0  0  0  0  0  0  0  0  0  0  0  0
  134.7750   75.7330  224.4220 C   0  0  0  0  0  0  0  0  0  0  0  0
  134.2040   75.9770  225.6580 C   0  0  0  0  0  0  0  0  0  0  0  0
  133.7350   74.9740  226.4700 C   0  0  0  0  0  0  0  0  0  0  0  0
  133.8590   73.6780  225.9920 C   0  0  0  0  0  0  0  0  0  0  0  0
  133.2770   72.3730  226.9880 Cl  0  0  0  0  0  0  0  0  0  0  0  0
  134.4270   73.3980  224.7570 C   0  0  0  0  0  0  0  0  0  0  0  0
  139.9320   71.2140  224.1920 C   0  0  0  0  0  0  0  0  0  0  0  0
  140.7100   71.9340  225.0800 C   0  0  0  0  0  0  0  0  0  0  0  0
  141.0520   71.4130  226.3100 C   0  0  0  0  0  0  0  0  0  0  0  0
  140.5890   70.1460  226.6300 C   0  0  0  0  0  0  0  0  0  0  0  0
  140.8900   69.5600  227.8410 C   0  0  0  0  0  0  0  0  0  0  0  0
  140.4360   68.2990  228.1670 C   0  0  0  0  0  0  0  0  0  0  0  0
  140.7520   67.7510  229.3740 F   0  0  0  0  0  0  0  0  0  0  0  0
  139.6600   67.6120  227.2520 C   0  0  0  0  0  0  0  0  0  0  0  0
  139.3380   68.1690  226.0270 C   0  0  0  0  0  0  0  0  0  0  0  0
  139.8130   69.4410  225.7290 C   0  0  0  0  0  0  0  0  0  0  0  0
  139.4900   69.9780  224.5210 N   0  0  0  0  0  0  0  0  0  0  0  0
  141.5490   72.6470  222.7110 H   0  0  0  0  0  0  0  0  0  0  0  0
  141.1801   73.4957  220.4838 H   0  0  0  0  0  0  0  0  0  0  0  0
  139.6394   72.4197  220.5241 H   0  0  0  0  0  0  0  0  0  0  0  0
  141.4281   76.3980  220.7408 H   0  0  0  0  0  0  0  0  0  0  0  0
  140.0057   77.1913  220.0623 H   0  0  0  0  0  0  0  0  0  0  0  0
  140.7053   78.8198  221.8746 H   0  0  0  0  0  0  0  0  0  0  0  0
  142.1050   76.8220  222.4600 H   0  0  0  0  0  0  0  0  0  0  0  0
  139.0473   78.0030  223.7296 H   0  0  0  0  0  0  0  0  0  0  0  0
  138.3228   78.1219  222.1338 H   0  0  0  0  0  0  0  0  0  0  0  0
  139.2913   75.6133  223.6196 H   0  0  0  0  0  0  0  0  0  0  0  0
  137.5430   73.6360  222.8060 H   0  0  0  0  0  0  0  0  0  0  0  0
  135.3852   73.1784  222.3356 H   0  0  0  0  0  0  0  0  0  0  0  0
  133.8637   74.5177  221.3248 H   0  0  0  0  0  0  0  0  0  0  0  0
  134.6060   76.0295  221.9927 H   0  0  0  0  0  0  0  0  0  0  0  0
  136.4840   75.4280  220.7750 H   0  0  0  0  0  0  0  0  0  0  0  0
  135.1386   76.5649  223.8010 H   0  0  0  0  0  0  0  0  0  0  0  0
  134.1222   77.0177  226.0048 H   0  0  0  0  0  0  0  0  0  0  0  0
  133.2837   75.1876  227.4502 H   0  0  0  0  0  0  0  0  0  0  0  0
  134.5104   72.3582  224.4079 H   0  0  0  0  0  0  0  0  0  0  0  0
  141.0616   72.9382  224.8007 H   0  0  0  0  0  0  0  0  0  0  0  0
  141.6729   71.9848  227.0154 H   0  0  0  0  0  0  0  0  0  0  0  0
  141.5075   70.1117  228.5652 H   0  0  0  0  0  0  0  0  0  0  0  0
  139.2924   66.6058  227.5020 H   0  0  0  0  0  0  0  0  0  0  0  0
  138.7192   67.6170  225.3042 H   0  0  0  0  0  0  0  0  0  0  0  0
  1  2  2  0
  2  3  1  0
  3  4  1  0
  4  5  1  0
  5  6  2  0
  5  7  1  0
  7  8  1  0
  8  9  1  0
  9 10  1  0
  9 11  1  0
 11 12  1  0
 12 13  1  0
 13 14  2  0
 13 15  1  0
 15 16  1  0
 16 17  1  0
 17 18  1  0
 16 19  1  0
 19 20  2  0
 20 21  1  0
 21 22  2  0
 22 23  1  0
 23 24  1  0
 23 25  2  0
  2 26  1  0
 26 27  2  0
 27 28  1  0
 28 29  2  0
 29 30  1  0
 30 31  2  0
 31 32  1  0
 31 33  1  0
 33 34  2  0
 34 35  1  0
 35 36  2  0
 12  7  1  0
 25 19  1  0
 36 26  1  0
 35 29  1  0
  3 37  1  0
  4 38  1  0
  4 39  1  0
  8 40  1  0
  8 41  1  0
  9 42  1  6
 10 43  1  0
 11 44  1  0
 11 45  1  0
 12 46  1  1
 15 47  1  0
 16 48  1  6
 17 49  1  0
 17 50  1  0
 18 51  1  0
 20 52  1  0
 21 53  1  0
 22 54  1  0
 25 55  1  0
 27 56  1  0
 28 57  1  0
 30 58  1  0
 33 59  1  0
 34 60  1  0
M  END
>  <smiles>  (8) 
O=C(NCC(=O)N1C[C@H](O)C[C@H]1C(=O)N[C@H](CO)c1cccc(Cl)c1)c1ccc2cc(F)ccc2n1

>  <score_type>  (8) 
oracle

>  <origin>  (8) 
autodockgpu

>  <m_score__min__energy>  (8) 
-8.9600000000000009

>  <m_primary>  (8) 
energy

>  <meeko>  (8) 
{"free_energy": -7.33, "intermolecular_energy": -10.31, "internal_energy": -4.03, "cluster_size": 1, "cluster_id": 7, "rank_in_cluster": 1}

>  <energy>  (8) 
-8.36

>  <cluster_rmsd>  (8) 
1.18

>  <rmsd>  (8) 
270.44

>  <cluster>  (8) 
2

$$$$

     RDKit          3D

 60 63  0  0  0  0  0  0  0  0999 V2000
  137.4020   70.0240  221.9100 O   0  0  0  0  0  0  0  0  0  0  0  0
  138.0390   70.7780  222.6990 C   0  0  0  0  0  0  0  0  0  0  0  0
  138.0690   72.1790  222.3660 N   0  0  0  0  0  0  0  0  0  0  0  0
  137.3780   72.5660  221.1820 C   0  0  0  0  0  0  0  0  0  0  0  0
  136.5690   73.7730  221.1730 C   0  0  0  0  0  0  0  0  0  0  0  0
  136.4240   74.2960  219.9840 O   0  0  0  0  0  0  0  0  0  0  0  0
  135.9330   74.4480  222.2470 N   0  0  0  0  0  0  0  0  0  0  0  0
  135.0610   73.9580  223.2910 C   0  0  0  0  0  0  0  0  0  0  0  0
  134.4750   75.2200  223.9430 C   0  0  2  0  0  0  0  0  0  0  0  0
  133.4390   75.6330  223.1140 O   0  0  0  0  0  0  0  0  0  0  0  0
  135.6420   76.1480  223.8190 C   0  0  0  0  0  0  0  0  0  0  0  0
  136.1540   75.9000  222.4330 C   0  0  1  0  0  0  0  0  0  0  0  0
  137.6140   76.2290  222.3770 C   0  0  0  0  0  0  0  0  0  0  0  0
  138.1860   76.5910  223.4600 O   0  0  0  0  0  0  0  0  0  0  0  0
  138.3740   76.1520  221.1790 N   0  0  0  0  0  0  0  0  0  0  0  0
  139.7860   76.4870  221.1760 C   0  0  2  0  0  0  0  0  0  0  0  0
  140.6400   75.5190  221.9300 C   0  0  0  0  0  0  0  0  0  0  0  0
  139.9120   74.4120  222.3430 O   0  0  0  0  0  0  0  0  0  0  0  0
  139.9840   77.8790  221.6600 C   0  0  0  0  0  0  0  0  0  0  0  0
  138.9910   78.7900  221.3410 C   0  0  0  0  0  0  0  0  0  0  0  0
  139.1210   80.1000  221.7640 C   0  0  0  0  0  0  0  0  0  0  0  0
  140.1990   80.5410  222.4920 C   0  0  0  0  0  0  0  0  0  0  0  0
  141.1730   79.6000  222.7930 C   0  0  0  0  0  0  0  0  0  0  0  0
  142.5580   80.1140  223.7150 Cl  0  0  0  0  0  0  0  0  0  0  0  0
  141.0730   78.2780  222.3830 C   0  0  0  0  0  0  0  0  0  0  0  0
  138.7180   70.2990  223.8900 C   0  0  0  0  0  0  0  0  0  0  0  0
  138.7620   68.9290  224.0780 C   0  0  0  0  0  0  0  0  0  0  0  0
  139.3850   68.3830  225.1800 C   0  0  0  0  0  0  0  0  0  0  0  0
  139.9680   69.2490  226.0930 C   0  0  0  0  0  0  0  0  0  0  0  0
  140.6090   68.7760  227.2180 C   0  0  0  0  0  0  0  0  0  0  0  0
  141.1910   69.6300  228.1320 C   0  0  0  0  0  0  0  0  0  0  0  0
  141.8170   69.1280  229.2330 F   0  0  0  0  0  0  0  0  0  0  0  0
  141.1260   70.9930  227.9070 C   0  0  0  0  0  0  0  0  0  0  0  0
  140.4910   71.5030  226.7880 C   0  0  0  0  0  0  0  0  0  0  0  0
  139.9140   70.6150  225.8870 C   0  0  0  0  0  0  0  0  0  0  0  0
  139.2930   71.1290  224.7910 N   0  0  0  0  0  0  0  0  0  0  0  0
  138.6070   72.7670  223.0200 H   0  0  0  0  0  0  0  0  0  0  0  0
  138.1383   72.6878  220.3964 H   0  0  0  0  0  0  0  0  0  0  0  0
  136.6365   71.7644  221.0494 H   0  0  0  0  0  0  0  0  0  0  0  0
  134.2604   73.3350  222.8656 H   0  0  0  0  0  0  0  0  0  0  0  0
  135.5973   73.3286  224.0164 H   0  0  0  0  0  0  0  0  0  0  0  0
  134.0885   75.1306  224.9690 H   0  0  0  0  0  0  0  0  0  0  0  0
  133.6550   75.2750  222.2050 H   0  0  0  0  0  0  0  0  0  0  0  0
  135.3242   77.1944  223.9374 H   0  0  0  0  0  0  0  0  0  0  0  0
  136.4061   75.9741  224.5909 H   0  0  0  0  0  0  0  0  0  0  0  0
  135.6619   76.5058  221.6579 H   0  0  0  0  0  0  0  0  0  0  0  0
  137.9690   75.8460  220.2690 H   0  0  0  0  0  0  0  0  0  0  0  0
  140.1232   76.4145  220.1315 H   0  0  0  0  0  0  0  0  0  0  0  0
  141.4609   75.1842  221.2788 H   0  0  0  0  0  0  0  0  0  0  0  0
  141.0311   76.0275  222.8236 H   0  0  0  0  0  0  0  0  0  0  0  0
  139.2770   74.7540  223.0310 H   0  0  0  0  0  0  0  0  0  0  0  0
  138.1116   78.4761  220.7596 H   0  0  0  0  0  0  0  0  0  0  0  0
  138.3286   80.8184  221.5070 H   0  0  0  0  0  0  0  0  0  0  0  0
  140.2857   81.5874  222.8198 H   0  0  0  0  0  0  0  0  0  0  0  0
  141.8638   77.5571  222.6378 H   0  0  0  0  0  0  0  0  0  0  0  0
  138.2927   68.2653  223.3369 H   0  0  0  0  0  0  0  0  0  0  0  0
  139.4186   67.2939  225.3305 H   0  0  0  0  0  0  0  0  0  0  0  0
  140.6577   67.6908  227.3913 H   0  0  0  0  0  0  0  0  0  0  0  0
  141.5866   71.6831  228.6293 H   0  0  0  0  0  0  0  0  0  0  0  0
  140.4438   72.5883  226.6150 H   0  0  0  0  0  0  0  0  0  0  0  0
  1  2  2  0
  2  3  1  0
  3  4  1  0
  4  5  1  0
  5  6  2  0
  5  7  1  0
  7  8  1  0
  8  9  1  0
  9 10  1  0
  9 11  1  0
 11 12  1  0
 12 13  1  0
 13 14  2  0
 13 15  1  0
 15 16  1  0
 16 17  1  0
 17 18  1  0
 16 19  1  0
 19 20  2  0
 20 21  1  0
 21 22  2  0
 22 23  1  0
 23 24  1  0
 23 25  2  0
  2 26  1  0
 26 27  2  0
 27 28  1  0
 28 29  2  0
 29 30  1  0
 30 31  2  0
 31 32  1  0
 31 33  1  0
 33 34  2  0
 34 35  1  0
 35 36  2  0
 12  7  1  0
 25 19  1  0
 36 26  1  0
 35 29  1  0
  3 37  1  0
  4 38  1  0
  4 39  1  0
  8 40  1  0
  8 41  1  0
  9 42  1  1
 10 43  1  0
 11 44  1  0
 11 45  1  0
 12 46  1  6
 15 47  1  0
 16 48  1  6
 17 49  1  0
 17 50  1  0
 18 51  1  0
 20 52  1  0
 21 53  1  0
 22 54  1  0
 25 55  1  0
 27 56  1  0
 28 57  1  0
 30 58  1  0
 33 59  1  0
 34 60  1  0
M  END
>  <smiles>  (9) 
O=C(NCC(=O)N1C[C@H](O)C[C@H]1C(=O)N[C@H](CO)c1cccc(Cl)c1)c1ccc2cc(F)ccc2n1

>  <score_type>  (9) 
oracle

>  <origin>  (9) 
autodockgpu

>  <m_score__min__energy>  (9) 
-8.9600000000000009

>  <m_primary>  (9) 
energy

>  <meeko>  (9) 
{"free_energy": -7.6, "intermolecular_energy": -10.58, "internal_energy": -4.29, "cluster_size": 10, "cluster_id": 2, "rank_in_cluster": 9}

>  <energy>  (9) 
-8.11

>  <cluster_rmsd>  (9) 
1.2

>  <rmsd>  (9) 
270.45

>  <cluster>  (9) 
2

$$$$

     RDKit          3D

 60 63  0  0  0  0  0  0  0  0999 V2000
  138.7310   69.8370  220.7970 O   0  0  0  0  0  0  0  0  0  0  0  0
  139.2120   70.5500  221.7230 C   0  0  0  0  0  0  0  0  0  0  0  0
  139.5710   71.9010  221.3750 N   0  0  0  0  0  0  0  0  0  0  0  0
  139.3460   72.2900  220.0230 C   0  0  0  0  0  0  0  0  0  0  0  0
  139.8630   73.5570  219.5350 C   0  0  0  0  0  0  0  0  0  0  0  0
  138.9320   74.3860  219.1430 O   0  0  0  0  0  0  0  0  0  0  0  0
  141.2050   74.0080  219.4250 N   0  0  0  0  0  0  0  0  0  0  0  0
  142.0180   74.2920  218.2640 C   0  0  0  0  0  0  0  0  0  0  0  0
  143.4470   74.4400  218.8070 C   0  0  2  0  0  0  0  0  0  0  0  0
  143.9310   73.1470  218.9700 O   0  0  0  0  0  0  0  0  0  0  0  0
  143.1620   75.0600  220.1390 C   0  0  0  0  0  0  0  0  0  0  0  0
  141.9860   74.2860  220.6520 C   0  0  1  0  0  0  0  0  0  0  0  0
  141.2030   75.1410  221.5990 C   0  0  0  0  0  0  0  0  0  0  0  0
  140.2910   74.5800  222.2960 O   0  0  0  0  0  0  0  0  0  0  0  0
  141.4370   76.5340  221.7490 N   0  0  0  0  0  0  0  0  0  0  0  0
  140.6460   77.3210  222.6780 C   0  0  2  0  0  0  0  0  0  0  0  0
  139.1770   77.2850  222.4050 C   0  0  0  0  0  0  0  0  0  0  0  0
  138.9100   76.8870  221.1020 O   0  0  0  0  0  0  0  0  0  0  0  0
  141.1550   78.7170  222.7290 C   0  0  0  0  0  0  0  0  0  0  0  0
  141.9360   79.0490  223.8240 C   0  0  0  0  0  0  0  0  0  0  0  0
  142.4370   80.3340  223.9270 C   0  0  0  0  0  0  0  0  0  0  0  0
  142.1930   81.3030  222.9840 C   0  0  0  0  0  0  0  0  0  0  0  0
  141.4070   80.9350  221.9020 C   0  0  0  0  0  0  0  0  0  0  0  0
  141.0700   82.1300  220.6830 Cl  0  0  0  0  0  0  0  0  0  0  0  0
  140.8880   79.6540  221.7700 C   0  0  0  0  0  0  0  0  0  0  0  0
  139.4080   70.0730  223.0800 C   0  0  0  0  0  0  0  0  0  0  0  0
  138.9650   68.7940  223.3650 C   0  0  0  0  0  0  0  0  0  0  0  0
  139.1090   68.2560  224.6270 C   0  0  0  0  0  0  0  0  0  0  0  0
  139.7140   69.0360  225.6000 C   0  0  0  0  0  0  0  0  0  0  0  0
  139.8920   68.5660  226.8840 C   0  0  0  0  0  0  0  0  0  0  0  0
  140.4920   69.3360  227.8600 C   0  0  0  0  0  0  0  0  0  0  0  0
  140.6520   68.8380  229.1180 F   0  0  0  0  0  0  0  0  0  0  0  0
  140.9220   70.6090  227.5340 C   0  0  0  0  0  0  0  0  0  0  0  0
  140.7590   71.1130  226.2560 C   0  0  0  0  0  0  0  0  0  0  0  0
  140.1500   70.3120  225.2970 C   0  0  0  0  0  0  0  0  0  0  0  0
  139.9960   70.8200  224.0440 N   0  0  0  0  0  0  0  0  0  0  0  0
  139.9730   72.4540  222.1470 H   0  0  0  0  0  0  0  0  0  0  0  0
  139.7830   71.5039  219.3897 H   0  0  0  0  0  0  0  0  0  0  0  0
  138.2556   72.4283  219.9783 H   0  0  0  0  0  0  0  0  0  0  0  0
  141.9626   73.4646  217.5413 H   0  0  0  0  0  0  0  0  0  0  0  0
  141.6813   75.1954  217.7344 H   0  0  0  0  0  0  0  0  0  0  0  0
  144.1656   75.0093  218.1991 H   0  0  0  0  0  0  0  0  0  0  0  0
  143.1690   72.5390  218.7440 H   0  0  0  0  0  0  0  0  0  0  0  0
  144.0248   74.9536  220.8130 H   0  0  0  0  0  0  0  0  0  0  0  0
  142.9624   76.1396  220.0707 H   0  0  0  0  0  0  0  0  0  0  0  0
  142.2561   73.3709  221.1994 H   0  0  0  0  0  0  0  0  0  0  0  0
  142.1770   77.0460  221.2240 H   0  0  0  0  0  0  0  0  0  0  0  0
  140.7661   76.8535  223.6664 H   0  0  0  0  0  0  0  0  0  0  0  0
  138.7019   76.5764  223.0994 H   0  0  0  0  0  0  0  0  0  0  0  0
  138.7757   78.2996  222.5444 H   0  0  0  0  0  0  0  0  0  0  0  0
  139.0920   75.9070  221.0830 H   0  0  0  0  0  0  0  0  0  0  0  0
  142.1546   78.3012  224.6005 H   0  0  0  0  0  0  0  0  0  0  0  0
  143.0560   80.5907  224.7994 H   0  0  0  0  0  0  0  0  0  0  0  0
  142.6007   82.3199  223.0822 H   0  0  0  0  0  0  0  0  0  0  0  0
  140.2665   79.3949  220.9001 H   0  0  0  0  0  0  0  0  0  0  0  0
  138.4904   68.1965  222.5728 H   0  0  0  0  0  0  0  0  0  0  0  0
  138.7547   67.2397  224.8541 H   0  0  0  0  0  0  0  0  0  0  0  0
  139.5474   67.5524  227.1368 H   0  0  0  0  0  0  0  0  0  0  0  0
  141.4017   71.2314  228.3037 H   0  0  0  0  0  0  0  0  0  0  0  0
  141.1042   72.1266  226.0040 H   0  0  0  0  0  0  0  0  0  0  0  0
  1  2  2  0
  2  3  1  0
  3  4  1  0
  4  5  1  0
  5  6  2  0
  5  7  1  0
  7  8  1  0
  8  9  1  0
  9 10  1  0
  9 11  1  0
 11 12  1  0
 12 13  1  0
 13 14  2  0
 13 15  1  0
 15 16  1  0
 16 17  1  0
 17 18  1  0
 16 19  1  0
 19 20  2  0
 20 21  1  0
 21 22  2  0
 22 23  1  0
 23 24  1  0
 23 25  2  0
  2 26  1  0
 26 27  2  0
 27 28  1  0
 28 29  2  0
 29 30  1  0
 30 31  2  0
 31 32  1  0
 31 33  1  0
 33 34  2  0
 34 35  1  0
 35 36  2  0
 12  7  1  0
 25 19  1  0
 36 26  1  0
 35 29  1  0
  3 37  1  0
  4 38  1  0
  4 39  1  0
  8 40  1  0
  8 41  1  0
  9 42  1  6
 10 43  1  0
 11 44  1  0
 11 45  1  0
 12 46  1  1
 15 47  1  0
 16 48  1  1
 17 49  1  0
 17 50  1  0
 18 51  1  0
 20 52  1  0
 21 53  1  0
 22 54  1  0
 25 55  1  0
 27 56  1  0
 28 57  1  0
 30 58  1  0
 33 59  1  0
 34 60  1  0
M  END
>  <smiles>  (10) 
O=C(NCC(=O)N1C[C@H](O)C[C@H]1C(=O)N[C@H](CO)c1cccc(Cl)c1)c1ccc2cc(F)ccc2n1

>  <score_type>  (10) 
oracle

>  <origin>  (10) 
autodockgpu

>  <m_score__min__energy>  (10) 
-8.9600000000000009

>  <m_primary>  (10) 
energy

>  <meeko>  (10) 
{"free_energy": -7.8, "intermolecular_energy": -10.78, "internal_energy": -3.79, "cluster_size": 4, "cluster_id": 1, "rank_in_cluster": 2}

>  <energy>  (10) 
-7.85

>  <cluster_rmsd>  (10) 
1.13

>  <rmsd>  (10) 
270.31

>  <cluster>  (10) 
2

$$$$

     RDKit          3D

 60 63  0  0  0  0  0  0  0  0999 V2000
  139.8860   70.7210  221.4480 O   0  0  0  0  0  0  0  0  0  0  0  0
  139.8550   71.4700  222.4650 C   0  0  0  0  0  0  0  0  0  0  0  0
  139.5690   72.8620  222.2330 N   0  0  0  0  0  0  0  0  0  0  0  0
  139.3520   73.2480  220.8780 C   0  0  0  0  0  0  0  0  0  0  0  0
  140.3950   73.0420  219.8880 C   0  0  0  0  0  0  0  0  0  0  0  0
  139.9510   72.5760  218.7510 O   0  0  0  0  0  0  0  0  0  0  0  0
  141.7930   73.2680  219.9800 N   0  0  0  0  0  0  0  0  0  0  0  0
  142.9000   72.6710  219.2690 C   0  0  0  0  0  0  0  0  0  0  0  0
  144.1540   73.1170  220.0380 C   0  0  2  0  0  0  0  0  0  0  0  0
  144.2530   72.2690  221.1350 O   0  0  0  0  0  0  0  0  0  0  0  0
  143.7250   74.4830  220.4740 C   0  0  0  0  0  0  0  0  0  0  0  0
  142.3080   74.2890  220.9220 C   0  0  1  0  0  0  0  0  0  0  0  0
  141.5600   75.5770  220.7730 C   0  0  0  0  0  0  0  0  0  0  0  0
  140.4210   75.6760  221.3450 O   0  0  0  0  0  0  0  0  0  0  0  0
  142.0640   76.6780  220.0300 N   0  0  0  0  0  0  0  0  0  0  0  0
  141.2960   77.9040  219.9100 C   0  0  2  0  0  0  0  0  0  0  0  0
  141.8360   78.8610  218.8960 C   0  0  0  0  0  0  0  0  0  0  0  0
  142.9720   78.3590  218.2760 O   0  0  0  0  0  0  0  0  0  0  0  0
  141.1490   78.5490  221.2420 C   0  0  0  0  0  0  0  0  0  0  0  0
  139.9290   78.3830  221.8760 C   0  0  0  0  0  0  0  0  0  0  0  0
  139.7340   78.9610  223.1180 C   0  0  0  0  0  0  0  0  0  0  0  0
  140.7030   79.6970  223.7530 C   0  0  0  0  0  0  0  0  0  0  0  0
  141.9120   79.8430  223.0880 C   0  0  0  0  0  0  0  0  0  0  0  0
  143.1700   80.7690  223.8560 Cl  0  0  0  0  0  0  0  0  0  0  0  0
  142.1400   79.2760  221.8410 C   0  0  0  0  0  0  0  0  0  0  0  0
  140.0880   70.9920  223.8170 C   0  0  0  0  0  0  0  0  0  0  0  0
  140.7000   71.8680  224.6950 C   0  0  0  0  0  0  0  0  0  0  0  0
  140.9610   71.5020  225.9990 C   0  0  0  0  0  0  0  0  0  0  0  0
  140.5900   70.2280  226.4020 C   0  0  0  0  0  0  0  0  0  0  0  0
  140.8190   69.7920  227.6900 C   0  0  0  0  0  0  0  0  0  0  0  0
  140.4550   68.5260  228.1000 C   0  0  0  0  0  0  0  0  0  0  0  0
  140.6960   68.1280  229.3810 F   0  0  0  0  0  0  0  0  0  0  0  0
  139.8450   67.6800  227.1920 C   0  0  0  0  0  0  0  0  0  0  0  0
  139.5990   68.0850  225.8920 C   0  0  0  0  0  0  0  0  0  0  0  0
  139.9800   69.3670  225.5100 C   0  0  0  0  0  0  0  0  0  0  0  0
  139.7330   69.7520  224.2290 N   0  0  0  0  0  0  0  0  0  0  0  0
  139.5640   73.4500  223.0790 H   0  0  0  0  0  0  0  0  0  0  0  0
  138.4681   72.6947  220.5279 H   0  0  0  0  0  0  0  0  0  0  0  0
  139.2722   74.3435  220.9369 H   0  0  0  0  0  0  0  0  0  0  0  0
  142.8147   71.5743  219.2715 H   0  0  0  0  0  0  0  0  0  0  0  0
  142.9297   72.9823  218.2144 H   0  0  0  0  0  0  0  0  0  0  0  0
  145.1126   73.1054  219.4986 H   0  0  0  0  0  0  0  0  0  0  0  0
  145.1830   71.9010  221.1140 H   0  0  0  0  0  0  0  0  0  0  0  0
  144.3517   74.8443  221.3027 H   0  0  0  0  0  0  0  0  0  0  0  0
  143.8187   75.2328  219.6746 H   0  0  0  0  0  0  0  0  0  0  0  0
  142.2082   73.9831  221.9739 H   0  0  0  0  0  0  0  0  0  0  0  0
  142.9920   76.6660  219.5570 H   0  0  0  0  0  0  0  0  0  0  0  0
  140.3032   77.6165  219.5335 H   0  0  0  0  0  0  0  0  0  0  0  0
  141.0651   79.0463  218.1335 H   0  0  0  0  0  0  0  0  0  0  0  0
  142.1085   79.7932  219.4125 H   0  0  0  0  0  0  0  0  0  0  0  0
  143.6370   78.2310  219.0080 H   0  0  0  0  0  0  0  0  0  0  0  0
  139.1269   77.8003  221.3993 H   0  0  0  0  0  0  0  0  0  0  0  0
  138.7630   78.8251  223.6167 H   0  0  0  0  0  0  0  0  0  0  0  0
  140.5296   80.1490  224.7408 H   0  0  0  0  0  0  0  0  0  0  0  0
  143.1097   79.4106  221.3394 H   0  0  0  0  0  0  0  0  0  0  0  0
  140.9831   72.8726  224.3478 H   0  0  0  0  0  0  0  0  0  0  0  0
  141.4480   72.1986  226.6972 H   0  0  0  0  0  0  0  0  0  0  0  0
  141.3036   70.4700  228.4079 H   0  0  0  0  0  0  0  0  0  0  0  0
  139.5505   66.6685  227.5084 H   0  0  0  0  0  0  0  0  0  0  0  0
  139.1122   67.4071  225.1754 H   0  0  0  0  0  0  0  0  0  0  0  0
  1  2  2  0
  2  3  1  0
  3  4  1  0
  4  5  1  0
  5  6  2  0
  5  7  1  0
  7  8  1  0
  8  9  1  0
  9 10  1  0
  9 11  1  0
 11 12  1  0
 12 13  1  0
 13 14  2  0
 13 15  1  0
 15 16  1  0
 16 17  1  0
 17 18  1  0
 16 19  1  0
 19 20  2  0
 20 21  1  0
 21 22  2  0
 22 23  1  0
 23 24  1  0
 23 25  2  0
  2 26  1  0
 26 27  2  0
 27 28  1  0
 28 29  2  0
 29 30  1  0
 30 31  2  0
 31 32  1  0
 31 33  1  0
 33 34  2  0
 34 35  1  0
 35 36  2  0
 12  7  1  0
 25 19  1  0
 36 26  1  0
 35 29  1  0
  3 37  1  0
  4 38  1  0
  4 39  1  0
  8 40  1  0
  8 41  1  0
  9 42  1  6
 10 43  1  0
 11 44  1  0
 11 45  1  0
 12 46  1  1
 15 47  1  0
 16 48  1  6
 17 49  1  0
 17 50  1  0
 18 51  1  0
 20 52  1  0
 21 53  1  0
 22 54  1  0
 25 55  1  0
 27 56  1  0
 28 57  1  0
 30 58  1  0
 33 59  1  0
 34 60  1  0
M  END
>  <smiles>  (11) 
O=C(NCC(=O)N1C[C@H](O)C[C@H]1C(=O)N[C@H](CO)c1cccc(Cl)c1)c1ccc2cc(F)ccc2n1

>  <score_type>  (11) 
oracle

>  <origin>  (11) 
autodockgpu

>  <m_score__min__energy>  (11) 
-8.9600000000000009

>  <m_primary>  (11) 
energy

>  <meeko>  (11) 
{"free_energy": -8.96, "intermolecular_energy": -11.95, "internal_energy": -2.52, "cluster_size": 4, "cluster_id": 1, "rank_in_cluster": 1}

>  <energy>  (11) 
-7.76

>  <cluster_rmsd>  (11) 
1.38

>  <rmsd>  (11) 
270.44

>  <cluster>  (11) 
2

$$$$

     RDKit          3D

 60 63  0  0  0  0  0  0  0  0999 V2000
  138.8320   72.4500  222.7190 O   0  0  0  0  0  0  0  0  0  0  0  0
  138.3090   71.3640  223.0970 C   0  0  0  0  0  0  0  0  0  0  0  0
  137.1390   70.9270  222.3780 N   0  0  0  0  0  0  0  0  0  0  0  0
  136.6960   71.7690  221.3170 C   0  0  0  0  0  0  0  0  0  0  0  0
  136.0050   73.0120  221.6150 C   0  0  0  0  0  0  0  0  0  0  0  0
  135.5410   73.6190  220.5560 O   0  0  0  0  0  0  0  0  0  0  0  0
  135.7700   73.6430  222.8650 N   0  0  0  0  0  0  0  0  0  0  0  0
  135.6050   73.0910  224.1900 C   0  0  0  0  0  0  0  0  0  0  0  0
  135.0820   74.2560  225.0440 C   0  0  2  0  0  0  0  0  0  0  0  0
  133.7190   74.3380  224.7850 O   0  0  0  0  0  0  0  0  0  0  0  0
  135.8030   75.4000  224.4020 C   0  0  0  0  0  0  0  0  0  0  0  0
  135.6860   75.1200  222.9340 C   0  0  1  0  0  0  0  0  0  0  0  0
  136.8370   75.7540  222.2150 C   0  0  0  0  0  0  0  0  0  0  0  0
  136.5830   76.7190  221.4170 O   0  0  0  0  0  0  0  0  0  0  0  0
  138.1800   75.3260  222.3870 N   0  0  0  0  0  0  0  0  0  0  0  0
  139.2600   75.9700  221.6620 C   0  0  2  0  0  0  0  0  0  0  0  0
  140.4020   75.0600  221.3400 C   0  0  0  0  0  0  0  0  0  0  0  0
  140.5950   74.1140  222.3380 O   0  0  0  0  0  0  0  0  0  0  0  0
  139.7190   77.1800  222.3940 C   0  0  0  0  0  0  0  0  0  0  0  0
  141.0760   77.2600  222.6640 C   0  0  0  0  0  0  0  0  0  0  0  0
  141.5620   78.3620  223.3420 C   0  0  0  0  0  0  0  0  0  0  0  0
  140.7530   79.3900  223.7630 C   0  0  0  0  0  0  0  0  0  0  0  0
  139.4010   79.2760  223.4750 C   0  0  0  0  0  0  0  0  0  0  0  0
  138.3380   80.5550  223.9890 Cl  0  0  0  0  0  0  0  0  0  0  0  0
  138.8810   78.1820  222.7960 C   0  0  0  0  0  0  0  0  0  0  0  0
  138.8290   70.5640  224.1920 C   0  0  0  0  0  0  0  0  0  0  0  0
  138.6250   69.1980  224.1230 C   0  0  0  0  0  0  0  0  0  0  0  0
  139.0830   68.3590  225.1180 C   0  0  0  0  0  0  0  0  0  0  0  0
  139.7560   68.9290  226.1880 C   0  0  0  0  0  0  0  0  0  0  0  0
  140.2430   68.1540  227.2200 C   0  0  0  0  0  0  0  0  0  0  0  0
  140.9120   68.7120  228.2900 C   0  0  0  0  0  0  0  0  0  0  0  0
  141.3800   67.9150  229.2910 F   0  0  0  0  0  0  0  0  0  0  0  0
  141.0950   70.0820  228.3210 C   0  0  0  0  0  0  0  0  0  0  0  0
  140.6200   70.8900  227.3030 C   0  0  0  0  0  0  0  0  0  0  0  0
  139.9490   70.2960  226.2400 C   0  0  0  0  0  0  0  0  0  0  0  0
  139.4870   71.1020  225.2450 N   0  0  0  0  0  0  0  0  0  0  0  0
  136.7280   70.0460  222.7170 H   0  0  0  0  0  0  0  0  0  0  0  0
  137.5871   72.0343  220.7292 H   0  0  0  0  0  0  0  0  0  0  0  0
  135.9236   71.1637  220.8201 H   0  0  0  0  0  0  0  0  0  0  0  0
  134.8789   72.2648  224.1769 H   0  0  0  0  0  0  0  0  0  0  0  0
  136.5448   72.6782  224.5855 H   0  0  0  0  0  0  0  0  0  0  0  0
  135.2294   74.1957  226.1324 H   0  0  0  0  0  0  0  0  0  0  0  0
  133.5960   73.9990  223.8510 H   0  0  0  0  0  0  0  0  0  0  0  0
  135.3248   76.3571  224.6574 H   0  0  0  0  0  0  0  0  0  0  0  0
  136.8475   75.4850  224.7362 H   0  0  0  0  0  0  0  0  0  0  0  0
  134.7678   75.5137  222.4738 H   0  0  0  0  0  0  0  0  0  0  0  0
  138.4530   74.5580  223.0360 H   0  0  0  0  0  0  0  0  0  0  0  0
  138.8477   76.2694  220.6871 H   0  0  0  0  0  0  0  0  0  0  0  0
  140.1906   74.5424  220.3927 H   0  0  0  0  0  0  0  0  0  0  0  0
  141.3154   75.6675  221.2585 H   0  0  0  0  0  0  0  0  0  0  0  0
  139.6870   73.9250  222.7030 H   0  0  0  0  0  0  0  0  0  0  0  0
  141.7567   76.4577  222.3432 H   0  0  0  0  0  0  0  0  0  0  0  0
  142.6401   78.4185  223.5532 H   0  0  0  0  0  0  0  0  0  0  0  0
  141.1574   80.2598  224.3015 H   0  0  0  0  0  0  0  0  0  0  0  0
  137.8034   78.1223  222.5834 H   0  0  0  0  0  0  0  0  0  0  0  0
  138.0891   68.7736  223.2612 H   0  0  0  0  0  0  0  0  0  0  0  0
  138.9195   67.2726  225.0641 H   0  0  0  0  0  0  0  0  0  0  0  0
  140.0944   67.0645  227.1892 H   0  0  0  0  0  0  0  0  0  0  0  0
  141.6272   70.5374  229.1692 H   0  0  0  0  0  0  0  0  0  0  0  0
  140.7701   71.9793  227.3341 H   0  0  0  0  0  0  0  0  0  0  0  0
  1  2  2  0
  2  3  1  0
  3  4  1  0
  4  5  1  0
  5  6  2  0
  5  7  1  0
  7  8  1  0
  8  9  1  0
  9 10  1  0
  9 11  1  0
 11 12  1  0
 12 13  1  0
 13 14  2  0
 13 15  1  0
 15 16  1  0
 16 17  1  0
 17 18  1  0
 16 19  1  0
 19 20  2  0
 20 21  1  0
 21 22  2  0
 22 23  1  0
 23 24  1  0
 23 25  2  0
  2 26  1  0
 26 27  2  0
 27 28  1  0
 28 29  2  0
 29 30  1  0
 30 31  2  0
 31 32  1  0
 31 33  1  0
 33 34  2  0
 34 35  1  0
 35 36  2  0
 12  7  1  0
 25 19  1  0
 36 26  1  0
 35 29  1  0
  3 37  1  0
  4 38  1  0
  4 39  1  0
  8 40  1  0
  8 41  1  0
  9 42  1  1
 10 43  1  0
 11 44  1  0
 11 45  1  0
 12 46  1  6
 15 47  1  0
 16 48  1  6
 17 49  1  0
 17 50  1  0
 18 51  1  0
 20 52  1  0
 21 53  1  0
 22 54  1  0
 25 55  1  0
 27 56  1  0
 28 57  1  0
 30 58  1  0
 33 59  1  0
 34 60  1  0
M  END
>  <smiles>  (12) 
O=C(NCC(=O)N1C[C@H](O)C[C@H]1C(=O)N[C@H](CO)c1cccc(Cl)c1)c1ccc2cc(F)ccc2n1

>  <score_type>  (12) 
oracle

>  <origin>  (12) 
autodockgpu

>  <m_score__min__energy>  (12) 
-8.9600000000000009

>  <m_primary>  (12) 
energy

>  <meeko>  (12) 
{"free_energy": -8.36, "intermolecular_energy": -11.34, "internal_energy": -4.12, "cluster_size": 10, "cluster_id": 2, "rank_in_cluster": 4}

>  <energy>  (12) 
-7.73

>  <cluster_rmsd>  (12) 
1.27

>  <rmsd>  (12) 
270.18

>  <cluster>  (12) 
2

$$$$

     RDKit          3D

 60 63  0  0  0  0  0  0  0  0999 V2000
  139.5290   73.7100  221.6800 O   0  0  0  0  0  0  0  0  0  0  0  0
  140.2590   72.6960  221.8680 C   0  0  0  0  0  0  0  0  0  0  0  0
  141.2060   72.3820  220.8290 N   0  0  0  0  0  0  0  0  0  0  0  0
  141.2190   73.2500  219.6990 C   0  0  0  0  0  0  0  0  0  0  0  0
  142.0850   74.4170  219.6890 C   0  0  0  0  0  0  0  0  0  0  0  0
  142.9340   74.4470  220.6810 O   0  0  0  0  0  0  0  0  0  0  0  0
  142.1340   75.5020  218.7750 N   0  0  0  0  0  0  0  0  0  0  0  0
  142.0190   75.5360  217.3350 C   0  0  0  0  0  0  0  0  0  0  0  0
  142.4600   76.9520  216.9340 C   0  0  2  0  0  0  0  0  0  0  0  0
  143.8510   76.9350  216.9370 O   0  0  0  0  0  0  0  0  0  0  0  0
  141.9490   77.7300  218.1050 C   0  0  0  0  0  0  0  0  0  0  0  0
  142.3070   76.8810  219.2860 C   0  0  1  0  0  0  0  0  0  0  0  0
  141.3510   77.1590  220.4060 C   0  0  0  0  0  0  0  0  0  0  0  0
  140.4260   78.0160  220.2010 O   0  0  0  0  0  0  0  0  0  0  0  0
  141.4360   76.5120  221.6670 N   0  0  0  0  0  0  0  0  0  0  0  0
  140.4880   76.8200  222.7220 C   0  0  2  0  0  0  0  0  0  0  0  0
  139.0920   76.3690  222.4340 C   0  0  0  0  0  0  0  0  0  0  0  0
  138.8920   76.1670  221.0750 O   0  0  0  0  0  0  0  0  0  0  0  0
  140.5340   78.2710  223.0450 C   0  0  0  0  0  0  0  0  0  0  0  0
  141.7920   78.8280  223.2070 C   0  0  0  0  0  0  0  0  0  0  0  0
  141.8970   80.1730  223.5090 C   0  0  0  0  0  0  0  0  0  0  0  0
  140.8010   80.9880  223.6560 C   0  0  0  0  0  0  0  0  0  0  0  0
  139.5580   80.3960  223.4860 C   0  0  0  0  0  0  0  0  0  0  0  0
  138.1400   81.3910  223.6620 Cl  0  0  0  0  0  0  0  0  0  0  0  0
  139.4180   79.0490  223.1830 C   0  0  0  0  0  0  0  0  0  0  0  0
  140.1800   71.8630  223.0550 C   0  0  0  0  0  0  0  0  0  0  0  0
  139.5680   70.6300  222.9160 C   0  0  0  0  0  0  0  0  0  0  0  0
  139.4470   69.7710  223.9890 C   0  0  0  0  0  0  0  0  0  0  0  0
  139.9600   70.1810  225.2100 C   0  0  0  0  0  0  0  0  0  0  0  0
  139.8760   69.3770  226.3270 C   0  0  0  0  0  0  0  0  0  0  0  0
  140.3820   69.7770  227.5460 C   0  0  0  0  0  0  0  0  0  0  0  0
  140.2820   68.9560  228.6290 F   0  0  0  0  0  0  0  0  0  0  0  0
  140.9860   71.0170  227.6430 C   0  0  0  0  0  0  0  0  0  0  0  0
  141.0880   71.8500  226.5430 C   0  0  0  0  0  0  0  0  0  0  0  0
  140.5670   71.4170  225.3290 C   0  0  0  0  0  0  0  0  0  0  0  0
  140.6740   72.2460  224.2560 N   0  0  0  0  0  0  0  0  0  0  0  0
  141.7770   71.5420  221.0040 H   0  0  0  0  0  0  0  0  0  0  0  0
  141.5024   72.6368  218.8308 H   0  0  0  0  0  0  0  0  0  0  0  0
  140.2087   73.6850  219.7027 H   0  0  0  0  0  0  0  0  0  0  0  0
  142.6761   74.7822  216.8768 H   0  0  0  0  0  0  0  0  0  0  0  0
  140.9969   75.3104  216.9968 H   0  0  0  0  0  0  0  0  0  0  0  0
  142.1152   77.3363  215.9627 H   0  0  0  0  0  0  0  0  0  0  0  0
  144.1370   77.8680  216.7150 H   0  0  0  0  0  0  0  0  0  0  0  0
  142.4398   78.7125  218.1662 H   0  0  0  0  0  0  0  0  0  0  0  0
  140.8699   77.9336  218.0406 H   0  0  0  0  0  0  0  0  0  0  0  0
  143.3182   77.0631  219.6789 H   0  0  0  0  0  0  0  0  0  0  0  0
  142.1550   75.7920  221.8890 H   0  0  0  0  0  0  0  0  0  0  0  0
  140.8012   76.2407  223.6031 H   0  0  0  0  0  0  0  0  0  0  0  0
  138.9043   75.4252  222.9670 H   0  0  0  0  0  0  0  0  0  0  0  0
  138.3994   77.1541  222.7715 H   0  0  0  0  0  0  0  0  0  0  0  0
  139.6990   75.6730  220.7600 H   0  0  0  0  0  0  0  0  0  0  0  0
  142.6946   78.2089  223.0969 H   0  0  0  0  0  0  0  0  0  0  0  0
  142.8991   80.6083  223.6368 H   0  0  0  0  0  0  0  0  0  0  0  0
  140.9038   82.0565  223.8965 H   0  0  0  0  0  0  0  0  0  0  0  0
  138.4173   78.6107  223.0549 H   0  0  0  0  0  0  0  0  0  0  0  0
  139.1717   70.3298  221.9348 H   0  0  0  0  0  0  0  0  0  0  0  0
  138.9588   68.7914  223.8791 H   0  0  0  0  0  0  0  0  0  0  0  0
  139.3934   68.3920  226.2438 H   0  0  0  0  0  0  0  0  0  0  0  0
  141.3921   71.3467  228.6107 H   0  0  0  0  0  0  0  0  0  0  0  0
  141.5713   72.8345  226.6273 H   0  0  0  0  0  0  0  0  0  0  0  0
  1  2  2  0
  2  3  1  0
  3  4  1  0
  4  5  1  0
  5  6  2  0
  5  7  1  0
  7  8  1  0
  8  9  1  0
  9 10  1  0
  9 11  1  0
 11 12  1  0
 12 13  1  0
 13 14  2  0
 13 15  1  0
 15 16  1  0
 16 17  1  0
 17 18  1  0
 16 19  1  0
 19 20  2  0
 20 21  1  0
 21 22  2  0
 22 23  1  0
 23 24  1  0
 23 25  2  0
  2 26  1  0
 26 27  2  0
 27 28  1  0
 28 29  2  0
 29 30  1  0
 30 31  2  0
 31 32  1  0
 31 33  1  0
 33 34  2  0
 34 35  1  0
 35 36  2  0
 12  7  1  0
 25 19  1  0
 36 26  1  0
 35 29  1  0
  3 37  1  0
  4 38  1  0
  4 39  1  0
  8 40  1  0
  8 41  1  0
  9 42  1  6
 10 43  1  0
 11 44  1  0
 11 45  1  0
 12 46  1  1
 15 47  1  0
 16 48  1  1
 17 49  1  0
 17 50  1  0
 18 51  1  0
 20 52  1  0
 21 53  1  0
 22 54  1  0
 25 55  1  0
 27 56  1  0
 28 57  1  0
 30 58  1  0
 33 59  1  0
 34 60  1  0
M  END
>  <smiles>  (13) 
O=C(NCC(=O)N1C[C@H](O)C[C@H]1C(=O)N[C@H](CO)c1cccc(Cl)c1)c1ccc2cc(F)ccc2n1

>  <score_type>  (13) 
oracle

>  <origin>  (13) 
autodockgpu

>  <m_score__min__energy>  (13) 
-8.9600000000000009

>  <m_primary>  (13) 
energy

>  <meeko>  (13) 
{"free_energy": -7.89, "intermolecular_energy": -10.87, "internal_energy": -3.65, "cluster_size": 1, "cluster_id": 4, "rank_in_cluster": 1}

>  <energy>  (13) 
-7.6

>  <cluster_rmsd>  (13) 
1.05

>  <rmsd>  (13) 
270.32

>  <cluster>  (13) 
2

$$$$

     RDKit          3D

 60 63  0  0  0  0  0  0  0  0999 V2000
  139.0420   72.5290  222.7350 O   0  0  0  0  0  0  0  0  0  0  0  0
  138.5240   71.4150  223.0310 C   0  0  0  0  0  0  0  0  0  0  0  0
  137.4240   70.9780  222.2120 N   0  0  0  0  0  0  0  0  0  0  0  0
  137.0350   71.8490  221.1530 C   0  0  0  0  0  0  0  0  0  0  0  0
  136.2780   73.0550  221.4450 C   0  0  0  0  0  0  0  0  0  0  0  0
  135.8280   73.6590  220.3780 O   0  0  0  0  0  0  0  0  0  0  0  0
  135.9700   73.6530  222.6940 N   0  0  0  0  0  0  0  0  0  0  0  0
  135.7780   73.0710  224.0030 C   0  0  0  0  0  0  0  0  0  0  0  0
  135.1730   74.1980  224.8550 C   0  0  2  0  0  0  0  0  0  0  0  0
  133.8180   74.2280  224.5440 O   0  0  0  0  0  0  0  0  0  0  0  0
  135.8690   75.3810  224.2600 C   0  0  0  0  0  0  0  0  0  0  0  0
  135.8210   75.1240  222.7840 C   0  0  1  0  0  0  0  0  0  0  0  0
  136.9700   75.8170  222.1210 C   0  0  0  0  0  0  0  0  0  0  0  0
  136.7090   76.8060  221.3550 O   0  0  0  0  0  0  0  0  0  0  0  0
  138.3210   75.4210  222.3120 N   0  0  0  0  0  0  0  0  0  0  0  0
  139.4000   76.1230  221.6410 C   0  0  2  0  0  0  0  0  0  0  0  0
  140.5920   75.2690  221.3530 C   0  0  0  0  0  0  0  0  0  0  0  0
  140.7070   74.2300  222.2670 O   0  0  0  0  0  0  0  0  0  0  0  0
  139.7760   77.3390  222.4090 C   0  0  0  0  0  0  0  0  0  0  0  0
  141.1250   77.5070  222.6760 C   0  0  0  0  0  0  0  0  0  0  0  0
  141.5350   78.6200  223.3880 C   0  0  0  0  0  0  0  0  0  0  0  0
  140.6580   79.5730  223.8440 C   0  0  0  0  0  0  0  0  0  0  0  0
  139.3150   79.3720  223.5580 C   0  0  0  0  0  0  0  0  0  0  0  0
  138.1660   80.5540  224.1170 Cl  0  0  0  0  0  0  0  0  0  0  0  0
  138.8710   78.2660  222.8470 C   0  0  0  0  0  0  0  0  0  0  0  0
  138.9850   70.5870  224.1320 C   0  0  0  0  0  0  0  0  0  0  0  0
  138.7410   69.2290  224.0390 C   0  0  0  0  0  0  0  0  0  0  0  0
  139.1420   68.3650  225.0370 C   0  0  0  0  0  0  0  0  0  0  0  0
  139.8000   68.9000  226.1340 C   0  0  0  0  0  0  0  0  0  0  0  0
  140.2310   68.0980  227.1690 C   0  0  0  0  0  0  0  0  0  0  0  0
  140.8850   68.6210  228.2650 C   0  0  0  0  0  0  0  0  0  0  0  0
  141.2970   67.7990  229.2700 F   0  0  0  0  0  0  0  0  0  0  0  0
  141.1110   69.9840  228.3190 C   0  0  0  0  0  0  0  0  0  0  0  0
  140.6930   70.8190  227.2980 C   0  0  0  0  0  0  0  0  0  0  0  0
  140.0350   70.2600  226.2080 C   0  0  0  0  0  0  0  0  0  0  0  0
  139.6290   71.0910  225.2110 N   0  0  0  0  0  0  0  0  0  0  0  0
  137.0140   70.0730  222.4860 H   0  0  0  0  0  0  0  0  0  0  0  0
  137.9590   72.1683  220.6488 H   0  0  0  0  0  0  0  0  0  0  0  0
  136.3266   71.2402  220.5721 H   0  0  0  0  0  0  0  0  0  0  0  0
  135.0889   72.2153  223.9483 H   0  0  0  0  0  0  0  0  0  0  0  0
  136.7188   72.6913  224.4282 H   0  0  0  0  0  0  0  0  0  0  0  0
  135.2803   74.1245  225.9473 H   0  0  0  0  0  0  0  0  0  0  0  0
  133.6310   75.1570  224.2230 H   0  0  0  0  0  0  0  0  0  0  0  0
  135.3416   76.3128  224.5122 H   0  0  0  0  0  0  0  0  0  0  0  0
  136.8957   75.5020  224.6360 H   0  0  0  0  0  0  0  0  0  0  0  0
  134.9056   75.4886  222.2950 H   0  0  0  0  0  0  0  0  0  0  0  0
  138.5990   74.6360  222.9380 H   0  0  0  0  0  0  0  0  0  0  0  0
  139.0144   76.4205  220.6547 H   0  0  0  0  0  0  0  0  0  0  0  0
  140.4930   74.8464  220.3422 H   0  0  0  0  0  0  0  0  0  0  0  0
  141.4923   75.8964  221.4290 H   0  0  0  0  0  0  0  0  0  0  0  0
  140.0820   73.5240  221.9440 H   0  0  0  0  0  0  0  0  0  0  0  0
  141.8594   76.7662  222.3269 H   0  0  0  0  0  0  0  0  0  0  0  0
  142.6074   78.7467  223.5974 H   0  0  0  0  0  0  0  0  0  0  0  0
  141.0028   80.4522  224.4080 H   0  0  0  0  0  0  0  0  0  0  0  0
  137.7990   78.1359  222.6373 H   0  0  0  0  0  0  0  0  0  0  0  0
  138.2193   68.8316  223.1559 H   0  0  0  0  0  0  0  0  0  0  0  0
  138.9458   67.2851  224.9647 H   0  0  0  0  0  0  0  0  0  0  0  0
  140.0489   67.0143  227.1196 H   0  0  0  0  0  0  0  0  0  0  0  0
  141.6319   70.4117  229.1883 H   0  0  0  0  0  0  0  0  0  0  0  0
  140.8773   71.9023  227.3475 H   0  0  0  0  0  0  0  0  0  0  0  0
  1  2  2  0
  2  3  1  0
  3  4  1  0
  4  5  1  0
  5  6  2  0
  5  7  1  0
  7  8  1  0
  8  9  1  0
  9 10  1  0
  9 11  1  0
 11 12  1  0
 12 13  1  0
 13 14  2  0
 13 15  1  0
 15 16  1  0
 16 17  1  0
 17 18  1  0
 16 19  1  0
 19 20  2  0
 20 21  1  0
 21 22  2  0
 22 23  1  0
 23 24  1  0
 23 25  2  0
  2 26  1  0
 26 27  2  0
 27 28  1  0
 28 29  2  0
 29 30  1  0
 30 31  2  0
 31 32  1  0
 31 33  1  0
 33 34  2  0
 34 35  1  0
 35 36  2  0
 12  7  1  0
 25 19  1  0
 36 26  1  0
 35 29  1  0
  3 37  1  0
  4 38  1  0
  4 39  1  0
  8 40  1  0
  8 41  1  0
  9 42  1  1
 10 43  1  0
 11 44  1  0
 11 45  1  0
 12 46  1  6
 15 47  1  0
 16 48  1  6
 17 49  1  0
 17 50  1  0
 18 51  1  0
 20 52  1  0
 21 53  1  0
 22 54  1  0
 25 55  1  0
 27 56  1  0
 28 57  1  0
 30 58  1  0
 33 59  1  0
 34 60  1  0
M  END
>  <smiles>  (14) 
O=C(NCC(=O)N1C[C@H](O)C[C@H]1C(=O)N[C@H](CO)c1cccc(Cl)c1)c1ccc2cc(F)ccc2n1

>  <score_type>  (14) 
oracle

>  <origin>  (14) 
autodockgpu

>  <m_score__min__energy>  (14) 
-8.9600000000000009

>  <m_primary>  (14) 
energy

>  <meeko>  (14) 
{"free_energy": -8.11, "intermolecular_energy": -11.09, "internal_energy": -4.17, "cluster_size": 10, "cluster_id": 2, "rank_in_cluster": 5}

>  <energy>  (14) 
-7.4

>  <cluster_rmsd>  (14) 
1.69

>  <rmsd>  (14) 
270.42

>  <cluster>  (14) 
2

$$$$

     RDKit          3D

 60 63  0  0  0  0  0  0  0  0999 V2000
  137.2300   69.7010  222.3440 O   0  0  0  0  0  0  0  0  0  0  0  0
  137.8870   70.4020  223.1650 C   0  0  0  0  0  0  0  0  0  0  0  0
  137.8930   71.8240  222.9360 N   0  0  0  0  0  0  0  0  0  0  0  0
  137.1580   72.2890  221.8070 C   0  0  0  0  0  0  0  0  0  0  0  0
  135.9860   73.1260  221.9970 C   0  0  0  0  0  0  0  0  0  0  0  0
  134.9310   72.7020  221.3530 O   0  0  0  0  0  0  0  0  0  0  0  0
  135.8300   74.3100  222.7640 N   0  0  0  0  0  0  0  0  0  0  0  0
  135.4370   74.5040  224.1410 C   0  0  0  0  0  0  0  0  0  0  0  0
  135.1660   76.0110  224.2690 C   0  0  2  0  0  0  0  0  0  0  0  0
  133.8900   76.2150  223.7570 O   0  0  0  0  0  0  0  0  0  0  0  0
  136.1960   76.5460  223.3250 C   0  0  0  0  0  0  0  0  0  0  0  0
  136.1180   75.6250  222.1460 C   0  0  1  0  0  0  0  0  0  0  0  0
  137.4400   75.6060  221.4420 C   0  0  0  0  0  0  0  0  0  0  0  0
  137.5310   76.2230  220.3270 O   0  0  0  0  0  0  0  0  0  0  0  0
  138.5780   74.9360  221.9640 N   0  0  0  0  0  0  0  0  0  0  0  0
  139.8360   74.9420  221.2400 C   0  0  2  0  0  0  0  0  0  0  0  0
  140.7580   73.8260  221.6160 C   0  0  0  0  0  0  0  0  0  0  0  0
  140.2790   73.1170  222.7090 O   0  0  0  0  0  0  0  0  0  0  0  0
  140.5010   76.2650  221.3780 C   0  0  0  0  0  0  0  0  0  0  0  0
  141.3630   76.6310  220.3570 C   0  0  0  0  0  0  0  0  0  0  0  0
  142.0110   77.8510  220.4300 C   0  0  0  0  0  0  0  0  0  0  0  0
  141.8360   78.7210  221.4780 C   0  0  0  0  0  0  0  0  0  0  0  0
  140.9660   78.3210  222.4820 C   0  0  0  0  0  0  0  0  0  0  0  0
  140.7140   79.3930  223.8300 Cl  0  0  0  0  0  0  0  0  0  0  0  0
  140.3010   77.1030  222.4390 C   0  0  0  0  0  0  0  0  0  0  0  0
  138.6100   69.8440  224.2940 C   0  0  0  0  0  0  0  0  0  0  0  0
  138.7170   68.4670  224.3510 C   0  0  0  0  0  0  0  0  0  0  0  0
  139.3860   67.8480  225.3860 C   0  0  0  0  0  0  0  0  0  0  0  0
  139.9490   68.6500  226.3670 C   0  0  0  0  0  0  0  0  0  0  0  0
  140.6330   68.1020  227.4320 C   0  0  0  0  0  0  0  0  0  0  0  0
  141.1950   68.8920  228.4140 C   0  0  0  0  0  0  0  0  0  0  0  0
  141.8640   68.3170  229.4520 F   0  0  0  0  0  0  0  0  0  0  0  0
  141.0660   70.2660  228.3200 C   0  0  0  0  0  0  0  0  0  0  0  0
  140.3860   70.8490  227.2650 C   0  0  0  0  0  0  0  0  0  0  0  0
  139.8310   70.0250  226.2930 C   0  0  0  0  0  0  0  0  0  0  0  0
  139.1660   70.6110  225.2610 N   0  0  0  0  0  0  0  0  0  0  0  0
  138.4480   72.3690  223.6140 H   0  0  0  0  0  0  0  0  0  0  0  0
  137.8607   72.8632  221.1854 H   0  0  0  0  0  0  0  0  0  0  0  0
  136.7418   71.3652  221.3788 H   0  0  0  0  0  0  0  0  0  0  0  0
  134.5285   73.9272  224.3686 H   0  0  0  0  0  0  0  0  0  0  0  0
  136.2114   74.1624  224.8436 H   0  0  0  0  0  0  0  0  0  0  0  0
  135.2154   76.4536  225.2748 H   0  0  0  0  0  0  0  0  0  0  0  0
  133.9720   76.9720  223.1080 H   0  0  0  0  0  0  0  0  0  0  0  0
  135.9583   77.5790  223.0310 H   0  0  0  0  0  0  0  0  0  0  0  0
  137.2014   76.5810  223.7699 H   0  0  0  0  0  0  0  0  0  0  0  0
  135.3648   75.9157  221.3989 H   0  0  0  0  0  0  0  0  0  0  0  0
  138.5720   74.4310  222.8750 H   0  0  0  0  0  0  0  0  0  0  0  0
  139.5890   74.7672  220.1824 H   0  0  0  0  0  0  0  0  0  0  0  0
  140.8573   73.1409  220.7611 H   0  0  0  0  0  0  0  0  0  0  0  0
  141.7324   74.2593  221.8857 H   0  0  0  0  0  0  0  0  0  0  0  0
  139.9880   72.2350  222.3450 H   0  0  0  0  0  0  0  0  0  0  0  0
  141.5297   75.9611  219.5006 H   0  0  0  0  0  0  0  0  0  0  0  0
  142.6938   78.1356  219.6159 H   0  0  0  0  0  0  0  0  0  0  0  0
  142.3598   79.6874  221.5194 H   0  0  0  0  0  0  0  0  0  0  0  0
  139.6187   76.8148  223.2523 H   0  0  0  0  0  0  0  0  0  0  0  0
  138.2614   67.8553  223.5584 H   0  0  0  0  0  0  0  0  0  0  0  0
  139.4703   66.7522  225.4318 H   0  0  0  0  0  0  0  0  0  0  0  0
  140.7329   67.0087  227.5003 H   0  0  0  0  0  0  0  0  0  0  0  0
  141.5111   70.9056  229.0964 H   0  0  0  0  0  0  0  0  0  0  0  0
  140.2868   71.9424  227.1971 H   0  0  0  0  0  0  0  0  0  0  0  0
  1  2  2  0
  2  3  1  0
  3  4  1  0
  4  5  1  0
  5  6  2  0
  5  7  1  0
  7  8  1  0
  8  9  1  0
  9 10  1  0
  9 11  1  0
 11 12  1  0
 12 13  1  0
 13 14  2  0
 13 15  1  0
 15 16  1  0
 16 17  1  0
 17 18  1  0
 16 19  1  0
 19 20  2  0
 20 21  1  0
 21 22  2  0
 22 23  1  0
 23 24  1  0
 23 25  2  0
  2 26  1  0
 26 27  2  0
 27 28  1  0
 28 29  2  0
 29 30  1  0
 30 31  2  0
 31 32  1  0
 31 33  1  0
 33 34  2  0
 34 35  1  0
 35 36  2  0
 12  7  1  0
 25 19  1  0
 36 26  1  0
 35 29  1  0
  3 37  1  0
  4 38  1  0
  4 39  1  0
  8 40  1  0
  8 41  1  0
  9 42  1  1
 10 43  1  0
 11 44  1  0
 11 45  1  0
 12 46  1  6
 15 47  1  0
 16 48  1  6
 17 49  1  0
 17 50  1  0
 18 51  1  0
 20 52  1  0
 21 53  1  0
 22 54  1  0
 25 55  1  0
 27 56  1  0
 28 57  1  0
 30 58  1  0
 33 59  1  0
 34 60  1  0
M  END
>  <smiles>  (15) 
O=C(NCC(=O)N1C[C@H](O)C[C@H]1C(=O)N[C@H](CO)c1cccc(Cl)c1)c1ccc2cc(F)ccc2n1

>  <score_type>  (15) 
oracle

>  <origin>  (15) 
autodockgpu

>  <m_score__min__energy>  (15) 
-8.9600000000000009

>  <m_primary>  (15) 
energy

>  <meeko>  (15) 
{"free_energy": -7.85, "intermolecular_energy": -10.83, "internal_energy": -3.76, "cluster_size": 10, "cluster_id": 2, "rank_in_cluster": 6}

>  <energy>  (15) 
-8.51

>  <cluster_rmsd>  (15) 
0.0

>  <rmsd>  (15) 
270.43

>  <cluster>  (15) 
3

$$$$

     RDKit          3D

 60 63  0  0  0  0  0  0  0  0999 V2000
  138.9760   72.4980  222.7380 O   0  0  0  0  0  0  0  0  0  0  0  0
  138.4500   71.3990  223.0720 C   0  0  0  0  0  0  0  0  0  0  0  0
  137.3070   70.9730  222.3060 N   0  0  0  0  0  0  0  0  0  0  0  0
  136.8900   71.8380  221.2530 C   0  0  0  0  0  0  0  0  0  0  0  0
  136.0940   73.0160  221.5530 C   0  0  0  0  0  0  0  0  0  0  0  0
  135.5550   73.5650  220.4960 O   0  0  0  0  0  0  0  0  0  0  0  0
  135.8280   73.6400  222.8000 N   0  0  0  0  0  0  0  0  0  0  0  0
  135.6510   73.0810  224.1210 C   0  0  0  0  0  0  0  0  0  0  0  0
  135.0930   74.2340  224.9690 C   0  0  2  0  0  0  0  0  0  0  0  0
  133.7330   74.2920  224.6870 O   0  0  0  0  0  0  0  0  0  0  0  0
  135.8040   75.3920  224.3420 C   0  0  0  0  0  0  0  0  0  0  0  0
  135.7160   75.1140  222.8720 C   0  0  1  0  0  0  0  0  0  0  0  0
  136.8670   75.7710  222.1730 C   0  0  0  0  0  0  0  0  0  0  0  0
  136.6110   76.7430  221.3850 O   0  0  0  0  0  0  0  0  0  0  0  0
  138.2140   75.3570  222.3550 N   0  0  0  0  0  0  0  0  0  0  0  0
  139.2940   76.0220  221.6500 C   0  0  2  0  0  0  0  0  0  0  0  0
  140.4630   75.1380  221.3570 C   0  0  0  0  0  0  0  0  0  0  0  0
  140.6210   74.1630  222.3320 O   0  0  0  0  0  0  0  0  0  0  0  0
  139.7090   77.2460  222.3850 C   0  0  0  0  0  0  0  0  0  0  0  0
  141.0610   77.3700  222.6620 C   0  0  0  0  0  0  0  0  0  0  0  0
  141.5070   78.4870  223.3440 C   0  0  0  0  0  0  0  0  0  0  0  0
  140.6630   79.4860  223.7630 C   0  0  0  0  0  0  0  0  0  0  0  0
  139.3170   79.3280  223.4680 C   0  0  0  0  0  0  0  0  0  0  0  0
  138.2100   80.5710  223.9790 Cl  0  0  0  0  0  0  0  0  0  0  0  0
  138.8360   78.2190  222.7850 C   0  0  0  0  0  0  0  0  0  0  0  0
  138.9420   70.5760  224.1630 C   0  0  0  0  0  0  0  0  0  0  0  0
  138.7430   69.2110  224.0570 C   0  0  0  0  0  0  0  0  0  0  0  0
  139.1760   68.3510  225.0440 C   0  0  0  0  0  0  0  0  0  0  0  0
  139.8180   68.8970  226.1450 C   0  0  0  0  0  0  0  0  0  0  0  0
  140.2780   68.0990  227.1720 C   0  0  0  0  0  0  0  0  0  0  0  0
  140.9170   68.6340  228.2720 C   0  0  0  0  0  0  0  0  0  0  0  0
  141.3590   67.8160  229.2680 F   0  0  0  0  0  0  0  0  0  0  0  0
  141.0960   70.0030  228.3390 C   0  0  0  0  0  0  0  0  0  0  0  0
  140.6470   70.8330  227.3270 C   0  0  0  0  0  0  0  0  0  0  0  0
  140.0070   70.2630  226.2330 C   0  0  0  0  0  0  0  0  0  0  0  0
  139.5700   71.0900  225.2450 N   0  0  0  0  0  0  0  0  0  0  0  0
  136.8920   70.0800  222.6100 H   0  0  0  0  0  0  0  0  0  0  0  0
  137.8032   72.1910  220.7515 H   0  0  0  0  0  0  0  0  0  0  0  0
  136.2022   71.2103  220.6674 H   0  0  0  0  0  0  0  0  0  0  0  0
  134.9402   72.2419  224.0937 H   0  0  0  0  0  0  0  0  0  0  0  0
  136.5913   72.6839  224.5311 H   0  0  0  0  0  0  0  0  0  0  0  0
  135.2231   74.1737  226.0596 H   0  0  0  0  0  0  0  0  0  0  0  0
  133.5940   73.7100  223.8850 H   0  0  0  0  0  0  0  0  0  0  0  0
  135.3049   76.3399  224.5919 H   0  0  0  0  0  0  0  0  0  0  0  0
  136.8412   75.4945  224.6936 H   0  0  0  0  0  0  0  0  0  0  0  0
  134.7981   75.4923  222.3983 H   0  0  0  0  0  0  0  0  0  0  0  0
  138.4880   74.5840  222.9970 H   0  0  0  0  0  0  0  0  0  0  0  0
  138.8958   76.3066  220.6649 H   0  0  0  0  0  0  0  0  0  0  0  0
  140.3060   74.6486  220.3844 H   0  0  0  0  0  0  0  0  0  0  0  0
  141.3702   75.7599  221.3409 H   0  0  0  0  0  0  0  0  0  0  0  0
  139.7030   73.9850  222.6790 H   0  0  0  0  0  0  0  0  0  0  0  0
  141.7694   76.5909  222.3439 H   0  0  0  0  0  0  0  0  0  0  0  0
  142.5817   78.5792  223.5597 H   0  0  0  0  0  0  0  0  0  0  0  0
  141.0358   80.3674  224.3054 H   0  0  0  0  0  0  0  0  0  0  0  0
  137.7619   78.1241  222.5677 H   0  0  0  0  0  0  0  0  0  0  0  0
  138.2314   68.8055  223.1716 H   0  0  0  0  0  0  0  0  0  0  0  0
  139.0171   67.2657  224.9605 H   0  0  0  0  0  0  0  0  0  0  0  0
  140.1320   67.0103  227.1127 H   0  0  0  0  0  0  0  0  0  0  0  0
  141.6039   70.4399  229.2114 H   0  0  0  0  0  0  0  0  0  0  0  0
  140.7936   71.9215  227.3872 H   0  0  0  0  0  0  0  0  0  0  0  0
  1  2  2  0
  2  3  1  0
  3  4  1  0
  4  5  1  0
  5  6  2  0
  5  7  1  0
  7  8  1  0
  8  9  1  0
  9 10  1  0
  9 11  1  0
 11 12  1  0
 12 13  1  0
 13 14  2  0
 13 15  1  0
 15 16  1  0
 16 17  1  0
 17 18  1  0
 16 19  1  0
 19 20  2  0
 20 21  1  0
 21 22  2  0
 22 23  1  0
 23 24  1  0
 23 25  2  0
  2 26  1  0
 26 27  2  0
 27 28  1  0
 28 29  2  0
 29 30  1  0
 30 31  2  0
 31 32  1  0
 31 33  1  0
 33 34  2  0
 34 35  1  0
 35 36  2  0
 12  7  1  0
 25 19  1  0
 36 26  1  0
 35 29  1  0
  3 37  1  0
  4 38  1  0
  4 39  1  0
  8 40  1  0
  8 41  1  0
  9 42  1  1
 10 43  1  0
 11 44  1  0
 11 45  1  0
 12 46  1  6
 15 47  1  0
 16 48  1  6
 17 49  1  0
 17 50  1  0
 18 51  1  0
 20 52  1  0
 21 53  1  0
 22 54  1  0
 25 55  1  0
 27 56  1  0
 28 57  1  0
 30 58  1  0
 33 59  1  0
 34 60  1  0
M  END
>  <smiles>  (16) 
O=C(NCC(=O)N1C[C@H](O)C[C@H]1C(=O)N[C@H](CO)c1cccc(Cl)c1)c1ccc2cc(F)ccc2n1

>  <score_type>  (16) 
oracle

>  <origin>  (16) 
autodockgpu

>  <m_score__min__energy>  (16) 
-8.9600000000000009

>  <m_primary>  (16) 
energy

>  <meeko>  (16) 
{"free_energy": -8.44, "intermolecular_energy": -11.42, "internal_energy": -4.08, "cluster_size": 10, "cluster_id": 2, "rank_in_cluster": 3}

>  <energy>  (16) 
-7.89

>  <cluster_rmsd>  (16) 
0.0

>  <rmsd>  (16) 
270.74

>  <cluster>  (16) 
4

$$$$

     RDKit          3D

 60 63  0  0  0  0  0  0  0  0999 V2000
  139.9470   73.0200  222.6580 O   0  0  0  0  0  0  0  0  0  0  0  0
  139.5760   71.8500  222.9570 C   0  0  0  0  0  0  0  0  0  0  0  0
  138.7490   71.1710  221.9920 N   0  0  0  0  0  0  0  0  0  0  0  0
  138.4380   71.8920  220.8030 C   0  0  0  0  0  0  0  0  0  0  0  0
  137.7170   73.1500  220.8840 C   0  0  0  0  0  0  0  0  0  0  0  0
  137.8000   73.8710  219.7970 O   0  0  0  0  0  0  0  0  0  0  0  0
  136.9550   73.6940  221.9510 N   0  0  0  0  0  0  0  0  0  0  0  0
  136.2260   73.0490  223.0200 C   0  0  0  0  0  0  0  0  0  0  0  0
  135.3770   74.1640  223.6500 C   0  0  2  0  0  0  0  0  0  0  0  0
  134.2670   74.3120  222.8270 O   0  0  0  0  0  0  0  0  0  0  0  0
  136.3040   75.3280  223.4850 C   0  0  0  0  0  0  0  0  0  0  0  0
  136.8450   75.1630  222.0980 C   0  0  1  0  0  0  0  0  0  0  0  0
  138.1930   75.8100  222.0110 C   0  0  0  0  0  0  0  0  0  0  0  0
  138.8230   76.0240  223.1010 O   0  0  0  0  0  0  0  0  0  0  0  0
  138.7870   76.1860  220.7770 N   0  0  0  0  0  0  0  0  0  0  0  0
  140.0940   76.8160  220.7460 C   0  0  2  0  0  0  0  0  0  0  0  0
  141.2340   75.8520  220.8370 C   0  0  0  0  0  0  0  0  0  0  0  0
  141.1280   75.0420  221.9600 O   0  0  0  0  0  0  0  0  0  0  0  0
  140.1840   77.8630  221.7980 C   0  0  0  0  0  0  0  0  0  0  0  0
  141.3630   77.9090  222.5240 C   0  0  0  0  0  0  0  0  0  0  0  0
  141.5040   78.8620  223.5160 C   0  0  0  0  0  0  0  0  0  0  0  0
  140.5200   79.7720  223.8150 C   0  0  0  0  0  0  0  0  0  0  0  0
  139.3540   79.6960  223.0680 C   0  0  0  0  0  0  0  0  0  0  0  0
  138.0780   80.8300  223.4130 Cl  0  0  0  0  0  0  0  0  0  0  0  0
  139.1800   78.7510  222.0660 C   0  0  0  0  0  0  0  0  0  0  0  0
  139.9410   71.1870  224.1960 C   0  0  0  0  0  0  0  0  0  0  0  0
  140.7630   71.8850  225.0620 C   0  0  0  0  0  0  0  0  0  0  0  0
  141.1610   71.3360  226.2630 C   0  0  0  0  0  0  0  0  0  0  0  0
  140.7120   70.0620  226.5750 C   0  0  0  0  0  0  0  0  0  0  0  0
  141.0690   69.4480  227.7570 C   0  0  0  0  0  0  0  0  0  0  0  0
  140.6270   68.1800  228.0750 C   0  0  0  0  0  0  0  0  0  0  0  0
  141.0000   67.6040  229.2520 F   0  0  0  0  0  0  0  0  0  0  0  0
  139.8070   67.5150  227.1820 C   0  0  0  0  0  0  0  0  0  0  0  0
  139.4280   68.1010  225.9870 C   0  0  0  0  0  0  0  0  0  0  0  0
  139.8920   69.3790  225.6960 C   0  0  0  0  0  0  0  0  0  0  0  0
  139.5120   69.9440  224.5180 N   0  0  0  0  0  0  0  0  0  0  0  0
  138.4510   70.2240  222.2690 H   0  0  0  0  0  0  0  0  0  0  0  0
  139.3937   72.1055  220.3020 H   0  0  0  0  0  0  0  0  0  0  0  0
  137.7313   71.2287  220.2828 H   0  0  0  0  0  0  0  0  0  0  0  0
  135.5823   72.2505  222.6224 H   0  0  0  0  0  0  0  0  0  0  0  0
  136.8973   72.5765  223.7521 H   0  0  0  0  0  0  0  0  0  0  0  0
  135.0304   74.0169  224.6836 H   0  0  0  0  0  0  0  0  0  0  0  0
  134.4870   73.8280  221.9790 H   0  0  0  0  0  0  0  0  0  0  0  0
  135.7596   76.2789  223.5823 H   0  0  0  0  0  0  0  0  0  0  0  0
  137.0950   75.3524  224.2491 H   0  0  0  0  0  0  0  0  0  0  0  0
  136.2213   75.6209  221.3162 H   0  0  0  0  0  0  0  0  0  0  0  0
  138.3320   76.0210  219.8540 H   0  0  0  0  0  0  0  0  0  0  0  0
  140.1916   77.2855  219.7560 H   0  0  0  0  0  0  0  0  0  0  0  0
  141.2383   75.2179  219.9382 H   0  0  0  0  0  0  0  0  0  0  0  0
  142.1677   76.4284  220.9145 H   0  0  0  0  0  0  0  0  0  0  0  0
  140.1700   74.7670  221.9970 H   0  0  0  0  0  0  0  0  0  0  0  0
  142.1754   77.1976  222.3143 H   0  0  0  0  0  0  0  0  0  0  0  0
  142.4425   78.8924  224.0889 H   0  0  0  0  0  0  0  0  0  0  0  0
  140.6501   80.5237  224.6075 H   0  0  0  0  0  0  0  0  0  0  0  0
  138.2419   78.7171  221.4925 H   0  0  0  0  0  0  0  0  0  0  0  0
  141.1048   72.8941  224.7885 H   0  0  0  0  0  0  0  0  0  0  0  0
  141.8143   71.8916  226.9518 H   0  0  0  0  0  0  0  0  0  0  0  0
  141.7218   69.9818  228.4634 H   0  0  0  0  0  0  0  0  0  0  0  0
  139.4501   66.5034  227.4255 H   0  0  0  0  0  0  0  0  0  0  0  0
  138.7735   67.5671  225.2823 H   0  0  0  0  0  0  0  0  0  0  0  0
  1  2  2  0
  2  3  1  0
  3  4  1  0
  4  5  1  0
  5  6  2  0
  5  7  1  0
  7  8  1  0
  8  9  1  0
  9 10  1  0
  9 11  1  0
 11 12  1  0
 12 13  1  0
 13 14  2  0
 13 15  1  0
 15 16  1  0
 16 17  1  0
 17 18  1  0
 16 19  1  0
 19 20  2  0
 20 21  1  0
 21 22  2  0
 22 23  1  0
 23 24  1  0
 23 25  2  0
  2 26  1  0
 26 27  2  0
 27 28  1  0
 28 29  2  0
 29 30  1  0
 30 31  2  0
 31 32  1  0
 31 33  1  0
 33 34  2  0
 34 35  1  0
 35 36  2  0
 12  7  1  0
 25 19  1  0
 36 26  1  0
 35 29  1  0
  3 37  1  0
  4 38  1  0
  4 39  1  0
  8 40  1  0
  8 41  1  0
  9 42  1  1
 10 43  1  0
 11 44  1  0
 11 45  1  0
 12 46  1  6
 15 47  1  0
 16 48  1  6
 17 49  1  0
 17 50  1  0
 18 51  1  0
 20 52  1  0
 21 53  1  0
 22 54  1  0
 25 55  1  0
 27 56  1  0
 28 57  1  0
 30 58  1  0
 33 59  1  0
 34 60  1  0
M  END
>  <smiles>  (17) 
O=C(NCC(=O)N1C[C@H](O)C[C@H]1C(=O)N[C@H](CO)c1cccc(Cl)c1)c1ccc2cc(F)ccc2n1

>  <score_type>  (17) 
oracle

>  <origin>  (17) 
autodockgpu

>  <m_score__min__energy>  (17) 
-8.9600000000000009

>  <m_primary>  (17) 
energy

>  <meeko>  (17) 
{"free_energy": -7.4, "intermolecular_energy": -10.38, "internal_energy": -4.36, "cluster_size": 10, "cluster_id": 2, "rank_in_cluster": 10}

>  <energy>  (17) 
-7.61

>  <cluster_rmsd>  (17) 
0.0

>  <rmsd>  (17) 
270.03

>  <cluster>  (17) 
5

$$$$

     RDKit          3D

 60 63  0  0  0  0  0  0  0  0999 V2000
  140.9820   74.4870  219.9690 O   0  0  0  0  0  0  0  0  0  0  0  0
  141.4840   75.4870  219.3820 C   0  0  0  0  0  0  0  0  0  0  0  0
  141.9640   75.2720  218.0400 N   0  0  0  0  0  0  0  0  0  0  0  0
  141.8210   73.9540  217.5180 C   0  0  0  0  0  0  0  0  0  0  0  0
  142.7370   72.9050  217.9320 C   0  0  0  0  0  0  0  0  0  0  0  0
  142.7030   71.8480  217.1640 O   0  0  0  0  0  0  0  0  0  0  0  0
  143.6390   72.8670  219.0270 N   0  0  0  0  0  0  0  0  0  0  0  0
  144.7090   73.7630  219.4060 C   0  0  0  0  0  0  0  0  0  0  0  0
  145.4900   73.0110  220.4940 C   0  0  2  0  0  0  0  0  0  0  0  0
  146.3210   72.1210  219.8220 O   0  0  0  0  0  0  0  0  0  0  0  0
  144.3730   72.2750  221.1630 C   0  0  0  0  0  0  0  0  0  0  0  0
  143.5380   71.7760  220.0230 C   0  0  1  0  0  0  0  0  0  0  0  0
  142.1220   71.6040  220.4820 C   0  0  0  0  0  0  0  0  0  0  0  0
  141.4940   70.5590  220.0990 O   0  0  0  0  0  0  0  0  0  0  0  0
  141.4650   72.5470  221.3160 N   0  0  0  0  0  0  0  0  0  0  0  0
  140.0900   72.3370  221.7290 C   0  0  2  0  0  0  0  0  0  0  0  0
  139.3330   73.6010  221.9840 C   0  0  0  0  0  0  0  0  0  0  0  0
  140.1830   74.6400  222.3370 O   0  0  0  0  0  0  0  0  0  0  0  0
  140.0400   71.4280  222.9040 C   0  0  0  0  0  0  0  0  0  0  0  0
  139.4740   70.1800  222.6960 C   0  0  0  0  0  0  0  0  0  0  0  0
  139.4000   69.2920  223.7530 C   0  0  0  0  0  0  0  0  0  0  0  0
  139.8650   69.5930  225.0090 C   0  0  0  0  0  0  0  0  0  0  0  0
  140.4250   70.8510  225.1810 C   0  0  0  0  0  0  0  0  0  0  0  0
  141.0280   71.2770  226.7570 Cl  0  0  0  0  0  0  0  0  0  0  0  0
  140.5140   71.7660  224.1410 C   0  0  0  0  0  0  0  0  0  0  0  0
  141.5910   76.8010  219.9900 C   0  0  0  0  0  0  0  0  0  0  0  0
  141.8300   77.8670  219.1410 C   0  0  0  0  0  0  0  0  0  0  0  0
  141.9460   79.1520  219.6290 C   0  0  0  0  0  0  0  0  0  0  0  0
  141.8150   79.3420  220.9960 C   0  0  0  0  0  0  0  0  0  0  0  0
  141.9190   80.5980  221.5560 C   0  0  0  0  0  0  0  0  0  0  0  0
  141.7910   80.7960  222.9150 C   0  0  0  0  0  0  0  0  0  0  0  0
  141.8990   82.0520  223.4340 F   0  0  0  0  0  0  0  0  0  0  0  0
  141.5520   79.7050  223.7290 C   0  0  0  0  0  0  0  0  0  0  0  0
  141.4410   78.4300  223.2010 C   0  0  0  0  0  0  0  0  0  0  0  0
  141.5770   78.2640  221.8280 C   0  0  0  0  0  0  0  0  0  0  0  0
  141.4660   77.0060  221.3220 N   0  0  0  0  0  0  0  0  0  0  0  0
  142.3800   76.1020  217.5920 H   0  0  0  0  0  0  0  0  0  0  0  0
  140.8090   73.6151  217.7844 H   0  0  0  0  0  0  0  0  0  0  0  0
  142.0474   74.0797  216.4489 H   0  0  0  0  0  0  0  0  0  0  0  0
  145.3570   73.9781  218.5436 H   0  0  0  0  0  0  0  0  0  0  0  0
  144.3298   74.7315  219.7641 H   0  0  0  0  0  0  0  0  0  0  0  0
  146.1017   73.6084  221.1861 H   0  0  0  0  0  0  0  0  0  0  0  0
  146.6070   71.4450  220.5030 H   0  0  0  0  0  0  0  0  0  0  0  0
  144.7594   71.4369  221.7616 H   0  0  0  0  0  0  0  0  0  0  0  0
  143.8048   72.9082  221.8603 H   0  0  0  0  0  0  0  0  0  0  0  0
  143.8630   70.8047  219.6219 H   0  0  0  0  0  0  0  0  0  0  0  0
  141.9290   73.4070  221.6760 H   0  0  0  0  0  0  0  0  0  0  0  0
  139.5779   71.8616  220.8795 H   0  0  0  0  0  0  0  0  0  0  0  0
  138.7863   73.8807  221.0713 H   0  0  0  0  0  0  0  0  0  0  0  0
  138.6378   73.4249  222.8181 H   0  0  0  0  0  0  0  0  0  0  0  0
  140.4370   75.0770  221.4770 H   0  0  0  0  0  0  0  0  0  0  0  0
  139.0892   69.9001  221.7042 H   0  0  0  0  0  0  0  0  0  0  0  0
  138.9498   68.3033  223.5804 H   0  0  0  0  0  0  0  0  0  0  0  0
  139.7971   68.8729  225.8378 H   0  0  0  0  0  0  0  0  0  0  0  0
  140.9627   72.7559  224.3109 H   0  0  0  0  0  0  0  0  0  0  0  0
  141.9290   77.6871  218.0604 H   0  0  0  0  0  0  0  0  0  0  0  0
  142.1365   79.9997  218.9544 H   0  0  0  0  0  0  0  0  0  0  0  0
  142.1086   81.4627  220.9031 H   0  0  0  0  0  0  0  0  0  0  0  0
  141.4483   79.8521  224.8142 H   0  0  0  0  0  0  0  0  0  0  0  0
  141.2491   77.5664  223.8547 H   0  0  0  0  0  0  0  0  0  0  0  0
  1  2  2  0
  2  3  1  0
  3  4  1  0
  4  5  1  0
  5  6  2  0
  5  7  1  0
  7  8  1  0
  8  9  1  0
  9 10  1  0
  9 11  1  0
 11 12  1  0
 12 13  1  0
 13 14  2  0
 13 15  1  0
 15 16  1  0
 16 17  1  0
 17 18  1  0
 16 19  1  0
 19 20  2  0
 20 21  1  0
 21 22  2  0
 22 23  1  0
 23 24  1  0
 23 25  2  0
  2 26  1  0
 26 27  2  0
 27 28  1  0
 28 29  2  0
 29 30  1  0
 30 31  2  0
 31 32  1  0
 31 33  1  0
 33 34  2  0
 34 35  1  0
 35 36  2  0
 12  7  1  0
 25 19  1  0
 36 26  1  0
 35 29  1  0
  3 37  1  0
  4 38  1  0
  4 39  1  0
  8 40  1  0
  8 41  1  0
  9 42  1  1
 10 43  1  0
 11 44  1  0
 11 45  1  0
 12 46  1  6
 15 47  1  0
 16 48  1  6
 17 49  1  0
 17 50  1  0
 18 51  1  0
 20 52  1  0
 21 53  1  0
 22 54  1  0
 25 55  1  0
 27 56  1  0
 28 57  1  0
 30 58  1  0
 33 59  1  0
 34 60  1  0
M  END
>  <smiles>  (18) 
O=C(NCC(=O)N1C[C@H](O)C[C@H]1C(=O)N[C@H](CO)c1cccc(Cl)c1)c1ccc2cc(F)ccc2n1

>  <score_type>  (18) 
oracle

>  <origin>  (18) 
autodockgpu

>  <m_score__min__energy>  (18) 
-8.9600000000000009

>  <m_primary>  (18) 
energy

>  <meeko>  (18) 
{"free_energy": -7.38, "intermolecular_energy": -10.36, "internal_energy": -4.62, "cluster_size": 1, "cluster_id": 6, "rank_in_cluster": 1}

>  <energy>  (18) 
-7.38

>  <cluster_rmsd>  (18) 
0.0

>  <rmsd>  (18) 
270.31

>  <cluster>  (18) 
6

$$$$

     RDKit          3D

 60 63  0  0  0  0  0  0  0  0999 V2000
  138.3470   72.8810  222.3450 O   0  0  0  0  0  0  0  0  0  0  0  0
  138.0290   71.7890  222.8950 C   0  0  0  0  0  0  0  0  0  0  0  0
  136.8240   71.1560  222.4210 N   0  0  0  0  0  0  0  0  0  0  0  0
  136.1190   71.8300  221.3820 C   0  0  0  0  0  0  0  0  0  0  0  0
  135.5870   73.1630  221.6110 C   0  0  0  0  0  0  0  0  0  0  0  0
  135.1460   73.7430  220.5260 O   0  0  0  0  0  0  0  0  0  0  0  0
  135.4820   73.9040  222.8170 N   0  0  0  0  0  0  0  0  0  0  0  0
  135.3430   73.4700  224.1880 C   0  0  0  0  0  0  0  0  0  0  0  0
  134.9770   74.7390  224.9720 C   0  0  2  0  0  0  0  0  0  0  0  0
  133.6130   74.9290  224.7760 O   0  0  0  0  0  0  0  0  0  0  0  0
  135.7590   75.7590  224.2070 C   0  0  0  0  0  0  0  0  0  0  0  0
  135.5340   75.3830  222.7730 C   0  0  1  0  0  0  0  0  0  0  0  0
  136.6950   75.8510  221.9500 C   0  0  0  0  0  0  0  0  0  0  0  0
  136.4480   76.5910  220.9380 O   0  0  0  0  0  0  0  0  0  0  0  0
  138.0400   75.5060  222.2510 N   0  0  0  0  0  0  0  0  0  0  0  0
  139.1290   75.9810  221.4170 C   0  0  2  0  0  0  0  0  0  0  0  0
  140.2120   74.9720  221.2020 C   0  0  0  0  0  0  0  0  0  0  0  0
  140.3750   74.1560  222.3130 O   0  0  0  0  0  0  0  0  0  0  0  0
  139.6730   77.2540  221.9590 C   0  0  0  0  0  0  0  0  0  0  0  0
  141.0210   77.4890  221.7460 C   0  0  0  0  0  0  0  0  0  0  0  0
  141.5830   78.6570  222.2270 C   0  0  0  0  0  0  0  0  0  0  0  0
  140.8590   79.6010  222.9130 C   0  0  0  0  0  0  0  0  0  0  0  0
  139.5120   79.3320  223.1090 C   0  0  0  0  0  0  0  0  0  0  0  0
  138.5540   80.5000  223.9740 Cl  0  0  0  0  0  0  0  0  0  0  0  0
  138.9170   78.1690  222.6390 C   0  0  0  0  0  0  0  0  0  0  0  0
  138.8080   71.1680  223.9520 C   0  0  0  0  0  0  0  0  0  0  0  0
  139.9520   71.8310  224.3580 C   0  0  0  0  0  0  0  0  0  0  0  0
  140.7550   71.3170  225.3550 C   0  0  0  0  0  0  0  0  0  0  0  0
  140.3780   70.1170  225.9390 C   0  0  0  0  0  0  0  0  0  0  0  0
  141.1300   69.5430  226.9420 C   0  0  0  0  0  0  0  0  0  0  0  0
  140.7640   68.3490  227.5270 C   0  0  0  0  0  0  0  0  0  0  0  0
  141.5310   67.8110  228.5160 F   0  0  0  0  0  0  0  0  0  0  0  0
  139.6120   67.7190  227.0930 C   0  0  0  0  0  0  0  0  0  0  0  0
  138.8330   68.2670  226.0890 C   0  0  0  0  0  0  0  0  0  0  0  0
  139.2310   69.4700  225.5190 C   0  0  0  0  0  0  0  0  0  0  0  0
  138.4560   69.9980  224.5330 N   0  0  0  0  0  0  0  0  0  0  0  0
  136.5820   70.2750  222.8980 H   0  0  0  0  0  0  0  0  0  0  0  0
  136.8081   71.9055  220.5279 H   0  0  0  0  0  0  0  0  0  0  0  0
  135.2156   71.2164  221.2502 H   0  0  0  0  0  0  0  0  0  0  0  0
  134.5455   72.7176  224.2763 H   0  0  0  0  0  0  0  0  0  0  0  0
  136.2625   73.0007  224.5679 H   0  0  0  0  0  0  0  0  0  0  0  0
  135.1810   74.7461  226.0529 H   0  0  0  0  0  0  0  0  0  0  0  0
  133.4020   74.5100  223.8920 H   0  0  0  0  0  0  0  0  0  0  0  0
  135.3836   76.7729  224.4095 H   0  0  0  0  0  0  0  0  0  0  0  0
  136.8243   75.7705  224.4809 H   0  0  0  0  0  0  0  0  0  0  0  0
  134.6300   75.8257  222.3294 H   0  0  0  0  0  0  0  0  0  0  0  0
  138.3060   74.9230  223.0710 H   0  0  0  0  0  0  0  0  0  0  0  0
  138.7029   76.1636  220.4195 H   0  0  0  0  0  0  0  0  0  0  0  0
  139.9515   74.3473  220.3349 H   0  0  0  0  0  0  0  0  0  0  0  0
  141.1554   75.5102  221.0277 H   0  0  0  0  0  0  0  0  0  0  0  0
  139.4610   74.0430  222.6950 H   0  0  0  0  0  0  0  0  0  0  0  0
  141.6358   76.7569  221.2019 H   0  0  0  0  0  0  0  0  0  0  0  0
  142.6540   78.8376  222.0531 H   0  0  0  0  0  0  0  0  0  0  0  0
  141.3239   80.5245  223.2884 H   0  0  0  0  0  0  0  0  0  0  0  0
  137.8464   77.9848  222.8120 H   0  0  0  0  0  0  0  0  0  0  0  0
  140.2256   72.7825  223.8787 H   0  0  0  0  0  0  0  0  0  0  0  0
  141.6661   71.8427  225.6768 H   0  0  0  0  0  0  0  0  0  0  0  0
  142.0444   70.0499  227.2840 H   0  0  0  0  0  0  0  0  0  0  0  0
  139.3099   66.7667  227.5534 H   0  0  0  0  0  0  0  0  0  0  0  0
  137.9175   67.7606  225.7492 H   0  0  0  0  0  0  0  0  0  0  0  0
  1  2  2  0
  2  3  1  0
  3  4  1  0
  4  5  1  0
  5  6  2  0
  5  7  1  0
  7  8  1  0
  8  9  1  0
  9 10  1  0
  9 11  1  0
 11 12  1  0
 12 13  1  0
 13 14  2  0
 13 15  1  0
 15 16  1  0
 16 17  1  0
 17 18  1  0
 16 19  1  0
 19 20  2  0
 20 21  1  0
 21 22  2  0
 22 23  1  0
 23 24  1  0
 23 25  2  0
  2 26  1  0
 26 27  2  0
 27 28  1  0
 28 29  2  0
 29 30  1  0
 30 31  2  0
 31 32  1  0
 31 33  1  0
 33 34  2  0
 34 35  1  0
 35 36  2  0
 12  7  1  0
 25 19  1  0
 36 26  1  0
 35 29  1  0
  3 37  1  0
  4 38  1  0
  4 39  1  0
  8 40  1  0
  8 41  1  0
  9 42  1  1
 10 43  1  0
 11 44  1  0
 11 45  1  0
 12 46  1  6
 15 47  1  0
 16 48  1  6
 17 49  1  0
 17 50  1  0
 18 51  1  0
 20 52  1  0
 21 53  1  0
 22 54  1  0
 25 55  1  0
 27 56  1  0
 28 57  1  0
 30 58  1  0
 33 59  1  0
 34 60  1  0
M  END
>  <smiles>  (19) 
O=C(NCC(=O)N1C[C@H](O)C[C@H]1C(=O)N[C@H](CO)c1cccc(Cl)c1)c1ccc2cc(F)ccc2n1

>  <score_type>  (19) 
oracle

>  <origin>  (19) 
autodockgpu

>  <m_score__min__energy>  (19) 
-8.9600000000000009

>  <m_primary>  (19) 
energy

>  <meeko>  (19) 
{"free_energy": -7.73, "intermolecular_energy": -10.71, "internal_energy": -4.44, "cluster_size": 10, "cluster_id": 2, "rank_in_cluster": 8}

>  <energy>  (19) 
-7.33

>  <cluster_rmsd>  (19) 
0.0

>  <rmsd>  (19) 
270.4

>  <cluster>  (19) 
7

$$$$

     RDKit          3D

 60 63  0  0  0  0  0  0  0  0999 V2000
  136.8940   69.9600  222.5540 O   0  0  0  0  0  0  0  0  0  0  0  0
  137.6900   70.7430  223.1460 C   0  0  0  0  0  0  0  0  0  0  0  0
  137.7790   72.0840  222.6270 N   0  0  0  0  0  0  0  0  0  0  0  0
  136.9600   72.3850  221.5010 C   0  0  0  0  0  0  0  0  0  0  0  0
  135.9740   73.4490  221.5820 C   0  0  0  0  0  0  0  0  0  0  0  0
  135.3930   73.7110  220.4420 O   0  0  0  0  0  0  0  0  0  0  0  0
  135.5650   74.2240  222.6990 N   0  0  0  0  0  0  0  0  0  0  0  0
  135.1400   73.8300  224.0220 C   0  0  0  0  0  0  0  0  0  0  0  0
  134.5480   75.1050  224.6450 C   0  0  2  0  0  0  0  0  0  0  0  0
  133.2580   75.2150  224.1390 O   0  0  0  0  0  0  0  0  0  0  0  0
  135.4380   76.1380  224.0290 C   0  0  0  0  0  0  0  0  0  0  0  0
  135.5610   75.7020  222.6010 C   0  0  1  0  0  0  0  0  0  0  0  0
  136.8560   76.2030  222.0390 C   0  0  0  0  0  0  0  0  0  0  0  0
  136.8110   77.1830  221.2200 O   0  0  0  0  0  0  0  0  0  0  0  0
  138.1120   75.6350  222.3790 N   0  0  0  0  0  0  0  0  0  0  0  0
  139.3390   76.1530  221.8020 C   0  0  2  0  0  0  0  0  0  0  0  0
  140.4510   75.1560  221.7450 C   0  0  0  0  0  0  0  0  0  0  0  0
  140.0690   73.9350  222.2850 O   0  0  0  0  0  0  0  0  0  0  0  0
  139.7560   77.3920  222.5110 C   0  0  0  0  0  0  0  0  0  0  0  0
  141.1170   77.5620  222.7070 C   0  0  0  0  0  0  0  0  0  0  0  0
  141.5650   78.6950  223.3610 C   0  0  0  0  0  0  0  0  0  0  0  0
  140.7140   79.6670  223.8270 C   0  0  0  0  0  0  0  0  0  0  0  0
  139.3590   79.4630  223.6130 C   0  0  0  0  0  0  0  0  0  0  0  0
  138.2430   80.6690  224.1880 Cl  0  0  0  0  0  0  0  0  0  0  0  0
  138.8760   78.3370  222.9610 C   0  0  0  0  0  0  0  0  0  0  0  0
  138.4910   70.3520  224.2920 C   0  0  0  0  0  0  0  0  0  0  0  0
  138.5010   69.0090  224.6220 C   0  0  0  0  0  0  0  0  0  0  0  0
  139.2340   68.5450  225.6950 C   0  0  0  0  0  0  0  0  0  0  0  0
  139.9610   69.4680  226.4320 C   0  0  0  0  0  0  0  0  0  0  0  0
  140.7160   69.0790  227.5180 C   0  0  0  0  0  0  0  0  0  0  0  0
  141.4410   69.9890  228.2580 C   0  0  0  0  0  0  0  0  0  0  0  0
  142.1770   69.5690  229.3240 F   0  0  0  0  0  0  0  0  0  0  0  0
  141.4050   71.3230  227.8950 C   0  0  0  0  0  0  0  0  0  0  0  0
  140.6580   71.7490  226.8110 C   0  0  0  0  0  0  0  0  0  0  0  0
  139.9370   70.8060  226.0870 C   0  0  0  0  0  0  0  0  0  0  0  0
  139.2070   71.2380  225.0240 N   0  0  0  0  0  0  0  0  0  0  0  0
  138.4460   72.6950  223.1210 H   0  0  0  0  0  0  0  0  0  0  0  0
  137.6388   72.6437  220.6750 H   0  0  0  0  0  0  0  0  0  0  0  0
  136.3455   71.4798  221.3869 H   0  0  0  0  0  0  0  0  0  0  0  0
  134.3784   73.0384  223.9639 H   0  0  0  0  0  0  0  0  0  0  0  0
  135.9700   73.4248  224.6194 H   0  0  0  0  0  0  0  0  0  0  0  0
  134.4998   75.1605  225.7425 H   0  0  0  0  0  0  0  0  0  0  0  0
  133.2550   74.6990  223.2810 H   0  0  0  0  0  0  0  0  0  0  0  0
  134.9824   77.1370  224.0954 H   0  0  0  0  0  0  0  0  0  0  0  0
  136.4119   76.2150  224.5346 H   0  0  0  0  0  0  0  0  0  0  0  0
  134.7626   76.0806  221.9459 H   0  0  0  0  0  0  0  0  0  0  0  0
  138.2160   74.8480  223.0540 H   0  0  0  0  0  0  0  0  0  0  0  0
  139.1142   76.3926  220.7522 H   0  0  0  0  0  0  0  0  0  0  0  0
  140.7434   75.0065  220.6952 H   0  0  0  0  0  0  0  0  0  0  0  0
  141.2938   75.5454  222.3350 H   0  0  0  0  0  0  0  0  0  0  0  0
  139.5490   74.1600  223.1060 H   0  0  0  0  0  0  0  0  0  0  0  0
  141.8310   76.8064  222.3475 H   0  0  0  0  0  0  0  0  0  0  0  0
  142.6467   78.8229  223.5142 H   0  0  0  0  0  0  0  0  0  0  0  0
  141.0885   80.5627  224.3442 H   0  0  0  0  0  0  0  0  0  0  0  0
  137.7947   78.2059  222.8076 H   0  0  0  0  0  0  0  0  0  0  0  0
  137.9152   68.2993  224.0194 H   0  0  0  0  0  0  0  0  0  0  0  0
  139.2415   67.4768  225.9576 H   0  0  0  0  0  0  0  0  0  0  0  0
  140.7406   68.0164  227.8012 H   0  0  0  0  0  0  0  0  0  0  0  0
  141.9799   72.0577  228.4778 H   0  0  0  0  0  0  0  0  0  0  0  0
  140.6350   72.8117  226.5279 H   0  0  0  0  0  0  0  0  0  0  0  0
  1  2  2  0
  2  3  1  0
  3  4  1  0
  4  5  1  0
  5  6  2  0
  5  7  1  0
  7  8  1  0
  8  9  1  0
  9 10  1  0
  9 11  1  0
 11 12  1  0
 12 13  1  0
 13 14  2  0
 13 15  1  0
 15 16  1  0
 16 17  1  0
 17 18  1  0
 16 19  1  0
 19 20  2  0
 20 21  1  0
 21 22  2  0
 22 23  1  0
 23 24  1  0
 23 25  2  0
  2 26  1  0
 26 27  2  0
 27 28  1  0
 28 29  2  0
 29 30  1  0
 30 31  2  0
 31 32  1  0
 31 33  1  0
 33 34  2  0
 34 35  1  0
 35 36  2  0
 12  7  1  0
 25 19  1  0
 36 26  1  0
 35 29  1  0
  3 37  1  0
  4 38  1  0
  4 39  1  0
  8 40  1  0
  8 41  1  0
  9 42  1  1
 10 43  1  0
 11 44  1  0
 11 45  1  0
 12 46  1  6
 15 47  1  0
 16 48  1  6
 17 49  1  0
 17 50  1  0
 18 51  1  0
 20 52  1  0
 21 53  1  0
 22 54  1  0
 25 55  1  0
 27 56  1  0
 28 57  1  0
 30 58  1  0
 33 59  1  0
 34 60  1  0
M  END
>  <smiles>  (20) 
O=C(NCC(=O)N1C[C@H](O)C[C@H]1C(=O)N[C@H](CO)c1cccc(Cl)c1)c1ccc2cc(F)ccc2n1

>  <score_type>  (20) 
oracle

>  <origin>  (20) 
autodockgpu

>  <m_score__min__energy>  (20) 
-8.9600000000000009

>  <m_primary>  (20) 
energy

>  <meeko>  (20) 
{"free_energy": -8.58, "intermolecular_energy": -11.57, "internal_energy": -3.69, "cluster_size": 10, "cluster_id": 2, "rank_in_cluster": 2}

>  <energy>  (20) 
-7.32

>  <cluster_rmsd>  (20) 
0.0

>  <rmsd>  (20) 
270.64

>  <cluster>  (20) 
8

$$$$
