ULEHMWWQIZHLHN-YHMJCDSINA-N
     RDKit          3D

 27 29  0  0  0  0  0  0  0  0999 V2000
  138.2730   67.7230  221.3920 C   0  0  0  0  0  0  0  0  0  0  0  0
  138.7790   68.2600  222.6890 C   0  0  0  0  0  0  0  0  0  0  0  0
  139.2540   69.5350  222.7570 N   0  0  0  0  0  0  0  0  0  0  0  0
  139.7410   69.9910  223.9350 C   0  0  0  0  0  0  0  0  0  0  0  0
  140.3420   71.5280  224.2430 S   0  0  0  0  0  0  0  0  0  0  0  0
  140.6620   71.2060  225.8710 C   0  0  0  0  0  0  0  0  0  0  0  0
  140.3400   69.8800  226.1770 C   0  0  0  0  0  0  0  0  0  0  0  0
  139.7880   69.2040  225.0720 C   0  0  0  0  0  0  0  0  0  0  0  0
  139.2980   67.8960  224.9880 C   0  0  0  0  0  0  0  0  0  0  0  0
  139.2930   67.0490  226.0930 O   0  0  0  0  0  0  0  0  0  0  0  0
  138.8110   67.4550  223.7930 N   0  0  0  0  0  0  0  0  0  0  0  0
  140.4930   69.3250  227.5720 C   0  0  0  0  0  0  0  0  0  0  0  0
  141.4110   70.2060  228.4410 C   0  0  0  0  0  0  0  0  0  0  0  0
  141.0810   71.6980  228.2810 C   0  0  0  0  0  0  0  0  0  0  0  0
  141.3020   72.1600  226.8330 C   0  0  0  0  0  0  0  0  0  0  0  0
  137.5305   66.9350  221.5861 H   0  0  0  0  0  0  0  0  0  0  0  0
  137.8041   68.5350  220.8169 H   0  0  0  0  0  0  0  0  0  0  0  0
  139.1114   67.3031  220.8169 H   0  0  0  0  0  0  0  0  0  0  0  0
  139.6920   67.3440  226.9760 H   0  0  0  0  0  0  0  0  0  0  0  0
  140.9249   68.3153  227.5081 H   0  0  0  0  0  0  0  0  0  0  0  0
  139.4984   69.3007  228.0412 H   0  0  0  0  0  0  0  0  0  0  0  0
  142.4558   70.0374  228.1409 H   0  0  0  0  0  0  0  0  0  0  0  0
  141.2551   69.9305  229.4945 H   0  0  0  0  0  0  0  0  0  0  0  0
  141.7307   72.2834  228.9482 H   0  0  0  0  0  0  0  0  0  0  0  0
  140.0230   71.8519  228.5397 H   0  0  0  0  0  0  0  0  0  0  0  0
  142.3820   72.2080  226.6298 H   0  0  0  0  0  0  0  0  0  0  0  0
  140.8458   73.1526  226.7041 H   0  0  0  0  0  0  0  0  0  0  0  0
  1  2  1  0
  2  3  2  0
  3  4  1  0
  4  5  1  0
  5  6  1  0
  6  7  2  0
  7  8  1  0
  8  9  1  0
  9 10  1  0
  9 11  2  0
  7 12  1  0
 12 13  1  0
 13 14  1  0
 14 15  1  0
 11  2  1  0
  8  4  2  0
 15  6  1  0
  1 16  1  0
  1 17  1  0
  1 18  1  0
 10 19  1  0
 12 20  1  0
 12 21  1  0
 13 22  1  0
 13 23  1  0
 14 24  1  0
 14 25  1  0
 15 26  1  0
 15 27  1  0
M  END
>  <UniqueID>  (1) 
25

>  <SMILES>  (1) 
Cc1nc(O)c2c3c(sc2n1)CCCC3

>  <Energy>  (1) 
59.402327907086246

>  <Genealogy>  (1) 
Cc1nc(O)c2c3c(sc2n1)CCCC3 (tautomer)
Cc1nc(O)c2c3c(sc2n1)CCCC3 (3D coordinates assigned)
Cc1nc(O)c2c3c(sc2n1)CCCC3 (nonaromatic ring conformer: 59.402327907086246 kcal/mol)

>  <smiles>  (1) 
Cc1nc2sc3c(c2c(=O)[nH]1)CCCC3

>  <score_type>  (1) 
oracle

>  <origin>  (1) 
autodockgpu

>  <m_score__min__energy>  (1) 
-6.0899999999999999

>  <m_primary>  (1) 
energy

>  <meeko>  (1) 
{"free_energy": -5.94, "intermolecular_energy": -6.24, "internal_energy": 0.13, "cluster_size": 12, "cluster_id": 1, "rank_in_cluster": 12}

>  <energy>  (1) 
-6.09

>  <cluster_rmsd>  (1) 
0.0

>  <rmsd>  (1) 
272.48

>  <cluster>  (1) 
1

$$$$
ULEHMWWQIZHLHN-YHMJCDSINA-N
     RDKit          3D

 27 29  0  0  0  0  0  0  0  0999 V2000
  138.2820   67.4340  221.7410 C   0  0  0  0  0  0  0  0  0  0  0  0
  138.7870   68.0600  222.9970 C   0  0  0  0  0  0  0  0  0  0  0  0
  139.2540   69.3410  222.9770 N   0  0  0  0  0  0  0  0  0  0  0  0
  139.7400   69.8780  224.1200 C   0  0  0  0  0  0  0  0  0  0  0  0
  140.3320   71.4360  224.3210 S   0  0  0  0  0  0  0  0  0  0  0  0
  140.6570   71.2290  225.9670 C   0  0  0  0  0  0  0  0  0  0  0  0
  140.3440   69.9250  226.3640 C   0  0  0  0  0  0  0  0  0  0  0  0
  139.7940   69.1720  225.3080 C   0  0  0  0  0  0  0  0  0  0  0  0
  139.3120   67.8580  225.3150 C   0  0  0  0  0  0  0  0  0  0  0  0
  139.3140   67.0880  226.4750 O   0  0  0  0  0  0  0  0  0  0  0  0
  138.8260   67.3330  224.1540 N   0  0  0  0  0  0  0  0  0  0  0  0
  140.5030   69.4680  227.7920 C   0  0  0  0  0  0  0  0  0  0  0  0
  141.4170   70.4110  228.5970 C   0  0  0  0  0  0  0  0  0  0  0  0
  141.0760   71.8870  228.3370 C   0  0  0  0  0  0  0  0  0  0  0  0
  141.2920   72.2500  226.8600 C   0  0  0  0  0  0  0  0  0  0  0  0
  137.6095   66.6004  221.9915 H   0  0  0  0  0  0  0  0  0  0  0  0
  137.7330   68.1839  221.1526 H   0  0  0  0  0  0  0  0  0  0  0  0
  139.1311   67.0560  221.1526 H   0  0  0  0  0  0  0  0  0  0  0  0
  140.1720   66.6780  226.8250 H   0  0  0  0  0  0  0  0  0  0  0  0
  140.9408   68.4589  227.7961 H   0  0  0  0  0  0  0  0  0  0  0  0
  139.5094   69.4703  228.2640 H   0  0  0  0  0  0  0  0  0  0  0  0
  142.4622   70.2294  228.3062 H   0  0  0  0  0  0  0  0  0  0  0  0
  141.2660   70.2061  229.6672 H   0  0  0  0  0  0  0  0  0  0  0  0
  141.7226   72.5210  228.9615 H   0  0  0  0  0  0  0  0  0  0  0  0
  140.0175   72.0515  228.5871 H   0  0  0  0  0  0  0  0  0  0  0  0
  142.3714   72.2906  226.6520 H   0  0  0  0  0  0  0  0  0  0  0  0
  140.8292   73.2286  226.6644 H   0  0  0  0  0  0  0  0  0  0  0  0
  1  2  1  0
  2  3  2  0
  3  4  1  0
  4  5  1  0
  5  6  1  0
  6  7  2  0
  7  8  1  0
  8  9  1  0
  9 10  1  0
  9 11  2  0
  7 12  1  0
 12 13  1  0
 13 14  1  0
 14 15  1  0
 11  2  1  0
  8  4  2  0
 15  6  1  0
  1 16  1  0
  1 17  1  0
  1 18  1  0
 10 19  1  0
 12 20  1  0
 12 21  1  0
 13 22  1  0
 13 23  1  0
 14 24  1  0
 14 25  1  0
 15 26  1  0
 15 27  1  0
M  END
>  <UniqueID>  (2) 
25

>  <SMILES>  (2) 
Cc1nc(O)c2c3c(sc2n1)CCCC3

>  <Energy>  (2) 
59.402327907086246

>  <Genealogy>  (2) 
Cc1nc(O)c2c3c(sc2n1)CCCC3 (tautomer)
Cc1nc(O)c2c3c(sc2n1)CCCC3 (3D coordinates assigned)
Cc1nc(O)c2c3c(sc2n1)CCCC3 (nonaromatic ring conformer: 59.402327907086246 kcal/mol)

>  <smiles>  (2) 
Cc1nc2sc3c(c2c(=O)[nH]1)CCCC3

>  <score_type>  (2) 
oracle

>  <origin>  (2) 
autodockgpu

>  <m_score__min__energy>  (2) 
-6.0899999999999999

>  <m_primary>  (2) 
energy

>  <meeko>  (2) 
{"free_energy": -6.09, "intermolecular_energy": -6.39, "internal_energy": 0.07, "cluster_size": 12, "cluster_id": 1, "rank_in_cluster": 1}

>  <energy>  (2) 
-6.09

>  <cluster_rmsd>  (2) 
0.04

>  <rmsd>  (2) 
272.48

>  <cluster>  (2) 
1

$$$$
ULEHMWWQIZHLHN-YHMJCDSINA-N
     RDKit          3D

 27 29  0  0  0  0  0  0  0  0999 V2000
  138.3250   67.6360  221.4450 C   0  0  0  0  0  0  0  0  0  0  0  0
  138.8150   68.1850  222.7420 C   0  0  0  0  0  0  0  0  0  0  0  0
  139.2970   69.4590  222.8020 N   0  0  0  0  0  0  0  0  0  0  0  0
  139.7700   69.9260  223.9810 C   0  0  0  0  0  0  0  0  0  0  0  0
  140.3760   71.4630  224.2780 S   0  0  0  0  0  0  0  0  0  0  0  0
  140.6710   71.1590  225.9150 C   0  0  0  0  0  0  0  0  0  0  0  0
  140.3360   69.8390  226.2330 C   0  0  0  0  0  0  0  0  0  0  0  0
  139.7960   69.1530  225.1280 C   0  0  0  0  0  0  0  0  0  0  0  0
  139.2990   67.8470  225.0530 C   0  0  0  0  0  0  0  0  0  0  0  0
  139.2740   67.0140  226.1680 O   0  0  0  0  0  0  0  0  0  0  0  0
  138.8270   67.3940  223.8560 N   0  0  0  0  0  0  0  0  0  0  0  0
  140.4660   69.3010  227.6360 C   0  0  0  0  0  0  0  0  0  0  0  0
  141.3770   70.1860  228.5070 C   0  0  0  0  0  0  0  0  0  0  0  0
  141.0580   71.6780  228.3250 C   0  0  0  0  0  0  0  0  0  0  0  0
  141.3030   72.1210  226.8740 C   0  0  0  0  0  0  0  0  0  0  0  0
  137.6039   66.8281  221.6379 H   0  0  0  0  0  0  0  0  0  0  0  0
  137.8348   68.4356  220.8702 H   0  0  0  0  0  0  0  0  0  0  0  0
  139.1749   67.2394  220.8702 H   0  0  0  0  0  0  0  0  0  0  0  0
  140.0640   66.9650  226.7990 H   0  0  0  0  0  0  0  0  0  0  0  0
  140.8921   68.2879  227.5906 H   0  0  0  0  0  0  0  0  0  0  0  0
  139.4647   69.2894  228.0914 H   0  0  0  0  0  0  0  0  0  0  0  0
  142.4248   70.0078  228.2233 H   0  0  0  0  0  0  0  0  0  0  0  0
  141.2053   69.9236  229.5614 H   0  0  0  0  0  0  0  0  0  0  0  0
  141.7015   72.2676  228.9946 H   0  0  0  0  0  0  0  0  0  0  0  0
  139.9974   71.8415  228.5668 H   0  0  0  0  0  0  0  0  0  0  0  0
  142.3861   72.1599  226.6859 H   0  0  0  0  0  0  0  0  0  0  0  0
  140.8551   73.1148  226.7262 H   0  0  0  0  0  0  0  0  0  0  0  0
  1  2  1  0
  2  3  2  0
  3  4  1  0
  4  5  1  0
  5  6  1  0
  6  7  2  0
  7  8  1  0
  8  9  1  0
  9 10  1  0
  9 11  2  0
  7 12  1  0
 12 13  1  0
 13 14  1  0
 14 15  1  0
 11  2  1  0
  8  4  2  0
 15  6  1  0
  1 16  1  0
  1 17  1  0
  1 18  1  0
 10 19  1  0
 12 20  1  0
 12 21  1  0
 13 22  1  0
 13 23  1  0
 14 24  1  0
 14 25  1  0
 15 26  1  0
 15 27  1  0
M  END
>  <UniqueID>  (3) 
25

>  <SMILES>  (3) 
Cc1nc(O)c2c3c(sc2n1)CCCC3

>  <Energy>  (3) 
59.402327907086246

>  <Genealogy>  (3) 
Cc1nc(O)c2c3c(sc2n1)CCCC3 (tautomer)
Cc1nc(O)c2c3c(sc2n1)CCCC3 (3D coordinates assigned)
Cc1nc(O)c2c3c(sc2n1)CCCC3 (nonaromatic ring conformer: 59.402327907086246 kcal/mol)

>  <smiles>  (3) 
Cc1nc2sc3c(c2c(=O)[nH]1)CCCC3

>  <score_type>  (3) 
oracle

>  <origin>  (3) 
autodockgpu

>  <m_score__min__energy>  (3) 
-6.0899999999999999

>  <m_primary>  (3) 
energy

>  <meeko>  (3) 
{"free_energy": -6.03, "intermolecular_energy": -6.33, "internal_energy": 0.08, "cluster_size": 12, "cluster_id": 1, "rank_in_cluster": 11}

>  <energy>  (3) 
-6.09

>  <cluster_rmsd>  (3) 
0.07

>  <rmsd>  (3) 
272.45

>  <cluster>  (3) 
1

$$$$
ULEHMWWQIZHLHN-YHMJCDSINA-N
     RDKit          3D

 27 29  0  0  0  0  0  0  0  0999 V2000
  138.3260   67.4420  221.6960 C   0  0  0  0  0  0  0  0  0  0  0  0
  138.8140   68.0690  222.9590 C   0  0  0  0  0  0  0  0  0  0  0  0
  139.2920   69.3450  222.9430 N   0  0  0  0  0  0  0  0  0  0  0  0
  139.7640   69.8820  224.0930 C   0  0  0  0  0  0  0  0  0  0  0  0
  140.3640   71.4360  224.2990 S   0  0  0  0  0  0  0  0  0  0  0  0
  140.6610   71.2300  225.9500 C   0  0  0  0  0  0  0  0  0  0  0  0
  140.3300   69.9300  226.3460 C   0  0  0  0  0  0  0  0  0  0  0  0
  139.7920   69.1780  225.2830 C   0  0  0  0  0  0  0  0  0  0  0  0
  139.3000   67.8680  225.2860 C   0  0  0  0  0  0  0  0  0  0  0  0
  139.2770   67.1020  226.4470 O   0  0  0  0  0  0  0  0  0  0  0  0
  138.8290   67.3440  224.1180 N   0  0  0  0  0  0  0  0  0  0  0  0
  140.4620   69.4750  227.7780 C   0  0  0  0  0  0  0  0  0  0  0  0
  141.3700   70.4140  228.5950 C   0  0  0  0  0  0  0  0  0  0  0  0
  141.0460   71.8910  228.3250 C   0  0  0  0  0  0  0  0  0  0  0  0
  141.2900   72.2490  226.8510 C   0  0  0  0  0  0  0  0  0  0  0  0
  137.6669   66.5952  221.9379 H   0  0  0  0  0  0  0  0  0  0  0  0
  137.7669   68.1859  221.1095 H   0  0  0  0  0  0  0  0  0  0  0  0
  139.1844   67.0827  221.1095 H   0  0  0  0  0  0  0  0  0  0  0  0
  140.1100   66.6250  226.7720 H   0  0  0  0  0  0  0  0  0  0  0  0
  140.8922   68.4627  227.7918 H   0  0  0  0  0  0  0  0  0  0  0  0
  139.4609   69.4852  228.2338 H   0  0  0  0  0  0  0  0  0  0  0  0
  142.4184   70.2230  228.3223 H   0  0  0  0  0  0  0  0  0  0  0  0
  141.1989   70.2142  229.6631 H   0  0  0  0  0  0  0  0  0  0  0  0
  141.6870   72.5213  228.9589 H   0  0  0  0  0  0  0  0  0  0  0  0
  139.9846   72.0643  228.5561 H   0  0  0  0  0  0  0  0  0  0  0  0
  142.3730   72.2802  226.6610 H   0  0  0  0  0  0  0  0  0  0  0  0
  140.8392   73.2311  226.6451 H   0  0  0  0  0  0  0  0  0  0  0  0
  1  2  1  0
  2  3  2  0
  3  4  1  0
  4  5  1  0
  5  6  1  0
  6  7  2  0
  7  8  1  0
  8  9  1  0
  9 10  1  0
  9 11  2  0
  7 12  1  0
 12 13  1  0
 13 14  1  0
 14 15  1  0
 11  2  1  0
  8  4  2  0
 15  6  1  0
  1 16  1  0
  1 17  1  0
  1 18  1  0
 10 19  1  0
 12 20  1  0
 12 21  1  0
 13 22  1  0
 13 23  1  0
 14 24  1  0
 14 25  1  0
 15 26  1  0
 15 27  1  0
M  END
>  <UniqueID>  (4) 
25

>  <SMILES>  (4) 
Cc1nc(O)c2c3c(sc2n1)CCCC3

>  <Energy>  (4) 
59.402327907086246

>  <Genealogy>  (4) 
Cc1nc(O)c2c3c(sc2n1)CCCC3 (tautomer)
Cc1nc(O)c2c3c(sc2n1)CCCC3 (3D coordinates assigned)
Cc1nc(O)c2c3c(sc2n1)CCCC3 (nonaromatic ring conformer: 59.402327907086246 kcal/mol)

>  <smiles>  (4) 
Cc1nc2sc3c(c2c(=O)[nH]1)CCCC3

>  <score_type>  (4) 
oracle

>  <origin>  (4) 
autodockgpu

>  <m_score__min__energy>  (4) 
-6.0899999999999999

>  <m_primary>  (4) 
energy

>  <meeko>  (4) 
{"free_energy": -6.07, "intermolecular_energy": -6.37, "internal_energy": 0.07, "cluster_size": 12, "cluster_id": 1, "rank_in_cluster": 7}

>  <energy>  (4) 
-6.09

>  <cluster_rmsd>  (4) 
0.05

>  <rmsd>  (4) 
272.46

>  <cluster>  (4) 
1

$$$$
ULEHMWWQIZHLHN-YHMJCDSINA-N
     RDKit          3D

 27 29  0  0  0  0  0  0  0  0999 V2000
  138.3180   67.4610  221.7070 C   0  0  0  0  0  0  0  0  0  0  0  0
  138.8130   68.0820  222.9690 C   0  0  0  0  0  0  0  0  0  0  0  0
  139.3010   69.3550  222.9550 N   0  0  0  0  0  0  0  0  0  0  0  0
  139.7780   69.8870  224.1040 C   0  0  0  0  0  0  0  0  0  0  0  0
  140.3910   71.4360  224.3110 S   0  0  0  0  0  0  0  0  0  0  0  0
  140.6890   71.2250  225.9620 C   0  0  0  0  0  0  0  0  0  0  0  0
  140.3490   69.9270  226.3560 C   0  0  0  0  0  0  0  0  0  0  0  0
  139.8040   69.1810  225.2940 C   0  0  0  0  0  0  0  0  0  0  0  0
  139.3010   67.8750  225.2950 C   0  0  0  0  0  0  0  0  0  0  0  0
  139.2740   67.1070  226.4560 O   0  0  0  0  0  0  0  0  0  0  0  0
  138.8240   67.3560  224.1270 N   0  0  0  0  0  0  0  0  0  0  0  0
  140.4790   69.4700  227.7870 C   0  0  0  0  0  0  0  0  0  0  0  0
  141.3960   70.4000  228.6050 C   0  0  0  0  0  0  0  0  0  0  0  0
  141.0830   71.8810  228.3370 C   0  0  0  0  0  0  0  0  0  0  0  0
  141.3260   72.2380  226.8640 C   0  0  0  0  0  0  0  0  0  0  0  0
  137.6491   66.6219  221.9490 H   0  0  0  0  0  0  0  0  0  0  0  0
  137.7675   68.2113  221.1205 H   0  0  0  0  0  0  0  0  0  0  0  0
  139.1721   67.0916  221.1205 H   0  0  0  0  0  0  0  0  0  0  0  0
  140.1190   66.6820  226.8170 H   0  0  0  0  0  0  0  0  0  0  0  0
  140.9005   68.4540  227.7992 H   0  0  0  0  0  0  0  0  0  0  0  0
  139.4785   69.4891  228.2437 H   0  0  0  0  0  0  0  0  0  0  0  0
  142.4425   70.2009  228.3309 H   0  0  0  0  0  0  0  0  0  0  0  0
  141.2251   70.1997  229.6730 H   0  0  0  0  0  0  0  0  0  0  0  0
  141.7306   72.5056  228.9699 H   0  0  0  0  0  0  0  0  0  0  0  0
  140.0236   72.0627  228.5710 H   0  0  0  0  0  0  0  0  0  0  0  0
  142.4089   72.2622  226.6721 H   0  0  0  0  0  0  0  0  0  0  0  0
  140.8805   73.2229  226.6604 H   0  0  0  0  0  0  0  0  0  0  0  0
  1  2  1  0
  2  3  2  0
  3  4  1  0
  4  5  1  0
  5  6  1  0
  6  7  2  0
  7  8  1  0
  8  9  1  0
  9 10  1  0
  9 11  2  0
  7 12  1  0
 12 13  1  0
 13 14  1  0
 14 15  1  0
 11  2  1  0
  8  4  2  0
 15  6  1  0
  1 16  1  0
  1 17  1  0
  1 18  1  0
 10 19  1  0
 12 20  1  0
 12 21  1  0
 13 22  1  0
 13 23  1  0
 14 24  1  0
 14 25  1  0
 15 26  1  0
 15 27  1  0
M  END
>  <UniqueID>  (5) 
25

>  <SMILES>  (5) 
Cc1nc(O)c2c3c(sc2n1)CCCC3

>  <Energy>  (5) 
59.402327907086246

>  <Genealogy>  (5) 
Cc1nc(O)c2c3c(sc2n1)CCCC3 (tautomer)
Cc1nc(O)c2c3c(sc2n1)CCCC3 (3D coordinates assigned)
Cc1nc(O)c2c3c(sc2n1)CCCC3 (nonaromatic ring conformer: 59.402327907086246 kcal/mol)

>  <smiles>  (5) 
Cc1nc2sc3c(c2c(=O)[nH]1)CCCC3

>  <score_type>  (5) 
oracle

>  <origin>  (5) 
autodockgpu

>  <m_score__min__energy>  (5) 
-6.0899999999999999

>  <m_primary>  (5) 
energy

>  <meeko>  (5) 
{"free_energy": -6.09, "intermolecular_energy": -6.38, "internal_energy": 0.07, "cluster_size": 12, "cluster_id": 1, "rank_in_cluster": 2}

>  <energy>  (5) 
-6.08

>  <cluster_rmsd>  (5) 
0.07

>  <rmsd>  (5) 
272.46

>  <cluster>  (5) 
1

$$$$
ULEHMWWQIZHLHN-YHMJCDSINA-N
     RDKit          3D

 27 29  0  0  0  0  0  0  0  0999 V2000
  138.3100   67.3830  221.7130 C   0  0  0  0  0  0  0  0  0  0  0  0
  138.8040   68.0050  222.9750 C   0  0  0  0  0  0  0  0  0  0  0  0
  139.2750   69.2840  222.9640 N   0  0  0  0  0  0  0  0  0  0  0  0
  139.7510   69.8170  224.1130 C   0  0  0  0  0  0  0  0  0  0  0  0
  140.3460   71.3720  224.3230 S   0  0  0  0  0  0  0  0  0  0  0  0
  140.6540   71.1590  225.9720 C   0  0  0  0  0  0  0  0  0  0  0  0
  140.3320   69.8560  226.3620 C   0  0  0  0  0  0  0  0  0  0  0  0
  139.7910   69.1070  225.2990 C   0  0  0  0  0  0  0  0  0  0  0  0
  139.3040   67.7950  225.2980 C   0  0  0  0  0  0  0  0  0  0  0  0
  139.2920   67.0220  226.4560 O   0  0  0  0  0  0  0  0  0  0  0  0
  138.8290   67.2750  224.1300 N   0  0  0  0  0  0  0  0  0  0  0  0
  140.4740   69.3950  227.7910 C   0  0  0  0  0  0  0  0  0  0  0  0
  141.3830   70.3330  228.6080 C   0  0  0  0  0  0  0  0  0  0  0  0
  141.0510   71.8110  228.3480 C   0  0  0  0  0  0  0  0  0  0  0  0
  141.2830   72.1770  226.8740 C   0  0  0  0  0  0  0  0  0  0  0  0
  137.6426   66.5428  221.9551 H   0  0  0  0  0  0  0  0  0  0  0  0
  137.7582   68.1323  221.1265 H   0  0  0  0  0  0  0  0  0  0  0  0
  139.1648   67.0151  221.1265 H   0  0  0  0  0  0  0  0  0  0  0  0
  140.1490   66.6340  226.8310 H   0  0  0  0  0  0  0  0  0  0  0  0
  140.9080   68.3842  227.7974 H   0  0  0  0  0  0  0  0  0  0  0  0
  139.4754   69.3999  228.2523 H   0  0  0  0  0  0  0  0  0  0  0  0
  142.4305   70.1479  228.3281 H   0  0  0  0  0  0  0  0  0  0  0  0
  141.2192   70.1264  229.6759 H   0  0  0  0  0  0  0  0  0  0  0  0
  141.6941   72.4407  228.9804 H   0  0  0  0  0  0  0  0  0  0  0  0
  139.9907   71.9792  228.5879 H   0  0  0  0  0  0  0  0  0  0  0  0
  142.3645   72.2153  226.6770 H   0  0  0  0  0  0  0  0  0  0  0  0
  140.8250   73.1573  226.6759 H   0  0  0  0  0  0  0  0  0  0  0  0
  1  2  1  0
  2  3  2  0
  3  4  1  0
  4  5  1  0
  5  6  1  0
  6  7  2  0
  7  8  1  0
  8  9  1  0
  9 10  1  0
  9 11  2  0
  7 12  1  0
 12 13  1  0
 13 14  1  0
 14 15  1  0
 11  2  1  0
  8  4  2  0
 15  6  1  0
  1 16  1  0
  1 17  1  0
  1 18  1  0
 10 19  1  0
 12 20  1  0
 12 21  1  0
 13 22  1  0
 13 23  1  0
 14 24  1  0
 14 25  1  0
 15 26  1  0
 15 27  1  0
M  END
>  <UniqueID>  (6) 
25

>  <SMILES>  (6) 
Cc1nc(O)c2c3c(sc2n1)CCCC3

>  <Energy>  (6) 
59.402327907086246

>  <Genealogy>  (6) 
Cc1nc(O)c2c3c(sc2n1)CCCC3 (tautomer)
Cc1nc(O)c2c3c(sc2n1)CCCC3 (3D coordinates assigned)
Cc1nc(O)c2c3c(sc2n1)CCCC3 (nonaromatic ring conformer: 59.402327907086246 kcal/mol)

>  <smiles>  (6) 
Cc1nc2sc3c(c2c(=O)[nH]1)CCCC3

>  <score_type>  (6) 
oracle

>  <origin>  (6) 
autodockgpu

>  <m_score__min__energy>  (6) 
-6.0899999999999999

>  <m_primary>  (6) 
energy

>  <meeko>  (6) 
{"free_energy": -6.08, "intermolecular_energy": -6.38, "internal_energy": 0.07, "cluster_size": 12, "cluster_id": 1, "rank_in_cluster": 5}

>  <energy>  (6) 
-6.08

>  <cluster_rmsd>  (6) 
0.07

>  <rmsd>  (6) 
272.44

>  <cluster>  (6) 
1

$$$$
ULEHMWWQIZHLHN-YHMJCDSINA-N
     RDKit          3D

 27 29  0  0  0  0  0  0  0  0999 V2000
  138.0170   67.3500  221.4440 C   0  0  0  0  0  0  0  0  0  0  0  0
  138.5870   68.1210  222.5870 C   0  0  0  0  0  0  0  0  0  0  0  0
  138.8330   67.4950  223.7730 N   0  0  0  0  0  0  0  0  0  0  0  0
  139.3160   68.2210  224.8080 C   0  0  0  0  0  0  0  0  0  0  0  0
  139.7140   67.6450  226.3340 S   0  0  0  0  0  0  0  0  0  0  0  0
  140.2260   69.1540  226.9000 C   0  0  0  0  0  0  0  0  0  0  0  0
  140.0520   70.1280  225.9120 C   0  0  0  0  0  0  0  0  0  0  0  0
  139.5590   69.5790  224.7130 C   0  0  0  0  0  0  0  0  0  0  0  0
  139.3010   70.2100  223.4900 C   0  0  0  0  0  0  0  0  0  0  0  0
  139.5370   71.5690  223.3090 O   0  0  0  0  0  0  0  0  0  0  0  0
  138.8140   69.4630  222.4580 N   0  0  0  0  0  0  0  0  0  0  0  0
  140.4570   71.5640  226.1310 C   0  0  0  0  0  0  0  0  0  0  0  0
  140.6470   71.8850  227.6260 C   0  0  0  0  0  0  0  0  0  0  0  0
  141.4430   70.7840  228.3440 C   0  0  0  0  0  0  0  0  0  0  0  0
  140.6980   69.4420  228.2920 C   0  0  0  0  0  0  0  0  0  0  0  0
  137.4046   66.5216  221.8296 H   0  0  0  0  0  0  0  0  0  0  0  0
  137.3909   68.0139  220.8298 H   0  0  0  0  0  0  0  0  0  0  0  0
  138.8353   66.9460  220.8298 H   0  0  0  0  0  0  0  0  0  0  0  0
  138.8130   72.2520  223.4960 H   0  0  0  0  0  0  0  0  0  0  0  0
  139.6745   72.2205  225.7228 H   0  0  0  0  0  0  0  0  0  0  0  0
  141.4180   71.7290  225.6218 H   0  0  0  0  0  0  0  0  0  0  0  0
  139.6586   71.9776  228.0997 H   0  0  0  0  0  0  0  0  0  0  0  0
  141.2110   72.8259  227.7070 H   0  0  0  0  0  0  0  0  0  0  0  0
  141.5894   71.0735  229.3951 H   0  0  0  0  0  0  0  0  0  0  0  0
  142.4124   70.6661  227.8376 H   0  0  0  0  0  0  0  0  0  0  0  0
  139.8301   69.4841  228.9665 H   0  0  0  0  0  0  0  0  0  0  0  0
  141.3855   68.6426  228.6056 H   0  0  0  0  0  0  0  0  0  0  0  0
  1  2  1  0
  2  3  2  0
  3  4  1  0
  4  5  1  0
  5  6  1  0
  6  7  2  0
  7  8  1  0
  8  9  1  0
  9 10  1  0
  9 11  2  0
  7 12  1  0
 12 13  1  0
 13 14  1  0
 14 15  1  0
 11  2  1  0
  8  4  2  0
 15  6  1  0
  1 16  1  0
  1 17  1  0
  1 18  1  0
 10 19  1  0
 12 20  1  0
 12 21  1  0
 13 22  1  0
 13 23  1  0
 14 24  1  0
 14 25  1  0
 15 26  1  0
 15 27  1  0
M  END
>  <UniqueID>  (7) 
25

>  <SMILES>  (7) 
Cc1nc(O)c2c3c(sc2n1)CCCC3

>  <Energy>  (7) 
59.402327907086246

>  <Genealogy>  (7) 
Cc1nc(O)c2c3c(sc2n1)CCCC3 (tautomer)
Cc1nc(O)c2c3c(sc2n1)CCCC3 (3D coordinates assigned)
Cc1nc(O)c2c3c(sc2n1)CCCC3 (nonaromatic ring conformer: 59.402327907086246 kcal/mol)

>  <smiles>  (7) 
Cc1nc2sc3c(c2c(=O)[nH]1)CCCC3

>  <score_type>  (7) 
oracle

>  <origin>  (7) 
autodockgpu

>  <m_score__min__energy>  (7) 
-6.0899999999999999

>  <m_primary>  (7) 
energy

>  <meeko>  (7) 
{"free_energy": -5.86, "intermolecular_energy": -6.16, "internal_energy": 0.07, "cluster_size": 8, "cluster_id": 2, "rank_in_cluster": 4}

>  <energy>  (7) 
-6.07

>  <cluster_rmsd>  (7) 
0.05

>  <rmsd>  (7) 
272.46

>  <cluster>  (7) 
1

$$$$
ULEHMWWQIZHLHN-YHMJCDSINA-N
     RDKit          3D

 27 29  0  0  0  0  0  0  0  0999 V2000
  138.0150   67.3640  221.4390 C   0  0  0  0  0  0  0  0  0  0  0  0
  138.5880   68.1340  222.5820 C   0  0  0  0  0  0  0  0  0  0  0  0
  138.8220   67.5100  223.7710 N   0  0  0  0  0  0  0  0  0  0  0  0
  139.3080   68.2350  224.8060 C   0  0  0  0  0  0  0  0  0  0  0  0
  139.6930   67.6610  226.3360 S   0  0  0  0  0  0  0  0  0  0  0  0
  140.2170   69.1670  226.8980 C   0  0  0  0  0  0  0  0  0  0  0  0
  140.0570   70.1390  225.9070 C   0  0  0  0  0  0  0  0  0  0  0  0
  139.5640   69.5910  224.7070 C   0  0  0  0  0  0  0  0  0  0  0  0
  139.3180   70.2190  223.4810 C   0  0  0  0  0  0  0  0  0  0  0  0
  139.5670   71.5760  223.2960 O   0  0  0  0  0  0  0  0  0  0  0  0
  138.8280   69.4730  222.4500 N   0  0  0  0  0  0  0  0  0  0  0  0
  140.4750   71.5720  226.1220 C   0  0  0  0  0  0  0  0  0  0  0  0
  140.6610   71.8970  227.6170 C   0  0  0  0  0  0  0  0  0  0  0  0
  141.4430   70.7910  228.3420 C   0  0  0  0  0  0  0  0  0  0  0  0
  140.6860   69.4560  228.2920 C   0  0  0  0  0  0  0  0  0  0  0  0
  137.4001   66.5377  221.8251 H   0  0  0  0  0  0  0  0  0  0  0  0
  137.3908   68.0296  220.8247 H   0  0  0  0  0  0  0  0  0  0  0  0
  138.8318   66.9572  220.8247 H   0  0  0  0  0  0  0  0  0  0  0  0
  138.8540   72.2680  223.4940 H   0  0  0  0  0  0  0  0  0  0  0  0
  139.7009   72.2345  225.7074 H   0  0  0  0  0  0  0  0  0  0  0  0
  141.4399   71.7257  225.6166 H   0  0  0  0  0  0  0  0  0  0  0  0
  139.6713   72.0007  228.0858 H   0  0  0  0  0  0  0  0  0  0  0  0
  141.2332   72.8330  227.6975 H   0  0  0  0  0  0  0  0  0  0  0  0
  141.5878   71.0829  229.3926 H   0  0  0  0  0  0  0  0  0  0  0  0
  142.4131   70.6619  227.8397 H   0  0  0  0  0  0  0  0  0  0  0  0
  139.8156   69.5087  228.9626 H   0  0  0  0  0  0  0  0  0  0  0  0
  141.3647   68.6515  228.6116 H   0  0  0  0  0  0  0  0  0  0  0  0
  1  2  1  0
  2  3  2  0
  3  4  1  0
  4  5  1  0
  5  6  1  0
  6  7  2  0
  7  8  1  0
  8  9  1  0
  9 10  1  0
  9 11  2  0
  7 12  1  0
 12 13  1  0
 13 14  1  0
 14 15  1  0
 11  2  1  0
  8  4  2  0
 15  6  1  0
  1 16  1  0
  1 17  1  0
  1 18  1  0
 10 19  1  0
 12 20  1  0
 12 21  1  0
 13 22  1  0
 13 23  1  0
 14 24  1  0
 14 25  1  0
 15 26  1  0
 15 27  1  0
M  END
>  <UniqueID>  (8) 
25

>  <SMILES>  (8) 
Cc1nc(O)c2c3c(sc2n1)CCCC3

>  <Energy>  (8) 
59.402327907086246

>  <Genealogy>  (8) 
Cc1nc(O)c2c3c(sc2n1)CCCC3 (tautomer)
Cc1nc(O)c2c3c(sc2n1)CCCC3 (3D coordinates assigned)
Cc1nc(O)c2c3c(sc2n1)CCCC3 (nonaromatic ring conformer: 59.402327907086246 kcal/mol)

>  <smiles>  (8) 
Cc1nc2sc3c(c2c(=O)[nH]1)CCCC3

>  <score_type>  (8) 
oracle

>  <origin>  (8) 
autodockgpu

>  <m_score__min__energy>  (8) 
-6.0899999999999999

>  <m_primary>  (8) 
energy

>  <meeko>  (8) 
{"free_energy": -5.87, "intermolecular_energy": -6.16, "internal_energy": 0.07, "cluster_size": 8, "cluster_id": 2, "rank_in_cluster": 2}

>  <energy>  (8) 
-6.07

>  <cluster_rmsd>  (8) 
0.13

>  <rmsd>  (8) 
272.4

>  <cluster>  (8) 
1

$$$$
ULEHMWWQIZHLHN-YHMJCDSINA-N
     RDKit          3D

 27 29  0  0  0  0  0  0  0  0999 V2000
  138.3230   67.5370  221.5700 C   0  0  0  0  0  0  0  0  0  0  0  0
  138.8120   68.1170  222.8540 C   0  0  0  0  0  0  0  0  0  0  0  0
  139.2900   69.3930  222.8850 N   0  0  0  0  0  0  0  0  0  0  0  0
  139.7620   69.8880  224.0520 C   0  0  0  0  0  0  0  0  0  0  0  0
  140.3630   71.4340  224.3140 S   0  0  0  0  0  0  0  0  0  0  0  0
  140.6600   71.1690  225.9570 C   0  0  0  0  0  0  0  0  0  0  0  0
  140.3300   69.8550  226.3050 C   0  0  0  0  0  0  0  0  0  0  0  0
  139.7910   69.1420  225.2170 C   0  0  0  0  0  0  0  0  0  0  0  0
  139.2990   67.8330  225.1720 C   0  0  0  0  0  0  0  0  0  0  0  0
  139.2770   67.0250  226.3050 O   0  0  0  0  0  0  0  0  0  0  0  0
  138.8280   67.3510  223.9860 N   0  0  0  0  0  0  0  0  0  0  0  0
  140.4620   69.3490  227.7200 C   0  0  0  0  0  0  0  0  0  0  0  0
  141.3700   70.2580  228.5710 C   0  0  0  0  0  0  0  0  0  0  0  0
  141.0460   71.7440  228.3540 C   0  0  0  0  0  0  0  0  0  0  0  0
  141.2890   72.1540  226.8940 C   0  0  0  0  0  0  0  0  0  0  0  0
  137.6272   66.7118  221.7819 H   0  0  0  0  0  0  0  0  0  0  0  0
  137.8039   68.3147  220.9905 H   0  0  0  0  0  0  0  0  0  0  0  0
  139.1772   67.1568  220.9905 H   0  0  0  0  0  0  0  0  0  0  0  0
  140.1360   66.7510  226.7650 H   0  0  0  0  0  0  0  0  0  0  0  0
  140.8922   68.3369  227.6974 H   0  0  0  0  0  0  0  0  0  0  0  0
  139.4608   69.3432  228.1756 H   0  0  0  0  0  0  0  0  0  0  0  0
  142.4185   70.0769  228.2921 H   0  0  0  0  0  0  0  0  0  0  0  0
  141.1986   70.0198  229.6311 H   0  0  0  0  0  0  0  0  0  0  0  0
  141.6875   72.3513  229.0095 H   0  0  0  0  0  0  0  0  0  0  0  0
  139.9848   71.9092  228.5919 H   0  0  0  0  0  0  0  0  0  0  0  0
  142.3719   72.1919  226.7048 H   0  0  0  0  0  0  0  0  0  0  0  0
  140.8376   73.1426  226.7239 H   0  0  0  0  0  0  0  0  0  0  0  0
  1  2  1  0
  2  3  2  0
  3  4  1  0
  4  5  1  0
  5  6  1  0
  6  7  2  0
  7  8  1  0
  8  9  1  0
  9 10  1  0
  9 11  2  0
  7 12  1  0
 12 13  1  0
 13 14  1  0
 14 15  1  0
 11  2  1  0
  8  4  2  0
 15  6  1  0
  1 16  1  0
  1 17  1  0
  1 18  1  0
 10 19  1  0
 12 20  1  0
 12 21  1  0
 13 22  1  0
 13 23  1  0
 14 24  1  0
 14 25  1  0
 15 26  1  0
 15 27  1  0
M  END
>  <UniqueID>  (9) 
25

>  <SMILES>  (9) 
Cc1nc(O)c2c3c(sc2n1)CCCC3

>  <Energy>  (9) 
59.402327907086246

>  <Genealogy>  (9) 
Cc1nc(O)c2c3c(sc2n1)CCCC3 (tautomer)
Cc1nc(O)c2c3c(sc2n1)CCCC3 (3D coordinates assigned)
Cc1nc(O)c2c3c(sc2n1)CCCC3 (nonaromatic ring conformer: 59.402327907086246 kcal/mol)

>  <smiles>  (9) 
Cc1nc2sc3c(c2c(=O)[nH]1)CCCC3

>  <score_type>  (9) 
oracle

>  <origin>  (9) 
autodockgpu

>  <m_score__min__energy>  (9) 
-6.0899999999999999

>  <m_primary>  (9) 
energy

>  <meeko>  (9) 
{"free_energy": -6.06, "intermolecular_energy": -6.36, "internal_energy": 0.08, "cluster_size": 12, "cluster_id": 1, "rank_in_cluster": 10}

>  <energy>  (9) 
-6.06

>  <cluster_rmsd>  (9) 
0.12

>  <rmsd>  (9) 
272.42

>  <cluster>  (9) 
1

$$$$
ULEHMWWQIZHLHN-YHMJCDSINA-N
     RDKit          3D

 27 29  0  0  0  0  0  0  0  0999 V2000
  138.2960   67.3900  221.7010 C   0  0  0  0  0  0  0  0  0  0  0  0
  138.7950   68.0070  222.9640 C   0  0  0  0  0  0  0  0  0  0  0  0
  139.2650   69.2870  222.9540 N   0  0  0  0  0  0  0  0  0  0  0  0
  139.7470   69.8160  224.1030 C   0  0  0  0  0  0  0  0  0  0  0  0
  140.3410   71.3720  224.3160 S   0  0  0  0  0  0  0  0  0  0  0  0
  140.6570   71.1530  225.9630 C   0  0  0  0  0  0  0  0  0  0  0  0
  140.3390   69.8470  226.3500 C   0  0  0  0  0  0  0  0  0  0  0  0
  139.7930   69.1020  225.2870 C   0  0  0  0  0  0  0  0  0  0  0  0
  139.3090   67.7890  225.2830 C   0  0  0  0  0  0  0  0  0  0  0  0
  139.3040   67.0120  226.4380 O   0  0  0  0  0  0  0  0  0  0  0  0
  138.8270   67.2720  224.1160 N   0  0  0  0  0  0  0  0  0  0  0  0
  140.4900   69.3810  227.7760 C   0  0  0  0  0  0  0  0  0  0  0  0
  141.4020   70.3170  228.5920 C   0  0  0  0  0  0  0  0  0  0  0  0
  141.0660   71.7950  228.3390 C   0  0  0  0  0  0  0  0  0  0  0  0
  141.2900   72.1670  226.8660 C   0  0  0  0  0  0  0  0  0  0  0  0
  137.6211   66.5555  221.9423 H   0  0  0  0  0  0  0  0  0  0  0  0
  137.7511   68.1445  221.1147 H   0  0  0  0  0  0  0  0  0  0  0  0
  139.1478   67.0149  221.1147 H   0  0  0  0  0  0  0  0  0  0  0  0
  140.1680   66.6550  226.8280 H   0  0  0  0  0  0  0  0  0  0  0  0
  140.9257   68.3710  227.7760 H   0  0  0  0  0  0  0  0  0  0  0  0
  139.4940   69.3828  228.2429 H   0  0  0  0  0  0  0  0  0  0  0  0
  142.4484   70.1346  228.3059 H   0  0  0  0  0  0  0  0  0  0  0  0
  141.2446   70.1060  229.6600 H   0  0  0  0  0  0  0  0  0  0  0  0
  141.7109   72.4235  228.9707 H   0  0  0  0  0  0  0  0  0  0  0  0
  140.0065   71.9601  228.5845 H   0  0  0  0  0  0  0  0  0  0  0  0
  142.3705   72.2066  226.6636 H   0  0  0  0  0  0  0  0  0  0  0  0
  140.8303   73.1478  226.6745 H   0  0  0  0  0  0  0  0  0  0  0  0
  1  2  1  0
  2  3  2  0
  3  4  1  0
  4  5  1  0
  5  6  1  0
  6  7  2  0
  7  8  1  0
  8  9  1  0
  9 10  1  0
  9 11  2  0
  7 12  1  0
 12 13  1  0
 13 14  1  0
 14 15  1  0
 11  2  1  0
  8  4  2  0
 15  6  1  0
  1 16  1  0
  1 17  1  0
  1 18  1  0
 10 19  1  0
 12 20  1  0
 12 21  1  0
 13 22  1  0
 13 23  1  0
 14 24  1  0
 14 25  1  0
 15 26  1  0
 15 27  1  0
M  END
>  <UniqueID>  (10) 
25

>  <SMILES>  (10) 
Cc1nc(O)c2c3c(sc2n1)CCCC3

>  <Energy>  (10) 
59.402327907086246

>  <Genealogy>  (10) 
Cc1nc(O)c2c3c(sc2n1)CCCC3 (tautomer)
Cc1nc(O)c2c3c(sc2n1)CCCC3 (3D coordinates assigned)
Cc1nc(O)c2c3c(sc2n1)CCCC3 (nonaromatic ring conformer: 59.402327907086246 kcal/mol)

>  <smiles>  (10) 
Cc1nc2sc3c(c2c(=O)[nH]1)CCCC3

>  <score_type>  (10) 
oracle

>  <origin>  (10) 
autodockgpu

>  <m_score__min__energy>  (10) 
-6.0899999999999999

>  <m_primary>  (10) 
energy

>  <meeko>  (10) 
{"free_energy": -6.09, "intermolecular_energy": -6.38, "internal_energy": 0.07, "cluster_size": 12, "cluster_id": 1, "rank_in_cluster": 3}

>  <energy>  (10) 
-6.06

>  <cluster_rmsd>  (10) 
0.13

>  <rmsd>  (10) 
272.41

>  <cluster>  (10) 
1

$$$$
ULEHMWWQIZHLHN-YHMJCDSINA-N
     RDKit          3D

 27 29  0  0  0  0  0  0  0  0999 V2000
  138.0040   67.3890  221.4470 C   0  0  0  0  0  0  0  0  0  0  0  0
  138.5760   68.1470  222.5970 C   0  0  0  0  0  0  0  0  0  0  0  0
  138.8250   67.5090  223.7750 N   0  0  0  0  0  0  0  0  0  0  0  0
  139.3110   68.2230  224.8170 C   0  0  0  0  0  0  0  0  0  0  0  0
  139.7130   67.6310  226.3360 S   0  0  0  0  0  0  0  0  0  0  0  0
  140.2260   69.1340  226.9160 C   0  0  0  0  0  0  0  0  0  0  0  0
  140.0480   70.1190  225.9400 C   0  0  0  0  0  0  0  0  0  0  0  0
  139.5530   69.5830  224.7360 C   0  0  0  0  0  0  0  0  0  0  0  0
  139.2920   70.2270  223.5210 C   0  0  0  0  0  0  0  0  0  0  0  0
  139.5270   71.5880  223.3540 O   0  0  0  0  0  0  0  0  0  0  0  0
  138.8020   69.4900  222.4820 N   0  0  0  0  0  0  0  0  0  0  0  0
  140.4540   71.5530  226.1730 C   0  0  0  0  0  0  0  0  0  0  0  0
  140.6470   71.8580  227.6710 C   0  0  0  0  0  0  0  0  0  0  0  0
  141.4460   70.7500  228.3750 C   0  0  0  0  0  0  0  0  0  0  0  0
  140.7020   69.4070  228.3110 C   0  0  0  0  0  0  0  0  0  0  0  0
  137.3817   66.5643  221.8246 H   0  0  0  0  0  0  0  0  0  0  0  0
  137.3873   68.0628  220.8341 H   0  0  0  0  0  0  0  0  0  0  0  0
  138.8211   66.9808  220.8341 H   0  0  0  0  0  0  0  0  0  0  0  0
  138.7860   72.2650  223.4930 H   0  0  0  0  0  0  0  0  0  0  0  0
  139.6709   72.2140  225.7733 H   0  0  0  0  0  0  0  0  0  0  0  0
  141.4139   71.7232  225.6634 H   0  0  0  0  0  0  0  0  0  0  0  0
  139.6595   71.9442  228.1480 H   0  0  0  0  0  0  0  0  0  0  0  0
  141.2100   72.7987  227.7611 H   0  0  0  0  0  0  0  0  0  0  0  0
  141.5951   71.0285  229.4287 H   0  0  0  0  0  0  0  0  0  0  0  0
  142.4139   70.6384  227.8644 H   0  0  0  0  0  0  0  0  0  0  0  0
  139.8360   69.4407  228.9885 H   0  0  0  0  0  0  0  0  0  0  0  0
  141.3910   68.6049  228.6142 H   0  0  0  0  0  0  0  0  0  0  0  0
  1  2  1  0
  2  3  2  0
  3  4  1  0
  4  5  1  0
  5  6  1  0
  6  7  2  0
  7  8  1  0
  8  9  1  0
  9 10  1  0
  9 11  2  0
  7 12  1  0
 12 13  1  0
 13 14  1  0
 14 15  1  0
 11  2  1  0
  8  4  2  0
 15  6  1  0
  1 16  1  0
  1 17  1  0
  1 18  1  0
 10 19  1  0
 12 20  1  0
 12 21  1  0
 13 22  1  0
 13 23  1  0
 14 24  1  0
 14 25  1  0
 15 26  1  0
 15 27  1  0
M  END
>  <UniqueID>  (11) 
25

>  <SMILES>  (11) 
Cc1nc(O)c2c3c(sc2n1)CCCC3

>  <Energy>  (11) 
59.402327907086246

>  <Genealogy>  (11) 
Cc1nc(O)c2c3c(sc2n1)CCCC3 (tautomer)
Cc1nc(O)c2c3c(sc2n1)CCCC3 (3D coordinates assigned)
Cc1nc(O)c2c3c(sc2n1)CCCC3 (nonaromatic ring conformer: 59.402327907086246 kcal/mol)

>  <smiles>  (11) 
Cc1nc2sc3c(c2c(=O)[nH]1)CCCC3

>  <score_type>  (11) 
oracle

>  <origin>  (11) 
autodockgpu

>  <m_score__min__energy>  (11) 
-6.0899999999999999

>  <m_primary>  (11) 
energy

>  <meeko>  (11) 
{"free_energy": -5.86, "intermolecular_energy": -6.16, "internal_energy": 0.07, "cluster_size": 8, "cluster_id": 2, "rank_in_cluster": 7}

>  <energy>  (11) 
-6.03

>  <cluster_rmsd>  (11) 
0.23

>  <rmsd>  (11) 
272.36

>  <cluster>  (11) 
1

$$$$
ULEHMWWQIZHLHN-YHMJCDSINA-N
     RDKit          3D

 27 29  0  0  0  0  0  0  0  0999 V2000
  138.3290   67.5170  221.5840 C   0  0  0  0  0  0  0  0  0  0  0  0
  138.8190   68.1040  222.8650 C   0  0  0  0  0  0  0  0  0  0  0  0
  139.2930   69.3810  222.8910 N   0  0  0  0  0  0  0  0  0  0  0  0
  139.7650   69.8820  224.0560 C   0  0  0  0  0  0  0  0  0  0  0  0
  140.3610   71.4300  224.3110 S   0  0  0  0  0  0  0  0  0  0  0  0
  140.6620   71.1710  225.9550 C   0  0  0  0  0  0  0  0  0  0  0  0
  140.3360   69.8580  226.3080 C   0  0  0  0  0  0  0  0  0  0  0  0
  139.7980   69.1400  225.2230 C   0  0  0  0  0  0  0  0  0  0  0  0
  139.3090   67.8290  225.1840 C   0  0  0  0  0  0  0  0  0  0  0  0
  139.2910   67.0250  226.3200 O   0  0  0  0  0  0  0  0  0  0  0  0
  138.8380   67.3420  224.0000 N   0  0  0  0  0  0  0  0  0  0  0  0
  140.4710   69.3580  227.7240 C   0  0  0  0  0  0  0  0  0  0  0  0
  141.3780   70.2720  228.5710 C   0  0  0  0  0  0  0  0  0  0  0  0
  141.0500   71.7560  228.3490 C   0  0  0  0  0  0  0  0  0  0  0  0
  141.2890   72.1620  226.8880 C   0  0  0  0  0  0  0  0  0  0  0  0
  137.6379   66.6891  221.8007 H   0  0  0  0  0  0  0  0  0  0  0  0
  137.8044   68.2901  221.0034 H   0  0  0  0  0  0  0  0  0  0  0  0
  139.1834   67.1390  221.0034 H   0  0  0  0  0  0  0  0  0  0  0  0
  140.1520   66.7490  226.7750 H   0  0  0  0  0  0  0  0  0  0  0  0
  140.9035   68.3468  227.7046 H   0  0  0  0  0  0  0  0  0  0  0  0
  139.4703   69.3520  228.1808 H   0  0  0  0  0  0  0  0  0  0  0  0
  142.4267   70.0924  228.2915 H   0  0  0  0  0  0  0  0  0  0  0  0
  141.2087   70.0371  229.6322 H   0  0  0  0  0  0  0  0  0  0  0  0
  141.6911   72.3672  229.0012 H   0  0  0  0  0  0  0  0  0  0  0  0
  139.9887   71.9189  228.5878 H   0  0  0  0  0  0  0  0  0  0  0  0
  142.3715   72.2035  226.6969 H   0  0  0  0  0  0  0  0  0  0  0  0
  140.8337   73.1483  226.7154 H   0  0  0  0  0  0  0  0  0  0  0  0
  1  2  1  0
  2  3  2  0
  3  4  1  0
  4  5  1  0
  5  6  1  0
  6  7  2  0
  7  8  1  0
  8  9  1  0
  9 10  1  0
  9 11  2  0
  7 12  1  0
 12 13  1  0
 13 14  1  0
 14 15  1  0
 11  2  1  0
  8  4  2  0
 15  6  1  0
  1 16  1  0
  1 17  1  0
  1 18  1  0
 10 19  1  0
 12 20  1  0
 12 21  1  0
 13 22  1  0
 13 23  1  0
 14 24  1  0
 14 25  1  0
 15 26  1  0
 15 27  1  0
M  END
>  <UniqueID>  (12) 
25

>  <SMILES>  (12) 
Cc1nc(O)c2c3c(sc2n1)CCCC3

>  <Energy>  (12) 
59.402327907086246

>  <Genealogy>  (12) 
Cc1nc(O)c2c3c(sc2n1)CCCC3 (tautomer)
Cc1nc(O)c2c3c(sc2n1)CCCC3 (3D coordinates assigned)
Cc1nc(O)c2c3c(sc2n1)CCCC3 (nonaromatic ring conformer: 59.402327907086246 kcal/mol)

>  <smiles>  (12) 
Cc1nc2sc3c(c2c(=O)[nH]1)CCCC3

>  <score_type>  (12) 
oracle

>  <origin>  (12) 
autodockgpu

>  <m_score__min__energy>  (12) 
-6.0899999999999999

>  <m_primary>  (12) 
energy

>  <meeko>  (12) 
{"free_energy": -6.06, "intermolecular_energy": -6.36, "internal_energy": 0.08, "cluster_size": 12, "cluster_id": 1, "rank_in_cluster": 9}

>  <energy>  (12) 
-5.94

>  <cluster_rmsd>  (12) 
0.34

>  <rmsd>  (12) 
272.33

>  <cluster>  (12) 
1

$$$$
ULEHMWWQIZHLHN-YHMJCDSINA-N
     RDKit          3D

 27 29  0  0  0  0  0  0  0  0999 V2000
  138.3120   67.4320  221.6650 C   0  0  0  0  0  0  0  0  0  0  0  0
  138.8050   68.0420  222.9330 C   0  0  0  0  0  0  0  0  0  0  0  0
  139.2800   69.3200  222.9330 N   0  0  0  0  0  0  0  0  0  0  0  0
  139.7560   69.8420  224.0880 C   0  0  0  0  0  0  0  0  0  0  0  0
  140.3540   71.3940  224.3120 S   0  0  0  0  0  0  0  0  0  0  0  0
  140.6590   71.1660  225.9600 C   0  0  0  0  0  0  0  0  0  0  0  0
  140.3330   69.8600  226.3380 C   0  0  0  0  0  0  0  0  0  0  0  0
  139.7920   69.1220  225.2680 C   0  0  0  0  0  0  0  0  0  0  0  0
  139.3020   67.8110  225.2550 C   0  0  0  0  0  0  0  0  0  0  0  0
  139.2870   67.0290  226.4060 O   0  0  0  0  0  0  0  0  0  0  0  0
  138.8270   67.3020  224.0820 N   0  0  0  0  0  0  0  0  0  0  0  0
  140.4730   69.3860  227.7630 C   0  0  0  0  0  0  0  0  0  0  0  0
  141.3830   70.3150  228.5900 C   0  0  0  0  0  0  0  0  0  0  0  0
  141.0540   71.7960  228.3420 C   0  0  0  0  0  0  0  0  0  0  0  0
  141.2900   72.1740  226.8720 C   0  0  0  0  0  0  0  0  0  0  0  0
  137.6364   66.5960  221.8987 H   0  0  0  0  0  0  0  0  0  0  0  0
  137.7694   68.1895  221.0804 H   0  0  0  0  0  0  0  0  0  0  0  0
  139.1665   67.0604  221.0804 H   0  0  0  0  0  0  0  0  0  0  0  0
  140.1450   66.6500  226.7890 H   0  0  0  0  0  0  0  0  0  0  0  0
  140.9053   68.3745  227.7606 H   0  0  0  0  0  0  0  0  0  0  0  0
  139.4739   69.3888  228.2233 H   0  0  0  0  0  0  0  0  0  0  0  0
  142.4306   70.1302  228.3101 H   0  0  0  0  0  0  0  0  0  0  0  0
  141.2175   70.0994  229.6559 H   0  0  0  0  0  0  0  0  0  0  0  0
  141.6967   72.4191  228.9812 H   0  0  0  0  0  0  0  0  0  0  0  0
  139.9935   71.9640  228.5810 H   0  0  0  0  0  0  0  0  0  0  0  0
  142.3720   72.2102  226.6773 H   0  0  0  0  0  0  0  0  0  0  0  0
  140.8358   73.1576  226.6816 H   0  0  0  0  0  0  0  0  0  0  0  0
  1  2  1  0
  2  3  2  0
  3  4  1  0
  4  5  1  0
  5  6  1  0
  6  7  2  0
  7  8  1  0
  8  9  1  0
  9 10  1  0
  9 11  2  0
  7 12  1  0
 12 13  1  0
 13 14  1  0
 14 15  1  0
 11  2  1  0
  8  4  2  0
 15  6  1  0
  1 16  1  0
  1 17  1  0
  1 18  1  0
 10 19  1  0
 12 20  1  0
 12 21  1  0
 13 22  1  0
 13 23  1  0
 14 24  1  0
 14 25  1  0
 15 26  1  0
 15 27  1  0
M  END
>  <UniqueID>  (13) 
25

>  <SMILES>  (13) 
Cc1nc(O)c2c3c(sc2n1)CCCC3

>  <Energy>  (13) 
59.402327907086246

>  <Genealogy>  (13) 
Cc1nc(O)c2c3c(sc2n1)CCCC3 (tautomer)
Cc1nc(O)c2c3c(sc2n1)CCCC3 (3D coordinates assigned)
Cc1nc(O)c2c3c(sc2n1)CCCC3 (nonaromatic ring conformer: 59.402327907086246 kcal/mol)

>  <smiles>  (13) 
Cc1nc2sc3c(c2c(=O)[nH]1)CCCC3

>  <score_type>  (13) 
oracle

>  <origin>  (13) 
autodockgpu

>  <m_score__min__energy>  (13) 
-6.0899999999999999

>  <m_primary>  (13) 
energy

>  <meeko>  (13) 
{"free_energy": -6.08, "intermolecular_energy": -6.38, "internal_energy": 0.07, "cluster_size": 12, "cluster_id": 1, "rank_in_cluster": 6}

>  <energy>  (13) 
-5.87

>  <cluster_rmsd>  (13) 
0.0

>  <rmsd>  (13) 
272.01

>  <cluster>  (13) 
2

$$$$
ULEHMWWQIZHLHN-YHMJCDSINA-N
     RDKit          3D

 27 29  0  0  0  0  0  0  0  0999 V2000
  138.0270   67.3350  221.4630 C   0  0  0  0  0  0  0  0  0  0  0  0
  138.5970   68.1130  222.6010 C   0  0  0  0  0  0  0  0  0  0  0  0
  138.8390   67.4970  223.7920 N   0  0  0  0  0  0  0  0  0  0  0  0
  139.3230   68.2290  224.8220 C   0  0  0  0  0  0  0  0  0  0  0  0
  139.7160   67.6650  226.3540 S   0  0  0  0  0  0  0  0  0  0  0  0
  140.2310   69.1770  226.9080 C   0  0  0  0  0  0  0  0  0  0  0  0
  140.0610   70.1440  225.9130 C   0  0  0  0  0  0  0  0  0  0  0  0
  139.5680   69.5870  224.7170 C   0  0  0  0  0  0  0  0  0  0  0  0
  139.3150   70.2080  223.4890 C   0  0  0  0  0  0  0  0  0  0  0  0
  139.5550   71.5650  223.2970 O   0  0  0  0  0  0  0  0  0  0  0  0
  138.8280   69.4530  222.4620 N   0  0  0  0  0  0  0  0  0  0  0  0
  140.4690   71.5810  226.1200 C   0  0  0  0  0  0  0  0  0  0  0  0
  140.6570   71.9130  227.6130 C   0  0  0  0  0  0  0  0  0  0  0  0
  141.4490   70.8160  228.3410 C   0  0  0  0  0  0  0  0  0  0  0  0
  140.7010   69.4750  228.2990 C   0  0  0  0  0  0  0  0  0  0  0  0
  137.4193   66.5056  221.8538 H   0  0  0  0  0  0  0  0  0  0  0  0
  137.3962   67.9937  220.8480 H   0  0  0  0  0  0  0  0  0  0  0  0
  138.8452   66.9321  220.8480 H   0  0  0  0  0  0  0  0  0  0  0  0
  138.8320   72.2520  223.4780 H   0  0  0  0  0  0  0  0  0  0  0  0
  139.6887   72.2360  225.7051 H   0  0  0  0  0  0  0  0  0  0  0  0
  141.4308   71.7402  225.6105 H   0  0  0  0  0  0  0  0  0  0  0  0
  139.6679   72.0115  228.0841 H   0  0  0  0  0  0  0  0  0  0  0  0
  141.2231   72.8532  227.6878 H   0  0  0  0  0  0  0  0  0  0  0  0
  141.5945   71.1137  229.3899 H   0  0  0  0  0  0  0  0  0  0  0  0
  142.4187   70.6916  227.8369 H   0  0  0  0  0  0  0  0  0  0  0  0
  139.8319   69.5246  228.9715 H   0  0  0  0  0  0  0  0  0  0  0  0
  141.3859   68.6766  228.6207 H   0  0  0  0  0  0  0  0  0  0  0  0
  1  2  1  0
  2  3  2  0
  3  4  1  0
  4  5  1  0
  5  6  1  0
  6  7  2  0
  7  8  1  0
  8  9  1  0
  9 10  1  0
  9 11  2  0
  7 12  1  0
 12 13  1  0
 13 14  1  0
 14 15  1  0
 11  2  1  0
  8  4  2  0
 15  6  1  0
  1 16  1  0
  1 17  1  0
  1 18  1  0
 10 19  1  0
 12 20  1  0
 12 21  1  0
 13 22  1  0
 13 23  1  0
 14 24  1  0
 14 25  1  0
 15 26  1  0
 15 27  1  0
M  END
>  <UniqueID>  (14) 
25

>  <SMILES>  (14) 
Cc1nc(O)c2c3c(sc2n1)CCCC3

>  <Energy>  (14) 
59.402327907086246

>  <Genealogy>  (14) 
Cc1nc(O)c2c3c(sc2n1)CCCC3 (tautomer)
Cc1nc(O)c2c3c(sc2n1)CCCC3 (3D coordinates assigned)
Cc1nc(O)c2c3c(sc2n1)CCCC3 (nonaromatic ring conformer: 59.402327907086246 kcal/mol)

>  <smiles>  (14) 
Cc1nc2sc3c(c2c(=O)[nH]1)CCCC3

>  <score_type>  (14) 
oracle

>  <origin>  (14) 
autodockgpu

>  <m_score__min__energy>  (14) 
-6.0899999999999999

>  <m_primary>  (14) 
energy

>  <meeko>  (14) 
{"free_energy": -5.87, "intermolecular_energy": -6.16, "internal_energy": 0.07, "cluster_size": 8, "cluster_id": 2, "rank_in_cluster": 3}

>  <energy>  (14) 
-5.87

>  <cluster_rmsd>  (14) 
0.08

>  <rmsd>  (14) 
271.98

>  <cluster>  (14) 
2

$$$$
ULEHMWWQIZHLHN-YHMJCDSINA-N
     RDKit          3D

 27 29  0  0  0  0  0  0  0  0999 V2000
  138.3240   67.5150  221.5690 C   0  0  0  0  0  0  0  0  0  0  0  0
  138.8120   68.0980  222.8530 C   0  0  0  0  0  0  0  0  0  0  0  0
  139.2900   69.3740  222.8800 N   0  0  0  0  0  0  0  0  0  0  0  0
  139.7610   69.8720  224.0470 C   0  0  0  0  0  0  0  0  0  0  0  0
  140.3630   71.4180  224.3060 S   0  0  0  0  0  0  0  0  0  0  0  0
  140.6580   71.1560  225.9500 C   0  0  0  0  0  0  0  0  0  0  0  0
  140.3270   69.8440  226.3010 C   0  0  0  0  0  0  0  0  0  0  0  0
  139.7890   69.1280  225.2140 C   0  0  0  0  0  0  0  0  0  0  0  0
  139.2960   67.8190  225.1720 C   0  0  0  0  0  0  0  0  0  0  0  0
  139.2730   67.0140  226.3070 O   0  0  0  0  0  0  0  0  0  0  0  0
  138.8260   67.3350  223.9860 N   0  0  0  0  0  0  0  0  0  0  0  0
  140.4580   69.3410  227.7170 C   0  0  0  0  0  0  0  0  0  0  0  0
  141.3660   70.2510  228.5660 C   0  0  0  0  0  0  0  0  0  0  0  0
  141.0420   71.7370  228.3460 C   0  0  0  0  0  0  0  0  0  0  0  0
  141.2870   72.1440  226.8850 C   0  0  0  0  0  0  0  0  0  0  0  0
  137.6313   66.6874  221.7819 H   0  0  0  0  0  0  0  0  0  0  0  0
  137.8018   68.2904  220.9893 H   0  0  0  0  0  0  0  0  0  0  0  0
  139.1792   67.1374  220.9893 H   0  0  0  0  0  0  0  0  0  0  0  0
  140.1310   66.7410  226.7690 H   0  0  0  0  0  0  0  0  0  0  0  0
  140.8875   68.3285  227.6968 H   0  0  0  0  0  0  0  0  0  0  0  0
  139.4566   69.3368  228.1722 H   0  0  0  0  0  0  0  0  0  0  0  0
  142.4145   70.0692  228.2874 H   0  0  0  0  0  0  0  0  0  0  0  0
  141.1948   70.0148  229.6266 H   0  0  0  0  0  0  0  0  0  0  0  0
  141.6827   72.3456  229.0011 H   0  0  0  0  0  0  0  0  0  0  0  0
  139.9806   71.9028  228.5825 H   0  0  0  0  0  0  0  0  0  0  0  0
  142.3701   72.1810  226.6967 H   0  0  0  0  0  0  0  0  0  0  0  0
  140.8368   73.1326  226.7118 H   0  0  0  0  0  0  0  0  0  0  0  0
  1  2  1  0
  2  3  2  0
  3  4  1  0
  4  5  1  0
  5  6  1  0
  6  7  2  0
  7  8  1  0
  8  9  1  0
  9 10  1  0
  9 11  2  0
  7 12  1  0
 12 13  1  0
 13 14  1  0
 14 15  1  0
 11  2  1  0
  8  4  2  0
 15  6  1  0
  1 16  1  0
  1 17  1  0
  1 18  1  0
 10 19  1  0
 12 20  1  0
 12 21  1  0
 13 22  1  0
 13 23  1  0
 14 24  1  0
 14 25  1  0
 15 26  1  0
 15 27  1  0
M  END
>  <UniqueID>  (15) 
25

>  <SMILES>  (15) 
Cc1nc(O)c2c3c(sc2n1)CCCC3

>  <Energy>  (15) 
59.402327907086246

>  <Genealogy>  (15) 
Cc1nc(O)c2c3c(sc2n1)CCCC3 (tautomer)
Cc1nc(O)c2c3c(sc2n1)CCCC3 (3D coordinates assigned)
Cc1nc(O)c2c3c(sc2n1)CCCC3 (nonaromatic ring conformer: 59.402327907086246 kcal/mol)

>  <smiles>  (15) 
Cc1nc2sc3c(c2c(=O)[nH]1)CCCC3

>  <score_type>  (15) 
oracle

>  <origin>  (15) 
autodockgpu

>  <m_score__min__energy>  (15) 
-6.0899999999999999

>  <m_primary>  (15) 
energy

>  <meeko>  (15) 
{"free_energy": -6.07, "intermolecular_energy": -6.37, "internal_energy": 0.08, "cluster_size": 12, "cluster_id": 1, "rank_in_cluster": 8}

>  <energy>  (15) 
-5.87

>  <cluster_rmsd>  (15) 
0.08

>  <rmsd>  (15) 
271.99

>  <cluster>  (15) 
2

$$$$
ULEHMWWQIZHLHN-YHMJCDSINA-N
     RDKit          3D

 27 29  0  0  0  0  0  0  0  0999 V2000
  138.0190   67.3240  221.4490 C   0  0  0  0  0  0  0  0  0  0  0  0
  138.5920   68.0950  222.5900 C   0  0  0  0  0  0  0  0  0  0  0  0
  138.8220   67.4750  223.7810 N   0  0  0  0  0  0  0  0  0  0  0  0
  139.3100   68.2010  224.8140 C   0  0  0  0  0  0  0  0  0  0  0  0
  139.6900   67.6310  226.3470 S   0  0  0  0  0  0  0  0  0  0  0  0
  140.2190   69.1370  226.9050 C   0  0  0  0  0  0  0  0  0  0  0  0
  140.0640   70.1060  225.9090 C   0  0  0  0  0  0  0  0  0  0  0  0
  139.5710   69.5560  224.7110 C   0  0  0  0  0  0  0  0  0  0  0  0
  139.3300   70.1810  223.4820 C   0  0  0  0  0  0  0  0  0  0  0  0
  139.5850   71.5360  223.2930 O   0  0  0  0  0  0  0  0  0  0  0  0
  138.8380   69.4330  222.4530 N   0  0  0  0  0  0  0  0  0  0  0  0
  140.4880   71.5380  226.1200 C   0  0  0  0  0  0  0  0  0  0  0  0
  140.6730   71.8670  227.6140 C   0  0  0  0  0  0  0  0  0  0  0  0
  141.4500   70.7610  228.3450 C   0  0  0  0  0  0  0  0  0  0  0  0
  140.6870   69.4280  228.2980 C   0  0  0  0  0  0  0  0  0  0  0  0
  137.4049   66.4977  221.8365 H   0  0  0  0  0  0  0  0  0  0  0  0
  137.3939   67.9886  220.8345 H   0  0  0  0  0  0  0  0  0  0  0  0
  138.8356   66.9171  220.8345 H   0  0  0  0  0  0  0  0  0  0  0  0
  138.8770   72.2320  223.4940 H   0  0  0  0  0  0  0  0  0  0  0  0
  139.7175   72.2025  225.7020 H   0  0  0  0  0  0  0  0  0  0  0  0
  141.4543   71.6858  225.6156 H   0  0  0  0  0  0  0  0  0  0  0  0
  139.6829   71.9759  228.0808 H   0  0  0  0  0  0  0  0  0  0  0  0
  141.2490   72.8009  227.6918 H   0  0  0  0  0  0  0  0  0  0  0  0
  141.5938   71.0562  229.3948 H   0  0  0  0  0  0  0  0  0  0  0  0
  142.4209   70.6266  227.8458 H   0  0  0  0  0  0  0  0  0  0  0  0
  139.8159   69.4863  228.9672 H   0  0  0  0  0  0  0  0  0  0  0  0
  141.3618   68.6216  228.6210 H   0  0  0  0  0  0  0  0  0  0  0  0
  1  2  1  0
  2  3  2  0
  3  4  1  0
  4  5  1  0
  5  6  1  0
  6  7  2  0
  7  8  1  0
  8  9  1  0
  9 10  1  0
  9 11  2  0
  7 12  1  0
 12 13  1  0
 13 14  1  0
 14 15  1  0
 11  2  1  0
  8  4  2  0
 15  6  1  0
  1 16  1  0
  1 17  1  0
  1 18  1  0
 10 19  1  0
 12 20  1  0
 12 21  1  0
 13 22  1  0
 13 23  1  0
 14 24  1  0
 14 25  1  0
 15 26  1  0
 15 27  1  0
M  END
>  <UniqueID>  (16) 
25

>  <SMILES>  (16) 
Cc1nc(O)c2c3c(sc2n1)CCCC3

>  <Energy>  (16) 
59.402327907086246

>  <Genealogy>  (16) 
Cc1nc(O)c2c3c(sc2n1)CCCC3 (tautomer)
Cc1nc(O)c2c3c(sc2n1)CCCC3 (3D coordinates assigned)
Cc1nc(O)c2c3c(sc2n1)CCCC3 (nonaromatic ring conformer: 59.402327907086246 kcal/mol)

>  <smiles>  (16) 
Cc1nc2sc3c(c2c(=O)[nH]1)CCCC3

>  <score_type>  (16) 
oracle

>  <origin>  (16) 
autodockgpu

>  <m_score__min__energy>  (16) 
-6.0899999999999999

>  <m_primary>  (16) 
energy

>  <meeko>  (16) 
{"free_energy": -5.86, "intermolecular_energy": -6.16, "internal_energy": 0.07, "cluster_size": 8, "cluster_id": 2, "rank_in_cluster": 6}

>  <energy>  (16) 
-5.86

>  <cluster_rmsd>  (16) 
0.09

>  <rmsd>  (16) 
271.98

>  <cluster>  (16) 
2

$$$$
ULEHMWWQIZHLHN-YHMJCDSINA-N
     RDKit          3D

 27 29  0  0  0  0  0  0  0  0999 V2000
  138.0550   67.3710  221.4530 C   0  0  0  0  0  0  0  0  0  0  0  0
  138.6250   68.1490  222.5910 C   0  0  0  0  0  0  0  0  0  0  0  0
  138.8240   67.5440  223.7960 N   0  0  0  0  0  0  0  0  0  0  0  0
  139.3090   68.2770  224.8250 C   0  0  0  0  0  0  0  0  0  0  0  0
  139.6540   67.7240  226.3720 S   0  0  0  0  0  0  0  0  0  0  0  0
  140.2040   69.2280  226.9150 C   0  0  0  0  0  0  0  0  0  0  0  0
  140.0840   70.1850  225.9020 C   0  0  0  0  0  0  0  0  0  0  0  0
  139.5980   69.6240  224.7040 C   0  0  0  0  0  0  0  0  0  0  0  0
  139.3890   70.2340  223.4620 C   0  0  0  0  0  0  0  0  0  0  0  0
  139.6740   71.5810  223.2560 O   0  0  0  0  0  0  0  0  0  0  0  0
  138.8990   69.4790  222.4370 N   0  0  0  0  0  0  0  0  0  0  0  0
  140.5310   71.6110  226.0970 C   0  0  0  0  0  0  0  0  0  0  0  0
  140.6990   71.9600  227.5880 C   0  0  0  0  0  0  0  0  0  0  0  0
  141.4430   70.8510  228.3490 C   0  0  0  0  0  0  0  0  0  0  0  0
  140.6550   69.5330  228.3110 C   0  0  0  0  0  0  0  0  0  0  0  0
  137.4473   66.5416  221.8438 H   0  0  0  0  0  0  0  0  0  0  0  0
  137.4242   68.0297  220.8380 H   0  0  0  0  0  0  0  0  0  0  0  0
  138.8732   66.9681  220.8380 H   0  0  0  0  0  0  0  0  0  0  0  0
  138.9920   72.2960  223.4770 H   0  0  0  0  0  0  0  0  0  0  0  0
  139.7796   72.2829  225.6567 H   0  0  0  0  0  0  0  0  0  0  0  0
  141.5075   71.7331  225.6055 H   0  0  0  0  0  0  0  0  0  0  0  0
  139.7040   72.0953  228.0371 H   0  0  0  0  0  0  0  0  0  0  0  0
  141.2919   72.8837  227.6602 H   0  0  0  0  0  0  0  0  0  0  0  0
  141.5761   71.1604  229.3962 H   0  0  0  0  0  0  0  0  0  0  0  0
  142.4188   70.6898  227.8676 H   0  0  0  0  0  0  0  0  0  0  0  0
  139.7745   69.6193  228.9646 H   0  0  0  0  0  0  0  0  0  0  0  0
  141.3084   68.7191  228.6583 H   0  0  0  0  0  0  0  0  0  0  0  0
  1  2  1  0
  2  3  2  0
  3  4  1  0
  4  5  1  0
  5  6  1  0
  6  7  2  0
  7  8  1  0
  8  9  1  0
  9 10  1  0
  9 11  2  0
  7 12  1  0
 12 13  1  0
 13 14  1  0
 14 15  1  0
 11  2  1  0
  8  4  2  0
 15  6  1  0
  1 16  1  0
  1 17  1  0
  1 18  1  0
 10 19  1  0
 12 20  1  0
 12 21  1  0
 13 22  1  0
 13 23  1  0
 14 24  1  0
 14 25  1  0
 15 26  1  0
 15 27  1  0
M  END
>  <UniqueID>  (17) 
25

>  <SMILES>  (17) 
Cc1nc(O)c2c3c(sc2n1)CCCC3

>  <Energy>  (17) 
59.402327907086246

>  <Genealogy>  (17) 
Cc1nc(O)c2c3c(sc2n1)CCCC3 (tautomer)
Cc1nc(O)c2c3c(sc2n1)CCCC3 (3D coordinates assigned)
Cc1nc(O)c2c3c(sc2n1)CCCC3 (nonaromatic ring conformer: 59.402327907086246 kcal/mol)

>  <smiles>  (17) 
Cc1nc2sc3c(c2c(=O)[nH]1)CCCC3

>  <score_type>  (17) 
oracle

>  <origin>  (17) 
autodockgpu

>  <m_score__min__energy>  (17) 
-6.0899999999999999

>  <m_primary>  (17) 
energy

>  <meeko>  (17) 
{"free_energy": -5.87, "intermolecular_energy": -6.17, "internal_energy": 0.07, "cluster_size": 8, "cluster_id": 2, "rank_in_cluster": 1}

>  <energy>  (17) 
-5.86

>  <cluster_rmsd>  (17) 
0.07

>  <rmsd>  (17) 
271.98

>  <cluster>  (17) 
2

$$$$
ULEHMWWQIZHLHN-YHMJCDSINA-N
     RDKit          3D

 27 29  0  0  0  0  0  0  0  0999 V2000
  138.0220   67.3630  221.4290 C   0  0  0  0  0  0  0  0  0  0  0  0
  138.5940   68.1290  222.5740 C   0  0  0  0  0  0  0  0  0  0  0  0
  138.8210   67.5040  223.7630 N   0  0  0  0  0  0  0  0  0  0  0  0
  139.3080   68.2260  224.8000 C   0  0  0  0  0  0  0  0  0  0  0  0
  139.6840   67.6500  226.3310 S   0  0  0  0  0  0  0  0  0  0  0  0
  140.2140   69.1530  226.8960 C   0  0  0  0  0  0  0  0  0  0  0  0
  140.0620   70.1260  225.9030 C   0  0  0  0  0  0  0  0  0  0  0  0
  139.5710   69.5810  224.7020 C   0  0  0  0  0  0  0  0  0  0  0  0
  139.3320   70.2110  223.4750 C   0  0  0  0  0  0  0  0  0  0  0  0
  139.5900   71.5660  223.2920 O   0  0  0  0  0  0  0  0  0  0  0  0
  138.8420   69.4670  222.4420 N   0  0  0  0  0  0  0  0  0  0  0  0
  140.4870   71.5570  226.1200 C   0  0  0  0  0  0  0  0  0  0  0  0
  140.6700   71.8800  227.6160 C   0  0  0  0  0  0  0  0  0  0  0  0
  141.4440   70.7710  228.3440 C   0  0  0  0  0  0  0  0  0  0  0  0
  140.6800   69.4390  228.2910 C   0  0  0  0  0  0  0  0  0  0  0  0
  137.4051   66.5368  221.8122 H   0  0  0  0  0  0  0  0  0  0  0  0
  137.3999   68.0310  220.8152 H   0  0  0  0  0  0  0  0  0  0  0  0
  138.8392   66.9563  220.8152 H   0  0  0  0  0  0  0  0  0  0  0  0
  138.8820   72.2620  223.4930 H   0  0  0  0  0  0  0  0  0  0  0  0
  139.7177   72.2238  225.7034 H   0  0  0  0  0  0  0  0  0  0  0  0
  141.4541   71.7060  225.6176 H   0  0  0  0  0  0  0  0  0  0  0  0
  139.6792   71.9883  228.0815 H   0  0  0  0  0  0  0  0  0  0  0  0
  141.2471   72.8128  227.6982 H   0  0  0  0  0  0  0  0  0  0  0  0
  141.5862   71.0623  229.3951 H   0  0  0  0  0  0  0  0  0  0  0  0
  142.4156   70.6373  227.8458 H   0  0  0  0  0  0  0  0  0  0  0  0
  139.8078   69.4958  228.9589 H   0  0  0  0  0  0  0  0  0  0  0  0
  141.3537   68.6310  228.6123 H   0  0  0  0  0  0  0  0  0  0  0  0
  1  2  1  0
  2  3  2  0
  3  4  1  0
  4  5  1  0
  5  6  1  0
  6  7  2  0
  7  8  1  0
  8  9  1  0
  9 10  1  0
  9 11  2  0
  7 12  1  0
 12 13  1  0
 13 14  1  0
 14 15  1  0
 11  2  1  0
  8  4  2  0
 15  6  1  0
  1 16  1  0
  1 17  1  0
  1 18  1  0
 10 19  1  0
 12 20  1  0
 12 21  1  0
 13 22  1  0
 13 23  1  0
 14 24  1  0
 14 25  1  0
 15 26  1  0
 15 27  1  0
M  END
>  <UniqueID>  (18) 
25

>  <SMILES>  (18) 
Cc1nc(O)c2c3c(sc2n1)CCCC3

>  <Energy>  (18) 
59.402327907086246

>  <Genealogy>  (18) 
Cc1nc(O)c2c3c(sc2n1)CCCC3 (tautomer)
Cc1nc(O)c2c3c(sc2n1)CCCC3 (3D coordinates assigned)
Cc1nc(O)c2c3c(sc2n1)CCCC3 (nonaromatic ring conformer: 59.402327907086246 kcal/mol)

>  <smiles>  (18) 
Cc1nc2sc3c(c2c(=O)[nH]1)CCCC3

>  <score_type>  (18) 
oracle

>  <origin>  (18) 
autodockgpu

>  <m_score__min__energy>  (18) 
-6.0899999999999999

>  <m_primary>  (18) 
energy

>  <meeko>  (18) 
{"free_energy": -5.86, "intermolecular_energy": -6.16, "internal_energy": 0.07, "cluster_size": 8, "cluster_id": 2, "rank_in_cluster": 5}

>  <energy>  (18) 
-5.86

>  <cluster_rmsd>  (18) 
0.09

>  <rmsd>  (18) 
271.98

>  <cluster>  (18) 
2

$$$$
ULEHMWWQIZHLHN-YHMJCDSINA-N
     RDKit          3D

 27 29  0  0  0  0  0  0  0  0999 V2000
  138.0290   67.3770  221.4280 C   0  0  0  0  0  0  0  0  0  0  0  0
  138.6030   68.1450  222.5710 C   0  0  0  0  0  0  0  0  0  0  0  0
  138.8130   67.5270  223.7680 N   0  0  0  0  0  0  0  0  0  0  0  0
  139.3010   68.2510  224.8020 C   0  0  0  0  0  0  0  0  0  0  0  0
  139.6580   67.6830  226.3400 S   0  0  0  0  0  0  0  0  0  0  0  0
  140.2050   69.1830  226.8960 C   0  0  0  0  0  0  0  0  0  0  0  0
  140.0740   70.1500  225.8950 C   0  0  0  0  0  0  0  0  0  0  0  0
  139.5840   69.6010  224.6940 C   0  0  0  0  0  0  0  0  0  0  0  0
  139.3630   70.2240  223.4600 C   0  0  0  0  0  0  0  0  0  0  0  0
  139.6410   71.5740  223.2670 O   0  0  0  0  0  0  0  0  0  0  0  0
  138.8700   69.4780  222.4300 N   0  0  0  0  0  0  0  0  0  0  0  0
  140.5170   71.5770  226.1020 C   0  0  0  0  0  0  0  0  0  0  0  0
  140.6930   71.9100  227.5960 C   0  0  0  0  0  0  0  0  0  0  0  0
  141.4460   70.7970  228.3400 C   0  0  0  0  0  0  0  0  0  0  0  0
  140.6640   69.4750  228.2920 C   0  0  0  0  0  0  0  0  0  0  0  0
  137.4123   66.5518  221.8136 H   0  0  0  0  0  0  0  0  0  0  0  0
  137.4064   68.0442  220.8138 H   0  0  0  0  0  0  0  0  0  0  0  0
  138.8452   66.9688  220.8138 H   0  0  0  0  0  0  0  0  0  0  0  0
  138.9490   72.2820  223.4800 H   0  0  0  0  0  0  0  0  0  0  0  0
  139.7601   72.2506  225.6738 H   0  0  0  0  0  0  0  0  0  0  0  0
  141.4896   71.7088  225.6053 H   0  0  0  0  0  0  0  0  0  0  0  0
  139.7003   72.0360  228.0527 H   0  0  0  0  0  0  0  0  0  0  0  0
  141.2826   72.8353  227.6745 H   0  0  0  0  0  0  0  0  0  0  0  0
  141.5836   71.0955  229.3897 H   0  0  0  0  0  0  0  0  0  0  0  0
  142.4198   70.6458  227.8512 H   0  0  0  0  0  0  0  0  0  0  0  0
  139.7875   69.5495  228.9524 H   0  0  0  0  0  0  0  0  0  0  0  0
  141.3241   68.6607  228.6254 H   0  0  0  0  0  0  0  0  0  0  0  0
  1  2  1  0
  2  3  2  0
  3  4  1  0
  4  5  1  0
  5  6  1  0
  6  7  2  0
  7  8  1  0
  8  9  1  0
  9 10  1  0
  9 11  2  0
  7 12  1  0
 12 13  1  0
 13 14  1  0
 14 15  1  0
 11  2  1  0
  8  4  2  0
 15  6  1  0
  1 16  1  0
  1 17  1  0
  1 18  1  0
 10 19  1  0
 12 20  1  0
 12 21  1  0
 13 22  1  0
 13 23  1  0
 14 24  1  0
 14 25  1  0
 15 26  1  0
 15 27  1  0
M  END
>  <UniqueID>  (19) 
25

>  <SMILES>  (19) 
Cc1nc(O)c2c3c(sc2n1)CCCC3

>  <Energy>  (19) 
59.402327907086246

>  <Genealogy>  (19) 
Cc1nc(O)c2c3c(sc2n1)CCCC3 (tautomer)
Cc1nc(O)c2c3c(sc2n1)CCCC3 (3D coordinates assigned)
Cc1nc(O)c2c3c(sc2n1)CCCC3 (nonaromatic ring conformer: 59.402327907086246 kcal/mol)

>  <smiles>  (19) 
Cc1nc2sc3c(c2c(=O)[nH]1)CCCC3

>  <score_type>  (19) 
oracle

>  <origin>  (19) 
autodockgpu

>  <m_score__min__energy>  (19) 
-6.0899999999999999

>  <m_primary>  (19) 
energy

>  <meeko>  (19) 
{"free_energy": -5.86, "intermolecular_energy": -6.15, "internal_energy": 0.07, "cluster_size": 8, "cluster_id": 2, "rank_in_cluster": 8}

>  <energy>  (19) 
-5.86

>  <cluster_rmsd>  (19) 
0.11

>  <rmsd>  (19) 
271.99

>  <cluster>  (19) 
2

$$$$
ULEHMWWQIZHLHN-YHMJCDSINA-N
     RDKit          3D

 27 29  0  0  0  0  0  0  0  0999 V2000
  138.3060   67.4070  221.7080 C   0  0  0  0  0  0  0  0  0  0  0  0
  138.8030   68.0290  222.9700 C   0  0  0  0  0  0  0  0  0  0  0  0
  139.2780   69.3060  222.9570 N   0  0  0  0  0  0  0  0  0  0  0  0
  139.7570   69.8390  224.1050 C   0  0  0  0  0  0  0  0  0  0  0  0
  140.3570   71.3930  224.3130 S   0  0  0  0  0  0  0  0  0  0  0  0
  140.6660   71.1800  225.9620 C   0  0  0  0  0  0  0  0  0  0  0  0
  140.3410   69.8780  226.3540 C   0  0  0  0  0  0  0  0  0  0  0  0
  139.7960   69.1300  225.2920 C   0  0  0  0  0  0  0  0  0  0  0  0
  139.3060   67.8190  225.2920 C   0  0  0  0  0  0  0  0  0  0  0  0
  139.2930   67.0480  226.4510 O   0  0  0  0  0  0  0  0  0  0  0  0
  138.8270   67.2990  224.1260 N   0  0  0  0  0  0  0  0  0  0  0  0
  140.4840   69.4180  227.7830 C   0  0  0  0  0  0  0  0  0  0  0  0
  141.3960   70.3540  228.5980 C   0  0  0  0  0  0  0  0  0  0  0  0
  141.0680   71.8320  228.3370 C   0  0  0  0  0  0  0  0  0  0  0  0
  141.2990   72.1970  226.8630 C   0  0  0  0  0  0  0  0  0  0  0  0
  137.6363   66.5689  221.9512 H   0  0  0  0  0  0  0  0  0  0  0  0
  137.7560   68.1574  221.1212 H   0  0  0  0  0  0  0  0  0  0  0  0
  139.1593   67.0361  221.1212 H   0  0  0  0  0  0  0  0  0  0  0  0
  140.1510   66.6650  226.8300 H   0  0  0  0  0  0  0  0  0  0  0  0
  140.9156   68.4062  227.7896 H   0  0  0  0  0  0  0  0  0  0  0  0
  139.4860   69.4259  228.2456 H   0  0  0  0  0  0  0  0  0  0  0  0
  142.4428   70.1657  228.3173 H   0  0  0  0  0  0  0  0  0  0  0  0
  141.2326   70.1489  229.6663 H   0  0  0  0  0  0  0  0  0  0  0  0
  141.7136   72.4603  228.9683 H   0  0  0  0  0  0  0  0  0  0  0  0
  140.0083   72.0028  228.5776 H   0  0  0  0  0  0  0  0  0  0  0  0
  142.3804   72.2325  226.6646 H   0  0  0  0  0  0  0  0  0  0  0  0
  140.8433   73.1784  226.6652 H   0  0  0  0  0  0  0  0  0  0  0  0
  1  2  1  0
  2  3  2  0
  3  4  1  0
  4  5  1  0
  5  6  1  0
  6  7  2  0
  7  8  1  0
  8  9  1  0
  9 10  1  0
  9 11  2  0
  7 12  1  0
 12 13  1  0
 13 14  1  0
 14 15  1  0
 11  2  1  0
  8  4  2  0
 15  6  1  0
  1 16  1  0
  1 17  1  0
  1 18  1  0
 10 19  1  0
 12 20  1  0
 12 21  1  0
 13 22  1  0
 13 23  1  0
 14 24  1  0
 14 25  1  0
 15 26  1  0
 15 27  1  0
M  END
>  <UniqueID>  (20) 
25

>  <SMILES>  (20) 
Cc1nc(O)c2c3c(sc2n1)CCCC3

>  <Energy>  (20) 
59.402327907086246

>  <Genealogy>  (20) 
Cc1nc(O)c2c3c(sc2n1)CCCC3 (tautomer)
Cc1nc(O)c2c3c(sc2n1)CCCC3 (3D coordinates assigned)
Cc1nc(O)c2c3c(sc2n1)CCCC3 (nonaromatic ring conformer: 59.402327907086246 kcal/mol)

>  <smiles>  (20) 
Cc1nc2sc3c(c2c(=O)[nH]1)CCCC3

>  <score_type>  (20) 
oracle

>  <origin>  (20) 
autodockgpu

>  <m_score__min__energy>  (20) 
-6.0899999999999999

>  <m_primary>  (20) 
energy

>  <meeko>  (20) 
{"free_energy": -6.09, "intermolecular_energy": -6.38, "internal_energy": 0.07, "cluster_size": 12, "cluster_id": 1, "rank_in_cluster": 4}

>  <energy>  (20) 
-5.86

>  <cluster_rmsd>  (20) 
0.04

>  <rmsd>  (20) 
271.98

>  <cluster>  (20) 
2

$$$$
ULEHMWWQIZHLHN-YHMJCDSINA-N
     RDKit          3D

 27 29  0  0  0  0  0  0  0  0999 V2000
  138.2730   67.7230  221.3920 C   0  0  0  0  0  0  0  0  0  0  0  0
  138.7790   68.2600  222.6890 C   0  0  0  0  0  0  0  0  0  0  0  0
  139.2540   69.5350  222.7570 N   0  0  0  0  0  0  0  0  0  0  0  0
  139.7410   69.9910  223.9350 C   0  0  0  0  0  0  0  0  0  0  0  0
  140.3420   71.5280  224.2430 S   0  0  0  0  0  0  0  0  0  0  0  0
  140.6620   71.2060  225.8710 C   0  0  0  0  0  0  0  0  0  0  0  0
  140.3400   69.8800  226.1770 C   0  0  0  0  0  0  0  0  0  0  0  0
  139.7880   69.2040  225.0720 C   0  0  0  0  0  0  0  0  0  0  0  0
  139.2980   67.8960  224.9880 C   0  0  0  0  0  0  0  0  0  0  0  0
  139.2930   67.0490  226.0930 O   0  0  0  0  0  0  0  0  0  0  0  0
  138.8110   67.4550  223.7930 N   0  0  0  0  0  0  0  0  0  0  0  0
  140.4930   69.3250  227.5720 C   0  0  0  0  0  0  0  0  0  0  0  0
  141.4110   70.2060  228.4410 C   0  0  0  0  0  0  0  0  0  0  0  0
  141.0810   71.6980  228.2810 C   0  0  0  0  0  0  0  0  0  0  0  0
  141.3020   72.1600  226.8330 C   0  0  0  0  0  0  0  0  0  0  0  0
  137.5305   66.9350  221.5861 H   0  0  0  0  0  0  0  0  0  0  0  0
  137.8041   68.5350  220.8169 H   0  0  0  0  0  0  0  0  0  0  0  0
  139.1114   67.3031  220.8169 H   0  0  0  0  0  0  0  0  0  0  0  0
  139.6920   67.3440  226.9760 H   0  0  0  0  0  0  0  0  0  0  0  0
  140.9249   68.3153  227.5081 H   0  0  0  0  0  0  0  0  0  0  0  0
  139.4984   69.3007  228.0412 H   0  0  0  0  0  0  0  0  0  0  0  0
  142.4558   70.0374  228.1409 H   0  0  0  0  0  0  0  0  0  0  0  0
  141.2551   69.9305  229.4945 H   0  0  0  0  0  0  0  0  0  0  0  0
  141.7307   72.2834  228.9482 H   0  0  0  0  0  0  0  0  0  0  0  0
  140.0230   71.8519  228.5397 H   0  0  0  0  0  0  0  0  0  0  0  0
  142.3820   72.2080  226.6298 H   0  0  0  0  0  0  0  0  0  0  0  0
  140.8458   73.1526  226.7041 H   0  0  0  0  0  0  0  0  0  0  0  0
  1  2  1  0
  2  3  2  0
  3  4  1  0
  4  5  1  0
  5  6  1  0
  6  7  2  0
  7  8  1  0
  8  9  1  0
  9 10  1  0
  9 11  2  0
  7 12  1  0
 12 13  1  0
 13 14  1  0
 14 15  1  0
 11  2  1  0
  8  4  2  0
 15  6  1  0
  1 16  1  0
  1 17  1  0
  1 18  1  0
 10 19  1  0
 12 20  1  0
 12 21  1  0
 13 22  1  0
 13 23  1  0
 14 24  1  0
 14 25  1  0
 15 26  1  0
 15 27  1  0
M  END
>  <UniqueID>  (21) 
26

>  <SMILES>  (21) 
Cc1nc(O)c2c3c(sc2n1)CCCC3

>  <Energy>  (21) 
59.42478855021825

>  <Genealogy>  (21) 
Cc1nc(O)c2c3c(sc2n1)CCCC3 (tautomer)
Cc1nc(O)c2c3c(sc2n1)CCCC3 (3D coordinates assigned)
Cc1nc(O)c2c3c(sc2n1)CCCC3 (nonaromatic ring conformer: 59.42478855021825 kcal/mol)

>  <smiles>  (21) 
Cc1nc2sc3c(c2c(=O)[nH]1)CCCC3

>  <score_type>  (21) 
oracle

>  <origin>  (21) 
autodockgpu

>  <m_score__min__energy>  (21) 
-6.0899999999999999

>  <m_primary>  (21) 
energy

>  <meeko>  (21) 
{"free_energy": -5.94, "intermolecular_energy": -6.24, "internal_energy": 0.13, "cluster_size": 12, "cluster_id": 1, "rank_in_cluster": 12}

>  <energy>  (21) 
-6.09

>  <cluster_rmsd>  (21) 
0.0

>  <rmsd>  (21) 
272.48

>  <cluster>  (21) 
1

$$$$
ULEHMWWQIZHLHN-YHMJCDSINA-N
     RDKit          3D

 27 29  0  0  0  0  0  0  0  0999 V2000
  138.2820   67.4340  221.7410 C   0  0  0  0  0  0  0  0  0  0  0  0
  138.7870   68.0600  222.9970 C   0  0  0  0  0  0  0  0  0  0  0  0
  139.2540   69.3410  222.9770 N   0  0  0  0  0  0  0  0  0  0  0  0
  139.7400   69.8780  224.1200 C   0  0  0  0  0  0  0  0  0  0  0  0
  140.3320   71.4360  224.3210 S   0  0  0  0  0  0  0  0  0  0  0  0
  140.6570   71.2290  225.9670 C   0  0  0  0  0  0  0  0  0  0  0  0
  140.3440   69.9250  226.3640 C   0  0  0  0  0  0  0  0  0  0  0  0
  139.7940   69.1720  225.3080 C   0  0  0  0  0  0  0  0  0  0  0  0
  139.3120   67.8580  225.3150 C   0  0  0  0  0  0  0  0  0  0  0  0
  139.3140   67.0880  226.4750 O   0  0  0  0  0  0  0  0  0  0  0  0
  138.8260   67.3330  224.1540 N   0  0  0  0  0  0  0  0  0  0  0  0
  140.5030   69.4680  227.7920 C   0  0  0  0  0  0  0  0  0  0  0  0
  141.4170   70.4110  228.5970 C   0  0  0  0  0  0  0  0  0  0  0  0
  141.0760   71.8870  228.3370 C   0  0  0  0  0  0  0  0  0  0  0  0
  141.2920   72.2500  226.8600 C   0  0  0  0  0  0  0  0  0  0  0  0
  137.6095   66.6004  221.9915 H   0  0  0  0  0  0  0  0  0  0  0  0
  137.7330   68.1839  221.1526 H   0  0  0  0  0  0  0  0  0  0  0  0
  139.1311   67.0560  221.1526 H   0  0  0  0  0  0  0  0  0  0  0  0
  140.1720   66.6780  226.8250 H   0  0  0  0  0  0  0  0  0  0  0  0
  140.9408   68.4589  227.7961 H   0  0  0  0  0  0  0  0  0  0  0  0
  139.5094   69.4703  228.2640 H   0  0  0  0  0  0  0  0  0  0  0  0
  142.4622   70.2294  228.3062 H   0  0  0  0  0  0  0  0  0  0  0  0
  141.2660   70.2061  229.6672 H   0  0  0  0  0  0  0  0  0  0  0  0
  141.7226   72.5210  228.9615 H   0  0  0  0  0  0  0  0  0  0  0  0
  140.0175   72.0515  228.5871 H   0  0  0  0  0  0  0  0  0  0  0  0
  142.3714   72.2906  226.6520 H   0  0  0  0  0  0  0  0  0  0  0  0
  140.8292   73.2286  226.6644 H   0  0  0  0  0  0  0  0  0  0  0  0
  1  2  1  0
  2  3  2  0
  3  4  1  0
  4  5  1  0
  5  6  1  0
  6  7  2  0
  7  8  1  0
  8  9  1  0
  9 10  1  0
  9 11  2  0
  7 12  1  0
 12 13  1  0
 13 14  1  0
 14 15  1  0
 11  2  1  0
  8  4  2  0
 15  6  1  0
  1 16  1  0
  1 17  1  0
  1 18  1  0
 10 19  1  0
 12 20  1  0
 12 21  1  0
 13 22  1  0
 13 23  1  0
 14 24  1  0
 14 25  1  0
 15 26  1  0
 15 27  1  0
M  END
>  <UniqueID>  (22) 
26

>  <SMILES>  (22) 
Cc1nc(O)c2c3c(sc2n1)CCCC3

>  <Energy>  (22) 
59.42478855021825

>  <Genealogy>  (22) 
Cc1nc(O)c2c3c(sc2n1)CCCC3 (tautomer)
Cc1nc(O)c2c3c(sc2n1)CCCC3 (3D coordinates assigned)
Cc1nc(O)c2c3c(sc2n1)CCCC3 (nonaromatic ring conformer: 59.42478855021825 kcal/mol)

>  <smiles>  (22) 
Cc1nc2sc3c(c2c(=O)[nH]1)CCCC3

>  <score_type>  (22) 
oracle

>  <origin>  (22) 
autodockgpu

>  <m_score__min__energy>  (22) 
-6.0899999999999999

>  <m_primary>  (22) 
energy

>  <meeko>  (22) 
{"free_energy": -6.09, "intermolecular_energy": -6.39, "internal_energy": 0.07, "cluster_size": 12, "cluster_id": 1, "rank_in_cluster": 1}

>  <energy>  (22) 
-6.09

>  <cluster_rmsd>  (22) 
0.04

>  <rmsd>  (22) 
272.48

>  <cluster>  (22) 
1

$$$$
ULEHMWWQIZHLHN-YHMJCDSINA-N
     RDKit          3D

 27 29  0  0  0  0  0  0  0  0999 V2000
  138.3250   67.6360  221.4450 C   0  0  0  0  0  0  0  0  0  0  0  0
  138.8150   68.1850  222.7420 C   0  0  0  0  0  0  0  0  0  0  0  0
  139.2970   69.4590  222.8020 N   0  0  0  0  0  0  0  0  0  0  0  0
  139.7700   69.9260  223.9810 C   0  0  0  0  0  0  0  0  0  0  0  0
  140.3760   71.4630  224.2780 S   0  0  0  0  0  0  0  0  0  0  0  0
  140.6710   71.1590  225.9150 C   0  0  0  0  0  0  0  0  0  0  0  0
  140.3360   69.8390  226.2330 C   0  0  0  0  0  0  0  0  0  0  0  0
  139.7960   69.1530  225.1280 C   0  0  0  0  0  0  0  0  0  0  0  0
  139.2990   67.8470  225.0530 C   0  0  0  0  0  0  0  0  0  0  0  0
  139.2740   67.0140  226.1680 O   0  0  0  0  0  0  0  0  0  0  0  0
  138.8270   67.3940  223.8560 N   0  0  0  0  0  0  0  0  0  0  0  0
  140.4660   69.3010  227.6360 C   0  0  0  0  0  0  0  0  0  0  0  0
  141.3770   70.1860  228.5070 C   0  0  0  0  0  0  0  0  0  0  0  0
  141.0580   71.6780  228.3250 C   0  0  0  0  0  0  0  0  0  0  0  0
  141.3030   72.1210  226.8740 C   0  0  0  0  0  0  0  0  0  0  0  0
  137.6039   66.8281  221.6379 H   0  0  0  0  0  0  0  0  0  0  0  0
  137.8348   68.4356  220.8702 H   0  0  0  0  0  0  0  0  0  0  0  0
  139.1749   67.2394  220.8702 H   0  0  0  0  0  0  0  0  0  0  0  0
  140.0640   66.9650  226.7990 H   0  0  0  0  0  0  0  0  0  0  0  0
  140.8921   68.2879  227.5906 H   0  0  0  0  0  0  0  0  0  0  0  0
  139.4647   69.2894  228.0914 H   0  0  0  0  0  0  0  0  0  0  0  0
  142.4248   70.0078  228.2233 H   0  0  0  0  0  0  0  0  0  0  0  0
  141.2053   69.9236  229.5614 H   0  0  0  0  0  0  0  0  0  0  0  0
  141.7015   72.2676  228.9946 H   0  0  0  0  0  0  0  0  0  0  0  0
  139.9974   71.8415  228.5668 H   0  0  0  0  0  0  0  0  0  0  0  0
  142.3861   72.1599  226.6859 H   0  0  0  0  0  0  0  0  0  0  0  0
  140.8551   73.1148  226.7262 H   0  0  0  0  0  0  0  0  0  0  0  0
  1  2  1  0
  2  3  2  0
  3  4  1  0
  4  5  1  0
  5  6  1  0
  6  7  2  0
  7  8  1  0
  8  9  1  0
  9 10  1  0
  9 11  2  0
  7 12  1  0
 12 13  1  0
 13 14  1  0
 14 15  1  0
 11  2  1  0
  8  4  2  0
 15  6  1  0
  1 16  1  0
  1 17  1  0
  1 18  1  0
 10 19  1  0
 12 20  1  0
 12 21  1  0
 13 22  1  0
 13 23  1  0
 14 24  1  0
 14 25  1  0
 15 26  1  0
 15 27  1  0
M  END
>  <UniqueID>  (23) 
26

>  <SMILES>  (23) 
Cc1nc(O)c2c3c(sc2n1)CCCC3

>  <Energy>  (23) 
59.42478855021825

>  <Genealogy>  (23) 
Cc1nc(O)c2c3c(sc2n1)CCCC3 (tautomer)
Cc1nc(O)c2c3c(sc2n1)CCCC3 (3D coordinates assigned)
Cc1nc(O)c2c3c(sc2n1)CCCC3 (nonaromatic ring conformer: 59.42478855021825 kcal/mol)

>  <smiles>  (23) 
Cc1nc2sc3c(c2c(=O)[nH]1)CCCC3

>  <score_type>  (23) 
oracle

>  <origin>  (23) 
autodockgpu

>  <m_score__min__energy>  (23) 
-6.0899999999999999

>  <m_primary>  (23) 
energy

>  <meeko>  (23) 
{"free_energy": -6.03, "intermolecular_energy": -6.33, "internal_energy": 0.08, "cluster_size": 12, "cluster_id": 1, "rank_in_cluster": 11}

>  <energy>  (23) 
-6.09

>  <cluster_rmsd>  (23) 
0.07

>  <rmsd>  (23) 
272.45

>  <cluster>  (23) 
1

$$$$
ULEHMWWQIZHLHN-YHMJCDSINA-N
     RDKit          3D

 27 29  0  0  0  0  0  0  0  0999 V2000
  138.3260   67.4420  221.6960 C   0  0  0  0  0  0  0  0  0  0  0  0
  138.8140   68.0690  222.9590 C   0  0  0  0  0  0  0  0  0  0  0  0
  139.2920   69.3450  222.9430 N   0  0  0  0  0  0  0  0  0  0  0  0
  139.7640   69.8820  224.0930 C   0  0  0  0  0  0  0  0  0  0  0  0
  140.3640   71.4360  224.2990 S   0  0  0  0  0  0  0  0  0  0  0  0
  140.6610   71.2300  225.9500 C   0  0  0  0  0  0  0  0  0  0  0  0
  140.3300   69.9300  226.3460 C   0  0  0  0  0  0  0  0  0  0  0  0
  139.7920   69.1780  225.2830 C   0  0  0  0  0  0  0  0  0  0  0  0
  139.3000   67.8680  225.2860 C   0  0  0  0  0  0  0  0  0  0  0  0
  139.2770   67.1020  226.4470 O   0  0  0  0  0  0  0  0  0  0  0  0
  138.8290   67.3440  224.1180 N   0  0  0  0  0  0  0  0  0  0  0  0
  140.4620   69.4750  227.7780 C   0  0  0  0  0  0  0  0  0  0  0  0
  141.3700   70.4140  228.5950 C   0  0  0  0  0  0  0  0  0  0  0  0
  141.0460   71.8910  228.3250 C   0  0  0  0  0  0  0  0  0  0  0  0
  141.2900   72.2490  226.8510 C   0  0  0  0  0  0  0  0  0  0  0  0
  137.6669   66.5952  221.9379 H   0  0  0  0  0  0  0  0  0  0  0  0
  137.7669   68.1859  221.1095 H   0  0  0  0  0  0  0  0  0  0  0  0
  139.1844   67.0827  221.1095 H   0  0  0  0  0  0  0  0  0  0  0  0
  140.1100   66.6250  226.7720 H   0  0  0  0  0  0  0  0  0  0  0  0
  140.8922   68.4627  227.7918 H   0  0  0  0  0  0  0  0  0  0  0  0
  139.4609   69.4852  228.2338 H   0  0  0  0  0  0  0  0  0  0  0  0
  142.4184   70.2230  228.3223 H   0  0  0  0  0  0  0  0  0  0  0  0
  141.1989   70.2142  229.6631 H   0  0  0  0  0  0  0  0  0  0  0  0
  141.6870   72.5213  228.9589 H   0  0  0  0  0  0  0  0  0  0  0  0
  139.9846   72.0643  228.5561 H   0  0  0  0  0  0  0  0  0  0  0  0
  142.3730   72.2802  226.6610 H   0  0  0  0  0  0  0  0  0  0  0  0
  140.8392   73.2311  226.6451 H   0  0  0  0  0  0  0  0  0  0  0  0
  1  2  1  0
  2  3  2  0
  3  4  1  0
  4  5  1  0
  5  6  1  0
  6  7  2  0
  7  8  1  0
  8  9  1  0
  9 10  1  0
  9 11  2  0
  7 12  1  0
 12 13  1  0
 13 14  1  0
 14 15  1  0
 11  2  1  0
  8  4  2  0
 15  6  1  0
  1 16  1  0
  1 17  1  0
  1 18  1  0
 10 19  1  0
 12 20  1  0
 12 21  1  0
 13 22  1  0
 13 23  1  0
 14 24  1  0
 14 25  1  0
 15 26  1  0
 15 27  1  0
M  END
>  <UniqueID>  (24) 
26

>  <SMILES>  (24) 
Cc1nc(O)c2c3c(sc2n1)CCCC3

>  <Energy>  (24) 
59.42478855021825

>  <Genealogy>  (24) 
Cc1nc(O)c2c3c(sc2n1)CCCC3 (tautomer)
Cc1nc(O)c2c3c(sc2n1)CCCC3 (3D coordinates assigned)
Cc1nc(O)c2c3c(sc2n1)CCCC3 (nonaromatic ring conformer: 59.42478855021825 kcal/mol)

>  <smiles>  (24) 
Cc1nc2sc3c(c2c(=O)[nH]1)CCCC3

>  <score_type>  (24) 
oracle

>  <origin>  (24) 
autodockgpu

>  <m_score__min__energy>  (24) 
-6.0899999999999999

>  <m_primary>  (24) 
energy

>  <meeko>  (24) 
{"free_energy": -6.07, "intermolecular_energy": -6.37, "internal_energy": 0.07, "cluster_size": 12, "cluster_id": 1, "rank_in_cluster": 7}

>  <energy>  (24) 
-6.09

>  <cluster_rmsd>  (24) 
0.05

>  <rmsd>  (24) 
272.46

>  <cluster>  (24) 
1

$$$$
ULEHMWWQIZHLHN-YHMJCDSINA-N
     RDKit          3D

 27 29  0  0  0  0  0  0  0  0999 V2000
  138.3180   67.4610  221.7070 C   0  0  0  0  0  0  0  0  0  0  0  0
  138.8130   68.0820  222.9690 C   0  0  0  0  0  0  0  0  0  0  0  0
  139.3010   69.3550  222.9550 N   0  0  0  0  0  0  0  0  0  0  0  0
  139.7780   69.8870  224.1040 C   0  0  0  0  0  0  0  0  0  0  0  0
  140.3910   71.4360  224.3110 S   0  0  0  0  0  0  0  0  0  0  0  0
  140.6890   71.2250  225.9620 C   0  0  0  0  0  0  0  0  0  0  0  0
  140.3490   69.9270  226.3560 C   0  0  0  0  0  0  0  0  0  0  0  0
  139.8040   69.1810  225.2940 C   0  0  0  0  0  0  0  0  0  0  0  0
  139.3010   67.8750  225.2950 C   0  0  0  0  0  0  0  0  0  0  0  0
  139.2740   67.1070  226.4560 O   0  0  0  0  0  0  0  0  0  0  0  0
  138.8240   67.3560  224.1270 N   0  0  0  0  0  0  0  0  0  0  0  0
  140.4790   69.4700  227.7870 C   0  0  0  0  0  0  0  0  0  0  0  0
  141.3960   70.4000  228.6050 C   0  0  0  0  0  0  0  0  0  0  0  0
  141.0830   71.8810  228.3370 C   0  0  0  0  0  0  0  0  0  0  0  0
  141.3260   72.2380  226.8640 C   0  0  0  0  0  0  0  0  0  0  0  0
  137.6491   66.6219  221.9490 H   0  0  0  0  0  0  0  0  0  0  0  0
  137.7675   68.2113  221.1205 H   0  0  0  0  0  0  0  0  0  0  0  0
  139.1721   67.0916  221.1205 H   0  0  0  0  0  0  0  0  0  0  0  0
  140.1190   66.6820  226.8170 H   0  0  0  0  0  0  0  0  0  0  0  0
  140.9005   68.4540  227.7992 H   0  0  0  0  0  0  0  0  0  0  0  0
  139.4785   69.4891  228.2437 H   0  0  0  0  0  0  0  0  0  0  0  0
  142.4425   70.2009  228.3309 H   0  0  0  0  0  0  0  0  0  0  0  0
  141.2251   70.1997  229.6730 H   0  0  0  0  0  0  0  0  0  0  0  0
  141.7306   72.5056  228.9699 H   0  0  0  0  0  0  0  0  0  0  0  0
  140.0236   72.0627  228.5710 H   0  0  0  0  0  0  0  0  0  0  0  0
  142.4089   72.2622  226.6721 H   0  0  0  0  0  0  0  0  0  0  0  0
  140.8805   73.2229  226.6604 H   0  0  0  0  0  0  0  0  0  0  0  0
  1  2  1  0
  2  3  2  0
  3  4  1  0
  4  5  1  0
  5  6  1  0
  6  7  2  0
  7  8  1  0
  8  9  1  0
  9 10  1  0
  9 11  2  0
  7 12  1  0
 12 13  1  0
 13 14  1  0
 14 15  1  0
 11  2  1  0
  8  4  2  0
 15  6  1  0
  1 16  1  0
  1 17  1  0
  1 18  1  0
 10 19  1  0
 12 20  1  0
 12 21  1  0
 13 22  1  0
 13 23  1  0
 14 24  1  0
 14 25  1  0
 15 26  1  0
 15 27  1  0
M  END
>  <UniqueID>  (25) 
26

>  <SMILES>  (25) 
Cc1nc(O)c2c3c(sc2n1)CCCC3

>  <Energy>  (25) 
59.42478855021825

>  <Genealogy>  (25) 
Cc1nc(O)c2c3c(sc2n1)CCCC3 (tautomer)
Cc1nc(O)c2c3c(sc2n1)CCCC3 (3D coordinates assigned)
Cc1nc(O)c2c3c(sc2n1)CCCC3 (nonaromatic ring conformer: 59.42478855021825 kcal/mol)

>  <smiles>  (25) 
Cc1nc2sc3c(c2c(=O)[nH]1)CCCC3

>  <score_type>  (25) 
oracle

>  <origin>  (25) 
autodockgpu

>  <m_score__min__energy>  (25) 
-6.0899999999999999

>  <m_primary>  (25) 
energy

>  <meeko>  (25) 
{"free_energy": -6.09, "intermolecular_energy": -6.38, "internal_energy": 0.07, "cluster_size": 12, "cluster_id": 1, "rank_in_cluster": 2}

>  <energy>  (25) 
-6.08

>  <cluster_rmsd>  (25) 
0.07

>  <rmsd>  (25) 
272.46

>  <cluster>  (25) 
1

$$$$
ULEHMWWQIZHLHN-YHMJCDSINA-N
     RDKit          3D

 27 29  0  0  0  0  0  0  0  0999 V2000
  138.3100   67.3830  221.7130 C   0  0  0  0  0  0  0  0  0  0  0  0
  138.8040   68.0050  222.9750 C   0  0  0  0  0  0  0  0  0  0  0  0
  139.2750   69.2840  222.9640 N   0  0  0  0  0  0  0  0  0  0  0  0
  139.7510   69.8170  224.1130 C   0  0  0  0  0  0  0  0  0  0  0  0
  140.3460   71.3720  224.3230 S   0  0  0  0  0  0  0  0  0  0  0  0
  140.6540   71.1590  225.9720 C   0  0  0  0  0  0  0  0  0  0  0  0
  140.3320   69.8560  226.3620 C   0  0  0  0  0  0  0  0  0  0  0  0
  139.7910   69.1070  225.2990 C   0  0  0  0  0  0  0  0  0  0  0  0
  139.3040   67.7950  225.2980 C   0  0  0  0  0  0  0  0  0  0  0  0
  139.2920   67.0220  226.4560 O   0  0  0  0  0  0  0  0  0  0  0  0
  138.8290   67.2750  224.1300 N   0  0  0  0  0  0  0  0  0  0  0  0
  140.4740   69.3950  227.7910 C   0  0  0  0  0  0  0  0  0  0  0  0
  141.3830   70.3330  228.6080 C   0  0  0  0  0  0  0  0  0  0  0  0
  141.0510   71.8110  228.3480 C   0  0  0  0  0  0  0  0  0  0  0  0
  141.2830   72.1770  226.8740 C   0  0  0  0  0  0  0  0  0  0  0  0
  137.6426   66.5428  221.9551 H   0  0  0  0  0  0  0  0  0  0  0  0
  137.7582   68.1323  221.1265 H   0  0  0  0  0  0  0  0  0  0  0  0
  139.1648   67.0151  221.1265 H   0  0  0  0  0  0  0  0  0  0  0  0
  140.1490   66.6340  226.8310 H   0  0  0  0  0  0  0  0  0  0  0  0
  140.9080   68.3842  227.7974 H   0  0  0  0  0  0  0  0  0  0  0  0
  139.4754   69.3999  228.2523 H   0  0  0  0  0  0  0  0  0  0  0  0
  142.4305   70.1479  228.3281 H   0  0  0  0  0  0  0  0  0  0  0  0
  141.2192   70.1264  229.6759 H   0  0  0  0  0  0  0  0  0  0  0  0
  141.6941   72.4407  228.9804 H   0  0  0  0  0  0  0  0  0  0  0  0
  139.9907   71.9792  228.5879 H   0  0  0  0  0  0  0  0  0  0  0  0
  142.3645   72.2153  226.6770 H   0  0  0  0  0  0  0  0  0  0  0  0
  140.8250   73.1573  226.6759 H   0  0  0  0  0  0  0  0  0  0  0  0
  1  2  1  0
  2  3  2  0
  3  4  1  0
  4  5  1  0
  5  6  1  0
  6  7  2  0
  7  8  1  0
  8  9  1  0
  9 10  1  0
  9 11  2  0
  7 12  1  0
 12 13  1  0
 13 14  1  0
 14 15  1  0
 11  2  1  0
  8  4  2  0
 15  6  1  0
  1 16  1  0
  1 17  1  0
  1 18  1  0
 10 19  1  0
 12 20  1  0
 12 21  1  0
 13 22  1  0
 13 23  1  0
 14 24  1  0
 14 25  1  0
 15 26  1  0
 15 27  1  0
M  END
>  <UniqueID>  (26) 
26

>  <SMILES>  (26) 
Cc1nc(O)c2c3c(sc2n1)CCCC3

>  <Energy>  (26) 
59.42478855021825

>  <Genealogy>  (26) 
Cc1nc(O)c2c3c(sc2n1)CCCC3 (tautomer)
Cc1nc(O)c2c3c(sc2n1)CCCC3 (3D coordinates assigned)
Cc1nc(O)c2c3c(sc2n1)CCCC3 (nonaromatic ring conformer: 59.42478855021825 kcal/mol)

>  <smiles>  (26) 
Cc1nc2sc3c(c2c(=O)[nH]1)CCCC3

>  <score_type>  (26) 
oracle

>  <origin>  (26) 
autodockgpu

>  <m_score__min__energy>  (26) 
-6.0899999999999999

>  <m_primary>  (26) 
energy

>  <meeko>  (26) 
{"free_energy": -6.08, "intermolecular_energy": -6.38, "internal_energy": 0.07, "cluster_size": 12, "cluster_id": 1, "rank_in_cluster": 5}

>  <energy>  (26) 
-6.08

>  <cluster_rmsd>  (26) 
0.07

>  <rmsd>  (26) 
272.44

>  <cluster>  (26) 
1

$$$$
ULEHMWWQIZHLHN-YHMJCDSINA-N
     RDKit          3D

 27 29  0  0  0  0  0  0  0  0999 V2000
  138.0170   67.3500  221.4440 C   0  0  0  0  0  0  0  0  0  0  0  0
  138.5870   68.1210  222.5870 C   0  0  0  0  0  0  0  0  0  0  0  0
  138.8330   67.4950  223.7730 N   0  0  0  0  0  0  0  0  0  0  0  0
  139.3160   68.2210  224.8080 C   0  0  0  0  0  0  0  0  0  0  0  0
  139.7140   67.6450  226.3340 S   0  0  0  0  0  0  0  0  0  0  0  0
  140.2260   69.1540  226.9000 C   0  0  0  0  0  0  0  0  0  0  0  0
  140.0520   70.1280  225.9120 C   0  0  0  0  0  0  0  0  0  0  0  0
  139.5590   69.5790  224.7130 C   0  0  0  0  0  0  0  0  0  0  0  0
  139.3010   70.2100  223.4900 C   0  0  0  0  0  0  0  0  0  0  0  0
  139.5370   71.5690  223.3090 O   0  0  0  0  0  0  0  0  0  0  0  0
  138.8140   69.4630  222.4580 N   0  0  0  0  0  0  0  0  0  0  0  0
  140.4570   71.5640  226.1310 C   0  0  0  0  0  0  0  0  0  0  0  0
  140.6470   71.8850  227.6260 C   0  0  0  0  0  0  0  0  0  0  0  0
  141.4430   70.7840  228.3440 C   0  0  0  0  0  0  0  0  0  0  0  0
  140.6980   69.4420  228.2920 C   0  0  0  0  0  0  0  0  0  0  0  0
  137.4046   66.5216  221.8296 H   0  0  0  0  0  0  0  0  0  0  0  0
  137.3909   68.0139  220.8298 H   0  0  0  0  0  0  0  0  0  0  0  0
  138.8353   66.9460  220.8298 H   0  0  0  0  0  0  0  0  0  0  0  0
  138.8130   72.2520  223.4960 H   0  0  0  0  0  0  0  0  0  0  0  0
  139.6745   72.2205  225.7228 H   0  0  0  0  0  0  0  0  0  0  0  0
  141.4180   71.7290  225.6218 H   0  0  0  0  0  0  0  0  0  0  0  0
  139.6586   71.9776  228.0997 H   0  0  0  0  0  0  0  0  0  0  0  0
  141.2110   72.8259  227.7070 H   0  0  0  0  0  0  0  0  0  0  0  0
  141.5894   71.0735  229.3951 H   0  0  0  0  0  0  0  0  0  0  0  0
  142.4124   70.6661  227.8376 H   0  0  0  0  0  0  0  0  0  0  0  0
  139.8301   69.4841  228.9665 H   0  0  0  0  0  0  0  0  0  0  0  0
  141.3855   68.6426  228.6056 H   0  0  0  0  0  0  0  0  0  0  0  0
  1  2  1  0
  2  3  2  0
  3  4  1  0
  4  5  1  0
  5  6  1  0
  6  7  2  0
  7  8  1  0
  8  9  1  0
  9 10  1  0
  9 11  2  0
  7 12  1  0
 12 13  1  0
 13 14  1  0
 14 15  1  0
 11  2  1  0
  8  4  2  0
 15  6  1  0
  1 16  1  0
  1 17  1  0
  1 18  1  0
 10 19  1  0
 12 20  1  0
 12 21  1  0
 13 22  1  0
 13 23  1  0
 14 24  1  0
 14 25  1  0
 15 26  1  0
 15 27  1  0
M  END
>  <UniqueID>  (27) 
26

>  <SMILES>  (27) 
Cc1nc(O)c2c3c(sc2n1)CCCC3

>  <Energy>  (27) 
59.42478855021825

>  <Genealogy>  (27) 
Cc1nc(O)c2c3c(sc2n1)CCCC3 (tautomer)
Cc1nc(O)c2c3c(sc2n1)CCCC3 (3D coordinates assigned)
Cc1nc(O)c2c3c(sc2n1)CCCC3 (nonaromatic ring conformer: 59.42478855021825 kcal/mol)

>  <smiles>  (27) 
Cc1nc2sc3c(c2c(=O)[nH]1)CCCC3

>  <score_type>  (27) 
oracle

>  <origin>  (27) 
autodockgpu

>  <m_score__min__energy>  (27) 
-6.0899999999999999

>  <m_primary>  (27) 
energy

>  <meeko>  (27) 
{"free_energy": -5.86, "intermolecular_energy": -6.16, "internal_energy": 0.07, "cluster_size": 8, "cluster_id": 2, "rank_in_cluster": 4}

>  <energy>  (27) 
-6.07

>  <cluster_rmsd>  (27) 
0.05

>  <rmsd>  (27) 
272.46

>  <cluster>  (27) 
1

$$$$
ULEHMWWQIZHLHN-YHMJCDSINA-N
     RDKit          3D

 27 29  0  0  0  0  0  0  0  0999 V2000
  138.0150   67.3640  221.4390 C   0  0  0  0  0  0  0  0  0  0  0  0
  138.5880   68.1340  222.5820 C   0  0  0  0  0  0  0  0  0  0  0  0
  138.8220   67.5100  223.7710 N   0  0  0  0  0  0  0  0  0  0  0  0
  139.3080   68.2350  224.8060 C   0  0  0  0  0  0  0  0  0  0  0  0
  139.6930   67.6610  226.3360 S   0  0  0  0  0  0  0  0  0  0  0  0
  140.2170   69.1670  226.8980 C   0  0  0  0  0  0  0  0  0  0  0  0
  140.0570   70.1390  225.9070 C   0  0  0  0  0  0  0  0  0  0  0  0
  139.5640   69.5910  224.7070 C   0  0  0  0  0  0  0  0  0  0  0  0
  139.3180   70.2190  223.4810 C   0  0  0  0  0  0  0  0  0  0  0  0
  139.5670   71.5760  223.2960 O   0  0  0  0  0  0  0  0  0  0  0  0
  138.8280   69.4730  222.4500 N   0  0  0  0  0  0  0  0  0  0  0  0
  140.4750   71.5720  226.1220 C   0  0  0  0  0  0  0  0  0  0  0  0
  140.6610   71.8970  227.6170 C   0  0  0  0  0  0  0  0  0  0  0  0
  141.4430   70.7910  228.3420 C   0  0  0  0  0  0  0  0  0  0  0  0
  140.6860   69.4560  228.2920 C   0  0  0  0  0  0  0  0  0  0  0  0
  137.4001   66.5377  221.8251 H   0  0  0  0  0  0  0  0  0  0  0  0
  137.3908   68.0296  220.8247 H   0  0  0  0  0  0  0  0  0  0  0  0
  138.8318   66.9572  220.8247 H   0  0  0  0  0  0  0  0  0  0  0  0
  138.8540   72.2680  223.4940 H   0  0  0  0  0  0  0  0  0  0  0  0
  139.7009   72.2345  225.7074 H   0  0  0  0  0  0  0  0  0  0  0  0
  141.4399   71.7257  225.6166 H   0  0  0  0  0  0  0  0  0  0  0  0
  139.6713   72.0007  228.0858 H   0  0  0  0  0  0  0  0  0  0  0  0
  141.2332   72.8330  227.6975 H   0  0  0  0  0  0  0  0  0  0  0  0
  141.5878   71.0829  229.3926 H   0  0  0  0  0  0  0  0  0  0  0  0
  142.4131   70.6619  227.8397 H   0  0  0  0  0  0  0  0  0  0  0  0
  139.8156   69.5087  228.9626 H   0  0  0  0  0  0  0  0  0  0  0  0
  141.3647   68.6515  228.6116 H   0  0  0  0  0  0  0  0  0  0  0  0
  1  2  1  0
  2  3  2  0
  3  4  1  0
  4  5  1  0
  5  6  1  0
  6  7  2  0
  7  8  1  0
  8  9  1  0
  9 10  1  0
  9 11  2  0
  7 12  1  0
 12 13  1  0
 13 14  1  0
 14 15  1  0
 11  2  1  0
  8  4  2  0
 15  6  1  0
  1 16  1  0
  1 17  1  0
  1 18  1  0
 10 19  1  0
 12 20  1  0
 12 21  1  0
 13 22  1  0
 13 23  1  0
 14 24  1  0
 14 25  1  0
 15 26  1  0
 15 27  1  0
M  END
>  <UniqueID>  (28) 
26

>  <SMILES>  (28) 
Cc1nc(O)c2c3c(sc2n1)CCCC3

>  <Energy>  (28) 
59.42478855021825

>  <Genealogy>  (28) 
Cc1nc(O)c2c3c(sc2n1)CCCC3 (tautomer)
Cc1nc(O)c2c3c(sc2n1)CCCC3 (3D coordinates assigned)
Cc1nc(O)c2c3c(sc2n1)CCCC3 (nonaromatic ring conformer: 59.42478855021825 kcal/mol)

>  <smiles>  (28) 
Cc1nc2sc3c(c2c(=O)[nH]1)CCCC3

>  <score_type>  (28) 
oracle

>  <origin>  (28) 
autodockgpu

>  <m_score__min__energy>  (28) 
-6.0899999999999999

>  <m_primary>  (28) 
energy

>  <meeko>  (28) 
{"free_energy": -5.87, "intermolecular_energy": -6.16, "internal_energy": 0.07, "cluster_size": 8, "cluster_id": 2, "rank_in_cluster": 2}

>  <energy>  (28) 
-6.07

>  <cluster_rmsd>  (28) 
0.13

>  <rmsd>  (28) 
272.4

>  <cluster>  (28) 
1

$$$$
ULEHMWWQIZHLHN-YHMJCDSINA-N
     RDKit          3D

 27 29  0  0  0  0  0  0  0  0999 V2000
  138.3230   67.5370  221.5700 C   0  0  0  0  0  0  0  0  0  0  0  0
  138.8120   68.1170  222.8540 C   0  0  0  0  0  0  0  0  0  0  0  0
  139.2900   69.3930  222.8850 N   0  0  0  0  0  0  0  0  0  0  0  0
  139.7620   69.8880  224.0520 C   0  0  0  0  0  0  0  0  0  0  0  0
  140.3630   71.4340  224.3140 S   0  0  0  0  0  0  0  0  0  0  0  0
  140.6600   71.1690  225.9570 C   0  0  0  0  0  0  0  0  0  0  0  0
  140.3300   69.8550  226.3050 C   0  0  0  0  0  0  0  0  0  0  0  0
  139.7910   69.1420  225.2170 C   0  0  0  0  0  0  0  0  0  0  0  0
  139.2990   67.8330  225.1720 C   0  0  0  0  0  0  0  0  0  0  0  0
  139.2770   67.0250  226.3050 O   0  0  0  0  0  0  0  0  0  0  0  0
  138.8280   67.3510  223.9860 N   0  0  0  0  0  0  0  0  0  0  0  0
  140.4620   69.3490  227.7200 C   0  0  0  0  0  0  0  0  0  0  0  0
  141.3700   70.2580  228.5710 C   0  0  0  0  0  0  0  0  0  0  0  0
  141.0460   71.7440  228.3540 C   0  0  0  0  0  0  0  0  0  0  0  0
  141.2890   72.1540  226.8940 C   0  0  0  0  0  0  0  0  0  0  0  0
  137.6272   66.7118  221.7819 H   0  0  0  0  0  0  0  0  0  0  0  0
  137.8039   68.3147  220.9905 H   0  0  0  0  0  0  0  0  0  0  0  0
  139.1772   67.1568  220.9905 H   0  0  0  0  0  0  0  0  0  0  0  0
  140.1360   66.7510  226.7650 H   0  0  0  0  0  0  0  0  0  0  0  0
  140.8922   68.3369  227.6974 H   0  0  0  0  0  0  0  0  0  0  0  0
  139.4608   69.3432  228.1756 H   0  0  0  0  0  0  0  0  0  0  0  0
  142.4185   70.0769  228.2921 H   0  0  0  0  0  0  0  0  0  0  0  0
  141.1986   70.0198  229.6311 H   0  0  0  0  0  0  0  0  0  0  0  0
  141.6875   72.3513  229.0095 H   0  0  0  0  0  0  0  0  0  0  0  0
  139.9848   71.9092  228.5919 H   0  0  0  0  0  0  0  0  0  0  0  0
  142.3719   72.1919  226.7048 H   0  0  0  0  0  0  0  0  0  0  0  0
  140.8376   73.1426  226.7239 H   0  0  0  0  0  0  0  0  0  0  0  0
  1  2  1  0
  2  3  2  0
  3  4  1  0
  4  5  1  0
  5  6  1  0
  6  7  2  0
  7  8  1  0
  8  9  1  0
  9 10  1  0
  9 11  2  0
  7 12  1  0
 12 13  1  0
 13 14  1  0
 14 15  1  0
 11  2  1  0
  8  4  2  0
 15  6  1  0
  1 16  1  0
  1 17  1  0
  1 18  1  0
 10 19  1  0
 12 20  1  0
 12 21  1  0
 13 22  1  0
 13 23  1  0
 14 24  1  0
 14 25  1  0
 15 26  1  0
 15 27  1  0
M  END
>  <UniqueID>  (29) 
26

>  <SMILES>  (29) 
Cc1nc(O)c2c3c(sc2n1)CCCC3

>  <Energy>  (29) 
59.42478855021825

>  <Genealogy>  (29) 
Cc1nc(O)c2c3c(sc2n1)CCCC3 (tautomer)
Cc1nc(O)c2c3c(sc2n1)CCCC3 (3D coordinates assigned)
Cc1nc(O)c2c3c(sc2n1)CCCC3 (nonaromatic ring conformer: 59.42478855021825 kcal/mol)

>  <smiles>  (29) 
Cc1nc2sc3c(c2c(=O)[nH]1)CCCC3

>  <score_type>  (29) 
oracle

>  <origin>  (29) 
autodockgpu

>  <m_score__min__energy>  (29) 
-6.0899999999999999

>  <m_primary>  (29) 
energy

>  <meeko>  (29) 
{"free_energy": -6.06, "intermolecular_energy": -6.36, "internal_energy": 0.08, "cluster_size": 12, "cluster_id": 1, "rank_in_cluster": 10}

>  <energy>  (29) 
-6.06

>  <cluster_rmsd>  (29) 
0.12

>  <rmsd>  (29) 
272.42

>  <cluster>  (29) 
1

$$$$
ULEHMWWQIZHLHN-YHMJCDSINA-N
     RDKit          3D

 27 29  0  0  0  0  0  0  0  0999 V2000
  138.2960   67.3900  221.7010 C   0  0  0  0  0  0  0  0  0  0  0  0
  138.7950   68.0070  222.9640 C   0  0  0  0  0  0  0  0  0  0  0  0
  139.2650   69.2870  222.9540 N   0  0  0  0  0  0  0  0  0  0  0  0
  139.7470   69.8160  224.1030 C   0  0  0  0  0  0  0  0  0  0  0  0
  140.3410   71.3720  224.3160 S   0  0  0  0  0  0  0  0  0  0  0  0
  140.6570   71.1530  225.9630 C   0  0  0  0  0  0  0  0  0  0  0  0
  140.3390   69.8470  226.3500 C   0  0  0  0  0  0  0  0  0  0  0  0
  139.7930   69.1020  225.2870 C   0  0  0  0  0  0  0  0  0  0  0  0
  139.3090   67.7890  225.2830 C   0  0  0  0  0  0  0  0  0  0  0  0
  139.3040   67.0120  226.4380 O   0  0  0  0  0  0  0  0  0  0  0  0
  138.8270   67.2720  224.1160 N   0  0  0  0  0  0  0  0  0  0  0  0
  140.4900   69.3810  227.7760 C   0  0  0  0  0  0  0  0  0  0  0  0
  141.4020   70.3170  228.5920 C   0  0  0  0  0  0  0  0  0  0  0  0
  141.0660   71.7950  228.3390 C   0  0  0  0  0  0  0  0  0  0  0  0
  141.2900   72.1670  226.8660 C   0  0  0  0  0  0  0  0  0  0  0  0
  137.6211   66.5555  221.9423 H   0  0  0  0  0  0  0  0  0  0  0  0
  137.7511   68.1445  221.1147 H   0  0  0  0  0  0  0  0  0  0  0  0
  139.1478   67.0149  221.1147 H   0  0  0  0  0  0  0  0  0  0  0  0
  140.1680   66.6550  226.8280 H   0  0  0  0  0  0  0  0  0  0  0  0
  140.9257   68.3710  227.7760 H   0  0  0  0  0  0  0  0  0  0  0  0
  139.4940   69.3828  228.2429 H   0  0  0  0  0  0  0  0  0  0  0  0
  142.4484   70.1346  228.3059 H   0  0  0  0  0  0  0  0  0  0  0  0
  141.2446   70.1060  229.6600 H   0  0  0  0  0  0  0  0  0  0  0  0
  141.7109   72.4235  228.9707 H   0  0  0  0  0  0  0  0  0  0  0  0
  140.0065   71.9601  228.5845 H   0  0  0  0  0  0  0  0  0  0  0  0
  142.3705   72.2066  226.6636 H   0  0  0  0  0  0  0  0  0  0  0  0
  140.8303   73.1478  226.6745 H   0  0  0  0  0  0  0  0  0  0  0  0
  1  2  1  0
  2  3  2  0
  3  4  1  0
  4  5  1  0
  5  6  1  0
  6  7  2  0
  7  8  1  0
  8  9  1  0
  9 10  1  0
  9 11  2  0
  7 12  1  0
 12 13  1  0
 13 14  1  0
 14 15  1  0
 11  2  1  0
  8  4  2  0
 15  6  1  0
  1 16  1  0
  1 17  1  0
  1 18  1  0
 10 19  1  0
 12 20  1  0
 12 21  1  0
 13 22  1  0
 13 23  1  0
 14 24  1  0
 14 25  1  0
 15 26  1  0
 15 27  1  0
M  END
>  <UniqueID>  (30) 
26

>  <SMILES>  (30) 
Cc1nc(O)c2c3c(sc2n1)CCCC3

>  <Energy>  (30) 
59.42478855021825

>  <Genealogy>  (30) 
Cc1nc(O)c2c3c(sc2n1)CCCC3 (tautomer)
Cc1nc(O)c2c3c(sc2n1)CCCC3 (3D coordinates assigned)
Cc1nc(O)c2c3c(sc2n1)CCCC3 (nonaromatic ring conformer: 59.42478855021825 kcal/mol)

>  <smiles>  (30) 
Cc1nc2sc3c(c2c(=O)[nH]1)CCCC3

>  <score_type>  (30) 
oracle

>  <origin>  (30) 
autodockgpu

>  <m_score__min__energy>  (30) 
-6.0899999999999999

>  <m_primary>  (30) 
energy

>  <meeko>  (30) 
{"free_energy": -6.09, "intermolecular_energy": -6.38, "internal_energy": 0.07, "cluster_size": 12, "cluster_id": 1, "rank_in_cluster": 3}

>  <energy>  (30) 
-6.06

>  <cluster_rmsd>  (30) 
0.13

>  <rmsd>  (30) 
272.41

>  <cluster>  (30) 
1

$$$$
ULEHMWWQIZHLHN-YHMJCDSINA-N
     RDKit          3D

 27 29  0  0  0  0  0  0  0  0999 V2000
  138.0040   67.3890  221.4470 C   0  0  0  0  0  0  0  0  0  0  0  0
  138.5760   68.1470  222.5970 C   0  0  0  0  0  0  0  0  0  0  0  0
  138.8250   67.5090  223.7750 N   0  0  0  0  0  0  0  0  0  0  0  0
  139.3110   68.2230  224.8170 C   0  0  0  0  0  0  0  0  0  0  0  0
  139.7130   67.6310  226.3360 S   0  0  0  0  0  0  0  0  0  0  0  0
  140.2260   69.1340  226.9160 C   0  0  0  0  0  0  0  0  0  0  0  0
  140.0480   70.1190  225.9400 C   0  0  0  0  0  0  0  0  0  0  0  0
  139.5530   69.5830  224.7360 C   0  0  0  0  0  0  0  0  0  0  0  0
  139.2920   70.2270  223.5210 C   0  0  0  0  0  0  0  0  0  0  0  0
  139.5270   71.5880  223.3540 O   0  0  0  0  0  0  0  0  0  0  0  0
  138.8020   69.4900  222.4820 N   0  0  0  0  0  0  0  0  0  0  0  0
  140.4540   71.5530  226.1730 C   0  0  0  0  0  0  0  0  0  0  0  0
  140.6470   71.8580  227.6710 C   0  0  0  0  0  0  0  0  0  0  0  0
  141.4460   70.7500  228.3750 C   0  0  0  0  0  0  0  0  0  0  0  0
  140.7020   69.4070  228.3110 C   0  0  0  0  0  0  0  0  0  0  0  0
  137.3817   66.5643  221.8246 H   0  0  0  0  0  0  0  0  0  0  0  0
  137.3873   68.0628  220.8341 H   0  0  0  0  0  0  0  0  0  0  0  0
  138.8211   66.9808  220.8341 H   0  0  0  0  0  0  0  0  0  0  0  0
  138.7860   72.2650  223.4930 H   0  0  0  0  0  0  0  0  0  0  0  0
  139.6709   72.2140  225.7733 H   0  0  0  0  0  0  0  0  0  0  0  0
  141.4139   71.7232  225.6634 H   0  0  0  0  0  0  0  0  0  0  0  0
  139.6595   71.9442  228.1480 H   0  0  0  0  0  0  0  0  0  0  0  0
  141.2100   72.7987  227.7611 H   0  0  0  0  0  0  0  0  0  0  0  0
  141.5951   71.0285  229.4287 H   0  0  0  0  0  0  0  0  0  0  0  0
  142.4139   70.6384  227.8644 H   0  0  0  0  0  0  0  0  0  0  0  0
  139.8360   69.4407  228.9885 H   0  0  0  0  0  0  0  0  0  0  0  0
  141.3910   68.6049  228.6142 H   0  0  0  0  0  0  0  0  0  0  0  0
  1  2  1  0
  2  3  2  0
  3  4  1  0
  4  5  1  0
  5  6  1  0
  6  7  2  0
  7  8  1  0
  8  9  1  0
  9 10  1  0
  9 11  2  0
  7 12  1  0
 12 13  1  0
 13 14  1  0
 14 15  1  0
 11  2  1  0
  8  4  2  0
 15  6  1  0
  1 16  1  0
  1 17  1  0
  1 18  1  0
 10 19  1  0
 12 20  1  0
 12 21  1  0
 13 22  1  0
 13 23  1  0
 14 24  1  0
 14 25  1  0
 15 26  1  0
 15 27  1  0
M  END
>  <UniqueID>  (31) 
26

>  <SMILES>  (31) 
Cc1nc(O)c2c3c(sc2n1)CCCC3

>  <Energy>  (31) 
59.42478855021825

>  <Genealogy>  (31) 
Cc1nc(O)c2c3c(sc2n1)CCCC3 (tautomer)
Cc1nc(O)c2c3c(sc2n1)CCCC3 (3D coordinates assigned)
Cc1nc(O)c2c3c(sc2n1)CCCC3 (nonaromatic ring conformer: 59.42478855021825 kcal/mol)

>  <smiles>  (31) 
Cc1nc2sc3c(c2c(=O)[nH]1)CCCC3

>  <score_type>  (31) 
oracle

>  <origin>  (31) 
autodockgpu

>  <m_score__min__energy>  (31) 
-6.0899999999999999

>  <m_primary>  (31) 
energy

>  <meeko>  (31) 
{"free_energy": -5.86, "intermolecular_energy": -6.16, "internal_energy": 0.07, "cluster_size": 8, "cluster_id": 2, "rank_in_cluster": 7}

>  <energy>  (31) 
-6.03

>  <cluster_rmsd>  (31) 
0.23

>  <rmsd>  (31) 
272.36

>  <cluster>  (31) 
1

$$$$
ULEHMWWQIZHLHN-YHMJCDSINA-N
     RDKit          3D

 27 29  0  0  0  0  0  0  0  0999 V2000
  138.3290   67.5170  221.5840 C   0  0  0  0  0  0  0  0  0  0  0  0
  138.8190   68.1040  222.8650 C   0  0  0  0  0  0  0  0  0  0  0  0
  139.2930   69.3810  222.8910 N   0  0  0  0  0  0  0  0  0  0  0  0
  139.7650   69.8820  224.0560 C   0  0  0  0  0  0  0  0  0  0  0  0
  140.3610   71.4300  224.3110 S   0  0  0  0  0  0  0  0  0  0  0  0
  140.6620   71.1710  225.9550 C   0  0  0  0  0  0  0  0  0  0  0  0
  140.3360   69.8580  226.3080 C   0  0  0  0  0  0  0  0  0  0  0  0
  139.7980   69.1400  225.2230 C   0  0  0  0  0  0  0  0  0  0  0  0
  139.3090   67.8290  225.1840 C   0  0  0  0  0  0  0  0  0  0  0  0
  139.2910   67.0250  226.3200 O   0  0  0  0  0  0  0  0  0  0  0  0
  138.8380   67.3420  224.0000 N   0  0  0  0  0  0  0  0  0  0  0  0
  140.4710   69.3580  227.7240 C   0  0  0  0  0  0  0  0  0  0  0  0
  141.3780   70.2720  228.5710 C   0  0  0  0  0  0  0  0  0  0  0  0
  141.0500   71.7560  228.3490 C   0  0  0  0  0  0  0  0  0  0  0  0
  141.2890   72.1620  226.8880 C   0  0  0  0  0  0  0  0  0  0  0  0
  137.6379   66.6891  221.8007 H   0  0  0  0  0  0  0  0  0  0  0  0
  137.8044   68.2901  221.0034 H   0  0  0  0  0  0  0  0  0  0  0  0
  139.1834   67.1390  221.0034 H   0  0  0  0  0  0  0  0  0  0  0  0
  140.1520   66.7490  226.7750 H   0  0  0  0  0  0  0  0  0  0  0  0
  140.9035   68.3468  227.7046 H   0  0  0  0  0  0  0  0  0  0  0  0
  139.4703   69.3520  228.1808 H   0  0  0  0  0  0  0  0  0  0  0  0
  142.4267   70.0924  228.2915 H   0  0  0  0  0  0  0  0  0  0  0  0
  141.2087   70.0371  229.6322 H   0  0  0  0  0  0  0  0  0  0  0  0
  141.6911   72.3672  229.0012 H   0  0  0  0  0  0  0  0  0  0  0  0
  139.9887   71.9189  228.5878 H   0  0  0  0  0  0  0  0  0  0  0  0
  142.3715   72.2035  226.6969 H   0  0  0  0  0  0  0  0  0  0  0  0
  140.8337   73.1483  226.7154 H   0  0  0  0  0  0  0  0  0  0  0  0
  1  2  1  0
  2  3  2  0
  3  4  1  0
  4  5  1  0
  5  6  1  0
  6  7  2  0
  7  8  1  0
  8  9  1  0
  9 10  1  0
  9 11  2  0
  7 12  1  0
 12 13  1  0
 13 14  1  0
 14 15  1  0
 11  2  1  0
  8  4  2  0
 15  6  1  0
  1 16  1  0
  1 17  1  0
  1 18  1  0
 10 19  1  0
 12 20  1  0
 12 21  1  0
 13 22  1  0
 13 23  1  0
 14 24  1  0
 14 25  1  0
 15 26  1  0
 15 27  1  0
M  END
>  <UniqueID>  (32) 
26

>  <SMILES>  (32) 
Cc1nc(O)c2c3c(sc2n1)CCCC3

>  <Energy>  (32) 
59.42478855021825

>  <Genealogy>  (32) 
Cc1nc(O)c2c3c(sc2n1)CCCC3 (tautomer)
Cc1nc(O)c2c3c(sc2n1)CCCC3 (3D coordinates assigned)
Cc1nc(O)c2c3c(sc2n1)CCCC3 (nonaromatic ring conformer: 59.42478855021825 kcal/mol)

>  <smiles>  (32) 
Cc1nc2sc3c(c2c(=O)[nH]1)CCCC3

>  <score_type>  (32) 
oracle

>  <origin>  (32) 
autodockgpu

>  <m_score__min__energy>  (32) 
-6.0899999999999999

>  <m_primary>  (32) 
energy

>  <meeko>  (32) 
{"free_energy": -6.06, "intermolecular_energy": -6.36, "internal_energy": 0.08, "cluster_size": 12, "cluster_id": 1, "rank_in_cluster": 9}

>  <energy>  (32) 
-5.94

>  <cluster_rmsd>  (32) 
0.34

>  <rmsd>  (32) 
272.33

>  <cluster>  (32) 
1

$$$$
ULEHMWWQIZHLHN-YHMJCDSINA-N
     RDKit          3D

 27 29  0  0  0  0  0  0  0  0999 V2000
  138.3120   67.4320  221.6650 C   0  0  0  0  0  0  0  0  0  0  0  0
  138.8050   68.0420  222.9330 C   0  0  0  0  0  0  0  0  0  0  0  0
  139.2800   69.3200  222.9330 N   0  0  0  0  0  0  0  0  0  0  0  0
  139.7560   69.8420  224.0880 C   0  0  0  0  0  0  0  0  0  0  0  0
  140.3540   71.3940  224.3120 S   0  0  0  0  0  0  0  0  0  0  0  0
  140.6590   71.1660  225.9600 C   0  0  0  0  0  0  0  0  0  0  0  0
  140.3330   69.8600  226.3380 C   0  0  0  0  0  0  0  0  0  0  0  0
  139.7920   69.1220  225.2680 C   0  0  0  0  0  0  0  0  0  0  0  0
  139.3020   67.8110  225.2550 C   0  0  0  0  0  0  0  0  0  0  0  0
  139.2870   67.0290  226.4060 O   0  0  0  0  0  0  0  0  0  0  0  0
  138.8270   67.3020  224.0820 N   0  0  0  0  0  0  0  0  0  0  0  0
  140.4730   69.3860  227.7630 C   0  0  0  0  0  0  0  0  0  0  0  0
  141.3830   70.3150  228.5900 C   0  0  0  0  0  0  0  0  0  0  0  0
  141.0540   71.7960  228.3420 C   0  0  0  0  0  0  0  0  0  0  0  0
  141.2900   72.1740  226.8720 C   0  0  0  0  0  0  0  0  0  0  0  0
  137.6364   66.5960  221.8987 H   0  0  0  0  0  0  0  0  0  0  0  0
  137.7694   68.1895  221.0804 H   0  0  0  0  0  0  0  0  0  0  0  0
  139.1665   67.0604  221.0804 H   0  0  0  0  0  0  0  0  0  0  0  0
  140.1450   66.6500  226.7890 H   0  0  0  0  0  0  0  0  0  0  0  0
  140.9053   68.3745  227.7606 H   0  0  0  0  0  0  0  0  0  0  0  0
  139.4739   69.3888  228.2233 H   0  0  0  0  0  0  0  0  0  0  0  0
  142.4306   70.1302  228.3101 H   0  0  0  0  0  0  0  0  0  0  0  0
  141.2175   70.0994  229.6559 H   0  0  0  0  0  0  0  0  0  0  0  0
  141.6967   72.4191  228.9812 H   0  0  0  0  0  0  0  0  0  0  0  0
  139.9935   71.9640  228.5810 H   0  0  0  0  0  0  0  0  0  0  0  0
  142.3720   72.2102  226.6773 H   0  0  0  0  0  0  0  0  0  0  0  0
  140.8358   73.1576  226.6816 H   0  0  0  0  0  0  0  0  0  0  0  0
  1  2  1  0
  2  3  2  0
  3  4  1  0
  4  5  1  0
  5  6  1  0
  6  7  2  0
  7  8  1  0
  8  9  1  0
  9 10  1  0
  9 11  2  0
  7 12  1  0
 12 13  1  0
 13 14  1  0
 14 15  1  0
 11  2  1  0
  8  4  2  0
 15  6  1  0
  1 16  1  0
  1 17  1  0
  1 18  1  0
 10 19  1  0
 12 20  1  0
 12 21  1  0
 13 22  1  0
 13 23  1  0
 14 24  1  0
 14 25  1  0
 15 26  1  0
 15 27  1  0
M  END
>  <UniqueID>  (33) 
26

>  <SMILES>  (33) 
Cc1nc(O)c2c3c(sc2n1)CCCC3

>  <Energy>  (33) 
59.42478855021825

>  <Genealogy>  (33) 
Cc1nc(O)c2c3c(sc2n1)CCCC3 (tautomer)
Cc1nc(O)c2c3c(sc2n1)CCCC3 (3D coordinates assigned)
Cc1nc(O)c2c3c(sc2n1)CCCC3 (nonaromatic ring conformer: 59.42478855021825 kcal/mol)

>  <smiles>  (33) 
Cc1nc2sc3c(c2c(=O)[nH]1)CCCC3

>  <score_type>  (33) 
oracle

>  <origin>  (33) 
autodockgpu

>  <m_score__min__energy>  (33) 
-6.0899999999999999

>  <m_primary>  (33) 
energy

>  <meeko>  (33) 
{"free_energy": -6.08, "intermolecular_energy": -6.38, "internal_energy": 0.07, "cluster_size": 12, "cluster_id": 1, "rank_in_cluster": 6}

>  <energy>  (33) 
-5.87

>  <cluster_rmsd>  (33) 
0.0

>  <rmsd>  (33) 
272.01

>  <cluster>  (33) 
2

$$$$
ULEHMWWQIZHLHN-YHMJCDSINA-N
     RDKit          3D

 27 29  0  0  0  0  0  0  0  0999 V2000
  138.0270   67.3350  221.4630 C   0  0  0  0  0  0  0  0  0  0  0  0
  138.5970   68.1130  222.6010 C   0  0  0  0  0  0  0  0  0  0  0  0
  138.8390   67.4970  223.7920 N   0  0  0  0  0  0  0  0  0  0  0  0
  139.3230   68.2290  224.8220 C   0  0  0  0  0  0  0  0  0  0  0  0
  139.7160   67.6650  226.3540 S   0  0  0  0  0  0  0  0  0  0  0  0
  140.2310   69.1770  226.9080 C   0  0  0  0  0  0  0  0  0  0  0  0
  140.0610   70.1440  225.9130 C   0  0  0  0  0  0  0  0  0  0  0  0
  139.5680   69.5870  224.7170 C   0  0  0  0  0  0  0  0  0  0  0  0
  139.3150   70.2080  223.4890 C   0  0  0  0  0  0  0  0  0  0  0  0
  139.5550   71.5650  223.2970 O   0  0  0  0  0  0  0  0  0  0  0  0
  138.8280   69.4530  222.4620 N   0  0  0  0  0  0  0  0  0  0  0  0
  140.4690   71.5810  226.1200 C   0  0  0  0  0  0  0  0  0  0  0  0
  140.6570   71.9130  227.6130 C   0  0  0  0  0  0  0  0  0  0  0  0
  141.4490   70.8160  228.3410 C   0  0  0  0  0  0  0  0  0  0  0  0
  140.7010   69.4750  228.2990 C   0  0  0  0  0  0  0  0  0  0  0  0
  137.4193   66.5056  221.8538 H   0  0  0  0  0  0  0  0  0  0  0  0
  137.3962   67.9937  220.8480 H   0  0  0  0  0  0  0  0  0  0  0  0
  138.8452   66.9321  220.8480 H   0  0  0  0  0  0  0  0  0  0  0  0
  138.8320   72.2520  223.4780 H   0  0  0  0  0  0  0  0  0  0  0  0
  139.6887   72.2360  225.7051 H   0  0  0  0  0  0  0  0  0  0  0  0
  141.4308   71.7402  225.6105 H   0  0  0  0  0  0  0  0  0  0  0  0
  139.6679   72.0115  228.0841 H   0  0  0  0  0  0  0  0  0  0  0  0
  141.2231   72.8532  227.6878 H   0  0  0  0  0  0  0  0  0  0  0  0
  141.5945   71.1137  229.3899 H   0  0  0  0  0  0  0  0  0  0  0  0
  142.4187   70.6916  227.8369 H   0  0  0  0  0  0  0  0  0  0  0  0
  139.8319   69.5246  228.9715 H   0  0  0  0  0  0  0  0  0  0  0  0
  141.3859   68.6766  228.6207 H   0  0  0  0  0  0  0  0  0  0  0  0
  1  2  1  0
  2  3  2  0
  3  4  1  0
  4  5  1  0
  5  6  1  0
  6  7  2  0
  7  8  1  0
  8  9  1  0
  9 10  1  0
  9 11  2  0
  7 12  1  0
 12 13  1  0
 13 14  1  0
 14 15  1  0
 11  2  1  0
  8  4  2  0
 15  6  1  0
  1 16  1  0
  1 17  1  0
  1 18  1  0
 10 19  1  0
 12 20  1  0
 12 21  1  0
 13 22  1  0
 13 23  1  0
 14 24  1  0
 14 25  1  0
 15 26  1  0
 15 27  1  0
M  END
>  <UniqueID>  (34) 
26

>  <SMILES>  (34) 
Cc1nc(O)c2c3c(sc2n1)CCCC3

>  <Energy>  (34) 
59.42478855021825

>  <Genealogy>  (34) 
Cc1nc(O)c2c3c(sc2n1)CCCC3 (tautomer)
Cc1nc(O)c2c3c(sc2n1)CCCC3 (3D coordinates assigned)
Cc1nc(O)c2c3c(sc2n1)CCCC3 (nonaromatic ring conformer: 59.42478855021825 kcal/mol)

>  <smiles>  (34) 
Cc1nc2sc3c(c2c(=O)[nH]1)CCCC3

>  <score_type>  (34) 
oracle

>  <origin>  (34) 
autodockgpu

>  <m_score__min__energy>  (34) 
-6.0899999999999999

>  <m_primary>  (34) 
energy

>  <meeko>  (34) 
{"free_energy": -5.87, "intermolecular_energy": -6.16, "internal_energy": 0.07, "cluster_size": 8, "cluster_id": 2, "rank_in_cluster": 3}

>  <energy>  (34) 
-5.87

>  <cluster_rmsd>  (34) 
0.08

>  <rmsd>  (34) 
271.98

>  <cluster>  (34) 
2

$$$$
ULEHMWWQIZHLHN-YHMJCDSINA-N
     RDKit          3D

 27 29  0  0  0  0  0  0  0  0999 V2000
  138.3240   67.5150  221.5690 C   0  0  0  0  0  0  0  0  0  0  0  0
  138.8120   68.0980  222.8530 C   0  0  0  0  0  0  0  0  0  0  0  0
  139.2900   69.3740  222.8800 N   0  0  0  0  0  0  0  0  0  0  0  0
  139.7610   69.8720  224.0470 C   0  0  0  0  0  0  0  0  0  0  0  0
  140.3630   71.4180  224.3060 S   0  0  0  0  0  0  0  0  0  0  0  0
  140.6580   71.1560  225.9500 C   0  0  0  0  0  0  0  0  0  0  0  0
  140.3270   69.8440  226.3010 C   0  0  0  0  0  0  0  0  0  0  0  0
  139.7890   69.1280  225.2140 C   0  0  0  0  0  0  0  0  0  0  0  0
  139.2960   67.8190  225.1720 C   0  0  0  0  0  0  0  0  0  0  0  0
  139.2730   67.0140  226.3070 O   0  0  0  0  0  0  0  0  0  0  0  0
  138.8260   67.3350  223.9860 N   0  0  0  0  0  0  0  0  0  0  0  0
  140.4580   69.3410  227.7170 C   0  0  0  0  0  0  0  0  0  0  0  0
  141.3660   70.2510  228.5660 C   0  0  0  0  0  0  0  0  0  0  0  0
  141.0420   71.7370  228.3460 C   0  0  0  0  0  0  0  0  0  0  0  0
  141.2870   72.1440  226.8850 C   0  0  0  0  0  0  0  0  0  0  0  0
  137.6313   66.6874  221.7819 H   0  0  0  0  0  0  0  0  0  0  0  0
  137.8018   68.2904  220.9893 H   0  0  0  0  0  0  0  0  0  0  0  0
  139.1792   67.1374  220.9893 H   0  0  0  0  0  0  0  0  0  0  0  0
  140.1310   66.7410  226.7690 H   0  0  0  0  0  0  0  0  0  0  0  0
  140.8875   68.3285  227.6968 H   0  0  0  0  0  0  0  0  0  0  0  0
  139.4566   69.3368  228.1722 H   0  0  0  0  0  0  0  0  0  0  0  0
  142.4145   70.0692  228.2874 H   0  0  0  0  0  0  0  0  0  0  0  0
  141.1948   70.0148  229.6266 H   0  0  0  0  0  0  0  0  0  0  0  0
  141.6827   72.3456  229.0011 H   0  0  0  0  0  0  0  0  0  0  0  0
  139.9806   71.9028  228.5825 H   0  0  0  0  0  0  0  0  0  0  0  0
  142.3701   72.1810  226.6967 H   0  0  0  0  0  0  0  0  0  0  0  0
  140.8368   73.1326  226.7118 H   0  0  0  0  0  0  0  0  0  0  0  0
  1  2  1  0
  2  3  2  0
  3  4  1  0
  4  5  1  0
  5  6  1  0
  6  7  2  0
  7  8  1  0
  8  9  1  0
  9 10  1  0
  9 11  2  0
  7 12  1  0
 12 13  1  0
 13 14  1  0
 14 15  1  0
 11  2  1  0
  8  4  2  0
 15  6  1  0
  1 16  1  0
  1 17  1  0
  1 18  1  0
 10 19  1  0
 12 20  1  0
 12 21  1  0
 13 22  1  0
 13 23  1  0
 14 24  1  0
 14 25  1  0
 15 26  1  0
 15 27  1  0
M  END
>  <UniqueID>  (35) 
26

>  <SMILES>  (35) 
Cc1nc(O)c2c3c(sc2n1)CCCC3

>  <Energy>  (35) 
59.42478855021825

>  <Genealogy>  (35) 
Cc1nc(O)c2c3c(sc2n1)CCCC3 (tautomer)
Cc1nc(O)c2c3c(sc2n1)CCCC3 (3D coordinates assigned)
Cc1nc(O)c2c3c(sc2n1)CCCC3 (nonaromatic ring conformer: 59.42478855021825 kcal/mol)

>  <smiles>  (35) 
Cc1nc2sc3c(c2c(=O)[nH]1)CCCC3

>  <score_type>  (35) 
oracle

>  <origin>  (35) 
autodockgpu

>  <m_score__min__energy>  (35) 
-6.0899999999999999

>  <m_primary>  (35) 
energy

>  <meeko>  (35) 
{"free_energy": -6.07, "intermolecular_energy": -6.37, "internal_energy": 0.08, "cluster_size": 12, "cluster_id": 1, "rank_in_cluster": 8}

>  <energy>  (35) 
-5.87

>  <cluster_rmsd>  (35) 
0.08

>  <rmsd>  (35) 
271.99

>  <cluster>  (35) 
2

$$$$
ULEHMWWQIZHLHN-YHMJCDSINA-N
     RDKit          3D

 27 29  0  0  0  0  0  0  0  0999 V2000
  138.0190   67.3240  221.4490 C   0  0  0  0  0  0  0  0  0  0  0  0
  138.5920   68.0950  222.5900 C   0  0  0  0  0  0  0  0  0  0  0  0
  138.8220   67.4750  223.7810 N   0  0  0  0  0  0  0  0  0  0  0  0
  139.3100   68.2010  224.8140 C   0  0  0  0  0  0  0  0  0  0  0  0
  139.6900   67.6310  226.3470 S   0  0  0  0  0  0  0  0  0  0  0  0
  140.2190   69.1370  226.9050 C   0  0  0  0  0  0  0  0  0  0  0  0
  140.0640   70.1060  225.9090 C   0  0  0  0  0  0  0  0  0  0  0  0
  139.5710   69.5560  224.7110 C   0  0  0  0  0  0  0  0  0  0  0  0
  139.3300   70.1810  223.4820 C   0  0  0  0  0  0  0  0  0  0  0  0
  139.5850   71.5360  223.2930 O   0  0  0  0  0  0  0  0  0  0  0  0
  138.8380   69.4330  222.4530 N   0  0  0  0  0  0  0  0  0  0  0  0
  140.4880   71.5380  226.1200 C   0  0  0  0  0  0  0  0  0  0  0  0
  140.6730   71.8670  227.6140 C   0  0  0  0  0  0  0  0  0  0  0  0
  141.4500   70.7610  228.3450 C   0  0  0  0  0  0  0  0  0  0  0  0
  140.6870   69.4280  228.2980 C   0  0  0  0  0  0  0  0  0  0  0  0
  137.4049   66.4977  221.8365 H   0  0  0  0  0  0  0  0  0  0  0  0
  137.3939   67.9886  220.8345 H   0  0  0  0  0  0  0  0  0  0  0  0
  138.8356   66.9171  220.8345 H   0  0  0  0  0  0  0  0  0  0  0  0
  138.8770   72.2320  223.4940 H   0  0  0  0  0  0  0  0  0  0  0  0
  139.7175   72.2025  225.7020 H   0  0  0  0  0  0  0  0  0  0  0  0
  141.4543   71.6858  225.6156 H   0  0  0  0  0  0  0  0  0  0  0  0
  139.6829   71.9759  228.0808 H   0  0  0  0  0  0  0  0  0  0  0  0
  141.2490   72.8009  227.6918 H   0  0  0  0  0  0  0  0  0  0  0  0
  141.5938   71.0562  229.3948 H   0  0  0  0  0  0  0  0  0  0  0  0
  142.4209   70.6266  227.8458 H   0  0  0  0  0  0  0  0  0  0  0  0
  139.8159   69.4863  228.9672 H   0  0  0  0  0  0  0  0  0  0  0  0
  141.3618   68.6216  228.6210 H   0  0  0  0  0  0  0  0  0  0  0  0
  1  2  1  0
  2  3  2  0
  3  4  1  0
  4  5  1  0
  5  6  1  0
  6  7  2  0
  7  8  1  0
  8  9  1  0
  9 10  1  0
  9 11  2  0
  7 12  1  0
 12 13  1  0
 13 14  1  0
 14 15  1  0
 11  2  1  0
  8  4  2  0
 15  6  1  0
  1 16  1  0
  1 17  1  0
  1 18  1  0
 10 19  1  0
 12 20  1  0
 12 21  1  0
 13 22  1  0
 13 23  1  0
 14 24  1  0
 14 25  1  0
 15 26  1  0
 15 27  1  0
M  END
>  <UniqueID>  (36) 
26

>  <SMILES>  (36) 
Cc1nc(O)c2c3c(sc2n1)CCCC3

>  <Energy>  (36) 
59.42478855021825

>  <Genealogy>  (36) 
Cc1nc(O)c2c3c(sc2n1)CCCC3 (tautomer)
Cc1nc(O)c2c3c(sc2n1)CCCC3 (3D coordinates assigned)
Cc1nc(O)c2c3c(sc2n1)CCCC3 (nonaromatic ring conformer: 59.42478855021825 kcal/mol)

>  <smiles>  (36) 
Cc1nc2sc3c(c2c(=O)[nH]1)CCCC3

>  <score_type>  (36) 
oracle

>  <origin>  (36) 
autodockgpu

>  <m_score__min__energy>  (36) 
-6.0899999999999999

>  <m_primary>  (36) 
energy

>  <meeko>  (36) 
{"free_energy": -5.86, "intermolecular_energy": -6.16, "internal_energy": 0.07, "cluster_size": 8, "cluster_id": 2, "rank_in_cluster": 6}

>  <energy>  (36) 
-5.86

>  <cluster_rmsd>  (36) 
0.09

>  <rmsd>  (36) 
271.98

>  <cluster>  (36) 
2

$$$$
ULEHMWWQIZHLHN-YHMJCDSINA-N
     RDKit          3D

 27 29  0  0  0  0  0  0  0  0999 V2000
  138.0550   67.3710  221.4530 C   0  0  0  0  0  0  0  0  0  0  0  0
  138.6250   68.1490  222.5910 C   0  0  0  0  0  0  0  0  0  0  0  0
  138.8240   67.5440  223.7960 N   0  0  0  0  0  0  0  0  0  0  0  0
  139.3090   68.2770  224.8250 C   0  0  0  0  0  0  0  0  0  0  0  0
  139.6540   67.7240  226.3720 S   0  0  0  0  0  0  0  0  0  0  0  0
  140.2040   69.2280  226.9150 C   0  0  0  0  0  0  0  0  0  0  0  0
  140.0840   70.1850  225.9020 C   0  0  0  0  0  0  0  0  0  0  0  0
  139.5980   69.6240  224.7040 C   0  0  0  0  0  0  0  0  0  0  0  0
  139.3890   70.2340  223.4620 C   0  0  0  0  0  0  0  0  0  0  0  0
  139.6740   71.5810  223.2560 O   0  0  0  0  0  0  0  0  0  0  0  0
  138.8990   69.4790  222.4370 N   0  0  0  0  0  0  0  0  0  0  0  0
  140.5310   71.6110  226.0970 C   0  0  0  0  0  0  0  0  0  0  0  0
  140.6990   71.9600  227.5880 C   0  0  0  0  0  0  0  0  0  0  0  0
  141.4430   70.8510  228.3490 C   0  0  0  0  0  0  0  0  0  0  0  0
  140.6550   69.5330  228.3110 C   0  0  0  0  0  0  0  0  0  0  0  0
  137.4473   66.5416  221.8438 H   0  0  0  0  0  0  0  0  0  0  0  0
  137.4242   68.0297  220.8380 H   0  0  0  0  0  0  0  0  0  0  0  0
  138.8732   66.9681  220.8380 H   0  0  0  0  0  0  0  0  0  0  0  0
  138.9920   72.2960  223.4770 H   0  0  0  0  0  0  0  0  0  0  0  0
  139.7796   72.2829  225.6567 H   0  0  0  0  0  0  0  0  0  0  0  0
  141.5075   71.7331  225.6055 H   0  0  0  0  0  0  0  0  0  0  0  0
  139.7040   72.0953  228.0371 H   0  0  0  0  0  0  0  0  0  0  0  0
  141.2919   72.8837  227.6602 H   0  0  0  0  0  0  0  0  0  0  0  0
  141.5761   71.1604  229.3962 H   0  0  0  0  0  0  0  0  0  0  0  0
  142.4188   70.6898  227.8676 H   0  0  0  0  0  0  0  0  0  0  0  0
  139.7745   69.6193  228.9646 H   0  0  0  0  0  0  0  0  0  0  0  0
  141.3084   68.7191  228.6583 H   0  0  0  0  0  0  0  0  0  0  0  0
  1  2  1  0
  2  3  2  0
  3  4  1  0
  4  5  1  0
  5  6  1  0
  6  7  2  0
  7  8  1  0
  8  9  1  0
  9 10  1  0
  9 11  2  0
  7 12  1  0
 12 13  1  0
 13 14  1  0
 14 15  1  0
 11  2  1  0
  8  4  2  0
 15  6  1  0
  1 16  1  0
  1 17  1  0
  1 18  1  0
 10 19  1  0
 12 20  1  0
 12 21  1  0
 13 22  1  0
 13 23  1  0
 14 24  1  0
 14 25  1  0
 15 26  1  0
 15 27  1  0
M  END
>  <UniqueID>  (37) 
26

>  <SMILES>  (37) 
Cc1nc(O)c2c3c(sc2n1)CCCC3

>  <Energy>  (37) 
59.42478855021825

>  <Genealogy>  (37) 
Cc1nc(O)c2c3c(sc2n1)CCCC3 (tautomer)
Cc1nc(O)c2c3c(sc2n1)CCCC3 (3D coordinates assigned)
Cc1nc(O)c2c3c(sc2n1)CCCC3 (nonaromatic ring conformer: 59.42478855021825 kcal/mol)

>  <smiles>  (37) 
Cc1nc2sc3c(c2c(=O)[nH]1)CCCC3

>  <score_type>  (37) 
oracle

>  <origin>  (37) 
autodockgpu

>  <m_score__min__energy>  (37) 
-6.0899999999999999

>  <m_primary>  (37) 
energy

>  <meeko>  (37) 
{"free_energy": -5.87, "intermolecular_energy": -6.17, "internal_energy": 0.07, "cluster_size": 8, "cluster_id": 2, "rank_in_cluster": 1}

>  <energy>  (37) 
-5.86

>  <cluster_rmsd>  (37) 
0.07

>  <rmsd>  (37) 
271.98

>  <cluster>  (37) 
2

$$$$
ULEHMWWQIZHLHN-YHMJCDSINA-N
     RDKit          3D

 27 29  0  0  0  0  0  0  0  0999 V2000
  138.0220   67.3630  221.4290 C   0  0  0  0  0  0  0  0  0  0  0  0
  138.5940   68.1290  222.5740 C   0  0  0  0  0  0  0  0  0  0  0  0
  138.8210   67.5040  223.7630 N   0  0  0  0  0  0  0  0  0  0  0  0
  139.3080   68.2260  224.8000 C   0  0  0  0  0  0  0  0  0  0  0  0
  139.6840   67.6500  226.3310 S   0  0  0  0  0  0  0  0  0  0  0  0
  140.2140   69.1530  226.8960 C   0  0  0  0  0  0  0  0  0  0  0  0
  140.0620   70.1260  225.9030 C   0  0  0  0  0  0  0  0  0  0  0  0
  139.5710   69.5810  224.7020 C   0  0  0  0  0  0  0  0  0  0  0  0
  139.3320   70.2110  223.4750 C   0  0  0  0  0  0  0  0  0  0  0  0
  139.5900   71.5660  223.2920 O   0  0  0  0  0  0  0  0  0  0  0  0
  138.8420   69.4670  222.4420 N   0  0  0  0  0  0  0  0  0  0  0  0
  140.4870   71.5570  226.1200 C   0  0  0  0  0  0  0  0  0  0  0  0
  140.6700   71.8800  227.6160 C   0  0  0  0  0  0  0  0  0  0  0  0
  141.4440   70.7710  228.3440 C   0  0  0  0  0  0  0  0  0  0  0  0
  140.6800   69.4390  228.2910 C   0  0  0  0  0  0  0  0  0  0  0  0
  137.4051   66.5368  221.8122 H   0  0  0  0  0  0  0  0  0  0  0  0
  137.3999   68.0310  220.8152 H   0  0  0  0  0  0  0  0  0  0  0  0
  138.8392   66.9563  220.8152 H   0  0  0  0  0  0  0  0  0  0  0  0
  138.8820   72.2620  223.4930 H   0  0  0  0  0  0  0  0  0  0  0  0
  139.7177   72.2238  225.7034 H   0  0  0  0  0  0  0  0  0  0  0  0
  141.4541   71.7060  225.6176 H   0  0  0  0  0  0  0  0  0  0  0  0
  139.6792   71.9883  228.0815 H   0  0  0  0  0  0  0  0  0  0  0  0
  141.2471   72.8128  227.6982 H   0  0  0  0  0  0  0  0  0  0  0  0
  141.5862   71.0623  229.3951 H   0  0  0  0  0  0  0  0  0  0  0  0
  142.4156   70.6373  227.8458 H   0  0  0  0  0  0  0  0  0  0  0  0
  139.8078   69.4958  228.9589 H   0  0  0  0  0  0  0  0  0  0  0  0
  141.3537   68.6310  228.6123 H   0  0  0  0  0  0  0  0  0  0  0  0
  1  2  1  0
  2  3  2  0
  3  4  1  0
  4  5  1  0
  5  6  1  0
  6  7  2  0
  7  8  1  0
  8  9  1  0
  9 10  1  0
  9 11  2  0
  7 12  1  0
 12 13  1  0
 13 14  1  0
 14 15  1  0
 11  2  1  0
  8  4  2  0
 15  6  1  0
  1 16  1  0
  1 17  1  0
  1 18  1  0
 10 19  1  0
 12 20  1  0
 12 21  1  0
 13 22  1  0
 13 23  1  0
 14 24  1  0
 14 25  1  0
 15 26  1  0
 15 27  1  0
M  END
>  <UniqueID>  (38) 
26

>  <SMILES>  (38) 
Cc1nc(O)c2c3c(sc2n1)CCCC3

>  <Energy>  (38) 
59.42478855021825

>  <Genealogy>  (38) 
Cc1nc(O)c2c3c(sc2n1)CCCC3 (tautomer)
Cc1nc(O)c2c3c(sc2n1)CCCC3 (3D coordinates assigned)
Cc1nc(O)c2c3c(sc2n1)CCCC3 (nonaromatic ring conformer: 59.42478855021825 kcal/mol)

>  <smiles>  (38) 
Cc1nc2sc3c(c2c(=O)[nH]1)CCCC3

>  <score_type>  (38) 
oracle

>  <origin>  (38) 
autodockgpu

>  <m_score__min__energy>  (38) 
-6.0899999999999999

>  <m_primary>  (38) 
energy

>  <meeko>  (38) 
{"free_energy": -5.86, "intermolecular_energy": -6.16, "internal_energy": 0.07, "cluster_size": 8, "cluster_id": 2, "rank_in_cluster": 5}

>  <energy>  (38) 
-5.86

>  <cluster_rmsd>  (38) 
0.09

>  <rmsd>  (38) 
271.98

>  <cluster>  (38) 
2

$$$$
ULEHMWWQIZHLHN-YHMJCDSINA-N
     RDKit          3D

 27 29  0  0  0  0  0  0  0  0999 V2000
  138.0290   67.3770  221.4280 C   0  0  0  0  0  0  0  0  0  0  0  0
  138.6030   68.1450  222.5710 C   0  0  0  0  0  0  0  0  0  0  0  0
  138.8130   67.5270  223.7680 N   0  0  0  0  0  0  0  0  0  0  0  0
  139.3010   68.2510  224.8020 C   0  0  0  0  0  0  0  0  0  0  0  0
  139.6580   67.6830  226.3400 S   0  0  0  0  0  0  0  0  0  0  0  0
  140.2050   69.1830  226.8960 C   0  0  0  0  0  0  0  0  0  0  0  0
  140.0740   70.1500  225.8950 C   0  0  0  0  0  0  0  0  0  0  0  0
  139.5840   69.6010  224.6940 C   0  0  0  0  0  0  0  0  0  0  0  0
  139.3630   70.2240  223.4600 C   0  0  0  0  0  0  0  0  0  0  0  0
  139.6410   71.5740  223.2670 O   0  0  0  0  0  0  0  0  0  0  0  0
  138.8700   69.4780  222.4300 N   0  0  0  0  0  0  0  0  0  0  0  0
  140.5170   71.5770  226.1020 C   0  0  0  0  0  0  0  0  0  0  0  0
  140.6930   71.9100  227.5960 C   0  0  0  0  0  0  0  0  0  0  0  0
  141.4460   70.7970  228.3400 C   0  0  0  0  0  0  0  0  0  0  0  0
  140.6640   69.4750  228.2920 C   0  0  0  0  0  0  0  0  0  0  0  0
  137.4123   66.5518  221.8136 H   0  0  0  0  0  0  0  0  0  0  0  0
  137.4064   68.0442  220.8138 H   0  0  0  0  0  0  0  0  0  0  0  0
  138.8452   66.9688  220.8138 H   0  0  0  0  0  0  0  0  0  0  0  0
  138.9490   72.2820  223.4800 H   0  0  0  0  0  0  0  0  0  0  0  0
  139.7601   72.2506  225.6738 H   0  0  0  0  0  0  0  0  0  0  0  0
  141.4896   71.7088  225.6053 H   0  0  0  0  0  0  0  0  0  0  0  0
  139.7003   72.0360  228.0527 H   0  0  0  0  0  0  0  0  0  0  0  0
  141.2826   72.8353  227.6745 H   0  0  0  0  0  0  0  0  0  0  0  0
  141.5836   71.0955  229.3897 H   0  0  0  0  0  0  0  0  0  0  0  0
  142.4198   70.6458  227.8512 H   0  0  0  0  0  0  0  0  0  0  0  0
  139.7875   69.5495  228.9524 H   0  0  0  0  0  0  0  0  0  0  0  0
  141.3241   68.6607  228.6254 H   0  0  0  0  0  0  0  0  0  0  0  0
  1  2  1  0
  2  3  2  0
  3  4  1  0
  4  5  1  0
  5  6  1  0
  6  7  2  0
  7  8  1  0
  8  9  1  0
  9 10  1  0
  9 11  2  0
  7 12  1  0
 12 13  1  0
 13 14  1  0
 14 15  1  0
 11  2  1  0
  8  4  2  0
 15  6  1  0
  1 16  1  0
  1 17  1  0
  1 18  1  0
 10 19  1  0
 12 20  1  0
 12 21  1  0
 13 22  1  0
 13 23  1  0
 14 24  1  0
 14 25  1  0
 15 26  1  0
 15 27  1  0
M  END
>  <UniqueID>  (39) 
26

>  <SMILES>  (39) 
Cc1nc(O)c2c3c(sc2n1)CCCC3

>  <Energy>  (39) 
59.42478855021825

>  <Genealogy>  (39) 
Cc1nc(O)c2c3c(sc2n1)CCCC3 (tautomer)
Cc1nc(O)c2c3c(sc2n1)CCCC3 (3D coordinates assigned)
Cc1nc(O)c2c3c(sc2n1)CCCC3 (nonaromatic ring conformer: 59.42478855021825 kcal/mol)

>  <smiles>  (39) 
Cc1nc2sc3c(c2c(=O)[nH]1)CCCC3

>  <score_type>  (39) 
oracle

>  <origin>  (39) 
autodockgpu

>  <m_score__min__energy>  (39) 
-6.0899999999999999

>  <m_primary>  (39) 
energy

>  <meeko>  (39) 
{"free_energy": -5.86, "intermolecular_energy": -6.15, "internal_energy": 0.07, "cluster_size": 8, "cluster_id": 2, "rank_in_cluster": 8}

>  <energy>  (39) 
-5.86

>  <cluster_rmsd>  (39) 
0.11

>  <rmsd>  (39) 
271.99

>  <cluster>  (39) 
2

$$$$
ULEHMWWQIZHLHN-YHMJCDSINA-N
     RDKit          3D

 27 29  0  0  0  0  0  0  0  0999 V2000
  138.3060   67.4070  221.7080 C   0  0  0  0  0  0  0  0  0  0  0  0
  138.8030   68.0290  222.9700 C   0  0  0  0  0  0  0  0  0  0  0  0
  139.2780   69.3060  222.9570 N   0  0  0  0  0  0  0  0  0  0  0  0
  139.7570   69.8390  224.1050 C   0  0  0  0  0  0  0  0  0  0  0  0
  140.3570   71.3930  224.3130 S   0  0  0  0  0  0  0  0  0  0  0  0
  140.6660   71.1800  225.9620 C   0  0  0  0  0  0  0  0  0  0  0  0
  140.3410   69.8780  226.3540 C   0  0  0  0  0  0  0  0  0  0  0  0
  139.7960   69.1300  225.2920 C   0  0  0  0  0  0  0  0  0  0  0  0
  139.3060   67.8190  225.2920 C   0  0  0  0  0  0  0  0  0  0  0  0
  139.2930   67.0480  226.4510 O   0  0  0  0  0  0  0  0  0  0  0  0
  138.8270   67.2990  224.1260 N   0  0  0  0  0  0  0  0  0  0  0  0
  140.4840   69.4180  227.7830 C   0  0  0  0  0  0  0  0  0  0  0  0
  141.3960   70.3540  228.5980 C   0  0  0  0  0  0  0  0  0  0  0  0
  141.0680   71.8320  228.3370 C   0  0  0  0  0  0  0  0  0  0  0  0
  141.2990   72.1970  226.8630 C   0  0  0  0  0  0  0  0  0  0  0  0
  137.6363   66.5689  221.9512 H   0  0  0  0  0  0  0  0  0  0  0  0
  137.7560   68.1574  221.1212 H   0  0  0  0  0  0  0  0  0  0  0  0
  139.1593   67.0361  221.1212 H   0  0  0  0  0  0  0  0  0  0  0  0
  140.1510   66.6650  226.8300 H   0  0  0  0  0  0  0  0  0  0  0  0
  140.9156   68.4062  227.7896 H   0  0  0  0  0  0  0  0  0  0  0  0
  139.4860   69.4259  228.2456 H   0  0  0  0  0  0  0  0  0  0  0  0
  142.4428   70.1657  228.3173 H   0  0  0  0  0  0  0  0  0  0  0  0
  141.2326   70.1489  229.6663 H   0  0  0  0  0  0  0  0  0  0  0  0
  141.7136   72.4603  228.9683 H   0  0  0  0  0  0  0  0  0  0  0  0
  140.0083   72.0028  228.5776 H   0  0  0  0  0  0  0  0  0  0  0  0
  142.3804   72.2325  226.6646 H   0  0  0  0  0  0  0  0  0  0  0  0
  140.8433   73.1784  226.6652 H   0  0  0  0  0  0  0  0  0  0  0  0
  1  2  1  0
  2  3  2  0
  3  4  1  0
  4  5  1  0
  5  6  1  0
  6  7  2  0
  7  8  1  0
  8  9  1  0
  9 10  1  0
  9 11  2  0
  7 12  1  0
 12 13  1  0
 13 14  1  0
 14 15  1  0
 11  2  1  0
  8  4  2  0
 15  6  1  0
  1 16  1  0
  1 17  1  0
  1 18  1  0
 10 19  1  0
 12 20  1  0
 12 21  1  0
 13 22  1  0
 13 23  1  0
 14 24  1  0
 14 25  1  0
 15 26  1  0
 15 27  1  0
M  END
>  <UniqueID>  (40) 
26

>  <SMILES>  (40) 
Cc1nc(O)c2c3c(sc2n1)CCCC3

>  <Energy>  (40) 
59.42478855021825

>  <Genealogy>  (40) 
Cc1nc(O)c2c3c(sc2n1)CCCC3 (tautomer)
Cc1nc(O)c2c3c(sc2n1)CCCC3 (3D coordinates assigned)
Cc1nc(O)c2c3c(sc2n1)CCCC3 (nonaromatic ring conformer: 59.42478855021825 kcal/mol)

>  <smiles>  (40) 
Cc1nc2sc3c(c2c(=O)[nH]1)CCCC3

>  <score_type>  (40) 
oracle

>  <origin>  (40) 
autodockgpu

>  <m_score__min__energy>  (40) 
-6.0899999999999999

>  <m_primary>  (40) 
energy

>  <meeko>  (40) 
{"free_energy": -6.09, "intermolecular_energy": -6.38, "internal_energy": 0.07, "cluster_size": 12, "cluster_id": 1, "rank_in_cluster": 4}

>  <energy>  (40) 
-5.86

>  <cluster_rmsd>  (40) 
0.04

>  <rmsd>  (40) 
271.98

>  <cluster>  (40) 
2

$$$$
ULEHMWWQIZHLHN-JPZOJEBQNA-M
     RDKit          3D

 26 28  0  0  0  0  0  0  0  0999 V2000
  138.2470   66.8130  222.0220 C   0  0  0  0  0  0  0  0  0  0  0  0
  138.8310   67.7800  222.9960 C   0  0  0  0  0  0  0  0  0  0  0  0
  139.0800   67.3870  224.2780 N   0  0  0  0  0  0  0  0  0  0  0  0
  139.5780   68.2900  225.1550 C   0  0  0  0  0  0  0  0  0  0  0  0
  139.9400   68.0200  226.7710 S   0  0  0  0  0  0  0  0  0  0  0  0
  140.4320   69.6130  227.0510 C   0  0  0  0  0  0  0  0  0  0  0  0
  140.3520   70.3600  225.8710 C   0  0  0  0  0  0  0  0  0  0  0  0
  139.8380   69.6020  224.8010 C   0  0  0  0  0  0  0  0  0  0  0  0
  139.5530   69.9980  223.4890 C   0  0  0  0  0  0  0  0  0  0  0  0
  139.7420   71.1810  223.1020 O   0  0  0  0  0  0  0  0  0  0  0  0
  139.0540   69.0750  222.6190 N   0  0  0  0  0  0  0  0  0  0  0  0
  140.6940   71.8280  225.8350 C   0  0  0  0  0  0  0  0  0  0  0  0
  141.5250   72.2530  227.0590 C   0  0  0  0  0  0  0  0  0  0  0  0
  140.9500   71.6730  228.3620 C   0  0  0  0  0  0  0  0  0  0  0  0
  140.9800   70.1380  228.3430 C   0  0  0  0  0  0  0  0  0  0  0  0
  137.7533   65.9956  222.5680 H   0  0  0  0  0  0  0  0  0  0  0  0
  137.5097   67.3295  221.3898 H   0  0  0  0  0  0  0  0  0  0  0  0
  139.0473   66.4008  221.3898 H   0  0  0  0  0  0  0  0  0  0  0  0
  141.2722   72.0364  224.9227 H   0  0  0  0  0  0  0  0  0  0  0  0
  139.7533   72.3980  225.8466 H   0  0  0  0  0  0  0  0  0  0  0  0
  142.5567   71.8930  226.9326 H   0  0  0  0  0  0  0  0  0  0  0  0
  141.4980   73.3504  227.1293 H   0  0  0  0  0  0  0  0  0  0  0  0
  141.5490   72.0338  229.2112 H   0  0  0  0  0  0  0  0  0  0  0  0
  139.9047   72.0013  228.4598 H   0  0  0  0  0  0  0  0  0  0  0  0
  142.0188   69.7958  228.4601 H   0  0  0  0  0  0  0  0  0  0  0  0
  140.3586   69.7621  229.1692 H   0  0  0  0  0  0  0  0  0  0  0  0
  1  2  1  0
  2  3  2  0
  3  4  1  0
  4  5  1  0
  5  6  1  0
  6  7  2  0
  7  8  1  0
  8  9  1  0
  9 10  2  0
  9 11  1  0
  7 12  1  0
 12 13  1  0
 13 14  1  0
 14 15  1  0
 11  2  1  0
  8  4  2  0
 15  6  1  0
  1 16  1  0
  1 17  1  0
  1 18  1  0
 12 19  1  0
 12 20  1  0
 13 21  1  0
 13 22  1  0
 14 23  1  0
 14 24  1  0
 15 25  1  0
 15 26  1  0
M  CHG  1  11  -1
M  END
>  <UniqueID>  (41) 
27

>  <SMILES>  (41) 
Cc1nc2sc3c(c2c(=O)[n-]1)CCCC3

>  <Energy>  (41) 
59.480191132275145

>  <Genealogy>  (41) 
Cc1nc2sc3c(c2c(=O)[n-]1)CCCC3 (protonated)
Cc1nc2sc3c(c2c(=O)[n-]1)CCCC3 (3D coordinates assigned)
Cc1nc2sc3c(c2c(=O)[n-]1)CCCC3 (nonaromatic ring conformer: 59.480191132275145 kcal/mol)

>  <smiles>  (41) 
Cc1nc2sc3c(c2c(=O)[nH]1)CCCC3

>  <score_type>  (41) 
oracle

>  <origin>  (41) 
autodockgpu

>  <m_score__min__energy>  (41) 
-6.1600000000000001

>  <m_primary>  (41) 
energy

>  <meeko>  (41) 
{"free_energy": -6.16, "intermolecular_energy": -6.16, "internal_energy": 0.0, "cluster_size": 20, "cluster_id": 1, "rank_in_cluster": 13}

>  <energy>  (41) 
-6.16

>  <cluster_rmsd>  (41) 
0.0

>  <rmsd>  (41) 
272.15

>  <cluster>  (41) 
1

$$$$
ULEHMWWQIZHLHN-JPZOJEBQNA-M
     RDKit          3D

 26 28  0  0  0  0  0  0  0  0999 V2000
  138.2530   66.7940  222.0180 C   0  0  0  0  0  0  0  0  0  0  0  0
  138.8310   67.7660  222.9910 C   0  0  0  0  0  0  0  0  0  0  0  0
  139.0830   67.3770  224.2720 N   0  0  0  0  0  0  0  0  0  0  0  0
  139.5760   68.2850  225.1480 C   0  0  0  0  0  0  0  0  0  0  0  0
  139.9410   68.0190  226.7640 S   0  0  0  0  0  0  0  0  0  0  0  0
  140.4220   69.6160  227.0420 C   0  0  0  0  0  0  0  0  0  0  0  0
  140.3360   70.3610  225.8610 C   0  0  0  0  0  0  0  0  0  0  0  0
  139.8260   69.5980  224.7930 C   0  0  0  0  0  0  0  0  0  0  0  0
  139.5380   69.9900  223.4800 C   0  0  0  0  0  0  0  0  0  0  0  0
  139.7180   71.1740  223.0920 O   0  0  0  0  0  0  0  0  0  0  0  0
  139.0450   69.0620  222.6110 N   0  0  0  0  0  0  0  0  0  0  0  0
  140.6670   71.8320  225.8230 C   0  0  0  0  0  0  0  0  0  0  0  0
  141.4960   72.2640  227.0460 C   0  0  0  0  0  0  0  0  0  0  0  0
  140.9260   71.6810  228.3500 C   0  0  0  0  0  0  0  0  0  0  0  0
  140.9670   70.1460  228.3330 C   0  0  0  0  0  0  0  0  0  0  0  0
  137.7652   65.9737  222.5650 H   0  0  0  0  0  0  0  0  0  0  0  0
  137.5118   67.3048  221.3858 H   0  0  0  0  0  0  0  0  0  0  0  0
  139.0558   66.3867  221.3858 H   0  0  0  0  0  0  0  0  0  0  0  0
  141.2428   72.0438  224.9100 H   0  0  0  0  0  0  0  0  0  0  0  0
  139.7222   72.3951  225.8346 H   0  0  0  0  0  0  0  0  0  0  0  0
  142.5301   71.9112  226.9191 H   0  0  0  0  0  0  0  0  0  0  0  0
  141.4614   73.3613  227.1153 H   0  0  0  0  0  0  0  0  0  0  0  0
  141.5229   72.0471  229.1984 H   0  0  0  0  0  0  0  0  0  0  0  0
  139.8783   72.0017  228.4478 H   0  0  0  0  0  0  0  0  0  0  0  0
  142.0083   69.8113  228.4499 H   0  0  0  0  0  0  0  0  0  0  0  0
  140.3490   69.7665  229.1601 H   0  0  0  0  0  0  0  0  0  0  0  0
  1  2  1  0
  2  3  2  0
  3  4  1  0
  4  5  1  0
  5  6  1  0
  6  7  2  0
  7  8  1  0
  8  9  1  0
  9 10  2  0
  9 11  1  0
  7 12  1  0
 12 13  1  0
 13 14  1  0
 14 15  1  0
 11  2  1  0
  8  4  2  0
 15  6  1  0
  1 16  1  0
  1 17  1  0
  1 18  1  0
 12 19  1  0
 12 20  1  0
 13 21  1  0
 13 22  1  0
 14 23  1  0
 14 24  1  0
 15 25  1  0
 15 26  1  0
M  CHG  1  11  -1
M  END
>  <UniqueID>  (42) 
27

>  <SMILES>  (42) 
Cc1nc2sc3c(c2c(=O)[n-]1)CCCC3

>  <Energy>  (42) 
59.480191132275145

>  <Genealogy>  (42) 
Cc1nc2sc3c(c2c(=O)[n-]1)CCCC3 (protonated)
Cc1nc2sc3c(c2c(=O)[n-]1)CCCC3 (3D coordinates assigned)
Cc1nc2sc3c(c2c(=O)[n-]1)CCCC3 (nonaromatic ring conformer: 59.480191132275145 kcal/mol)

>  <smiles>  (42) 
Cc1nc2sc3c(c2c(=O)[nH]1)CCCC3

>  <score_type>  (42) 
oracle

>  <origin>  (42) 
autodockgpu

>  <m_score__min__energy>  (42) 
-6.1600000000000001

>  <m_primary>  (42) 
energy

>  <meeko>  (42) 
{"free_energy": -6.16, "intermolecular_energy": -6.16, "internal_energy": 0.0, "cluster_size": 20, "cluster_id": 1, "rank_in_cluster": 8}

>  <energy>  (42) 
-6.16

>  <cluster_rmsd>  (42) 
0.01

>  <rmsd>  (42) 
272.16

>  <cluster>  (42) 
1

$$$$
ULEHMWWQIZHLHN-JPZOJEBQNA-M
     RDKit          3D

 26 28  0  0  0  0  0  0  0  0999 V2000
  138.2330   66.8140  222.0230 C   0  0  0  0  0  0  0  0  0  0  0  0
  138.8180   67.7830  222.9940 C   0  0  0  0  0  0  0  0  0  0  0  0
  139.0830   67.3880  224.2720 N   0  0  0  0  0  0  0  0  0  0  0  0
  139.5830   68.2920  225.1470 C   0  0  0  0  0  0  0  0  0  0  0  0
  139.9630   68.0200  226.7590 S   0  0  0  0  0  0  0  0  0  0  0  0
  140.4440   69.6160  227.0400 C   0  0  0  0  0  0  0  0  0  0  0  0
  140.3460   70.3660  225.8630 C   0  0  0  0  0  0  0  0  0  0  0  0
  139.8270   69.6080  224.7960 C   0  0  0  0  0  0  0  0  0  0  0  0
  139.5260   70.0050  223.4880 C   0  0  0  0  0  0  0  0  0  0  0  0
  139.7010   71.1910  223.1030 O   0  0  0  0  0  0  0  0  0  0  0  0
  139.0270   69.0810  222.6190 N   0  0  0  0  0  0  0  0  0  0  0  0
  140.6740   71.8380  225.8300 C   0  0  0  0  0  0  0  0  0  0  0  0
  141.5130   72.2650  227.0460 C   0  0  0  0  0  0  0  0  0  0  0  0
  140.9560   71.6760  228.3530 C   0  0  0  0  0  0  0  0  0  0  0  0
  140.9990   70.1410  228.3280 C   0  0  0  0  0  0  0  0  0  0  0  0
  137.7402   65.9977  222.5714 H   0  0  0  0  0  0  0  0  0  0  0  0
  137.4948   67.3290  221.3907 H   0  0  0  0  0  0  0  0  0  0  0  0
  139.0326   66.4006  221.3907 H   0  0  0  0  0  0  0  0  0  0  0  0
  141.2406   72.0558  224.9126 H   0  0  0  0  0  0  0  0  0  0  0  0
  139.7281   72.3991  225.8540 H   0  0  0  0  0  0  0  0  0  0  0  0
  142.5462   71.9137  226.9079 H   0  0  0  0  0  0  0  0  0  0  0  0
  141.4777   73.3619  227.1204 H   0  0  0  0  0  0  0  0  0  0  0  0
  141.5604   72.0390  229.1973 H   0  0  0  0  0  0  0  0  0  0  0  0
  139.9091   71.9952  228.4628 H   0  0  0  0  0  0  0  0  0  0  0  0
  142.0418   69.8074  228.4343 H   0  0  0  0  0  0  0  0  0  0  0  0
  140.3884   69.7569  229.1584 H   0  0  0  0  0  0  0  0  0  0  0  0
  1  2  1  0
  2  3  2  0
  3  4  1  0
  4  5  1  0
  5  6  1  0
  6  7  2  0
  7  8  1  0
  8  9  1  0
  9 10  2  0
  9 11  1  0
  7 12  1  0
 12 13  1  0
 13 14  1  0
 14 15  1  0
 11  2  1  0
  8  4  2  0
 15  6  1  0
  1 16  1  0
  1 17  1  0
  1 18  1  0
 12 19  1  0
 12 20  1  0
 13 21  1  0
 13 22  1  0
 14 23  1  0
 14 24  1  0
 15 25  1  0
 15 26  1  0
M  CHG  1  11  -1
M  END
>  <UniqueID>  (43) 
27

>  <SMILES>  (43) 
Cc1nc2sc3c(c2c(=O)[n-]1)CCCC3

>  <Energy>  (43) 
59.480191132275145

>  <Genealogy>  (43) 
Cc1nc2sc3c(c2c(=O)[n-]1)CCCC3 (protonated)
Cc1nc2sc3c(c2c(=O)[n-]1)CCCC3 (3D coordinates assigned)
Cc1nc2sc3c(c2c(=O)[n-]1)CCCC3 (nonaromatic ring conformer: 59.480191132275145 kcal/mol)

>  <smiles>  (43) 
Cc1nc2sc3c(c2c(=O)[nH]1)CCCC3

>  <score_type>  (43) 
oracle

>  <origin>  (43) 
autodockgpu

>  <m_score__min__energy>  (43) 
-6.1600000000000001

>  <m_primary>  (43) 
energy

>  <meeko>  (43) 
{"free_energy": -6.16, "intermolecular_energy": -6.16, "internal_energy": 0.0, "cluster_size": 20, "cluster_id": 1, "rank_in_cluster": 9}

>  <energy>  (43) 
-6.16

>  <cluster_rmsd>  (43) 
0.04

>  <rmsd>  (43) 
272.15

>  <cluster>  (43) 
1

$$$$
ULEHMWWQIZHLHN-JPZOJEBQNA-M
     RDKit          3D

 26 28  0  0  0  0  0  0  0  0999 V2000
  138.2270   66.7960  222.0330 C   0  0  0  0  0  0  0  0  0  0  0  0
  138.8110   67.7690  223.0010 C   0  0  0  0  0  0  0  0  0  0  0  0
  139.0720   67.3810  224.2810 N   0  0  0  0  0  0  0  0  0  0  0  0
  139.5710   68.2890  225.1530 C   0  0  0  0  0  0  0  0  0  0  0  0
  139.9470   68.0240  226.7670 S   0  0  0  0  0  0  0  0  0  0  0  0
  140.4300   69.6220  227.0400 C   0  0  0  0  0  0  0  0  0  0  0  0
  140.3350   70.3650  225.8600 C   0  0  0  0  0  0  0  0  0  0  0  0
  139.8180   69.6020  224.7950 C   0  0  0  0  0  0  0  0  0  0  0  0
  139.5210   69.9930  223.4850 C   0  0  0  0  0  0  0  0  0  0  0  0
  139.6980   71.1770  223.0940 O   0  0  0  0  0  0  0  0  0  0  0  0
  139.0220   69.0650  222.6200 N   0  0  0  0  0  0  0  0  0  0  0  0
  140.6650   71.8360  225.8190 C   0  0  0  0  0  0  0  0  0  0  0  0
  141.5030   72.2690  227.0350 C   0  0  0  0  0  0  0  0  0  0  0  0
  140.9420   71.6870  228.3440 C   0  0  0  0  0  0  0  0  0  0  0  0
  140.9840   70.1520  228.3270 C   0  0  0  0  0  0  0  0  0  0  0  0
  137.7371   65.9797  222.5841 H   0  0  0  0  0  0  0  0  0  0  0  0
  137.4865   67.3076  221.4005 H   0  0  0  0  0  0  0  0  0  0  0  0
  139.0267   66.3831  221.4005 H   0  0  0  0  0  0  0  0  0  0  0  0
  141.2335   72.0477  224.9014 H   0  0  0  0  0  0  0  0  0  0  0  0
  139.7199   72.3986  225.8379 H   0  0  0  0  0  0  0  0  0  0  0  0
  142.5361   71.9158  226.9009 H   0  0  0  0  0  0  0  0  0  0  0  0
  141.4694   73.3663  227.1035 H   0  0  0  0  0  0  0  0  0  0  0  0
  141.5445   72.0539  229.1880 H   0  0  0  0  0  0  0  0  0  0  0  0
  139.8950   72.0075  228.4494 H   0  0  0  0  0  0  0  0  0  0  0  0
  142.0263   69.8179  228.4363 H   0  0  0  0  0  0  0  0  0  0  0  0
  140.3725   69.7720  229.1587 H   0  0  0  0  0  0  0  0  0  0  0  0
  1  2  1  0
  2  3  2  0
  3  4  1  0
  4  5  1  0
  5  6  1  0
  6  7  2  0
  7  8  1  0
  8  9  1  0
  9 10  2  0
  9 11  1  0
  7 12  1  0
 12 13  1  0
 13 14  1  0
 14 15  1  0
 11  2  1  0
  8  4  2  0
 15  6  1  0
  1 16  1  0
  1 17  1  0
  1 18  1  0
 12 19  1  0
 12 20  1  0
 13 21  1  0
 13 22  1  0
 14 23  1  0
 14 24  1  0
 15 25  1  0
 15 26  1  0
M  CHG  1  11  -1
M  END
>  <UniqueID>  (44) 
27

>  <SMILES>  (44) 
Cc1nc2sc3c(c2c(=O)[n-]1)CCCC3

>  <Energy>  (44) 
59.480191132275145

>  <Genealogy>  (44) 
Cc1nc2sc3c(c2c(=O)[n-]1)CCCC3 (protonated)
Cc1nc2sc3c(c2c(=O)[n-]1)CCCC3 (3D coordinates assigned)
Cc1nc2sc3c(c2c(=O)[n-]1)CCCC3 (nonaromatic ring conformer: 59.480191132275145 kcal/mol)

>  <smiles>  (44) 
Cc1nc2sc3c(c2c(=O)[nH]1)CCCC3

>  <score_type>  (44) 
oracle

>  <origin>  (44) 
autodockgpu

>  <m_score__min__energy>  (44) 
-6.1600000000000001

>  <m_primary>  (44) 
energy

>  <meeko>  (44) 
{"free_energy": -6.16, "intermolecular_energy": -6.16, "internal_energy": 0.0, "cluster_size": 20, "cluster_id": 1, "rank_in_cluster": 16}

>  <energy>  (44) 
-6.16

>  <cluster_rmsd>  (44) 
0.04

>  <rmsd>  (44) 
272.14

>  <cluster>  (44) 
1

$$$$
ULEHMWWQIZHLHN-JPZOJEBQNA-M
     RDKit          3D

 26 28  0  0  0  0  0  0  0  0999 V2000
  138.2580   66.8050  222.0150 C   0  0  0  0  0  0  0  0  0  0  0  0
  138.8370   67.7750  222.9890 C   0  0  0  0  0  0  0  0  0  0  0  0
  139.0720   67.3890  224.2750 N   0  0  0  0  0  0  0  0  0  0  0  0
  139.5670   68.2950  225.1510 C   0  0  0  0  0  0  0  0  0  0  0  0
  139.9120   68.0330  226.7720 S   0  0  0  0  0  0  0  0  0  0  0  0
  140.4090   69.6260  227.0480 C   0  0  0  0  0  0  0  0  0  0  0  0
  140.3430   70.3650  225.8630 C   0  0  0  0  0  0  0  0  0  0  0  0
  139.8350   69.6040  224.7930 C   0  0  0  0  0  0  0  0  0  0  0  0
  139.5650   69.9930  223.4760 C   0  0  0  0  0  0  0  0  0  0  0  0
  139.7620   71.1730  223.0840 O   0  0  0  0  0  0  0  0  0  0  0  0
  139.0700   69.0670  222.6060 N   0  0  0  0  0  0  0  0  0  0  0  0
  140.6910   71.8320  225.8220 C   0  0  0  0  0  0  0  0  0  0  0  0
  141.5130   72.2600  227.0510 C   0  0  0  0  0  0  0  0  0  0  0  0
  140.9230   71.6900  228.3520 C   0  0  0  0  0  0  0  0  0  0  0  0
  140.9460   70.1550  228.3420 C   0  0  0  0  0  0  0  0  0  0  0  0
  137.7686   65.9851  222.5610 H   0  0  0  0  0  0  0  0  0  0  0  0
  137.5180   67.3176  221.3828 H   0  0  0  0  0  0  0  0  0  0  0  0
  139.0604   66.3970  221.3828 H   0  0  0  0  0  0  0  0  0  0  0  0
  141.2778   72.0333  224.9137 H   0  0  0  0  0  0  0  0  0  0  0  0
  139.7525   72.4058  225.8222 H   0  0  0  0  0  0  0  0  0  0  0  0
  142.5440   71.8943  226.9361 H   0  0  0  0  0  0  0  0  0  0  0  0
  141.4910   73.3579  227.1148 H   0  0  0  0  0  0  0  0  0  0  0  0
  141.5157   72.0528  229.2047 H   0  0  0  0  0  0  0  0  0  0  0  0
  139.8784   72.0237  228.4381 H   0  0  0  0  0  0  0  0  0  0  0  0
  141.9819   69.8085  228.4716 H   0  0  0  0  0  0  0  0  0  0  0  0
  140.3147   69.7865  229.1639 H   0  0  0  0  0  0  0  0  0  0  0  0
  1  2  1  0
  2  3  2  0
  3  4  1  0
  4  5  1  0
  5  6  1  0
  6  7  2  0
  7  8  1  0
  8  9  1  0
  9 10  2  0
  9 11  1  0
  7 12  1  0
 12 13  1  0
 13 14  1  0
 14 15  1  0
 11  2  1  0
  8  4  2  0
 15  6  1  0
  1 16  1  0
  1 17  1  0
  1 18  1  0
 12 19  1  0
 12 20  1  0
 13 21  1  0
 13 22  1  0
 14 23  1  0
 14 24  1  0
 15 25  1  0
 15 26  1  0
M  CHG  1  11  -1
M  END
>  <UniqueID>  (45) 
27

>  <SMILES>  (45) 
Cc1nc2sc3c(c2c(=O)[n-]1)CCCC3

>  <Energy>  (45) 
59.480191132275145

>  <Genealogy>  (45) 
Cc1nc2sc3c(c2c(=O)[n-]1)CCCC3 (protonated)
Cc1nc2sc3c(c2c(=O)[n-]1)CCCC3 (3D coordinates assigned)
Cc1nc2sc3c(c2c(=O)[n-]1)CCCC3 (nonaromatic ring conformer: 59.480191132275145 kcal/mol)

>  <smiles>  (45) 
Cc1nc2sc3c(c2c(=O)[nH]1)CCCC3

>  <score_type>  (45) 
oracle

>  <origin>  (45) 
autodockgpu

>  <m_score__min__energy>  (45) 
-6.1600000000000001

>  <m_primary>  (45) 
energy

>  <meeko>  (45) 
{"free_energy": -6.16, "intermolecular_energy": -6.16, "internal_energy": 0.0, "cluster_size": 20, "cluster_id": 1, "rank_in_cluster": 3}

>  <energy>  (45) 
-6.16

>  <cluster_rmsd>  (45) 
0.01

>  <rmsd>  (45) 
272.16

>  <cluster>  (45) 
1

$$$$
ULEHMWWQIZHLHN-JPZOJEBQNA-M
     RDKit          3D

 26 28  0  0  0  0  0  0  0  0999 V2000
  138.2340   66.8070  222.0400 C   0  0  0  0  0  0  0  0  0  0  0  0
  138.8200   67.7780  223.0090 C   0  0  0  0  0  0  0  0  0  0  0  0
  139.0820   67.3870  224.2880 N   0  0  0  0  0  0  0  0  0  0  0  0
  139.5820   68.2920  225.1610 C   0  0  0  0  0  0  0  0  0  0  0  0
  139.9590   68.0240  226.7740 S   0  0  0  0  0  0  0  0  0  0  0  0
  140.4440   69.6200  227.0510 C   0  0  0  0  0  0  0  0  0  0  0  0
  140.3500   70.3660  225.8720 C   0  0  0  0  0  0  0  0  0  0  0  0
  139.8310   69.6060  224.8060 C   0  0  0  0  0  0  0  0  0  0  0  0
  139.5340   70.0000  223.4960 C   0  0  0  0  0  0  0  0  0  0  0  0
  139.7120   71.1840  223.1080 O   0  0  0  0  0  0  0  0  0  0  0  0
  139.0330   69.0740  222.6300 N   0  0  0  0  0  0  0  0  0  0  0  0
  140.6820   71.8370  225.8330 C   0  0  0  0  0  0  0  0  0  0  0  0
  141.5210   72.2660  227.0500 C   0  0  0  0  0  0  0  0  0  0  0  0
  140.9600   71.6830  228.3580 C   0  0  0  0  0  0  0  0  0  0  0  0
  140.9990   70.1480  228.3380 C   0  0  0  0  0  0  0  0  0  0  0  0
  137.7419   65.9915  222.5903 H   0  0  0  0  0  0  0  0  0  0  0  0
  137.4950   67.3208  221.4076 H   0  0  0  0  0  0  0  0  0  0  0  0
  139.0330   66.3926  221.4076 H   0  0  0  0  0  0  0  0  0  0  0  0
  141.2507   72.0495  224.9157 H   0  0  0  0  0  0  0  0  0  0  0  0
  139.7379   72.4012  225.8524 H   0  0  0  0  0  0  0  0  0  0  0  0
  142.5534   71.9112  226.9149 H   0  0  0  0  0  0  0  0  0  0  0  0
  141.4889   73.3633  227.1206 H   0  0  0  0  0  0  0  0  0  0  0  0
  141.5639   72.0471  229.2022 H   0  0  0  0  0  0  0  0  0  0  0  0
  139.9138   72.0055  228.4650 H   0  0  0  0  0  0  0  0  0  0  0  0
  142.0408   69.8120  228.4466 H   0  0  0  0  0  0  0  0  0  0  0  0
  140.3864   69.7683  229.1690 H   0  0  0  0  0  0  0  0  0  0  0  0
  1  2  1  0
  2  3  2  0
  3  4  1  0
  4  5  1  0
  5  6  1  0
  6  7  2  0
  7  8  1  0
  8  9  1  0
  9 10  2  0
  9 11  1  0
  7 12  1  0
 12 13  1  0
 13 14  1  0
 14 15  1  0
 11  2  1  0
  8  4  2  0
 15  6  1  0
  1 16  1  0
  1 17  1  0
  1 18  1  0
 12 19  1  0
 12 20  1  0
 13 21  1  0
 13 22  1  0
 14 23  1  0
 14 24  1  0
 15 25  1  0
 15 26  1  0
M  CHG  1  11  -1
M  END
>  <UniqueID>  (46) 
27

>  <SMILES>  (46) 
Cc1nc2sc3c(c2c(=O)[n-]1)CCCC3

>  <Energy>  (46) 
59.480191132275145

>  <Genealogy>  (46) 
Cc1nc2sc3c(c2c(=O)[n-]1)CCCC3 (protonated)
Cc1nc2sc3c(c2c(=O)[n-]1)CCCC3 (3D coordinates assigned)
Cc1nc2sc3c(c2c(=O)[n-]1)CCCC3 (nonaromatic ring conformer: 59.480191132275145 kcal/mol)

>  <smiles>  (46) 
Cc1nc2sc3c(c2c(=O)[nH]1)CCCC3

>  <score_type>  (46) 
oracle

>  <origin>  (46) 
autodockgpu

>  <m_score__min__energy>  (46) 
-6.1600000000000001

>  <m_primary>  (46) 
energy

>  <meeko>  (46) 
{"free_energy": -6.16, "intermolecular_energy": -6.16, "internal_energy": 0.0, "cluster_size": 20, "cluster_id": 1, "rank_in_cluster": 2}

>  <energy>  (46) 
-6.16

>  <cluster_rmsd>  (46) 
0.02

>  <rmsd>  (46) 
272.15

>  <cluster>  (46) 
1

$$$$
ULEHMWWQIZHLHN-JPZOJEBQNA-M
     RDKit          3D

 26 28  0  0  0  0  0  0  0  0999 V2000
  138.2480   66.8100  222.0010 C   0  0  0  0  0  0  0  0  0  0  0  0
  138.8230   67.7810  222.9770 C   0  0  0  0  0  0  0  0  0  0  0  0
  139.0580   67.3930  224.2630 N   0  0  0  0  0  0  0  0  0  0  0  0
  139.5490   68.3000  225.1410 C   0  0  0  0  0  0  0  0  0  0  0  0
  139.8950   68.0360  226.7610 S   0  0  0  0  0  0  0  0  0  0  0  0
  140.3850   69.6300  227.0400 C   0  0  0  0  0  0  0  0  0  0  0  0
  140.3180   70.3720  225.8560 C   0  0  0  0  0  0  0  0  0  0  0  0
  139.8130   69.6100  224.7840 C   0  0  0  0  0  0  0  0  0  0  0  0
  139.5420   70.0000  223.4680 C   0  0  0  0  0  0  0  0  0  0  0  0
  139.7350   71.1820  223.0780 O   0  0  0  0  0  0  0  0  0  0  0  0
  139.0510   69.0740  222.5960 N   0  0  0  0  0  0  0  0  0  0  0  0
  140.6600   71.8400  225.8170 C   0  0  0  0  0  0  0  0  0  0  0  0
  141.4800   72.2690  227.0470 C   0  0  0  0  0  0  0  0  0  0  0  0
  140.8920   71.6950  228.3470 C   0  0  0  0  0  0  0  0  0  0  0  0
  140.9210   70.1600  228.3350 C   0  0  0  0  0  0  0  0  0  0  0  0
  137.7610   65.9876  222.5456 H   0  0  0  0  0  0  0  0  0  0  0  0
  137.5067   67.3209  221.3689 H   0  0  0  0  0  0  0  0  0  0  0  0
  139.0523   66.4056  221.3689 H   0  0  0  0  0  0  0  0  0  0  0  0
  141.2463   72.0450  224.9091 H   0  0  0  0  0  0  0  0  0  0  0  0
  139.7194   72.4102  225.8174 H   0  0  0  0  0  0  0  0  0  0  0  0
  142.5124   71.9072  226.9318 H   0  0  0  0  0  0  0  0  0  0  0  0
  141.4537   73.3667  227.1125 H   0  0  0  0  0  0  0  0  0  0  0  0
  141.4831   72.0590  229.2003 H   0  0  0  0  0  0  0  0  0  0  0  0
  139.8460   72.0245  228.4332 H   0  0  0  0  0  0  0  0  0  0  0  0
  141.9584   69.8175  228.4636 H   0  0  0  0  0  0  0  0  0  0  0  0
  140.2915   69.7881  229.1568 H   0  0  0  0  0  0  0  0  0  0  0  0
  1  2  1  0
  2  3  2  0
  3  4  1  0
  4  5  1  0
  5  6  1  0
  6  7  2  0
  7  8  1  0
  8  9  1  0
  9 10  2  0
  9 11  1  0
  7 12  1  0
 12 13  1  0
 13 14  1  0
 14 15  1  0
 11  2  1  0
  8  4  2  0
 15  6  1  0
  1 16  1  0
  1 17  1  0
  1 18  1  0
 12 19  1  0
 12 20  1  0
 13 21  1  0
 13 22  1  0
 14 23  1  0
 14 24  1  0
 15 25  1  0
 15 26  1  0
M  CHG  1  11  -1
M  END
>  <UniqueID>  (47) 
27

>  <SMILES>  (47) 
Cc1nc2sc3c(c2c(=O)[n-]1)CCCC3

>  <Energy>  (47) 
59.480191132275145

>  <Genealogy>  (47) 
Cc1nc2sc3c(c2c(=O)[n-]1)CCCC3 (protonated)
Cc1nc2sc3c(c2c(=O)[n-]1)CCCC3 (3D coordinates assigned)
Cc1nc2sc3c(c2c(=O)[n-]1)CCCC3 (nonaromatic ring conformer: 59.480191132275145 kcal/mol)

>  <smiles>  (47) 
Cc1nc2sc3c(c2c(=O)[nH]1)CCCC3

>  <score_type>  (47) 
oracle

>  <origin>  (47) 
autodockgpu

>  <m_score__min__energy>  (47) 
-6.1600000000000001

>  <m_primary>  (47) 
energy

>  <meeko>  (47) 
{"free_energy": -6.16, "intermolecular_energy": -6.16, "internal_energy": 0.0, "cluster_size": 20, "cluster_id": 1, "rank_in_cluster": 14}

>  <energy>  (47) 
-6.16

>  <cluster_rmsd>  (47) 
0.03

>  <rmsd>  (47) 
272.14

>  <cluster>  (47) 
1

$$$$
ULEHMWWQIZHLHN-JPZOJEBQNA-M
     RDKit          3D

 26 28  0  0  0  0  0  0  0  0999 V2000
  138.2440   66.7990  222.0180 C   0  0  0  0  0  0  0  0  0  0  0  0
  138.8260   67.7710  222.9890 C   0  0  0  0  0  0  0  0  0  0  0  0
  139.0620   67.3870  224.2750 N   0  0  0  0  0  0  0  0  0  0  0  0
  139.5600   68.2940  225.1490 C   0  0  0  0  0  0  0  0  0  0  0  0
  139.9070   68.0350  226.7700 S   0  0  0  0  0  0  0  0  0  0  0  0
  140.4070   69.6280  227.0410 C   0  0  0  0  0  0  0  0  0  0  0  0
  140.3400   70.3650  225.8540 C   0  0  0  0  0  0  0  0  0  0  0  0
  139.8290   69.6020  224.7870 C   0  0  0  0  0  0  0  0  0  0  0  0
  139.5580   69.9890  223.4690 C   0  0  0  0  0  0  0  0  0  0  0  0
  139.7560   71.1670  223.0740 O   0  0  0  0  0  0  0  0  0  0  0  0
  139.0600   69.0610  222.6020 N   0  0  0  0  0  0  0  0  0  0  0  0
  140.6900   71.8310  225.8090 C   0  0  0  0  0  0  0  0  0  0  0  0
  141.5150   72.2610  227.0360 C   0  0  0  0  0  0  0  0  0  0  0  0
  140.9270   71.6950  228.3390 C   0  0  0  0  0  0  0  0  0  0  0  0
  140.9480   70.1600  228.3330 C   0  0  0  0  0  0  0  0  0  0  0  0
  137.7543   65.9811  222.5668 H   0  0  0  0  0  0  0  0  0  0  0  0
  137.5038   67.3111  221.3857 H   0  0  0  0  0  0  0  0  0  0  0  0
  139.0449   66.3883  221.3857 H   0  0  0  0  0  0  0  0  0  0  0  0
  141.2756   72.0293  224.8992 H   0  0  0  0  0  0  0  0  0  0  0  0
  139.7523   72.4061  225.8095 H   0  0  0  0  0  0  0  0  0  0  0  0
  142.5454   71.8938  226.9201 H   0  0  0  0  0  0  0  0  0  0  0  0
  141.4943   73.3591  227.0973 H   0  0  0  0  0  0  0  0  0  0  0  0
  141.5217   72.0592  229.1897 H   0  0  0  0  0  0  0  0  0  0  0  0
  139.8829   72.0301  228.4260 H   0  0  0  0  0  0  0  0  0  0  0  0
  141.9838   69.8125  228.4611 H   0  0  0  0  0  0  0  0  0  0  0  0
  140.3181   69.7945  229.1574 H   0  0  0  0  0  0  0  0  0  0  0  0
  1  2  1  0
  2  3  2  0
  3  4  1  0
  4  5  1  0
  5  6  1  0
  6  7  2  0
  7  8  1  0
  8  9  1  0
  9 10  2  0
  9 11  1  0
  7 12  1  0
 12 13  1  0
 13 14  1  0
 14 15  1  0
 11  2  1  0
  8  4  2  0
 15  6  1  0
  1 16  1  0
  1 17  1  0
  1 18  1  0
 12 19  1  0
 12 20  1  0
 13 21  1  0
 13 22  1  0
 14 23  1  0
 14 24  1  0
 15 25  1  0
 15 26  1  0
M  CHG  1  11  -1
M  END
>  <UniqueID>  (48) 
27

>  <SMILES>  (48) 
Cc1nc2sc3c(c2c(=O)[n-]1)CCCC3

>  <Energy>  (48) 
59.480191132275145

>  <Genealogy>  (48) 
Cc1nc2sc3c(c2c(=O)[n-]1)CCCC3 (protonated)
Cc1nc2sc3c(c2c(=O)[n-]1)CCCC3 (3D coordinates assigned)
Cc1nc2sc3c(c2c(=O)[n-]1)CCCC3 (nonaromatic ring conformer: 59.480191132275145 kcal/mol)

>  <smiles>  (48) 
Cc1nc2sc3c(c2c(=O)[nH]1)CCCC3

>  <score_type>  (48) 
oracle

>  <origin>  (48) 
autodockgpu

>  <m_score__min__energy>  (48) 
-6.1600000000000001

>  <m_primary>  (48) 
energy

>  <meeko>  (48) 
{"free_energy": -6.16, "intermolecular_energy": -6.16, "internal_energy": 0.0, "cluster_size": 20, "cluster_id": 1, "rank_in_cluster": 4}

>  <energy>  (48) 
-6.16

>  <cluster_rmsd>  (48) 
0.02

>  <rmsd>  (48) 
272.15

>  <cluster>  (48) 
1

$$$$
ULEHMWWQIZHLHN-JPZOJEBQNA-M
     RDKit          3D

 26 28  0  0  0  0  0  0  0  0999 V2000
  138.2670   66.8010  221.9940 C   0  0  0  0  0  0  0  0  0  0  0  0
  138.8390   67.7720  222.9720 C   0  0  0  0  0  0  0  0  0  0  0  0
  139.0650   67.3860  224.2600 N   0  0  0  0  0  0  0  0  0  0  0  0
  139.5530   68.2920  225.1390 C   0  0  0  0  0  0  0  0  0  0  0  0
  139.8870   68.0310  226.7630 S   0  0  0  0  0  0  0  0  0  0  0  0
  140.3810   69.6240  227.0420 C   0  0  0  0  0  0  0  0  0  0  0  0
  140.3240   70.3630  225.8560 C   0  0  0  0  0  0  0  0  0  0  0  0
  139.8230   69.6010  224.7820 C   0  0  0  0  0  0  0  0  0  0  0  0
  139.5620   69.9900  223.4630 C   0  0  0  0  0  0  0  0  0  0  0  0
  139.7620   71.1700  223.0730 O   0  0  0  0  0  0  0  0  0  0  0  0
  139.0740   69.0640  222.5900 N   0  0  0  0  0  0  0  0  0  0  0  0
  140.6710   71.8300  225.8170 C   0  0  0  0  0  0  0  0  0  0  0  0
  141.4840   72.2590  227.0520 C   0  0  0  0  0  0  0  0  0  0  0  0
  140.8860   71.6890  228.3480 C   0  0  0  0  0  0  0  0  0  0  0  0
  140.9100   70.1540  228.3390 C   0  0  0  0  0  0  0  0  0  0  0  0
  137.7814   65.9767  222.5370 H   0  0  0  0  0  0  0  0  0  0  0  0
  137.5251   67.3111  221.3620 H   0  0  0  0  0  0  0  0  0  0  0  0
  139.0728   66.3994  221.3620 H   0  0  0  0  0  0  0  0  0  0  0  0
  141.2642   72.0315  224.9128 H   0  0  0  0  0  0  0  0  0  0  0  0
  139.7321   72.4030  225.8102 H   0  0  0  0  0  0  0  0  0  0  0  0
  142.5162   71.8943  226.9444 H   0  0  0  0  0  0  0  0  0  0  0  0
  141.4603   73.3569  227.1155 H   0  0  0  0  0  0  0  0  0  0  0  0
  141.4726   72.0525  229.2046 H   0  0  0  0  0  0  0  0  0  0  0  0
  139.8405   72.0218  228.4264 H   0  0  0  0  0  0  0  0  0  0  0  0
  141.9454   69.8082  228.4750 H   0  0  0  0  0  0  0  0  0  0  0  0
  140.2740   69.7855  229.1574 H   0  0  0  0  0  0  0  0  0  0  0  0
  1  2  1  0
  2  3  2  0
  3  4  1  0
  4  5  1  0
  5  6  1  0
  6  7  2  0
  7  8  1  0
  8  9  1  0
  9 10  2  0
  9 11  1  0
  7 12  1  0
 12 13  1  0
 13 14  1  0
 14 15  1  0
 11  2  1  0
  8  4  2  0
 15  6  1  0
  1 16  1  0
  1 17  1  0
  1 18  1  0
 12 19  1  0
 12 20  1  0
 13 21  1  0
 13 22  1  0
 14 23  1  0
 14 24  1  0
 15 25  1  0
 15 26  1  0
M  CHG  1  11  -1
M  END
>  <UniqueID>  (49) 
27

>  <SMILES>  (49) 
Cc1nc2sc3c(c2c(=O)[n-]1)CCCC3

>  <Energy>  (49) 
59.480191132275145

>  <Genealogy>  (49) 
Cc1nc2sc3c(c2c(=O)[n-]1)CCCC3 (protonated)
Cc1nc2sc3c(c2c(=O)[n-]1)CCCC3 (3D coordinates assigned)
Cc1nc2sc3c(c2c(=O)[n-]1)CCCC3 (nonaromatic ring conformer: 59.480191132275145 kcal/mol)

>  <smiles>  (49) 
Cc1nc2sc3c(c2c(=O)[nH]1)CCCC3

>  <score_type>  (49) 
oracle

>  <origin>  (49) 
autodockgpu

>  <m_score__min__energy>  (49) 
-6.1600000000000001

>  <m_primary>  (49) 
energy

>  <meeko>  (49) 
{"free_energy": -6.15, "intermolecular_energy": -6.15, "internal_energy": 0.0, "cluster_size": 20, "cluster_id": 1, "rank_in_cluster": 17}

>  <energy>  (49) 
-6.16

>  <cluster_rmsd>  (49) 
0.01

>  <rmsd>  (49) 
272.15

>  <cluster>  (49) 
1

$$$$
ULEHMWWQIZHLHN-JPZOJEBQNA-M
     RDKit          3D

 26 28  0  0  0  0  0  0  0  0999 V2000
  138.2430   66.8120  222.0190 C   0  0  0  0  0  0  0  0  0  0  0  0
  138.8260   67.7800  222.9930 C   0  0  0  0  0  0  0  0  0  0  0  0
  139.0760   67.3870  224.2740 N   0  0  0  0  0  0  0  0  0  0  0  0
  139.5740   68.2900  225.1510 C   0  0  0  0  0  0  0  0  0  0  0  0
  139.9360   68.0200  226.7670 S   0  0  0  0  0  0  0  0  0  0  0  0
  140.4270   69.6140  227.0480 C   0  0  0  0  0  0  0  0  0  0  0  0
  140.3460   70.3600  225.8680 C   0  0  0  0  0  0  0  0  0  0  0  0
  139.8320   69.6030  224.7980 C   0  0  0  0  0  0  0  0  0  0  0  0
  139.5470   69.9980  223.4860 C   0  0  0  0  0  0  0  0  0  0  0  0
  139.7340   71.1810  223.0990 O   0  0  0  0  0  0  0  0  0  0  0  0
  139.0490   69.0740  222.6150 N   0  0  0  0  0  0  0  0  0  0  0  0
  140.6850   71.8290  225.8320 C   0  0  0  0  0  0  0  0  0  0  0  0
  141.5170   72.2550  227.0560 C   0  0  0  0  0  0  0  0  0  0  0  0
  140.9420   71.6740  228.3590 C   0  0  0  0  0  0  0  0  0  0  0  0
  140.9740   70.1390  228.3400 C   0  0  0  0  0  0  0  0  0  0  0  0
  137.7504   65.9941  222.5652 H   0  0  0  0  0  0  0  0  0  0  0  0
  137.5050   67.3275  221.3868 H   0  0  0  0  0  0  0  0  0  0  0  0
  139.0437   66.4007  221.3868 H   0  0  0  0  0  0  0  0  0  0  0  0
  141.2617   72.0389  224.9191 H   0  0  0  0  0  0  0  0  0  0  0  0
  139.7432   72.3973  225.8446 H   0  0  0  0  0  0  0  0  0  0  0  0
  142.5489   71.8956  226.9293 H   0  0  0  0  0  0  0  0  0  0  0  0
  141.4901   73.3524  227.1263 H   0  0  0  0  0  0  0  0  0  0  0  0
  141.5401   72.0355  229.2084 H   0  0  0  0  0  0  0  0  0  0  0  0
  139.8962   72.0009  228.4562 H   0  0  0  0  0  0  0  0  0  0  0  0
  142.0132   69.7980  228.4573 H   0  0  0  0  0  0  0  0  0  0  0  0
  140.3531   69.7621  229.1661 H   0  0  0  0  0  0  0  0  0  0  0  0
  1  2  1  0
  2  3  2  0
  3  4  1  0
  4  5  1  0
  5  6  1  0
  6  7  2  0
  7  8  1  0
  8  9  1  0
  9 10  2  0
  9 11  1  0
  7 12  1  0
 12 13  1  0
 13 14  1  0
 14 15  1  0
 11  2  1  0
  8  4  2  0
 15  6  1  0
  1 16  1  0
  1 17  1  0
  1 18  1  0
 12 19  1  0
 12 20  1  0
 13 21  1  0
 13 22  1  0
 14 23  1  0
 14 24  1  0
 15 25  1  0
 15 26  1  0
M  CHG  1  11  -1
M  END
>  <UniqueID>  (50) 
27

>  <SMILES>  (50) 
Cc1nc2sc3c(c2c(=O)[n-]1)CCCC3

>  <Energy>  (50) 
59.480191132275145

>  <Genealogy>  (50) 
Cc1nc2sc3c(c2c(=O)[n-]1)CCCC3 (protonated)
Cc1nc2sc3c(c2c(=O)[n-]1)CCCC3 (3D coordinates assigned)
Cc1nc2sc3c(c2c(=O)[n-]1)CCCC3 (nonaromatic ring conformer: 59.480191132275145 kcal/mol)

>  <smiles>  (50) 
Cc1nc2sc3c(c2c(=O)[nH]1)CCCC3

>  <score_type>  (50) 
oracle

>  <origin>  (50) 
autodockgpu

>  <m_score__min__energy>  (50) 
-6.1600000000000001

>  <m_primary>  (50) 
energy

>  <meeko>  (50) 
{"free_energy": -6.16, "intermolecular_energy": -6.16, "internal_energy": 0.0, "cluster_size": 20, "cluster_id": 1, "rank_in_cluster": 6}

>  <energy>  (50) 
-6.16

>  <cluster_rmsd>  (50) 
0.02

>  <rmsd>  (50) 
272.14

>  <cluster>  (50) 
1

$$$$
ULEHMWWQIZHLHN-JPZOJEBQNA-M
     RDKit          3D

 26 28  0  0  0  0  0  0  0  0999 V2000
  138.2440   66.8190  221.9940 C   0  0  0  0  0  0  0  0  0  0  0  0
  138.8240   67.7860  222.9710 C   0  0  0  0  0  0  0  0  0  0  0  0
  139.0790   67.3890  224.2500 N   0  0  0  0  0  0  0  0  0  0  0  0
  139.5740   68.2920  225.1300 C   0  0  0  0  0  0  0  0  0  0  0  0
  139.9420   68.0170  226.7430 S   0  0  0  0  0  0  0  0  0  0  0  0
  140.4250   69.6130  227.0290 C   0  0  0  0  0  0  0  0  0  0  0  0
  140.3360   70.3630  225.8530 C   0  0  0  0  0  0  0  0  0  0  0  0
  139.8240   69.6070  224.7810 C   0  0  0  0  0  0  0  0  0  0  0  0
  139.5330   70.0070  223.4720 C   0  0  0  0  0  0  0  0  0  0  0  0
  139.7130   71.1930  223.0890 O   0  0  0  0  0  0  0  0  0  0  0  0
  139.0380   69.0840  222.5990 N   0  0  0  0  0  0  0  0  0  0  0  0
  140.6680   71.8340  225.8230 C   0  0  0  0  0  0  0  0  0  0  0  0
  141.5000   72.2590  227.0460 C   0  0  0  0  0  0  0  0  0  0  0  0
  140.9320   71.6700  228.3480 C   0  0  0  0  0  0  0  0  0  0  0  0
  140.9730   70.1350  228.3220 C   0  0  0  0  0  0  0  0  0  0  0  0
  137.7522   65.9990  222.5377 H   0  0  0  0  0  0  0  0  0  0  0  0
  137.5059   67.3345  221.3620 H   0  0  0  0  0  0  0  0  0  0  0  0
  139.0463   66.4106  221.3620 H   0  0  0  0  0  0  0  0  0  0  0  0
  141.2417   72.0506  224.9098 H   0  0  0  0  0  0  0  0  0  0  0  0
  139.7234   72.3974  225.8405 H   0  0  0  0  0  0  0  0  0  0  0  0
  142.5335   71.9057  226.9152 H   0  0  0  0  0  0  0  0  0  0  0  0
  141.4669   73.3560  227.1209 H   0  0  0  0  0  0  0  0  0  0  0  0
  141.5304   72.0314  229.1973 H   0  0  0  0  0  0  0  0  0  0  0  0
  139.8848   71.9907  228.4500 H   0  0  0  0  0  0  0  0  0  0  0  0
  142.0145   69.7995  228.4345 H   0  0  0  0  0  0  0  0  0  0  0  0
  140.3571   69.7505  229.1483 H   0  0  0  0  0  0  0  0  0  0  0  0
  1  2  1  0
  2  3  2  0
  3  4  1  0
  4  5  1  0
  5  6  1  0
  6  7  2  0
  7  8  1  0
  8  9  1  0
  9 10  2  0
  9 11  1  0
  7 12  1  0
 12 13  1  0
 13 14  1  0
 14 15  1  0
 11  2  1  0
  8  4  2  0
 15  6  1  0
  1 16  1  0
  1 17  1  0
  1 18  1  0
 12 19  1  0
 12 20  1  0
 13 21  1  0
 13 22  1  0
 14 23  1  0
 14 24  1  0
 15 25  1  0
 15 26  1  0
M  CHG  1  11  -1
M  END
>  <UniqueID>  (51) 
27

>  <SMILES>  (51) 
Cc1nc2sc3c(c2c(=O)[n-]1)CCCC3

>  <Energy>  (51) 
59.480191132275145

>  <Genealogy>  (51) 
Cc1nc2sc3c(c2c(=O)[n-]1)CCCC3 (protonated)
Cc1nc2sc3c(c2c(=O)[n-]1)CCCC3 (3D coordinates assigned)
Cc1nc2sc3c(c2c(=O)[n-]1)CCCC3 (nonaromatic ring conformer: 59.480191132275145 kcal/mol)

>  <smiles>  (51) 
Cc1nc2sc3c(c2c(=O)[nH]1)CCCC3

>  <score_type>  (51) 
oracle

>  <origin>  (51) 
autodockgpu

>  <m_score__min__energy>  (51) 
-6.1600000000000001

>  <m_primary>  (51) 
energy

>  <meeko>  (51) 
{"free_energy": -6.16, "intermolecular_energy": -6.16, "internal_energy": 0.0, "cluster_size": 20, "cluster_id": 1, "rank_in_cluster": 7}

>  <energy>  (51) 
-6.16

>  <cluster_rmsd>  (51) 
0.05

>  <rmsd>  (51) 
272.14

>  <cluster>  (51) 
1

$$$$
ULEHMWWQIZHLHN-JPZOJEBQNA-M
     RDKit          3D

 26 28  0  0  0  0  0  0  0  0999 V2000
  138.2330   66.8070  222.0320 C   0  0  0  0  0  0  0  0  0  0  0  0
  138.8180   67.7780  223.0020 C   0  0  0  0  0  0  0  0  0  0  0  0
  139.0790   67.3870  224.2810 N   0  0  0  0  0  0  0  0  0  0  0  0
  139.5790   68.2930  225.1540 C   0  0  0  0  0  0  0  0  0  0  0  0
  139.9550   68.0250  226.7680 S   0  0  0  0  0  0  0  0  0  0  0  0
  140.4390   69.6220  227.0440 C   0  0  0  0  0  0  0  0  0  0  0  0
  140.3450   70.3680  225.8650 C   0  0  0  0  0  0  0  0  0  0  0  0
  139.8270   69.6070  224.7990 C   0  0  0  0  0  0  0  0  0  0  0  0
  139.5300   70.0010  223.4890 C   0  0  0  0  0  0  0  0  0  0  0  0
  139.7080   71.1850  223.1010 O   0  0  0  0  0  0  0  0  0  0  0  0
  139.0300   69.0740  222.6230 N   0  0  0  0  0  0  0  0  0  0  0  0
  140.6760   71.8380  225.8270 C   0  0  0  0  0  0  0  0  0  0  0  0
  141.5150   72.2680  227.0440 C   0  0  0  0  0  0  0  0  0  0  0  0
  140.9540   71.6850  228.3510 C   0  0  0  0  0  0  0  0  0  0  0  0
  140.9940   70.1500  228.3320 C   0  0  0  0  0  0  0  0  0  0  0  0
  137.7413   65.9908  222.5816 H   0  0  0  0  0  0  0  0  0  0  0  0
  137.4939   67.3206  221.3996 H   0  0  0  0  0  0  0  0  0  0  0  0
  139.0325   66.3937  221.3996 H   0  0  0  0  0  0  0  0  0  0  0  0
  141.2444   72.0511  224.9097 H   0  0  0  0  0  0  0  0  0  0  0  0
  139.7314   72.4013  225.8474 H   0  0  0  0  0  0  0  0  0  0  0  0
  142.5476   71.9137  226.9091 H   0  0  0  0  0  0  0  0  0  0  0  0
  141.4828   73.3653  227.1144 H   0  0  0  0  0  0  0  0  0  0  0  0
  141.5571   72.0499  229.1955 H   0  0  0  0  0  0  0  0  0  0  0  0
  139.9074   72.0065  228.4568 H   0  0  0  0  0  0  0  0  0  0  0  0
  142.0359   69.8145  228.4408 H   0  0  0  0  0  0  0  0  0  0  0  0
  140.3821   69.7698  229.1633 H   0  0  0  0  0  0  0  0  0  0  0  0
  1  2  1  0
  2  3  2  0
  3  4  1  0
  4  5  1  0
  5  6  1  0
  6  7  2  0
  7  8  1  0
  8  9  1  0
  9 10  2  0
  9 11  1  0
  7 12  1  0
 12 13  1  0
 13 14  1  0
 14 15  1  0
 11  2  1  0
  8  4  2  0
 15  6  1  0
  1 16  1  0
  1 17  1  0
  1 18  1  0
 12 19  1  0
 12 20  1  0
 13 21  1  0
 13 22  1  0
 14 23  1  0
 14 24  1  0
 15 25  1  0
 15 26  1  0
M  CHG  1  11  -1
M  END
>  <UniqueID>  (52) 
27

>  <SMILES>  (52) 
Cc1nc2sc3c(c2c(=O)[n-]1)CCCC3

>  <Energy>  (52) 
59.480191132275145

>  <Genealogy>  (52) 
Cc1nc2sc3c(c2c(=O)[n-]1)CCCC3 (protonated)
Cc1nc2sc3c(c2c(=O)[n-]1)CCCC3 (3D coordinates assigned)
Cc1nc2sc3c(c2c(=O)[n-]1)CCCC3 (nonaromatic ring conformer: 59.480191132275145 kcal/mol)

>  <smiles>  (52) 
Cc1nc2sc3c(c2c(=O)[nH]1)CCCC3

>  <score_type>  (52) 
oracle

>  <origin>  (52) 
autodockgpu

>  <m_score__min__energy>  (52) 
-6.1600000000000001

>  <m_primary>  (52) 
energy

>  <meeko>  (52) 
{"free_energy": -6.16, "intermolecular_energy": -6.16, "internal_energy": 0.0, "cluster_size": 20, "cluster_id": 1, "rank_in_cluster": 5}

>  <energy>  (52) 
-6.16

>  <cluster_rmsd>  (52) 
0.02

>  <rmsd>  (52) 
272.15

>  <cluster>  (52) 
1

$$$$
ULEHMWWQIZHLHN-JPZOJEBQNA-M
     RDKit          3D

 26 28  0  0  0  0  0  0  0  0999 V2000
  138.2640   66.8020  222.0010 C   0  0  0  0  0  0  0  0  0  0  0  0
  138.8370   67.7730  222.9770 C   0  0  0  0  0  0  0  0  0  0  0  0
  139.0690   67.3880  224.2640 N   0  0  0  0  0  0  0  0  0  0  0  0
  139.5580   68.2940  225.1420 C   0  0  0  0  0  0  0  0  0  0  0  0
  139.8980   68.0330  226.7640 S   0  0  0  0  0  0  0  0  0  0  0  0
  140.3910   69.6270  227.0420 C   0  0  0  0  0  0  0  0  0  0  0  0
  140.3280   70.3660  225.8560 C   0  0  0  0  0  0  0  0  0  0  0  0
  139.8250   69.6040  224.7840 C   0  0  0  0  0  0  0  0  0  0  0  0
  139.5590   69.9930  223.4660 C   0  0  0  0  0  0  0  0  0  0  0  0
  139.7550   71.1730  223.0750 O   0  0  0  0  0  0  0  0  0  0  0  0
  139.0690   69.0650  222.5950 N   0  0  0  0  0  0  0  0  0  0  0  0
  140.6730   71.8340  225.8170 C   0  0  0  0  0  0  0  0  0  0  0  0
  141.4890   72.2640  227.0490 C   0  0  0  0  0  0  0  0  0  0  0  0
  140.8960   71.6930  228.3470 C   0  0  0  0  0  0  0  0  0  0  0  0
  140.9230   70.1570  228.3380 C   0  0  0  0  0  0  0  0  0  0  0  0
  137.7782   65.9787  222.5451 H   0  0  0  0  0  0  0  0  0  0  0  0
  137.5221   67.3120  221.3690 H   0  0  0  0  0  0  0  0  0  0  0  0
  139.0691   66.3991  221.3690 H   0  0  0  0  0  0  0  0  0  0  0  0
  141.2630   72.0368  224.9110 H   0  0  0  0  0  0  0  0  0  0  0  0
  139.7331   72.4054  225.8139 H   0  0  0  0  0  0  0  0  0  0  0  0
  142.5214   71.9009  226.9380 H   0  0  0  0  0  0  0  0  0  0  0  0
  141.4638   73.3619  227.1127 H   0  0  0  0  0  0  0  0  0  0  0  0
  141.4844   72.0577  229.2018 H   0  0  0  0  0  0  0  0  0  0  0  0
  139.8501   72.0238  228.4286 H   0  0  0  0  0  0  0  0  0  0  0  0
  141.9594   69.8131  228.4708 H   0  0  0  0  0  0  0  0  0  0  0  0
  140.2906   69.7868  229.1584 H   0  0  0  0  0  0  0  0  0  0  0  0
  1  2  1  0
  2  3  2  0
  3  4  1  0
  4  5  1  0
  5  6  1  0
  6  7  2  0
  7  8  1  0
  8  9  1  0
  9 10  2  0
  9 11  1  0
  7 12  1  0
 12 13  1  0
 13 14  1  0
 14 15  1  0
 11  2  1  0
  8  4  2  0
 15  6  1  0
  1 16  1  0
  1 17  1  0
  1 18  1  0
 12 19  1  0
 12 20  1  0
 13 21  1  0
 13 22  1  0
 14 23  1  0
 14 24  1  0
 15 25  1  0
 15 26  1  0
M  CHG  1  11  -1
M  END
>  <UniqueID>  (53) 
27

>  <SMILES>  (53) 
Cc1nc2sc3c(c2c(=O)[n-]1)CCCC3

>  <Energy>  (53) 
59.480191132275145

>  <Genealogy>  (53) 
Cc1nc2sc3c(c2c(=O)[n-]1)CCCC3 (protonated)
Cc1nc2sc3c(c2c(=O)[n-]1)CCCC3 (3D coordinates assigned)
Cc1nc2sc3c(c2c(=O)[n-]1)CCCC3 (nonaromatic ring conformer: 59.480191132275145 kcal/mol)

>  <smiles>  (53) 
Cc1nc2sc3c(c2c(=O)[nH]1)CCCC3

>  <score_type>  (53) 
oracle

>  <origin>  (53) 
autodockgpu

>  <m_score__min__energy>  (53) 
-6.1600000000000001

>  <m_primary>  (53) 
energy

>  <meeko>  (53) 
{"free_energy": -6.16, "intermolecular_energy": -6.16, "internal_energy": 0.0, "cluster_size": 20, "cluster_id": 1, "rank_in_cluster": 11}

>  <energy>  (53) 
-6.16

>  <cluster_rmsd>  (53) 
0.02

>  <rmsd>  (53) 
272.16

>  <cluster>  (53) 
1

$$$$
ULEHMWWQIZHLHN-JPZOJEBQNA-M
     RDKit          3D

 26 28  0  0  0  0  0  0  0  0999 V2000
  138.2420   66.8170  222.0060 C   0  0  0  0  0  0  0  0  0  0  0  0
  138.8200   67.7850  222.9830 C   0  0  0  0  0  0  0  0  0  0  0  0
  139.0830   67.3860  224.2600 N   0  0  0  0  0  0  0  0  0  0  0  0
  139.5750   68.2900  225.1400 C   0  0  0  0  0  0  0  0  0  0  0  0
  139.9520   68.0130  226.7520 S   0  0  0  0  0  0  0  0  0  0  0  0
  140.4250   69.6100  227.0410 C   0  0  0  0  0  0  0  0  0  0  0  0
  140.3260   70.3640  225.8670 C   0  0  0  0  0  0  0  0  0  0  0  0
  139.8140   69.6080  224.7950 C   0  0  0  0  0  0  0  0  0  0  0  0
  139.5160   70.0090  223.4880 C   0  0  0  0  0  0  0  0  0  0  0  0
  139.6850   71.1970  223.1080 O   0  0  0  0  0  0  0  0  0  0  0  0
  139.0230   69.0860  222.6140 N   0  0  0  0  0  0  0  0  0  0  0  0
  140.6470   71.8370  225.8400 C   0  0  0  0  0  0  0  0  0  0  0  0
  141.4810   72.2640  227.0610 C   0  0  0  0  0  0  0  0  0  0  0  0
  140.9240   71.6670  228.3630 C   0  0  0  0  0  0  0  0  0  0  0  0
  140.9740   70.1320  228.3330 C   0  0  0  0  0  0  0  0  0  0  0  0
  137.7518   65.9960  222.5496 H   0  0  0  0  0  0  0  0  0  0  0  0
  137.5029   67.3311  221.3740 H   0  0  0  0  0  0  0  0  0  0  0  0
  139.0452   66.4102  221.3740 H   0  0  0  0  0  0  0  0  0  0  0  0
  141.2153   72.0606  224.9251 H   0  0  0  0  0  0  0  0  0  0  0  0
  139.6985   72.3936  225.8630 H   0  0  0  0  0  0  0  0  0  0  0  0
  142.5165   71.9190  226.9244 H   0  0  0  0  0  0  0  0  0  0  0  0
  141.4395   73.3604  227.1397 H   0  0  0  0  0  0  0  0  0  0  0  0
  141.5245   72.0296  229.2103 H   0  0  0  0  0  0  0  0  0  0  0  0
  139.8751   71.9805  228.4706 H   0  0  0  0  0  0  0  0  0  0  0  0
  142.0179   69.8025  228.4412 H   0  0  0  0  0  0  0  0  0  0  0  0
  140.3631   69.7419  229.1604 H   0  0  0  0  0  0  0  0  0  0  0  0
  1  2  1  0
  2  3  2  0
  3  4  1  0
  4  5  1  0
  5  6  1  0
  6  7  2  0
  7  8  1  0
  8  9  1  0
  9 10  2  0
  9 11  1  0
  7 12  1  0
 12 13  1  0
 13 14  1  0
 14 15  1  0
 11  2  1  0
  8  4  2  0
 15  6  1  0
  1 16  1  0
  1 17  1  0
  1 18  1  0
 12 19  1  0
 12 20  1  0
 13 21  1  0
 13 22  1  0
 14 23  1  0
 14 24  1  0
 15 25  1  0
 15 26  1  0
M  CHG  1  11  -1
M  END
>  <UniqueID>  (54) 
27

>  <SMILES>  (54) 
Cc1nc2sc3c(c2c(=O)[n-]1)CCCC3

>  <Energy>  (54) 
59.480191132275145

>  <Genealogy>  (54) 
Cc1nc2sc3c(c2c(=O)[n-]1)CCCC3 (protonated)
Cc1nc2sc3c(c2c(=O)[n-]1)CCCC3 (3D coordinates assigned)
Cc1nc2sc3c(c2c(=O)[n-]1)CCCC3 (nonaromatic ring conformer: 59.480191132275145 kcal/mol)

>  <smiles>  (54) 
Cc1nc2sc3c(c2c(=O)[nH]1)CCCC3

>  <score_type>  (54) 
oracle

>  <origin>  (54) 
autodockgpu

>  <m_score__min__energy>  (54) 
-6.1600000000000001

>  <m_primary>  (54) 
energy

>  <meeko>  (54) 
{"free_energy": -6.15, "intermolecular_energy": -6.15, "internal_energy": 0.0, "cluster_size": 20, "cluster_id": 1, "rank_in_cluster": 18}

>  <energy>  (54) 
-6.16

>  <cluster_rmsd>  (54) 
0.05

>  <rmsd>  (54) 
272.14

>  <cluster>  (54) 
1

$$$$
ULEHMWWQIZHLHN-JPZOJEBQNA-M
     RDKit          3D

 26 28  0  0  0  0  0  0  0  0999 V2000
  138.2410   66.8120  222.0130 C   0  0  0  0  0  0  0  0  0  0  0  0
  138.8190   67.7820  222.9870 C   0  0  0  0  0  0  0  0  0  0  0  0
  139.0860   67.3860  224.2640 N   0  0  0  0  0  0  0  0  0  0  0  0
  139.5790   68.2920  225.1410 C   0  0  0  0  0  0  0  0  0  0  0  0
  139.9600   68.0180  226.7520 S   0  0  0  0  0  0  0  0  0  0  0  0
  140.4310   69.6170  227.0370 C   0  0  0  0  0  0  0  0  0  0  0  0
  140.3290   70.3690  225.8620 C   0  0  0  0  0  0  0  0  0  0  0  0
  139.8160   69.6100  224.7930 C   0  0  0  0  0  0  0  0  0  0  0  0
  139.5130   70.0080  223.4860 C   0  0  0  0  0  0  0  0  0  0  0  0
  139.6810   71.1960  223.1040 O   0  0  0  0  0  0  0  0  0  0  0  0
  139.0200   69.0820  222.6150 N   0  0  0  0  0  0  0  0  0  0  0  0
  140.6480   71.8420  225.8320 C   0  0  0  0  0  0  0  0  0  0  0  0
  141.4850   72.2720  227.0500 C   0  0  0  0  0  0  0  0  0  0  0  0
  140.9310   71.6770  228.3550 C   0  0  0  0  0  0  0  0  0  0  0  0
  140.9830   70.1420  228.3270 C   0  0  0  0  0  0  0  0  0  0  0  0
  137.7521   65.9916  222.5588 H   0  0  0  0  0  0  0  0  0  0  0  0
  137.5007   67.3242  221.3809 H   0  0  0  0  0  0  0  0  0  0  0  0
  139.0438   66.4047  221.3809 H   0  0  0  0  0  0  0  0  0  0  0  0
  141.2134   72.0650  224.9152 H   0  0  0  0  0  0  0  0  0  0  0  0
  139.6988   72.3973  225.8570 H   0  0  0  0  0  0  0  0  0  0  0  0
  142.5203   71.9272  226.9116 H   0  0  0  0  0  0  0  0  0  0  0  0
  141.4435   73.3685  227.1266 H   0  0  0  0  0  0  0  0  0  0  0  0
  141.5329   72.0418  229.2004 H   0  0  0  0  0  0  0  0  0  0  0  0
  139.8821   71.9897  228.4647 H   0  0  0  0  0  0  0  0  0  0  0  0
  142.0276   69.8141  228.4328 H   0  0  0  0  0  0  0  0  0  0  0  0
  140.3748   69.7523  229.1566 H   0  0  0  0  0  0  0  0  0  0  0  0
  1  2  1  0
  2  3  2  0
  3  4  1  0
  4  5  1  0
  5  6  1  0
  6  7  2  0
  7  8  1  0
  8  9  1  0
  9 10  2  0
  9 11  1  0
  7 12  1  0
 12 13  1  0
 13 14  1  0
 14 15  1  0
 11  2  1  0
  8  4  2  0
 15  6  1  0
  1 16  1  0
  1 17  1  0
  1 18  1  0
 12 19  1  0
 12 20  1  0
 13 21  1  0
 13 22  1  0
 14 23  1  0
 14 24  1  0
 15 25  1  0
 15 26  1  0
M  CHG  1  11  -1
M  END
>  <UniqueID>  (55) 
27

>  <SMILES>  (55) 
Cc1nc2sc3c(c2c(=O)[n-]1)CCCC3

>  <Energy>  (55) 
59.480191132275145

>  <Genealogy>  (55) 
Cc1nc2sc3c(c2c(=O)[n-]1)CCCC3 (protonated)
Cc1nc2sc3c(c2c(=O)[n-]1)CCCC3 (3D coordinates assigned)
Cc1nc2sc3c(c2c(=O)[n-]1)CCCC3 (nonaromatic ring conformer: 59.480191132275145 kcal/mol)

>  <smiles>  (55) 
Cc1nc2sc3c(c2c(=O)[nH]1)CCCC3

>  <score_type>  (55) 
oracle

>  <origin>  (55) 
autodockgpu

>  <m_score__min__energy>  (55) 
-6.1600000000000001

>  <m_primary>  (55) 
energy

>  <meeko>  (55) 
{"free_energy": -6.15, "intermolecular_energy": -6.15, "internal_energy": 0.0, "cluster_size": 20, "cluster_id": 1, "rank_in_cluster": 20}

>  <energy>  (55) 
-6.16

>  <cluster_rmsd>  (55) 
0.02

>  <rmsd>  (55) 
272.16

>  <cluster>  (55) 
1

$$$$
ULEHMWWQIZHLHN-JPZOJEBQNA-M
     RDKit          3D

 26 28  0  0  0  0  0  0  0  0999 V2000
  138.2460   66.8230  222.0170 C   0  0  0  0  0  0  0  0  0  0  0  0
  138.8250   67.7900  222.9930 C   0  0  0  0  0  0  0  0  0  0  0  0
  139.0840   67.3930  224.2710 N   0  0  0  0  0  0  0  0  0  0  0  0
  139.5790   68.2950  225.1510 C   0  0  0  0  0  0  0  0  0  0  0  0
  139.9510   68.0190  226.7640 S   0  0  0  0  0  0  0  0  0  0  0  0
  140.4300   69.6160  227.0510 C   0  0  0  0  0  0  0  0  0  0  0  0
  140.3370   70.3680  225.8750 C   0  0  0  0  0  0  0  0  0  0  0  0
  139.8250   69.6120  224.8040 C   0  0  0  0  0  0  0  0  0  0  0  0
  139.5300   70.0120  223.4950 C   0  0  0  0  0  0  0  0  0  0  0  0
  139.7060   71.1990  223.1140 O   0  0  0  0  0  0  0  0  0  0  0  0
  139.0350   69.0890  222.6220 N   0  0  0  0  0  0  0  0  0  0  0  0
  140.6650   71.8400  225.8460 C   0  0  0  0  0  0  0  0  0  0  0  0
  141.4980   72.2650  227.0680 C   0  0  0  0  0  0  0  0  0  0  0  0
  140.9350   71.6720  228.3710 C   0  0  0  0  0  0  0  0  0  0  0  0
  140.9790   70.1380  228.3430 C   0  0  0  0  0  0  0  0  0  0  0  0
  137.7549   66.0027  222.5610 H   0  0  0  0  0  0  0  0  0  0  0  0
  137.5074   67.3378  221.3850 H   0  0  0  0  0  0  0  0  0  0  0  0
  139.0486   66.4150  221.3850 H   0  0  0  0  0  0  0  0  0  0  0  0
  141.2364   72.0593  224.9320 H   0  0  0  0  0  0  0  0  0  0  0  0
  139.7191   72.4011  225.8656 H   0  0  0  0  0  0  0  0  0  0  0  0
  142.5323   71.9151  226.9342 H   0  0  0  0  0  0  0  0  0  0  0  0
  141.4612   73.3617  227.1450 H   0  0  0  0  0  0  0  0  0  0  0  0
  141.5351   72.0334  229.2191 H   0  0  0  0  0  0  0  0  0  0  0  0
  139.8872   71.9901  228.4760 H   0  0  0  0  0  0  0  0  0  0  0  0
  142.0215   69.8046  228.4533 H   0  0  0  0  0  0  0  0  0  0  0  0
  140.3651   69.7515  229.1699 H   0  0  0  0  0  0  0  0  0  0  0  0
  1  2  1  0
  2  3  2  0
  3  4  1  0
  4  5  1  0
  5  6  1  0
  6  7  2  0
  7  8  1  0
  8  9  1  0
  9 10  2  0
  9 11  1  0
  7 12  1  0
 12 13  1  0
 13 14  1  0
 14 15  1  0
 11  2  1  0
  8  4  2  0
 15  6  1  0
  1 16  1  0
  1 17  1  0
  1 18  1  0
 12 19  1  0
 12 20  1  0
 13 21  1  0
 13 22  1  0
 14 23  1  0
 14 24  1  0
 15 25  1  0
 15 26  1  0
M  CHG  1  11  -1
M  END
>  <UniqueID>  (56) 
27

>  <SMILES>  (56) 
Cc1nc2sc3c(c2c(=O)[n-]1)CCCC3

>  <Energy>  (56) 
59.480191132275145

>  <Genealogy>  (56) 
Cc1nc2sc3c(c2c(=O)[n-]1)CCCC3 (protonated)
Cc1nc2sc3c(c2c(=O)[n-]1)CCCC3 (3D coordinates assigned)
Cc1nc2sc3c(c2c(=O)[n-]1)CCCC3 (nonaromatic ring conformer: 59.480191132275145 kcal/mol)

>  <smiles>  (56) 
Cc1nc2sc3c(c2c(=O)[nH]1)CCCC3

>  <score_type>  (56) 
oracle

>  <origin>  (56) 
autodockgpu

>  <m_score__min__energy>  (56) 
-6.1600000000000001

>  <m_primary>  (56) 
energy

>  <meeko>  (56) 
{"free_energy": -6.16, "intermolecular_energy": -6.16, "internal_energy": 0.0, "cluster_size": 20, "cluster_id": 1, "rank_in_cluster": 15}

>  <energy>  (56) 
-6.16

>  <cluster_rmsd>  (56) 
0.02

>  <rmsd>  (56) 
272.15

>  <cluster>  (56) 
1

$$$$
ULEHMWWQIZHLHN-JPZOJEBQNA-M
     RDKit          3D

 26 28  0  0  0  0  0  0  0  0999 V2000
  138.2390   66.8310  222.0040 C   0  0  0  0  0  0  0  0  0  0  0  0
  138.8250   67.7960  222.9790 C   0  0  0  0  0  0  0  0  0  0  0  0
  139.0740   67.4010  224.2600 N   0  0  0  0  0  0  0  0  0  0  0  0
  139.5750   68.3020  225.1370 C   0  0  0  0  0  0  0  0  0  0  0  0
  139.9380   68.0290  226.7530 S   0  0  0  0  0  0  0  0  0  0  0  0
  140.4330   69.6210  227.0350 C   0  0  0  0  0  0  0  0  0  0  0  0
  140.3540   70.3690  225.8560 C   0  0  0  0  0  0  0  0  0  0  0  0
  139.8370   69.6140  224.7860 C   0  0  0  0  0  0  0  0  0  0  0  0
  139.5520   70.0120  223.4740 C   0  0  0  0  0  0  0  0  0  0  0  0
  139.7420   71.1950  223.0890 O   0  0  0  0  0  0  0  0  0  0  0  0
  139.0510   69.0910  222.6030 N   0  0  0  0  0  0  0  0  0  0  0  0
  140.6970   71.8370  225.8220 C   0  0  0  0  0  0  0  0  0  0  0  0
  141.5310   72.2590  227.0460 C   0  0  0  0  0  0  0  0  0  0  0  0
  140.9560   71.6780  228.3480 C   0  0  0  0  0  0  0  0  0  0  0  0
  140.9830   70.1430  228.3270 C   0  0  0  0  0  0  0  0  0  0  0  0
  137.7431   66.0144  222.5492 H   0  0  0  0  0  0  0  0  0  0  0  0
  137.5032   67.3497  221.3719 H   0  0  0  0  0  0  0  0  0  0  0  0
  139.0386   66.4173  221.3719 H   0  0  0  0  0  0  0  0  0  0  0  0
  141.2737   72.0467  224.9090 H   0  0  0  0  0  0  0  0  0  0  0  0
  139.7568   72.4078  225.8362 H   0  0  0  0  0  0  0  0  0  0  0  0
  142.5619   71.8971  226.9179 H   0  0  0  0  0  0  0  0  0  0  0  0
  141.5069   73.3564  227.1179 H   0  0  0  0  0  0  0  0  0  0  0  0
  141.5562   72.0364  229.1973 H   0  0  0  0  0  0  0  0  0  0  0  0
  139.9113   72.0080  228.4467 H   0  0  0  0  0  0  0  0  0  0  0  0
  142.0213   69.7986  228.4428 H   0  0  0  0  0  0  0  0  0  0  0  0
  140.3616   69.7672  229.1532 H   0  0  0  0  0  0  0  0  0  0  0  0
  1  2  1  0
  2  3  2  0
  3  4  1  0
  4  5  1  0
  5  6  1  0
  6  7  2  0
  7  8  1  0
  8  9  1  0
  9 10  2  0
  9 11  1  0
  7 12  1  0
 12 13  1  0
 13 14  1  0
 14 15  1  0
 11  2  1  0
  8  4  2  0
 15  6  1  0
  1 16  1  0
  1 17  1  0
  1 18  1  0
 12 19  1  0
 12 20  1  0
 13 21  1  0
 13 22  1  0
 14 23  1  0
 14 24  1  0
 15 25  1  0
 15 26  1  0
M  CHG  1  11  -1
M  END
>  <UniqueID>  (57) 
27

>  <SMILES>  (57) 
Cc1nc2sc3c(c2c(=O)[n-]1)CCCC3

>  <Energy>  (57) 
59.480191132275145

>  <Genealogy>  (57) 
Cc1nc2sc3c(c2c(=O)[n-]1)CCCC3 (protonated)
Cc1nc2sc3c(c2c(=O)[n-]1)CCCC3 (3D coordinates assigned)
Cc1nc2sc3c(c2c(=O)[n-]1)CCCC3 (nonaromatic ring conformer: 59.480191132275145 kcal/mol)

>  <smiles>  (57) 
Cc1nc2sc3c(c2c(=O)[nH]1)CCCC3

>  <score_type>  (57) 
oracle

>  <origin>  (57) 
autodockgpu

>  <m_score__min__energy>  (57) 
-6.1600000000000001

>  <m_primary>  (57) 
energy

>  <meeko>  (57) 
{"free_energy": -6.16, "intermolecular_energy": -6.16, "internal_energy": 0.0, "cluster_size": 20, "cluster_id": 1, "rank_in_cluster": 12}

>  <energy>  (57) 
-6.15

>  <cluster_rmsd>  (57) 
0.05

>  <rmsd>  (57) 
272.14

>  <cluster>  (57) 
1

$$$$
ULEHMWWQIZHLHN-JPZOJEBQNA-M
     RDKit          3D

 26 28  0  0  0  0  0  0  0  0999 V2000
  138.2280   66.8400  222.0090 C   0  0  0  0  0  0  0  0  0  0  0  0
  138.8180   67.8040  222.9830 C   0  0  0  0  0  0  0  0  0  0  0  0
  139.0750   67.4060  224.2620 N   0  0  0  0  0  0  0  0  0  0  0  0
  139.5800   68.3060  225.1380 C   0  0  0  0  0  0  0  0  0  0  0  0
  139.9520   68.0310  226.7510 S   0  0  0  0  0  0  0  0  0  0  0  0
  140.4460   69.6230  227.0340 C   0  0  0  0  0  0  0  0  0  0  0  0
  140.3590   70.3730  225.8570 C   0  0  0  0  0  0  0  0  0  0  0  0
  139.8370   69.6200  224.7880 C   0  0  0  0  0  0  0  0  0  0  0  0
  139.5450   70.0200  223.4790 C   0  0  0  0  0  0  0  0  0  0  0  0
  139.7310   71.2040  223.0950 O   0  0  0  0  0  0  0  0  0  0  0  0
  139.0400   69.1000  222.6080 N   0  0  0  0  0  0  0  0  0  0  0  0
  140.7000   71.8420  225.8240 C   0  0  0  0  0  0  0  0  0  0  0  0
  141.5400   72.2620  227.0440 C   0  0  0  0  0  0  0  0  0  0  0  0
  140.9730   71.6780  228.3480 C   0  0  0  0  0  0  0  0  0  0  0  0
  141.0020   70.1430  228.3240 C   0  0  0  0  0  0  0  0  0  0  0  0
  137.7296   66.0256  222.5553 H   0  0  0  0  0  0  0  0  0  0  0  0
  137.4937   67.3607  221.3768 H   0  0  0  0  0  0  0  0  0  0  0  0
  139.0258   66.4230  221.3768 H   0  0  0  0  0  0  0  0  0  0  0  0
  141.2713   72.0543  224.9083 H   0  0  0  0  0  0  0  0  0  0  0  0
  139.7592   72.4117  225.8444 H   0  0  0  0  0  0  0  0  0  0  0  0
  142.5704   71.9013  226.9095 H   0  0  0  0  0  0  0  0  0  0  0  0
  141.5150   73.3592  227.1183 H   0  0  0  0  0  0  0  0  0  0  0  0
  141.5774   72.0357  229.1946 H   0  0  0  0  0  0  0  0  0  0  0  0
  139.9284   72.0064  228.4531 H   0  0  0  0  0  0  0  0  0  0  0  0
  142.0413   69.7997  228.4337 H   0  0  0  0  0  0  0  0  0  0  0  0
  140.3856   69.7647  229.1528 H   0  0  0  0  0  0  0  0  0  0  0  0
  1  2  1  0
  2  3  2  0
  3  4  1  0
  4  5  1  0
  5  6  1  0
  6  7  2  0
  7  8  1  0
  8  9  1  0
  9 10  2  0
  9 11  1  0
  7 12  1  0
 12 13  1  0
 13 14  1  0
 14 15  1  0
 11  2  1  0
  8  4  2  0
 15  6  1  0
  1 16  1  0
  1 17  1  0
  1 18  1  0
 12 19  1  0
 12 20  1  0
 13 21  1  0
 13 22  1  0
 14 23  1  0
 14 24  1  0
 15 25  1  0
 15 26  1  0
M  CHG  1  11  -1
M  END
>  <UniqueID>  (58) 
27

>  <SMILES>  (58) 
Cc1nc2sc3c(c2c(=O)[n-]1)CCCC3

>  <Energy>  (58) 
59.480191132275145

>  <Genealogy>  (58) 
Cc1nc2sc3c(c2c(=O)[n-]1)CCCC3 (protonated)
Cc1nc2sc3c(c2c(=O)[n-]1)CCCC3 (3D coordinates assigned)
Cc1nc2sc3c(c2c(=O)[n-]1)CCCC3 (nonaromatic ring conformer: 59.480191132275145 kcal/mol)

>  <smiles>  (58) 
Cc1nc2sc3c(c2c(=O)[nH]1)CCCC3

>  <score_type>  (58) 
oracle

>  <origin>  (58) 
autodockgpu

>  <m_score__min__energy>  (58) 
-6.1600000000000001

>  <m_primary>  (58) 
energy

>  <meeko>  (58) 
{"free_energy": -6.15, "intermolecular_energy": -6.15, "internal_energy": 0.0, "cluster_size": 20, "cluster_id": 1, "rank_in_cluster": 19}

>  <energy>  (58) 
-6.15

>  <cluster_rmsd>  (58) 
0.03

>  <rmsd>  (58) 
272.15

>  <cluster>  (58) 
1

$$$$
ULEHMWWQIZHLHN-JPZOJEBQNA-M
     RDKit          3D

 26 28  0  0  0  0  0  0  0  0999 V2000
  138.2390   66.8080  222.0080 C   0  0  0  0  0  0  0  0  0  0  0  0
  138.8240   67.7770  222.9810 C   0  0  0  0  0  0  0  0  0  0  0  0
  139.0760   67.3840  224.2620 N   0  0  0  0  0  0  0  0  0  0  0  0
  139.5750   68.2870  225.1380 C   0  0  0  0  0  0  0  0  0  0  0  0
  139.9410   68.0170  226.7530 S   0  0  0  0  0  0  0  0  0  0  0  0
  140.4310   69.6110  227.0330 C   0  0  0  0  0  0  0  0  0  0  0  0
  140.3470   70.3580  225.8530 C   0  0  0  0  0  0  0  0  0  0  0  0
  139.8320   69.6000  224.7840 C   0  0  0  0  0  0  0  0  0  0  0  0
  139.5440   69.9950  223.4730 C   0  0  0  0  0  0  0  0  0  0  0  0
  139.7300   71.1790  223.0860 O   0  0  0  0  0  0  0  0  0  0  0  0
  139.0440   69.0720  222.6030 N   0  0  0  0  0  0  0  0  0  0  0  0
  140.6860   71.8270  225.8180 C   0  0  0  0  0  0  0  0  0  0  0  0
  141.5200   72.2520  227.0400 C   0  0  0  0  0  0  0  0  0  0  0  0
  140.9480   71.6710  228.3430 C   0  0  0  0  0  0  0  0  0  0  0  0
  140.9810   70.1360  228.3240 C   0  0  0  0  0  0  0  0  0  0  0  0
  137.7459   65.9912  222.5554 H   0  0  0  0  0  0  0  0  0  0  0  0
  137.5011   67.3235  221.3757 H   0  0  0  0  0  0  0  0  0  0  0  0
  139.0389   66.3951  221.3757 H   0  0  0  0  0  0  0  0  0  0  0  0
  141.2609   72.0378  224.9042 H   0  0  0  0  0  0  0  0  0  0  0  0
  139.7442   72.3951  225.8333 H   0  0  0  0  0  0  0  0  0  0  0  0
  142.5516   71.8925  226.9111 H   0  0  0  0  0  0  0  0  0  0  0  0
  141.4933   73.3494  227.1109 H   0  0  0  0  0  0  0  0  0  0  0  0
  141.5473   72.0329  229.1915 H   0  0  0  0  0  0  0  0  0  0  0  0
  139.9021   71.9972  228.4419 H   0  0  0  0  0  0  0  0  0  0  0  0
  142.0207   69.7956  228.4387 H   0  0  0  0  0  0  0  0  0  0  0  0
  140.3627   69.7584  229.1517 H   0  0  0  0  0  0  0  0  0  0  0  0
  1  2  1  0
  2  3  2  0
  3  4  1  0
  4  5  1  0
  5  6  1  0
  6  7  2  0
  7  8  1  0
  8  9  1  0
  9 10  2  0
  9 11  1  0
  7 12  1  0
 12 13  1  0
 13 14  1  0
 14 15  1  0
 11  2  1  0
  8  4  2  0
 15  6  1  0
  1 16  1  0
  1 17  1  0
  1 18  1  0
 12 19  1  0
 12 20  1  0
 13 21  1  0
 13 22  1  0
 14 23  1  0
 14 24  1  0
 15 25  1  0
 15 26  1  0
M  CHG  1  11  -1
M  END
>  <UniqueID>  (59) 
27

>  <SMILES>  (59) 
Cc1nc2sc3c(c2c(=O)[n-]1)CCCC3

>  <Energy>  (59) 
59.480191132275145

>  <Genealogy>  (59) 
Cc1nc2sc3c(c2c(=O)[n-]1)CCCC3 (protonated)
Cc1nc2sc3c(c2c(=O)[n-]1)CCCC3 (3D coordinates assigned)
Cc1nc2sc3c(c2c(=O)[n-]1)CCCC3 (nonaromatic ring conformer: 59.480191132275145 kcal/mol)

>  <smiles>  (59) 
Cc1nc2sc3c(c2c(=O)[nH]1)CCCC3

>  <score_type>  (59) 
oracle

>  <origin>  (59) 
autodockgpu

>  <m_score__min__energy>  (59) 
-6.1600000000000001

>  <m_primary>  (59) 
energy

>  <meeko>  (59) 
{"free_energy": -6.16, "intermolecular_energy": -6.16, "internal_energy": 0.0, "cluster_size": 20, "cluster_id": 1, "rank_in_cluster": 10}

>  <energy>  (59) 
-6.15

>  <cluster_rmsd>  (59) 
0.02

>  <rmsd>  (59) 
272.15

>  <cluster>  (59) 
1

$$$$
ULEHMWWQIZHLHN-JPZOJEBQNA-M
     RDKit          3D

 26 28  0  0  0  0  0  0  0  0999 V2000
  138.2230   66.8110  222.0310 C   0  0  0  0  0  0  0  0  0  0  0  0
  138.8110   67.7810  223.0000 C   0  0  0  0  0  0  0  0  0  0  0  0
  139.0760   67.3880  224.2790 N   0  0  0  0  0  0  0  0  0  0  0  0
  139.5790   68.2930  225.1510 C   0  0  0  0  0  0  0  0  0  0  0  0
  139.9590   68.0230  226.7630 S   0  0  0  0  0  0  0  0  0  0  0  0
  140.4450   69.6190  227.0400 C   0  0  0  0  0  0  0  0  0  0  0  0
  140.3490   70.3660  225.8620 C   0  0  0  0  0  0  0  0  0  0  0  0
  139.8270   69.6070  224.7970 C   0  0  0  0  0  0  0  0  0  0  0  0
  139.5270   70.0020  223.4880 C   0  0  0  0  0  0  0  0  0  0  0  0
  139.7040   71.1860  223.1000 O   0  0  0  0  0  0  0  0  0  0  0  0
  139.0240   69.0770  222.6220 N   0  0  0  0  0  0  0  0  0  0  0  0
  140.6810   71.8360  225.8240 C   0  0  0  0  0  0  0  0  0  0  0  0
  141.5230   72.2640  227.0390 C   0  0  0  0  0  0  0  0  0  0  0  0
  140.9650   71.6800  228.3480 C   0  0  0  0  0  0  0  0  0  0  0  0
  141.0040   70.1450  228.3270 C   0  0  0  0  0  0  0  0  0  0  0  0
  137.7293   65.9965  222.5814 H   0  0  0  0  0  0  0  0  0  0  0  0
  137.4850   67.3262  221.3986 H   0  0  0  0  0  0  0  0  0  0  0  0
  139.0211   66.3950  221.3986 H   0  0  0  0  0  0  0  0  0  0  0  0
  141.2474   72.0494  224.9055 H   0  0  0  0  0  0  0  0  0  0  0  0
  139.7370   72.4001  225.8468 H   0  0  0  0  0  0  0  0  0  0  0  0
  142.5550   71.9092  226.9011 H   0  0  0  0  0  0  0  0  0  0  0  0
  141.4913   73.3612  227.1105 H   0  0  0  0  0  0  0  0  0  0  0  0
  141.5708   72.0436  229.1911 H   0  0  0  0  0  0  0  0  0  0  0  0
  139.9190   72.0023  228.4575 H   0  0  0  0  0  0  0  0  0  0  0  0
  142.0460   69.8087  228.4324 H   0  0  0  0  0  0  0  0  0  0  0  0
  140.3942   69.7641  229.1595 H   0  0  0  0  0  0  0  0  0  0  0  0
  1  2  1  0
  2  3  2  0
  3  4  1  0
  4  5  1  0
  5  6  1  0
  6  7  2  0
  7  8  1  0
  8  9  1  0
  9 10  2  0
  9 11  1  0
  7 12  1  0
 12 13  1  0
 13 14  1  0
 14 15  1  0
 11  2  1  0
  8  4  2  0
 15  6  1  0
  1 16  1  0
  1 17  1  0
  1 18  1  0
 12 19  1  0
 12 20  1  0
 13 21  1  0
 13 22  1  0
 14 23  1  0
 14 24  1  0
 15 25  1  0
 15 26  1  0
M  CHG  1  11  -1
M  END
>  <UniqueID>  (60) 
27

>  <SMILES>  (60) 
Cc1nc2sc3c(c2c(=O)[n-]1)CCCC3

>  <Energy>  (60) 
59.480191132275145

>  <Genealogy>  (60) 
Cc1nc2sc3c(c2c(=O)[n-]1)CCCC3 (protonated)
Cc1nc2sc3c(c2c(=O)[n-]1)CCCC3 (3D coordinates assigned)
Cc1nc2sc3c(c2c(=O)[n-]1)CCCC3 (nonaromatic ring conformer: 59.480191132275145 kcal/mol)

>  <smiles>  (60) 
Cc1nc2sc3c(c2c(=O)[nH]1)CCCC3

>  <score_type>  (60) 
oracle

>  <origin>  (60) 
autodockgpu

>  <m_score__min__energy>  (60) 
-6.1600000000000001

>  <m_primary>  (60) 
energy

>  <meeko>  (60) 
{"free_energy": -6.16, "intermolecular_energy": -6.16, "internal_energy": 0.0, "cluster_size": 20, "cluster_id": 1, "rank_in_cluster": 1}

>  <energy>  (60) 
-6.15

>  <cluster_rmsd>  (60) 
0.02

>  <rmsd>  (60) 
272.15

>  <cluster>  (60) 
1

$$$$
ULEHMWWQIZHLHN-JPZOJEBQNA-M
     RDKit          3D

 26 28  0  0  0  0  0  0  0  0999 V2000
  138.2470   66.8130  222.0220 C   0  0  0  0  0  0  0  0  0  0  0  0
  138.8310   67.7800  222.9960 C   0  0  0  0  0  0  0  0  0  0  0  0
  139.0800   67.3870  224.2780 N   0  0  0  0  0  0  0  0  0  0  0  0
  139.5780   68.2900  225.1550 C   0  0  0  0  0  0  0  0  0  0  0  0
  139.9400   68.0200  226.7710 S   0  0  0  0  0  0  0  0  0  0  0  0
  140.4320   69.6130  227.0510 C   0  0  0  0  0  0  0  0  0  0  0  0
  140.3520   70.3600  225.8710 C   0  0  0  0  0  0  0  0  0  0  0  0
  139.8380   69.6020  224.8010 C   0  0  0  0  0  0  0  0  0  0  0  0
  139.5530   69.9980  223.4890 C   0  0  0  0  0  0  0  0  0  0  0  0
  139.7420   71.1810  223.1020 O   0  0  0  0  0  0  0  0  0  0  0  0
  139.0540   69.0750  222.6190 N   0  0  0  0  0  0  0  0  0  0  0  0
  140.6940   71.8280  225.8350 C   0  0  0  0  0  0  0  0  0  0  0  0
  141.5250   72.2530  227.0590 C   0  0  0  0  0  0  0  0  0  0  0  0
  140.9500   71.6730  228.3620 C   0  0  0  0  0  0  0  0  0  0  0  0
  140.9800   70.1380  228.3430 C   0  0  0  0  0  0  0  0  0  0  0  0
  137.7533   65.9956  222.5680 H   0  0  0  0  0  0  0  0  0  0  0  0
  137.5097   67.3295  221.3898 H   0  0  0  0  0  0  0  0  0  0  0  0
  139.0473   66.4008  221.3898 H   0  0  0  0  0  0  0  0  0  0  0  0
  141.2722   72.0364  224.9227 H   0  0  0  0  0  0  0  0  0  0  0  0
  139.7533   72.3980  225.8466 H   0  0  0  0  0  0  0  0  0  0  0  0
  142.5567   71.8930  226.9326 H   0  0  0  0  0  0  0  0  0  0  0  0
  141.4980   73.3504  227.1293 H   0  0  0  0  0  0  0  0  0  0  0  0
  141.5490   72.0338  229.2112 H   0  0  0  0  0  0  0  0  0  0  0  0
  139.9047   72.0013  228.4598 H   0  0  0  0  0  0  0  0  0  0  0  0
  142.0188   69.7958  228.4601 H   0  0  0  0  0  0  0  0  0  0  0  0
  140.3586   69.7621  229.1692 H   0  0  0  0  0  0  0  0  0  0  0  0
  1  2  1  0
  2  3  2  0
  3  4  1  0
  4  5  1  0
  5  6  1  0
  6  7  2  0
  7  8  1  0
  8  9  1  0
  9 10  2  0
  9 11  1  0
  7 12  1  0
 12 13  1  0
 13 14  1  0
 14 15  1  0
 11  2  1  0
  8  4  2  0
 15  6  1  0
  1 16  1  0
  1 17  1  0
  1 18  1  0
 12 19  1  0
 12 20  1  0
 13 21  1  0
 13 22  1  0
 14 23  1  0
 14 24  1  0
 15 25  1  0
 15 26  1  0
M  CHG  1  11  -1
M  END
>  <UniqueID>  (61) 
28

>  <SMILES>  (61) 
Cc1nc2sc3c(c2c(=O)[n-]1)CCCC3

>  <Energy>  (61) 
59.48019116426498

>  <Genealogy>  (61) 
Cc1nc2sc3c(c2c(=O)[n-]1)CCCC3 (protonated)
Cc1nc2sc3c(c2c(=O)[n-]1)CCCC3 (3D coordinates assigned)
Cc1nc2sc3c(c2c(=O)[n-]1)CCCC3 (nonaromatic ring conformer: 59.48019116426498 kcal/mol)

>  <smiles>  (61) 
Cc1nc2sc3c(c2c(=O)[nH]1)CCCC3

>  <score_type>  (61) 
oracle

>  <origin>  (61) 
autodockgpu

>  <m_score__min__energy>  (61) 
-6.1600000000000001

>  <m_primary>  (61) 
energy

>  <meeko>  (61) 
{"free_energy": -6.16, "intermolecular_energy": -6.16, "internal_energy": 0.0, "cluster_size": 20, "cluster_id": 1, "rank_in_cluster": 13}

>  <energy>  (61) 
-6.16

>  <cluster_rmsd>  (61) 
0.0

>  <rmsd>  (61) 
272.15

>  <cluster>  (61) 
1

$$$$
ULEHMWWQIZHLHN-JPZOJEBQNA-M
     RDKit          3D

 26 28  0  0  0  0  0  0  0  0999 V2000
  138.2530   66.7940  222.0180 C   0  0  0  0  0  0  0  0  0  0  0  0
  138.8310   67.7660  222.9910 C   0  0  0  0  0  0  0  0  0  0  0  0
  139.0830   67.3770  224.2720 N   0  0  0  0  0  0  0  0  0  0  0  0
  139.5760   68.2850  225.1480 C   0  0  0  0  0  0  0  0  0  0  0  0
  139.9410   68.0190  226.7640 S   0  0  0  0  0  0  0  0  0  0  0  0
  140.4220   69.6160  227.0420 C   0  0  0  0  0  0  0  0  0  0  0  0
  140.3360   70.3610  225.8610 C   0  0  0  0  0  0  0  0  0  0  0  0
  139.8260   69.5980  224.7930 C   0  0  0  0  0  0  0  0  0  0  0  0
  139.5380   69.9900  223.4800 C   0  0  0  0  0  0  0  0  0  0  0  0
  139.7180   71.1740  223.0920 O   0  0  0  0  0  0  0  0  0  0  0  0
  139.0450   69.0620  222.6110 N   0  0  0  0  0  0  0  0  0  0  0  0
  140.6670   71.8320  225.8230 C   0  0  0  0  0  0  0  0  0  0  0  0
  141.4960   72.2640  227.0460 C   0  0  0  0  0  0  0  0  0  0  0  0
  140.9260   71.6810  228.3500 C   0  0  0  0  0  0  0  0  0  0  0  0
  140.9670   70.1460  228.3330 C   0  0  0  0  0  0  0  0  0  0  0  0
  137.7652   65.9737  222.5650 H   0  0  0  0  0  0  0  0  0  0  0  0
  137.5118   67.3048  221.3858 H   0  0  0  0  0  0  0  0  0  0  0  0
  139.0558   66.3867  221.3858 H   0  0  0  0  0  0  0  0  0  0  0  0
  141.2428   72.0438  224.9100 H   0  0  0  0  0  0  0  0  0  0  0  0
  139.7222   72.3951  225.8346 H   0  0  0  0  0  0  0  0  0  0  0  0
  142.5301   71.9112  226.9191 H   0  0  0  0  0  0  0  0  0  0  0  0
  141.4614   73.3613  227.1153 H   0  0  0  0  0  0  0  0  0  0  0  0
  141.5229   72.0471  229.1984 H   0  0  0  0  0  0  0  0  0  0  0  0
  139.8783   72.0017  228.4478 H   0  0  0  0  0  0  0  0  0  0  0  0
  142.0083   69.8113  228.4499 H   0  0  0  0  0  0  0  0  0  0  0  0
  140.3490   69.7665  229.1601 H   0  0  0  0  0  0  0  0  0  0  0  0
  1  2  1  0
  2  3  2  0
  3  4  1  0
  4  5  1  0
  5  6  1  0
  6  7  2  0
  7  8  1  0
  8  9  1  0
  9 10  2  0
  9 11  1  0
  7 12  1  0
 12 13  1  0
 13 14  1  0
 14 15  1  0
 11  2  1  0
  8  4  2  0
 15  6  1  0
  1 16  1  0
  1 17  1  0
  1 18  1  0
 12 19  1  0
 12 20  1  0
 13 21  1  0
 13 22  1  0
 14 23  1  0
 14 24  1  0
 15 25  1  0
 15 26  1  0
M  CHG  1  11  -1
M  END
>  <UniqueID>  (62) 
28

>  <SMILES>  (62) 
Cc1nc2sc3c(c2c(=O)[n-]1)CCCC3

>  <Energy>  (62) 
59.48019116426498

>  <Genealogy>  (62) 
Cc1nc2sc3c(c2c(=O)[n-]1)CCCC3 (protonated)
Cc1nc2sc3c(c2c(=O)[n-]1)CCCC3 (3D coordinates assigned)
Cc1nc2sc3c(c2c(=O)[n-]1)CCCC3 (nonaromatic ring conformer: 59.48019116426498 kcal/mol)

>  <smiles>  (62) 
Cc1nc2sc3c(c2c(=O)[nH]1)CCCC3

>  <score_type>  (62) 
oracle

>  <origin>  (62) 
autodockgpu

>  <m_score__min__energy>  (62) 
-6.1600000000000001

>  <m_primary>  (62) 
energy

>  <meeko>  (62) 
{"free_energy": -6.16, "intermolecular_energy": -6.16, "internal_energy": 0.0, "cluster_size": 20, "cluster_id": 1, "rank_in_cluster": 8}

>  <energy>  (62) 
-6.16

>  <cluster_rmsd>  (62) 
0.01

>  <rmsd>  (62) 
272.16

>  <cluster>  (62) 
1

$$$$
ULEHMWWQIZHLHN-JPZOJEBQNA-M
     RDKit          3D

 26 28  0  0  0  0  0  0  0  0999 V2000
  138.2330   66.8140  222.0230 C   0  0  0  0  0  0  0  0  0  0  0  0
  138.8180   67.7830  222.9940 C   0  0  0  0  0  0  0  0  0  0  0  0
  139.0830   67.3880  224.2720 N   0  0  0  0  0  0  0  0  0  0  0  0
  139.5830   68.2920  225.1470 C   0  0  0  0  0  0  0  0  0  0  0  0
  139.9630   68.0200  226.7590 S   0  0  0  0  0  0  0  0  0  0  0  0
  140.4440   69.6160  227.0400 C   0  0  0  0  0  0  0  0  0  0  0  0
  140.3460   70.3660  225.8630 C   0  0  0  0  0  0  0  0  0  0  0  0
  139.8270   69.6080  224.7960 C   0  0  0  0  0  0  0  0  0  0  0  0
  139.5260   70.0050  223.4880 C   0  0  0  0  0  0  0  0  0  0  0  0
  139.7010   71.1910  223.1030 O   0  0  0  0  0  0  0  0  0  0  0  0
  139.0270   69.0810  222.6190 N   0  0  0  0  0  0  0  0  0  0  0  0
  140.6740   71.8380  225.8300 C   0  0  0  0  0  0  0  0  0  0  0  0
  141.5130   72.2650  227.0460 C   0  0  0  0  0  0  0  0  0  0  0  0
  140.9560   71.6760  228.3530 C   0  0  0  0  0  0  0  0  0  0  0  0
  140.9990   70.1410  228.3280 C   0  0  0  0  0  0  0  0  0  0  0  0
  137.7402   65.9977  222.5714 H   0  0  0  0  0  0  0  0  0  0  0  0
  137.4948   67.3290  221.3907 H   0  0  0  0  0  0  0  0  0  0  0  0
  139.0326   66.4006  221.3907 H   0  0  0  0  0  0  0  0  0  0  0  0
  141.2406   72.0558  224.9126 H   0  0  0  0  0  0  0  0  0  0  0  0
  139.7281   72.3991  225.8540 H   0  0  0  0  0  0  0  0  0  0  0  0
  142.5462   71.9137  226.9079 H   0  0  0  0  0  0  0  0  0  0  0  0
  141.4777   73.3619  227.1204 H   0  0  0  0  0  0  0  0  0  0  0  0
  141.5604   72.0390  229.1973 H   0  0  0  0  0  0  0  0  0  0  0  0
  139.9091   71.9952  228.4628 H   0  0  0  0  0  0  0  0  0  0  0  0
  142.0418   69.8074  228.4343 H   0  0  0  0  0  0  0  0  0  0  0  0
  140.3884   69.7569  229.1584 H   0  0  0  0  0  0  0  0  0  0  0  0
  1  2  1  0
  2  3  2  0
  3  4  1  0
  4  5  1  0
  5  6  1  0
  6  7  2  0
  7  8  1  0
  8  9  1  0
  9 10  2  0
  9 11  1  0
  7 12  1  0
 12 13  1  0
 13 14  1  0
 14 15  1  0
 11  2  1  0
  8  4  2  0
 15  6  1  0
  1 16  1  0
  1 17  1  0
  1 18  1  0
 12 19  1  0
 12 20  1  0
 13 21  1  0
 13 22  1  0
 14 23  1  0
 14 24  1  0
 15 25  1  0
 15 26  1  0
M  CHG  1  11  -1
M  END
>  <UniqueID>  (63) 
28

>  <SMILES>  (63) 
Cc1nc2sc3c(c2c(=O)[n-]1)CCCC3

>  <Energy>  (63) 
59.48019116426498

>  <Genealogy>  (63) 
Cc1nc2sc3c(c2c(=O)[n-]1)CCCC3 (protonated)
Cc1nc2sc3c(c2c(=O)[n-]1)CCCC3 (3D coordinates assigned)
Cc1nc2sc3c(c2c(=O)[n-]1)CCCC3 (nonaromatic ring conformer: 59.48019116426498 kcal/mol)

>  <smiles>  (63) 
Cc1nc2sc3c(c2c(=O)[nH]1)CCCC3

>  <score_type>  (63) 
oracle

>  <origin>  (63) 
autodockgpu

>  <m_score__min__energy>  (63) 
-6.1600000000000001

>  <m_primary>  (63) 
energy

>  <meeko>  (63) 
{"free_energy": -6.16, "intermolecular_energy": -6.16, "internal_energy": 0.0, "cluster_size": 20, "cluster_id": 1, "rank_in_cluster": 9}

>  <energy>  (63) 
-6.16

>  <cluster_rmsd>  (63) 
0.04

>  <rmsd>  (63) 
272.15

>  <cluster>  (63) 
1

$$$$
ULEHMWWQIZHLHN-JPZOJEBQNA-M
     RDKit          3D

 26 28  0  0  0  0  0  0  0  0999 V2000
  138.2270   66.7960  222.0330 C   0  0  0  0  0  0  0  0  0  0  0  0
  138.8110   67.7690  223.0010 C   0  0  0  0  0  0  0  0  0  0  0  0
  139.0720   67.3810  224.2810 N   0  0  0  0  0  0  0  0  0  0  0  0
  139.5710   68.2890  225.1530 C   0  0  0  0  0  0  0  0  0  0  0  0
  139.9470   68.0240  226.7670 S   0  0  0  0  0  0  0  0  0  0  0  0
  140.4300   69.6220  227.0400 C   0  0  0  0  0  0  0  0  0  0  0  0
  140.3350   70.3650  225.8600 C   0  0  0  0  0  0  0  0  0  0  0  0
  139.8180   69.6020  224.7950 C   0  0  0  0  0  0  0  0  0  0  0  0
  139.5210   69.9930  223.4850 C   0  0  0  0  0  0  0  0  0  0  0  0
  139.6980   71.1770  223.0940 O   0  0  0  0  0  0  0  0  0  0  0  0
  139.0220   69.0650  222.6200 N   0  0  0  0  0  0  0  0  0  0  0  0
  140.6650   71.8360  225.8190 C   0  0  0  0  0  0  0  0  0  0  0  0
  141.5030   72.2690  227.0350 C   0  0  0  0  0  0  0  0  0  0  0  0
  140.9420   71.6870  228.3440 C   0  0  0  0  0  0  0  0  0  0  0  0
  140.9840   70.1520  228.3270 C   0  0  0  0  0  0  0  0  0  0  0  0
  137.7371   65.9797  222.5841 H   0  0  0  0  0  0  0  0  0  0  0  0
  137.4865   67.3076  221.4005 H   0  0  0  0  0  0  0  0  0  0  0  0
  139.0267   66.3831  221.4005 H   0  0  0  0  0  0  0  0  0  0  0  0
  141.2335   72.0477  224.9014 H   0  0  0  0  0  0  0  0  0  0  0  0
  139.7199   72.3986  225.8379 H   0  0  0  0  0  0  0  0  0  0  0  0
  142.5361   71.9158  226.9009 H   0  0  0  0  0  0  0  0  0  0  0  0
  141.4694   73.3663  227.1035 H   0  0  0  0  0  0  0  0  0  0  0  0
  141.5445   72.0539  229.1880 H   0  0  0  0  0  0  0  0  0  0  0  0
  139.8950   72.0075  228.4494 H   0  0  0  0  0  0  0  0  0  0  0  0
  142.0263   69.8179  228.4363 H   0  0  0  0  0  0  0  0  0  0  0  0
  140.3725   69.7720  229.1587 H   0  0  0  0  0  0  0  0  0  0  0  0
  1  2  1  0
  2  3  2  0
  3  4  1  0
  4  5  1  0
  5  6  1  0
  6  7  2  0
  7  8  1  0
  8  9  1  0
  9 10  2  0
  9 11  1  0
  7 12  1  0
 12 13  1  0
 13 14  1  0
 14 15  1  0
 11  2  1  0
  8  4  2  0
 15  6  1  0
  1 16  1  0
  1 17  1  0
  1 18  1  0
 12 19  1  0
 12 20  1  0
 13 21  1  0
 13 22  1  0
 14 23  1  0
 14 24  1  0
 15 25  1  0
 15 26  1  0
M  CHG  1  11  -1
M  END
>  <UniqueID>  (64) 
28

>  <SMILES>  (64) 
Cc1nc2sc3c(c2c(=O)[n-]1)CCCC3

>  <Energy>  (64) 
59.48019116426498

>  <Genealogy>  (64) 
Cc1nc2sc3c(c2c(=O)[n-]1)CCCC3 (protonated)
Cc1nc2sc3c(c2c(=O)[n-]1)CCCC3 (3D coordinates assigned)
Cc1nc2sc3c(c2c(=O)[n-]1)CCCC3 (nonaromatic ring conformer: 59.48019116426498 kcal/mol)

>  <smiles>  (64) 
Cc1nc2sc3c(c2c(=O)[nH]1)CCCC3

>  <score_type>  (64) 
oracle

>  <origin>  (64) 
autodockgpu

>  <m_score__min__energy>  (64) 
-6.1600000000000001

>  <m_primary>  (64) 
energy

>  <meeko>  (64) 
{"free_energy": -6.16, "intermolecular_energy": -6.16, "internal_energy": 0.0, "cluster_size": 20, "cluster_id": 1, "rank_in_cluster": 16}

>  <energy>  (64) 
-6.16

>  <cluster_rmsd>  (64) 
0.04

>  <rmsd>  (64) 
272.14

>  <cluster>  (64) 
1

$$$$
ULEHMWWQIZHLHN-JPZOJEBQNA-M
     RDKit          3D

 26 28  0  0  0  0  0  0  0  0999 V2000
  138.2580   66.8050  222.0150 C   0  0  0  0  0  0  0  0  0  0  0  0
  138.8370   67.7750  222.9890 C   0  0  0  0  0  0  0  0  0  0  0  0
  139.0720   67.3890  224.2750 N   0  0  0  0  0  0  0  0  0  0  0  0
  139.5670   68.2950  225.1510 C   0  0  0  0  0  0  0  0  0  0  0  0
  139.9120   68.0330  226.7720 S   0  0  0  0  0  0  0  0  0  0  0  0
  140.4090   69.6260  227.0480 C   0  0  0  0  0  0  0  0  0  0  0  0
  140.3430   70.3650  225.8630 C   0  0  0  0  0  0  0  0  0  0  0  0
  139.8350   69.6040  224.7930 C   0  0  0  0  0  0  0  0  0  0  0  0
  139.5650   69.9930  223.4760 C   0  0  0  0  0  0  0  0  0  0  0  0
  139.7620   71.1730  223.0840 O   0  0  0  0  0  0  0  0  0  0  0  0
  139.0700   69.0670  222.6060 N   0  0  0  0  0  0  0  0  0  0  0  0
  140.6910   71.8320  225.8220 C   0  0  0  0  0  0  0  0  0  0  0  0
  141.5130   72.2600  227.0510 C   0  0  0  0  0  0  0  0  0  0  0  0
  140.9230   71.6900  228.3520 C   0  0  0  0  0  0  0  0  0  0  0  0
  140.9460   70.1550  228.3420 C   0  0  0  0  0  0  0  0  0  0  0  0
  137.7686   65.9851  222.5610 H   0  0  0  0  0  0  0  0  0  0  0  0
  137.5180   67.3176  221.3828 H   0  0  0  0  0  0  0  0  0  0  0  0
  139.0604   66.3970  221.3828 H   0  0  0  0  0  0  0  0  0  0  0  0
  141.2778   72.0333  224.9137 H   0  0  0  0  0  0  0  0  0  0  0  0
  139.7525   72.4058  225.8222 H   0  0  0  0  0  0  0  0  0  0  0  0
  142.5440   71.8943  226.9361 H   0  0  0  0  0  0  0  0  0  0  0  0
  141.4910   73.3579  227.1148 H   0  0  0  0  0  0  0  0  0  0  0  0
  141.5157   72.0528  229.2047 H   0  0  0  0  0  0  0  0  0  0  0  0
  139.8784   72.0237  228.4381 H   0  0  0  0  0  0  0  0  0  0  0  0
  141.9819   69.8085  228.4716 H   0  0  0  0  0  0  0  0  0  0  0  0
  140.3147   69.7865  229.1639 H   0  0  0  0  0  0  0  0  0  0  0  0
  1  2  1  0
  2  3  2  0
  3  4  1  0
  4  5  1  0
  5  6  1  0
  6  7  2  0
  7  8  1  0
  8  9  1  0
  9 10  2  0
  9 11  1  0
  7 12  1  0
 12 13  1  0
 13 14  1  0
 14 15  1  0
 11  2  1  0
  8  4  2  0
 15  6  1  0
  1 16  1  0
  1 17  1  0
  1 18  1  0
 12 19  1  0
 12 20  1  0
 13 21  1  0
 13 22  1  0
 14 23  1  0
 14 24  1  0
 15 25  1  0
 15 26  1  0
M  CHG  1  11  -1
M  END
>  <UniqueID>  (65) 
28

>  <SMILES>  (65) 
Cc1nc2sc3c(c2c(=O)[n-]1)CCCC3

>  <Energy>  (65) 
59.48019116426498

>  <Genealogy>  (65) 
Cc1nc2sc3c(c2c(=O)[n-]1)CCCC3 (protonated)
Cc1nc2sc3c(c2c(=O)[n-]1)CCCC3 (3D coordinates assigned)
Cc1nc2sc3c(c2c(=O)[n-]1)CCCC3 (nonaromatic ring conformer: 59.48019116426498 kcal/mol)

>  <smiles>  (65) 
Cc1nc2sc3c(c2c(=O)[nH]1)CCCC3

>  <score_type>  (65) 
oracle

>  <origin>  (65) 
autodockgpu

>  <m_score__min__energy>  (65) 
-6.1600000000000001

>  <m_primary>  (65) 
energy

>  <meeko>  (65) 
{"free_energy": -6.16, "intermolecular_energy": -6.16, "internal_energy": 0.0, "cluster_size": 20, "cluster_id": 1, "rank_in_cluster": 3}

>  <energy>  (65) 
-6.16

>  <cluster_rmsd>  (65) 
0.01

>  <rmsd>  (65) 
272.16

>  <cluster>  (65) 
1

$$$$
ULEHMWWQIZHLHN-JPZOJEBQNA-M
     RDKit          3D

 26 28  0  0  0  0  0  0  0  0999 V2000
  138.2340   66.8070  222.0400 C   0  0  0  0  0  0  0  0  0  0  0  0
  138.8200   67.7780  223.0090 C   0  0  0  0  0  0  0  0  0  0  0  0
  139.0820   67.3870  224.2880 N   0  0  0  0  0  0  0  0  0  0  0  0
  139.5820   68.2920  225.1610 C   0  0  0  0  0  0  0  0  0  0  0  0
  139.9590   68.0240  226.7740 S   0  0  0  0  0  0  0  0  0  0  0  0
  140.4440   69.6200  227.0510 C   0  0  0  0  0  0  0  0  0  0  0  0
  140.3500   70.3660  225.8720 C   0  0  0  0  0  0  0  0  0  0  0  0
  139.8310   69.6060  224.8060 C   0  0  0  0  0  0  0  0  0  0  0  0
  139.5340   70.0000  223.4960 C   0  0  0  0  0  0  0  0  0  0  0  0
  139.7120   71.1840  223.1080 O   0  0  0  0  0  0  0  0  0  0  0  0
  139.0330   69.0740  222.6300 N   0  0  0  0  0  0  0  0  0  0  0  0
  140.6820   71.8370  225.8330 C   0  0  0  0  0  0  0  0  0  0  0  0
  141.5210   72.2660  227.0500 C   0  0  0  0  0  0  0  0  0  0  0  0
  140.9600   71.6830  228.3580 C   0  0  0  0  0  0  0  0  0  0  0  0
  140.9990   70.1480  228.3380 C   0  0  0  0  0  0  0  0  0  0  0  0
  137.7419   65.9915  222.5903 H   0  0  0  0  0  0  0  0  0  0  0  0
  137.4950   67.3208  221.4076 H   0  0  0  0  0  0  0  0  0  0  0  0
  139.0330   66.3926  221.4076 H   0  0  0  0  0  0  0  0  0  0  0  0
  141.2507   72.0495  224.9157 H   0  0  0  0  0  0  0  0  0  0  0  0
  139.7379   72.4012  225.8524 H   0  0  0  0  0  0  0  0  0  0  0  0
  142.5534   71.9112  226.9149 H   0  0  0  0  0  0  0  0  0  0  0  0
  141.4889   73.3633  227.1206 H   0  0  0  0  0  0  0  0  0  0  0  0
  141.5639   72.0471  229.2022 H   0  0  0  0  0  0  0  0  0  0  0  0
  139.9138   72.0055  228.4650 H   0  0  0  0  0  0  0  0  0  0  0  0
  142.0408   69.8120  228.4466 H   0  0  0  0  0  0  0  0  0  0  0  0
  140.3864   69.7683  229.1690 H   0  0  0  0  0  0  0  0  0  0  0  0
  1  2  1  0
  2  3  2  0
  3  4  1  0
  4  5  1  0
  5  6  1  0
  6  7  2  0
  7  8  1  0
  8  9  1  0
  9 10  2  0
  9 11  1  0
  7 12  1  0
 12 13  1  0
 13 14  1  0
 14 15  1  0
 11  2  1  0
  8  4  2  0
 15  6  1  0
  1 16  1  0
  1 17  1  0
  1 18  1  0
 12 19  1  0
 12 20  1  0
 13 21  1  0
 13 22  1  0
 14 23  1  0
 14 24  1  0
 15 25  1  0
 15 26  1  0
M  CHG  1  11  -1
M  END
>  <UniqueID>  (66) 
28

>  <SMILES>  (66) 
Cc1nc2sc3c(c2c(=O)[n-]1)CCCC3

>  <Energy>  (66) 
59.48019116426498

>  <Genealogy>  (66) 
Cc1nc2sc3c(c2c(=O)[n-]1)CCCC3 (protonated)
Cc1nc2sc3c(c2c(=O)[n-]1)CCCC3 (3D coordinates assigned)
Cc1nc2sc3c(c2c(=O)[n-]1)CCCC3 (nonaromatic ring conformer: 59.48019116426498 kcal/mol)

>  <smiles>  (66) 
Cc1nc2sc3c(c2c(=O)[nH]1)CCCC3

>  <score_type>  (66) 
oracle

>  <origin>  (66) 
autodockgpu

>  <m_score__min__energy>  (66) 
-6.1600000000000001

>  <m_primary>  (66) 
energy

>  <meeko>  (66) 
{"free_energy": -6.16, "intermolecular_energy": -6.16, "internal_energy": 0.0, "cluster_size": 20, "cluster_id": 1, "rank_in_cluster": 2}

>  <energy>  (66) 
-6.16

>  <cluster_rmsd>  (66) 
0.02

>  <rmsd>  (66) 
272.15

>  <cluster>  (66) 
1

$$$$
ULEHMWWQIZHLHN-JPZOJEBQNA-M
     RDKit          3D

 26 28  0  0  0  0  0  0  0  0999 V2000
  138.2480   66.8100  222.0010 C   0  0  0  0  0  0  0  0  0  0  0  0
  138.8230   67.7810  222.9770 C   0  0  0  0  0  0  0  0  0  0  0  0
  139.0580   67.3930  224.2630 N   0  0  0  0  0  0  0  0  0  0  0  0
  139.5490   68.3000  225.1410 C   0  0  0  0  0  0  0  0  0  0  0  0
  139.8950   68.0360  226.7610 S   0  0  0  0  0  0  0  0  0  0  0  0
  140.3850   69.6300  227.0400 C   0  0  0  0  0  0  0  0  0  0  0  0
  140.3180   70.3720  225.8560 C   0  0  0  0  0  0  0  0  0  0  0  0
  139.8130   69.6100  224.7840 C   0  0  0  0  0  0  0  0  0  0  0  0
  139.5420   70.0000  223.4680 C   0  0  0  0  0  0  0  0  0  0  0  0
  139.7350   71.1820  223.0780 O   0  0  0  0  0  0  0  0  0  0  0  0
  139.0510   69.0740  222.5960 N   0  0  0  0  0  0  0  0  0  0  0  0
  140.6600   71.8400  225.8170 C   0  0  0  0  0  0  0  0  0  0  0  0
  141.4800   72.2690  227.0470 C   0  0  0  0  0  0  0  0  0  0  0  0
  140.8920   71.6950  228.3470 C   0  0  0  0  0  0  0  0  0  0  0  0
  140.9210   70.1600  228.3350 C   0  0  0  0  0  0  0  0  0  0  0  0
  137.7610   65.9876  222.5456 H   0  0  0  0  0  0  0  0  0  0  0  0
  137.5067   67.3209  221.3689 H   0  0  0  0  0  0  0  0  0  0  0  0
  139.0523   66.4056  221.3689 H   0  0  0  0  0  0  0  0  0  0  0  0
  141.2463   72.0450  224.9091 H   0  0  0  0  0  0  0  0  0  0  0  0
  139.7194   72.4102  225.8174 H   0  0  0  0  0  0  0  0  0  0  0  0
  142.5124   71.9072  226.9318 H   0  0  0  0  0  0  0  0  0  0  0  0
  141.4537   73.3667  227.1125 H   0  0  0  0  0  0  0  0  0  0  0  0
  141.4831   72.0590  229.2003 H   0  0  0  0  0  0  0  0  0  0  0  0
  139.8460   72.0245  228.4332 H   0  0  0  0  0  0  0  0  0  0  0  0
  141.9584   69.8175  228.4636 H   0  0  0  0  0  0  0  0  0  0  0  0
  140.2915   69.7881  229.1568 H   0  0  0  0  0  0  0  0  0  0  0  0
  1  2  1  0
  2  3  2  0
  3  4  1  0
  4  5  1  0
  5  6  1  0
  6  7  2  0
  7  8  1  0
  8  9  1  0
  9 10  2  0
  9 11  1  0
  7 12  1  0
 12 13  1  0
 13 14  1  0
 14 15  1  0
 11  2  1  0
  8  4  2  0
 15  6  1  0
  1 16  1  0
  1 17  1  0
  1 18  1  0
 12 19  1  0
 12 20  1  0
 13 21  1  0
 13 22  1  0
 14 23  1  0
 14 24  1  0
 15 25  1  0
 15 26  1  0
M  CHG  1  11  -1
M  END
>  <UniqueID>  (67) 
28

>  <SMILES>  (67) 
Cc1nc2sc3c(c2c(=O)[n-]1)CCCC3

>  <Energy>  (67) 
59.48019116426498

>  <Genealogy>  (67) 
Cc1nc2sc3c(c2c(=O)[n-]1)CCCC3 (protonated)
Cc1nc2sc3c(c2c(=O)[n-]1)CCCC3 (3D coordinates assigned)
Cc1nc2sc3c(c2c(=O)[n-]1)CCCC3 (nonaromatic ring conformer: 59.48019116426498 kcal/mol)

>  <smiles>  (67) 
Cc1nc2sc3c(c2c(=O)[nH]1)CCCC3

>  <score_type>  (67) 
oracle

>  <origin>  (67) 
autodockgpu

>  <m_score__min__energy>  (67) 
-6.1600000000000001

>  <m_primary>  (67) 
energy

>  <meeko>  (67) 
{"free_energy": -6.16, "intermolecular_energy": -6.16, "internal_energy": 0.0, "cluster_size": 20, "cluster_id": 1, "rank_in_cluster": 14}

>  <energy>  (67) 
-6.16

>  <cluster_rmsd>  (67) 
0.03

>  <rmsd>  (67) 
272.14

>  <cluster>  (67) 
1

$$$$
ULEHMWWQIZHLHN-JPZOJEBQNA-M
     RDKit          3D

 26 28  0  0  0  0  0  0  0  0999 V2000
  138.2440   66.7990  222.0180 C   0  0  0  0  0  0  0  0  0  0  0  0
  138.8260   67.7710  222.9890 C   0  0  0  0  0  0  0  0  0  0  0  0
  139.0620   67.3870  224.2750 N   0  0  0  0  0  0  0  0  0  0  0  0
  139.5600   68.2940  225.1490 C   0  0  0  0  0  0  0  0  0  0  0  0
  139.9070   68.0350  226.7700 S   0  0  0  0  0  0  0  0  0  0  0  0
  140.4070   69.6280  227.0410 C   0  0  0  0  0  0  0  0  0  0  0  0
  140.3400   70.3650  225.8540 C   0  0  0  0  0  0  0  0  0  0  0  0
  139.8290   69.6020  224.7870 C   0  0  0  0  0  0  0  0  0  0  0  0
  139.5580   69.9890  223.4690 C   0  0  0  0  0  0  0  0  0  0  0  0
  139.7560   71.1670  223.0740 O   0  0  0  0  0  0  0  0  0  0  0  0
  139.0600   69.0610  222.6020 N   0  0  0  0  0  0  0  0  0  0  0  0
  140.6900   71.8310  225.8090 C   0  0  0  0  0  0  0  0  0  0  0  0
  141.5150   72.2610  227.0360 C   0  0  0  0  0  0  0  0  0  0  0  0
  140.9270   71.6950  228.3390 C   0  0  0  0  0  0  0  0  0  0  0  0
  140.9480   70.1600  228.3330 C   0  0  0  0  0  0  0  0  0  0  0  0
  137.7543   65.9811  222.5668 H   0  0  0  0  0  0  0  0  0  0  0  0
  137.5038   67.3111  221.3857 H   0  0  0  0  0  0  0  0  0  0  0  0
  139.0449   66.3883  221.3857 H   0  0  0  0  0  0  0  0  0  0  0  0
  141.2756   72.0293  224.8992 H   0  0  0  0  0  0  0  0  0  0  0  0
  139.7523   72.4061  225.8095 H   0  0  0  0  0  0  0  0  0  0  0  0
  142.5454   71.8938  226.9201 H   0  0  0  0  0  0  0  0  0  0  0  0
  141.4943   73.3591  227.0973 H   0  0  0  0  0  0  0  0  0  0  0  0
  141.5217   72.0592  229.1897 H   0  0  0  0  0  0  0  0  0  0  0  0
  139.8829   72.0301  228.4260 H   0  0  0  0  0  0  0  0  0  0  0  0
  141.9838   69.8125  228.4611 H   0  0  0  0  0  0  0  0  0  0  0  0
  140.3181   69.7945  229.1574 H   0  0  0  0  0  0  0  0  0  0  0  0
  1  2  1  0
  2  3  2  0
  3  4  1  0
  4  5  1  0
  5  6  1  0
  6  7  2  0
  7  8  1  0
  8  9  1  0
  9 10  2  0
  9 11  1  0
  7 12  1  0
 12 13  1  0
 13 14  1  0
 14 15  1  0
 11  2  1  0
  8  4  2  0
 15  6  1  0
  1 16  1  0
  1 17  1  0
  1 18  1  0
 12 19  1  0
 12 20  1  0
 13 21  1  0
 13 22  1  0
 14 23  1  0
 14 24  1  0
 15 25  1  0
 15 26  1  0
M  CHG  1  11  -1
M  END
>  <UniqueID>  (68) 
28

>  <SMILES>  (68) 
Cc1nc2sc3c(c2c(=O)[n-]1)CCCC3

>  <Energy>  (68) 
59.48019116426498

>  <Genealogy>  (68) 
Cc1nc2sc3c(c2c(=O)[n-]1)CCCC3 (protonated)
Cc1nc2sc3c(c2c(=O)[n-]1)CCCC3 (3D coordinates assigned)
Cc1nc2sc3c(c2c(=O)[n-]1)CCCC3 (nonaromatic ring conformer: 59.48019116426498 kcal/mol)

>  <smiles>  (68) 
Cc1nc2sc3c(c2c(=O)[nH]1)CCCC3

>  <score_type>  (68) 
oracle

>  <origin>  (68) 
autodockgpu

>  <m_score__min__energy>  (68) 
-6.1600000000000001

>  <m_primary>  (68) 
energy

>  <meeko>  (68) 
{"free_energy": -6.16, "intermolecular_energy": -6.16, "internal_energy": 0.0, "cluster_size": 20, "cluster_id": 1, "rank_in_cluster": 4}

>  <energy>  (68) 
-6.16

>  <cluster_rmsd>  (68) 
0.02

>  <rmsd>  (68) 
272.15

>  <cluster>  (68) 
1

$$$$
ULEHMWWQIZHLHN-JPZOJEBQNA-M
     RDKit          3D

 26 28  0  0  0  0  0  0  0  0999 V2000
  138.2670   66.8010  221.9940 C   0  0  0  0  0  0  0  0  0  0  0  0
  138.8390   67.7720  222.9720 C   0  0  0  0  0  0  0  0  0  0  0  0
  139.0650   67.3860  224.2600 N   0  0  0  0  0  0  0  0  0  0  0  0
  139.5530   68.2920  225.1390 C   0  0  0  0  0  0  0  0  0  0  0  0
  139.8870   68.0310  226.7630 S   0  0  0  0  0  0  0  0  0  0  0  0
  140.3810   69.6240  227.0420 C   0  0  0  0  0  0  0  0  0  0  0  0
  140.3240   70.3630  225.8560 C   0  0  0  0  0  0  0  0  0  0  0  0
  139.8230   69.6010  224.7820 C   0  0  0  0  0  0  0  0  0  0  0  0
  139.5620   69.9900  223.4630 C   0  0  0  0  0  0  0  0  0  0  0  0
  139.7620   71.1700  223.0730 O   0  0  0  0  0  0  0  0  0  0  0  0
  139.0740   69.0640  222.5900 N   0  0  0  0  0  0  0  0  0  0  0  0
  140.6710   71.8300  225.8170 C   0  0  0  0  0  0  0  0  0  0  0  0
  141.4840   72.2590  227.0520 C   0  0  0  0  0  0  0  0  0  0  0  0
  140.8860   71.6890  228.3480 C   0  0  0  0  0  0  0  0  0  0  0  0
  140.9100   70.1540  228.3390 C   0  0  0  0  0  0  0  0  0  0  0  0
  137.7814   65.9767  222.5370 H   0  0  0  0  0  0  0  0  0  0  0  0
  137.5251   67.3111  221.3620 H   0  0  0  0  0  0  0  0  0  0  0  0
  139.0728   66.3994  221.3620 H   0  0  0  0  0  0  0  0  0  0  0  0
  141.2642   72.0315  224.9128 H   0  0  0  0  0  0  0  0  0  0  0  0
  139.7321   72.4030  225.8102 H   0  0  0  0  0  0  0  0  0  0  0  0
  142.5162   71.8943  226.9444 H   0  0  0  0  0  0  0  0  0  0  0  0
  141.4603   73.3569  227.1155 H   0  0  0  0  0  0  0  0  0  0  0  0
  141.4726   72.0525  229.2046 H   0  0  0  0  0  0  0  0  0  0  0  0
  139.8405   72.0218  228.4264 H   0  0  0  0  0  0  0  0  0  0  0  0
  141.9454   69.8082  228.4750 H   0  0  0  0  0  0  0  0  0  0  0  0
  140.2740   69.7855  229.1574 H   0  0  0  0  0  0  0  0  0  0  0  0
  1  2  1  0
  2  3  2  0
  3  4  1  0
  4  5  1  0
  5  6  1  0
  6  7  2  0
  7  8  1  0
  8  9  1  0
  9 10  2  0
  9 11  1  0
  7 12  1  0
 12 13  1  0
 13 14  1  0
 14 15  1  0
 11  2  1  0
  8  4  2  0
 15  6  1  0
  1 16  1  0
  1 17  1  0
  1 18  1  0
 12 19  1  0
 12 20  1  0
 13 21  1  0
 13 22  1  0
 14 23  1  0
 14 24  1  0
 15 25  1  0
 15 26  1  0
M  CHG  1  11  -1
M  END
>  <UniqueID>  (69) 
28

>  <SMILES>  (69) 
Cc1nc2sc3c(c2c(=O)[n-]1)CCCC3

>  <Energy>  (69) 
59.48019116426498

>  <Genealogy>  (69) 
Cc1nc2sc3c(c2c(=O)[n-]1)CCCC3 (protonated)
Cc1nc2sc3c(c2c(=O)[n-]1)CCCC3 (3D coordinates assigned)
Cc1nc2sc3c(c2c(=O)[n-]1)CCCC3 (nonaromatic ring conformer: 59.48019116426498 kcal/mol)

>  <smiles>  (69) 
Cc1nc2sc3c(c2c(=O)[nH]1)CCCC3

>  <score_type>  (69) 
oracle

>  <origin>  (69) 
autodockgpu

>  <m_score__min__energy>  (69) 
-6.1600000000000001

>  <m_primary>  (69) 
energy

>  <meeko>  (69) 
{"free_energy": -6.15, "intermolecular_energy": -6.15, "internal_energy": 0.0, "cluster_size": 20, "cluster_id": 1, "rank_in_cluster": 17}

>  <energy>  (69) 
-6.16

>  <cluster_rmsd>  (69) 
0.01

>  <rmsd>  (69) 
272.15

>  <cluster>  (69) 
1

$$$$
ULEHMWWQIZHLHN-JPZOJEBQNA-M
     RDKit          3D

 26 28  0  0  0  0  0  0  0  0999 V2000
  138.2430   66.8120  222.0190 C   0  0  0  0  0  0  0  0  0  0  0  0
  138.8260   67.7800  222.9930 C   0  0  0  0  0  0  0  0  0  0  0  0
  139.0760   67.3870  224.2740 N   0  0  0  0  0  0  0  0  0  0  0  0
  139.5740   68.2900  225.1510 C   0  0  0  0  0  0  0  0  0  0  0  0
  139.9360   68.0200  226.7670 S   0  0  0  0  0  0  0  0  0  0  0  0
  140.4270   69.6140  227.0480 C   0  0  0  0  0  0  0  0  0  0  0  0
  140.3460   70.3600  225.8680 C   0  0  0  0  0  0  0  0  0  0  0  0
  139.8320   69.6030  224.7980 C   0  0  0  0  0  0  0  0  0  0  0  0
  139.5470   69.9980  223.4860 C   0  0  0  0  0  0  0  0  0  0  0  0
  139.7340   71.1810  223.0990 O   0  0  0  0  0  0  0  0  0  0  0  0
  139.0490   69.0740  222.6150 N   0  0  0  0  0  0  0  0  0  0  0  0
  140.6850   71.8290  225.8320 C   0  0  0  0  0  0  0  0  0  0  0  0
  141.5170   72.2550  227.0560 C   0  0  0  0  0  0  0  0  0  0  0  0
  140.9420   71.6740  228.3590 C   0  0  0  0  0  0  0  0  0  0  0  0
  140.9740   70.1390  228.3400 C   0  0  0  0  0  0  0  0  0  0  0  0
  137.7504   65.9941  222.5652 H   0  0  0  0  0  0  0  0  0  0  0  0
  137.5050   67.3275  221.3868 H   0  0  0  0  0  0  0  0  0  0  0  0
  139.0437   66.4007  221.3868 H   0  0  0  0  0  0  0  0  0  0  0  0
  141.2617   72.0389  224.9191 H   0  0  0  0  0  0  0  0  0  0  0  0
  139.7432   72.3973  225.8446 H   0  0  0  0  0  0  0  0  0  0  0  0
  142.5489   71.8956  226.9293 H   0  0  0  0  0  0  0  0  0  0  0  0
  141.4901   73.3524  227.1263 H   0  0  0  0  0  0  0  0  0  0  0  0
  141.5401   72.0355  229.2084 H   0  0  0  0  0  0  0  0  0  0  0  0
  139.8962   72.0009  228.4562 H   0  0  0  0  0  0  0  0  0  0  0  0
  142.0132   69.7980  228.4573 H   0  0  0  0  0  0  0  0  0  0  0  0
  140.3531   69.7621  229.1661 H   0  0  0  0  0  0  0  0  0  0  0  0
  1  2  1  0
  2  3  2  0
  3  4  1  0
  4  5  1  0
  5  6  1  0
  6  7  2  0
  7  8  1  0
  8  9  1  0
  9 10  2  0
  9 11  1  0
  7 12  1  0
 12 13  1  0
 13 14  1  0
 14 15  1  0
 11  2  1  0
  8  4  2  0
 15  6  1  0
  1 16  1  0
  1 17  1  0
  1 18  1  0
 12 19  1  0
 12 20  1  0
 13 21  1  0
 13 22  1  0
 14 23  1  0
 14 24  1  0
 15 25  1  0
 15 26  1  0
M  CHG  1  11  -1
M  END
>  <UniqueID>  (70) 
28

>  <SMILES>  (70) 
Cc1nc2sc3c(c2c(=O)[n-]1)CCCC3

>  <Energy>  (70) 
59.48019116426498

>  <Genealogy>  (70) 
Cc1nc2sc3c(c2c(=O)[n-]1)CCCC3 (protonated)
Cc1nc2sc3c(c2c(=O)[n-]1)CCCC3 (3D coordinates assigned)
Cc1nc2sc3c(c2c(=O)[n-]1)CCCC3 (nonaromatic ring conformer: 59.48019116426498 kcal/mol)

>  <smiles>  (70) 
Cc1nc2sc3c(c2c(=O)[nH]1)CCCC3

>  <score_type>  (70) 
oracle

>  <origin>  (70) 
autodockgpu

>  <m_score__min__energy>  (70) 
-6.1600000000000001

>  <m_primary>  (70) 
energy

>  <meeko>  (70) 
{"free_energy": -6.16, "intermolecular_energy": -6.16, "internal_energy": 0.0, "cluster_size": 20, "cluster_id": 1, "rank_in_cluster": 6}

>  <energy>  (70) 
-6.16

>  <cluster_rmsd>  (70) 
0.02

>  <rmsd>  (70) 
272.14

>  <cluster>  (70) 
1

$$$$
ULEHMWWQIZHLHN-JPZOJEBQNA-M
     RDKit          3D

 26 28  0  0  0  0  0  0  0  0999 V2000
  138.2440   66.8190  221.9940 C   0  0  0  0  0  0  0  0  0  0  0  0
  138.8240   67.7860  222.9710 C   0  0  0  0  0  0  0  0  0  0  0  0
  139.0790   67.3890  224.2500 N   0  0  0  0  0  0  0  0  0  0  0  0
  139.5740   68.2920  225.1300 C   0  0  0  0  0  0  0  0  0  0  0  0
  139.9420   68.0170  226.7430 S   0  0  0  0  0  0  0  0  0  0  0  0
  140.4250   69.6130  227.0290 C   0  0  0  0  0  0  0  0  0  0  0  0
  140.3360   70.3630  225.8530 C   0  0  0  0  0  0  0  0  0  0  0  0
  139.8240   69.6070  224.7810 C   0  0  0  0  0  0  0  0  0  0  0  0
  139.5330   70.0070  223.4720 C   0  0  0  0  0  0  0  0  0  0  0  0
  139.7130   71.1930  223.0890 O   0  0  0  0  0  0  0  0  0  0  0  0
  139.0380   69.0840  222.5990 N   0  0  0  0  0  0  0  0  0  0  0  0
  140.6680   71.8340  225.8230 C   0  0  0  0  0  0  0  0  0  0  0  0
  141.5000   72.2590  227.0460 C   0  0  0  0  0  0  0  0  0  0  0  0
  140.9320   71.6700  228.3480 C   0  0  0  0  0  0  0  0  0  0  0  0
  140.9730   70.1350  228.3220 C   0  0  0  0  0  0  0  0  0  0  0  0
  137.7522   65.9990  222.5377 H   0  0  0  0  0  0  0  0  0  0  0  0
  137.5059   67.3345  221.3620 H   0  0  0  0  0  0  0  0  0  0  0  0
  139.0463   66.4106  221.3620 H   0  0  0  0  0  0  0  0  0  0  0  0
  141.2417   72.0506  224.9098 H   0  0  0  0  0  0  0  0  0  0  0  0
  139.7234   72.3974  225.8405 H   0  0  0  0  0  0  0  0  0  0  0  0
  142.5335   71.9057  226.9152 H   0  0  0  0  0  0  0  0  0  0  0  0
  141.4669   73.3560  227.1209 H   0  0  0  0  0  0  0  0  0  0  0  0
  141.5304   72.0314  229.1973 H   0  0  0  0  0  0  0  0  0  0  0  0
  139.8848   71.9907  228.4500 H   0  0  0  0  0  0  0  0  0  0  0  0
  142.0145   69.7995  228.4345 H   0  0  0  0  0  0  0  0  0  0  0  0
  140.3571   69.7505  229.1483 H   0  0  0  0  0  0  0  0  0  0  0  0
  1  2  1  0
  2  3  2  0
  3  4  1  0
  4  5  1  0
  5  6  1  0
  6  7  2  0
  7  8  1  0
  8  9  1  0
  9 10  2  0
  9 11  1  0
  7 12  1  0
 12 13  1  0
 13 14  1  0
 14 15  1  0
 11  2  1  0
  8  4  2  0
 15  6  1  0
  1 16  1  0
  1 17  1  0
  1 18  1  0
 12 19  1  0
 12 20  1  0
 13 21  1  0
 13 22  1  0
 14 23  1  0
 14 24  1  0
 15 25  1  0
 15 26  1  0
M  CHG  1  11  -1
M  END
>  <UniqueID>  (71) 
28

>  <SMILES>  (71) 
Cc1nc2sc3c(c2c(=O)[n-]1)CCCC3

>  <Energy>  (71) 
59.48019116426498

>  <Genealogy>  (71) 
Cc1nc2sc3c(c2c(=O)[n-]1)CCCC3 (protonated)
Cc1nc2sc3c(c2c(=O)[n-]1)CCCC3 (3D coordinates assigned)
Cc1nc2sc3c(c2c(=O)[n-]1)CCCC3 (nonaromatic ring conformer: 59.48019116426498 kcal/mol)

>  <smiles>  (71) 
Cc1nc2sc3c(c2c(=O)[nH]1)CCCC3

>  <score_type>  (71) 
oracle

>  <origin>  (71) 
autodockgpu

>  <m_score__min__energy>  (71) 
-6.1600000000000001

>  <m_primary>  (71) 
energy

>  <meeko>  (71) 
{"free_energy": -6.16, "intermolecular_energy": -6.16, "internal_energy": 0.0, "cluster_size": 20, "cluster_id": 1, "rank_in_cluster": 7}

>  <energy>  (71) 
-6.16

>  <cluster_rmsd>  (71) 
0.05

>  <rmsd>  (71) 
272.14

>  <cluster>  (71) 
1

$$$$
ULEHMWWQIZHLHN-JPZOJEBQNA-M
     RDKit          3D

 26 28  0  0  0  0  0  0  0  0999 V2000
  138.2330   66.8070  222.0320 C   0  0  0  0  0  0  0  0  0  0  0  0
  138.8180   67.7780  223.0020 C   0  0  0  0  0  0  0  0  0  0  0  0
  139.0790   67.3870  224.2810 N   0  0  0  0  0  0  0  0  0  0  0  0
  139.5790   68.2930  225.1540 C   0  0  0  0  0  0  0  0  0  0  0  0
  139.9550   68.0250  226.7680 S   0  0  0  0  0  0  0  0  0  0  0  0
  140.4390   69.6220  227.0440 C   0  0  0  0  0  0  0  0  0  0  0  0
  140.3450   70.3680  225.8650 C   0  0  0  0  0  0  0  0  0  0  0  0
  139.8270   69.6070  224.7990 C   0  0  0  0  0  0  0  0  0  0  0  0
  139.5300   70.0010  223.4890 C   0  0  0  0  0  0  0  0  0  0  0  0
  139.7080   71.1850  223.1010 O   0  0  0  0  0  0  0  0  0  0  0  0
  139.0300   69.0740  222.6230 N   0  0  0  0  0  0  0  0  0  0  0  0
  140.6760   71.8380  225.8270 C   0  0  0  0  0  0  0  0  0  0  0  0
  141.5150   72.2680  227.0440 C   0  0  0  0  0  0  0  0  0  0  0  0
  140.9540   71.6850  228.3510 C   0  0  0  0  0  0  0  0  0  0  0  0
  140.9940   70.1500  228.3320 C   0  0  0  0  0  0  0  0  0  0  0  0
  137.7413   65.9908  222.5816 H   0  0  0  0  0  0  0  0  0  0  0  0
  137.4939   67.3206  221.3996 H   0  0  0  0  0  0  0  0  0  0  0  0
  139.0325   66.3937  221.3996 H   0  0  0  0  0  0  0  0  0  0  0  0
  141.2444   72.0511  224.9097 H   0  0  0  0  0  0  0  0  0  0  0  0
  139.7314   72.4013  225.8474 H   0  0  0  0  0  0  0  0  0  0  0  0
  142.5476   71.9137  226.9091 H   0  0  0  0  0  0  0  0  0  0  0  0
  141.4828   73.3653  227.1144 H   0  0  0  0  0  0  0  0  0  0  0  0
  141.5571   72.0499  229.1955 H   0  0  0  0  0  0  0  0  0  0  0  0
  139.9074   72.0065  228.4568 H   0  0  0  0  0  0  0  0  0  0  0  0
  142.0359   69.8145  228.4408 H   0  0  0  0  0  0  0  0  0  0  0  0
  140.3821   69.7698  229.1633 H   0  0  0  0  0  0  0  0  0  0  0  0
  1  2  1  0
  2  3  2  0
  3  4  1  0
  4  5  1  0
  5  6  1  0
  6  7  2  0
  7  8  1  0
  8  9  1  0
  9 10  2  0
  9 11  1  0
  7 12  1  0
 12 13  1  0
 13 14  1  0
 14 15  1  0
 11  2  1  0
  8  4  2  0
 15  6  1  0
  1 16  1  0
  1 17  1  0
  1 18  1  0
 12 19  1  0
 12 20  1  0
 13 21  1  0
 13 22  1  0
 14 23  1  0
 14 24  1  0
 15 25  1  0
 15 26  1  0
M  CHG  1  11  -1
M  END
>  <UniqueID>  (72) 
28

>  <SMILES>  (72) 
Cc1nc2sc3c(c2c(=O)[n-]1)CCCC3

>  <Energy>  (72) 
59.48019116426498

>  <Genealogy>  (72) 
Cc1nc2sc3c(c2c(=O)[n-]1)CCCC3 (protonated)
Cc1nc2sc3c(c2c(=O)[n-]1)CCCC3 (3D coordinates assigned)
Cc1nc2sc3c(c2c(=O)[n-]1)CCCC3 (nonaromatic ring conformer: 59.48019116426498 kcal/mol)

>  <smiles>  (72) 
Cc1nc2sc3c(c2c(=O)[nH]1)CCCC3

>  <score_type>  (72) 
oracle

>  <origin>  (72) 
autodockgpu

>  <m_score__min__energy>  (72) 
-6.1600000000000001

>  <m_primary>  (72) 
energy

>  <meeko>  (72) 
{"free_energy": -6.16, "intermolecular_energy": -6.16, "internal_energy": 0.0, "cluster_size": 20, "cluster_id": 1, "rank_in_cluster": 5}

>  <energy>  (72) 
-6.16

>  <cluster_rmsd>  (72) 
0.02

>  <rmsd>  (72) 
272.15

>  <cluster>  (72) 
1

$$$$
ULEHMWWQIZHLHN-JPZOJEBQNA-M
     RDKit          3D

 26 28  0  0  0  0  0  0  0  0999 V2000
  138.2640   66.8020  222.0010 C   0  0  0  0  0  0  0  0  0  0  0  0
  138.8370   67.7730  222.9770 C   0  0  0  0  0  0  0  0  0  0  0  0
  139.0690   67.3880  224.2640 N   0  0  0  0  0  0  0  0  0  0  0  0
  139.5580   68.2940  225.1420 C   0  0  0  0  0  0  0  0  0  0  0  0
  139.8980   68.0330  226.7640 S   0  0  0  0  0  0  0  0  0  0  0  0
  140.3910   69.6270  227.0420 C   0  0  0  0  0  0  0  0  0  0  0  0
  140.3280   70.3660  225.8560 C   0  0  0  0  0  0  0  0  0  0  0  0
  139.8250   69.6040  224.7840 C   0  0  0  0  0  0  0  0  0  0  0  0
  139.5590   69.9930  223.4660 C   0  0  0  0  0  0  0  0  0  0  0  0
  139.7550   71.1730  223.0750 O   0  0  0  0  0  0  0  0  0  0  0  0
  139.0690   69.0650  222.5950 N   0  0  0  0  0  0  0  0  0  0  0  0
  140.6730   71.8340  225.8170 C   0  0  0  0  0  0  0  0  0  0  0  0
  141.4890   72.2640  227.0490 C   0  0  0  0  0  0  0  0  0  0  0  0
  140.8960   71.6930  228.3470 C   0  0  0  0  0  0  0  0  0  0  0  0
  140.9230   70.1570  228.3380 C   0  0  0  0  0  0  0  0  0  0  0  0
  137.7782   65.9787  222.5451 H   0  0  0  0  0  0  0  0  0  0  0  0
  137.5221   67.3120  221.3690 H   0  0  0  0  0  0  0  0  0  0  0  0
  139.0691   66.3991  221.3690 H   0  0  0  0  0  0  0  0  0  0  0  0
  141.2630   72.0368  224.9110 H   0  0  0  0  0  0  0  0  0  0  0  0
  139.7331   72.4054  225.8139 H   0  0  0  0  0  0  0  0  0  0  0  0
  142.5214   71.9009  226.9380 H   0  0  0  0  0  0  0  0  0  0  0  0
  141.4638   73.3619  227.1127 H   0  0  0  0  0  0  0  0  0  0  0  0
  141.4844   72.0577  229.2018 H   0  0  0  0  0  0  0  0  0  0  0  0
  139.8501   72.0238  228.4286 H   0  0  0  0  0  0  0  0  0  0  0  0
  141.9594   69.8131  228.4708 H   0  0  0  0  0  0  0  0  0  0  0  0
  140.2906   69.7868  229.1584 H   0  0  0  0  0  0  0  0  0  0  0  0
  1  2  1  0
  2  3  2  0
  3  4  1  0
  4  5  1  0
  5  6  1  0
  6  7  2  0
  7  8  1  0
  8  9  1  0
  9 10  2  0
  9 11  1  0
  7 12  1  0
 12 13  1  0
 13 14  1  0
 14 15  1  0
 11  2  1  0
  8  4  2  0
 15  6  1  0
  1 16  1  0
  1 17  1  0
  1 18  1  0
 12 19  1  0
 12 20  1  0
 13 21  1  0
 13 22  1  0
 14 23  1  0
 14 24  1  0
 15 25  1  0
 15 26  1  0
M  CHG  1  11  -1
M  END
>  <UniqueID>  (73) 
28

>  <SMILES>  (73) 
Cc1nc2sc3c(c2c(=O)[n-]1)CCCC3

>  <Energy>  (73) 
59.48019116426498

>  <Genealogy>  (73) 
Cc1nc2sc3c(c2c(=O)[n-]1)CCCC3 (protonated)
Cc1nc2sc3c(c2c(=O)[n-]1)CCCC3 (3D coordinates assigned)
Cc1nc2sc3c(c2c(=O)[n-]1)CCCC3 (nonaromatic ring conformer: 59.48019116426498 kcal/mol)

>  <smiles>  (73) 
Cc1nc2sc3c(c2c(=O)[nH]1)CCCC3

>  <score_type>  (73) 
oracle

>  <origin>  (73) 
autodockgpu

>  <m_score__min__energy>  (73) 
-6.1600000000000001

>  <m_primary>  (73) 
energy

>  <meeko>  (73) 
{"free_energy": -6.16, "intermolecular_energy": -6.16, "internal_energy": 0.0, "cluster_size": 20, "cluster_id": 1, "rank_in_cluster": 11}

>  <energy>  (73) 
-6.16

>  <cluster_rmsd>  (73) 
0.02

>  <rmsd>  (73) 
272.16

>  <cluster>  (73) 
1

$$$$
ULEHMWWQIZHLHN-JPZOJEBQNA-M
     RDKit          3D

 26 28  0  0  0  0  0  0  0  0999 V2000
  138.2420   66.8170  222.0060 C   0  0  0  0  0  0  0  0  0  0  0  0
  138.8200   67.7850  222.9830 C   0  0  0  0  0  0  0  0  0  0  0  0
  139.0830   67.3860  224.2600 N   0  0  0  0  0  0  0  0  0  0  0  0
  139.5750   68.2900  225.1400 C   0  0  0  0  0  0  0  0  0  0  0  0
  139.9520   68.0130  226.7520 S   0  0  0  0  0  0  0  0  0  0  0  0
  140.4250   69.6100  227.0410 C   0  0  0  0  0  0  0  0  0  0  0  0
  140.3260   70.3640  225.8670 C   0  0  0  0  0  0  0  0  0  0  0  0
  139.8140   69.6080  224.7950 C   0  0  0  0  0  0  0  0  0  0  0  0
  139.5160   70.0090  223.4880 C   0  0  0  0  0  0  0  0  0  0  0  0
  139.6850   71.1970  223.1080 O   0  0  0  0  0  0  0  0  0  0  0  0
  139.0230   69.0860  222.6140 N   0  0  0  0  0  0  0  0  0  0  0  0
  140.6470   71.8370  225.8400 C   0  0  0  0  0  0  0  0  0  0  0  0
  141.4810   72.2640  227.0610 C   0  0  0  0  0  0  0  0  0  0  0  0
  140.9240   71.6670  228.3630 C   0  0  0  0  0  0  0  0  0  0  0  0
  140.9740   70.1320  228.3330 C   0  0  0  0  0  0  0  0  0  0  0  0
  137.7518   65.9960  222.5496 H   0  0  0  0  0  0  0  0  0  0  0  0
  137.5029   67.3311  221.3740 H   0  0  0  0  0  0  0  0  0  0  0  0
  139.0452   66.4102  221.3740 H   0  0  0  0  0  0  0  0  0  0  0  0
  141.2153   72.0606  224.9251 H   0  0  0  0  0  0  0  0  0  0  0  0
  139.6985   72.3936  225.8630 H   0  0  0  0  0  0  0  0  0  0  0  0
  142.5165   71.9190  226.9244 H   0  0  0  0  0  0  0  0  0  0  0  0
  141.4395   73.3604  227.1397 H   0  0  0  0  0  0  0  0  0  0  0  0
  141.5245   72.0296  229.2103 H   0  0  0  0  0  0  0  0  0  0  0  0
  139.8751   71.9805  228.4706 H   0  0  0  0  0  0  0  0  0  0  0  0
  142.0179   69.8025  228.4412 H   0  0  0  0  0  0  0  0  0  0  0  0
  140.3631   69.7419  229.1604 H   0  0  0  0  0  0  0  0  0  0  0  0
  1  2  1  0
  2  3  2  0
  3  4  1  0
  4  5  1  0
  5  6  1  0
  6  7  2  0
  7  8  1  0
  8  9  1  0
  9 10  2  0
  9 11  1  0
  7 12  1  0
 12 13  1  0
 13 14  1  0
 14 15  1  0
 11  2  1  0
  8  4  2  0
 15  6  1  0
  1 16  1  0
  1 17  1  0
  1 18  1  0
 12 19  1  0
 12 20  1  0
 13 21  1  0
 13 22  1  0
 14 23  1  0
 14 24  1  0
 15 25  1  0
 15 26  1  0
M  CHG  1  11  -1
M  END
>  <UniqueID>  (74) 
28

>  <SMILES>  (74) 
Cc1nc2sc3c(c2c(=O)[n-]1)CCCC3

>  <Energy>  (74) 
59.48019116426498

>  <Genealogy>  (74) 
Cc1nc2sc3c(c2c(=O)[n-]1)CCCC3 (protonated)
Cc1nc2sc3c(c2c(=O)[n-]1)CCCC3 (3D coordinates assigned)
Cc1nc2sc3c(c2c(=O)[n-]1)CCCC3 (nonaromatic ring conformer: 59.48019116426498 kcal/mol)

>  <smiles>  (74) 
Cc1nc2sc3c(c2c(=O)[nH]1)CCCC3

>  <score_type>  (74) 
oracle

>  <origin>  (74) 
autodockgpu

>  <m_score__min__energy>  (74) 
-6.1600000000000001

>  <m_primary>  (74) 
energy

>  <meeko>  (74) 
{"free_energy": -6.15, "intermolecular_energy": -6.15, "internal_energy": 0.0, "cluster_size": 20, "cluster_id": 1, "rank_in_cluster": 18}

>  <energy>  (74) 
-6.16

>  <cluster_rmsd>  (74) 
0.05

>  <rmsd>  (74) 
272.14

>  <cluster>  (74) 
1

$$$$
ULEHMWWQIZHLHN-JPZOJEBQNA-M
     RDKit          3D

 26 28  0  0  0  0  0  0  0  0999 V2000
  138.2410   66.8120  222.0130 C   0  0  0  0  0  0  0  0  0  0  0  0
  138.8190   67.7820  222.9870 C   0  0  0  0  0  0  0  0  0  0  0  0
  139.0860   67.3860  224.2640 N   0  0  0  0  0  0  0  0  0  0  0  0
  139.5790   68.2920  225.1410 C   0  0  0  0  0  0  0  0  0  0  0  0
  139.9600   68.0180  226.7520 S   0  0  0  0  0  0  0  0  0  0  0  0
  140.4310   69.6170  227.0370 C   0  0  0  0  0  0  0  0  0  0  0  0
  140.3290   70.3690  225.8620 C   0  0  0  0  0  0  0  0  0  0  0  0
  139.8160   69.6100  224.7930 C   0  0  0  0  0  0  0  0  0  0  0  0
  139.5130   70.0080  223.4860 C   0  0  0  0  0  0  0  0  0  0  0  0
  139.6810   71.1960  223.1040 O   0  0  0  0  0  0  0  0  0  0  0  0
  139.0200   69.0820  222.6150 N   0  0  0  0  0  0  0  0  0  0  0  0
  140.6480   71.8420  225.8320 C   0  0  0  0  0  0  0  0  0  0  0  0
  141.4850   72.2720  227.0500 C   0  0  0  0  0  0  0  0  0  0  0  0
  140.9310   71.6770  228.3550 C   0  0  0  0  0  0  0  0  0  0  0  0
  140.9830   70.1420  228.3270 C   0  0  0  0  0  0  0  0  0  0  0  0
  137.7521   65.9916  222.5588 H   0  0  0  0  0  0  0  0  0  0  0  0
  137.5007   67.3242  221.3809 H   0  0  0  0  0  0  0  0  0  0  0  0
  139.0438   66.4047  221.3809 H   0  0  0  0  0  0  0  0  0  0  0  0
  141.2134   72.0650  224.9152 H   0  0  0  0  0  0  0  0  0  0  0  0
  139.6988   72.3973  225.8570 H   0  0  0  0  0  0  0  0  0  0  0  0
  142.5203   71.9272  226.9116 H   0  0  0  0  0  0  0  0  0  0  0  0
  141.4435   73.3685  227.1266 H   0  0  0  0  0  0  0  0  0  0  0  0
  141.5329   72.0418  229.2004 H   0  0  0  0  0  0  0  0  0  0  0  0
  139.8821   71.9897  228.4647 H   0  0  0  0  0  0  0  0  0  0  0  0
  142.0276   69.8141  228.4328 H   0  0  0  0  0  0  0  0  0  0  0  0
  140.3748   69.7523  229.1566 H   0  0  0  0  0  0  0  0  0  0  0  0
  1  2  1  0
  2  3  2  0
  3  4  1  0
  4  5  1  0
  5  6  1  0
  6  7  2  0
  7  8  1  0
  8  9  1  0
  9 10  2  0
  9 11  1  0
  7 12  1  0
 12 13  1  0
 13 14  1  0
 14 15  1  0
 11  2  1  0
  8  4  2  0
 15  6  1  0
  1 16  1  0
  1 17  1  0
  1 18  1  0
 12 19  1  0
 12 20  1  0
 13 21  1  0
 13 22  1  0
 14 23  1  0
 14 24  1  0
 15 25  1  0
 15 26  1  0
M  CHG  1  11  -1
M  END
>  <UniqueID>  (75) 
28

>  <SMILES>  (75) 
Cc1nc2sc3c(c2c(=O)[n-]1)CCCC3

>  <Energy>  (75) 
59.48019116426498

>  <Genealogy>  (75) 
Cc1nc2sc3c(c2c(=O)[n-]1)CCCC3 (protonated)
Cc1nc2sc3c(c2c(=O)[n-]1)CCCC3 (3D coordinates assigned)
Cc1nc2sc3c(c2c(=O)[n-]1)CCCC3 (nonaromatic ring conformer: 59.48019116426498 kcal/mol)

>  <smiles>  (75) 
Cc1nc2sc3c(c2c(=O)[nH]1)CCCC3

>  <score_type>  (75) 
oracle

>  <origin>  (75) 
autodockgpu

>  <m_score__min__energy>  (75) 
-6.1600000000000001

>  <m_primary>  (75) 
energy

>  <meeko>  (75) 
{"free_energy": -6.15, "intermolecular_energy": -6.15, "internal_energy": 0.0, "cluster_size": 20, "cluster_id": 1, "rank_in_cluster": 20}

>  <energy>  (75) 
-6.16

>  <cluster_rmsd>  (75) 
0.02

>  <rmsd>  (75) 
272.16

>  <cluster>  (75) 
1

$$$$
ULEHMWWQIZHLHN-JPZOJEBQNA-M
     RDKit          3D

 26 28  0  0  0  0  0  0  0  0999 V2000
  138.2460   66.8230  222.0170 C   0  0  0  0  0  0  0  0  0  0  0  0
  138.8250   67.7900  222.9930 C   0  0  0  0  0  0  0  0  0  0  0  0
  139.0840   67.3930  224.2710 N   0  0  0  0  0  0  0  0  0  0  0  0
  139.5790   68.2950  225.1510 C   0  0  0  0  0  0  0  0  0  0  0  0
  139.9510   68.0190  226.7640 S   0  0  0  0  0  0  0  0  0  0  0  0
  140.4300   69.6160  227.0510 C   0  0  0  0  0  0  0  0  0  0  0  0
  140.3370   70.3680  225.8750 C   0  0  0  0  0  0  0  0  0  0  0  0
  139.8250   69.6120  224.8040 C   0  0  0  0  0  0  0  0  0  0  0  0
  139.5300   70.0120  223.4950 C   0  0  0  0  0  0  0  0  0  0  0  0
  139.7060   71.1990  223.1140 O   0  0  0  0  0  0  0  0  0  0  0  0
  139.0350   69.0890  222.6220 N   0  0  0  0  0  0  0  0  0  0  0  0
  140.6650   71.8400  225.8460 C   0  0  0  0  0  0  0  0  0  0  0  0
  141.4980   72.2650  227.0680 C   0  0  0  0  0  0  0  0  0  0  0  0
  140.9350   71.6720  228.3710 C   0  0  0  0  0  0  0  0  0  0  0  0
  140.9790   70.1380  228.3430 C   0  0  0  0  0  0  0  0  0  0  0  0
  137.7549   66.0027  222.5610 H   0  0  0  0  0  0  0  0  0  0  0  0
  137.5074   67.3378  221.3850 H   0  0  0  0  0  0  0  0  0  0  0  0
  139.0486   66.4150  221.3850 H   0  0  0  0  0  0  0  0  0  0  0  0
  141.2364   72.0593  224.9320 H   0  0  0  0  0  0  0  0  0  0  0  0
  139.7191   72.4011  225.8656 H   0  0  0  0  0  0  0  0  0  0  0  0
  142.5323   71.9151  226.9342 H   0  0  0  0  0  0  0  0  0  0  0  0
  141.4612   73.3617  227.1450 H   0  0  0  0  0  0  0  0  0  0  0  0
  141.5351   72.0334  229.2191 H   0  0  0  0  0  0  0  0  0  0  0  0
  139.8872   71.9901  228.4760 H   0  0  0  0  0  0  0  0  0  0  0  0
  142.0215   69.8046  228.4533 H   0  0  0  0  0  0  0  0  0  0  0  0
  140.3651   69.7515  229.1699 H   0  0  0  0  0  0  0  0  0  0  0  0
  1  2  1  0
  2  3  2  0
  3  4  1  0
  4  5  1  0
  5  6  1  0
  6  7  2  0
  7  8  1  0
  8  9  1  0
  9 10  2  0
  9 11  1  0
  7 12  1  0
 12 13  1  0
 13 14  1  0
 14 15  1  0
 11  2  1  0
  8  4  2  0
 15  6  1  0
  1 16  1  0
  1 17  1  0
  1 18  1  0
 12 19  1  0
 12 20  1  0
 13 21  1  0
 13 22  1  0
 14 23  1  0
 14 24  1  0
 15 25  1  0
 15 26  1  0
M  CHG  1  11  -1
M  END
>  <UniqueID>  (76) 
28

>  <SMILES>  (76) 
Cc1nc2sc3c(c2c(=O)[n-]1)CCCC3

>  <Energy>  (76) 
59.48019116426498

>  <Genealogy>  (76) 
Cc1nc2sc3c(c2c(=O)[n-]1)CCCC3 (protonated)
Cc1nc2sc3c(c2c(=O)[n-]1)CCCC3 (3D coordinates assigned)
Cc1nc2sc3c(c2c(=O)[n-]1)CCCC3 (nonaromatic ring conformer: 59.48019116426498 kcal/mol)

>  <smiles>  (76) 
Cc1nc2sc3c(c2c(=O)[nH]1)CCCC3

>  <score_type>  (76) 
oracle

>  <origin>  (76) 
autodockgpu

>  <m_score__min__energy>  (76) 
-6.1600000000000001

>  <m_primary>  (76) 
energy

>  <meeko>  (76) 
{"free_energy": -6.16, "intermolecular_energy": -6.16, "internal_energy": 0.0, "cluster_size": 20, "cluster_id": 1, "rank_in_cluster": 15}

>  <energy>  (76) 
-6.16

>  <cluster_rmsd>  (76) 
0.02

>  <rmsd>  (76) 
272.15

>  <cluster>  (76) 
1

$$$$
ULEHMWWQIZHLHN-JPZOJEBQNA-M
     RDKit          3D

 26 28  0  0  0  0  0  0  0  0999 V2000
  138.2390   66.8310  222.0040 C   0  0  0  0  0  0  0  0  0  0  0  0
  138.8250   67.7960  222.9790 C   0  0  0  0  0  0  0  0  0  0  0  0
  139.0740   67.4010  224.2600 N   0  0  0  0  0  0  0  0  0  0  0  0
  139.5750   68.3020  225.1370 C   0  0  0  0  0  0  0  0  0  0  0  0
  139.9380   68.0290  226.7530 S   0  0  0  0  0  0  0  0  0  0  0  0
  140.4330   69.6210  227.0350 C   0  0  0  0  0  0  0  0  0  0  0  0
  140.3540   70.3690  225.8560 C   0  0  0  0  0  0  0  0  0  0  0  0
  139.8370   69.6140  224.7860 C   0  0  0  0  0  0  0  0  0  0  0  0
  139.5520   70.0120  223.4740 C   0  0  0  0  0  0  0  0  0  0  0  0
  139.7420   71.1950  223.0890 O   0  0  0  0  0  0  0  0  0  0  0  0
  139.0510   69.0910  222.6030 N   0  0  0  0  0  0  0  0  0  0  0  0
  140.6970   71.8370  225.8220 C   0  0  0  0  0  0  0  0  0  0  0  0
  141.5310   72.2590  227.0460 C   0  0  0  0  0  0  0  0  0  0  0  0
  140.9560   71.6780  228.3480 C   0  0  0  0  0  0  0  0  0  0  0  0
  140.9830   70.1430  228.3270 C   0  0  0  0  0  0  0  0  0  0  0  0
  137.7431   66.0144  222.5492 H   0  0  0  0  0  0  0  0  0  0  0  0
  137.5032   67.3497  221.3719 H   0  0  0  0  0  0  0  0  0  0  0  0
  139.0386   66.4173  221.3719 H   0  0  0  0  0  0  0  0  0  0  0  0
  141.2737   72.0467  224.9090 H   0  0  0  0  0  0  0  0  0  0  0  0
  139.7568   72.4078  225.8362 H   0  0  0  0  0  0  0  0  0  0  0  0
  142.5619   71.8971  226.9179 H   0  0  0  0  0  0  0  0  0  0  0  0
  141.5069   73.3564  227.1179 H   0  0  0  0  0  0  0  0  0  0  0  0
  141.5562   72.0364  229.1973 H   0  0  0  0  0  0  0  0  0  0  0  0
  139.9113   72.0080  228.4467 H   0  0  0  0  0  0  0  0  0  0  0  0
  142.0213   69.7986  228.4428 H   0  0  0  0  0  0  0  0  0  0  0  0
  140.3616   69.7672  229.1532 H   0  0  0  0  0  0  0  0  0  0  0  0
  1  2  1  0
  2  3  2  0
  3  4  1  0
  4  5  1  0
  5  6  1  0
  6  7  2  0
  7  8  1  0
  8  9  1  0
  9 10  2  0
  9 11  1  0
  7 12  1  0
 12 13  1  0
 13 14  1  0
 14 15  1  0
 11  2  1  0
  8  4  2  0
 15  6  1  0
  1 16  1  0
  1 17  1  0
  1 18  1  0
 12 19  1  0
 12 20  1  0
 13 21  1  0
 13 22  1  0
 14 23  1  0
 14 24  1  0
 15 25  1  0
 15 26  1  0
M  CHG  1  11  -1
M  END
>  <UniqueID>  (77) 
28

>  <SMILES>  (77) 
Cc1nc2sc3c(c2c(=O)[n-]1)CCCC3

>  <Energy>  (77) 
59.48019116426498

>  <Genealogy>  (77) 
Cc1nc2sc3c(c2c(=O)[n-]1)CCCC3 (protonated)
Cc1nc2sc3c(c2c(=O)[n-]1)CCCC3 (3D coordinates assigned)
Cc1nc2sc3c(c2c(=O)[n-]1)CCCC3 (nonaromatic ring conformer: 59.48019116426498 kcal/mol)

>  <smiles>  (77) 
Cc1nc2sc3c(c2c(=O)[nH]1)CCCC3

>  <score_type>  (77) 
oracle

>  <origin>  (77) 
autodockgpu

>  <m_score__min__energy>  (77) 
-6.1600000000000001

>  <m_primary>  (77) 
energy

>  <meeko>  (77) 
{"free_energy": -6.16, "intermolecular_energy": -6.16, "internal_energy": 0.0, "cluster_size": 20, "cluster_id": 1, "rank_in_cluster": 12}

>  <energy>  (77) 
-6.15

>  <cluster_rmsd>  (77) 
0.05

>  <rmsd>  (77) 
272.14

>  <cluster>  (77) 
1

$$$$
ULEHMWWQIZHLHN-JPZOJEBQNA-M
     RDKit          3D

 26 28  0  0  0  0  0  0  0  0999 V2000
  138.2280   66.8400  222.0090 C   0  0  0  0  0  0  0  0  0  0  0  0
  138.8180   67.8040  222.9830 C   0  0  0  0  0  0  0  0  0  0  0  0
  139.0750   67.4060  224.2620 N   0  0  0  0  0  0  0  0  0  0  0  0
  139.5800   68.3060  225.1380 C   0  0  0  0  0  0  0  0  0  0  0  0
  139.9520   68.0310  226.7510 S   0  0  0  0  0  0  0  0  0  0  0  0
  140.4460   69.6230  227.0340 C   0  0  0  0  0  0  0  0  0  0  0  0
  140.3590   70.3730  225.8570 C   0  0  0  0  0  0  0  0  0  0  0  0
  139.8370   69.6200  224.7880 C   0  0  0  0  0  0  0  0  0  0  0  0
  139.5450   70.0200  223.4790 C   0  0  0  0  0  0  0  0  0  0  0  0
  139.7310   71.2040  223.0950 O   0  0  0  0  0  0  0  0  0  0  0  0
  139.0400   69.1000  222.6080 N   0  0  0  0  0  0  0  0  0  0  0  0
  140.7000   71.8420  225.8240 C   0  0  0  0  0  0  0  0  0  0  0  0
  141.5400   72.2620  227.0440 C   0  0  0  0  0  0  0  0  0  0  0  0
  140.9730   71.6780  228.3480 C   0  0  0  0  0  0  0  0  0  0  0  0
  141.0020   70.1430  228.3240 C   0  0  0  0  0  0  0  0  0  0  0  0
  137.7296   66.0256  222.5553 H   0  0  0  0  0  0  0  0  0  0  0  0
  137.4937   67.3607  221.3768 H   0  0  0  0  0  0  0  0  0  0  0  0
  139.0258   66.4230  221.3768 H   0  0  0  0  0  0  0  0  0  0  0  0
  141.2713   72.0543  224.9083 H   0  0  0  0  0  0  0  0  0  0  0  0
  139.7592   72.4117  225.8444 H   0  0  0  0  0  0  0  0  0  0  0  0
  142.5704   71.9013  226.9095 H   0  0  0  0  0  0  0  0  0  0  0  0
  141.5150   73.3592  227.1183 H   0  0  0  0  0  0  0  0  0  0  0  0
  141.5774   72.0357  229.1946 H   0  0  0  0  0  0  0  0  0  0  0  0
  139.9284   72.0064  228.4531 H   0  0  0  0  0  0  0  0  0  0  0  0
  142.0413   69.7997  228.4337 H   0  0  0  0  0  0  0  0  0  0  0  0
  140.3856   69.7647  229.1528 H   0  0  0  0  0  0  0  0  0  0  0  0
  1  2  1  0
  2  3  2  0
  3  4  1  0
  4  5  1  0
  5  6  1  0
  6  7  2  0
  7  8  1  0
  8  9  1  0
  9 10  2  0
  9 11  1  0
  7 12  1  0
 12 13  1  0
 13 14  1  0
 14 15  1  0
 11  2  1  0
  8  4  2  0
 15  6  1  0
  1 16  1  0
  1 17  1  0
  1 18  1  0
 12 19  1  0
 12 20  1  0
 13 21  1  0
 13 22  1  0
 14 23  1  0
 14 24  1  0
 15 25  1  0
 15 26  1  0
M  CHG  1  11  -1
M  END
>  <UniqueID>  (78) 
28

>  <SMILES>  (78) 
Cc1nc2sc3c(c2c(=O)[n-]1)CCCC3

>  <Energy>  (78) 
59.48019116426498

>  <Genealogy>  (78) 
Cc1nc2sc3c(c2c(=O)[n-]1)CCCC3 (protonated)
Cc1nc2sc3c(c2c(=O)[n-]1)CCCC3 (3D coordinates assigned)
Cc1nc2sc3c(c2c(=O)[n-]1)CCCC3 (nonaromatic ring conformer: 59.48019116426498 kcal/mol)

>  <smiles>  (78) 
Cc1nc2sc3c(c2c(=O)[nH]1)CCCC3

>  <score_type>  (78) 
oracle

>  <origin>  (78) 
autodockgpu

>  <m_score__min__energy>  (78) 
-6.1600000000000001

>  <m_primary>  (78) 
energy

>  <meeko>  (78) 
{"free_energy": -6.15, "intermolecular_energy": -6.15, "internal_energy": 0.0, "cluster_size": 20, "cluster_id": 1, "rank_in_cluster": 19}

>  <energy>  (78) 
-6.15

>  <cluster_rmsd>  (78) 
0.03

>  <rmsd>  (78) 
272.15

>  <cluster>  (78) 
1

$$$$
ULEHMWWQIZHLHN-JPZOJEBQNA-M
     RDKit          3D

 26 28  0  0  0  0  0  0  0  0999 V2000
  138.2390   66.8080  222.0080 C   0  0  0  0  0  0  0  0  0  0  0  0
  138.8240   67.7770  222.9810 C   0  0  0  0  0  0  0  0  0  0  0  0
  139.0760   67.3840  224.2620 N   0  0  0  0  0  0  0  0  0  0  0  0
  139.5750   68.2870  225.1380 C   0  0  0  0  0  0  0  0  0  0  0  0
  139.9410   68.0170  226.7530 S   0  0  0  0  0  0  0  0  0  0  0  0
  140.4310   69.6110  227.0330 C   0  0  0  0  0  0  0  0  0  0  0  0
  140.3470   70.3580  225.8530 C   0  0  0  0  0  0  0  0  0  0  0  0
  139.8320   69.6000  224.7840 C   0  0  0  0  0  0  0  0  0  0  0  0
  139.5440   69.9950  223.4730 C   0  0  0  0  0  0  0  0  0  0  0  0
  139.7300   71.1790  223.0860 O   0  0  0  0  0  0  0  0  0  0  0  0
  139.0440   69.0720  222.6030 N   0  0  0  0  0  0  0  0  0  0  0  0
  140.6860   71.8270  225.8180 C   0  0  0  0  0  0  0  0  0  0  0  0
  141.5200   72.2520  227.0400 C   0  0  0  0  0  0  0  0  0  0  0  0
  140.9480   71.6710  228.3430 C   0  0  0  0  0  0  0  0  0  0  0  0
  140.9810   70.1360  228.3240 C   0  0  0  0  0  0  0  0  0  0  0  0
  137.7459   65.9912  222.5554 H   0  0  0  0  0  0  0  0  0  0  0  0
  137.5011   67.3235  221.3757 H   0  0  0  0  0  0  0  0  0  0  0  0
  139.0389   66.3951  221.3757 H   0  0  0  0  0  0  0  0  0  0  0  0
  141.2609   72.0378  224.9042 H   0  0  0  0  0  0  0  0  0  0  0  0
  139.7442   72.3951  225.8333 H   0  0  0  0  0  0  0  0  0  0  0  0
  142.5516   71.8925  226.9111 H   0  0  0  0  0  0  0  0  0  0  0  0
  141.4933   73.3494  227.1109 H   0  0  0  0  0  0  0  0  0  0  0  0
  141.5473   72.0329  229.1915 H   0  0  0  0  0  0  0  0  0  0  0  0
  139.9021   71.9972  228.4419 H   0  0  0  0  0  0  0  0  0  0  0  0
  142.0207   69.7956  228.4387 H   0  0  0  0  0  0  0  0  0  0  0  0
  140.3627   69.7584  229.1517 H   0  0  0  0  0  0  0  0  0  0  0  0
  1  2  1  0
  2  3  2  0
  3  4  1  0
  4  5  1  0
  5  6  1  0
  6  7  2  0
  7  8  1  0
  8  9  1  0
  9 10  2  0
  9 11  1  0
  7 12  1  0
 12 13  1  0
 13 14  1  0
 14 15  1  0
 11  2  1  0
  8  4  2  0
 15  6  1  0
  1 16  1  0
  1 17  1  0
  1 18  1  0
 12 19  1  0
 12 20  1  0
 13 21  1  0
 13 22  1  0
 14 23  1  0
 14 24  1  0
 15 25  1  0
 15 26  1  0
M  CHG  1  11  -1
M  END
>  <UniqueID>  (79) 
28

>  <SMILES>  (79) 
Cc1nc2sc3c(c2c(=O)[n-]1)CCCC3

>  <Energy>  (79) 
59.48019116426498

>  <Genealogy>  (79) 
Cc1nc2sc3c(c2c(=O)[n-]1)CCCC3 (protonated)
Cc1nc2sc3c(c2c(=O)[n-]1)CCCC3 (3D coordinates assigned)
Cc1nc2sc3c(c2c(=O)[n-]1)CCCC3 (nonaromatic ring conformer: 59.48019116426498 kcal/mol)

>  <smiles>  (79) 
Cc1nc2sc3c(c2c(=O)[nH]1)CCCC3

>  <score_type>  (79) 
oracle

>  <origin>  (79) 
autodockgpu

>  <m_score__min__energy>  (79) 
-6.1600000000000001

>  <m_primary>  (79) 
energy

>  <meeko>  (79) 
{"free_energy": -6.16, "intermolecular_energy": -6.16, "internal_energy": 0.0, "cluster_size": 20, "cluster_id": 1, "rank_in_cluster": 10}

>  <energy>  (79) 
-6.15

>  <cluster_rmsd>  (79) 
0.02

>  <rmsd>  (79) 
272.15

>  <cluster>  (79) 
1

$$$$
ULEHMWWQIZHLHN-JPZOJEBQNA-M
     RDKit          3D

 26 28  0  0  0  0  0  0  0  0999 V2000
  138.2230   66.8110  222.0310 C   0  0  0  0  0  0  0  0  0  0  0  0
  138.8110   67.7810  223.0000 C   0  0  0  0  0  0  0  0  0  0  0  0
  139.0760   67.3880  224.2790 N   0  0  0  0  0  0  0  0  0  0  0  0
  139.5790   68.2930  225.1510 C   0  0  0  0  0  0  0  0  0  0  0  0
  139.9590   68.0230  226.7630 S   0  0  0  0  0  0  0  0  0  0  0  0
  140.4450   69.6190  227.0400 C   0  0  0  0  0  0  0  0  0  0  0  0
  140.3490   70.3660  225.8620 C   0  0  0  0  0  0  0  0  0  0  0  0
  139.8270   69.6070  224.7970 C   0  0  0  0  0  0  0  0  0  0  0  0
  139.5270   70.0020  223.4880 C   0  0  0  0  0  0  0  0  0  0  0  0
  139.7040   71.1860  223.1000 O   0  0  0  0  0  0  0  0  0  0  0  0
  139.0240   69.0770  222.6220 N   0  0  0  0  0  0  0  0  0  0  0  0
  140.6810   71.8360  225.8240 C   0  0  0  0  0  0  0  0  0  0  0  0
  141.5230   72.2640  227.0390 C   0  0  0  0  0  0  0  0  0  0  0  0
  140.9650   71.6800  228.3480 C   0  0  0  0  0  0  0  0  0  0  0  0
  141.0040   70.1450  228.3270 C   0  0  0  0  0  0  0  0  0  0  0  0
  137.7293   65.9965  222.5814 H   0  0  0  0  0  0  0  0  0  0  0  0
  137.4850   67.3262  221.3986 H   0  0  0  0  0  0  0  0  0  0  0  0
  139.0211   66.3950  221.3986 H   0  0  0  0  0  0  0  0  0  0  0  0
  141.2474   72.0494  224.9055 H   0  0  0  0  0  0  0  0  0  0  0  0
  139.7370   72.4001  225.8468 H   0  0  0  0  0  0  0  0  0  0  0  0
  142.5550   71.9092  226.9011 H   0  0  0  0  0  0  0  0  0  0  0  0
  141.4913   73.3612  227.1105 H   0  0  0  0  0  0  0  0  0  0  0  0
  141.5708   72.0436  229.1911 H   0  0  0  0  0  0  0  0  0  0  0  0
  139.9190   72.0023  228.4575 H   0  0  0  0  0  0  0  0  0  0  0  0
  142.0460   69.8087  228.4324 H   0  0  0  0  0  0  0  0  0  0  0  0
  140.3942   69.7641  229.1595 H   0  0  0  0  0  0  0  0  0  0  0  0
  1  2  1  0
  2  3  2  0
  3  4  1  0
  4  5  1  0
  5  6  1  0
  6  7  2  0
  7  8  1  0
  8  9  1  0
  9 10  2  0
  9 11  1  0
  7 12  1  0
 12 13  1  0
 13 14  1  0
 14 15  1  0
 11  2  1  0
  8  4  2  0
 15  6  1  0
  1 16  1  0
  1 17  1  0
  1 18  1  0
 12 19  1  0
 12 20  1  0
 13 21  1  0
 13 22  1  0
 14 23  1  0
 14 24  1  0
 15 25  1  0
 15 26  1  0
M  CHG  1  11  -1
M  END
>  <UniqueID>  (80) 
28

>  <SMILES>  (80) 
Cc1nc2sc3c(c2c(=O)[n-]1)CCCC3

>  <Energy>  (80) 
59.48019116426498

>  <Genealogy>  (80) 
Cc1nc2sc3c(c2c(=O)[n-]1)CCCC3 (protonated)
Cc1nc2sc3c(c2c(=O)[n-]1)CCCC3 (3D coordinates assigned)
Cc1nc2sc3c(c2c(=O)[n-]1)CCCC3 (nonaromatic ring conformer: 59.48019116426498 kcal/mol)

>  <smiles>  (80) 
Cc1nc2sc3c(c2c(=O)[nH]1)CCCC3

>  <score_type>  (80) 
oracle

>  <origin>  (80) 
autodockgpu

>  <m_score__min__energy>  (80) 
-6.1600000000000001

>  <m_primary>  (80) 
energy

>  <meeko>  (80) 
{"free_energy": -6.16, "intermolecular_energy": -6.16, "internal_energy": 0.0, "cluster_size": 20, "cluster_id": 1, "rank_in_cluster": 1}

>  <energy>  (80) 
-6.15

>  <cluster_rmsd>  (80) 
0.02

>  <rmsd>  (80) 
272.15

>  <cluster>  (80) 
1

$$$$
