
     RDKit          3D

 59 62  0  0  0  0  0  0  0  0999 V2000
  141.0390   72.1720  221.5320 O   0  0  0  0  0  0  0  0  0  0  0  0
  140.1290   72.2510  222.3970 C   0  0  0  0  0  0  0  0  0  0  0  0
  139.0910   73.2230  222.3240 N   0  0  0  0  0  0  0  0  0  0  0  0
  139.1100   74.1410  221.2040 C   0  0  0  0  0  0  0  0  0  0  0  0
  140.3380   74.9920  221.2850 C   0  0  0  0  0  0  0  0  0  0  0  0
  140.5740   75.6770  222.3170 O   0  0  0  0  0  0  0  0  0  0  0  0
  141.2190   74.9900  220.1510 N   0  0  0  0  0  0  0  0  0  0  0  0
  141.0240   74.3030  218.8750 C   0  0  0  0  0  0  0  0  0  0  0  0
  142.4460   74.0170  218.4340 C   0  0  2  0  0  0  0  0  0  0  0  0
  142.8660   72.8490  219.0230 O   0  0  0  0  0  0  0  0  0  0  0  0
  143.2010   75.2460  218.9060 C   0  0  0  0  0  0  0  0  0  0  0  0
  142.4830   75.7130  220.1310 C   0  0  1  0  0  0  0  0  0  0  0  0
  142.1490   77.1590  220.0780 C   0  0  0  0  0  0  0  0  0  0  0  0
  142.1450   77.8180  219.0190 O   0  0  0  0  0  0  0  0  0  0  0  0
  141.8240   77.7830  221.3320 N   0  0  0  0  0  0  0  0  0  0  0  0
  141.4900   79.1970  221.3340 C   0  0  0  0  0  0  0  0  0  0  0  0
  142.4110   79.8690  222.3300 C   0  0  0  0  0  0  0  0  0  0  0  0
  141.9040   81.2510  222.6960 C   0  0  0  0  0  0  0  0  0  0  0  0
  140.6230   81.1270  223.4780 C   0  0  0  0  0  0  0  0  0  0  0  0
  140.0120   79.7710  223.2100 C   0  0  0  0  0  0  0  0  0  0  0  0
  140.0650   79.4380  221.7520 C   0  0  0  0  0  0  0  0  0  0  0  0
  140.0970   71.3320  223.5330 C   0  0  0  0  0  0  0  0  0  0  0  0
  139.5530   70.0510  223.3900 C   0  0  0  0  0  0  0  0  0  0  0  0
  139.5260   69.1790  224.4800 C   0  0  0  0  0  0  0  0  0  0  0  0
  140.0250   69.5420  225.7160 C   0  0  0  0  0  0  0  0  0  0  0  0
  140.0080   68.6930  226.8100 C   0  0  0  0  0  0  0  0  0  0  0  0
  140.5400   69.1760  227.9970 C   0  0  0  0  0  0  0  0  0  0  0  0
  140.5500   68.3880  229.0990 F   0  0  0  0  0  0  0  0  0  0  0  0
  141.0700   70.4480  228.1050 C   0  0  0  0  0  0  0  0  0  0  0  0
  141.0810   71.2880  227.0000 C   0  0  0  0  0  0  0  0  0  0  0  0
  140.5540   70.8240  225.8110 C   0  0  0  0  0  0  0  0  0  0  0  0
  140.5730   71.6510  224.7500 N   0  0  0  0  0  0  0  0  0  0  0  0
  138.3360   73.2830  223.0490 H   0  0  0  0  0  0  0  0  0  0  0  0
  139.1182   73.5723  220.2625 H   0  0  0  0  0  0  0  0  0  0  0  0
  138.2152   74.7801  221.2352 H   0  0  0  0  0  0  0  0  0  0  0  0
  140.4544   73.3714  219.0083 H   0  0  0  0  0  0  0  0  0  0  0  0
  140.4488   74.8909  218.1445 H   0  0  0  0  0  0  0  0  0  0  0  0
  142.5872   73.8616  217.3542 H   0  0  0  0  0  0  0  0  0  0  0  0
  142.2970   72.5740  219.8030 H   0  0  0  0  0  0  0  0  0  0  0  0
  144.2428   74.9877  219.1466 H   0  0  0  0  0  0  0  0  0  0  0  0
  143.2337   76.0261  218.1312 H   0  0  0  0  0  0  0  0  0  0  0  0
  143.1224   75.5409  221.0094 H   0  0  0  0  0  0  0  0  0  0  0  0
  141.8230   77.2510  222.2180 H   0  0  0  0  0  0  0  0  0  0  0  0
  141.6086   79.5988  220.3169 H   0  0  0  0  0  0  0  0  0  0  0  0
  142.4661   79.2538  223.2402 H   0  0  0  0  0  0  0  0  0  0  0  0
  143.4058   79.9717  221.8720 H   0  0  0  0  0  0  0  0  0  0  0  0
  142.6581   81.7677  223.3078 H   0  0  0  0  0  0  0  0  0  0  0  0
  141.7178   81.8274  221.7778 H   0  0  0  0  0  0  0  0  0  0  0  0
  140.8354   81.2299  224.5524 H   0  0  0  0  0  0  0  0  0  0  0  0
  139.9223   81.9175  223.1710 H   0  0  0  0  0  0  0  0  0  0  0  0
  140.5685   79.0078  223.7738 H   0  0  0  0  0  0  0  0  0  0  0  0
  138.9588   79.7922  223.5267 H   0  0  0  0  0  0  0  0  0  0  0  0
  139.4710   78.5317  221.5629 H   0  0  0  0  0  0  0  0  0  0  0  0
  139.6547   80.2785  221.1731 H   0  0  0  0  0  0  0  0  0  0  0  0
  139.1467   69.7310  222.4192 H   0  0  0  0  0  0  0  0  0  0  0  0
  139.0954   68.1750  224.3510 H   0  0  0  0  0  0  0  0  0  0  0  0
  139.5901   67.6778  226.7408 H   0  0  0  0  0  0  0  0  0  0  0  0
  141.4822   70.7938  229.0644 H   0  0  0  0  0  0  0  0  0  0  0  0
  141.5008   72.3023  227.0700 H   0  0  0  0  0  0  0  0  0  0  0  0
  1  2  2  0
  2  3  1  0
  3  4  1  0
  4  5  1  0
  5  6  2  0
  5  7  1  0
  7  8  1  0
  8  9  1  0
  9 10  1  0
  9 11  1  0
 11 12  1  0
 12 13  1  0
 13 14  2  0
 13 15  1  0
 15 16  1  0
 16 17  1  0
 17 18  1  0
 18 19  1  0
 19 20  1  0
 20 21  1  0
  2 22  1  0
 22 23  2  0
 23 24  1  0
 24 25  2  0
 25 26  1  0
 26 27  2  0
 27 28  1  0
 27 29  1  0
 29 30  2  0
 30 31  1  0
 31 32  2  0
 12  7  1  0
 21 16  1  0
 32 22  1  0
 31 25  1  0
  3 33  1  0
  4 34  1  0
  4 35  1  0
  8 36  1  0
  8 37  1  0
  9 38  1  6
 10 39  1  0
 11 40  1  0
 11 41  1  0
 12 42  1  1
 15 43  1  0
 16 44  1  0
 17 45  1  0
 17 46  1  0
 18 47  1  0
 18 48  1  0
 19 49  1  0
 19 50  1  0
 20 51  1  0
 20 52  1  0
 21 53  1  0
 21 54  1  0
 23 55  1  0
 24 56  1  0
 26 57  1  0
 29 58  1  0
 30 59  1  0
M  END
>  <smiles>  (1) 
O=C(NCC(=O)N1C[C@H](O)C[C@H]1C(=O)NC1CCCCC1)c1ccc2cc(F)ccc2n1

>  <score_type>  (1) 
oracle

>  <origin>  (1) 
autodockgpu

>  <m_score__min__energy>  (1) 
-8.7300000000000004

>  <m_primary>  (1) 
energy

>  <meeko>  (1) 
{"free_energy": -8.55, "intermolecular_energy": -10.64, "internal_energy": -3.01, "cluster_size": 17, "cluster_id": 1, "rank_in_cluster": 4}

>  <energy>  (1) 
-8.73

>  <cluster_rmsd>  (1) 
0.0

>  <rmsd>  (1) 
271.12

>  <cluster>  (1) 
1

$$$$

     RDKit          3D

 59 62  0  0  0  0  0  0  0  0999 V2000
  140.4160   71.5560  220.9760 O   0  0  0  0  0  0  0  0  0  0  0  0
  139.9640   72.0380  222.0470 C   0  0  0  0  0  0  0  0  0  0  0  0
  139.4810   73.3750  222.1360 N   0  0  0  0  0  0  0  0  0  0  0  0
  139.5260   74.1850  220.9360 C   0  0  0  0  0  0  0  0  0  0  0  0
  140.7870   74.9890  220.9320 C   0  0  0  0  0  0  0  0  0  0  0  0
  141.4000   75.2230  222.0090 O   0  0  0  0  0  0  0  0  0  0  0  0
  141.2580   75.4730  219.6630 N   0  0  0  0  0  0  0  0  0  0  0  0
  140.7830   75.0900  218.3350 C   0  0  0  0  0  0  0  0  0  0  0  0
  142.0230   75.2660  217.4790 C   0  0  2  0  0  0  0  0  0  0  0  0
  142.7820   74.1240  217.5590 O   0  0  0  0  0  0  0  0  0  0  0  0
  142.6860   76.4860  218.0900 C   0  0  0  0  0  0  0  0  0  0  0  0
  142.3240   76.4570  219.5400 C   0  0  1  0  0  0  0  0  0  0  0  0
  141.7690   77.7510  220.0140 C   0  0  0  0  0  0  0  0  0  0  0  0
  141.4130   78.6620  219.2410 O   0  0  0  0  0  0  0  0  0  0  0  0
  141.6600   77.9120  221.4380 N   0  0  0  0  0  0  0  0  0  0  0  0
  141.1240   79.1600  221.9530 C   0  0  0  0  0  0  0  0  0  0  0  0
  142.1050   80.2520  221.5810 C   0  0  0  0  0  0  0  0  0  0  0  0
  141.8510   81.5120  222.3850 C   0  0  0  0  0  0  0  0  0  0  0  0
  142.1840   81.2620  223.8330 C   0  0  0  0  0  0  0  0  0  0  0  0
  142.1640   79.7730  224.0930 C   0  0  0  0  0  0  0  0  0  0  0  0
  140.9740   79.1330  223.4500 C   0  0  0  0  0  0  0  0  0  0  0  0
  139.9130   71.2320  223.2650 C   0  0  0  0  0  0  0  0  0  0  0  0
  139.4030   69.9310  223.2290 C   0  0  0  0  0  0  0  0  0  0  0  0
  139.3580   69.1670  224.3980 C   0  0  0  0  0  0  0  0  0  0  0  0
  139.8050   69.6610  225.6090 C   0  0  0  0  0  0  0  0  0  0  0  0
  139.7690   68.9210  226.7790 C   0  0  0  0  0  0  0  0  0  0  0  0
  140.2480   69.5310  227.9300 C   0  0  0  0  0  0  0  0  0  0  0  0
  140.2370   68.8530  229.1030 F   0  0  0  0  0  0  0  0  0  0  0  0
  140.7450   70.8200  227.9310 C   0  0  0  0  0  0  0  0  0  0  0  0
  140.7750   71.5500  226.7500 C   0  0  0  0  0  0  0  0  0  0  0  0
  140.3020   70.9590  225.5950 C   0  0  0  0  0  0  0  0  0  0  0  0
  140.3380   71.6800  224.4590 N   0  0  0  0  0  0  0  0  0  0  0  0
  139.1050   73.7690  223.0310 H   0  0  0  0  0  0  0  0  0  0  0  0
  139.5029   73.5325  220.0507 H   0  0  0  0  0  0  0  0  0  0  0  0
  138.6576   74.8598  220.9130 H   0  0  0  0  0  0  0  0  0  0  0  0
  140.4364   74.0461  218.3226 H   0  0  0  0  0  0  0  0  0  0  0  0
  139.9236   75.6830  217.9889 H   0  0  0  0  0  0  0  0  0  0  0  0
  141.8425   75.4161  216.4044 H   0  0  0  0  0  0  0  0  0  0  0  0
  142.6290   73.4950  216.7920 H   0  0  0  0  0  0  0  0  0  0  0  0
  143.7776   76.4323  217.9657 H   0  0  0  0  0  0  0  0  0  0  0  0
  142.3523   77.4157  217.6059 H   0  0  0  0  0  0  0  0  0  0  0  0
  143.2245   76.2333  220.1307 H   0  0  0  0  0  0  0  0  0  0  0  0
  141.9510   77.1660  222.0920 H   0  0  0  0  0  0  0  0  0  0  0  0
  140.1257   79.3298  221.5234 H   0  0  0  0  0  0  0  0  0  0  0  0
  143.1277   79.8991  221.7800 H   0  0  0  0  0  0  0  0  0  0  0  0
  141.9775   80.4871  220.5140 H   0  0  0  0  0  0  0  0  0  0  0  0
  142.4822   82.3261  221.9993 H   0  0  0  0  0  0  0  0  0  0  0  0
  140.7916   81.7948  222.2969 H   0  0  0  0  0  0  0  0  0  0  0  0
  143.1843   81.6618  224.0556 H   0  0  0  0  0  0  0  0  0  0  0  0
  141.4442   81.7613  224.4759 H   0  0  0  0  0  0  0  0  0  0  0  0
  143.0801   79.3236  223.6822 H   0  0  0  0  0  0  0  0  0  0  0  0
  142.1074   79.6073  225.1790 H   0  0  0  0  0  0  0  0  0  0  0  0
  140.8929   78.0899  223.7896 H   0  0  0  0  0  0  0  0  0  0  0  0
  140.0674   79.6879  223.7331 H   0  0  0  0  0  0  0  0  0  0  0  0
  139.0374   69.5091  222.2812 H   0  0  0  0  0  0  0  0  0  0  0  0
  138.9557   68.1442  224.3533 H   0  0  0  0  0  0  0  0  0  0  0  0
  139.3773   67.8932  226.7954 H   0  0  0  0  0  0  0  0  0  0  0  0
  141.1161   71.2671  228.8650 H   0  0  0  0  0  0  0  0  0  0  0  0
  141.1673   72.5775  226.7349 H   0  0  0  0  0  0  0  0  0  0  0  0
  1  2  2  0
  2  3  1  0
  3  4  1  0
  4  5  1  0
  5  6  2  0
  5  7  1  0
  7  8  1  0
  8  9  1  0
  9 10  1  0
  9 11  1  0
 11 12  1  0
 12 13  1  0
 13 14  2  0
 13 15  1  0
 15 16  1  0
 16 17  1  0
 17 18  1  0
 18 19  1  0
 19 20  1  0
 20 21  1  0
  2 22  1  0
 22 23  2  0
 23 24  1  0
 24 25  2  0
 25 26  1  0
 26 27  2  0
 27 28  1  0
 27 29  1  0
 29 30  2  0
 30 31  1  0
 31 32  2  0
 12  7  1  0
 21 16  1  0
 32 22  1  0
 31 25  1  0
  3 33  1  0
  4 34  1  0
  4 35  1  0
  8 36  1  0
  8 37  1  0
  9 38  1  6
 10 39  1  0
 11 40  1  0
 11 41  1  0
 12 42  1  1
 15 43  1  0
 16 44  1  0
 17 45  1  0
 17 46  1  0
 18 47  1  0
 18 48  1  0
 19 49  1  0
 19 50  1  0
 20 51  1  0
 20 52  1  0
 21 53  1  0
 21 54  1  0
 23 55  1  0
 24 56  1  0
 26 57  1  0
 29 58  1  0
 30 59  1  0
M  END
>  <smiles>  (2) 
O=C(NCC(=O)N1C[C@H](O)C[C@H]1C(=O)NC1CCCCC1)c1ccc2cc(F)ccc2n1

>  <score_type>  (2) 
oracle

>  <origin>  (2) 
autodockgpu

>  <m_score__min__energy>  (2) 
-8.7300000000000004

>  <m_primary>  (2) 
energy

>  <meeko>  (2) 
{"free_energy": -8.73, "intermolecular_energy": -10.82, "internal_energy": -2.31, "cluster_size": 17, "cluster_id": 1, "rank_in_cluster": 1}

>  <energy>  (2) 
-8.68

>  <cluster_rmsd>  (2) 
0.65

>  <rmsd>  (2) 
271.22

>  <cluster>  (2) 
1

$$$$

     RDKit          3D

 59 62  0  0  0  0  0  0  0  0999 V2000
  138.3970   72.0520  221.9200 O   0  0  0  0  0  0  0  0  0  0  0  0
  139.4480   72.0120  222.6110 C   0  0  0  0  0  0  0  0  0  0  0  0
  140.5670   72.8510  222.3430 N   0  0  0  0  0  0  0  0  0  0  0  0
  140.4620   73.7720  221.2300 C   0  0  0  0  0  0  0  0  0  0  0  0
  140.1090   75.1310  221.7480 C   0  0  0  0  0  0  0  0  0  0  0  0
  140.9720   75.8330  222.3410 O   0  0  0  0  0  0  0  0  0  0  0  0
  138.7630   75.5880  221.5400 N   0  0  0  0  0  0  0  0  0  0  0  0
  137.5890   75.2950  222.3610 C   0  0  0  0  0  0  0  0  0  0  0  0
  136.4600   75.3480  221.3500 C   0  0  2  0  0  0  0  0  0  0  0  0
  136.3600   74.1240  220.7340 O   0  0  0  0  0  0  0  0  0  0  0  0
  136.8880   76.4680  220.4220 C   0  0  0  0  0  0  0  0  0  0  0  0
  138.3830   76.4450  220.4270 C   0  0  1  0  0  0  0  0  0  0  0  0
  138.9710   77.7830  220.6960 C   0  0  0  0  0  0  0  0  0  0  0  0
  139.0430   78.6800  219.8320 O   0  0  0  0  0  0  0  0  0  0  0  0
  139.4680   78.0040  222.0260 N   0  0  0  0  0  0  0  0  0  0  0  0
  140.0540   79.2960  222.3390 C   0  0  0  0  0  0  0  0  0  0  0  0
  141.3410   79.4030  221.5490 C   0  0  0  0  0  0  0  0  0  0  0  0
  142.2180   80.5200  222.0820 C   0  0  0  0  0  0  0  0  0  0  0  0
  142.7150   80.1580  223.4570 C   0  0  0  0  0  0  0  0  0  0  0  0
  141.8110   79.0990  224.0450 C   0  0  0  0  0  0  0  0  0  0  0  0
  140.3710   79.4290  223.8040 C   0  0  0  0  0  0  0  0  0  0  0  0
  139.5690   71.0860  223.7360 C   0  0  0  0  0  0  0  0  0  0  0  0
  139.0420   69.7940  223.6450 C   0  0  0  0  0  0  0  0  0  0  0  0
  139.1610   68.9150  224.7250 C   0  0  0  0  0  0  0  0  0  0  0  0
  139.7900   69.2840  225.8980 C   0  0  0  0  0  0  0  0  0  0  0  0
  139.9180   68.4290  226.9810 C   0  0  0  0  0  0  0  0  0  0  0  0
  140.5710   68.9190  228.1020 C   0  0  0  0  0  0  0  0  0  0  0  0
  140.7260   68.1260  229.1890 F   0  0  0  0  0  0  0  0  0  0  0  0
  141.0810   70.2030  228.1590 C   0  0  0  0  0  0  0  0  0  0  0  0
  140.9450   71.0490  227.0670 C   0  0  0  0  0  0  0  0  0  0  0  0
  140.2960   70.5780  225.9420 C   0  0  0  0  0  0  0  0  0  0  0  0
  140.1730   71.4110  224.8920 N   0  0  0  0  0  0  0  0  0  0  0  0
  141.4400   72.8120  222.9220 H   0  0  0  0  0  0  0  0  0  0  0  0
  141.4243   73.8190  220.6992 H   0  0  0  0  0  0  0  0  0  0  0  0
  139.6813   73.4264  220.5364 H   0  0  0  0  0  0  0  0  0  0  0  0
  137.6642   74.2986  222.8210 H   0  0  0  0  0  0  0  0  0  0  0  0
  137.4574   75.9914  223.2023 H   0  0  0  0  0  0  0  0  0  0  0  0
  135.4595   75.5442  221.7629 H   0  0  0  0  0  0  0  0  0  0  0  0
  136.9950   73.4420  221.1070 H   0  0  0  0  0  0  0  0  0  0  0  0
  136.5047   76.2925  219.4060 H   0  0  0  0  0  0  0  0  0  0  0  0
  136.4948   77.4414  220.7504 H   0  0  0  0  0  0  0  0  0  0  0  0
  138.7407   76.1042  219.4442 H   0  0  0  0  0  0  0  0  0  0  0  0
  139.4160   77.2710  222.7530 H   0  0  0  0  0  0  0  0  0  0  0  0
  139.3384   80.0909  222.0818 H   0  0  0  0  0  0  0  0  0  0  0  0
  141.8876   78.4512  221.6221 H   0  0  0  0  0  0  0  0  0  0  0  0
  141.0902   79.6255  220.5013 H   0  0  0  0  0  0  0  0  0  0  0  0
  143.0758   80.6652  221.4089 H   0  0  0  0  0  0  0  0  0  0  0  0
  141.6329   81.4498  222.1375 H   0  0  0  0  0  0  0  0  0  0  0  0
  143.7416   79.7691  223.3874 H   0  0  0  0  0  0  0  0  0  0  0  0
  142.7093   81.0501  224.1006 H   0  0  0  0  0  0  0  0  0  0  0  0
  142.0410   78.1300  223.5781 H   0  0  0  0  0  0  0  0  0  0  0  0
  141.9834   79.0543  225.1305 H   0  0  0  0  0  0  0  0  0  0  0  0
  139.7371   78.7377  224.3787 H   0  0  0  0  0  0  0  0  0  0  0  0
  140.1777   80.4635  224.1242 H   0  0  0  0  0  0  0  0  0  0  0  0
  138.5344   69.4699  222.7245 H   0  0  0  0  0  0  0  0  0  0  0  0
  138.7422   67.9015  224.6385 H   0  0  0  0  0  0  0  0  0  0  0  0
  139.5184   67.4045  226.9527 H   0  0  0  0  0  0  0  0  0  0  0  0
  141.5931   70.5531  229.0674 H   0  0  0  0  0  0  0  0  0  0  0  0
  141.3456   72.0730  227.0967 H   0  0  0  0  0  0  0  0  0  0  0  0
  1  2  2  0
  2  3  1  0
  3  4  1  0
  4  5  1  0
  5  6  2  0
  5  7  1  0
  7  8  1  0
  8  9  1  0
  9 10  1  0
  9 11  1  0
 11 12  1  0
 12 13  1  0
 13 14  2  0
 13 15  1  0
 15 16  1  0
 16 17  1  0
 17 18  1  0
 18 19  1  0
 19 20  1  0
 20 21  1  0
  2 22  1  0
 22 23  2  0
 23 24  1  0
 24 25  2  0
 25 26  1  0
 26 27  2  0
 27 28  1  0
 27 29  1  0
 29 30  2  0
 30 31  1  0
 31 32  2  0
 12  7  1  0
 21 16  1  0
 32 22  1  0
 31 25  1  0
  3 33  1  0
  4 34  1  0
  4 35  1  0
  8 36  1  0
  8 37  1  0
  9 38  1  1
 10 39  1  0
 11 40  1  0
 11 41  1  0
 12 42  1  6
 15 43  1  0
 16 44  1  0
 17 45  1  0
 17 46  1  0
 18 47  1  0
 18 48  1  0
 19 49  1  0
 19 50  1  0
 20 51  1  0
 20 52  1  0
 21 53  1  0
 21 54  1  0
 23 55  1  0
 24 56  1  0
 26 57  1  0
 29 58  1  0
 30 59  1  0
M  END
>  <smiles>  (3) 
O=C(NCC(=O)N1C[C@H](O)C[C@H]1C(=O)NC1CCCCC1)c1ccc2cc(F)ccc2n1

>  <score_type>  (3) 
oracle

>  <origin>  (3) 
autodockgpu

>  <m_score__min__energy>  (3) 
-8.7300000000000004

>  <m_primary>  (3) 
energy

>  <meeko>  (3) 
{"free_energy": -7.23, "intermolecular_energy": -9.32, "internal_energy": -3.27, "cluster_size": 17, "cluster_id": 1, "rank_in_cluster": 16}

>  <energy>  (3) 
-8.55

>  <cluster_rmsd>  (3) 
1.0

>  <rmsd>  (3) 
271.26

>  <cluster>  (3) 
1

$$$$

     RDKit          3D

 59 62  0  0  0  0  0  0  0  0999 V2000
  136.7790   76.2270  221.5560 O   0  0  0  0  0  0  0  0  0  0  0  0
  137.9110   76.1940  222.1040 C   0  0  0  0  0  0  0  0  0  0  0  0
  138.6000   74.9730  222.3540 N   0  0  0  0  0  0  0  0  0  0  0  0
  137.9500   73.7430  221.9530 C   0  0  0  0  0  0  0  0  0  0  0  0
  138.8550   72.5890  222.2480 C   0  0  0  0  0  0  0  0  0  0  0  0
  139.9620   72.7760  222.8230 O   0  0  0  0  0  0  0  0  0  0  0  0
  138.4110   71.2820  221.8510 N   0  0  0  0  0  0  0  0  0  0  0  0
  138.5000   70.6790  220.5220 C   0  0  0  0  0  0  0  0  0  0  0  0
  137.3010   69.7510  220.5010 C   0  0  2  0  0  0  0  0  0  0  0  0
  136.1920   70.4690  220.1240 O   0  0  0  0  0  0  0  0  0  0  0  0
  137.2420   69.2400  221.9280 C   0  0  0  0  0  0  0  0  0  0  0  0
  137.7850   70.3460  222.7740 C   0  0  1  0  0  0  0  0  0  0  0  0
  138.8470   69.8840  223.7030 C   0  0  0  0  0  0  0  0  0  0  0  0
  139.2550   68.7060  223.7380 O   0  0  0  0  0  0  0  0  0  0  0  0
  139.3980   70.8780  224.5840 N   0  0  0  0  0  0  0  0  0  0  0  0
  140.4400   70.4760  225.5130 C   0  0  0  0  0  0  0  0  0  0  0  0
  139.7510   69.9440  226.7510 C   0  0  0  0  0  0  0  0  0  0  0  0
  140.7150   69.8590  227.9190 C   0  0  0  0  0  0  0  0  0  0  0  0
  141.1140   71.2470  228.3450 C   0  0  0  0  0  0  0  0  0  0  0  0
  140.8540   72.2060  227.2070 C   0  0  0  0  0  0  0  0  0  0  0  0
  141.3200   71.6320  225.9060 C   0  0  0  0  0  0  0  0  0  0  0  0
  138.5790   77.4280  222.5140 C   0  0  0  0  0  0  0  0  0  0  0  0
  137.8360   78.5910  222.7360 C   0  0  0  0  0  0  0  0  0  0  0  0
  138.4820   79.7670  223.1280 C   0  0  0  0  0  0  0  0  0  0  0  0
  139.8510   79.8210  223.3060 C   0  0  0  0  0  0  0  0  0  0  0  0
  140.5110   80.9760  223.6940 C   0  0  0  0  0  0  0  0  0  0  0  0
  141.8880   80.9000  223.8390 C   0  0  0  0  0  0  0  0  0  0  0  0
  142.5850   81.9990  224.2160 F   0  0  0  0  0  0  0  0  0  0  0  0
  142.5930   79.7330  223.6110 C   0  0  0  0  0  0  0  0  0  0  0  0
  141.9190   78.5840  223.2230 C   0  0  0  0  0  0  0  0  0  0  0  0
  140.5470   78.6410  223.0730 C   0  0  0  0  0  0  0  0  0  0  0  0
  139.9080   77.5180  222.6960 N   0  0  0  0  0  0  0  0  0  0  0  0
  139.5430   74.9530  222.8120 H   0  0  0  0  0  0  0  0  0  0  0  0
  137.0096   73.6250  222.5113 H   0  0  0  0  0  0  0  0  0  0  0  0
  137.7315   73.7750  220.8754 H   0  0  0  0  0  0  0  0  0  0  0  0
  138.4256   71.4423  219.7335 H   0  0  0  0  0  0  0  0  0  0  0  0
  139.4550   70.1654  220.3368 H   0  0  0  0  0  0  0  0  0  0  0  0
  137.3590   68.9151  219.7883 H   0  0  0  0  0  0  0  0  0  0  0  0
  136.3990   71.4280  219.9070 H   0  0  0  0  0  0  0  0  0  0  0  0
  136.2037   69.0136  222.2121 H   0  0  0  0  0  0  0  0  0  0  0  0
  137.8192   68.3118  222.0520 H   0  0  0  0  0  0  0  0  0  0  0  0
  136.9678   70.7727  223.3741 H   0  0  0  0  0  0  0  0  0  0  0  0
  139.0710   71.8580  224.5670 H   0  0  0  0  0  0  0  0  0  0  0  0
  141.0804   69.7207  225.0340 H   0  0  0  0  0  0  0  0  0  0  0  0
  138.9221   70.6162  227.0176 H   0  0  0  0  0  0  0  0  0  0  0  0
  139.3750   68.9332  226.5343 H   0  0  0  0  0  0  0  0  0  0  0  0
  140.2274   69.3438  228.7597 H   0  0  0  0  0  0  0  0  0  0  0  0
  141.6108   69.2982  227.6140 H   0  0  0  0  0  0  0  0  0  0  0  0
  140.5227   71.5475  229.2226 H   0  0  0  0  0  0  0  0  0  0  0  0
  142.1824   71.2622  228.6064 H   0  0  0  0  0  0  0  0  0  0  0  0
  139.7743   72.4071  227.1454 H   0  0  0  0  0  0  0  0  0  0  0  0
  141.4086   73.1364  227.3987 H   0  0  0  0  0  0  0  0  0  0  0  0
  141.2732   72.4075  225.1273 H   0  0  0  0  0  0  0  0  0  0  0  0
  142.3558   71.2783  226.0159 H   0  0  0  0  0  0  0  0  0  0  0  0
  136.7442   78.5808  222.6023 H   0  0  0  0  0  0  0  0  0  0  0  0
  137.8840   80.6742  223.2995 H   0  0  0  0  0  0  0  0  0  0  0  0
  139.9658   81.9133  223.8791 H   0  0  0  0  0  0  0  0  0  0  0  0
  143.6856   79.7154  223.7368 H   0  0  0  0  0  0  0  0  0  0  0  0
  142.4657   77.6474  223.0387 H   0  0  0  0  0  0  0  0  0  0  0  0
  1  2  2  0
  2  3  1  0
  3  4  1  0
  4  5  1  0
  5  6  2  0
  5  7  1  0
  7  8  1  0
  8  9  1  0
  9 10  1  0
  9 11  1  0
 11 12  1  0
 12 13  1  0
 13 14  2  0
 13 15  1  0
 15 16  1  0
 16 17  1  0
 17 18  1  0
 18 19  1  0
 19 20  1  0
 20 21  1  0
  2 22  1  0
 22 23  2  0
 23 24  1  0
 24 25  2  0
 25 26  1  0
 26 27  2  0
 27 28  1  0
 27 29  1  0
 29 30  2  0
 30 31  1  0
 31 32  2  0
 12  7  1  0
 21 16  1  0
 32 22  1  0
 31 25  1  0
  3 33  1  0
  4 34  1  0
  4 35  1  0
  8 36  1  0
  8 37  1  0
  9 38  1  6
 10 39  1  0
 11 40  1  0
 11 41  1  0
 12 42  1  1
 15 43  1  0
 16 44  1  0
 17 45  1  0
 17 46  1  0
 18 47  1  0
 18 48  1  0
 19 49  1  0
 19 50  1  0
 20 51  1  0
 20 52  1  0
 21 53  1  0
 21 54  1  0
 23 55  1  0
 24 56  1  0
 26 57  1  0
 29 58  1  0
 30 59  1  0
M  END
>  <smiles>  (4) 
O=C(NCC(=O)N1C[C@H](O)C[C@H]1C(=O)NC1CCCCC1)c1ccc2cc(F)ccc2n1

>  <score_type>  (4) 
oracle

>  <origin>  (4) 
autodockgpu

>  <m_score__min__energy>  (4) 
-8.7300000000000004

>  <m_primary>  (4) 
energy

>  <meeko>  (4) 
{"free_energy": -7.7, "intermolecular_energy": -9.79, "internal_energy": -2.85, "cluster_size": 2, "cluster_id": 2, "rank_in_cluster": 2}

>  <energy>  (4) 
-8.55

>  <cluster_rmsd>  (4) 
1.01

>  <rmsd>  (4) 
271.23

>  <cluster>  (4) 
1

$$$$

     RDKit          3D

 59 62  0  0  0  0  0  0  0  0999 V2000
  138.7840   71.0740  221.1780 O   0  0  0  0  0  0  0  0  0  0  0  0
  139.1580   71.5960  222.2600 C   0  0  0  0  0  0  0  0  0  0  0  0
  139.4000   72.9930  222.3870 N   0  0  0  0  0  0  0  0  0  0  0  0
  139.2010   73.8180  221.2130 C   0  0  0  0  0  0  0  0  0  0  0  0
  140.3720   74.7350  221.0520 C   0  0  0  0  0  0  0  0  0  0  0  0
  141.0510   75.0870  222.0540 O   0  0  0  0  0  0  0  0  0  0  0  0
  140.6790   75.1870  219.7230 N   0  0  0  0  0  0  0  0  0  0  0  0
  140.0430   74.7710  218.4740 C   0  0  0  0  0  0  0  0  0  0  0  0
  141.1660   74.9260  217.4660 C   0  0  2  0  0  0  0  0  0  0  0  0
  141.9330   73.7860  217.4790 O   0  0  0  0  0  0  0  0  0  0  0  0
  141.8960   76.1600  217.9590 C   0  0  0  0  0  0  0  0  0  0  0  0
  141.7180   76.1680  219.4430 C   0  0  1  0  0  0  0  0  0  0  0  0
  141.2230   77.4730  219.9510 C   0  0  0  0  0  0  0  0  0  0  0  0
  140.6420   78.3080  219.2280 O   0  0  0  0  0  0  0  0  0  0  0  0
  141.4490   77.7400  221.3450 N   0  0  0  0  0  0  0  0  0  0  0  0
  140.9840   79.0040  221.8900 C   0  0  0  0  0  0  0  0  0  0  0  0
  142.0150   80.0510  221.5270 C   0  0  0  0  0  0  0  0  0  0  0  0
  141.8350   81.3070  222.3590 C   0  0  0  0  0  0  0  0  0  0  0  0
  142.1720   81.0100  223.7960 C   0  0  0  0  0  0  0  0  0  0  0  0
  142.0780   79.5200  224.0280 C   0  0  0  0  0  0  0  0  0  0  0  0
  140.8490   78.9540  223.3880 C   0  0  0  0  0  0  0  0  0  0  0  0
  139.3630   70.7760  223.4530 C   0  0  0  0  0  0  0  0  0  0  0  0
  138.9520   69.4400  223.4690 C   0  0  0  0  0  0  0  0  0  0  0  0
  139.1510   68.6630  224.6130 C   0  0  0  0  0  0  0  0  0  0  0  0
  139.7500   69.1770  225.7470 C   0  0  0  0  0  0  0  0  0  0  0  0
  139.9570   68.4240  226.8920 C   0  0  0  0  0  0  0  0  0  0  0  0
  140.5690   69.0570  227.9640 C   0  0  0  0  0  0  0  0  0  0  0  0
  140.7960   68.3690  229.1090 F   0  0  0  0  0  0  0  0  0  0  0  0
  140.9630   70.3800  227.9150 C   0  0  0  0  0  0  0  0  0  0  0  0
  140.7500   71.1220  226.7620 C   0  0  0  0  0  0  0  0  0  0  0  0
  140.1410   70.5090  225.6840 C   0  0  0  0  0  0  0  0  0  0  0  0
  139.9410   71.2420  224.5730 N   0  0  0  0  0  0  0  0  0  0  0  0
  139.7120   73.4210  223.2920 H   0  0  0  0  0  0  0  0  0  0  0  0
  139.1108   73.1768  220.3237 H   0  0  0  0  0  0  0  0  0  0  0  0
  138.2812   74.4100  221.3289 H   0  0  0  0  0  0  0  0  0  0  0  0
  139.7009   73.7271  218.5306 H   0  0  0  0  0  0  0  0  0  0  0  0
  139.1452   75.3551  218.2234 H   0  0  0  0  0  0  0  0  0  0  0  0
  140.8522   75.0496  216.4190 H   0  0  0  0  0  0  0  0  0  0  0  0
  141.8570   73.2700  218.3380 H   0  0  0  0  0  0  0  0  0  0  0  0
  142.9638   76.1029  217.7009 H   0  0  0  0  0  0  0  0  0  0  0  0
  141.5015   77.0772  217.4974 H   0  0  0  0  0  0  0  0  0  0  0  0
  142.6863   75.9597  219.9216 H   0  0  0  0  0  0  0  0  0  0  0  0
  141.9280   77.0590  221.9560 H   0  0  0  0  0  0  0  0  0  0  0  0
  139.9914   79.2343  221.4757 H   0  0  0  0  0  0  0  0  0  0  0  0
  143.0204   79.6424  221.7064 H   0  0  0  0  0  0  0  0  0  0  0  0
  141.8876   80.3135  220.4664 H   0  0  0  0  0  0  0  0  0  0  0  0
  142.5024   82.0957  221.9814 H   0  0  0  0  0  0  0  0  0  0  0  0
  140.7908   81.6459  222.2899 H   0  0  0  0  0  0  0  0  0  0  0  0
  143.1944   81.3528  224.0130 H   0  0  0  0  0  0  0  0  0  0  0  0
  141.4664   81.5334  224.4579 H   0  0  0  0  0  0  0  0  0  0  0  0
  142.9650   79.0322  223.5974 H   0  0  0  0  0  0  0  0  0  0  0  0
  142.0252   79.3366  225.1113 H   0  0  0  0  0  0  0  0  0  0  0  0
  140.7187   77.9097  223.7081 H   0  0  0  0  0  0  0  0  0  0  0  0
  139.9747   79.5476  223.6935 H   0  0  0  0  0  0  0  0  0  0  0  0
  138.4724   69.0009  222.5818 H   0  0  0  0  0  0  0  0  0  0  0  0
  138.8218   67.6134  224.6108 H   0  0  0  0  0  0  0  0  0  0  0  0
  139.6492   67.3695  226.9483 H   0  0  0  0  0  0  0  0  0  0  0  0
  141.4446   70.8444  228.7882 H   0  0  0  0  0  0  0  0  0  0  0  0
  141.0595   72.1761  226.7074 H   0  0  0  0  0  0  0  0  0  0  0  0
  1  2  2  0
  2  3  1  0
  3  4  1  0
  4  5  1  0
  5  6  2  0
  5  7  1  0
  7  8  1  0
  8  9  1  0
  9 10  1  0
  9 11  1  0
 11 12  1  0
 12 13  1  0
 13 14  2  0
 13 15  1  0
 15 16  1  0
 16 17  1  0
 17 18  1  0
 18 19  1  0
 19 20  1  0
 20 21  1  0
  2 22  1  0
 22 23  2  0
 23 24  1  0
 24 25  2  0
 25 26  1  0
 26 27  2  0
 27 28  1  0
 27 29  1  0
 29 30  2  0
 30 31  1  0
 31 32  2  0
 12  7  1  0
 21 16  1  0
 32 22  1  0
 31 25  1  0
  3 33  1  0
  4 34  1  0
  4 35  1  0
  8 36  1  0
  8 37  1  0
  9 38  1  6
 10 39  1  0
 11 40  1  0
 11 41  1  0
 12 42  1  1
 15 43  1  0
 16 44  1  0
 17 45  1  0
 17 46  1  0
 18 47  1  0
 18 48  1  0
 19 49  1  0
 19 50  1  0
 20 51  1  0
 20 52  1  0
 21 53  1  0
 21 54  1  0
 23 55  1  0
 24 56  1  0
 26 57  1  0
 29 58  1  0
 30 59  1  0
M  END
>  <smiles>  (5) 
O=C(NCC(=O)N1C[C@H](O)C[C@H]1C(=O)NC1CCCCC1)c1ccc2cc(F)ccc2n1

>  <score_type>  (5) 
oracle

>  <origin>  (5) 
autodockgpu

>  <m_score__min__energy>  (5) 
-8.7300000000000004

>  <m_primary>  (5) 
energy

>  <meeko>  (5) 
{"free_energy": -8.24, "intermolecular_energy": -10.33, "internal_energy": -2.67, "cluster_size": 17, "cluster_id": 1, "rank_in_cluster": 11}

>  <energy>  (5) 
-8.55

>  <cluster_rmsd>  (5) 
1.0

>  <rmsd>  (5) 
271.26

>  <cluster>  (5) 
1

$$$$

     RDKit          3D

 59 62  0  0  0  0  0  0  0  0999 V2000
  140.2350   71.0160  220.8160 O   0  0  0  0  0  0  0  0  0  0  0  0
  140.0830   71.6470  221.8940 C   0  0  0  0  0  0  0  0  0  0  0  0
  140.0370   73.0690  221.9430 N   0  0  0  0  0  0  0  0  0  0  0  0
  140.1720   73.7880  220.6930 C   0  0  0  0  0  0  0  0  0  0  0  0
  141.1440   74.9110  220.8730 C   0  0  0  0  0  0  0  0  0  0  0  0
  141.3920   75.3620  222.0240 O   0  0  0  0  0  0  0  0  0  0  0  0
  141.7680   75.4410  219.6930 N   0  0  0  0  0  0  0  0  0  0  0  0
  141.5570   75.0170  218.3100 C   0  0  0  0  0  0  0  0  0  0  0  0
  142.8980   75.3150  217.6670 C   0  0  2  0  0  0  0  0  0  0  0  0
  143.7400   74.2520  217.8860 O   0  0  0  0  0  0  0  0  0  0  0  0
  143.3300   76.5920  218.3610 C   0  0  0  0  0  0  0  0  0  0  0  0
  142.7390   76.5250  219.7320 C   0  0  1  0  0  0  0  0  0  0  0  0
  141.9920   77.7580  220.0910 C   0  0  0  0  0  0  0  0  0  0  0  0
  141.5460   78.5540  219.2410 O   0  0  0  0  0  0  0  0  0  0  0  0
  141.8020   78.0000  221.4950 N   0  0  0  0  0  0  0  0  0  0  0  0
  141.0780   79.1930  221.8980 C   0  0  0  0  0  0  0  0  0  0  0  0
  141.8530   80.3820  221.3700 C   0  0  0  0  0  0  0  0  0  0  0  0
  141.4110   81.6660  222.0480 C   0  0  0  0  0  0  0  0  0  0  0  0
  141.8180   81.6350  223.4980 C   0  0  0  0  0  0  0  0  0  0  0  0
  142.0550   80.2020  223.9140 C   0  0  0  0  0  0  0  0  0  0  0  0
  140.9720   79.3080  223.3950 C   0  0  0  0  0  0  0  0  0  0  0  0
  139.9460   70.9350  223.1630 C   0  0  0  0  0  0  0  0  0  0  0  0
  139.3330   69.6790  223.2050 C   0  0  0  0  0  0  0  0  0  0  0  0
  139.2050   69.0050  224.4220 C   0  0  0  0  0  0  0  0  0  0  0  0
  139.6700   69.5450  225.6050 C   0  0  0  0  0  0  0  0  0  0  0  0
  139.5540   68.8940  226.8220 C   0  0  0  0  0  0  0  0  0  0  0  0
  140.0610   69.5420  227.9390 C   0  0  0  0  0  0  0  0  0  0  0  0
  139.9750   68.9510  229.1550 F   0  0  0  0  0  0  0  0  0  0  0  0
  140.6620   70.7840  227.8640 C   0  0  0  0  0  0  0  0  0  0  0  0
  140.7720   71.4250  226.6370 C   0  0  0  0  0  0  0  0  0  0  0  0
  140.2720   70.7950  225.5150 C   0  0  0  0  0  0  0  0  0  0  0  0
  140.3860   71.4290  224.3340 N   0  0  0  0  0  0  0  0  0  0  0  0
  139.9100   73.5880  222.8450 H   0  0  0  0  0  0  0  0  0  0  0  0
  140.5399   73.1046  219.9135 H   0  0  0  0  0  0  0  0  0  0  0  0
  139.1939   74.1910  220.3914 H   0  0  0  0  0  0  0  0  0  0  0  0
  141.3194   73.9444  218.2549 H   0  0  0  0  0  0  0  0  0  0  0  0
  140.7132   75.5245  217.8197 H   0  0  0  0  0  0  0  0  0  0  0  0
  142.8836   75.4493  216.5753 H   0  0  0  0  0  0  0  0  0  0  0  0
  144.6910   74.5300  218.0520 H   0  0  0  0  0  0  0  0  0  0  0  0
  144.4272   76.6455  218.4182 H   0  0  0  0  0  0  0  0  0  0  0  0
  142.9921   77.4856  217.8157 H   0  0  0  0  0  0  0  0  0  0  0  0
  143.5474   76.3891  220.4655 H   0  0  0  0  0  0  0  0  0  0  0  0
  142.1660   77.3500  222.2110 H   0  0  0  0  0  0  0  0  0  0  0  0
  140.0547   79.1492  221.4968 H   0  0  0  0  0  0  0  0  0  0  0  0
  142.9250   80.2256  221.5605 H   0  0  0  0  0  0  0  0  0  0  0  0
  141.6618   80.4727  220.2906 H   0  0  0  0  0  0  0  0  0  0  0  0
  141.8868   82.5249  221.5521 H   0  0  0  0  0  0  0  0  0  0  0  0
  140.3174   81.7603  221.9764 H   0  0  0  0  0  0  0  0  0  0  0  0
  142.7423   82.2157  223.6337 H   0  0  0  0  0  0  0  0  0  0  0  0
  141.0209   82.0736  224.1163 H   0  0  0  0  0  0  0  0  0  0  0  0
  143.0224   79.8659  223.5126 H   0  0  0  0  0  0  0  0  0  0  0  0
  142.0558   80.1510  225.0128 H   0  0  0  0  0  0  0  0  0  0  0  0
  141.0752   78.3100  223.8459 H   0  0  0  0  0  0  0  0  0  0  0  0
  139.9926   79.7345  223.6576 H   0  0  0  0  0  0  0  0  0  0  0  0
  138.9516   69.2217  222.2801 H   0  0  0  0  0  0  0  0  0  0  0  0
  138.7207   68.0175  224.4384 H   0  0  0  0  0  0  0  0  0  0  0  0
  139.0797   67.9045  226.8996 H   0  0  0  0  0  0  0  0  0  0  0  0
  141.0522   71.2637  228.7737 H   0  0  0  0  0  0  0  0  0  0  0  0
  141.2475   72.4140  226.5607 H   0  0  0  0  0  0  0  0  0  0  0  0
  1  2  2  0
  2  3  1  0
  3  4  1  0
  4  5  1  0
  5  6  2  0
  5  7  1  0
  7  8  1  0
  8  9  1  0
  9 10  1  0
  9 11  1  0
 11 12  1  0
 12 13  1  0
 13 14  2  0
 13 15  1  0
 15 16  1  0
 16 17  1  0
 17 18  1  0
 18 19  1  0
 19 20  1  0
 20 21  1  0
  2 22  1  0
 22 23  2  0
 23 24  1  0
 24 25  2  0
 25 26  1  0
 26 27  2  0
 27 28  1  0
 27 29  1  0
 29 30  2  0
 30 31  1  0
 31 32  2  0
 12  7  1  0
 21 16  1  0
 32 22  1  0
 31 25  1  0
  3 33  1  0
  4 34  1  0
  4 35  1  0
  8 36  1  0
  8 37  1  0
  9 38  1  6
 10 39  1  0
 11 40  1  0
 11 41  1  0
 12 42  1  1
 15 43  1  0
 16 44  1  0
 17 45  1  0
 17 46  1  0
 18 47  1  0
 18 48  1  0
 19 49  1  0
 19 50  1  0
 20 51  1  0
 20 52  1  0
 21 53  1  0
 21 54  1  0
 23 55  1  0
 24 56  1  0
 26 57  1  0
 29 58  1  0
 30 59  1  0
M  END
>  <smiles>  (6) 
O=C(NCC(=O)N1C[C@H](O)C[C@H]1C(=O)NC1CCCCC1)c1ccc2cc(F)ccc2n1

>  <score_type>  (6) 
oracle

>  <origin>  (6) 
autodockgpu

>  <m_score__min__energy>  (6) 
-8.7300000000000004

>  <m_primary>  (6) 
energy

>  <meeko>  (6) 
{"free_energy": -8.68, "intermolecular_energy": -10.77, "internal_energy": -2.49, "cluster_size": 17, "cluster_id": 1, "rank_in_cluster": 2}

>  <energy>  (6) 
-8.55

>  <cluster_rmsd>  (6) 
0.49

>  <rmsd>  (6) 
271.2

>  <cluster>  (6) 
1

$$$$

     RDKit          3D

 59 62  0  0  0  0  0  0  0  0999 V2000
  141.0820   72.3370  221.5800 O   0  0  0  0  0  0  0  0  0  0  0  0
  140.1480   72.3860  222.4210 C   0  0  0  0  0  0  0  0  0  0  0  0
  139.0890   73.3330  222.3290 N   0  0  0  0  0  0  0  0  0  0  0  0
  139.1150   74.2610  221.2170 C   0  0  0  0  0  0  0  0  0  0  0  0
  140.3570   75.0900  221.2960 C   0  0  0  0  0  0  0  0  0  0  0  0
  140.6160   75.7560  222.3350 O   0  0  0  0  0  0  0  0  0  0  0  0
  141.2260   75.0910  220.1520 N   0  0  0  0  0  0  0  0  0  0  0  0
  141.0130   74.4100  218.8750 C   0  0  0  0  0  0  0  0  0  0  0  0
  142.4300   74.1220  218.4170 C   0  0  2  0  0  0  0  0  0  0  0  0
  142.8520   72.9490  218.9950 O   0  0  0  0  0  0  0  0  0  0  0  0
  143.1940   75.3450  218.8860 C   0  0  0  0  0  0  0  0  0  0  0  0
  142.4920   75.8090  220.1210 C   0  0  1  0  0  0  0  0  0  0  0  0
  142.1630   77.2570  220.0800 C   0  0  0  0  0  0  0  0  0  0  0  0
  142.1540   77.9220  219.0240 O   0  0  0  0  0  0  0  0  0  0  0  0
  141.8480   77.8740  221.3390 N   0  0  0  0  0  0  0  0  0  0  0  0
  141.5190   79.2890  221.3510 C   0  0  0  0  0  0  0  0  0  0  0  0
  142.3850   79.9360  222.4120 C   0  0  0  0  0  0  0  0  0  0  0  0
  141.8620   81.3130  222.7770 C   0  0  0  0  0  0  0  0  0  0  0  0
  140.5380   81.1780  223.4820 C   0  0  0  0  0  0  0  0  0  0  0  0
  139.9380   79.8310  223.1520 C   0  0  0  0  0  0  0  0  0  0  0  0
  140.0730   79.5270  221.6930 C   0  0  0  0  0  0  0  0  0  0  0  0
  140.1090   71.4560  223.5480 C   0  0  0  0  0  0  0  0  0  0  0  0
  139.5650   70.1780  223.3900 C   0  0  0  0  0  0  0  0  0  0  0  0
  139.5310   69.2950  224.4720 C   0  0  0  0  0  0  0  0  0  0  0  0
  140.0240   69.6460  225.7140 C   0  0  0  0  0  0  0  0  0  0  0  0
  140.0000   68.7870  226.8000 C   0  0  0  0  0  0  0  0  0  0  0  0
  140.5260   69.2590  227.9940 C   0  0  0  0  0  0  0  0  0  0  0  0
  140.5290   68.4600  229.0880 F   0  0  0  0  0  0  0  0  0  0  0  0
  141.0570   70.5290  228.1170 C   0  0  0  0  0  0  0  0  0  0  0  0
  141.0750   71.3790  227.0200 C   0  0  0  0  0  0  0  0  0  0  0  0
  140.5540   70.9270  225.8240 C   0  0  0  0  0  0  0  0  0  0  0  0
  140.5790   71.7630  224.7700 N   0  0  0  0  0  0  0  0  0  0  0  0
  138.3140   73.3670  223.0340 H   0  0  0  0  0  0  0  0  0  0  0  0
  139.1064   73.7009  220.2703 H   0  0  0  0  0  0  0  0  0  0  0  0
  138.2314   74.9147  221.2611 H   0  0  0  0  0  0  0  0  0  0  0  0
  140.4422   73.4796  219.0109 H   0  0  0  0  0  0  0  0  0  0  0  0
  140.4306   75.0021  218.1538 H   0  0  0  0  0  0  0  0  0  0  0  0
  142.5592   73.9723  217.3349 H   0  0  0  0  0  0  0  0  0  0  0  0
  142.3210   72.6980  219.8100 H   0  0  0  0  0  0  0  0  0  0  0  0
  144.2375   75.0818  219.1135 H   0  0  0  0  0  0  0  0  0  0  0  0
  143.2206   76.1286  218.1145 H   0  0  0  0  0  0  0  0  0  0  0  0
  143.1411   75.6303  220.9909 H   0  0  0  0  0  0  0  0  0  0  0  0
  141.8500   77.3360  222.2220 H   0  0  0  0  0  0  0  0  0  0  0  0
  141.6959   79.7117  220.3510 H   0  0  0  0  0  0  0  0  0  0  0  0
  142.3862   79.3020  223.3109 H   0  0  0  0  0  0  0  0  0  0  0  0
  143.4048   80.0431  222.0140 H   0  0  0  0  0  0  0  0  0  0  0  0
  142.5815   81.8140  223.4413 H   0  0  0  0  0  0  0  0  0  0  0  0
  141.7304   81.9090  221.8619 H   0  0  0  0  0  0  0  0  0  0  0  0
  140.6893   81.2577  224.5686 H   0  0  0  0  0  0  0  0  0  0  0  0
  139.8587   81.9776  223.1516 H   0  0  0  0  0  0  0  0  0  0  0  0
  140.4583   79.0538  223.7311 H   0  0  0  0  0  0  0  0  0  0  0  0
  138.8685   79.8513  223.4084 H   0  0  0  0  0  0  0  0  0  0  0  0
  139.4884   78.6268  221.4524 H   0  0  0  0  0  0  0  0  0  0  0  0
  139.6985   80.3807  221.1091 H   0  0  0  0  0  0  0  0  0  0  0  0
  139.1638   69.8677  222.4139 H   0  0  0  0  0  0  0  0  0  0  0  0
  139.0999   68.2928  224.3313 H   0  0  0  0  0  0  0  0  0  0  0  0
  139.5814   67.7729  226.7194 H   0  0  0  0  0  0  0  0  0  0  0  0
  141.4643   70.8653  229.0819 H   0  0  0  0  0  0  0  0  0  0  0  0
  141.4957   72.3921  227.1018 H   0  0  0  0  0  0  0  0  0  0  0  0
  1  2  2  0
  2  3  1  0
  3  4  1  0
  4  5  1  0
  5  6  2  0
  5  7  1  0
  7  8  1  0
  8  9  1  0
  9 10  1  0
  9 11  1  0
 11 12  1  0
 12 13  1  0
 13 14  2  0
 13 15  1  0
 15 16  1  0
 16 17  1  0
 17 18  1  0
 18 19  1  0
 19 20  1  0
 20 21  1  0
  2 22  1  0
 22 23  2  0
 23 24  1  0
 24 25  2  0
 25 26  1  0
 26 27  2  0
 27 28  1  0
 27 29  1  0
 29 30  2  0
 30 31  1  0
 31 32  2  0
 12  7  1  0
 21 16  1  0
 32 22  1  0
 31 25  1  0
  3 33  1  0
  4 34  1  0
  4 35  1  0
  8 36  1  0
  8 37  1  0
  9 38  1  6
 10 39  1  0
 11 40  1  0
 11 41  1  0
 12 42  1  1
 15 43  1  0
 16 44  1  0
 17 45  1  0
 17 46  1  0
 18 47  1  0
 18 48  1  0
 19 49  1  0
 19 50  1  0
 20 51  1  0
 20 52  1  0
 21 53  1  0
 21 54  1  0
 23 55  1  0
 24 56  1  0
 26 57  1  0
 29 58  1  0
 30 59  1  0
M  END
>  <smiles>  (7) 
O=C(NCC(=O)N1C[C@H](O)C[C@H]1C(=O)NC1CCCCC1)c1ccc2cc(F)ccc2n1

>  <score_type>  (7) 
oracle

>  <origin>  (7) 
autodockgpu

>  <m_score__min__energy>  (7) 
-8.7300000000000004

>  <m_primary>  (7) 
energy

>  <meeko>  (7) 
{"free_energy": -8.55, "intermolecular_energy": -10.63, "internal_energy": -3.0, "cluster_size": 17, "cluster_id": 1, "rank_in_cluster": 5}

>  <energy>  (7) 
-8.54

>  <cluster_rmsd>  (7) 
1.0

>  <rmsd>  (7) 
271.24

>  <cluster>  (7) 
1

$$$$

     RDKit          3D

 59 62  0  0  0  0  0  0  0  0999 V2000
  139.8190   70.8400  220.7750 O   0  0  0  0  0  0  0  0  0  0  0  0
  139.9690   71.4650  221.8570 C   0  0  0  0  0  0  0  0  0  0  0  0
  140.2420   72.8620  221.8970 N   0  0  0  0  0  0  0  0  0  0  0  0
  140.3460   73.5610  220.6340 C   0  0  0  0  0  0  0  0  0  0  0  0
  141.0960   74.8390  220.8380 C   0  0  0  0  0  0  0  0  0  0  0  0
  141.1480   75.3740  221.9790 O   0  0  0  0  0  0  0  0  0  0  0  0
  141.7410   75.4180  219.6930 N   0  0  0  0  0  0  0  0  0  0  0  0
  141.5540   75.0540  218.2890 C   0  0  0  0  0  0  0  0  0  0  0  0
  142.9060   75.3760  217.6830 C   0  0  2  0  0  0  0  0  0  0  0  0
  143.7430   74.3030  217.8710 O   0  0  0  0  0  0  0  0  0  0  0  0
  143.3280   76.6220  218.4390 C   0  0  0  0  0  0  0  0  0  0  0  0
  142.7130   76.4970  219.7950 C   0  0  1  0  0  0  0  0  0  0  0  0
  141.9610   77.7150  220.1940 C   0  0  0  0  0  0  0  0  0  0  0  0
  141.4910   78.5240  219.3690 O   0  0  0  0  0  0  0  0  0  0  0  0
  141.7960   77.9270  221.6060 N   0  0  0  0  0  0  0  0  0  0  0  0
  141.0680   79.1040  222.0470 C   0  0  0  0  0  0  0  0  0  0  0  0
  141.7680   80.3080  221.4510 C   0  0  0  0  0  0  0  0  0  0  0  0
  141.3390   81.5870  222.1450 C   0  0  0  0  0  0  0  0  0  0  0  0
  141.8510   81.5870  223.5620 C   0  0  0  0  0  0  0  0  0  0  0  0
  142.1580   80.1660  223.9750 C   0  0  0  0  0  0  0  0  0  0  0  0
  141.0670   79.2350  223.5460 C   0  0  0  0  0  0  0  0  0  0  0  0
  139.8670   70.7720  223.1400 C   0  0  0  0  0  0  0  0  0  0  0  0
  139.2500   69.5200  223.2190 C   0  0  0  0  0  0  0  0  0  0  0  0
  139.1560   68.8640  224.4490 C   0  0  0  0  0  0  0  0  0  0  0  0
  139.6600   69.4190  225.6100 C   0  0  0  0  0  0  0  0  0  0  0  0
  139.5770   68.7860  226.8390 C   0  0  0  0  0  0  0  0  0  0  0  0
  140.1220   69.4480  227.9310 C   0  0  0  0  0  0  0  0  0  0  0  0
  140.0700   68.8750  229.1570 F   0  0  0  0  0  0  0  0  0  0  0  0
  140.7250   70.6860  227.8180 C   0  0  0  0  0  0  0  0  0  0  0  0
  140.8010   71.3080  226.5800 C   0  0  0  0  0  0  0  0  0  0  0  0
  140.2630   70.6650  225.4830 C   0  0  0  0  0  0  0  0  0  0  0  0
  140.3450   71.2810  224.2890 N   0  0  0  0  0  0  0  0  0  0  0  0
  140.3660   73.3760  222.8030 H   0  0  0  0  0  0  0  0  0  0  0  0
  140.8824   72.9317  219.9086 H   0  0  0  0  0  0  0  0  0  0  0  0
  139.3390   73.7813  220.2502 H   0  0  0  0  0  0  0  0  0  0  0  0
  141.3157   73.9853  218.1839 H   0  0  0  0  0  0  0  0  0  0  0  0
  140.7198   75.5841  217.8062 H   0  0  0  0  0  0  0  0  0  0  0  0
  142.9105   75.5566  216.5979 H   0  0  0  0  0  0  0  0  0  0  0  0
  144.6960   74.5720  218.0360 H   0  0  0  0  0  0  0  0  0  0  0  0
  144.4241   76.6707  218.5175 H   0  0  0  0  0  0  0  0  0  0  0  0
  143.0012   77.5390  217.9269 H   0  0  0  0  0  0  0  0  0  0  0  0
  143.5087   76.3277  220.5354 H   0  0  0  0  0  0  0  0  0  0  0  0
  142.1790   77.2650  222.3010 H   0  0  0  0  0  0  0  0  0  0  0  0
  140.0202   79.0261  221.7214 H   0  0  0  0  0  0  0  0  0  0  0  0
  142.8551   80.1845  221.5648 H   0  0  0  0  0  0  0  0  0  0  0  0
  141.4967   80.3793  220.3874 H   0  0  0  0  0  0  0  0  0  0  0  0
  141.7519   82.4525  221.6062 H   0  0  0  0  0  0  0  0  0  0  0  0
  140.2408   81.6489  222.1525 H   0  0  0  0  0  0  0  0  0  0  0  0
  142.7659   82.1946  223.6234 H   0  0  0  0  0  0  0  0  0  0  0  0
  141.0892   82.0121  224.2321 H   0  0  0  0  0  0  0  0  0  0  0  0
  143.1032   79.8519  223.5081 H   0  0  0  0  0  0  0  0  0  0  0  0
  142.2389   80.1294  225.0714 H   0  0  0  0  0  0  0  0  0  0  0  0
  141.2317   78.2462  223.9990 H   0  0  0  0  0  0  0  0  0  0  0  0
  140.0971   79.6366  223.8746 H   0  0  0  0  0  0  0  0  0  0  0  0
  138.8386   69.0514  222.3128 H   0  0  0  0  0  0  0  0  0  0  0  0
  138.6677   67.8794  224.4945 H   0  0  0  0  0  0  0  0  0  0  0  0
  139.0996   67.8007  226.9455 H   0  0  0  0  0  0  0  0  0  0  0  0
  141.1442   71.1778  228.7082 H   0  0  0  0  0  0  0  0  0  0  0  0
  141.2798   72.2927  226.4748 H   0  0  0  0  0  0  0  0  0  0  0  0
  1  2  2  0
  2  3  1  0
  3  4  1  0
  4  5  1  0
  5  6  2  0
  5  7  1  0
  7  8  1  0
  8  9  1  0
  9 10  1  0
  9 11  1  0
 11 12  1  0
 12 13  1  0
 13 14  2  0
 13 15  1  0
 15 16  1  0
 16 17  1  0
 17 18  1  0
 18 19  1  0
 19 20  1  0
 20 21  1  0
  2 22  1  0
 22 23  2  0
 23 24  1  0
 24 25  2  0
 25 26  1  0
 26 27  2  0
 27 28  1  0
 27 29  1  0
 29 30  2  0
 30 31  1  0
 31 32  2  0
 12  7  1  0
 21 16  1  0
 32 22  1  0
 31 25  1  0
  3 33  1  0
  4 34  1  0
  4 35  1  0
  8 36  1  0
  8 37  1  0
  9 38  1  6
 10 39  1  0
 11 40  1  0
 11 41  1  0
 12 42  1  1
 15 43  1  0
 16 44  1  0
 17 45  1  0
 17 46  1  0
 18 47  1  0
 18 48  1  0
 19 49  1  0
 19 50  1  0
 20 51  1  0
 20 52  1  0
 21 53  1  0
 21 54  1  0
 23 55  1  0
 24 56  1  0
 26 57  1  0
 29 58  1  0
 30 59  1  0
M  END
>  <smiles>  (8) 
O=C(NCC(=O)N1C[C@H](O)C[C@H]1C(=O)NC1CCCCC1)c1ccc2cc(F)ccc2n1

>  <score_type>  (8) 
oracle

>  <origin>  (8) 
autodockgpu

>  <m_score__min__energy>  (8) 
-8.7300000000000004

>  <m_primary>  (8) 
energy

>  <meeko>  (8) 
{"free_energy": -8.54, "intermolecular_energy": -10.63, "internal_energy": -2.63, "cluster_size": 17, "cluster_id": 1, "rank_in_cluster": 8}

>  <energy>  (8) 
-8.54

>  <cluster_rmsd>  (8) 
0.72

>  <rmsd>  (8) 
271.22

>  <cluster>  (8) 
1

$$$$

     RDKit          3D

 59 62  0  0  0  0  0  0  0  0999 V2000
  139.4720   71.0040  220.7890 O   0  0  0  0  0  0  0  0  0  0  0  0
  139.8260   71.5620  221.8590 C   0  0  0  0  0  0  0  0  0  0  0  0
  140.2920   72.9070  221.8990 N   0  0  0  0  0  0  0  0  0  0  0  0
  140.3500   73.6340  220.6470 C   0  0  0  0  0  0  0  0  0  0  0  0
  141.1950   74.8550  220.8250 C   0  0  0  0  0  0  0  0  0  0  0  0
  141.3430   75.3680  221.9670 O   0  0  0  0  0  0  0  0  0  0  0  0
  141.8180   75.4050  219.6530 N   0  0  0  0  0  0  0  0  0  0  0  0
  141.6280   74.9830  218.2660 C   0  0  0  0  0  0  0  0  0  0  0  0
  142.9670   75.3140  217.6360 C   0  0  2  0  0  0  0  0  0  0  0  0
  143.8300   74.2680  217.8570 O   0  0  0  0  0  0  0  0  0  0  0  0
  143.3660   76.5960  218.3400 C   0  0  0  0  0  0  0  0  0  0  0  0
  142.7640   76.5090  219.7060 C   0  0  1  0  0  0  0  0  0  0  0  0
  141.9880   77.7230  220.0650 C   0  0  0  0  0  0  0  0  0  0  0  0
  141.5180   78.5060  219.2150 O   0  0  0  0  0  0  0  0  0  0  0  0
  141.7970   77.9650  221.4690 N   0  0  0  0  0  0  0  0  0  0  0  0
  141.0440   79.1400  221.8720 C   0  0  0  0  0  0  0  0  0  0  0  0
  141.7770   80.3460  221.3230 C   0  0  0  0  0  0  0  0  0  0  0  0
  141.3080   81.6220  221.9960 C   0  0  0  0  0  0  0  0  0  0  0  0
  141.7360   81.6170  223.4400 C   0  0  0  0  0  0  0  0  0  0  0  0
  142.0200   80.1950  223.8650 C   0  0  0  0  0  0  0  0  0  0  0  0
  140.9570   79.2650  223.3690 C   0  0  0  0  0  0  0  0  0  0  0  0
  139.7740   70.8420  223.1300 C   0  0  0  0  0  0  0  0  0  0  0  0
  139.1950   69.5700  223.1960 C   0  0  0  0  0  0  0  0  0  0  0  0
  139.1490   68.8880  224.4140 C   0  0  0  0  0  0  0  0  0  0  0  0
  139.6620   69.4340  225.5750 C   0  0  0  0  0  0  0  0  0  0  0  0
  139.6260   68.7750  226.7930 C   0  0  0  0  0  0  0  0  0  0  0  0
  140.1760   69.4300  227.8850 C   0  0  0  0  0  0  0  0  0  0  0  0
  140.1680   68.8320  229.1010 F   0  0  0  0  0  0  0  0  0  0  0  0
  140.7400   70.6880  227.7850 C   0  0  0  0  0  0  0  0  0  0  0  0
  140.7690   71.3360  226.5590 C   0  0  0  0  0  0  0  0  0  0  0  0
  140.2260   70.6990  225.4600 C   0  0  0  0  0  0  0  0  0  0  0  0
  140.2620   71.3420  224.2780 N   0  0  0  0  0  0  0  0  0  0  0  0
  140.5860   73.3650  222.7950 H   0  0  0  0  0  0  0  0  0  0  0  0
  140.7900   72.9925  219.8693 H   0  0  0  0  0  0  0  0  0  0  0  0
  139.3345   73.9288  220.3439 H   0  0  0  0  0  0  0  0  0  0  0  0
  141.4149   73.9056  218.2039 H   0  0  0  0  0  0  0  0  0  0  0  0
  140.7771   75.4738  217.7709 H   0  0  0  0  0  0  0  0  0  0  0  0
  142.9583   75.4544  216.5450 H   0  0  0  0  0  0  0  0  0  0  0  0
  144.7810   74.5640  217.9870 H   0  0  0  0  0  0  0  0  0  0  0  0
  144.4613   76.6722  218.4073 H   0  0  0  0  0  0  0  0  0  0  0  0
  143.0144   77.4852  217.7962 H   0  0  0  0  0  0  0  0  0  0  0  0
  143.5688   76.3869  220.4459 H   0  0  0  0  0  0  0  0  0  0  0  0
  142.1800   77.3260  222.1850 H   0  0  0  0  0  0  0  0  0  0  0  0
  140.0168   79.0632  221.4861 H   0  0  0  0  0  0  0  0  0  0  0  0
  142.8556   80.2221  221.4995 H   0  0  0  0  0  0  0  0  0  0  0  0
  141.5682   80.4217  220.2457 H   0  0  0  0  0  0  0  0  0  0  0  0
  141.7514   82.4897  221.4855 H   0  0  0  0  0  0  0  0  0  0  0  0
  140.2111   81.6833  221.9398 H   0  0  0  0  0  0  0  0  0  0  0  0
  142.6450   82.2253  223.5572 H   0  0  0  0  0  0  0  0  0  0  0  0
  140.9357   82.0387  224.0659 H   0  0  0  0  0  0  0  0  0  0  0  0
  142.9913   79.8836  223.4532 H   0  0  0  0  0  0  0  0  0  0  0  0
  142.0368   80.1542  224.9641 H   0  0  0  0  0  0  0  0  0  0  0  0
  141.0965   78.2744  223.8265 H   0  0  0  0  0  0  0  0  0  0  0  0
  139.9694   79.6649  223.6423 H   0  0  0  0  0  0  0  0  0  0  0  0
  138.7766   69.1077  222.2898 H   0  0  0  0  0  0  0  0  0  0  0  0
  138.6916   67.8883  224.4500 H   0  0  0  0  0  0  0  0  0  0  0  0
  139.1799   67.7742  226.8901 H   0  0  0  0  0  0  0  0  0  0  0  0
  141.1649   71.1741  228.6756 H   0  0  0  0  0  0  0  0  0  0  0  0
  141.2153   72.3369  226.4637 H   0  0  0  0  0  0  0  0  0  0  0  0
  1  2  2  0
  2  3  1  0
  3  4  1  0
  4  5  1  0
  5  6  2  0
  5  7  1  0
  7  8  1  0
  8  9  1  0
  9 10  1  0
  9 11  1  0
 11 12  1  0
 12 13  1  0
 13 14  2  0
 13 15  1  0
 15 16  1  0
 16 17  1  0
 17 18  1  0
 18 19  1  0
 19 20  1  0
 20 21  1  0
  2 22  1  0
 22 23  2  0
 23 24  1  0
 24 25  2  0
 25 26  1  0
 26 27  2  0
 27 28  1  0
 27 29  1  0
 29 30  2  0
 30 31  1  0
 31 32  2  0
 12  7  1  0
 21 16  1  0
 32 22  1  0
 31 25  1  0
  3 33  1  0
  4 34  1  0
  4 35  1  0
  8 36  1  0
  8 37  1  0
  9 38  1  6
 10 39  1  0
 11 40  1  0
 11 41  1  0
 12 42  1  1
 15 43  1  0
 16 44  1  0
 17 45  1  0
 17 46  1  0
 18 47  1  0
 18 48  1  0
 19 49  1  0
 19 50  1  0
 20 51  1  0
 20 52  1  0
 21 53  1  0
 21 54  1  0
 23 55  1  0
 24 56  1  0
 26 57  1  0
 29 58  1  0
 30 59  1  0
M  END
>  <smiles>  (9) 
O=C(NCC(=O)N1C[C@H](O)C[C@H]1C(=O)NC1CCCCC1)c1ccc2cc(F)ccc2n1

>  <score_type>  (9) 
oracle

>  <origin>  (9) 
autodockgpu

>  <m_score__min__energy>  (9) 
-8.7300000000000004

>  <m_primary>  (9) 
energy

>  <meeko>  (9) 
{"free_energy": -8.49, "intermolecular_energy": -10.58, "internal_energy": -2.72, "cluster_size": 17, "cluster_id": 1, "rank_in_cluster": 9}

>  <energy>  (9) 
-8.49

>  <cluster_rmsd>  (9) 
0.75

>  <rmsd>  (9) 
271.17

>  <cluster>  (9) 
1

$$$$

     RDKit          3D

 59 62  0  0  0  0  0  0  0  0999 V2000
  139.4030   70.2920  223.6450 O   0  0  0  0  0  0  0  0  0  0  0  0
  139.0280   71.4190  223.2330 C   0  0  0  0  0  0  0  0  0  0  0  0
  137.7100   71.9110  223.4550 N   0  0  0  0  0  0  0  0  0  0  0  0
  136.7910   71.0600  224.1840 C   0  0  0  0  0  0  0  0  0  0  0  0
  135.4470   71.7150  224.2320 C   0  0  0  0  0  0  0  0  0  0  0  0
  134.4410   71.0780  224.6460 O   0  0  0  0  0  0  0  0  0  0  0  0
  135.3600   73.0800  223.7930 N   0  0  0  0  0  0  0  0  0  0  0  0
  135.1310   73.5620  222.4310 C   0  0  0  0  0  0  0  0  0  0  0  0
  135.8600   74.8920  222.4270 C   0  0  2  0  0  0  0  0  0  0  0  0
  137.1860   74.6690  222.1470 O   0  0  0  0  0  0  0  0  0  0  0  0
  135.6100   75.4200  223.8260 C   0  0  0  0  0  0  0  0  0  0  0  0
  135.4960   74.2120  224.6980 C   0  0  1  0  0  0  0  0  0  0  0  0
  134.2750   74.2330  225.5450 C   0  0  0  0  0  0  0  0  0  0  0  0
  134.1800   74.9170  226.5830 O   0  0  0  0  0  0  0  0  0  0  0  0
  133.1820   73.4090  225.1050 N   0  0  0  0  0  0  0  0  0  0  0  0
  131.9660   73.3950  225.8990 C   0  0  0  0  0  0  0  0  0  0  0  0
  132.2890   72.6780  227.1930 C   0  0  0  0  0  0  0  0  0  0  0  0
  131.0220   72.2680  227.9200 C   0  0  0  0  0  0  0  0  0  0  0  0
  130.3120   71.2000  227.1310 C   0  0  0  0  0  0  0  0  0  0  0  0
  130.7830   71.2510  225.6970 C   0  0  0  0  0  0  0  0  0  0  0  0
  130.8500   72.6630  225.2040 C   0  0  0  0  0  0  0  0  0  0  0  0
  139.9430   72.2880  222.4960 C   0  0  0  0  0  0  0  0  0  0  0  0
  141.0770   71.7540  221.8750 C   0  0  0  0  0  0  0  0  0  0  0  0
  141.9470   72.5910  221.1720 C   0  0  0  0  0  0  0  0  0  0  0  0
  141.7240   73.9500  221.0680 C   0  0  0  0  0  0  0  0  0  0  0  0
  142.5740   74.7980  220.3760 C   0  0  0  0  0  0  0  0  0  0  0  0
  142.2400   76.1440  220.3450 C   0  0  0  0  0  0  0  0  0  0  0  0
  143.0350   77.0180  219.6820 F   0  0  0  0  0  0  0  0  0  0  0  0
  141.1110   76.6400  220.9690 C   0  0  0  0  0  0  0  0  0  0  0  0
  140.2680   75.7790  221.6580 C   0  0  0  0  0  0  0  0  0  0  0  0
  140.5860   74.4360  221.7010 C   0  0  0  0  0  0  0  0  0  0  0  0
  139.7580   73.6140  222.3730 N   0  0  0  0  0  0  0  0  0  0  0  0
  137.4040   72.8520  223.1080 H   0  0  0  0  0  0  0  0  0  0  0  0
  136.7085   70.0876  223.6763 H   0  0  0  0  0  0  0  0  0  0  0  0
  137.1634   70.9051  225.2074 H   0  0  0  0  0  0  0  0  0  0  0  0
  135.5581   72.8723  221.6881 H   0  0  0  0  0  0  0  0  0  0  0  0
  134.0661   73.6447  222.1682 H   0  0  0  0  0  0  0  0  0  0  0  0
  135.5246   75.6166  221.6704 H   0  0  0  0  0  0  0  0  0  0  0  0
  137.6970   74.2990  222.9290 H   0  0  0  0  0  0  0  0  0  0  0  0
  136.4488   76.0519  224.1533 H   0  0  0  0  0  0  0  0  0  0  0  0
  134.7029   76.0406  223.8703 H   0  0  0  0  0  0  0  0  0  0  0  0
  136.3720   74.1651  225.3616 H   0  0  0  0  0  0  0  0  0  0  0  0
  133.2460   72.8370  224.2470 H   0  0  0  0  0  0  0  0  0  0  0  0
  131.6299   74.4289  226.0666 H   0  0  0  0  0  0  0  0  0  0  0  0
  132.8811   71.7788  226.9676 H   0  0  0  0  0  0  0  0  0  0  0  0
  132.8575   73.3625  227.8397 H   0  0  0  0  0  0  0  0  0  0  0  0
  131.2807   71.8773  228.9152 H   0  0  0  0  0  0  0  0  0  0  0  0
  130.3630   73.1421  228.0283 H   0  0  0  0  0  0  0  0  0  0  0  0
  130.5401   70.2126  227.5589 H   0  0  0  0  0  0  0  0  0  0  0  0
  129.2259   71.3694  227.1710 H   0  0  0  0  0  0  0  0  0  0  0  0
  131.7837   70.7990  225.6308 H   0  0  0  0  0  0  0  0  0  0  0  0
  130.0672   70.6957  225.0731 H   0  0  0  0  0  0  0  0  0  0  0  0
  131.0338   72.6625  224.1195 H   0  0  0  0  0  0  0  0  0  0  0  0
  129.8965   73.1676  225.4189 H   0  0  0  0  0  0  0  0  0  0  0  0
  141.2836   70.6755  221.9402 H   0  0  0  0  0  0  0  0  0  0  0  0
  142.8338   72.1558  220.6881 H   0  0  0  0  0  0  0  0  0  0  0  0
  143.4758   74.4196  219.8724 H   0  0  0  0  0  0  0  0  0  0  0  0
  140.8810   77.7146  220.9197 H   0  0  0  0  0  0  0  0  0  0  0  0
  139.3655   76.1586  222.1593 H   0  0  0  0  0  0  0  0  0  0  0  0
  1  2  2  0
  2  3  1  0
  3  4  1  0
  4  5  1  0
  5  6  2  0
  5  7  1  0
  7  8  1  0
  8  9  1  0
  9 10  1  0
  9 11  1  0
 11 12  1  0
 12 13  1  0
 13 14  2  0
 13 15  1  0
 15 16  1  0
 16 17  1  0
 17 18  1  0
 18 19  1  0
 19 20  1  0
 20 21  1  0
  2 22  1  0
 22 23  2  0
 23 24  1  0
 24 25  2  0
 25 26  1  0
 26 27  2  0
 27 28  1  0
 27 29  1  0
 29 30  2  0
 30 31  1  0
 31 32  2  0
 12  7  1  0
 21 16  1  0
 32 22  1  0
 31 25  1  0
  3 33  1  0
  4 34  1  0
  4 35  1  0
  8 36  1  0
  8 37  1  0
  9 38  1  6
 10 39  1  0
 11 40  1  0
 11 41  1  0
 12 42  1  1
 15 43  1  0
 16 44  1  0
 17 45  1  0
 17 46  1  0
 18 47  1  0
 18 48  1  0
 19 49  1  0
 19 50  1  0
 20 51  1  0
 20 52  1  0
 21 53  1  0
 21 54  1  0
 23 55  1  0
 24 56  1  0
 26 57  1  0
 29 58  1  0
 30 59  1  0
M  END
>  <smiles>  (10) 
O=C(NCC(=O)N1C[C@H](O)C[C@H]1C(=O)NC1CCCCC1)c1ccc2cc(F)ccc2n1

>  <score_type>  (10) 
oracle

>  <origin>  (10) 
autodockgpu

>  <m_score__min__energy>  (10) 
-8.7300000000000004

>  <m_primary>  (10) 
energy

>  <meeko>  (10) 
{"free_energy": -5.94, "intermolecular_energy": -8.03, "internal_energy": -4.08, "cluster_size": 1, "cluster_id": 3, "rank_in_cluster": 1}

>  <energy>  (10) 
-8.25

>  <cluster_rmsd>  (10) 
0.79

>  <rmsd>  (10) 
271.06

>  <cluster>  (10) 
1

$$$$

     RDKit          3D

 59 62  0  0  0  0  0  0  0  0999 V2000
  141.0480   72.2840  221.5580 O   0  0  0  0  0  0  0  0  0  0  0  0
  140.1260   72.3490  222.4120 C   0  0  0  0  0  0  0  0  0  0  0  0
  139.0810   73.3130  222.3320 N   0  0  0  0  0  0  0  0  0  0  0  0
  139.1060   74.2380  221.2180 C   0  0  0  0  0  0  0  0  0  0  0  0
  140.3500   75.0660  221.2930 C   0  0  0  0  0  0  0  0  0  0  0  0
  140.6080   75.7390  222.3280 O   0  0  0  0  0  0  0  0  0  0  0  0
  141.2200   75.0570  220.1500 N   0  0  0  0  0  0  0  0  0  0  0  0
  141.0070   74.3700  218.8770 C   0  0  0  0  0  0  0  0  0  0  0  0
  142.4230   74.0730  218.4230 C   0  0  2  0  0  0  0  0  0  0  0  0
  142.8380   72.9020  219.0080 O   0  0  0  0  0  0  0  0  0  0  0  0
  143.1910   75.2950  218.8860 C   0  0  0  0  0  0  0  0  0  0  0  0
  142.4890   75.7690  220.1180 C   0  0  1  0  0  0  0  0  0  0  0  0
  142.1670   77.2180  220.0680 C   0  0  0  0  0  0  0  0  0  0  0  0
  142.1760   77.8810  219.0110 O   0  0  0  0  0  0  0  0  0  0  0  0
  141.8360   77.8400  221.3210 N   0  0  0  0  0  0  0  0  0  0  0  0
  141.5140   79.2560  221.3250 C   0  0  0  0  0  0  0  0  0  0  0  0
  142.3950   79.9100  222.3690 C   0  0  0  0  0  0  0  0  0  0  0  0
  141.8820   81.2910  222.7290 C   0  0  0  0  0  0  0  0  0  0  0  0
  140.5660   81.1680  223.4510 C   0  0  0  0  0  0  0  0  0  0  0  0
  139.9580   79.8200  223.1410 C   0  0  0  0  0  0  0  0  0  0  0  0
  140.0730   79.5030  221.6830 C   0  0  0  0  0  0  0  0  0  0  0  0
  140.0880   71.4230  223.5420 C   0  0  0  0  0  0  0  0  0  0  0  0
  139.5480   70.1430  223.3870 C   0  0  0  0  0  0  0  0  0  0  0  0
  139.5150   69.2630  224.4720 C   0  0  0  0  0  0  0  0  0  0  0  0
  140.0040   69.6190  225.7130 C   0  0  0  0  0  0  0  0  0  0  0  0
  139.9810   68.7630  226.8020 C   0  0  0  0  0  0  0  0  0  0  0  0
  140.5040   69.2400  227.9950 C   0  0  0  0  0  0  0  0  0  0  0  0
  140.5070   68.4450  229.0920 F   0  0  0  0  0  0  0  0  0  0  0  0
  141.0310   70.5120  228.1150 C   0  0  0  0  0  0  0  0  0  0  0  0
  141.0470   71.3590  227.0160 C   0  0  0  0  0  0  0  0  0  0  0  0
  140.5300   70.9020  225.8200 C   0  0  0  0  0  0  0  0  0  0  0  0
  140.5540   71.7350  224.7640 N   0  0  0  0  0  0  0  0  0  0  0  0
  138.3160   73.3620  223.0480 H   0  0  0  0  0  0  0  0  0  0  0  0
  139.0949   73.6756  220.2727 H   0  0  0  0  0  0  0  0  0  0  0  0
  138.2233   74.8929  221.2619 H   0  0  0  0  0  0  0  0  0  0  0  0
  140.4318   73.4429  219.0171 H   0  0  0  0  0  0  0  0  0  0  0  0
  140.4288   74.9609  218.1513 H   0  0  0  0  0  0  0  0  0  0  0  0
  142.5540   73.9164  217.3421 H   0  0  0  0  0  0  0  0  0  0  0  0
  142.2870   72.6430  219.8060 H   0  0  0  0  0  0  0  0  0  0  0  0
  144.2331   75.0289  219.1164 H   0  0  0  0  0  0  0  0  0  0  0  0
  143.2217   76.0742  218.1101 H   0  0  0  0  0  0  0  0  0  0  0  0
  143.1353   75.5922  220.9904 H   0  0  0  0  0  0  0  0  0  0  0  0
  141.8240   77.3040  222.2050 H   0  0  0  0  0  0  0  0  0  0  0  0
  141.6815   79.6686  220.3192 H   0  0  0  0  0  0  0  0  0  0  0  0
  142.4058   79.2838  223.2733 H   0  0  0  0  0  0  0  0  0  0  0  0
  143.4097   80.0109  221.9563 H   0  0  0  0  0  0  0  0  0  0  0  0
  142.6115   81.7943  223.3805 H   0  0  0  0  0  0  0  0  0  0  0  0
  141.7415   81.8797  221.8105 H   0  0  0  0  0  0  0  0  0  0  0  0
  140.7304   81.2578  224.5349 H   0  0  0  0  0  0  0  0  0  0  0  0
  139.8855   81.9669  223.1213 H   0  0  0  0  0  0  0  0  0  0  0  0
  140.4837   79.0464  223.7200 H   0  0  0  0  0  0  0  0  0  0  0  0
  138.8920   79.8455  223.4114 H   0  0  0  0  0  0  0  0  0  0  0  0
  139.4817   78.6033  221.4575 H   0  0  0  0  0  0  0  0  0  0  0  0
  139.6945   80.3531  221.0964 H   0  0  0  0  0  0  0  0  0  0  0  0
  139.1492   69.8286  222.4112 H   0  0  0  0  0  0  0  0  0  0  0  0
  139.0876   68.2589  224.3335 H   0  0  0  0  0  0  0  0  0  0  0  0
  139.5654   67.7475  226.7239 H   0  0  0  0  0  0  0  0  0  0  0  0
  141.4367   70.8521  229.0792 H   0  0  0  0  0  0  0  0  0  0  0  0
  141.4632   72.3741  227.0960 H   0  0  0  0  0  0  0  0  0  0  0  0
  1  2  2  0
  2  3  1  0
  3  4  1  0
  4  5  1  0
  5  6  2  0
  5  7  1  0
  7  8  1  0
  8  9  1  0
  9 10  1  0
  9 11  1  0
 11 12  1  0
 12 13  1  0
 13 14  2  0
 13 15  1  0
 15 16  1  0
 16 17  1  0
 17 18  1  0
 18 19  1  0
 19 20  1  0
 20 21  1  0
  2 22  1  0
 22 23  2  0
 23 24  1  0
 24 25  2  0
 25 26  1  0
 26 27  2  0
 27 28  1  0
 27 29  1  0
 29 30  2  0
 30 31  1  0
 31 32  2  0
 12  7  1  0
 21 16  1  0
 32 22  1  0
 31 25  1  0
  3 33  1  0
  4 34  1  0
  4 35  1  0
  8 36  1  0
  8 37  1  0
  9 38  1  6
 10 39  1  0
 11 40  1  0
 11 41  1  0
 12 42  1  1
 15 43  1  0
 16 44  1  0
 17 45  1  0
 17 46  1  0
 18 47  1  0
 18 48  1  0
 19 49  1  0
 19 50  1  0
 20 51  1  0
 20 52  1  0
 21 53  1  0
 21 54  1  0
 23 55  1  0
 24 56  1  0
 26 57  1  0
 29 58  1  0
 30 59  1  0
M  END
>  <smiles>  (11) 
O=C(NCC(=O)N1C[C@H](O)C[C@H]1C(=O)NC1CCCCC1)c1ccc2cc(F)ccc2n1

>  <score_type>  (11) 
oracle

>  <origin>  (11) 
autodockgpu

>  <m_score__min__energy>  (11) 
-8.7300000000000004

>  <m_primary>  (11) 
energy

>  <meeko>  (11) 
{"free_energy": -8.54, "intermolecular_energy": -10.63, "internal_energy": -3.01, "cluster_size": 17, "cluster_id": 1, "rank_in_cluster": 7}

>  <energy>  (11) 
-8.24

>  <cluster_rmsd>  (11) 
0.71

>  <rmsd>  (11) 
270.95

>  <cluster>  (11) 
1

$$$$

     RDKit          3D

 59 62  0  0  0  0  0  0  0  0999 V2000
  141.0520   72.2390  221.5350 O   0  0  0  0  0  0  0  0  0  0  0  0
  140.1470   72.3280  222.4050 C   0  0  0  0  0  0  0  0  0  0  0  0
  139.1230   73.3150  222.3400 N   0  0  0  0  0  0  0  0  0  0  0  0
  139.1500   74.2360  221.2220 C   0  0  0  0  0  0  0  0  0  0  0  0
  140.3890   75.0700  221.3010 C   0  0  0  0  0  0  0  0  0  0  0  0
  140.6420   75.7420  222.3380 O   0  0  0  0  0  0  0  0  0  0  0  0
  141.2610   75.0690  220.1590 N   0  0  0  0  0  0  0  0  0  0  0  0
  141.0560   74.3790  218.8860 C   0  0  0  0  0  0  0  0  0  0  0  0
  142.4750   74.0960  218.4340 C   0  0  2  0  0  0  0  0  0  0  0  0
  142.9020   72.9290  219.0200 O   0  0  0  0  0  0  0  0  0  0  0  0
  143.2310   75.3260  218.8980 C   0  0  0  0  0  0  0  0  0  0  0  0
  142.5230   75.7940  220.1280 C   0  0  1  0  0  0  0  0  0  0  0  0
  142.1860   77.2400  220.0760 C   0  0  0  0  0  0  0  0  0  0  0  0
  142.1960   77.9030  219.0200 O   0  0  0  0  0  0  0  0  0  0  0  0
  141.8410   77.8570  221.3280 N   0  0  0  0  0  0  0  0  0  0  0  0
  141.5040   79.2700  221.3300 C   0  0  0  0  0  0  0  0  0  0  0  0
  142.3730   79.9320  222.3790 C   0  0  0  0  0  0  0  0  0  0  0  0
  141.8440   81.3080  222.7360 C   0  0  0  0  0  0  0  0  0  0  0  0
  140.5270   81.1720  223.4520 C   0  0  0  0  0  0  0  0  0  0  0  0
  139.9330   79.8180  223.1390 C   0  0  0  0  0  0  0  0  0  0  0  0
  140.0590   79.5020  221.6810 C   0  0  0  0  0  0  0  0  0  0  0  0
  140.1080   71.4060  223.5380 C   0  0  0  0  0  0  0  0  0  0  0  0
  139.5690   70.1240  223.3860 C   0  0  0  0  0  0  0  0  0  0  0  0
  139.5350   69.2480  224.4750 C   0  0  0  0  0  0  0  0  0  0  0  0
  140.0210   69.6110  225.7160 C   0  0  0  0  0  0  0  0  0  0  0  0
  139.9970   68.7590  226.8080 C   0  0  0  0  0  0  0  0  0  0  0  0
  140.5160   69.2410  228.0010 C   0  0  0  0  0  0  0  0  0  0  0  0
  140.5180   68.4500  229.1010 F   0  0  0  0  0  0  0  0  0  0  0  0
  141.0410   70.5140  228.1170 C   0  0  0  0  0  0  0  0  0  0  0  0
  141.0590   71.3570  227.0150 C   0  0  0  0  0  0  0  0  0  0  0  0
  140.5460   70.8940  225.8190 C   0  0  0  0  0  0  0  0  0  0  0  0
  140.5710   71.7240  224.7600 N   0  0  0  0  0  0  0  0  0  0  0  0
  138.3720   73.3830  223.0680 H   0  0  0  0  0  0  0  0  0  0  0  0
  139.1472   73.6698  220.2789 H   0  0  0  0  0  0  0  0  0  0  0  0
  138.2638   74.8867  221.2581 H   0  0  0  0  0  0  0  0  0  0  0  0
  140.4899   73.4463  219.0260 H   0  0  0  0  0  0  0  0  0  0  0  0
  140.4726   74.9635  218.1593 H   0  0  0  0  0  0  0  0  0  0  0  0
  142.6079   73.9404  217.3532 H   0  0  0  0  0  0  0  0  0  0  0  0
  142.3220   72.6390  219.7870 H   0  0  0  0  0  0  0  0  0  0  0  0
  144.2752   75.0697  219.1303 H   0  0  0  0  0  0  0  0  0  0  0  0
  143.2555   76.1050  218.1218 H   0  0  0  0  0  0  0  0  0  0  0  0
  143.1700   75.6248  221.0013 H   0  0  0  0  0  0  0  0  0  0  0  0
  141.8280   77.3210  222.2110 H   0  0  0  0  0  0  0  0  0  0  0  0
  141.6718   79.6847  220.3251 H   0  0  0  0  0  0  0  0  0  0  0  0
  142.3849   79.3058  223.2833 H   0  0  0  0  0  0  0  0  0  0  0  0
  143.3891   80.0426  221.9724 H   0  0  0  0  0  0  0  0  0  0  0  0
  142.5654   81.8192  223.3903 H   0  0  0  0  0  0  0  0  0  0  0  0
  141.7012   81.8946  221.8165 H   0  0  0  0  0  0  0  0  0  0  0  0
  140.6860   81.2629  224.5366 H   0  0  0  0  0  0  0  0  0  0  0  0
  139.8403   81.9644  223.1196 H   0  0  0  0  0  0  0  0  0  0  0  0
  140.4627   79.0494  223.7209 H   0  0  0  0  0  0  0  0  0  0  0  0
  138.8654   79.8335  223.4037 H   0  0  0  0  0  0  0  0  0  0  0  0
  139.4782   78.5961  221.4526 H   0  0  0  0  0  0  0  0  0  0  0  0
  139.6748   80.3483  221.0926 H   0  0  0  0  0  0  0  0  0  0  0  0
  139.1724   69.8056  222.4107 H   0  0  0  0  0  0  0  0  0  0  0  0
  139.1098   68.2425  224.3400 H   0  0  0  0  0  0  0  0  0  0  0  0
  139.5836   67.7425  226.7324 H   0  0  0  0  0  0  0  0  0  0  0  0
  141.4438   70.8583  229.0810 H   0  0  0  0  0  0  0  0  0  0  0  0
  141.4733   72.3731  227.0922 H   0  0  0  0  0  0  0  0  0  0  0  0
  1  2  2  0
  2  3  1  0
  3  4  1  0
  4  5  1  0
  5  6  2  0
  5  7  1  0
  7  8  1  0
  8  9  1  0
  9 10  1  0
  9 11  1  0
 11 12  1  0
 12 13  1  0
 13 14  2  0
 13 15  1  0
 15 16  1  0
 16 17  1  0
 17 18  1  0
 18 19  1  0
 19 20  1  0
 20 21  1  0
  2 22  1  0
 22 23  2  0
 23 24  1  0
 24 25  2  0
 25 26  1  0
 26 27  2  0
 27 28  1  0
 27 29  1  0
 29 30  2  0
 30 31  1  0
 31 32  2  0
 12  7  1  0
 21 16  1  0
 32 22  1  0
 31 25  1  0
  3 33  1  0
  4 34  1  0
  4 35  1  0
  8 36  1  0
  8 37  1  0
  9 38  1  6
 10 39  1  0
 11 40  1  0
 11 41  1  0
 12 42  1  1
 15 43  1  0
 16 44  1  0
 17 45  1  0
 17 46  1  0
 18 47  1  0
 18 48  1  0
 19 49  1  0
 19 50  1  0
 20 51  1  0
 20 52  1  0
 21 53  1  0
 21 54  1  0
 23 55  1  0
 24 56  1  0
 26 57  1  0
 29 58  1  0
 30 59  1  0
M  END
>  <smiles>  (12) 
O=C(NCC(=O)N1C[C@H](O)C[C@H]1C(=O)NC1CCCCC1)c1ccc2cc(F)ccc2n1

>  <score_type>  (12) 
oracle

>  <origin>  (12) 
autodockgpu

>  <m_score__min__energy>  (12) 
-8.7300000000000004

>  <m_primary>  (12) 
energy

>  <meeko>  (12) 
{"free_energy": -8.55, "intermolecular_energy": -10.64, "internal_energy": -3.0, "cluster_size": 17, "cluster_id": 1, "rank_in_cluster": 3}

>  <energy>  (12) 
-8.11

>  <cluster_rmsd>  (12) 
0.95

>  <rmsd>  (12) 
270.99

>  <cluster>  (12) 
1

$$$$

     RDKit          3D

 59 62  0  0  0  0  0  0  0  0999 V2000
  139.3650   71.3500  221.0350 O   0  0  0  0  0  0  0  0  0  0  0  0
  139.4760   71.8810  222.1700 C   0  0  0  0  0  0  0  0  0  0  0  0
  139.4770   73.2930  222.3530 N   0  0  0  0  0  0  0  0  0  0  0  0
  139.3450   74.1220  221.1730 C   0  0  0  0  0  0  0  0  0  0  0  0
  140.6640   74.7590  220.8690 C   0  0  0  0  0  0  0  0  0  0  0  0
  141.6780   74.4970  221.5710 O   0  0  0  0  0  0  0  0  0  0  0  0
  140.7180   75.6690  219.7580 N   0  0  0  0  0  0  0  0  0  0  0  0
  139.8350   75.7020  218.5930 C   0  0  0  0  0  0  0  0  0  0  0  0
  140.7410   76.2530  217.5090 C   0  0  2  0  0  0  0  0  0  0  0  0
  141.4570   75.2160  216.9620 O   0  0  0  0  0  0  0  0  0  0  0  0
  141.5950   77.2570  218.2580 C   0  0  0  0  0  0  0  0  0  0  0  0
  141.7130   76.7260  219.6500 C   0  0  1  0  0  0  0  0  0  0  0  0
  141.3730   77.7420  220.6790 C   0  0  0  0  0  0  0  0  0  0  0  0
  141.0340   78.9090  220.3960 O   0  0  0  0  0  0  0  0  0  0  0  0
  141.4520   77.3130  222.0480 N   0  0  0  0  0  0  0  0  0  0  0  0
  141.1290   78.2700  223.0920 C   0  0  0  0  0  0  0  0  0  0  0  0
  139.8120   78.9140  222.7110 C   0  0  0  0  0  0  0  0  0  0  0  0
  139.5740   80.1820  223.5100 C   0  0  0  0  0  0  0  0  0  0  0  0
  140.5750   81.2310  223.1000 C   0  0  0  0  0  0  0  0  0  0  0  0
  141.7560   80.5550  222.4430 C   0  0  0  0  0  0  0  0  0  0  0  0
  142.1770   79.3430  223.2140 C   0  0  0  0  0  0  0  0  0  0  0  0
  139.6100   71.0580  223.3700 C   0  0  0  0  0  0  0  0  0  0  0  0
  139.1940   69.7220  223.3590 C   0  0  0  0  0  0  0  0  0  0  0  0
  139.3250   68.9410  224.5100 C   0  0  0  0  0  0  0  0  0  0  0  0
  139.8600   69.4500  225.6780 C   0  0  0  0  0  0  0  0  0  0  0  0
  139.9990   68.6940  226.8300 C   0  0  0  0  0  0  0  0  0  0  0  0
  140.5510   69.3210  227.9380 C   0  0  0  0  0  0  0  0  0  0  0  0
  140.7110   68.6290  229.0910 F   0  0  0  0  0  0  0  0  0  0  0  0
  140.9520   70.6430  227.9150 C   0  0  0  0  0  0  0  0  0  0  0  0
  140.8070   71.3890  226.7540 C   0  0  0  0  0  0  0  0  0  0  0  0
  140.2580   70.7820  225.6410 C   0  0  0  0  0  0  0  0  0  0  0  0
  140.1250   71.5190  224.5230 N   0  0  0  0  0  0  0  0  0  0  0  0
  139.5700   73.7290  223.3020 H   0  0  0  0  0  0  0  0  0  0  0  0
  139.0310   73.5015  220.3207 H   0  0  0  0  0  0  0  0  0  0  0  0
  138.5905   74.9021  221.3521 H   0  0  0  0  0  0  0  0  0  0  0  0
  139.4769   74.6939  218.3371 H   0  0  0  0  0  0  0  0  0  0  0  0
  138.9252   76.3001  218.7496 H   0  0  0  0  0  0  0  0  0  0  0  0
  140.2307   76.7307  216.6596 H   0  0  0  0  0  0  0  0  0  0  0  0
  141.7190   75.3790  216.0060 H   0  0  0  0  0  0  0  0  0  0  0  0
  142.5884   77.3387  217.7928 H   0  0  0  0  0  0  0  0  0  0  0  0
  141.1487   78.2623  218.2426 H   0  0  0  0  0  0  0  0  0  0  0  0
  142.7490   76.3988  219.8219 H   0  0  0  0  0  0  0  0  0  0  0  0
  141.7310   76.3490  222.2980 H   0  0  0  0  0  0  0  0  0  0  0  0
  141.0754   77.7486  224.0591 H   0  0  0  0  0  0  0  0  0  0  0  0
  139.8299   79.1623  221.6395 H   0  0  0  0  0  0  0  0  0  0  0  0
  138.9997   78.2051  222.9294 H   0  0  0  0  0  0  0  0  0  0  0  0
  138.5561   80.5514  223.3165 H   0  0  0  0  0  0  0  0  0  0  0  0
  139.6887   79.9659  224.5824 H   0  0  0  0  0  0  0  0  0  0  0  0
  140.1076   81.9289  222.3897 H   0  0  0  0  0  0  0  0  0  0  0  0
  140.9122   81.7889  223.9860 H   0  0  0  0  0  0  0  0  0  0  0  0
  141.4761   80.2532  221.4229 H   0  0  0  0  0  0  0  0  0  0  0  0
  142.5966   81.2641  222.4179 H   0  0  0  0  0  0  0  0  0  0  0  0
  143.1307   78.9688  222.8135 H   0  0  0  0  0  0  0  0  0  0  0  0
  142.2991   79.6117  224.2737 H   0  0  0  0  0  0  0  0  0  0  0  0
  138.7641   69.2870  222.4447 H   0  0  0  0  0  0  0  0  0  0  0  0
  138.9933   67.8925  224.4858 H   0  0  0  0  0  0  0  0  0  0  0  0
  139.6849   67.6404  226.8652 H   0  0  0  0  0  0  0  0  0  0  0  0
  141.3853   71.1032  228.8152 H   0  0  0  0  0  0  0  0  0  0  0  0
  141.1228   72.4422  226.7205 H   0  0  0  0  0  0  0  0  0  0  0  0
  1  2  2  0
  2  3  1  0
  3  4  1  0
  4  5  1  0
  5  6  2  0
  5  7  1  0
  7  8  1  0
  8  9  1  0
  9 10  1  0
  9 11  1  0
 11 12  1  0
 12 13  1  0
 13 14  2  0
 13 15  1  0
 15 16  1  0
 16 17  1  0
 17 18  1  0
 18 19  1  0
 19 20  1  0
 20 21  1  0
  2 22  1  0
 22 23  2  0
 23 24  1  0
 24 25  2  0
 25 26  1  0
 26 27  2  0
 27 28  1  0
 27 29  1  0
 29 30  2  0
 30 31  1  0
 31 32  2  0
 12  7  1  0
 21 16  1  0
 32 22  1  0
 31 25  1  0
  3 33  1  0
  4 34  1  0
  4 35  1  0
  8 36  1  0
  8 37  1  0
  9 38  1  6
 10 39  1  0
 11 40  1  0
 11 41  1  0
 12 42  1  1
 15 43  1  0
 16 44  1  0
 17 45  1  0
 17 46  1  0
 18 47  1  0
 18 48  1  0
 19 49  1  0
 19 50  1  0
 20 51  1  0
 20 52  1  0
 21 53  1  0
 21 54  1  0
 23 55  1  0
 24 56  1  0
 26 57  1  0
 29 58  1  0
 30 59  1  0
M  END
>  <smiles>  (13) 
O=C(NCC(=O)N1C[C@H](O)C[C@H]1C(=O)NC1CCCCC1)c1ccc2cc(F)ccc2n1

>  <score_type>  (13) 
oracle

>  <origin>  (13) 
autodockgpu

>  <m_score__min__energy>  (13) 
-8.7300000000000004

>  <m_primary>  (13) 
energy

>  <meeko>  (13) 
{"free_energy": -8.11, "intermolecular_energy": -10.2, "internal_energy": -2.17, "cluster_size": 17, "cluster_id": 1, "rank_in_cluster": 12}

>  <energy>  (13) 
-8.03

>  <cluster_rmsd>  (13) 
1.05

>  <rmsd>  (13) 
270.88

>  <cluster>  (13) 
1

$$$$

     RDKit          3D

 59 62  0  0  0  0  0  0  0  0999 V2000
  139.4850   71.0520  221.0420 O   0  0  0  0  0  0  0  0  0  0  0  0
  139.5390   71.6150  222.1660 C   0  0  0  0  0  0  0  0  0  0  0  0
  139.5600   73.0320  222.3080 N   0  0  0  0  0  0  0  0  0  0  0  0
  139.5160   73.8270  221.0990 C   0  0  0  0  0  0  0  0  0  0  0  0
  140.5260   74.9260  221.1960 C   0  0  0  0  0  0  0  0  0  0  0  0
  140.8250   75.4220  222.3160 O   0  0  0  0  0  0  0  0  0  0  0  0
  141.1270   75.3820  219.9730 N   0  0  0  0  0  0  0  0  0  0  0  0
  140.7710   74.9920  218.6090 C   0  0  0  0  0  0  0  0  0  0  0  0
  142.0900   75.1280  217.8740 C   0  0  2  0  0  0  0  0  0  0  0  0
  142.8100   73.9700  218.0390 O   0  0  0  0  0  0  0  0  0  0  0  0
  142.7210   76.3400  218.5310 C   0  0  0  0  0  0  0  0  0  0  0  0
  142.2220   76.3400  219.9400 C   0  0  1  0  0  0  0  0  0  0  0  0
  141.6570   77.6520  220.3440 C   0  0  0  0  0  0  0  0  0  0  0  0
  141.2280   78.4900  219.5250 O   0  0  0  0  0  0  0  0  0  0  0  0
  141.6250   77.9240  221.7560 N   0  0  0  0  0  0  0  0  0  0  0  0
  141.0820   79.1940  222.2020 C   0  0  0  0  0  0  0  0  0  0  0  0
  141.9940   80.2790  221.6710 C   0  0  0  0  0  0  0  0  0  0  0  0
  141.7510   81.5960  222.3850 C   0  0  0  0  0  0  0  0  0  0  0  0
  142.1940   81.4790  223.8200 C   0  0  0  0  0  0  0  0  0  0  0  0
  142.2460   80.0180  224.2030 C   0  0  0  0  0  0  0  0  0  0  0  0
  141.0370   79.2900  223.7040 C   0  0  0  0  0  0  0  0  0  0  0  0
  139.5840   70.8250  223.3960 C   0  0  0  0  0  0  0  0  0  0  0  0
  139.0820   69.5200  223.4140 C   0  0  0  0  0  0  0  0  0  0  0  0
  139.1290   68.7720  224.5930 C   0  0  0  0  0  0  0  0  0  0  0  0
  139.6610   69.2840  225.7600 C   0  0  0  0  0  0  0  0  0  0  0  0
  139.7170   68.5600  226.9400 C   0  0  0  0  0  0  0  0  0  0  0  0
  140.2750   69.1870  228.0440 C   0  0  0  0  0  0  0  0  0  0  0  0
  140.3560   68.5250  229.2230 F   0  0  0  0  0  0  0  0  0  0  0  0
  140.7620   70.4790  227.9910 C   0  0  0  0  0  0  0  0  0  0  0  0
  140.7000   71.1930  226.8030 C   0  0  0  0  0  0  0  0  0  0  0  0
  140.1460   70.5850  225.6940 C   0  0  0  0  0  0  0  0  0  0  0  0
  140.0940   71.2910  224.5490 N   0  0  0  0  0  0  0  0  0  0  0  0
  139.6050   73.4930  223.2480 H   0  0  0  0  0  0  0  0  0  0  0  0
  139.7467   73.1908  220.2318 H   0  0  0  0  0  0  0  0  0  0  0  0
  138.5114   74.2581  220.9765 H   0  0  0  0  0  0  0  0  0  0  0  0
  140.4020   73.9563  218.5752 H   0  0  0  0  0  0  0  0  0  0  0  0
  139.9629   75.5998  218.1759 H   0  0  0  0  0  0  0  0  0  0  0  0
  142.0162   75.2679  216.7854 H   0  0  0  0  0  0  0  0  0  0  0  0
  142.2530   73.1410  217.9360 H   0  0  0  0  0  0  0  0  0  0  0  0
  143.8179   76.2592  218.5123 H   0  0  0  0  0  0  0  0  0  0  0  0
  142.4576   77.2702  218.0063 H   0  0  0  0  0  0  0  0  0  0  0  0
  143.0567   76.1045  220.6166 H   0  0  0  0  0  0  0  0  0  0  0  0
  141.9770   77.2400  222.4470 H   0  0  0  0  0  0  0  0  0  0  0  0
  140.0511   79.2968  221.8324 H   0  0  0  0  0  0  0  0  0  0  0  0
  143.0402   79.9754  221.8238 H   0  0  0  0  0  0  0  0  0  0  0  0
  141.7839   80.4185  220.6003 H   0  0  0  0  0  0  0  0  0  0  0  0
  142.3236   82.3933  221.8884 H   0  0  0  0  0  0  0  0  0  0  0  0
  140.6787   81.8388  222.3512 H   0  0  0  0  0  0  0  0  0  0  0  0
  143.1925   81.9259  223.9350 H   0  0  0  0  0  0  0  0  0  0  0  0
  141.4835   82.0083  224.4719 H   0  0  0  0  0  0  0  0  0  0  0  0
  143.1465   79.5629  223.7647 H   0  0  0  0  0  0  0  0  0  0  0  0
  142.2722   79.9437  225.3002 H   0  0  0  0  0  0  0  0  0  0  0  0
  141.0172   78.2777  224.1340 H   0  0  0  0  0  0  0  0  0  0  0  0
  140.1328   79.8391  224.0055 H   0  0  0  0  0  0  0  0  0  0  0  0
  138.6508   69.0830  222.5013 H   0  0  0  0  0  0  0  0  0  0  0  0
  138.7311   67.7465  224.5917 H   0  0  0  0  0  0  0  0  0  0  0  0
  139.3346   67.5303  226.9987 H   0  0  0  0  0  0  0  0  0  0  0  0
  141.1981   70.9407  228.8891 H   0  0  0  0  0  0  0  0  0  0  0  0
  141.0842   72.2221  226.7458 H   0  0  0  0  0  0  0  0  0  0  0  0
  1  2  2  0
  2  3  1  0
  3  4  1  0
  4  5  1  0
  5  6  2  0
  5  7  1  0
  7  8  1  0
  8  9  1  0
  9 10  1  0
  9 11  1  0
 11 12  1  0
 12 13  1  0
 13 14  2  0
 13 15  1  0
 15 16  1  0
 16 17  1  0
 17 18  1  0
 18 19  1  0
 19 20  1  0
 20 21  1  0
  2 22  1  0
 22 23  2  0
 23 24  1  0
 24 25  2  0
 25 26  1  0
 26 27  2  0
 27 28  1  0
 27 29  1  0
 29 30  2  0
 30 31  1  0
 31 32  2  0
 12  7  1  0
 21 16  1  0
 32 22  1  0
 31 25  1  0
  3 33  1  0
  4 34  1  0
  4 35  1  0
  8 36  1  0
  8 37  1  0
  9 38  1  6
 10 39  1  0
 11 40  1  0
 11 41  1  0
 12 42  1  1
 15 43  1  0
 16 44  1  0
 17 45  1  0
 17 46  1  0
 18 47  1  0
 18 48  1  0
 19 49  1  0
 19 50  1  0
 20 51  1  0
 20 52  1  0
 21 53  1  0
 21 54  1  0
 23 55  1  0
 24 56  1  0
 26 57  1  0
 29 58  1  0
 30 59  1  0
M  END
>  <smiles>  (14) 
O=C(NCC(=O)N1C[C@H](O)C[C@H]1C(=O)NC1CCCCC1)c1ccc2cc(F)ccc2n1

>  <score_type>  (14) 
oracle

>  <origin>  (14) 
autodockgpu

>  <m_score__min__energy>  (14) 
-8.7300000000000004

>  <m_primary>  (14) 
energy

>  <meeko>  (14) 
{"free_energy": -8.55, "intermolecular_energy": -10.63, "internal_energy": -2.54, "cluster_size": 17, "cluster_id": 1, "rank_in_cluster": 6}

>  <energy>  (14) 
-8.03

>  <cluster_rmsd>  (14) 
1.25

>  <rmsd>  (14) 
270.93

>  <cluster>  (14) 
1

$$$$

     RDKit          3D

 59 62  0  0  0  0  0  0  0  0999 V2000
  138.2110   71.0090  221.6570 O   0  0  0  0  0  0  0  0  0  0  0  0
  138.8850   71.4540  222.6210 C   0  0  0  0  0  0  0  0  0  0  0  0
  139.3660   72.7930  222.6590 N   0  0  0  0  0  0  0  0  0  0  0  0
  139.0530   73.6500  221.5340 C   0  0  0  0  0  0  0  0  0  0  0  0
  140.2690   74.4370  221.1610 C   0  0  0  0  0  0  0  0  0  0  0  0
  141.1280   74.7380  222.0340 O   0  0  0  0  0  0  0  0  0  0  0  0
  140.4090   74.8250  219.7850 N   0  0  0  0  0  0  0  0  0  0  0  0
  139.6180   74.3600  218.6460 C   0  0  0  0  0  0  0  0  0  0  0  0
  140.6050   74.4570  217.4990 C   0  0  2  0  0  0  0  0  0  0  0  0
  141.3610   73.3110  217.4680 O   0  0  0  0  0  0  0  0  0  0  0  0
  141.3990   75.7040  217.8390 C   0  0  0  0  0  0  0  0  0  0  0  0
  141.4090   75.7810  219.3310 C   0  0  1  0  0  0  0  0  0  0  0  0
  140.9900   77.1130  219.8370 C   0  0  0  0  0  0  0  0  0  0  0  0
  140.3600   77.9360  219.1420 O   0  0  0  0  0  0  0  0  0  0  0  0
  141.3500   77.4210  221.1930 N   0  0  0  0  0  0  0  0  0  0  0  0
  140.9630   78.7130  221.7340 C   0  0  0  0  0  0  0  0  0  0  0  0
  142.1400   79.6460  221.5410 C   0  0  0  0  0  0  0  0  0  0  0  0
  141.9970   80.8880  222.4000 C   0  0  0  0  0  0  0  0  0  0  0  0
  142.1220   80.5130  223.8540 C   0  0  0  0  0  0  0  0  0  0  0  0
  141.8390   79.0360  224.0070 C   0  0  0  0  0  0  0  0  0  0  0  0
  140.6420   78.6340  223.2030 C   0  0  0  0  0  0  0  0  0  0  0  0
  139.2090   70.6010  223.7630 C   0  0  0  0  0  0  0  0  0  0  0  0
  138.8910   69.2390  223.7380 C   0  0  0  0  0  0  0  0  0  0  0  0
  139.2040   68.4300  224.8340 C   0  0  0  0  0  0  0  0  0  0  0  0
  139.8250   68.9360  225.9590 C   0  0  0  0  0  0  0  0  0  0  0  0
  140.1440   68.1520  227.0560 C   0  0  0  0  0  0  0  0  0  0  0  0
  140.7670   68.7800  228.1250 C   0  0  0  0  0  0  0  0  0  0  0  0
  141.1010   68.0620  229.2230 F   0  0  0  0  0  0  0  0  0  0  0  0
  141.0670   70.1290  228.1170 C   0  0  0  0  0  0  0  0  0  0  0  0
  140.7420   70.9030  227.0110 C   0  0  0  0  0  0  0  0  0  0  0  0
  140.1200   70.2950  225.9380 C   0  0  0  0  0  0  0  0  0  0  0  0
  139.8120   71.0590  224.8740 N   0  0  0  0  0  0  0  0  0  0  0  0
  139.9270   73.1570  223.4670 H   0  0  0  0  0  0  0  0  0  0  0  0
  138.7371   73.0340  220.6791 H   0  0  0  0  0  0  0  0  0  0  0  0
  138.2386   74.3366  221.8083 H   0  0  0  0  0  0  0  0  0  0  0  0
  139.2804   73.3235  218.7932 H   0  0  0  0  0  0  0  0  0  0  0  0
  138.6989   74.9421  218.4838 H   0  0  0  0  0  0  0  0  0  0  0  0
  140.1618   74.5371  216.4954 H   0  0  0  0  0  0  0  0  0  0  0  0
  141.5120   72.9130  218.3780 H   0  0  0  0  0  0  0  0  0  0  0  0
  142.4255   75.6228  217.4520 H   0  0  0  0  0  0  0  0  0  0  0  0
  140.9552   76.6040  217.3884 H   0  0  0  0  0  0  0  0  0  0  0  0
  142.4289   75.5837  219.6928 H   0  0  0  0  0  0  0  0  0  0  0  0
  141.8720   76.7500  221.7810 H   0  0  0  0  0  0  0  0  0  0  0  0
  140.0594   79.0671  221.2162 H   0  0  0  0  0  0  0  0  0  0  0  0
  143.0650   79.1203  221.8202 H   0  0  0  0  0  0  0  0  0  0  0  0
  142.1741   79.9527  220.4852 H   0  0  0  0  0  0  0  0  0  0  0  0
  142.7869   81.6074  222.1381 H   0  0  0  0  0  0  0  0  0  0  0  0
  141.0114   81.3434  222.2232 H   0  0  0  0  0  0  0  0  0  0  0  0
  143.1413   80.7316  224.2050 H   0  0  0  0  0  0  0  0  0  0  0  0
  141.4027   81.0931  224.4508 H   0  0  0  0  0  0  0  0  0  0  0  0
  142.7131   78.4644  223.6616 H   0  0  0  0  0  0  0  0  0  0  0  0
  141.6362   78.8256  225.0675 H   0  0  0  0  0  0  0  0  0  0  0  0
  140.3594   77.6024  223.4599 H   0  0  0  0  0  0  0  0  0  0  0  0
  139.8079   79.3146  223.4292 H   0  0  0  0  0  0  0  0  0  0  0  0
  138.3953   68.8052  222.8570 H   0  0  0  0  0  0  0  0  0  0  0  0
  138.9486   67.3606  224.7995 H   0  0  0  0  0  0  0  0  0  0  0  0
  139.9130   67.0768  227.0785 H   0  0  0  0  0  0  0  0  0  0  0  0
  141.5622   70.5886  228.9850 H   0  0  0  0  0  0  0  0  0  0  0  0
  140.9750   71.9778  226.9898 H   0  0  0  0  0  0  0  0  0  0  0  0
  1  2  2  0
  2  3  1  0
  3  4  1  0
  4  5  1  0
  5  6  2  0
  5  7  1  0
  7  8  1  0
  8  9  1  0
  9 10  1  0
  9 11  1  0
 11 12  1  0
 12 13  1  0
 13 14  2  0
 13 15  1  0
 15 16  1  0
 16 17  1  0
 17 18  1  0
 18 19  1  0
 19 20  1  0
 20 21  1  0
  2 22  1  0
 22 23  2  0
 23 24  1  0
 24 25  2  0
 25 26  1  0
 26 27  2  0
 27 28  1  0
 27 29  1  0
 29 30  2  0
 30 31  1  0
 31 32  2  0
 12  7  1  0
 21 16  1  0
 32 22  1  0
 31 25  1  0
  3 33  1  0
  4 34  1  0
  4 35  1  0
  8 36  1  0
  8 37  1  0
  9 38  1  6
 10 39  1  0
 11 40  1  0
 11 41  1  0
 12 42  1  1
 15 43  1  0
 16 44  1  0
 17 45  1  0
 17 46  1  0
 18 47  1  0
 18 48  1  0
 19 49  1  0
 19 50  1  0
 20 51  1  0
 20 52  1  0
 21 53  1  0
 21 54  1  0
 23 55  1  0
 24 56  1  0
 26 57  1  0
 29 58  1  0
 30 59  1  0
M  END
>  <smiles>  (15) 
O=C(NCC(=O)N1C[C@H](O)C[C@H]1C(=O)NC1CCCCC1)c1ccc2cc(F)ccc2n1

>  <score_type>  (15) 
oracle

>  <origin>  (15) 
autodockgpu

>  <m_score__min__energy>  (15) 
-8.7300000000000004

>  <m_primary>  (15) 
energy

>  <meeko>  (15) 
{"free_energy": -8.03, "intermolecular_energy": -10.12, "internal_energy": -2.72, "cluster_size": 17, "cluster_id": 1, "rank_in_cluster": 13}

>  <energy>  (15) 
-7.55

>  <cluster_rmsd>  (15) 
1.86

>  <rmsd>  (15) 
270.84

>  <cluster>  (15) 
1

$$$$

     RDKit          3D

 59 62  0  0  0  0  0  0  0  0999 V2000
  139.1300   70.6660  221.3450 O   0  0  0  0  0  0  0  0  0  0  0  0
  139.0320   71.4250  222.3440 C   0  0  0  0  0  0  0  0  0  0  0  0
  138.4110   72.7040  222.2710 N   0  0  0  0  0  0  0  0  0  0  0  0
  137.8810   73.1190  220.9880 C   0  0  0  0  0  0  0  0  0  0  0  0
  138.7680   74.1750  220.4080 C   0  0  0  0  0  0  0  0  0  0  0  0
  138.3140   75.3250  220.1600 O   0  0  0  0  0  0  0  0  0  0  0  0
  140.1360   73.8210  220.1510 N   0  0  0  0  0  0  0  0  0  0  0  0
  140.6680   73.1220  218.9820 C   0  0  0  0  0  0  0  0  0  0  0  0
  141.8690   72.3930  219.5540 C   0  0  2  0  0  0  0  0  0  0  0  0
  141.4470   71.2040  220.0980 O   0  0  0  0  0  0  0  0  0  0  0  0
  142.4080   73.3770  220.5740 C   0  0  0  0  0  0  0  0  0  0  0  0
  141.2190   74.1330  221.0720 C   0  0  1  0  0  0  0  0  0  0  0  0
  141.4170   75.6040  221.0190 C   0  0  0  0  0  0  0  0  0  0  0  0
  142.4470   76.1360  220.5590 O   0  0  0  0  0  0  0  0  0  0  0  0
  140.3440   76.4090  221.5360 N   0  0  0  0  0  0  0  0  0  0  0  0
  140.4890   77.8540  221.5080 C   0  0  0  0  0  0  0  0  0  0  0  0
  141.4080   78.2310  222.6510 C   0  0  0  0  0  0  0  0  0  0  0  0
  141.3240   79.7150  222.9530 C   0  0  0  0  0  0  0  0  0  0  0  0
  139.9640   80.0380  223.5150 C   0  0  0  0  0  0  0  0  0  0  0  0
  138.9980   78.9410  223.1300 C   0  0  0  0  0  0  0  0  0  0  0  0
  139.1710   78.5550  221.6940 C   0  0  0  0  0  0  0  0  0  0  0  0
  139.5620   71.0200  223.6450 C   0  0  0  0  0  0  0  0  0  0  0  0
  140.3960   71.8800  224.3660 C   0  0  0  0  0  0  0  0  0  0  0  0
  140.8990   71.4850  225.6080 C   0  0  0  0  0  0  0  0  0  0  0  0
  140.5980   70.2540  226.1580 C   0  0  0  0  0  0  0  0  0  0  0  0
  141.0850   69.8430  227.3870 C   0  0  0  0  0  0  0  0  0  0  0  0
  140.7090   68.5840  227.8300 C   0  0  0  0  0  0  0  0  0  0  0  0
  141.1560   68.1300  229.0260 F   0  0  0  0  0  0  0  0  0  0  0  0
  139.8820   67.7570  227.0920 C   0  0  0  0  0  0  0  0  0  0  0  0
  139.4010   68.1820  225.8620 C   0  0  0  0  0  0  0  0  0  0  0  0
  139.7660   69.4330  225.4050 C   0  0  0  0  0  0  0  0  0  0  0  0
  139.2910   69.8300  224.2100 N   0  0  0  0  0  0  0  0  0  0  0  0
  138.3340   73.3310  223.1080 H   0  0  0  0  0  0  0  0  0  0  0  0
  137.8444   72.2550  220.3081 H   0  0  0  0  0  0  0  0  0  0  0  0
  136.8655   73.5207  221.1199 H   0  0  0  0  0  0  0  0  0  0  0  0
  139.9317   72.4148  218.5725 H   0  0  0  0  0  0  0  0  0  0  0  0
  140.9188   73.7924  218.1467 H   0  0  0  0  0  0  0  0  0  0  0  0
  142.6485   72.1160  218.8289 H   0  0  0  0  0  0  0  0  0  0  0  0
  140.4550   71.1700  220.2500 H   0  0  0  0  0  0  0  0  0  0  0  0
  142.8972   72.8425  221.4017 H   0  0  0  0  0  0  0  0  0  0  0  0
  143.1609   74.0474  220.1338 H   0  0  0  0  0  0  0  0  0  0  0  0
  141.0260   73.8510  222.1176 H   0  0  0  0  0  0  0  0  0  0  0  0
  139.4840   75.9830  221.9210 H   0  0  0  0  0  0  0  0  0  0  0  0
  140.8909   78.1588  220.5304 H   0  0  0  0  0  0  0  0  0  0  0  0
  141.1165   77.6649  223.5480 H   0  0  0  0  0  0  0  0  0  0  0  0
  142.4418   77.9915  222.3614 H   0  0  0  0  0  0  0  0  0  0  0  0
  142.0974   79.9838  223.6876 H   0  0  0  0  0  0  0  0  0  0  0  0
  141.4827   80.2868  222.0268 H   0  0  0  0  0  0  0  0  0  0  0  0
  140.0251   80.1074  224.6111 H   0  0  0  0  0  0  0  0  0  0  0  0
  139.6141   80.9994  223.1108 H   0  0  0  0  0  0  0  0  0  0  0  0
  139.1815   78.0610  223.7639 H   0  0  0  0  0  0  0  0  0  0  0  0
  137.9719   79.3108  223.2728 H   0  0  0  0  0  0  0  0  0  0  0  0
  138.3541   77.8811  221.3964 H   0  0  0  0  0  0  0  0  0  0  0  0
  139.1512   79.4609  221.0703 H   0  0  0  0  0  0  0  0  0  0  0  0
  140.6559   72.8669  223.9555 H   0  0  0  0  0  0  0  0  0  0  0  0
  141.5529   72.1733  226.1635 H   0  0  0  0  0  0  0  0  0  0  0  0
  141.7430   70.4885  227.9873 H   0  0  0  0  0  0  0  0  0  0  0  0
  139.6063   66.7650  227.4791 H   0  0  0  0  0  0  0  0  0  0  0  0
  138.7424   67.5358  225.2631 H   0  0  0  0  0  0  0  0  0  0  0  0
  1  2  2  0
  2  3  1  0
  3  4  1  0
  4  5  1  0
  5  6  2  0
  5  7  1  0
  7  8  1  0
  8  9  1  0
  9 10  1  0
  9 11  1  0
 11 12  1  0
 12 13  1  0
 13 14  2  0
 13 15  1  0
 15 16  1  0
 16 17  1  0
 17 18  1  0
 18 19  1  0
 19 20  1  0
 20 21  1  0
  2 22  1  0
 22 23  2  0
 23 24  1  0
 24 25  2  0
 25 26  1  0
 26 27  2  0
 27 28  1  0
 27 29  1  0
 29 30  2  0
 30 31  1  0
 31 32  2  0
 12  7  1  0
 21 16  1  0
 32 22  1  0
 31 25  1  0
  3 33  1  0
  4 34  1  0
  4 35  1  0
  8 36  1  0
  8 37  1  0
  9 38  1  6
 10 39  1  0
 11 40  1  0
 11 41  1  0
 12 42  1  1
 15 43  1  0
 16 44  1  0
 17 45  1  0
 17 46  1  0
 18 47  1  0
 18 48  1  0
 19 49  1  0
 19 50  1  0
 20 51  1  0
 20 52  1  0
 21 53  1  0
 21 54  1  0
 23 55  1  0
 24 56  1  0
 26 57  1  0
 29 58  1  0
 30 59  1  0
M  END
>  <smiles>  (16) 
O=C(NCC(=O)N1C[C@H](O)C[C@H]1C(=O)NC1CCCCC1)c1ccc2cc(F)ccc2n1

>  <score_type>  (16) 
oracle

>  <origin>  (16) 
autodockgpu

>  <m_score__min__energy>  (16) 
-8.7300000000000004

>  <m_primary>  (16) 
energy

>  <meeko>  (16) 
{"free_energy": -6.84, "intermolecular_energy": -8.92, "internal_energy": -3.29, "cluster_size": 17, "cluster_id": 1, "rank_in_cluster": 17}

>  <energy>  (16) 
-7.23

>  <cluster_rmsd>  (16) 
1.89

>  <rmsd>  (16) 
271.1

>  <cluster>  (16) 
1

$$$$

     RDKit          3D

 59 62  0  0  0  0  0  0  0  0999 V2000
  138.5490   71.0660  221.4170 O   0  0  0  0  0  0  0  0  0  0  0  0
  139.0960   71.5250  222.4530 C   0  0  0  0  0  0  0  0  0  0  0  0
  139.5010   72.8860  222.5600 N   0  0  0  0  0  0  0  0  0  0  0  0
  139.2630   73.7480  221.4210 C   0  0  0  0  0  0  0  0  0  0  0  0
  140.4200   74.6820  221.2600 C   0  0  0  0  0  0  0  0  0  0  0  0
  141.0570   75.0900  222.2680 O   0  0  0  0  0  0  0  0  0  0  0  0
  140.7640   75.0840  219.9240 N   0  0  0  0  0  0  0  0  0  0  0  0
  140.1700   74.6120  218.6740 C   0  0  0  0  0  0  0  0  0  0  0  0
  141.3210   74.7390  217.6950 C   0  0  2  0  0  0  0  0  0  0  0  0
  142.0990   73.6080  217.7770 O   0  0  0  0  0  0  0  0  0  0  0  0
  142.0250   75.9990  218.1600 C   0  0  0  0  0  0  0  0  0  0  0  0
  141.8010   76.0640  219.6360 C   0  0  1  0  0  0  0  0  0  0  0  0
  141.2780   77.3830  220.0760 C   0  0  0  0  0  0  0  0  0  0  0  0
  140.7090   78.1810  219.3040 O   0  0  0  0  0  0  0  0  0  0  0  0
  141.4620   77.7100  221.4640 N   0  0  0  0  0  0  0  0  0  0  0  0
  140.9690   78.9890  221.9430 C   0  0  0  0  0  0  0  0  0  0  0  0
  141.9090   80.0530  221.4180 C   0  0  0  0  0  0  0  0  0  0  0  0
  141.7220   81.3620  222.1600 C   0  0  0  0  0  0  0  0  0  0  0  0
  142.1820   81.2030  223.5860 C   0  0  0  0  0  0  0  0  0  0  0  0
  142.1910   79.7340  223.9400 C   0  0  0  0  0  0  0  0  0  0  0  0
  140.9510   79.0570  223.4460 C   0  0  0  0  0  0  0  0  0  0  0  0
  139.3430   70.6670  223.6100 C   0  0  0  0  0  0  0  0  0  0  0  0
  138.9630   69.3210  223.5840 C   0  0  0  0  0  0  0  0  0  0  0  0
  139.2030   68.5070  224.6940 C   0  0  0  0  0  0  0  0  0  0  0  0
  139.8110   68.9930  225.8350 C   0  0  0  0  0  0  0  0  0  0  0  0
  140.0580   68.2040  226.9460 C   0  0  0  0  0  0  0  0  0  0  0  0
  140.6760   68.8100  228.0300 C   0  0  0  0  0  0  0  0  0  0  0  0
  140.9420   68.0850  229.1440 F   0  0  0  0  0  0  0  0  0  0  0  0
  141.0390   70.1440  228.0230 C   0  0  0  0  0  0  0  0  0  0  0  0
  140.7860   70.9220  226.9030 C   0  0  0  0  0  0  0  0  0  0  0  0
  140.1710   70.3360  225.8150 C   0  0  0  0  0  0  0  0  0  0  0  0
  139.9320   71.1050  224.7360 N   0  0  0  0  0  0  0  0  0  0  0  0
  139.9560   73.2610  223.4270 H   0  0  0  0  0  0  0  0  0  0  0  0
  139.1550   73.1364  220.5131 H   0  0  0  0  0  0  0  0  0  0  0  0
  138.3412   74.3263  221.5818 H   0  0  0  0  0  0  0  0  0  0  0  0
  139.8364   73.5675  218.7619 H   0  0  0  0  0  0  0  0  0  0  0  0
  139.2746   75.1760  218.3736 H   0  0  0  0  0  0  0  0  0  0  0  0
  141.0372   74.8178  216.6352 H   0  0  0  0  0  0  0  0  0  0  0  0
  143.0100   73.7840  218.1590 H   0  0  0  0  0  0  0  0  0  0  0  0
  143.1007   75.9422  217.9372 H   0  0  0  0  0  0  0  0  0  0  0  0
  141.6373   76.8932  217.6500 H   0  0  0  0  0  0  0  0  0  0  0  0
  142.7561   75.8853  220.1516 H   0  0  0  0  0  0  0  0  0  0  0  0
  141.9320   77.0590  222.1160 H   0  0  0  0  0  0  0  0  0  0  0  0
  139.9365   79.1335  221.5923 H   0  0  0  0  0  0  0  0  0  0  0  0
  142.9465   79.7115  221.5481 H   0  0  0  0  0  0  0  0  0  0  0  0
  141.6872   80.2203  220.3537 H   0  0  0  0  0  0  0  0  0  0  0  0
  142.3139   82.1489  221.6697 H   0  0  0  0  0  0  0  0  0  0  0  0
  140.6580   81.6410  222.1476 H   0  0  0  0  0  0  0  0  0  0  0  0
  143.1964   81.6145  223.6942 H   0  0  0  0  0  0  0  0  0  0  0  0
  141.4994   81.7429  224.2587 H   0  0  0  0  0  0  0  0  0  0  0  0
  143.0690   79.2580  223.4790 H   0  0  0  0  0  0  0  0  0  0  0  0
  142.2314   79.6370  225.0350 H   0  0  0  0  0  0  0  0  0  0  0  0
  140.9037   78.0376  223.8567 H   0  0  0  0  0  0  0  0  0  0  0  0
  140.0708   79.6305  223.7721 H   0  0  0  0  0  0  0  0  0  0  0  0
  138.4757   68.9038  222.6905 H   0  0  0  0  0  0  0  0  0  0  0  0
  138.8995   67.4503  224.6582 H   0  0  0  0  0  0  0  0  0  0  0  0
  139.7759   67.1410  226.9680 H   0  0  0  0  0  0  0  0  0  0  0  0
  141.5272   70.5872  228.9034 H   0  0  0  0  0  0  0  0  0  0  0  0
  141.0697   71.9846  226.8822 H   0  0  0  0  0  0  0  0  0  0  0  0
  1  2  2  0
  2  3  1  0
  3  4  1  0
  4  5  1  0
  5  6  2  0
  5  7  1  0
  7  8  1  0
  8  9  1  0
  9 10  1  0
  9 11  1  0
 11 12  1  0
 12 13  1  0
 13 14  2  0
 13 15  1  0
 15 16  1  0
 16 17  1  0
 17 18  1  0
 18 19  1  0
 19 20  1  0
 20 21  1  0
  2 22  1  0
 22 23  2  0
 23 24  1  0
 24 25  2  0
 25 26  1  0
 26 27  2  0
 27 28  1  0
 27 29  1  0
 29 30  2  0
 30 31  1  0
 31 32  2  0
 12  7  1  0
 21 16  1  0
 32 22  1  0
 31 25  1  0
  3 33  1  0
  4 34  1  0
  4 35  1  0
  8 36  1  0
  8 37  1  0
  9 38  1  6
 10 39  1  0
 11 40  1  0
 11 41  1  0
 12 42  1  1
 15 43  1  0
 16 44  1  0
 17 45  1  0
 17 46  1  0
 18 47  1  0
 18 48  1  0
 19 49  1  0
 19 50  1  0
 20 51  1  0
 20 52  1  0
 21 53  1  0
 21 54  1  0
 23 55  1  0
 24 56  1  0
 26 57  1  0
 29 58  1  0
 30 59  1  0
M  END
>  <smiles>  (17) 
O=C(NCC(=O)N1C[C@H](O)C[C@H]1C(=O)NC1CCCCC1)c1ccc2cc(F)ccc2n1

>  <score_type>  (17) 
oracle

>  <origin>  (17) 
autodockgpu

>  <m_score__min__energy>  (17) 
-8.7300000000000004

>  <m_primary>  (17) 
energy

>  <meeko>  (17) 
{"free_energy": -8.25, "intermolecular_energy": -10.34, "internal_energy": -2.69, "cluster_size": 17, "cluster_id": 1, "rank_in_cluster": 10}

>  <energy>  (17) 
-6.84

>  <cluster_rmsd>  (17) 
1.78

>  <rmsd>  (17) 
270.7

>  <cluster>  (17) 
1

$$$$

     RDKit          3D

 59 62  0  0  0  0  0  0  0  0999 V2000
  139.8200   71.2610  221.0000 O   0  0  0  0  0  0  0  0  0  0  0  0
  139.7330   71.7940  222.1360 C   0  0  0  0  0  0  0  0  0  0  0  0
  139.6300   73.2030  222.3090 N   0  0  0  0  0  0  0  0  0  0  0  0
  139.6270   74.0270  221.1180 C   0  0  0  0  0  0  0  0  0  0  0  0
  139.3930   75.4530  221.5050 C   0  0  0  0  0  0  0  0  0  0  0  0
  139.5380   75.8220  222.7020 O   0  0  0  0  0  0  0  0  0  0  0  0
  139.0020   76.3640  220.4660 N   0  0  0  0  0  0  0  0  0  0  0  0
  137.7330   77.0800  220.3430 C   0  0  0  0  0  0  0  0  0  0  0  0
  137.5840   77.2280  218.8410 C   0  0  2  0  0  0  0  0  0  0  0  0
  137.0110   76.0850  218.3390 O   0  0  0  0  0  0  0  0  0  0  0  0
  139.0100   77.4520  218.3790 C   0  0  0  0  0  0  0  0  0  0  0  0
  139.8690   76.7060  219.3480 C   0  0  1  0  0  0  0  0  0  0  0  0
  140.9680   77.5420  219.8960 C   0  0  0  0  0  0  0  0  0  0  0  0
  141.9840   77.8450  219.2400 O   0  0  0  0  0  0  0  0  0  0  0  0
  140.8050   77.9980  221.2500 N   0  0  0  0  0  0  0  0  0  0  0  0
  141.8520   78.8190  221.8330 C   0  0  0  0  0  0  0  0  0  0  0  0
  141.5860   78.8870  223.3220 C   0  0  0  0  0  0  0  0  0  0  0  0
  142.3740   80.0120  223.9660 C   0  0  0  0  0  0  0  0  0  0  0  0
  141.8440   81.3370  223.4850 C   0  0  0  0  0  0  0  0  0  0  0  0
  141.0920   81.1270  222.1910 C   0  0  0  0  0  0  0  0  0  0  0  0
  141.8470   80.2160  221.2750 C   0  0  0  0  0  0  0  0  0  0  0  0
  139.7360   70.9760  223.3470 C   0  0  0  0  0  0  0  0  0  0  0  0
  139.2100   69.6800  223.3240 C   0  0  0  0  0  0  0  0  0  0  0  0
  139.2160   68.9040  224.4860 C   0  0  0  0  0  0  0  0  0  0  0  0
  139.7300   69.3810  225.6770 C   0  0  0  0  0  0  0  0  0  0  0  0
  139.7460   68.6290  226.8400 C   0  0  0  0  0  0  0  0  0  0  0  0
  140.2900   69.2200  227.9710 C   0  0  0  0  0  0  0  0  0  0  0  0
  140.3310   68.5310  229.1360 F   0  0  0  0  0  0  0  0  0  0  0  0
  140.8010   70.5040  227.9600 C   0  0  0  0  0  0  0  0  0  0  0  0
  140.7790   71.2460  226.7870 C   0  0  0  0  0  0  0  0  0  0  0  0
  140.2400   70.6740  225.6520 C   0  0  0  0  0  0  0  0  0  0  0  0
  140.2270   71.4060  224.5230 N   0  0  0  0  0  0  0  0  0  0  0  0
  139.5580   73.6410  223.2590 H   0  0  0  0  0  0  0  0  0  0  0  0
  140.5975   73.9391  220.6077 H   0  0  0  0  0  0  0  0  0  0  0  0
  138.8276   73.6928  220.4403 H   0  0  0  0  0  0  0  0  0  0  0  0
  136.9040   76.4958  220.7691 H   0  0  0  0  0  0  0  0  0  0  0  0
  137.7164   78.0388  220.8819 H   0  0  0  0  0  0  0  0  0  0  0  0
  136.9319   78.0478  218.5054 H   0  0  0  0  0  0  0  0  0  0  0  0
  137.6810   75.4490  217.9460 H   0  0  0  0  0  0  0  0  0  0  0  0
  139.1498   77.0595  217.3609 H   0  0  0  0  0  0  0  0  0  0  0  0
  139.2647   78.5217  218.3494 H   0  0  0  0  0  0  0  0  0  0  0  0
  140.3191   75.8418  218.8375 H   0  0  0  0  0  0  0  0  0  0  0  0
  139.9680   77.7550  221.8060 H   0  0  0  0  0  0  0  0  0  0  0  0
  142.8315   78.3744  221.6031 H   0  0  0  0  0  0  0  0  0  0  0  0
  140.5123   79.0595  223.4878 H   0  0  0  0  0  0  0  0  0  0  0  0
  141.8991   77.9357  223.7770 H   0  0  0  0  0  0  0  0  0  0  0  0
  142.2719   79.9517  225.0596 H   0  0  0  0  0  0  0  0  0  0  0  0
  143.4350   79.9202  223.6906 H   0  0  0  0  0  0  0  0  0  0  0  0
  141.1657   81.7591  224.2412 H   0  0  0  0  0  0  0  0  0  0  0  0
  142.6796   82.0331  223.3199 H   0  0  0  0  0  0  0  0  0  0  0  0
  140.1109   80.6818  222.4130 H   0  0  0  0  0  0  0  0  0  0  0  0
  140.9692   82.1009  221.6945 H   0  0  0  0  0  0  0  0  0  0  0  0
  141.3655   80.2121  220.2860 H   0  0  0  0  0  0  0  0  0  0  0  0
  142.8834   80.5729  221.1823 H   0  0  0  0  0  0  0  0  0  0  0  0
  138.7920   69.2721  222.3919 H   0  0  0  0  0  0  0  0  0  0  0  0
  138.8005   67.8861  224.4519 H   0  0  0  0  0  0  0  0  0  0  0  0
  139.3440   67.6054  226.8658 H   0  0  0  0  0  0  0  0  0  0  0  0
  141.2241   70.9369  228.8785 H   0  0  0  0  0  0  0  0  0  0  0  0
  141.1828   72.2689  226.7623 H   0  0  0  0  0  0  0  0  0  0  0  0
  1  2  2  0
  2  3  1  0
  3  4  1  0
  4  5  1  0
  5  6  2  0
  5  7  1  0
  7  8  1  0
  8  9  1  0
  9 10  1  0
  9 11  1  0
 11 12  1  0
 12 13  1  0
 13 14  2  0
 13 15  1  0
 15 16  1  0
 16 17  1  0
 17 18  1  0
 18 19  1  0
 19 20  1  0
 20 21  1  0
  2 22  1  0
 22 23  2  0
 23 24  1  0
 24 25  2  0
 25 26  1  0
 26 27  2  0
 27 28  1  0
 27 29  1  0
 29 30  2  0
 30 31  1  0
 31 32  2  0
 12  7  1  0
 21 16  1  0
 32 22  1  0
 31 25  1  0
  3 33  1  0
  4 34  1  0
  4 35  1  0
  8 36  1  0
  8 37  1  0
  9 38  1  1
 10 39  1  0
 11 40  1  0
 11 41  1  0
 12 42  1  6
 15 43  1  0
 16 44  1  0
 17 45  1  0
 17 46  1  0
 18 47  1  0
 18 48  1  0
 19 49  1  0
 19 50  1  0
 20 51  1  0
 20 52  1  0
 21 53  1  0
 21 54  1  0
 23 55  1  0
 24 56  1  0
 26 57  1  0
 29 58  1  0
 30 59  1  0
M  END
>  <smiles>  (18) 
O=C(NCC(=O)N1C[C@H](O)C[C@H]1C(=O)NC1CCCCC1)c1ccc2cc(F)ccc2n1

>  <score_type>  (18) 
oracle

>  <origin>  (18) 
autodockgpu

>  <m_score__min__energy>  (18) 
-8.7300000000000004

>  <m_primary>  (18) 
energy

>  <meeko>  (18) 
{"free_energy": -7.55, "intermolecular_energy": -9.64, "internal_energy": -2.88, "cluster_size": 17, "cluster_id": 1, "rank_in_cluster": 15}

>  <energy>  (18) 
-7.81

>  <cluster_rmsd>  (18) 
0.0

>  <rmsd>  (18) 
270.87

>  <cluster>  (18) 
2

$$$$

     RDKit          3D

 59 62  0  0  0  0  0  0  0  0999 V2000
  138.2310   71.0580  221.4510 O   0  0  0  0  0  0  0  0  0  0  0  0
  138.8530   71.5290  222.4380 C   0  0  0  0  0  0  0  0  0  0  0  0
  139.3010   72.8800  222.4800 N   0  0  0  0  0  0  0  0  0  0  0  0
  139.0170   73.7170  221.3330 C   0  0  0  0  0  0  0  0  0  0  0  0
  140.1150   74.7190  221.1700 C   0  0  0  0  0  0  0  0  0  0  0  0
  141.0470   74.7890  222.0170 O   0  0  0  0  0  0  0  0  0  0  0  0
  140.0580   75.5830  220.0230 N   0  0  0  0  0  0  0  0  0  0  0  0
  139.0160   75.6310  218.9990 C   0  0  0  0  0  0  0  0  0  0  0  0
  139.7830   76.0820  217.7710 C   0  0  2  0  0  0  0  0  0  0  0  0
  140.3480   74.9820  217.1730 O   0  0  0  0  0  0  0  0  0  0  0  0
  140.7950   77.0560  218.3420 C   0  0  0  0  0  0  0  0  0  0  0  0
  141.0860   76.5690  219.7250 C   0  0  1  0  0  0  0  0  0  0  0  0
  140.9600   77.6420  220.7450 C   0  0  0  0  0  0  0  0  0  0  0  0
  140.4670   78.7610  220.4980 O   0  0  0  0  0  0  0  0  0  0  0  0
  141.4440   77.3270  222.0610 N   0  0  0  0  0  0  0  0  0  0  0  0
  141.3430   78.3440  223.0950 C   0  0  0  0  0  0  0  0  0  0  0  0
  139.9360   78.8990  223.0360 C   0  0  0  0  0  0  0  0  0  0  0  0
  139.8350   80.2100  223.7930 C   0  0  0  0  0  0  0  0  0  0  0  0
  140.6270   81.2690  223.0730 C   0  0  0  0  0  0  0  0  0  0  0  0
  141.6380   80.6010  222.1700 C   0  0  0  0  0  0  0  0  0  0  0  0
  142.3180   79.4680  222.8730 C   0  0  0  0  0  0  0  0  0  0  0  0
  139.1470   70.6970  223.6020 C   0  0  0  0  0  0  0  0  0  0  0  0
  138.7540   69.3550  223.6280 C   0  0  0  0  0  0  0  0  0  0  0  0
  139.0390   68.5660  224.7450 C   0  0  0  0  0  0  0  0  0  0  0  0
  139.7060   69.0720  225.8430 C   0  0  0  0  0  0  0  0  0  0  0  0
  139.9990   68.3070  226.9600 C   0  0  0  0  0  0  0  0  0  0  0  0
  140.6740   68.9330  227.9980 C   0  0  0  0  0  0  0  0  0  0  0  0
  140.9860   68.2320  229.1150 F   0  0  0  0  0  0  0  0  0  0  0  0
  141.0490   70.2620  227.9410 C   0  0  0  0  0  0  0  0  0  0  0  0
  140.7490   71.0160  226.8150 C   0  0  0  0  0  0  0  0  0  0  0  0
  140.0770   70.4100  225.7730 C   0  0  0  0  0  0  0  0  0  0  0  0
  139.7940   71.1550  224.6880 N   0  0  0  0  0  0  0  0  0  0  0  0
  139.8190   73.2660  223.3060 H   0  0  0  0  0  0  0  0  0  0  0  0
  138.9517   73.0929  220.4295 H   0  0  0  0  0  0  0  0  0  0  0  0
  138.0607   74.2389  221.4847 H   0  0  0  0  0  0  0  0  0  0  0  0
  138.5650   74.6398  218.8441 H   0  0  0  0  0  0  0  0  0  0  0  0
  138.1761   76.2922  219.2587 H   0  0  0  0  0  0  0  0  0  0  0  0
  139.1821   76.5600  216.9834 H   0  0  0  0  0  0  0  0  0  0  0  0
  141.0800   74.5680  217.7230 H   0  0  0  0  0  0  0  0  0  0  0  0
  141.7120   77.0571  217.7344 H   0  0  0  0  0  0  0  0  0  0  0  0
  140.4105   78.0866  218.3460 H   0  0  0  0  0  0  0  0  0  0  0  0
  142.1152   76.1823  219.7604 H   0  0  0  0  0  0  0  0  0  0  0  0
  141.8550   76.4050  222.2820 H   0  0  0  0  0  0  0  0  0  0  0  0
  141.5736   77.8934  224.0716 H   0  0  0  0  0  0  0  0  0  0  0  0
  139.6603   79.0688  221.9847 H   0  0  0  0  0  0  0  0  0  0  0  0
  139.2536   78.1727  223.5016 H   0  0  0  0  0  0  0  0  0  0  0  0
  138.7808   80.5182  223.8530 H   0  0  0  0  0  0  0  0  0  0  0  0
  140.2376   80.0786  224.8082 H   0  0  0  0  0  0  0  0  0  0  0  0
  139.9485   81.8905  222.4702 H   0  0  0  0  0  0  0  0  0  0  0  0
  141.1465   81.9053  223.8046 H   0  0  0  0  0  0  0  0  0  0  0  0
  141.1236   80.2142  221.2780 H   0  0  0  0  0  0  0  0  0  0  0  0
  142.3979   81.3434  221.8846 H   0  0  0  0  0  0  0  0  0  0  0  0
  143.1561   79.1078  222.2583 H   0  0  0  0  0  0  0  0  0  0  0  0
  142.6939   79.8187  223.8455 H   0  0  0  0  0  0  0  0  0  0  0  0
  138.2207   68.9210  222.7693 H   0  0  0  0  0  0  0  0  0  0  0  0
  138.7233   67.5123  224.7500 H   0  0  0  0  0  0  0  0  0  0  0  0
  139.7087   67.2478  227.0215 H   0  0  0  0  0  0  0  0  0  0  0  0
  141.5837   70.7209  228.7857 H   0  0  0  0  0  0  0  0  0  0  0  0
  141.0409   72.0748  226.7544 H   0  0  0  0  0  0  0  0  0  0  0  0
  1  2  2  0
  2  3  1  0
  3  4  1  0
  4  5  1  0
  5  6  2  0
  5  7  1  0
  7  8  1  0
  8  9  1  0
  9 10  1  0
  9 11  1  0
 11 12  1  0
 12 13  1  0
 13 14  2  0
 13 15  1  0
 15 16  1  0
 16 17  1  0
 17 18  1  0
 18 19  1  0
 19 20  1  0
 20 21  1  0
  2 22  1  0
 22 23  2  0
 23 24  1  0
 24 25  2  0
 25 26  1  0
 26 27  2  0
 27 28  1  0
 27 29  1  0
 29 30  2  0
 30 31  1  0
 31 32  2  0
 12  7  1  0
 21 16  1  0
 32 22  1  0
 31 25  1  0
  3 33  1  0
  4 34  1  0
  4 35  1  0
  8 36  1  0
  8 37  1  0
  9 38  1  6
 10 39  1  0
 11 40  1  0
 11 41  1  0
 12 42  1  6
 15 43  1  0
 16 44  1  0
 17 45  1  0
 17 46  1  0
 18 47  1  0
 18 48  1  0
 19 49  1  0
 19 50  1  0
 20 51  1  0
 20 52  1  0
 21 53  1  0
 21 54  1  0
 23 55  1  0
 24 56  1  0
 26 57  1  0
 29 58  1  0
 30 59  1  0
M  END
>  <smiles>  (19) 
O=C(NCC(=O)N1C[C@H](O)C[C@H]1C(=O)NC1CCCCC1)c1ccc2cc(F)ccc2n1

>  <score_type>  (19) 
oracle

>  <origin>  (19) 
autodockgpu

>  <m_score__min__energy>  (19) 
-8.7300000000000004

>  <m_primary>  (19) 
energy

>  <meeko>  (19) 
{"free_energy": -8.03, "intermolecular_energy": -10.11, "internal_energy": -2.5, "cluster_size": 17, "cluster_id": 1, "rank_in_cluster": 14}

>  <energy>  (19) 
-7.7

>  <cluster_rmsd>  (19) 
0.32

>  <rmsd>  (19) 
270.93

>  <cluster>  (19) 
2

$$$$

     RDKit          3D

 59 62  0  0  0  0  0  0  0  0999 V2000
  136.9340   76.2400  221.2620 O   0  0  0  0  0  0  0  0  0  0  0  0
  137.9760   76.1960  221.9660 C   0  0  0  0  0  0  0  0  0  0  0  0
  138.5750   74.9670  222.3630 N   0  0  0  0  0  0  0  0  0  0  0  0
  137.9410   73.7400  221.9250 C   0  0  0  0  0  0  0  0  0  0  0  0
  138.8450   72.5860  222.2220 C   0  0  0  0  0  0  0  0  0  0  0  0
  139.9480   72.7710  222.8040 O   0  0  0  0  0  0  0  0  0  0  0  0
  138.4030   71.2790  221.8190 N   0  0  0  0  0  0  0  0  0  0  0  0
  138.5060   70.6770  220.4910 C   0  0  0  0  0  0  0  0  0  0  0  0
  137.3060   69.7510  220.4550 C   0  0  2  0  0  0  0  0  0  0  0  0
  136.2030   70.4720  220.0650 O   0  0  0  0  0  0  0  0  0  0  0  0
  137.2290   69.2400  221.8810 C   0  0  0  0  0  0  0  0  0  0  0  0
  137.7630   70.3450  222.7340 C   0  0  1  0  0  0  0  0  0  0  0  0
  138.8140   69.8800  223.6760 C   0  0  0  0  0  0  0  0  0  0  0  0
  139.2190   68.7010  223.7150 O   0  0  0  0  0  0  0  0  0  0  0  0
  139.3560   70.8720  224.5640 N   0  0  0  0  0  0  0  0  0  0  0  0
  140.3860   70.4680  225.5050 C   0  0  0  0  0  0  0  0  0  0  0  0
  139.6800   69.9600  226.7450 C   0  0  0  0  0  0  0  0  0  0  0  0
  140.6350   69.8760  227.9210 C   0  0  0  0  0  0  0  0  0  0  0  0
  141.0490   71.2640  228.3330 C   0  0  0  0  0  0  0  0  0  0  0  0
  140.8100   72.2130  227.1810 C   0  0  0  0  0  0  0  0  0  0  0  0
  141.2780   71.6170  225.8900 C   0  0  0  0  0  0  0  0  0  0  0  0
  138.6260   77.4250  222.4160 C   0  0  0  0  0  0  0  0  0  0  0  0
  137.8600   78.5440  222.7570 C   0  0  0  0  0  0  0  0  0  0  0  0
  138.4890   79.7160  223.1860 C   0  0  0  0  0  0  0  0  0  0  0  0
  139.8630   79.8100  223.2860 C   0  0  0  0  0  0  0  0  0  0  0  0
  140.5070   80.9610  223.7090 C   0  0  0  0  0  0  0  0  0  0  0  0
  141.8930   80.9280  223.7670 C   0  0  0  0  0  0  0  0  0  0  0  0
  142.5740   82.0260  224.1740 F   0  0  0  0  0  0  0  0  0  0  0  0
  142.6200   79.8040  223.4230 C   0  0  0  0  0  0  0  0  0  0  0  0
  141.9620   78.6580  223.0010 C   0  0  0  0  0  0  0  0  0  0  0  0
  140.5830   78.6730  222.9360 C   0  0  0  0  0  0  0  0  0  0  0  0
  139.9600   77.5530  222.5260 N   0  0  0  0  0  0  0  0  0  0  0  0
  139.4430   74.9380  222.9500 H   0  0  0  0  0  0  0  0  0  0  0  0
  136.9881   73.6076  222.4583 H   0  0  0  0  0  0  0  0  0  0  0  0
  137.7482   73.7895  220.8432 H   0  0  0  0  0  0  0  0  0  0  0  0
  138.4419   71.4412  219.7023 H   0  0  0  0  0  0  0  0  0  0  0  0
  139.4621   70.1618  220.3166 H   0  0  0  0  0  0  0  0  0  0  0  0
  137.3708   68.9150  219.7430 H   0  0  0  0  0  0  0  0  0  0  0  0
  135.3370   69.9970  220.2480 H   0  0  0  0  0  0  0  0  0  0  0  0
  136.1870   69.0149  222.1523 H   0  0  0  0  0  0  0  0  0  0  0  0
  137.8036   68.3112  222.0118 H   0  0  0  0  0  0  0  0  0  0  0  0
  136.9392   70.7734  223.3238 H   0  0  0  0  0  0  0  0  0  0  0  0
  139.0300   71.8530  224.5440 H   0  0  0  0  0  0  0  0  0  0  0  0
  141.0203   69.6988  225.0404 H   0  0  0  0  0  0  0  0  0  0  0  0
  138.8585   70.6466  226.9975 H   0  0  0  0  0  0  0  0  0  0  0  0
  139.2912   68.9521  226.5377 H   0  0  0  0  0  0  0  0  0  0  0  0
  140.1349   69.3773  228.7643 H   0  0  0  0  0  0  0  0  0  0  0  0
  141.5254   69.2997  227.6292 H   0  0  0  0  0  0  0  0  0  0  0  0
  140.4552   71.5828  229.2023 H   0  0  0  0  0  0  0  0  0  0  0  0
  142.1156   71.2684  228.6020 H   0  0  0  0  0  0  0  0  0  0  0  0
  139.7335   72.4276  227.1090 H   0  0  0  0  0  0  0  0  0  0  0  0
  141.3755   73.1382  227.3656 H   0  0  0  0  0  0  0  0  0  0  0  0
  141.2467   72.3834  225.1016 H   0  0  0  0  0  0  0  0  0  0  0  0
  142.3083   71.2515  226.0116 H   0  0  0  0  0  0  0  0  0  0  0  0
  136.7630   78.5019  222.6877 H   0  0  0  0  0  0  0  0  0  0  0  0
  137.8725   80.5876  223.4513 H   0  0  0  0  0  0  0  0  0  0  0  0
  139.9432   81.8636  223.9873 H   0  0  0  0  0  0  0  0  0  0  0  0
  143.7182   79.8181  223.4837 H   0  0  0  0  0  0  0  0  0  0  0  0
  142.5273   77.7560  222.7239 H   0  0  0  0  0  0  0  0  0  0  0  0
  1  2  2  0
  2  3  1  0
  3  4  1  0
  4  5  1  0
  5  6  2  0
  5  7  1  0
  7  8  1  0
  8  9  1  0
  9 10  1  0
  9 11  1  0
 11 12  1  0
 12 13  1  0
 13 14  2  0
 13 15  1  0
 15 16  1  0
 16 17  1  0
 17 18  1  0
 18 19  1  0
 19 20  1  0
 20 21  1  0
  2 22  1  0
 22 23  2  0
 23 24  1  0
 24 25  2  0
 25 26  1  0
 26 27  2  0
 27 28  1  0
 27 29  1  0
 29 30  2  0
 30 31  1  0
 31 32  2  0
 12  7  1  0
 21 16  1  0
 32 22  1  0
 31 25  1  0
  3 33  1  0
  4 34  1  0
  4 35  1  0
  8 36  1  0
  8 37  1  0
  9 38  1  6
 10 39  1  0
 11 40  1  0
 11 41  1  0
 12 42  1  1
 15 43  1  0
 16 44  1  0
 17 45  1  0
 17 46  1  0
 18 47  1  0
 18 48  1  0
 19 49  1  0
 19 50  1  0
 20 51  1  0
 20 52  1  0
 21 53  1  0
 21 54  1  0
 23 55  1  0
 24 56  1  0
 26 57  1  0
 29 58  1  0
 30 59  1  0
M  END
>  <smiles>  (20) 
O=C(NCC(=O)N1C[C@H](O)C[C@H]1C(=O)NC1CCCCC1)c1ccc2cc(F)ccc2n1

>  <score_type>  (20) 
oracle

>  <origin>  (20) 
autodockgpu

>  <m_score__min__energy>  (20) 
-8.7300000000000004

>  <m_primary>  (20) 
energy

>  <meeko>  (20) 
{"free_energy": -7.81, "intermolecular_energy": -9.9, "internal_energy": -2.75, "cluster_size": 2, "cluster_id": 2, "rank_in_cluster": 1}

>  <energy>  (20) 
-5.94

>  <cluster_rmsd>  (20) 
0.0

>  <rmsd>  (20) 
269.58

>  <cluster>  (20) 
3

$$$$
