
     RDKit          3D

 46 49  0  0  0  0  0  0  0  0999 V2000
  141.0200   80.9660  222.2610 C   0  0  0  0  0  0  0  0  0  0  0  0
  140.9560   79.4720  222.1030 C   0  0  0  0  0  0  0  0  0  0  0  0
  140.0610   78.7100  222.8510 C   0  0  0  0  0  0  0  0  0  0  0  0
  139.9960   77.3240  222.7050 C   0  0  0  0  0  0  0  0  0  0  0  0
  140.8560   76.7240  221.7870 C   0  0  0  0  0  0  0  0  0  0  0  0
  141.7540   77.4500  221.0320 C   0  0  0  0  0  0  0  0  0  0  0  0
  141.7950   78.8410  221.2020 C   0  0  0  0  0  0  0  0  0  0  0  0
  142.6870   76.9830  220.0640 N   0  0  0  0  0  0  0  0  0  0  0  0
  142.8280   75.6190  219.6670 C   0  0  0  0  0  0  0  0  0  0  0  0
  143.6250   75.5060  218.6800 O   0  0  0  0  0  0  0  0  0  0  0  0
  142.2760   74.3690  220.1300 C   0  0  0  0  0  0  0  0  0  0  0  0
  141.2210   74.3790  221.1160 C   0  0  0  0  0  0  0  0  0  0  0  0
  140.6780   73.0610  221.4500 C   0  0  0  0  0  0  0  0  0  0  0  0
  140.3340   72.1660  220.4350 C   0  0  0  0  0  0  0  0  0  0  0  0
  139.8260   70.9270  220.6810 C   0  0  0  0  0  0  0  0  0  0  0  0
  139.6540   70.5610  222.0080 C   0  0  0  0  0  0  0  0  0  0  0  0
  139.9740   71.3970  223.0600 C   0  0  0  0  0  0  0  0  0  0  0  0
  139.7930   71.0130  224.4540 C   0  0  0  0  0  0  0  0  0  0  0  0
  138.8620   70.2310  224.7790 O   0  0  0  0  0  0  0  0  0  0  0  0
  140.6360   71.4910  225.4910 N   0  0  0  0  0  0  0  0  0  0  0  0
  140.4630   71.1160  226.8910 C   0  0  0  0  0  0  0  0  0  0  0  0
  140.6720   69.6670  227.1150 C   0  0  0  0  0  0  0  0  0  0  0  0
  140.7180   69.0650  228.3760 C   0  0  0  0  0  0  0  0  0  0  0  0
  140.9160   67.7780  228.2420 O   0  0  0  0  0  0  0  0  0  0  0  0
  141.0040   67.4970  226.9440 C   0  0  0  0  0  0  0  0  0  0  0  0
  140.8540   68.6620  226.2470 N   0  0  0  0  0  0  0  0  0  0  0  0
  140.4820   72.6320  222.7450 C   0  0  0  0  0  0  0  0  0  0  0  0
  140.6280   75.3230  221.7920 N   0  0  0  0  0  0  0  0  0  0  0  0
  141.0309   81.2214  223.3309 H   0  0  0  0  0  0  0  0  0  0  0  0
  141.9353   81.3463  221.7839 H   0  0  0  0  0  0  0  0  0  0  0  0
  140.1406   81.4232  221.7839 H   0  0  0  0  0  0  0  0  0  0  0  0
  139.3942   79.2097  223.5690 H   0  0  0  0  0  0  0  0  0  0  0  0
  139.2884   76.7238  223.2958 H   0  0  0  0  0  0  0  0  0  0  0  0
  142.5041   79.4390  220.6108 H   0  0  0  0  0  0  0  0  0  0  0  0
  143.3020   77.7020  219.6240 H   0  0  0  0  0  0  0  0  0  0  0  0
  141.8826   73.8461  219.2458 H   0  0  0  0  0  0  0  0  0  0  0  0
  143.1172   73.8947  220.6568 H   0  0  0  0  0  0  0  0  0  0  0  0
  140.4800   72.4758  219.3897 H   0  0  0  0  0  0  0  0  0  0  0  0
  139.5625   70.2435  219.8604 H   0  0  0  0  0  0  0  0  0  0  0  0
  139.2461   69.5642  222.2316 H   0  0  0  0  0  0  0  0  0  0  0  0
  141.4280   72.1420  225.2890 H   0  0  0  0  0  0  0  0  0  0  0  0
  141.1883   71.6762  227.4994 H   0  0  0  0  0  0  0  0  0  0  0  0
  139.4283   71.3549  227.1779 H   0  0  0  0  0  0  0  0  0  0  0  0
  140.6050   69.5925  229.3347 H   0  0  0  0  0  0  0  0  0  0  0  0
  141.1688   66.5004  226.5086 H   0  0  0  0  0  0  0  0  0  0  0  0
  140.7460   73.3137  223.5670 H   0  0  0  0  0  0  0  0  0  0  0  0
  1  2  1  0
  2  3  2  0
  3  4  1  0
  4  5  2  0
  5  6  1  0
  6  7  2  0
  6  8  1  0
  8  9  1  0
  9 10  2  0
  9 11  1  0
 11 12  1  0
 12 13  1  0
 13 14  2  0
 14 15  1  0
 15 16  2  0
 16 17  1  0
 17 18  1  0
 18 19  2  0
 18 20  1  0
 20 21  1  0
 21 22  1  0
 22 23  2  0
 23 24  1  0
 24 25  1  0
 25 26  2  0
 17 27  2  0
 12 28  2  0
  7  2  1  0
 27 13  1  0
 28  5  1  0
 26 22  1  0
  1 29  1  0
  1 30  1  0
  1 31  1  0
  3 32  1  0
  4 33  1  0
  7 34  1  0
  8 35  1  0
 11 36  1  0
 11 37  1  0
 14 38  1  0
 15 39  1  0
 16 40  1  0
 20 41  1  0
 21 42  1  0
 21 43  1  0
 23 44  1  0
 25 45  1  0
 27 46  1  0
M  END
>  <smiles>  (1) 
Cc1ccc2c(c1)NC(=O)CC(c1cccc(C(=O)NCc3cocn3)c1)=N2

>  <score_type>  (1) 
oracle

>  <origin>  (1) 
autodockgpu

>  <m_score__min__energy>  (1) 
-6.6299999999999999

>  <m_primary>  (1) 
energy

>  <meeko>  (1) 
{"free_energy": -6.01, "intermolecular_energy": -8.4, "internal_energy": -1.02, "cluster_size": 1, "cluster_id": 4, "rank_in_cluster": 1}

>  <energy>  (1) 
-6.63

>  <cluster_rmsd>  (1) 
0.0

>  <rmsd>  (1) 
270.67

>  <cluster>  (1) 
1

$$$$

     RDKit          3D

 46 49  0  0  0  0  0  0  0  0999 V2000
  140.6580   74.1160  221.2300 C   0  0  0  0  0  0  0  0  0  0  0  0
  140.1670   75.4270  221.7790 C   0  0  0  0  0  0  0  0  0  0  0  0
  138.8110   75.6360  222.0300 C   0  0  0  0  0  0  0  0  0  0  0  0
  138.3510   76.8500  222.5420 C   0  0  0  0  0  0  0  0  0  0  0  0
  139.2900   77.8480  222.7950 C   0  0  0  0  0  0  0  0  0  0  0  0
  140.6380   77.6730  222.5580 C   0  0  0  0  0  0  0  0  0  0  0  0
  141.0680   76.4420  222.0430 C   0  0  0  0  0  0  0  0  0  0  0  0
  141.7050   78.5910  222.7650 N   0  0  0  0  0  0  0  0  0  0  0  0
  141.5570   79.8910  223.3360 C   0  0  0  0  0  0  0  0  0  0  0  0
  142.6900   80.4340  223.5450 O   0  0  0  0  0  0  0  0  0  0  0  0
  140.4270   80.7060  223.7190 C   0  0  0  0  0  0  0  0  0  0  0  0
  139.0940   80.1560  223.6420 C   0  0  0  0  0  0  0  0  0  0  0  0
  138.0230   81.0840  224.0100 C   0  0  0  0  0  0  0  0  0  0  0  0
  137.3040   81.7530  223.0180 C   0  0  0  0  0  0  0  0  0  0  0  0
  136.2970   82.6270  223.2950 C   0  0  0  0  0  0  0  0  0  0  0  0
  135.9910   82.8440  224.6300 C   0  0  0  0  0  0  0  0  0  0  0  0
  136.6620   82.2140  225.6610 C   0  0  0  0  0  0  0  0  0  0  0  0
  136.3430   82.4410  227.0650 C   0  0  0  0  0  0  0  0  0  0  0  0
  136.4010   83.6030  227.5460 O   0  0  0  0  0  0  0  0  0  0  0  0
  135.9590   81.3910  227.9380 N   0  0  0  0  0  0  0  0  0  0  0  0
  135.6380   81.6060  229.3450 C   0  0  0  0  0  0  0  0  0  0  0  0
  134.1880   81.4790  229.6180 C   0  0  0  0  0  0  0  0  0  0  0  0
  133.4980   80.2640  229.6560 C   0  0  0  0  0  0  0  0  0  0  0  0
  132.2350   80.4840  229.9190 O   0  0  0  0  0  0  0  0  0  0  0  0
  132.0530   81.7950  230.0570 C   0  0  0  0  0  0  0  0  0  0  0  0
  133.2580   82.4110  229.8710 N   0  0  0  0  0  0  0  0  0  0  0  0
  137.6660   81.3450  225.3140 C   0  0  0  0  0  0  0  0  0  0  0  0
  138.6190   78.9890  223.3100 N   0  0  0  0  0  0  0  0  0  0  0  0
  140.9105   73.4417  222.0616 H   0  0  0  0  0  0  0  0  0  0  0  0
  139.8702   73.6586  220.6134 H   0  0  0  0  0  0  0  0  0  0  0  0
  141.5524   74.2886  220.6134 H   0  0  0  0  0  0  0  0  0  0  0  0
  138.0920   74.8303  221.8208 H   0  0  0  0  0  0  0  0  0  0  0  0
  137.2814   77.0138  222.7396 H   0  0  0  0  0  0  0  0  0  0  0  0
  142.1382   76.2812  221.8460 H   0  0  0  0  0  0  0  0  0  0  0  0
  142.6560   78.2740  222.4730 H   0  0  0  0  0  0  0  0  0  0  0  0
  140.5891   81.0063  224.7647 H   0  0  0  0  0  0  0  0  0  0  0  0
  140.4194   81.5071  222.9652 H   0  0  0  0  0  0  0  0  0  0  0  0
  137.5624   81.5658  221.9653 H   0  0  0  0  0  0  0  0  0  0  0  0
  135.7482   83.1404  222.4917 H   0  0  0  0  0  0  0  0  0  0  0  0
  135.1814   83.5460  224.8785 H   0  0  0  0  0  0  0  0  0  0  0  0
  135.8900   80.4040  227.6020 H   0  0  0  0  0  0  0  0  0  0  0  0
  136.1778   80.8614  229.9485 H   0  0  0  0  0  0  0  0  0  0  0  0
  135.9403   82.6310  229.6056 H   0  0  0  0  0  0  0  0  0  0  0  0
  133.9479   79.2740  229.4902 H   0  0  0  0  0  0  0  0  0  0  0  0
  131.0993   82.2950  230.2815 H   0  0  0  0  0  0  0  0  0  0  0  0
  138.2131   80.8311  226.1181 H   0  0  0  0  0  0  0  0  0  0  0  0
  1  2  1  0
  2  3  2  0
  3  4  1  0
  4  5  2  0
  5  6  1  0
  6  7  2  0
  6  8  1  0
  8  9  1  0
  9 10  2  0
  9 11  1  0
 11 12  1  0
 12 13  1  0
 13 14  2  0
 14 15  1  0
 15 16  2  0
 16 17  1  0
 17 18  1  0
 18 19  2  0
 18 20  1  0
 20 21  1  0
 21 22  1  0
 22 23  2  0
 23 24  1  0
 24 25  1  0
 25 26  2  0
 17 27  2  0
 12 28  2  0
  7  2  1  0
 27 13  1  0
 28  5  1  0
 26 22  1  0
  1 29  1  0
  1 30  1  0
  1 31  1  0
  3 32  1  0
  4 33  1  0
  7 34  1  0
  8 35  1  0
 11 36  1  0
 11 37  1  0
 14 38  1  0
 15 39  1  0
 16 40  1  0
 20 41  1  0
 21 42  1  0
 21 43  1  0
 23 44  1  0
 25 45  1  0
 27 46  1  0
M  END
>  <smiles>  (2) 
Cc1ccc2c(c1)NC(=O)CC(c1cccc(C(=O)NCc3cocn3)c1)=N2

>  <score_type>  (2) 
oracle

>  <origin>  (2) 
autodockgpu

>  <m_score__min__energy>  (2) 
-6.6299999999999999

>  <m_primary>  (2) 
energy

>  <meeko>  (2) 
{"free_energy": -6.42, "intermolecular_energy": -8.8, "internal_energy": -0.92, "cluster_size": 2, "cluster_id": 3, "rank_in_cluster": 1}

>  <energy>  (2) 
-6.59

>  <cluster_rmsd>  (2) 
0.58

>  <rmsd>  (2) 
270.69

>  <cluster>  (2) 
1

$$$$

     RDKit          3D

 46 49  0  0  0  0  0  0  0  0999 V2000
  140.5330   73.9700  221.5760 C   0  0  0  0  0  0  0  0  0  0  0  0
  140.0940   75.3670  221.9160 C   0  0  0  0  0  0  0  0  0  0  0  0
  138.7500   75.6610  222.1420 C   0  0  0  0  0  0  0  0  0  0  0  0
  138.3380   76.9550  222.4600 C   0  0  0  0  0  0  0  0  0  0  0  0
  139.3140   77.9470  222.5440 C   0  0  0  0  0  0  0  0  0  0  0  0
  140.6520   77.6890  222.3260 C   0  0  0  0  0  0  0  0  0  0  0  0
  141.0330   76.3780  222.0090 C   0  0  0  0  0  0  0  0  0  0  0  0
  141.7520   78.5900  222.3770 N   0  0  0  0  0  0  0  0  0  0  0  0
  141.6550   79.9690  222.7330 C   0  0  0  0  0  0  0  0  0  0  0  0
  142.8080   80.4980  222.8460 O   0  0  0  0  0  0  0  0  0  0  0  0
  140.5620   80.8720  222.9900 C   0  0  0  0  0  0  0  0  0  0  0  0
  139.2150   80.3550  223.0670 C   0  0  0  0  0  0  0  0  0  0  0  0
  138.1970   81.3420  223.4330 C   0  0  0  0  0  0  0  0  0  0  0  0
  137.6660   82.1950  222.4640 C   0  0  0  0  0  0  0  0  0  0  0  0
  136.7180   83.1320  222.7410 C   0  0  0  0  0  0  0  0  0  0  0  0
  136.2760   83.2230  224.0530 C   0  0  0  0  0  0  0  0  0  0  0  0
  136.7590   82.4100  225.0610 C   0  0  0  0  0  0  0  0  0  0  0  0
  136.2960   82.5050  226.4390 C   0  0  0  0  0  0  0  0  0  0  0  0
  136.7670   83.3860  227.2040 O   0  0  0  0  0  0  0  0  0  0  0  0
  135.3150   81.6320  226.9750 N   0  0  0  0  0  0  0  0  0  0  0  0
  134.8450   81.7150  228.3540 C   0  0  0  0  0  0  0  0  0  0  0  0
  133.7090   80.8010  228.6170 C   0  0  0  0  0  0  0  0  0  0  0  0
  133.0170   80.7370  229.8300 C   0  0  0  0  0  0  0  0  0  0  0  0
  132.0710   79.8350  229.7490 O   0  0  0  0  0  0  0  0  0  0  0  0
  132.1050   79.2950  228.5320 C   0  0  0  0  0  0  0  0  0  0  0  0
  133.1160   79.8910  227.8330 N   0  0  0  0  0  0  0  0  0  0  0  0
  137.7130   81.4860  224.7150 C   0  0  0  0  0  0  0  0  0  0  0  0
  138.6890   79.1780  222.8780 N   0  0  0  0  0  0  0  0  0  0  0  0
  140.7104   73.4055  222.5033 H   0  0  0  0  0  0  0  0  0  0  0  0
  139.7481   73.4719  220.9880 H   0  0  0  0  0  0  0  0  0  0  0  0
  141.4618   74.0104  220.9880 H   0  0  0  0  0  0  0  0  0  0  0  0
  138.0015   74.8584  222.0682 H   0  0  0  0  0  0  0  0  0  0  0  0
  137.2774   77.1854  222.6387 H   0  0  0  0  0  0  0  0  0  0  0  0
  142.0944   76.1499  221.8316 H   0  0  0  0  0  0  0  0  0  0  0  0
  142.6880   78.1970  222.1330 H   0  0  0  0  0  0  0  0  0  0  0  0
  140.7718   81.3627  223.9519 H   0  0  0  0  0  0  0  0  0  0  0  0
  140.5417   81.5138  222.0968 H   0  0  0  0  0  0  0  0  0  0  0  0
  138.0300   82.1061  221.4298 H   0  0  0  0  0  0  0  0  0  0  0  0
  136.3184   83.7907  221.9559 H   0  0  0  0  0  0  0  0  0  0  0  0
  135.5101   83.9726  224.3010 H   0  0  0  0  0  0  0  0  0  0  0  0
  134.8830   80.8800  226.3920 H   0  0  0  0  0  0  0  0  0  0  0  0
  135.6743   81.4512  229.0268 H   0  0  0  0  0  0  0  0  0  0  0  0
  134.4968   82.7436  228.5295 H   0  0  0  0  0  0  0  0  0  0  0  0
  133.2339   81.3505  230.7169 H   0  0  0  0  0  0  0  0  0  0  0  0
  131.4361   78.5070  228.1556 H   0  0  0  0  0  0  0  0  0  0  0  0
  138.1113   80.8272  225.5007 H   0  0  0  0  0  0  0  0  0  0  0  0
  1  2  1  0
  2  3  2  0
  3  4  1  0
  4  5  2  0
  5  6  1  0
  6  7  2  0
  6  8  1  0
  8  9  1  0
  9 10  2  0
  9 11  1  0
 11 12  1  0
 12 13  1  0
 13 14  2  0
 14 15  1  0
 15 16  2  0
 16 17  1  0
 17 18  1  0
 18 19  2  0
 18 20  1  0
 20 21  1  0
 21 22  1  0
 22 23  2  0
 23 24  1  0
 24 25  1  0
 25 26  2  0
 17 27  2  0
 12 28  2  0
  7  2  1  0
 27 13  1  0
 28  5  1  0
 26 22  1  0
  1 29  1  0
  1 30  1  0
  1 31  1  0
  3 32  1  0
  4 33  1  0
  7 34  1  0
  8 35  1  0
 11 36  1  0
 11 37  1  0
 14 38  1  0
 15 39  1  0
 16 40  1  0
 20 41  1  0
 21 42  1  0
 21 43  1  0
 23 44  1  0
 25 45  1  0
 27 46  1  0
M  END
>  <smiles>  (3) 
Cc1ccc2c(c1)NC(=O)CC(c1cccc(C(=O)NCc3cocn3)c1)=N2

>  <score_type>  (3) 
oracle

>  <origin>  (3) 
autodockgpu

>  <m_score__min__energy>  (3) 
-6.6299999999999999

>  <m_primary>  (3) 
energy

>  <meeko>  (3) 
{"free_energy": -5.8, "intermolecular_energy": -8.19, "internal_energy": -1.2, "cluster_size": 2, "cluster_id": 3, "rank_in_cluster": 2}

>  <energy>  (3) 
-6.59

>  <cluster_rmsd>  (3) 
0.21

>  <rmsd>  (3) 
270.76

>  <cluster>  (3) 
1

$$$$

     RDKit          3D

 46 49  0  0  0  0  0  0  0  0999 V2000
  145.4910   66.2780  218.3360 C   0  0  0  0  0  0  0  0  0  0  0  0
  144.8360   67.5490  218.8020 C   0  0  0  0  0  0  0  0  0  0  0  0
  143.5060   67.5590  219.2180 C   0  0  0  0  0  0  0  0  0  0  0  0
  142.8950   68.7350  219.6540 C   0  0  0  0  0  0  0  0  0  0  0  0
  143.6580   69.9010  219.6620 C   0  0  0  0  0  0  0  0  0  0  0  0
  144.9770   69.9250  219.2570 C   0  0  0  0  0  0  0  0  0  0  0  0
  145.5610   68.7270  218.8240 C   0  0  0  0  0  0  0  0  0  0  0  0
  145.8740   71.0280  219.2100 N   0  0  0  0  0  0  0  0  0  0  0  0
  145.5580   72.3500  219.6480 C   0  0  0  0  0  0  0  0  0  0  0  0
  146.5880   73.0980  219.6360 O   0  0  0  0  0  0  0  0  0  0  0  0
  144.3530   73.0060  220.0900 C   0  0  0  0  0  0  0  0  0  0  0  0
  143.1570   72.2270  220.3100 C   0  0  0  0  0  0  0  0  0  0  0  0
  142.0190   72.9820  220.8390 C   0  0  0  0  0  0  0  0  0  0  0  0
  141.0560   72.3430  221.6220 C   0  0  0  0  0  0  0  0  0  0  0  0
  139.9770   72.9900  222.1430 C   0  0  0  0  0  0  0  0  0  0  0  0
  139.8520   74.3440  221.8690 C   0  0  0  0  0  0  0  0  0  0  0  0
  140.7680   75.0380  221.1020 C   0  0  0  0  0  0  0  0  0  0  0  0
  140.6380   76.4600  220.8130 C   0  0  0  0  0  0  0  0  0  0  0  0
  139.8300   76.8540  219.9320 O   0  0  0  0  0  0  0  0  0  0  0  0
  141.3960   77.4480  221.4920 N   0  0  0  0  0  0  0  0  0  0  0  0
  141.2760   78.8740  221.2100 C   0  0  0  0  0  0  0  0  0  0  0  0
  141.8250   79.7120  222.3020 C   0  0  0  0  0  0  0  0  0  0  0  0
  141.6170   81.0890  222.4160 C   0  0  0  0  0  0  0  0  0  0  0  0
  142.2290   81.5390  223.4830 O   0  0  0  0  0  0  0  0  0  0  0  0
  142.8360   80.5180  224.0850 C   0  0  0  0  0  0  0  0  0  0  0  0
  142.5870   79.3900  223.3570 N   0  0  0  0  0  0  0  0  0  0  0  0
  141.8330   74.3270  220.6070 C   0  0  0  0  0  0  0  0  0  0  0  0
  142.8560   70.9710  220.1400 N   0  0  0  0  0  0  0  0  0  0  0  0
  145.7979   65.6825  219.2084 H   0  0  0  0  0  0  0  0  0  0  0  0
  144.7787   65.6995  217.7294 H   0  0  0  0  0  0  0  0  0  0  0  0
  146.3755   66.5224  217.7294 H   0  0  0  0  0  0  0  0  0  0  0  0
  142.9278   66.6233  219.2023 H   0  0  0  0  0  0  0  0  0  0  0  0
  141.8447   68.7416  219.9810 H   0  0  0  0  0  0  0  0  0  0  0  0
  146.6112   68.7232  218.4968 H   0  0  0  0  0  0  0  0  0  0  0  0
  146.8260   70.8390  218.8250 H   0  0  0  0  0  0  0  0  0  0  0  0
  144.5905   73.5028  221.0422 H   0  0  0  0  0  0  0  0  0  0  0  0
  144.0862   73.6534  219.2416 H   0  0  0  0  0  0  0  0  0  0  0  0
  141.1741   71.2688  221.8273 H   0  0  0  0  0  0  0  0  0  0  0  0
  139.2339   72.4599  222.7569 H   0  0  0  0  0  0  0  0  0  0  0  0
  138.9881   74.8876  222.2792 H   0  0  0  0  0  0  0  0  0  0  0  0
  142.0840   77.1880  222.2350 H   0  0  0  0  0  0  0  0  0  0  0  0
  141.8235   79.0984  220.2827 H   0  0  0  0  0  0  0  0  0  0  0  0
  140.2058   79.1085  221.1118 H   0  0  0  0  0  0  0  0  0  0  0  0
  141.0291   81.7015  221.7165 H   0  0  0  0  0  0  0  0  0  0  0  0
  143.4332   80.5736  225.0071 H   0  0  0  0  0  0  0  0  0  0  0  0
  142.5757   74.8585  219.9938 H   0  0  0  0  0  0  0  0  0  0  0  0
  1  2  1  0
  2  3  2  0
  3  4  1  0
  4  5  2  0
  5  6  1  0
  6  7  2  0
  6  8  1  0
  8  9  1  0
  9 10  2  0
  9 11  1  0
 11 12  1  0
 12 13  1  0
 13 14  2  0
 14 15  1  0
 15 16  2  0
 16 17  1  0
 17 18  1  0
 18 19  2  0
 18 20  1  0
 20 21  1  0
 21 22  1  0
 22 23  2  0
 23 24  1  0
 24 25  1  0
 25 26  2  0
 17 27  2  0
 12 28  2  0
  7  2  1  0
 27 13  1  0
 28  5  1  0
 26 22  1  0
  1 29  1  0
  1 30  1  0
  1 31  1  0
  3 32  1  0
  4 33  1  0
  7 34  1  0
  8 35  1  0
 11 36  1  0
 11 37  1  0
 14 38  1  0
 15 39  1  0
 16 40  1  0
 20 41  1  0
 21 42  1  0
 21 43  1  0
 23 44  1  0
 25 45  1  0
 27 46  1  0
M  END
>  <smiles>  (4) 
Cc1ccc2c(c1)NC(=O)CC(c1cccc(C(=O)NCc3cocn3)c1)=N2

>  <score_type>  (4) 
oracle

>  <origin>  (4) 
autodockgpu

>  <m_score__min__energy>  (4) 
-6.6299999999999999

>  <m_primary>  (4) 
energy

>  <meeko>  (4) 
{"free_energy": -5.5, "intermolecular_energy": -7.88, "internal_energy": -1.19, "cluster_size": 3, "cluster_id": 7, "rank_in_cluster": 1}

>  <energy>  (4) 
-6.45

>  <cluster_rmsd>  (4) 
0.27

>  <rmsd>  (4) 
270.77

>  <cluster>  (4) 
1

$$$$

     RDKit          3D

 46 49  0  0  0  0  0  0  0  0999 V2000
  139.9550   68.8730  228.7550 C   0  0  0  0  0  0  0  0  0  0  0  0
  140.1370   69.6250  227.4660 C   0  0  0  0  0  0  0  0  0  0  0  0
  140.9280   70.7720  227.4100 C   0  0  0  0  0  0  0  0  0  0  0  0
  141.1020   71.4710  226.2160 C   0  0  0  0  0  0  0  0  0  0  0  0
  140.4600   70.9870  225.0780 C   0  0  0  0  0  0  0  0  0  0  0  0
  139.6700   69.8560  225.0990 C   0  0  0  0  0  0  0  0  0  0  0  0
  139.5150   69.1760  226.3150 C   0  0  0  0  0  0  0  0  0  0  0  0
  138.9580   69.2460  224.0290 N   0  0  0  0  0  0  0  0  0  0  0  0
  138.9650   69.7140  222.6800 C   0  0  0  0  0  0  0  0  0  0  0  0
  138.3710   68.8970  221.9050 O   0  0  0  0  0  0  0  0  0  0  0  0
  139.4880   70.8850  222.0190 C   0  0  0  0  0  0  0  0  0  0  0  0
  140.3590   71.7810  222.7450 C   0  0  0  0  0  0  0  0  0  0  0  0
  140.9170   72.8760  221.9490 C   0  0  0  0  0  0  0  0  0  0  0  0
  141.9990   72.6420  221.0980 C   0  0  0  0  0  0  0  0  0  0  0  0
  142.5620   73.6170  220.3310 C   0  0  0  0  0  0  0  0  0  0  0  0
  142.0190   74.8900  220.4190 C   0  0  0  0  0  0  0  0  0  0  0  0
  140.9490   75.1900  221.2410 C   0  0  0  0  0  0  0  0  0  0  0  0
  140.3780   76.5270  221.3350 C   0  0  0  0  0  0  0  0  0  0  0  0
  139.2490   76.7680  220.8350 O   0  0  0  0  0  0  0  0  0  0  0  0
  141.0490   77.5980  221.9780 N   0  0  0  0  0  0  0  0  0  0  0  0
  140.4900   78.9420  222.0760 C   0  0  0  0  0  0  0  0  0  0  0  0
  141.3700   79.8650  222.8300 C   0  0  0  0  0  0  0  0  0  0  0  0
  141.0620   81.2010  223.0980 C   0  0  0  0  0  0  0  0  0  0  0  0
  142.0370   81.7480  223.7800 O   0  0  0  0  0  0  0  0  0  0  0  0
  142.9820   80.8320  223.9770 C   0  0  0  0  0  0  0  0  0  0  0  0
  142.5720   79.6690  223.3900 N   0  0  0  0  0  0  0  0  0  0  0  0
  140.4270   74.1620  221.9870 C   0  0  0  0  0  0  0  0  0  0  0  0
  140.7680   71.8350  223.9810 N   0  0  0  0  0  0  0  0  0  0  0  0
  140.1198   69.5539  229.6031 H   0  0  0  0  0  0  0  0  0  0  0  0
  138.9331   68.4687  228.8025 H   0  0  0  0  0  0  0  0  0  0  0  0
  140.6790   68.0462  228.8025 H   0  0  0  0  0  0  0  0  0  0  0  0
  141.4235   71.1318  228.3238 H   0  0  0  0  0  0  0  0  0  0  0  0
  141.7263   72.3757  226.1739 H   0  0  0  0  0  0  0  0  0  0  0  0
  138.8895   68.2720  226.3544 H   0  0  0  0  0  0  0  0  0  0  0  0
  138.3960   68.3990  224.2650 H   0  0  0  0  0  0  0  0  0  0  0  0
  140.0502   70.5331  221.1414 H   0  0  0  0  0  0  0  0  0  0  0  0
  138.5930   71.4944  221.8252 H   0  0  0  0  0  0  0  0  0  0  0  0
  142.4153   71.6252  221.0445 H   0  0  0  0  0  0  0  0  0  0  0  0
  143.4134   73.4030  219.6682 H   0  0  0  0  0  0  0  0  0  0  0  0
  142.4578   75.6939  219.8097 H   0  0  0  0  0  0  0  0  0  0  0  0
  141.9900   77.4650  222.4140 H   0  0  0  0  0  0  0  0  0  0  0  0
  140.3472   79.3403  221.0606 H   0  0  0  0  0  0  0  0  0  0  0  0
  139.5356   78.8701  222.6181 H   0  0  0  0  0  0  0  0  0  0  0  0
  140.1414   81.7149  222.7842 H   0  0  0  0  0  0  0  0  0  0  0  0
  143.9276   80.9848  224.5178 H   0  0  0  0  0  0  0  0  0  0  0  0
  139.5745   74.3769  222.6481 H   0  0  0  0  0  0  0  0  0  0  0  0
  1  2  1  0
  2  3  2  0
  3  4  1  0
  4  5  2  0
  5  6  1  0
  6  7  2  0
  6  8  1  0
  8  9  1  0
  9 10  2  0
  9 11  1  0
 11 12  1  0
 12 13  1  0
 13 14  2  0
 14 15  1  0
 15 16  2  0
 16 17  1  0
 17 18  1  0
 18 19  2  0
 18 20  1  0
 20 21  1  0
 21 22  1  0
 22 23  2  0
 23 24  1  0
 24 25  1  0
 25 26  2  0
 17 27  2  0
 12 28  2  0
  7  2  1  0
 27 13  1  0
 28  5  1  0
 26 22  1  0
  1 29  1  0
  1 30  1  0
  1 31  1  0
  3 32  1  0
  4 33  1  0
  7 34  1  0
  8 35  1  0
 11 36  1  0
 11 37  1  0
 14 38  1  0
 15 39  1  0
 16 40  1  0
 20 41  1  0
 21 42  1  0
 21 43  1  0
 23 44  1  0
 25 45  1  0
 27 46  1  0
M  END
>  <smiles>  (5) 
Cc1ccc2c(c1)NC(=O)CC(c1cccc(C(=O)NCc3cocn3)c1)=N2

>  <score_type>  (5) 
oracle

>  <origin>  (5) 
autodockgpu

>  <m_score__min__energy>  (5) 
-6.6299999999999999

>  <m_primary>  (5) 
energy

>  <meeko>  (5) 
{"free_energy": -6.45, "intermolecular_energy": -8.84, "internal_energy": -1.21, "cluster_size": 6, "cluster_id": 1, "rank_in_cluster": 4}

>  <energy>  (5) 
-6.16

>  <cluster_rmsd>  (5) 
0.5

>  <rmsd>  (5) 
270.73

>  <cluster>  (5) 
1

$$$$

     RDKit          3D

 46 49  0  0  0  0  0  0  0  0999 V2000
  140.1300   68.4450  228.5330 C   0  0  0  0  0  0  0  0  0  0  0  0
  140.2420   69.2880  227.2930 C   0  0  0  0  0  0  0  0  0  0  0  0
  141.3630   70.0850  227.0670 C   0  0  0  0  0  0  0  0  0  0  0  0
  141.4730   70.8660  225.9170 C   0  0  0  0  0  0  0  0  0  0  0  0
  140.4250   70.8250  224.9990 C   0  0  0  0  0  0  0  0  0  0  0  0
  139.3020   70.0470  225.1920 C   0  0  0  0  0  0  0  0  0  0  0  0
  139.2230   69.2730  226.3590 C   0  0  0  0  0  0  0  0  0  0  0  0
  138.1630   69.9020  224.3530 N   0  0  0  0  0  0  0  0  0  0  0  0
  138.0300   70.4900  223.0590 C   0  0  0  0  0  0  0  0  0  0  0  0
  136.9810   70.0740  222.4680 O   0  0  0  0  0  0  0  0  0  0  0  0
  138.8070   71.4380  222.2940 C   0  0  0  0  0  0  0  0  0  0  0  0
  140.0550   71.9330  222.8270 C   0  0  0  0  0  0  0  0  0  0  0  0
  140.7260   72.9340  221.9950 C   0  0  0  0  0  0  0  0  0  0  0  0
  141.8170   72.5720  221.2030 C   0  0  0  0  0  0  0  0  0  0  0  0
  142.4810   73.4560  220.4080 C   0  0  0  0  0  0  0  0  0  0  0  0
  142.0340   74.7680  220.4030 C   0  0  0  0  0  0  0  0  0  0  0  0
  140.9610   75.1940  221.1620 C   0  0  0  0  0  0  0  0  0  0  0  0
  140.4910   76.5730  221.1580 C   0  0  0  0  0  0  0  0  0  0  0  0
  139.3750   76.8590  220.6520 O   0  0  0  0  0  0  0  0  0  0  0  0
  141.2480   77.6380  221.7110 N   0  0  0  0  0  0  0  0  0  0  0  0
  140.7900   79.0230  221.7100 C   0  0  0  0  0  0  0  0  0  0  0  0
  141.5890   79.8800  222.6170 C   0  0  0  0  0  0  0  0  0  0  0  0
  141.3610   81.2450  222.8120 C   0  0  0  0  0  0  0  0  0  0  0  0
  142.2310   81.7180  223.6690 O   0  0  0  0  0  0  0  0  0  0  0  0
  143.0300   80.7250  224.0520 C   0  0  0  0  0  0  0  0  0  0  0  0
  142.6350   79.5900  223.4030 N   0  0  0  0  0  0  0  0  0  0  0  0
  140.3340   74.2540  221.9410 C   0  0  0  0  0  0  0  0  0  0  0  0
  140.7350   71.6810  223.9090 N   0  0  0  0  0  0  0  0  0  0  0  0
  140.2153   69.0873  229.4219 H   0  0  0  0  0  0  0  0  0  0  0  0
  139.1561   67.9338  228.5421 H   0  0  0  0  0  0  0  0  0  0  0  0
  140.9367   67.6972  228.5421 H   0  0  0  0  0  0  0  0  0  0  0  0
  142.1751   70.0981  227.8088 H   0  0  0  0  0  0  0  0  0  0  0  0
  142.3584   71.4943  225.7400 H   0  0  0  0  0  0  0  0  0  0  0  0
  138.3371   68.6448  226.5336 H   0  0  0  0  0  0  0  0  0  0  0  0
  137.3790   69.3220  224.7250 H   0  0  0  0  0  0  0  0  0  0  0  0
  139.0386   70.9584  221.3315 H   0  0  0  0  0  0  0  0  0  0  0  0
  138.1668   72.3320  222.2660 H   0  0  0  0  0  0  0  0  0  0  0  0
  142.1556   71.5256  221.2219 H   0  0  0  0  0  0  0  0  0  0  0  0
  143.3379   73.1414  219.7943 H   0  0  0  0  0  0  0  0  0  0  0  0
  142.5550   75.5002  219.7686 H   0  0  0  0  0  0  0  0  0  0  0  0
  142.1830   77.4690  222.1470 H   0  0  0  0  0  0  0  0  0  0  0  0
  140.8682   79.4207  220.6874 H   0  0  0  0  0  0  0  0  0  0  0  0
  139.7495   79.0337  222.0667 H   0  0  0  0  0  0  0  0  0  0  0  0
  140.5713   81.8324  222.3207 H   0  0  0  0  0  0  0  0  0  0  0  0
  143.8628   80.8044  224.7663 H   0  0  0  0  0  0  0  0  0  0  0  0
  139.4760   74.5699  222.5526 H   0  0  0  0  0  0  0  0  0  0  0  0
  1  2  1  0
  2  3  2  0
  3  4  1  0
  4  5  2  0
  5  6  1  0
  6  7  2  0
  6  8  1  0
  8  9  1  0
  9 10  2  0
  9 11  1  0
 11 12  1  0
 12 13  1  0
 13 14  2  0
 14 15  1  0
 15 16  2  0
 16 17  1  0
 17 18  1  0
 18 19  2  0
 18 20  1  0
 20 21  1  0
 21 22  1  0
 22 23  2  0
 23 24  1  0
 24 25  1  0
 25 26  2  0
 17 27  2  0
 12 28  2  0
  7  2  1  0
 27 13  1  0
 28  5  1  0
 26 22  1  0
  1 29  1  0
  1 30  1  0
  1 31  1  0
  3 32  1  0
  4 33  1  0
  7 34  1  0
  8 35  1  0
 11 36  1  0
 11 37  1  0
 14 38  1  0
 15 39  1  0
 16 40  1  0
 20 41  1  0
 21 42  1  0
 21 43  1  0
 23 44  1  0
 25 45  1  0
 27 46  1  0
M  END
>  <smiles>  (6) 
Cc1ccc2c(c1)NC(=O)CC(c1cccc(C(=O)NCc3cocn3)c1)=N2

>  <score_type>  (6) 
oracle

>  <origin>  (6) 
autodockgpu

>  <m_score__min__energy>  (6) 
-6.6299999999999999

>  <m_primary>  (6) 
energy

>  <meeko>  (6) 
{"free_energy": -5.97, "intermolecular_energy": -8.36, "internal_energy": -1.19, "cluster_size": 6, "cluster_id": 1, "rank_in_cluster": 6}

>  <energy>  (6) 
-5.97

>  <cluster_rmsd>  (6) 
0.49

>  <rmsd>  (6) 
270.72

>  <cluster>  (6) 
1

$$$$

     RDKit          3D

 46 49  0  0  0  0  0  0  0  0999 V2000
  142.5540   80.8980  223.1640 C   0  0  0  0  0  0  0  0  0  0  0  0
  141.3670   79.9770  223.1370 C   0  0  0  0  0  0  0  0  0  0  0  0
  140.0930   80.4390  223.4690 C   0  0  0  0  0  0  0  0  0  0  0  0
  138.9880   79.5880  223.4420 C   0  0  0  0  0  0  0  0  0  0  0  0
  139.1970   78.2600  223.0740 C   0  0  0  0  0  0  0  0  0  0  0  0
  140.4430   77.7720  222.7410 C   0  0  0  0  0  0  0  0  0  0  0  0
  141.5330   78.6520  222.7770 C   0  0  0  0  0  0  0  0  0  0  0  0
  140.8080   76.4540  222.3490 N   0  0  0  0  0  0  0  0  0  0  0  0
  139.8820   75.3920  222.1160 C   0  0  0  0  0  0  0  0  0  0  0  0
  140.4660   74.3700  221.6290 O   0  0  0  0  0  0  0  0  0  0  0  0
  138.4560   75.2310  222.3060 C   0  0  0  0  0  0  0  0  0  0  0  0
  137.6780   76.3330  222.8230 C   0  0  0  0  0  0  0  0  0  0  0  0
  136.2730   76.0210  223.0930 C   0  0  0  0  0  0  0  0  0  0  0  0
  135.2640   76.6090  222.3280 C   0  0  0  0  0  0  0  0  0  0  0  0
  133.9410   76.3590  222.5290 C   0  0  0  0  0  0  0  0  0  0  0  0
  133.6070   75.4780  223.5460 C   0  0  0  0  0  0  0  0  0  0  0  0
  134.5550   74.8610  224.3410 C   0  0  0  0  0  0  0  0  0  0  0  0
  134.2050   73.9350  225.4100 C   0  0  0  0  0  0  0  0  0  0  0  0
  133.8220   74.3730  226.5250 O   0  0  0  0  0  0  0  0  0  0  0  0
  134.2760   72.5270  225.2520 N   0  0  0  0  0  0  0  0  0  0  0  0
  133.9310   71.5890  226.3150 C   0  0  0  0  0  0  0  0  0  0  0  0
  134.0270   70.1780  225.8740 C   0  0  0  0  0  0  0  0  0  0  0  0
  134.9410   69.7120  224.9260 C   0  0  0  0  0  0  0  0  0  0  0  0
  134.7760   68.4250  224.7520 O   0  0  0  0  0  0  0  0  0  0  0  0
  133.7900   68.0140  225.5460 C   0  0  0  0  0  0  0  0  0  0  0  0
  133.3260   69.0950  226.2390 N   0  0  0  0  0  0  0  0  0  0  0  0
  135.8710   75.1550  224.0860 C   0  0  0  0  0  0  0  0  0  0  0  0
  137.9540   77.5740  223.1090 N   0  0  0  0  0  0  0  0  0  0  0  0
  142.8289   81.1113  224.2075 H   0  0  0  0  0  0  0  0  0  0  0  0
  143.4016   80.4189  222.6521 H   0  0  0  0  0  0  0  0  0  0  0  0
  142.3004   81.8380  222.6521 H   0  0  0  0  0  0  0  0  0  0  0  0
  139.9577   81.4920  223.7569 H   0  0  0  0  0  0  0  0  0  0  0  0
  137.9838   79.9534  223.7028 H   0  0  0  0  0  0  0  0  0  0  0  0
  142.5357   78.2834  222.5150 H   0  0  0  0  0  0  0  0  0  0  0  0
  141.8280   76.2680  222.2270 H   0  0  0  0  0  0  0  0  0  0  0  0
  138.0300   74.9708  221.3258 H   0  0  0  0  0  0  0  0  0  0  0  0
  138.3853   74.4710  223.0981 H   0  0  0  0  0  0  0  0  0  0  0  0
  135.5510   77.3058  221.5266 H   0  0  0  0  0  0  0  0  0  0  0  0
  133.1679   76.8369  221.9093 H   0  0  0  0  0  0  0  0  0  0  0  0
  132.5441   75.2610  223.7279 H   0  0  0  0  0  0  0  0  0  0  0  0
  134.5850   72.0980  224.3500 H   0  0  0  0  0  0  0  0  0  0  0  0
  134.6188   71.7431  227.1595 H   0  0  0  0  0  0  0  0  0  0  0  0
  132.8876   71.7799  226.6062 H   0  0  0  0  0  0  0  0  0  0  0  0
  135.6857   70.3318  224.4052 H   0  0  0  0  0  0  0  0  0  0  0  0
  133.4145   66.9834  225.6293 H   0  0  0  0  0  0  0  0  0  0  0  0
  136.6432   74.6753  224.7053 H   0  0  0  0  0  0  0  0  0  0  0  0
  1  2  1  0
  2  3  2  0
  3  4  1  0
  4  5  2  0
  5  6  1  0
  6  7  2  0
  6  8  1  0
  8  9  1  0
  9 10  2  0
  9 11  1  0
 11 12  1  0
 12 13  1  0
 13 14  2  0
 14 15  1  0
 15 16  2  0
 16 17  1  0
 17 18  1  0
 18 19  2  0
 18 20  1  0
 20 21  1  0
 21 22  1  0
 22 23  2  0
 23 24  1  0
 24 25  1  0
 25 26  2  0
 17 27  2  0
 12 28  2  0
  7  2  1  0
 27 13  1  0
 28  5  1  0
 26 22  1  0
  1 29  1  0
  1 30  1  0
  1 31  1  0
  3 32  1  0
  4 33  1  0
  7 34  1  0
  8 35  1  0
 11 36  1  0
 11 37  1  0
 14 38  1  0
 15 39  1  0
 16 40  1  0
 20 41  1  0
 21 42  1  0
 21 43  1  0
 23 44  1  0
 25 45  1  0
 27 46  1  0
M  END
>  <smiles>  (7) 
Cc1ccc2c(c1)NC(=O)CC(c1cccc(C(=O)NCc3cocn3)c1)=N2

>  <score_type>  (7) 
oracle

>  <origin>  (7) 
autodockgpu

>  <m_score__min__energy>  (7) 
-6.6299999999999999

>  <m_primary>  (7) 
energy

>  <meeko>  (7) 
{"free_energy": -6.44, "intermolecular_energy": -8.82, "internal_energy": -0.85, "cluster_size": 2, "cluster_id": 2, "rank_in_cluster": 2}

>  <energy>  (7) 
-6.5

>  <cluster_rmsd>  (7) 
0.0

>  <rmsd>  (7) 
269.87

>  <cluster>  (7) 
2

$$$$

     RDKit          3D

 46 49  0  0  0  0  0  0  0  0999 V2000
  139.9310   68.7710  228.6870 C   0  0  0  0  0  0  0  0  0  0  0  0
  140.0710   69.5600  227.4150 C   0  0  0  0  0  0  0  0  0  0  0  0
  140.9310   70.6550  227.3420 C   0  0  0  0  0  0  0  0  0  0  0  0
  141.0660   71.3890  226.1630 C   0  0  0  0  0  0  0  0  0  0  0  0
  140.3140   70.9930  225.0590 C   0  0  0  0  0  0  0  0  0  0  0  0
  139.4540   69.9150  225.0990 C   0  0  0  0  0  0  0  0  0  0  0  0
  139.3400   69.1980  226.2980 C   0  0  0  0  0  0  0  0  0  0  0  0
  138.6280   69.3960  224.0630 N   0  0  0  0  0  0  0  0  0  0  0  0
  138.5940   69.8960  222.7260 C   0  0  0  0  0  0  0  0  0  0  0  0
  137.8850   69.1520  221.9730 O   0  0  0  0  0  0  0  0  0  0  0  0
  139.1780   71.0320  222.0560 C   0  0  0  0  0  0  0  0  0  0  0  0
  140.1450   71.8480  222.7520 C   0  0  0  0  0  0  0  0  0  0  0  0
  140.7680   72.8930  221.9380 C   0  0  0  0  0  0  0  0  0  0  0  0
  141.8590   72.5900  221.1210 C   0  0  0  0  0  0  0  0  0  0  0  0
  142.4810   73.5160  220.3410 C   0  0  0  0  0  0  0  0  0  0  0  0
  141.9890   74.8120  220.3760 C   0  0  0  0  0  0  0  0  0  0  0  0
  140.9130   75.1810  221.1620 C   0  0  0  0  0  0  0  0  0  0  0  0
  140.3960   76.5430  221.2010 C   0  0  0  0  0  0  0  0  0  0  0  0
  139.2190   76.7820  220.8270 O   0  0  0  0  0  0  0  0  0  0  0  0
  141.1750   77.6400  221.6500 N   0  0  0  0  0  0  0  0  0  0  0  0
  140.6700   79.0090  221.6920 C   0  0  0  0  0  0  0  0  0  0  0  0
  141.4880   79.8840  222.5630 C   0  0  0  0  0  0  0  0  0  0  0  0
  141.1190   81.1760  222.9470 C   0  0  0  0  0  0  0  0  0  0  0  0
  142.0480   81.6890  223.7140 O   0  0  0  0  0  0  0  0  0  0  0  0
  143.0210   80.7920  223.8570 C   0  0  0  0  0  0  0  0  0  0  0  0
  142.6760   79.6770  223.1460 N   0  0  0  0  0  0  0  0  0  0  0  0
  140.3320   74.2000  221.9240 C   0  0  0  0  0  0  0  0  0  0  0  0
  140.6000   71.8620  223.9740 N   0  0  0  0  0  0  0  0  0  0  0  0
  140.0502   69.4426  229.5500 H   0  0  0  0  0  0  0  0  0  0  0  0
  138.9359   68.3035  228.7208 H   0  0  0  0  0  0  0  0  0  0  0  0
  140.7045   67.9897  228.7208 H   0  0  0  0  0  0  0  0  0  0  0  0
  141.5131   70.9453  228.2291 H   0  0  0  0  0  0  0  0  0  0  0  0
  141.7446   72.2529  226.1070 H   0  0  0  0  0  0  0  0  0  0  0  0
  138.6596   68.3353  226.3514 H   0  0  0  0  0  0  0  0  0  0  0  0
  138.0100   68.5930  224.3170 H   0  0  0  0  0  0  0  0  0  0  0  0
  139.6736   70.6499  221.1514 H   0  0  0  0  0  0  0  0  0  0  0  0
  138.3254   71.7112  221.9081 H   0  0  0  0  0  0  0  0  0  0  0  0
  142.2329   71.5556  221.1071 H   0  0  0  0  0  0  0  0  0  0  0  0
  143.3396   73.2470  219.7082 H   0  0  0  0  0  0  0  0  0  0  0  0
  142.4745   75.5777  219.7531 H   0  0  0  0  0  0  0  0  0  0  0  0
  142.1600   77.5090  221.9750 H   0  0  0  0  0  0  0  0  0  0  0  0
  140.6767   79.4199  220.6716 H   0  0  0  0  0  0  0  0  0  0  0  0
  139.6516   78.9791  222.1067 H   0  0  0  0  0  0  0  0  0  0  0  0
  140.1898   81.6845  222.6502 H   0  0  0  0  0  0  0  0  0  0  0  0
  143.9414   80.9249  224.4445 H   0  0  0  0  0  0  0  0  0  0  0  0
  139.4737   74.4704  222.5566 H   0  0  0  0  0  0  0  0  0  0  0  0
  1  2  1  0
  2  3  2  0
  3  4  1  0
  4  5  2  0
  5  6  1  0
  6  7  2  0
  6  8  1  0
  8  9  1  0
  9 10  2  0
  9 11  1  0
 11 12  1  0
 12 13  1  0
 13 14  2  0
 14 15  1  0
 15 16  2  0
 16 17  1  0
 17 18  1  0
 18 19  2  0
 18 20  1  0
 20 21  1  0
 21 22  1  0
 22 23  2  0
 23 24  1  0
 24 25  1  0
 25 26  2  0
 17 27  2  0
 12 28  2  0
  7  2  1  0
 27 13  1  0
 28  5  1  0
 26 22  1  0
  1 29  1  0
  1 30  1  0
  1 31  1  0
  3 32  1  0
  4 33  1  0
  7 34  1  0
  8 35  1  0
 11 36  1  0
 11 37  1  0
 14 38  1  0
 15 39  1  0
 16 40  1  0
 20 41  1  0
 21 42  1  0
 21 43  1  0
 23 44  1  0
 25 45  1  0
 27 46  1  0
M  END
>  <smiles>  (8) 
Cc1ccc2c(c1)NC(=O)CC(c1cccc(C(=O)NCc3cocn3)c1)=N2

>  <score_type>  (8) 
oracle

>  <origin>  (8) 
autodockgpu

>  <m_score__min__energy>  (8) 
-6.6299999999999999

>  <m_primary>  (8) 
energy

>  <meeko>  (8) 
{"free_energy": -6.63, "intermolecular_energy": -9.02, "internal_energy": -1.18, "cluster_size": 6, "cluster_id": 1, "rank_in_cluster": 1}

>  <energy>  (8) 
-6.44

>  <cluster_rmsd>  (8) 
0.26

>  <rmsd>  (8) 
269.85

>  <cluster>  (8) 
2

$$$$

     RDKit          3D

 46 49  0  0  0  0  0  0  0  0999 V2000
  141.0740   81.4670  222.1140 C   0  0  0  0  0  0  0  0  0  0  0  0
  140.9430   79.9720  222.0370 C   0  0  0  0  0  0  0  0  0  0  0  0
  140.0320   79.2890  222.8410 C   0  0  0  0  0  0  0  0  0  0  0  0
  139.9050   77.9020  222.7700 C   0  0  0  0  0  0  0  0  0  0  0  0
  140.7190   77.2180  221.8690 C   0  0  0  0  0  0  0  0  0  0  0  0
  141.6310   77.8630  221.0590 C   0  0  0  0  0  0  0  0  0  0  0  0
  141.7340   79.2580  221.1540 C   0  0  0  0  0  0  0  0  0  0  0  0
  142.5220   77.3060  220.1000 N   0  0  0  0  0  0  0  0  0  0  0  0
  142.5740   75.9220  219.7510 C   0  0  0  0  0  0  0  0  0  0  0  0
  143.3510   75.7260  218.7610 O   0  0  0  0  0  0  0  0  0  0  0  0
  141.9530   74.7250  220.2640 C   0  0  0  0  0  0  0  0  0  0  0  0
  140.9240   74.8340  221.2720 C   0  0  0  0  0  0  0  0  0  0  0  0
  140.2750   73.5710  221.6280 C   0  0  0  0  0  0  0  0  0  0  0  0
  141.0120   72.3850  221.6460 C   0  0  0  0  0  0  0  0  0  0  0  0
  140.4670   71.1790  221.9690 C   0  0  0  0  0  0  0  0  0  0  0  0
  139.1180   71.1550  222.2910 C   0  0  0  0  0  0  0  0  0  0  0  0
  138.3310   72.2920  222.2930 C   0  0  0  0  0  0  0  0  0  0  0  0
  136.9140   72.2680  222.6310 C   0  0  0  0  0  0  0  0  0  0  0  0
  136.2130   71.2640  222.3420 O   0  0  0  0  0  0  0  0  0  0  0  0
  136.2690   73.3480  223.2860 N   0  0  0  0  0  0  0  0  0  0  0  0
  134.8500   73.3370  223.6270 C   0  0  0  0  0  0  0  0  0  0  0  0
  134.5550   74.1470  224.8310 C   0  0  0  0  0  0  0  0  0  0  0  0
  133.6270   73.7860  225.8130 C   0  0  0  0  0  0  0  0  0  0  0  0
  133.5950   74.7050  226.7460 O   0  0  0  0  0  0  0  0  0  0  0  0
  134.4620   75.6630  226.4270 C   0  0  0  0  0  0  0  0  0  0  0  0
  135.0550   75.3200  225.2450 N   0  0  0  0  0  0  0  0  0  0  0  0
  138.9410   73.4740  221.9590 C   0  0  0  0  0  0  0  0  0  0  0  0
  140.4320   75.8300  221.9530 N   0  0  0  0  0  0  0  0  0  0  0  0
  141.1013   81.7789  223.1685 H   0  0  0  0  0  0  0  0  0  0  0  0
  142.0030   81.7799  221.6149 H   0  0  0  0  0  0  0  0  0  0  0  0
  140.2136   81.9367  221.6149 H   0  0  0  0  0  0  0  0  0  0  0  0
  139.4021   79.8540  223.5439 H   0  0  0  0  0  0  0  0  0  0  0  0
  139.1851   77.3649  223.4051 H   0  0  0  0  0  0  0  0  0  0  0  0
  142.4541   79.7928  220.5173 H   0  0  0  0  0  0  0  0  0  0  0  0
  143.1750   77.9700  219.6290 H   0  0  0  0  0  0  0  0  0  0  0  0
  141.5057   74.2032  219.4051 H   0  0  0  0  0  0  0  0  0  0  0  0
  142.7736   74.2117  220.7867 H   0  0  0  0  0  0  0  0  0  0  0  0
  142.0805   72.4265  221.3878 H   0  0  0  0  0  0  0  0  0  0  0  0
  141.0726   70.2607  221.9742 H   0  0  0  0  0  0  0  0  0  0  0  0
  138.6556   70.1926  222.5555 H   0  0  0  0  0  0  0  0  0  0  0  0
  136.7940   74.2110  223.5540 H   0  0  0  0  0  0  0  0  0  0  0  0
  134.2792   73.7431  222.7789 H   0  0  0  0  0  0  0  0  0  0  0  0
  134.5638   72.2970  223.8427 H   0  0  0  0  0  0  0  0  0  0  0  0
  133.0173   72.8705  225.8034 H   0  0  0  0  0  0  0  0  0  0  0  0
  134.6655   76.5718  227.0125 H   0  0  0  0  0  0  0  0  0  0  0  0
  138.3343   74.3915  221.9551 H   0  0  0  0  0  0  0  0  0  0  0  0
  1  2  1  0
  2  3  2  0
  3  4  1  0
  4  5  2  0
  5  6  1  0
  6  7  2  0
  6  8  1  0
  8  9  1  0
  9 10  2  0
  9 11  1  0
 11 12  1  0
 12 13  1  0
 13 14  2  0
 14 15  1  0
 15 16  2  0
 16 17  1  0
 17 18  1  0
 18 19  2  0
 18 20  1  0
 20 21  1  0
 21 22  1  0
 22 23  2  0
 23 24  1  0
 24 25  1  0
 25 26  2  0
 17 27  2  0
 12 28  2  0
  7  2  1  0
 27 13  1  0
 28  5  1  0
 26 22  1  0
  1 29  1  0
  1 30  1  0
  1 31  1  0
  3 32  1  0
  4 33  1  0
  7 34  1  0
  8 35  1  0
 11 36  1  0
 11 37  1  0
 14 38  1  0
 15 39  1  0
 16 40  1  0
 20 41  1  0
 21 42  1  0
 21 43  1  0
 23 44  1  0
 25 45  1  0
 27 46  1  0
M  END
>  <smiles>  (9) 
Cc1ccc2c(c1)NC(=O)CC(c1cccc(C(=O)NCc3cocn3)c1)=N2

>  <score_type>  (9) 
oracle

>  <origin>  (9) 
autodockgpu

>  <m_score__min__energy>  (9) 
-6.6299999999999999

>  <m_primary>  (9) 
energy

>  <meeko>  (9) 
{"free_energy": -5.65, "intermolecular_energy": -8.04, "internal_energy": -1.1, "cluster_size": 1, "cluster_id": 6, "rank_in_cluster": 1}

>  <energy>  (9) 
-6.42

>  <cluster_rmsd>  (9) 
0.0

>  <rmsd>  (9) 
272.7

>  <cluster>  (9) 
3

$$$$

     RDKit          3D

 46 49  0  0  0  0  0  0  0  0999 V2000
  145.6570   66.8800  218.4510 C   0  0  0  0  0  0  0  0  0  0  0  0
  144.9490   68.1250  218.9090 C   0  0  0  0  0  0  0  0  0  0  0  0
  143.5760   68.1210  219.1520 C   0  0  0  0  0  0  0  0  0  0  0  0
  142.9160   69.2730  219.5800 C   0  0  0  0  0  0  0  0  0  0  0  0
  143.6720   70.4300  219.7570 C   0  0  0  0  0  0  0  0  0  0  0  0
  145.0320   70.4680  219.5250 C   0  0  0  0  0  0  0  0  0  0  0  0
  145.6660   69.2930  219.0960 C   0  0  0  0  0  0  0  0  0  0  0  0
  145.9290   71.5640  219.6610 N   0  0  0  0  0  0  0  0  0  0  0  0
  145.5580   72.8610  220.1290 C   0  0  0  0  0  0  0  0  0  0  0  0
  146.5820   73.6000  220.2960 O   0  0  0  0  0  0  0  0  0  0  0  0
  144.3060   73.5020  220.4420 C   0  0  0  0  0  0  0  0  0  0  0  0
  143.0930   72.7180  220.4720 C   0  0  0  0  0  0  0  0  0  0  0  0
  141.8990   73.4480  220.9020 C   0  0  0  0  0  0  0  0  0  0  0  0
  140.8250   72.7620  221.4720 C   0  0  0  0  0  0  0  0  0  0  0  0
  139.6880   73.3830  221.8930 C   0  0  0  0  0  0  0  0  0  0  0  0
  139.6200   74.7590  221.7380 C   0  0  0  0  0  0  0  0  0  0  0  0
  140.6460   75.5000  221.1820 C   0  0  0  0  0  0  0  0  0  0  0  0
  140.5740   76.9460  221.0170 C   0  0  0  0  0  0  0  0  0  0  0  0
  139.4570   77.5150  220.9100 O   0  0  0  0  0  0  0  0  0  0  0  0
  141.7320   77.7650  220.9710 N   0  0  0  0  0  0  0  0  0  0  0  0
  141.6740   79.2130  220.8040 C   0  0  0  0  0  0  0  0  0  0  0  0
  142.0170   79.9370  222.0500 C   0  0  0  0  0  0  0  0  0  0  0  0
  142.0980   81.3290  222.1540 C   0  0  0  0  0  0  0  0  0  0  0  0
  142.4210   81.6600  223.3780 O   0  0  0  0  0  0  0  0  0  0  0  0
  142.5590   80.5470  224.0950 C   0  0  0  0  0  0  0  0  0  0  0  0
  142.3100   79.4830  223.2760 N   0  0  0  0  0  0  0  0  0  0  0  0
  141.7640   74.8130  220.7790 C   0  0  0  0  0  0  0  0  0  0  0  0
  142.8160   71.4750  220.1940 N   0  0  0  0  0  0  0  0  0  0  0  0
  145.9858   66.3018  219.3271 H   0  0  0  0  0  0  0  0  0  0  0  0
  144.9708   66.2697  217.8454 H   0  0  0  0  0  0  0  0  0  0  0  0
  146.5323   67.1577  217.8454 H   0  0  0  0  0  0  0  0  0  0  0  0
  143.0035   67.1935  219.0036 H   0  0  0  0  0  0  0  0  0  0  0  0
  141.8329   69.2682  219.7717 H   0  0  0  0  0  0  0  0  0  0  0  0
  146.7493   69.3003  218.9054 H   0  0  0  0  0  0  0  0  0  0  0  0
  146.9230   71.3880  219.3950 H   0  0  0  0  0  0  0  0  0  0  0  0
  144.4188   73.9550  221.4380 H   0  0  0  0  0  0  0  0  0  0  0  0
  144.1490   74.1883  219.5968 H   0  0  0  0  0  0  0  0  0  0  0  0
  140.9003   71.6706  221.5863 H   0  0  0  0  0  0  0  0  0  0  0  0
  138.8573   72.8156  222.3380 H   0  0  0  0  0  0  0  0  0  0  0  0
  138.7120   75.2828  222.0713 H   0  0  0  0  0  0  0  0  0  0  0  0
  142.6900   77.3550  221.0550 H   0  0  0  0  0  0  0  0  0  0  0  0
  142.3842   79.5070  220.0171 H   0  0  0  0  0  0  0  0  0  0  0  0
  140.6416   79.4794  220.5335 H   0  0  0  0  0  0  0  0  0  0  0  0
  141.9177   82.0377  221.3323 H   0  0  0  0  0  0  0  0  0  0  0  0
  142.8267   80.4936  225.1606 H   0  0  0  0  0  0  0  0  0  0  0  0
  142.5944   75.3818  220.3352 H   0  0  0  0  0  0  0  0  0  0  0  0
  1  2  1  0
  2  3  2  0
  3  4  1  0
  4  5  2  0
  5  6  1  0
  6  7  2  0
  6  8  1  0
  8  9  1  0
  9 10  2  0
  9 11  1  0
 11 12  1  0
 12 13  1  0
 13 14  2  0
 14 15  1  0
 15 16  2  0
 16 17  1  0
 17 18  1  0
 18 19  2  0
 18 20  1  0
 20 21  1  0
 21 22  1  0
 22 23  2  0
 23 24  1  0
 24 25  1  0
 25 26  2  0
 17 27  2  0
 12 28  2  0
  7  2  1  0
 27 13  1  0
 28  5  1  0
 26 22  1  0
  1 29  1  0
  1 30  1  0
  1 31  1  0
  3 32  1  0
  4 33  1  0
  7 34  1  0
  8 35  1  0
 11 36  1  0
 11 37  1  0
 14 38  1  0
 15 39  1  0
 16 40  1  0
 20 41  1  0
 21 42  1  0
 21 43  1  0
 23 44  1  0
 25 45  1  0
 27 46  1  0
M  END
>  <smiles>  (10) 
Cc1ccc2c(c1)NC(=O)CC(c1cccc(C(=O)NCc3cocn3)c1)=N2

>  <score_type>  (10) 
oracle

>  <origin>  (10) 
autodockgpu

>  <m_score__min__energy>  (10) 
-6.6299999999999999

>  <m_primary>  (10) 
energy

>  <meeko>  (10) 
{"free_energy": -5.26, "intermolecular_energy": -7.65, "internal_energy": -1.02, "cluster_size": 3, "cluster_id": 7, "rank_in_cluster": 3}

>  <energy>  (10) 
-5.8

>  <cluster_rmsd>  (10) 
0.97

>  <rmsd>  (10) 
272.21

>  <cluster>  (10) 
3

$$$$

     RDKit          3D

 46 49  0  0  0  0  0  0  0  0999 V2000
  145.6930   67.1150  218.5180 C   0  0  0  0  0  0  0  0  0  0  0  0
  144.9860   68.3580  218.9850 C   0  0  0  0  0  0  0  0  0  0  0  0
  143.6040   68.3720  219.1660 C   0  0  0  0  0  0  0  0  0  0  0  0
  142.9440   69.5210  219.6010 C   0  0  0  0  0  0  0  0  0  0  0  0
  143.7120   70.6570  219.8500 C   0  0  0  0  0  0  0  0  0  0  0  0
  145.0810   70.6770  219.6810 C   0  0  0  0  0  0  0  0  0  0  0  0
  145.7130   69.5060  219.2430 C   0  0  0  0  0  0  0  0  0  0  0  0
  145.9890   71.7510  219.8940 N   0  0  0  0  0  0  0  0  0  0  0  0
  145.6190   73.0430  220.3770 C   0  0  0  0  0  0  0  0  0  0  0  0
  146.6460   73.7570  220.6180 O   0  0  0  0  0  0  0  0  0  0  0  0
  144.3630   73.6990  220.6450 C   0  0  0  0  0  0  0  0  0  0  0  0
  143.1390   72.9330  220.6090 C   0  0  0  0  0  0  0  0  0  0  0  0
  141.9410   73.6680  221.0200 C   0  0  0  0  0  0  0  0  0  0  0  0
  140.8350   72.9800  221.5240 C   0  0  0  0  0  0  0  0  0  0  0  0
  139.6930   73.6050  221.9240 C   0  0  0  0  0  0  0  0  0  0  0  0
  139.6530   74.9870  221.8170 C   0  0  0  0  0  0  0  0  0  0  0  0
  140.7110   75.7290  221.3280 C   0  0  0  0  0  0  0  0  0  0  0  0
  140.6690   77.1810  221.2140 C   0  0  0  0  0  0  0  0  0  0  0  0
  139.5690   77.7890  221.2800 O   0  0  0  0  0  0  0  0  0  0  0  0
  141.8370   77.9650  221.0270 N   0  0  0  0  0  0  0  0  0  0  0  0
  141.8080   79.4190  220.9090 C   0  0  0  0  0  0  0  0  0  0  0  0
  142.1080   80.0930  222.1940 C   0  0  0  0  0  0  0  0  0  0  0  0
  141.9070   81.4560  222.4310 C   0  0  0  0  0  0  0  0  0  0  0  0
  142.2660   81.7460  223.6570 O   0  0  0  0  0  0  0  0  0  0  0  0
  142.6990   80.6330  224.2450 C   0  0  0  0  0  0  0  0  0  0  0  0
  142.6020   79.6120  223.3430 N   0  0  0  0  0  0  0  0  0  0  0  0
  141.8330   75.0390  220.9420 C   0  0  0  0  0  0  0  0  0  0  0  0
  142.8550   71.7040  220.2830 N   0  0  0  0  0  0  0  0  0  0  0  0
  146.0245   66.5322  219.3900 H   0  0  0  0  0  0  0  0  0  0  0  0
  145.0050   66.5079  217.9113 H   0  0  0  0  0  0  0  0  0  0  0  0
  146.5664   67.3960  217.9113 H   0  0  0  0  0  0  0  0  0  0  0  0
  143.0234   67.4602  218.9620 H   0  0  0  0  0  0  0  0  0  0  0  0
  141.8532   69.5303  219.7429 H   0  0  0  0  0  0  0  0  0  0  0  0
  146.8039   69.4994  219.1021 H   0  0  0  0  0  0  0  0  0  0  0  0
  146.9930   71.5640  219.6750 H   0  0  0  0  0  0  0  0  0  0  0  0
  144.4382   74.1350  221.6521 H   0  0  0  0  0  0  0  0  0  0  0  0
  144.2535   74.4008  219.8051 H   0  0  0  0  0  0  0  0  0  0  0  0
  140.8887   71.8840  221.6014 H   0  0  0  0  0  0  0  0  0  0  0  0
  138.8368   73.0365  222.3161 H   0  0  0  0  0  0  0  0  0  0  0  0
  138.7413   75.5143  222.1345 H   0  0  0  0  0  0  0  0  0  0  0  0
  142.7820   77.5220  220.9650 H   0  0  0  0  0  0  0  0  0  0  0  0
  142.5558   79.7285  220.1640 H   0  0  0  0  0  0  0  0  0  0  0  0
  140.7925   79.7119  220.6041 H   0  0  0  0  0  0  0  0  0  0  0  0
  141.5084   82.1749  221.7000 H   0  0  0  0  0  0  0  0  0  0  0  0
  143.0701   80.5501  225.2772 H   0  0  0  0  0  0  0  0  0  0  0  0
  142.6885   75.6092  220.5509 H   0  0  0  0  0  0  0  0  0  0  0  0
  1  2  1  0
  2  3  2  0
  3  4  1  0
  4  5  2  0
  5  6  1  0
  6  7  2  0
  6  8  1  0
  8  9  1  0
  9 10  2  0
  9 11  1  0
 11 12  1  0
 12 13  1  0
 13 14  2  0
 14 15  1  0
 15 16  2  0
 16 17  1  0
 17 18  1  0
 18 19  2  0
 18 20  1  0
 20 21  1  0
 21 22  1  0
 22 23  2  0
 23 24  1  0
 24 25  1  0
 25 26  2  0
 17 27  2  0
 12 28  2  0
  7  2  1  0
 27 13  1  0
 28  5  1  0
 26 22  1  0
  1 29  1  0
  1 30  1  0
  1 31  1  0
  3 32  1  0
  4 33  1  0
  7 34  1  0
  8 35  1  0
 11 36  1  0
 11 37  1  0
 14 38  1  0
 15 39  1  0
 16 40  1  0
 20 41  1  0
 21 42  1  0
 21 43  1  0
 23 44  1  0
 25 45  1  0
 27 46  1  0
M  END
>  <smiles>  (11) 
Cc1ccc2c(c1)NC(=O)CC(c1cccc(C(=O)NCc3cocn3)c1)=N2

>  <score_type>  (11) 
oracle

>  <origin>  (11) 
autodockgpu

>  <m_score__min__energy>  (11) 
-6.6299999999999999

>  <m_primary>  (11) 
energy

>  <meeko>  (11) 
{"free_energy": -5.41, "intermolecular_energy": -7.79, "internal_energy": -1.03, "cluster_size": 3, "cluster_id": 7, "rank_in_cluster": 2}

>  <energy>  (11) 
-6.01

>  <cluster_rmsd>  (11) 
0.0

>  <rmsd>  (11) 
270.64

>  <cluster>  (11) 
4

$$$$

     RDKit          3D

 46 49  0  0  0  0  0  0  0  0999 V2000
  139.9790   68.8550  228.7330 C   0  0  0  0  0  0  0  0  0  0  0  0
  140.1580   69.5800  227.4290 C   0  0  0  0  0  0  0  0  0  0  0  0
  140.9200   70.7460  227.3540 C   0  0  0  0  0  0  0  0  0  0  0  0
  141.0910   71.4200  226.1450 C   0  0  0  0  0  0  0  0  0  0  0  0
  140.4750   70.8920  225.0120 C   0  0  0  0  0  0  0  0  0  0  0  0
  139.7140   69.7420  225.0510 C   0  0  0  0  0  0  0  0  0  0  0  0
  139.5620   69.0870  226.2820 C   0  0  0  0  0  0  0  0  0  0  0  0
  139.0310   69.0880  223.9880 N   0  0  0  0  0  0  0  0  0  0  0  0
  139.0390   69.5270  222.6290 C   0  0  0  0  0  0  0  0  0  0  0  0
  138.4760   68.6750  221.8670 O   0  0  0  0  0  0  0  0  0  0  0  0
  139.5400   70.6960  221.9460 C   0  0  0  0  0  0  0  0  0  0  0  0
  140.3700   71.6360  222.6630 C   0  0  0  0  0  0  0  0  0  0  0  0
  140.8830   72.7440  221.8550 C   0  0  0  0  0  0  0  0  0  0  0  0
  141.8720   72.5150  220.8970 C   0  0  0  0  0  0  0  0  0  0  0  0
  142.3890   73.5030  220.1150 C   0  0  0  0  0  0  0  0  0  0  0  0
  141.8920   74.7850  220.2970 C   0  0  0  0  0  0  0  0  0  0  0  0
  140.9130   75.0810  221.2260 C   0  0  0  0  0  0  0  0  0  0  0  0
  140.3920   76.4280  221.4190 C   0  0  0  0  0  0  0  0  0  0  0  0
  139.5030   76.8780  220.6500 O   0  0  0  0  0  0  0  0  0  0  0  0
  140.8470   77.2800  222.4580 N   0  0  0  0  0  0  0  0  0  0  0  0
  140.3350   78.6310  222.6600 C   0  0  0  0  0  0  0  0  0  0  0  0
  141.4020   79.5870  223.0360 C   0  0  0  0  0  0  0  0  0  0  0  0
  141.1900   80.9470  223.2790 C   0  0  0  0  0  0  0  0  0  0  0  0
  142.3250   81.5210  223.5880 O   0  0  0  0  0  0  0  0  0  0  0  0
  143.2860   80.6000  223.5620 C   0  0  0  0  0  0  0  0  0  0  0  0
  142.7170   79.4050  223.2210 N   0  0  0  0  0  0  0  0  0  0  0  0
  140.4350   74.0410  221.9830 C   0  0  0  0  0  0  0  0  0  0  0  0
  140.7750   71.7210  223.8980 N   0  0  0  0  0  0  0  0  0  0  0  0
  140.1510   69.5518  229.5666 H   0  0  0  0  0  0  0  0  0  0  0  0
  138.9555   68.4565  228.7935 H   0  0  0  0  0  0  0  0  0  0  0  0
  140.6994   68.0259  228.7935 H   0  0  0  0  0  0  0  0  0  0  0  0
  141.3944   71.1409  228.2645 H   0  0  0  0  0  0  0  0  0  0  0  0
  141.6929   72.3390  226.0877 H   0  0  0  0  0  0  0  0  0  0  0  0
  138.9601   68.1679  226.3362 H   0  0  0  0  0  0  0  0  0  0  0  0
  138.4910   68.2300  224.2380 H   0  0  0  0  0  0  0  0  0  0  0  0
  140.1287   70.3381  221.0885 H   0  0  0  0  0  0  0  0  0  0  0  0
  138.6312   71.2730  221.7197 H   0  0  0  0  0  0  0  0  0  0  0  0
  142.2509   71.4904  220.7678 H   0  0  0  0  0  0  0  0  0  0  0  0
  143.1695   73.2926  219.3690 H   0  0  0  0  0  0  0  0  0  0  0  0
  142.2937   75.5995  219.6763 H   0  0  0  0  0  0  0  0  0  0  0  0
  141.5820   76.9670  223.1320 H   0  0  0  0  0  0  0  0  0  0  0  0
  139.8654   78.9744  221.7264 H   0  0  0  0  0  0  0  0  0  0  0  0
  139.6092   78.5954  223.4858 H   0  0  0  0  0  0  0  0  0  0  0  0
  140.2173   81.4573  223.2196 H   0  0  0  0  0  0  0  0  0  0  0  0
  144.3511   80.7708  223.7772 H   0  0  0  0  0  0  0  0  0  0  0  0
  139.6553   74.2532  222.7293 H   0  0  0  0  0  0  0  0  0  0  0  0
  1  2  1  0
  2  3  2  0
  3  4  1  0
  4  5  2  0
  5  6  1  0
  6  7  2  0
  6  8  1  0
  8  9  1  0
  9 10  2  0
  9 11  1  0
 11 12  1  0
 12 13  1  0
 13 14  2  0
 14 15  1  0
 15 16  2  0
 16 17  1  0
 17 18  1  0
 18 19  2  0
 18 20  1  0
 20 21  1  0
 21 22  1  0
 22 23  2  0
 23 24  1  0
 24 25  1  0
 25 26  2  0
 17 27  2  0
 12 28  2  0
  7  2  1  0
 27 13  1  0
 28  5  1  0
 26 22  1  0
  1 29  1  0
  1 30  1  0
  1 31  1  0
  3 32  1  0
  4 33  1  0
  7 34  1  0
  8 35  1  0
 11 36  1  0
 11 37  1  0
 14 38  1  0
 15 39  1  0
 16 40  1  0
 20 41  1  0
 21 42  1  0
 21 43  1  0
 23 44  1  0
 25 45  1  0
 27 46  1  0
M  END
>  <smiles>  (12) 
Cc1ccc2c(c1)NC(=O)CC(c1cccc(C(=O)NCc3cocn3)c1)=N2

>  <score_type>  (12) 
oracle

>  <origin>  (12) 
autodockgpu

>  <m_score__min__energy>  (12) 
-6.6299999999999999

>  <m_primary>  (12) 
energy

>  <meeko>  (12) 
{"free_energy": -6.16, "intermolecular_energy": -8.55, "internal_energy": -1.08, "cluster_size": 6, "cluster_id": 1, "rank_in_cluster": 5}

>  <energy>  (12) 
-5.69

>  <cluster_rmsd>  (12) 
0.0

>  <rmsd>  (12) 
271.17

>  <cluster>  (12) 
5

$$$$

     RDKit          3D

 46 49  0  0  0  0  0  0  0  0999 V2000
  135.7270   81.7720  224.7400 C   0  0  0  0  0  0  0  0  0  0  0  0
  136.7360   80.8180  224.1640 C   0  0  0  0  0  0  0  0  0  0  0  0
  136.3360   79.6260  223.5630 C   0  0  0  0  0  0  0  0  0  0  0  0
  137.2700   78.7400  223.0250 C   0  0  0  0  0  0  0  0  0  0  0  0
  138.6170   79.0850  223.1060 C   0  0  0  0  0  0  0  0  0  0  0  0
  139.0470   80.2570  223.6940 C   0  0  0  0  0  0  0  0  0  0  0  0
  138.0840   81.1260  224.2250 C   0  0  0  0  0  0  0  0  0  0  0  0
  140.3760   80.7400  223.8500 N   0  0  0  0  0  0  0  0  0  0  0  0
  141.5410   80.0830  223.3510 C   0  0  0  0  0  0  0  0  0  0  0  0
  142.5770   80.8090  223.4960 O   0  0  0  0  0  0  0  0  0  0  0  0
  141.7950   78.8050  222.7310 C   0  0  0  0  0  0  0  0  0  0  0  0
  140.6800   77.9770  222.3320 C   0  0  0  0  0  0  0  0  0  0  0  0
  141.0440   76.7800  221.5700 C   0  0  0  0  0  0  0  0  0  0  0  0
  141.7740   76.8980  220.3860 C   0  0  0  0  0  0  0  0  0  0  0  0
  142.1440   75.8240  219.6340 C   0  0  0  0  0  0  0  0  0  0  0  0
  141.7660   74.5690  220.0860 C   0  0  0  0  0  0  0  0  0  0  0  0
  141.0430   74.3820  221.2500 C   0  0  0  0  0  0  0  0  0  0  0  0
  140.6450   73.0630  221.7250 C   0  0  0  0  0  0  0  0  0  0  0  0
  141.2570   72.0370  221.3300 O   0  0  0  0  0  0  0  0  0  0  0  0
  139.5730   72.8740  222.6360 N   0  0  0  0  0  0  0  0  0  0  0  0
  139.1630   71.5590  223.1180 C   0  0  0  0  0  0  0  0  0  0  0  0
  139.7810   71.2200  224.4210 C   0  0  0  0  0  0  0  0  0  0  0  0
  139.4980   70.0600  225.1470 C   0  0  0  0  0  0  0  0  0  0  0  0
  140.2010   70.0500  226.2510 O   0  0  0  0  0  0  0  0  0  0  0  0
  140.9410   71.1550  226.2920 C   0  0  0  0  0  0  0  0  0  0  0  0
  140.6830   71.8790  225.1620 N   0  0  0  0  0  0  0  0  0  0  0  0
  140.7030   75.5040  221.9610 C   0  0  0  0  0  0  0  0  0  0  0  0
  139.3910   78.0580  222.5020 N   0  0  0  0  0  0  0  0  0  0  0  0
  135.7696   81.7317  225.8384 H   0  0  0  0  0  0  0  0  0  0  0  0
  135.9536   82.7938  224.4015 H   0  0  0  0  0  0  0  0  0  0  0  0
  134.7195   81.4886  224.4015 H   0  0  0  0  0  0  0  0  0  0  0  0
  135.2652   79.3793  223.5119 H   0  0  0  0  0  0  0  0  0  0  0  0
  136.9526   77.7990  222.5519 H   0  0  0  0  0  0  0  0  0  0  0  0
  138.4042   82.0665  224.6971 H   0  0  0  0  0  0  0  0  0  0  0  0
  140.4870   81.6400  224.3680 H   0  0  0  0  0  0  0  0  0  0  0  0
  142.3894   79.0001  221.8262 H   0  0  0  0  0  0  0  0  0  0  0  0
  142.2799   78.2216  223.5275 H   0  0  0  0  0  0  0  0  0  0  0  0
  142.0634   77.9030  220.0450 H   0  0  0  0  0  0  0  0  0  0  0  0
  142.7199   75.9476  218.7050 H   0  0  0  0  0  0  0  0  0  0  0  0
  142.0527   73.6866  219.4951 H   0  0  0  0  0  0  0  0  0  0  0  0
  139.0250   73.6840  223.0030 H   0  0  0  0  0  0  0  0  0  0  0  0
  138.0690   71.5494  223.2322 H   0  0  0  0  0  0  0  0  0  0  0  0
  139.4967   70.8120  222.3827 H   0  0  0  0  0  0  0  0  0  0  0  0
  138.7921   69.2751  224.8378 H   0  0  0  0  0  0  0  0  0  0  0  0
  141.6383   71.4365  227.0948 H   0  0  0  0  0  0  0  0  0  0  0  0
  140.1288   75.3788  222.8908 H   0  0  0  0  0  0  0  0  0  0  0  0
  1  2  1  0
  2  3  2  0
  3  4  1  0
  4  5  2  0
  5  6  1  0
  6  7  2  0
  6  8  1  0
  8  9  1  0
  9 10  2  0
  9 11  1  0
 11 12  1  0
 12 13  1  0
 13 14  2  0
 14 15  1  0
 15 16  2  0
 16 17  1  0
 17 18  1  0
 18 19  2  0
 18 20  1  0
 20 21  1  0
 21 22  1  0
 22 23  2  0
 23 24  1  0
 24 25  1  0
 25 26  2  0
 17 27  2  0
 12 28  2  0
  7  2  1  0
 27 13  1  0
 28  5  1  0
 26 22  1  0
  1 29  1  0
  1 30  1  0
  1 31  1  0
  3 32  1  0
  4 33  1  0
  7 34  1  0
  8 35  1  0
 11 36  1  0
 11 37  1  0
 14 38  1  0
 15 39  1  0
 16 40  1  0
 20 41  1  0
 21 42  1  0
 21 43  1  0
 23 44  1  0
 25 45  1  0
 27 46  1  0
M  END
>  <smiles>  (13) 
Cc1ccc2c(c1)NC(=O)CC(c1cccc(C(=O)NCc3cocn3)c1)=N2

>  <score_type>  (13) 
oracle

>  <origin>  (13) 
autodockgpu

>  <m_score__min__energy>  (13) 
-6.6299999999999999

>  <m_primary>  (13) 
energy

>  <meeko>  (13) 
{"free_energy": -5.69, "intermolecular_energy": -8.07, "internal_energy": -1.02, "cluster_size": 2, "cluster_id": 5, "rank_in_cluster": 1}

>  <energy>  (13) 
-5.6

>  <cluster_rmsd>  (13) 
0.27

>  <rmsd>  (13) 
271.1

>  <cluster>  (13) 
5

$$$$

     RDKit          3D

 46 49  0  0  0  0  0  0  0  0999 V2000
  140.0410   68.8770  228.7100 C   0  0  0  0  0  0  0  0  0  0  0  0
  140.1770   69.6450  227.4250 C   0  0  0  0  0  0  0  0  0  0  0  0
  141.0730   70.7080  227.3160 C   0  0  0  0  0  0  0  0  0  0  0  0
  141.2040   71.4220  226.1250 C   0  0  0  0  0  0  0  0  0  0  0  0
  140.4120   71.0380  225.0450 C   0  0  0  0  0  0  0  0  0  0  0  0
  139.5170   69.9910  225.1190 C   0  0  0  0  0  0  0  0  0  0  0  0
  139.4080   69.2940  226.3300 C   0  0  0  0  0  0  0  0  0  0  0  0
  138.6490   69.4880  224.1100 N   0  0  0  0  0  0  0  0  0  0  0  0
  138.5780   69.9920  222.7760 C   0  0  0  0  0  0  0  0  0  0  0  0
  137.8330   69.2610  222.0460 O   0  0  0  0  0  0  0  0  0  0  0  0
  139.1540   71.1250  222.0920 C   0  0  0  0  0  0  0  0  0  0  0  0
  140.1760   71.9060  222.7480 C   0  0  0  0  0  0  0  0  0  0  0  0
  140.7700   72.9590  221.9230 C   0  0  0  0  0  0  0  0  0  0  0  0
  141.8150   72.6590  221.0470 C   0  0  0  0  0  0  0  0  0  0  0  0
  142.4090   73.5930  220.2530 C   0  0  0  0  0  0  0  0  0  0  0  0
  141.9350   74.8930  220.3360 C   0  0  0  0  0  0  0  0  0  0  0  0
  140.9040   75.2590  221.1810 C   0  0  0  0  0  0  0  0  0  0  0  0
  140.4060   76.6260  221.2700 C   0  0  0  0  0  0  0  0  0  0  0  0
  139.3450   76.9510  220.6770 O   0  0  0  0  0  0  0  0  0  0  0  0
  141.0750   77.6330  222.0120 N   0  0  0  0  0  0  0  0  0  0  0  0
  140.5880   79.0050  222.1070 C   0  0  0  0  0  0  0  0  0  0  0  0
  141.5200   79.8830  222.8510 C   0  0  0  0  0  0  0  0  0  0  0  0
  141.1960   81.1610  223.3140 C   0  0  0  0  0  0  0  0  0  0  0  0
  142.2280   81.6800  223.9310 O   0  0  0  0  0  0  0  0  0  0  0  0
  143.2270   80.8000  223.8980 C   0  0  0  0  0  0  0  0  0  0  0  0
  142.7910   79.6910  223.2320 N   0  0  0  0  0  0  0  0  0  0  0  0
  140.3490   74.2710  221.9540 C   0  0  0  0  0  0  0  0  0  0  0  0
  140.7010   71.8830  223.9410 N   0  0  0  0  0  0  0  0  0  0  0  0
  140.1624   69.5626  229.5616 H   0  0  0  0  0  0  0  0  0  0  0  0
  139.0461   68.4098  228.7544 H   0  0  0  0  0  0  0  0  0  0  0  0
  140.8149   68.0966  228.7544 H   0  0  0  0  0  0  0  0  0  0  0  0
  141.6872   70.9883  228.1845 H   0  0  0  0  0  0  0  0  0  0  0  0
  141.9100   72.2614  226.0411 H   0  0  0  0  0  0  0  0  0  0  0  0
  138.7006   68.4555  226.4109 H   0  0  0  0  0  0  0  0  0  0  0  0
  138.0270   68.6940  224.3820 H   0  0  0  0  0  0  0  0  0  0  0  0
  139.5918   70.7457  221.1568 H   0  0  0  0  0  0  0  0  0  0  0  0
  138.3119   71.8266  221.9989 H   0  0  0  0  0  0  0  0  0  0  0  0
  142.1751   71.6209  220.9956 H   0  0  0  0  0  0  0  0  0  0  0  0
  143.2317   73.3263  219.5733 H   0  0  0  0  0  0  0  0  0  0  0  0
  142.3981   75.6648  219.7037 H   0  0  0  0  0  0  0  0  0  0  0  0
  141.9600   77.4280  222.5290 H   0  0  0  0  0  0  0  0  0  0  0  0
  140.4599   79.4059  221.0907 H   0  0  0  0  0  0  0  0  0  0  0  0
  139.6344   78.9859  222.6551 H   0  0  0  0  0  0  0  0  0  0  0  0
  140.2226   81.6557  223.1806 H   0  0  0  0  0  0  0  0  0  0  0  0
  144.2280   80.9419  224.3314 H   0  0  0  0  0  0  0  0  0  0  0  0
  139.5263   74.5395  222.6330 H   0  0  0  0  0  0  0  0  0  0  0  0
  1  2  1  0
  2  3  2  0
  3  4  1  0
  4  5  2  0
  5  6  1  0
  6  7  2  0
  6  8  1  0
  8  9  1  0
  9 10  2  0
  9 11  1  0
 11 12  1  0
 12 13  1  0
 13 14  2  0
 14 15  1  0
 15 16  2  0
 16 17  1  0
 17 18  1  0
 18 19  2  0
 18 20  1  0
 20 21  1  0
 21 22  1  0
 22 23  2  0
 23 24  1  0
 24 25  1  0
 25 26  2  0
 17 27  2  0
 12 28  2  0
  7  2  1  0
 27 13  1  0
 28  5  1  0
 26 22  1  0
  1 29  1  0
  1 30  1  0
  1 31  1  0
  3 32  1  0
  4 33  1  0
  7 34  1  0
  8 35  1  0
 11 36  1  0
 11 37  1  0
 14 38  1  0
 15 39  1  0
 16 40  1  0
 20 41  1  0
 21 42  1  0
 21 43  1  0
 23 44  1  0
 25 45  1  0
 27 46  1  0
M  END
>  <smiles>  (14) 
Cc1ccc2c(c1)NC(=O)CC(c1cccc(C(=O)NCc3cocn3)c1)=N2

>  <score_type>  (14) 
oracle

>  <origin>  (14) 
autodockgpu

>  <m_score__min__energy>  (14) 
-6.6299999999999999

>  <m_primary>  (14) 
energy

>  <meeko>  (14) 
{"free_energy": -6.59, "intermolecular_energy": -8.98, "internal_energy": -1.18, "cluster_size": 6, "cluster_id": 1, "rank_in_cluster": 3}

>  <energy>  (14) 
-5.65

>  <cluster_rmsd>  (14) 
0.0

>  <rmsd>  (14) 
269.72

>  <cluster>  (14) 
6

$$$$

     RDKit          3D

 46 49  0  0  0  0  0  0  0  0999 V2000
  140.3510   85.1280  219.9770 C   0  0  0  0  0  0  0  0  0  0  0  0
  140.3220   83.6790  220.3790 C   0  0  0  0  0  0  0  0  0  0  0  0
  139.5410   82.7570  219.6830 C   0  0  0  0  0  0  0  0  0  0  0  0
  139.5130   81.4120  220.0510 C   0  0  0  0  0  0  0  0  0  0  0  0
  140.2910   81.0170  221.1370 C   0  0  0  0  0  0  0  0  0  0  0  0
  141.0750   81.9040  221.8470 C   0  0  0  0  0  0  0  0  0  0  0  0
  141.0810   83.2490  221.4520 C   0  0  0  0  0  0  0  0  0  0  0  0
  141.9160   81.6510  222.9660 N   0  0  0  0  0  0  0  0  0  0  0  0
  142.1570   80.3590  223.5240 C   0  0  0  0  0  0  0  0  0  0  0  0
  143.0640   80.4030  224.4170 O   0  0  0  0  0  0  0  0  0  0  0  0
  141.6110   79.0400  223.2970 C   0  0  0  0  0  0  0  0  0  0  0  0
  140.6410   78.8420  222.2460 C   0  0  0  0  0  0  0  0  0  0  0  0
  140.1050   77.4830  222.1510 C   0  0  0  0  0  0  0  0  0  0  0  0
  138.7800   77.2250  222.5060 C   0  0  0  0  0  0  0  0  0  0  0  0
  138.2230   75.9840  222.4400 C   0  0  0  0  0  0  0  0  0  0  0  0
  139.0290   74.9470  221.9960 C   0  0  0  0  0  0  0  0  0  0  0  0
  140.3480   75.1320  221.6280 C   0  0  0  0  0  0  0  0  0  0  0  0
  141.1970   74.0430  221.1630 C   0  0  0  0  0  0  0  0  0  0  0  0
  141.3930   73.0380  221.8940 O   0  0  0  0  0  0  0  0  0  0  0  0
  141.8280   74.0600  219.8920 N   0  0  0  0  0  0  0  0  0  0  0  0
  142.6820   72.9770  219.4150 C   0  0  0  0  0  0  0  0  0  0  0  0
  144.1080   73.1940  219.7530 C   0  0  0  0  0  0  0  0  0  0  0  0
  145.1560   72.3920  219.2930 C   0  0  0  0  0  0  0  0  0  0  0  0
  146.2920   72.8400  219.7650 O   0  0  0  0  0  0  0  0  0  0  0  0
  146.0450   73.9070  220.5220 C   0  0  0  0  0  0  0  0  0  0  0  0
  144.6970   74.1260  220.5150 N   0  0  0  0  0  0  0  0  0  0  0  0
  140.8490   76.4070  221.7180 C   0  0  0  0  0  0  0  0  0  0  0  0
  140.1230   79.6220  221.3390 N   0  0  0  0  0  0  0  0  0  0  0  0
  140.3636   85.7584  220.8784 H   0  0  0  0  0  0  0  0  0  0  0  0
  141.2533   85.3247  219.3793 H   0  0  0  0  0  0  0  0  0  0  0  0
  139.4573   85.3607  219.3793 H   0  0  0  0  0  0  0  0  0  0  0  0
  138.9365   83.0964  218.8289 H   0  0  0  0  0  0  0  0  0  0  0  0
  138.8961   80.6860  219.5011 H   0  0  0  0  0  0  0  0  0  0  0  0
  141.6985   83.9731  222.0037 H   0  0  0  0  0  0  0  0  0  0  0  0
  142.3800   82.4800  223.3980 H   0  0  0  0  0  0  0  0  0  0  0  0
  142.4601   78.3759  223.0777 H   0  0  0  0  0  0  0  0  0  0  0  0
  141.0413   78.8353  224.2154 H   0  0  0  0  0  0  0  0  0  0  0  0
  138.1574   78.0620  222.8549 H   0  0  0  0  0  0  0  0  0  0  0  0
  137.1754   75.8113  222.7275 H   0  0  0  0  0  0  0  0  0  0  0  0
  138.6010   73.9356  221.9341 H   0  0  0  0  0  0  0  0  0  0  0  0
  141.7060   74.8640  219.2360 H   0  0  0  0  0  0  0  0  0  0  0  0
  142.3489   72.0351  219.8753 H   0  0  0  0  0  0  0  0  0  0  0  0
  142.5981   72.9406  218.3188 H   0  0  0  0  0  0  0  0  0  0  0  0
  145.0436   71.5178  218.6348 H   0  0  0  0  0  0  0  0  0  0  0  0
  146.7948   74.5067  221.0587 H   0  0  0  0  0  0  0  0  0  0  0  0
  141.8967   76.5782  221.4301 H   0  0  0  0  0  0  0  0  0  0  0  0
  1  2  1  0
  2  3  2  0
  3  4  1  0
  4  5  2  0
  5  6  1  0
  6  7  2  0
  6  8  1  0
  8  9  1  0
  9 10  2  0
  9 11  1  0
 11 12  1  0
 12 13  1  0
 13 14  2  0
 14 15  1  0
 15 16  2  0
 16 17  1  0
 17 18  1  0
 18 19  2  0
 18 20  1  0
 20 21  1  0
 21 22  1  0
 22 23  2  0
 23 24  1  0
 24 25  1  0
 25 26  2  0
 17 27  2  0
 12 28  2  0
  7  2  1  0
 27 13  1  0
 28  5  1  0
 26 22  1  0
  1 29  1  0
  1 30  1  0
  1 31  1  0
  3 32  1  0
  4 33  1  0
  7 34  1  0
  8 35  1  0
 11 36  1  0
 11 37  1  0
 14 38  1  0
 15 39  1  0
 16 40  1  0
 20 41  1  0
 21 42  1  0
 21 43  1  0
 23 44  1  0
 25 45  1  0
 27 46  1  0
M  END
>  <smiles>  (15) 
Cc1ccc2c(c1)NC(=O)CC(c1cccc(C(=O)NCc3cocn3)c1)=N2

>  <score_type>  (15) 
oracle

>  <origin>  (15) 
autodockgpu

>  <m_score__min__energy>  (15) 
-6.6299999999999999

>  <m_primary>  (15) 
energy

>  <meeko>  (15) 
{"free_energy": -5.08, "intermolecular_energy": -7.47, "internal_energy": -1.03, "cluster_size": 1, "cluster_id": 9, "rank_in_cluster": 1}

>  <energy>  (15) 
-5.5

>  <cluster_rmsd>  (15) 
0.0

>  <rmsd>  (15) 
269.91

>  <cluster>  (15) 
7

$$$$

     RDKit          3D

 46 49  0  0  0  0  0  0  0  0999 V2000
  140.2260   68.8650  228.6730 C   0  0  0  0  0  0  0  0  0  0  0  0
  140.3230   69.5850  227.3570 C   0  0  0  0  0  0  0  0  0  0  0  0
  140.9910   70.8040  227.2540 C   0  0  0  0  0  0  0  0  0  0  0  0
  141.0850   71.4740  226.0340 C   0  0  0  0  0  0  0  0  0  0  0  0
  140.4900   70.8860  224.9200 C   0  0  0  0  0  0  0  0  0  0  0  0
  139.8220   69.6810  224.9880 C   0  0  0  0  0  0  0  0  0  0  0  0
  139.7440   69.0320  226.2280 C   0  0  0  0  0  0  0  0  0  0  0  0
  139.1700   68.9630  223.9460 N   0  0  0  0  0  0  0  0  0  0  0  0
  139.1490   69.3640  222.5760 C   0  0  0  0  0  0  0  0  0  0  0  0
  138.6300   68.4640  221.8400 O   0  0  0  0  0  0  0  0  0  0  0  0
  139.5780   70.5400  221.8600 C   0  0  0  0  0  0  0  0  0  0  0  0
  140.3090   71.5730  222.5580 C   0  0  0  0  0  0  0  0  0  0  0  0
  140.7060   72.7130  221.7290 C   0  0  0  0  0  0  0  0  0  0  0  0
  141.5470   72.5220  220.6310 C   0  0  0  0  0  0  0  0  0  0  0  0
  141.9520   73.5400  219.8220 C   0  0  0  0  0  0  0  0  0  0  0  0
  141.4940   74.8140  220.1230 C   0  0  0  0  0  0  0  0  0  0  0  0
  140.6590   75.0720  221.1950 C   0  0  0  0  0  0  0  0  0  0  0  0
  140.1780   76.4100  221.5130 C   0  0  0  0  0  0  0  0  0  0  0  0
  139.0280   76.7710  221.1510 O   0  0  0  0  0  0  0  0  0  0  0  0
  140.9620   77.3510  222.2290 N   0  0  0  0  0  0  0  0  0  0  0  0
  140.4930   78.6950  222.5520 C   0  0  0  0  0  0  0  0  0  0  0  0
  141.5850   79.5700  223.0370 C   0  0  0  0  0  0  0  0  0  0  0  0
  141.3880   80.8390  223.5890 C   0  0  0  0  0  0  0  0  0  0  0  0
  142.5430   81.3590  223.9200 O   0  0  0  0  0  0  0  0  0  0  0  0
  143.5020   80.4880  223.6120 C   0  0  0  0  0  0  0  0  0  0  0  0
  142.9120   79.3840  223.0660 N   0  0  0  0  0  0  0  0  0  0  0  0
  140.2890   74.0030  221.9700 C   0  0  0  0  0  0  0  0  0  0  0  0
  140.7040   71.7210  223.7910 N   0  0  0  0  0  0  0  0  0  0  0  0
  140.3236   69.5892  229.4952 H   0  0  0  0  0  0  0  0  0  0  0  0
  139.2516   68.3594  228.7434 H   0  0  0  0  0  0  0  0  0  0  0  0
  141.0318   68.1196  228.7434 H   0  0  0  0  0  0  0  0  0  0  0  0
  141.4519   71.2453  228.1500 H   0  0  0  0  0  0  0  0  0  0  0  0
  141.6122   72.4361  225.9542 H   0  0  0  0  0  0  0  0  0  0  0  0
  139.2156   68.0703  226.3048 H   0  0  0  0  0  0  0  0  0  0  0  0
  138.6790   68.0840  224.2210 H   0  0  0  0  0  0  0  0  0  0  0  0
  140.2197   70.1958  221.0356 H   0  0  0  0  0  0  0  0  0  0  0  0
  138.6338   71.0332  221.5857 H   0  0  0  0  0  0  0  0  0  0  0  0
  141.8983   71.5034  220.4094 H   0  0  0  0  0  0  0  0  0  0  0  0
  142.6160   73.3589  218.9639 H   0  0  0  0  0  0  0  0  0  0  0  0
  141.8073   75.6526  219.4838 H   0  0  0  0  0  0  0  0  0  0  0  0
  141.9250   77.1150  222.5590 H   0  0  0  0  0  0  0  0  0  0  0  0
  140.0552   79.1436  221.6481 H   0  0  0  0  0  0  0  0  0  0  0  0
  139.7491   78.6073  223.3576 H   0  0  0  0  0  0  0  0  0  0  0  0
  140.4113   81.3265  223.7246 H   0  0  0  0  0  0  0  0  0  0  0  0
  144.5810   80.6325  223.7698 H   0  0  0  0  0  0  0  0  0  0  0  0
  139.6252   74.1853  222.8280 H   0  0  0  0  0  0  0  0  0  0  0  0
  1  2  1  0
  2  3  2  0
  3  4  1  0
  4  5  2  0
  5  6  1  0
  6  7  2  0
  6  8  1  0
  8  9  1  0
  9 10  2  0
  9 11  1  0
 11 12  1  0
 12 13  1  0
 13 14  2  0
 14 15  1  0
 15 16  2  0
 16 17  1  0
 17 18  1  0
 18 19  2  0
 18 20  1  0
 20 21  1  0
 21 22  1  0
 22 23  2  0
 23 24  1  0
 24 25  1  0
 25 26  2  0
 17 27  2  0
 12 28  2  0
  7  2  1  0
 27 13  1  0
 28  5  1  0
 26 22  1  0
  1 29  1  0
  1 30  1  0
  1 31  1  0
  3 32  1  0
  4 33  1  0
  7 34  1  0
  8 35  1  0
 11 36  1  0
 11 37  1  0
 14 38  1  0
 15 39  1  0
 16 40  1  0
 20 41  1  0
 21 42  1  0
 21 43  1  0
 23 44  1  0
 25 45  1  0
 27 46  1  0
M  END
>  <smiles>  (16) 
Cc1ccc2c(c1)NC(=O)CC(c1cccc(C(=O)NCc3cocn3)c1)=N2

>  <score_type>  (16) 
oracle

>  <origin>  (16) 
autodockgpu

>  <m_score__min__energy>  (16) 
-6.6299999999999999

>  <m_primary>  (16) 
energy

>  <meeko>  (16) 
{"free_energy": -6.59, "intermolecular_energy": -8.98, "internal_energy": -1.17, "cluster_size": 6, "cluster_id": 1, "rank_in_cluster": 2}

>  <energy>  (16) 
-5.41

>  <cluster_rmsd>  (16) 
0.86

>  <rmsd>  (16) 
270.3

>  <cluster>  (16) 
7

$$$$

     RDKit          3D

 46 49  0  0  0  0  0  0  0  0999 V2000
  135.7690   81.4900  224.7870 C   0  0  0  0  0  0  0  0  0  0  0  0
  136.8080   80.6170  224.1400 C   0  0  0  0  0  0  0  0  0  0  0  0
  136.4560   79.4100  223.5360 C   0  0  0  0  0  0  0  0  0  0  0  0
  137.4160   78.5980  222.9320 C   0  0  0  0  0  0  0  0  0  0  0  0
  138.7410   79.0310  222.9510 C   0  0  0  0  0  0  0  0  0  0  0  0
  139.1220   80.2190  223.5400 C   0  0  0  0  0  0  0  0  0  0  0  0
  138.1340   81.0120  224.1380 C   0  0  0  0  0  0  0  0  0  0  0  0
  140.4230   80.7880  223.6370 N   0  0  0  0  0  0  0  0  0  0  0  0
  141.6050   80.2060  223.0880 C   0  0  0  0  0  0  0  0  0  0  0  0
  142.5980   80.9980  223.1870 O   0  0  0  0  0  0  0  0  0  0  0  0
  141.9130   78.9430  222.4580 C   0  0  0  0  0  0  0  0  0  0  0  0
  140.8390   78.0400  222.1160 C   0  0  0  0  0  0  0  0  0  0  0  0
  141.2590   76.8180  221.4270 C   0  0  0  0  0  0  0  0  0  0  0  0
  142.1500   76.8890  220.3540 C   0  0  0  0  0  0  0  0  0  0  0  0
  142.5790   75.7890  219.6740 C   0  0  0  0  0  0  0  0  0  0  0  0
  142.0940   74.5570  220.0850 C   0  0  0  0  0  0  0  0  0  0  0  0
  141.2110   74.4160  221.1390 C   0  0  0  0  0  0  0  0  0  0  0  0
  140.7010   73.1210  221.5710 C   0  0  0  0  0  0  0  0  0  0  0  0
  141.1720   72.0610  221.0830 O   0  0  0  0  0  0  0  0  0  0  0  0
  139.6730   72.9930  222.5400 N   0  0  0  0  0  0  0  0  0  0  0  0
  139.1510   71.7020  222.9790 C   0  0  0  0  0  0  0  0  0  0  0  0
  139.7940   71.2320  224.2290 C   0  0  0  0  0  0  0  0  0  0  0  0
  139.6000   69.9640  224.7830 C   0  0  0  0  0  0  0  0  0  0  0  0
  140.3020   69.8530  225.8830 O   0  0  0  0  0  0  0  0  0  0  0  0
  140.9550   70.9950  226.0850 C   0  0  0  0  0  0  0  0  0  0  0  0
  140.6420   71.8470  225.0640 N   0  0  0  0  0  0  0  0  0  0  0  0
  140.8180   75.5620  221.7820 C   0  0  0  0  0  0  0  0  0  0  0  0
  139.5470   78.0700  222.2870 N   0  0  0  0  0  0  0  0  0  0  0  0
  135.8573   81.4158  225.8809 H   0  0  0  0  0  0  0  0  0  0  0  0
  135.9225   82.5341  224.4767 H   0  0  0  0  0  0  0  0  0  0  0  0
  134.7670   81.1588  224.4767 H   0  0  0  0  0  0  0  0  0  0  0  0
  135.4027   79.0929  223.5360 H   0  0  0  0  0  0  0  0  0  0  0  0
  137.1365   77.6465  222.4560 H   0  0  0  0  0  0  0  0  0  0  0  0
  138.4167   81.9630  224.6131 H   0  0  0  0  0  0  0  0  0  0  0  0
  140.4980   81.6950  224.1490 H   0  0  0  0  0  0  0  0  0  0  0  0
  142.4478   79.1727  221.5246 H   0  0  0  0  0  0  0  0  0  0  0  0
  142.4737   78.3976  223.2314 H   0  0  0  0  0  0  0  0  0  0  0  0
  142.5219   77.8767  220.0441 H   0  0  0  0  0  0  0  0  0  0  0  0
  143.2821   75.8750  218.8324 H   0  0  0  0  0  0  0  0  0  0  0  0
  142.4255   73.6546  219.5504 H   0  0  0  0  0  0  0  0  0  0  0  0
  139.2390   73.8330  222.9850 H   0  0  0  0  0  0  0  0  0  0  0  0
  138.0690   71.7981  223.1521 H   0  0  0  0  0  0  0  0  0  0  0  0
  139.3675   70.9655  222.1912 H   0  0  0  0  0  0  0  0  0  0  0  0
  138.9560   69.1790  224.3599 H   0  0  0  0  0  0  0  0  0  0  0  0
  141.6286   71.2144  226.9265 H   0  0  0  0  0  0  0  0  0  0  0  0
  140.1152   75.4738  222.6236 H   0  0  0  0  0  0  0  0  0  0  0  0
  1  2  1  0
  2  3  2  0
  3  4  1  0
  4  5  2  0
  5  6  1  0
  6  7  2  0
  6  8  1  0
  8  9  1  0
  9 10  2  0
  9 11  1  0
 11 12  1  0
 12 13  1  0
 13 14  2  0
 14 15  1  0
 15 16  2  0
 16 17  1  0
 17 18  1  0
 18 19  2  0
 18 20  1  0
 20 21  1  0
 21 22  1  0
 22 23  2  0
 23 24  1  0
 24 25  1  0
 25 26  2  0
 17 27  2  0
 12 28  2  0
  7  2  1  0
 27 13  1  0
 28  5  1  0
 26 22  1  0
  1 29  1  0
  1 30  1  0
  1 31  1  0
  3 32  1  0
  4 33  1  0
  7 34  1  0
  8 35  1  0
 11 36  1  0
 11 37  1  0
 14 38  1  0
 15 39  1  0
 16 40  1  0
 20 41  1  0
 21 42  1  0
 21 43  1  0
 23 44  1  0
 25 45  1  0
 27 46  1  0
M  END
>  <smiles>  (17) 
Cc1ccc2c(c1)NC(=O)CC(c1cccc(C(=O)NCc3cocn3)c1)=N2

>  <score_type>  (17) 
oracle

>  <origin>  (17) 
autodockgpu

>  <m_score__min__energy>  (17) 
-6.6299999999999999

>  <m_primary>  (17) 
energy

>  <meeko>  (17) 
{"free_energy": -5.6, "intermolecular_energy": -7.98, "internal_energy": -1.03, "cluster_size": 2, "cluster_id": 5, "rank_in_cluster": 2}

>  <energy>  (17) 
-5.26

>  <cluster_rmsd>  (17) 
0.65

>  <rmsd>  (17) 
270.1

>  <cluster>  (17) 
7

$$$$

     RDKit          3D

 46 49  0  0  0  0  0  0  0  0999 V2000
  143.5300   80.7990  223.7860 C   0  0  0  0  0  0  0  0  0  0  0  0
  142.1890   80.1610  223.5530 C   0  0  0  0  0  0  0  0  0  0  0  0
  141.0140   80.9030  223.6640 C   0  0  0  0  0  0  0  0  0  0  0  0
  139.7670   80.3160  223.4460 C   0  0  0  0  0  0  0  0  0  0  0  0
  139.7330   78.9630  223.1140 C   0  0  0  0  0  0  0  0  0  0  0  0
  140.8770   78.2000  222.9970 C   0  0  0  0  0  0  0  0  0  0  0  0
  142.1140   78.8200  223.2220 C   0  0  0  0  0  0  0  0  0  0  0  0
  140.9990   76.8220  222.6680 N   0  0  0  0  0  0  0  0  0  0  0  0
  139.9040   75.9640  222.3490 C   0  0  0  0  0  0  0  0  0  0  0  0
  140.3100   74.8260  221.9460 O   0  0  0  0  0  0  0  0  0  0  0  0
  138.4690   76.1040  222.3810 C   0  0  0  0  0  0  0  0  0  0  0  0
  137.8860   77.4010  222.6350 C   0  0  0  0  0  0  0  0  0  0  0  0
  136.4250   77.4460  222.5460 C   0  0  0  0  0  0  0  0  0  0  0  0
  135.7500   76.6130  221.6510 C   0  0  0  0  0  0  0  0  0  0  0  0
  134.3940   76.6080  221.5220 C   0  0  0  0  0  0  0  0  0  0  0  0
  133.6750   77.4780  222.3270 C   0  0  0  0  0  0  0  0  0  0  0  0
  134.2790   78.3290  223.2330 C   0  0  0  0  0  0  0  0  0  0  0  0
  133.5240   79.2440  224.0790 C   0  0  0  0  0  0  0  0  0  0  0  0
  133.1430   80.3550  223.6260 O   0  0  0  0  0  0  0  0  0  0  0  0
  133.1870   78.9370  225.4230 N   0  0  0  0  0  0  0  0  0  0  0  0
  132.4330   79.8460  226.2800 C   0  0  0  0  0  0  0  0  0  0  0  0
  131.9220   79.1760  227.4980 C   0  0  0  0  0  0  0  0  0  0  0  0
  131.3010   79.8400  228.5590 C   0  0  0  0  0  0  0  0  0  0  0  0
  130.9630   78.9760  229.4820 O   0  0  0  0  0  0  0  0  0  0  0  0
  131.3340   77.7620  229.0810 C   0  0  0  0  0  0  0  0  0  0  0  0
  131.9260   77.8840  227.8560 N   0  0  0  0  0  0  0  0  0  0  0  0
  135.6480   78.2850  223.3150 C   0  0  0  0  0  0  0  0  0  0  0  0
  138.3810   78.5680  222.9340 N   0  0  0  0  0  0  0  0  0  0  0  0
  143.7119   80.8856  224.8674 H   0  0  0  0  0  0  0  0  0  0  0  0
  144.3155   80.1781  223.3306 H   0  0  0  0  0  0  0  0  0  0  0  0
  143.5438   81.8002  223.3306 H   0  0  0  0  0  0  0  0  0  0  0  0
  141.0709   81.9694  223.9279 H   0  0  0  0  0  0  0  0  0  0  0  0
  138.8405   80.9025  223.5334 H   0  0  0  0  0  0  0  0  0  0  0  0
  143.0390   78.2312  223.1340 H   0  0  0  0  0  0  0  0  0  0  0  0
  141.9660   76.4270  222.6650 H   0  0  0  0  0  0  0  0  0  0  0  0
  138.0932   75.7704  221.4025 H   0  0  0  0  0  0  0  0  0  0  0  0
  138.1713   75.5109  223.2582 H   0  0  0  0  0  0  0  0  0  0  0  0
  136.3400   75.9302  221.0219 H   0  0  0  0  0  0  0  0  0  0  0  0
  133.8897   75.9405  220.8078 H   0  0  0  0  0  0  0  0  0  0  0  0
  132.5784   77.4915  222.2410 H   0  0  0  0  0  0  0  0  0  0  0  0
  133.4720   78.0320  225.8590 H   0  0  0  0  0  0  0  0  0  0  0  0
  133.0903   80.6748  226.5815 H   0  0  0  0  0  0  0  0  0  0  0  0
  131.5669   80.2083  225.7067 H   0  0  0  0  0  0  0  0  0  0  0  0
  131.1232   80.9243  228.6106 H   0  0  0  0  0  0  0  0  0  0  0  0
  131.1892   76.8248  229.6384 H   0  0  0  0  0  0  0  0  0  0  0  0
  136.1503   78.9528  224.0303 H   0  0  0  0  0  0  0  0  0  0  0  0
  1  2  1  0
  2  3  2  0
  3  4  1  0
  4  5  2  0
  5  6  1  0
  6  7  2  0
  6  8  1  0
  8  9  1  0
  9 10  2  0
  9 11  1  0
 11 12  1  0
 12 13  1  0
 13 14  2  0
 14 15  1  0
 15 16  2  0
 16 17  1  0
 17 18  1  0
 18 19  2  0
 18 20  1  0
 20 21  1  0
 21 22  1  0
 22 23  2  0
 23 24  1  0
 24 25  1  0
 25 26  2  0
 17 27  2  0
 12 28  2  0
  7  2  1  0
 27 13  1  0
 28  5  1  0
 26 22  1  0
  1 29  1  0
  1 30  1  0
  1 31  1  0
  3 32  1  0
  4 33  1  0
  7 34  1  0
  8 35  1  0
 11 36  1  0
 11 37  1  0
 14 38  1  0
 15 39  1  0
 16 40  1  0
 20 41  1  0
 21 42  1  0
 21 43  1  0
 23 44  1  0
 25 45  1  0
 27 46  1  0
M  END
>  <smiles>  (18) 
Cc1ccc2c(c1)NC(=O)CC(c1cccc(C(=O)NCc3cocn3)c1)=N2

>  <score_type>  (18) 
oracle

>  <origin>  (18) 
autodockgpu

>  <m_score__min__energy>  (18) 
-6.6299999999999999

>  <m_primary>  (18) 
energy

>  <meeko>  (18) 
{"free_energy": -4.9, "intermolecular_energy": -7.29, "internal_energy": -1.18, "cluster_size": 1, "cluster_id": 10, "rank_in_cluster": 1}

>  <energy>  (18) 
-5.34

>  <cluster_rmsd>  (18) 
0.0

>  <rmsd>  (18) 
271.18

>  <cluster>  (18) 
8

$$$$

     RDKit          3D

 46 49  0  0  0  0  0  0  0  0999 V2000
  134.3700   83.4330  227.8490 C   0  0  0  0  0  0  0  0  0  0  0  0
  135.2520   82.6390  226.9260 C   0  0  0  0  0  0  0  0  0  0  0  0
  136.6410   82.7460  226.9920 C   0  0  0  0  0  0  0  0  0  0  0  0
  137.4620   82.0090  226.1390 C   0  0  0  0  0  0  0  0  0  0  0  0
  136.8520   81.1610  225.2180 C   0  0  0  0  0  0  0  0  0  0  0  0
  135.4810   81.0320  225.1260 C   0  0  0  0  0  0  0  0  0  0  0  0
  134.6830   81.7870  225.9970 C   0  0  0  0  0  0  0  0  0  0  0  0
  134.7200   80.2150  224.2440 N   0  0  0  0  0  0  0  0  0  0  0  0
  135.2790   79.2960  223.3060 C   0  0  0  0  0  0  0  0  0  0  0  0
  134.3720   78.5880  222.7580 O   0  0  0  0  0  0  0  0  0  0  0  0
  136.6170   78.9970  222.8570 C   0  0  0  0  0  0  0  0  0  0  0  0
  137.7440   79.6090  223.5210 C   0  0  0  0  0  0  0  0  0  0  0  0
  139.0550   79.1410  223.0670 C   0  0  0  0  0  0  0  0  0  0  0  0
  140.1230   80.0350  222.9680 C   0  0  0  0  0  0  0  0  0  0  0  0
  141.3650   79.6620  222.5530 C   0  0  0  0  0  0  0  0  0  0  0  0
  141.5520   78.3280  222.2210 C   0  0  0  0  0  0  0  0  0  0  0  0
  140.5390   77.3920  222.2960 C   0  0  0  0  0  0  0  0  0  0  0  0
  140.7330   75.9910  221.9470 C   0  0  0  0  0  0  0  0  0  0  0  0
  139.8810   75.1300  222.2870 O   0  0  0  0  0  0  0  0  0  0  0  0
  141.8660   75.5370  221.2220 N   0  0  0  0  0  0  0  0  0  0  0  0
  142.0740   74.1370  220.8680 C   0  0  0  0  0  0  0  0  0  0  0  0
  143.5060   73.8130  220.6700 C   0  0  0  0  0  0  0  0  0  0  0  0
  144.0150   72.5140  220.5980 C   0  0  0  0  0  0  0  0  0  0  0  0
  145.3110   72.5590  220.4190 O   0  0  0  0  0  0  0  0  0  0  0  0
  145.6870   73.8350  220.3710 C   0  0  0  0  0  0  0  0  0  0  0  0
  144.5730   74.6100  220.5260 N   0  0  0  0  0  0  0  0  0  0  0  0
  139.3110   77.8330  222.7220 C   0  0  0  0  0  0  0  0  0  0  0  0
  137.8580   80.5080  224.4570 N   0  0  0  0  0  0  0  0  0  0  0  0
  134.6281   83.2007  228.8927 H   0  0  0  0  0  0  0  0  0  0  0  0
  134.5192   84.5072  227.6648 H   0  0  0  0  0  0  0  0  0  0  0  0
  133.3174   83.1721  227.6648 H   0  0  0  0  0  0  0  0  0  0  0  0
  137.0967   83.4232  227.7294 H   0  0  0  0  0  0  0  0  0  0  0  0
  138.5574   82.0948  226.1920 H   0  0  0  0  0  0  0  0  0  0  0  0
  133.5879   81.7004  225.9406 H   0  0  0  0  0  0  0  0  0  0  0  0
  133.6810   80.3080  224.3020 H   0  0  0  0  0  0  0  0  0  0  0  0
  136.7475   77.9082  222.9434 H   0  0  0  0  0  0  0  0  0  0  0  0
  136.6509   79.4247  221.8441 H   0  0  0  0  0  0  0  0  0  0  0  0
  139.9534   81.0879  223.2374 H   0  0  0  0  0  0  0  0  0  0  0  0
  142.1873   80.3893  222.4837 H   0  0  0  0  0  0  0  0  0  0  0  0
  142.5474   78.0025  221.8844 H   0  0  0  0  0  0  0  0  0  0  0  0
  142.6100   76.2000  220.9090 H   0  0  0  0  0  0  0  0  0  0  0  0
  141.6770   73.5052  221.6762 H   0  0  0  0  0  0  0  0  0  0  0  0
  141.5525   73.9495  219.9178 H   0  0  0  0  0  0  0  0  0  0  0  0
  143.4179   71.5938  220.6793 H   0  0  0  0  0  0  0  0  0  0  0  0
  146.7148   74.2012  220.2310 H   0  0  0  0  0  0  0  0  0  0  0  0
  138.4898   77.1044  222.7913 H   0  0  0  0  0  0  0  0  0  0  0  0
  1  2  1  0
  2  3  2  0
  3  4  1  0
  4  5  2  0
  5  6  1  0
  6  7  2  0
  6  8  1  0
  8  9  1  0
  9 10  2  0
  9 11  1  0
 11 12  1  0
 12 13  1  0
 13 14  2  0
 14 15  1  0
 15 16  2  0
 16 17  1  0
 17 18  1  0
 18 19  2  0
 18 20  1  0
 20 21  1  0
 21 22  1  0
 22 23  2  0
 23 24  1  0
 24 25  1  0
 25 26  2  0
 17 27  2  0
 12 28  2  0
  7  2  1  0
 27 13  1  0
 28  5  1  0
 26 22  1  0
  1 29  1  0
  1 30  1  0
  1 31  1  0
  3 32  1  0
  4 33  1  0
  7 34  1  0
  8 35  1  0
 11 36  1  0
 11 37  1  0
 14 38  1  0
 15 39  1  0
 16 40  1  0
 20 41  1  0
 21 42  1  0
 21 43  1  0
 23 44  1  0
 25 45  1  0
 27 46  1  0
M  END
>  <smiles>  (19) 
Cc1ccc2c(c1)NC(=O)CC(c1cccc(C(=O)NCc3cocn3)c1)=N2

>  <score_type>  (19) 
oracle

>  <origin>  (19) 
autodockgpu

>  <m_score__min__energy>  (19) 
-6.6299999999999999

>  <m_primary>  (19) 
energy

>  <meeko>  (19) 
{"free_energy": -5.34, "intermolecular_energy": -7.73, "internal_energy": -1.19, "cluster_size": 1, "cluster_id": 8, "rank_in_cluster": 1}

>  <energy>  (19) 
-5.08

>  <cluster_rmsd>  (19) 
0.0

>  <rmsd>  (19) 
270.97

>  <cluster>  (19) 
9

$$$$

     RDKit          3D

 46 49  0  0  0  0  0  0  0  0999 V2000
  142.7300   80.9090  223.0360 C   0  0  0  0  0  0  0  0  0  0  0  0
  141.5410   79.9890  223.0480 C   0  0  0  0  0  0  0  0  0  0  0  0
  140.3150   80.4080  223.5620 C   0  0  0  0  0  0  0  0  0  0  0  0
  139.2080   79.5590  223.5720 C   0  0  0  0  0  0  0  0  0  0  0  0
  139.3670   78.2760  223.0510 C   0  0  0  0  0  0  0  0  0  0  0  0
  140.5660   77.8300  222.5350 C   0  0  0  0  0  0  0  0  0  0  0  0
  141.6590   78.7080  222.5400 C   0  0  0  0  0  0  0  0  0  0  0  0
  140.8770   76.5600  221.9740 N   0  0  0  0  0  0  0  0  0  0  0  0
  139.9390   75.4980  221.8030 C   0  0  0  0  0  0  0  0  0  0  0  0
  140.4470   74.5370  221.1400 O   0  0  0  0  0  0  0  0  0  0  0  0
  138.5720   75.2810  222.2090 C   0  0  0  0  0  0  0  0  0  0  0  0
  137.8240   76.3690  222.7940 C   0  0  0  0  0  0  0  0  0  0  0  0
  136.4130   76.0770  223.0530 C   0  0  0  0  0  0  0  0  0  0  0  0
  135.4190   76.6670  222.2700 C   0  0  0  0  0  0  0  0  0  0  0  0
  134.0910   76.4350  222.4590 C   0  0  0  0  0  0  0  0  0  0  0  0
  133.7350   75.5680  223.4820 C   0  0  0  0  0  0  0  0  0  0  0  0
  134.6670   74.9500  224.2930 C   0  0  0  0  0  0  0  0  0  0  0  0
  134.2940   74.0400  225.3690 C   0  0  0  0  0  0  0  0  0  0  0  0
  133.8030   74.4900  226.4360 O   0  0  0  0  0  0  0  0  0  0  0  0
  134.4620   72.6350  225.2690 N   0  0  0  0  0  0  0  0  0  0  0  0
  134.0950   71.7130  226.3400 C   0  0  0  0  0  0  0  0  0  0  0  0
  134.1910   70.2960  225.9190 C   0  0  0  0  0  0  0  0  0  0  0  0
  134.9050   69.8540  224.8020 C   0  0  0  0  0  0  0  0  0  0  0  0
  134.7970   68.5530  224.6980 O   0  0  0  0  0  0  0  0  0  0  0  0
  134.0390   68.1100  225.6990 C   0  0  0  0  0  0  0  0  0  0  0  0
  133.6650   69.1850  226.4530 N   0  0  0  0  0  0  0  0  0  0  0  0
  135.9890   75.2260  224.0500 C   0  0  0  0  0  0  0  0  0  0  0  0
  138.1310   77.5840  223.1530 N   0  0  0  0  0  0  0  0  0  0  0  0
  143.0265   81.1384  224.0701 H   0  0  0  0  0  0  0  0  0  0  0  0
  143.5663   80.4205  222.5145 H   0  0  0  0  0  0  0  0  0  0  0  0
  142.4671   81.8412  222.5145 H   0  0  0  0  0  0  0  0  0  0  0  0
  140.2186   81.4262  223.9669 H   0  0  0  0  0  0  0  0  0  0  0  0
  138.2411   79.8913  223.9779 H   0  0  0  0  0  0  0  0  0  0  0  0
  142.6248   78.3731  222.1338 H   0  0  0  0  0  0  0  0  0  0  0  0
  141.8660   76.4130  221.6720 H   0  0  0  0  0  0  0  0  0  0  0  0
  138.0198   74.9573  221.3144 H   0  0  0  0  0  0  0  0  0  0  0  0
  138.6581   74.5547  223.0306 H   0  0  0  0  0  0  0  0  0  0  0  0
  135.7228   77.3506  221.4635 H   0  0  0  0  0  0  0  0  0  0  0  0
  133.3306   76.9157  221.8260 H   0  0  0  0  0  0  0  0  0  0  0  0
  132.6678   75.3646  223.6542 H   0  0  0  0  0  0  0  0  0  0  0  0
  134.8630   72.1960  224.4100 H   0  0  0  0  0  0  0  0  0  0  0  0
  134.7701   71.8751  227.1932 H   0  0  0  0  0  0  0  0  0  0  0  0
  133.0482   71.9131  226.6125 H   0  0  0  0  0  0  0  0  0  0  0  0
  135.4712   70.5001  224.1151 H   0  0  0  0  0  0  0  0  0  0  0  0
  133.7626   67.0618  225.8857 H   0  0  0  0  0  0  0  0  0  0  0  0
  136.7483   74.7436  224.6830 H   0  0  0  0  0  0  0  0  0  0  0  0
  1  2  1  0
  2  3  2  0
  3  4  1  0
  4  5  2  0
  5  6  1  0
  6  7  2  0
  6  8  1  0
  8  9  1  0
  9 10  2  0
  9 11  1  0
 11 12  1  0
 12 13  1  0
 13 14  2  0
 14 15  1  0
 15 16  2  0
 16 17  1  0
 17 18  1  0
 18 19  2  0
 18 20  1  0
 20 21  1  0
 21 22  1  0
 22 23  2  0
 23 24  1  0
 24 25  1  0
 25 26  2  0
 17 27  2  0
 12 28  2  0
  7  2  1  0
 27 13  1  0
 28  5  1  0
 26 22  1  0
  1 29  1  0
  1 30  1  0
  1 31  1  0
  3 32  1  0
  4 33  1  0
  7 34  1  0
  8 35  1  0
 11 36  1  0
 11 37  1  0
 14 38  1  0
 15 39  1  0
 16 40  1  0
 20 41  1  0
 21 42  1  0
 21 43  1  0
 23 44  1  0
 25 45  1  0
 27 46  1  0
M  END
>  <smiles>  (20) 
Cc1ccc2c(c1)NC(=O)CC(c1cccc(C(=O)NCc3cocn3)c1)=N2

>  <score_type>  (20) 
oracle

>  <origin>  (20) 
autodockgpu

>  <m_score__min__energy>  (20) 
-6.6299999999999999

>  <m_primary>  (20) 
energy

>  <meeko>  (20) 
{"free_energy": -6.5, "intermolecular_energy": -8.89, "internal_energy": -0.84, "cluster_size": 2, "cluster_id": 2, "rank_in_cluster": 1}

>  <energy>  (20) 
-4.9

>  <cluster_rmsd>  (20) 
0.0

>  <rmsd>  (20) 
270.82

>  <cluster>  (20) 
10

$$$$
