
     RDKit          3D

 55 57  0  0  0  0  0  0  0  0999 V2000
  139.3390   80.3360  223.7870 C   0  0  0  0  0  0  0  0  0  0  0  0
  140.5300   79.4070  223.8420 C   0  0  0  0  0  0  0  0  0  0  0  0
  141.8490   80.1760  223.6930 C   0  0  0  0  0  0  0  0  0  0  0  0
  142.5180   79.7000  222.4420 C   0  0  0  0  0  0  0  0  0  0  0  0
  141.5730   79.0140  221.5190 C   0  0  0  0  0  0  0  0  0  0  0  0
  141.8120   77.6140  221.3130 N   0  0  0  0  0  0  0  0  0  0  0  0
  140.9250   76.5790  221.6770 C   0  0  0  0  0  0  0  0  0  0  0  0
  139.8300   76.9310  222.2350 O   0  0  0  0  0  0  0  0  0  0  0  0
  141.2170   75.1730  221.4400 C   0  0  0  0  0  0  0  0  0  0  0  0
  142.4530   74.8730  220.8640 C   0  0  0  0  0  0  0  0  0  0  0  0
  142.7900   73.5590  220.6110 C   0  0  0  0  0  0  0  0  0  0  0  0
  140.3540   74.1450  221.7440 C   0  0  0  0  0  0  0  0  0  0  0  0
  144.8230   74.1370  219.7500 O   0  0  0  0  0  0  0  0  0  0  0  0
  144.3560   71.9360  219.7870 N   0  0  0  0  0  0  0  0  0  0  0  0
  145.5510   71.6580  219.2360 C   0  0  0  0  0  0  0  0  0  0  0  0
  145.9150   70.3490  218.9750 C   0  0  0  0  0  0  0  0  0  0  0  0
  145.0210   69.3280  219.2940 C   0  0  0  0  0  0  0  0  0  0  0  0
  143.8000   69.6710  219.8610 C   0  0  0  0  0  0  0  0  0  0  0  0
  143.4550   70.9940  220.1150 C   0  0  0  0  0  0  0  0  0  0  0  0
  142.2690   71.3010  220.6670 N   0  0  0  0  0  0  0  0  0  0  0  0
  141.8880   72.5560  220.9340 C   0  0  0  0  0  0  0  0  0  0  0  0
  140.6770   72.8480  221.4980 N   0  0  0  0  0  0  0  0  0  0  0  0
  139.7650   71.7980  221.8250 C   0  0  0  0  0  0  0  0  0  0  0  0
  140.1500   70.9690  223.0170 C   0  0  0  0  0  0  0  0  0  0  0  0
  139.2290   69.8120  223.2810 C   0  0  0  0  0  0  0  0  0  0  0  0
  140.3550   71.8170  224.2480 C   0  0  0  0  0  0  0  0  0  0  0  0
  144.0030   73.2210  220.0440 C   0  0  0  0  0  0  0  0  0  0  0  0
  139.2130   74.4610  222.2800 N   0  0  0  0  0  0  0  0  0  0  0  0
  139.0203   80.5846  224.8101 H   0  0  0  0  0  0  0  0  0  0  0  0
  139.6174   81.2579  223.2555 H   0  0  0  0  0  0  0  0  0  0  0  0
  138.5126   79.8416  223.2555 H   0  0  0  0  0  0  0  0  0  0  0  0
  140.5295   78.8817  224.8085 H   0  0  0  0  0  0  0  0  0  0  0  0
  140.4502   78.6932  223.0089 H   0  0  0  0  0  0  0  0  0  0  0  0
  141.6470   81.2549  223.6219 H   0  0  0  0  0  0  0  0  0  0  0  0
  142.4962   80.0008  224.5650 H   0  0  0  0  0  0  0  0  0  0  0  0
  142.9530   80.5665  221.9224 H   0  0  0  0  0  0  0  0  0  0  0  0
  143.2916   78.9733  222.7310 H   0  0  0  0  0  0  0  0  0  0  0  0
  140.5583   79.1272  221.9284 H   0  0  0  0  0  0  0  0  0  0  0  0
  141.7130   79.4902  220.5374 H   0  0  0  0  0  0  0  0  0  0  0  0
  142.7200   77.3010  220.8530 H   0  0  0  0  0  0  0  0  0  0  0  0
  143.1556   75.6812  220.6128 H   0  0  0  0  0  0  0  0  0  0  0  0
  146.2435   72.4768  218.9912 H   0  0  0  0  0  0  0  0  0  0  0  0
  146.8915   70.1182  218.5243 H   0  0  0  0  0  0  0  0  0  0  0  0
  145.2764   68.2756  219.1013 H   0  0  0  0  0  0  0  0  0  0  0  0
  143.0862   68.8739  220.1161 H   0  0  0  0  0  0  0  0  0  0  0  0
  138.7828   72.2501  222.0271 H   0  0  0  0  0  0  0  0  0  0  0  0
  139.7630   71.1141  220.9635 H   0  0  0  0  0  0  0  0  0  0  0  0
  141.1176   70.5156  222.7557 H   0  0  0  0  0  0  0  0  0  0  0  0
  139.1177   69.6722  224.3664 H   0  0  0  0  0  0  0  0  0  0  0  0
  138.2447   70.0176  222.8350 H   0  0  0  0  0  0  0  0  0  0  0  0
  139.6501   68.8989  222.8350 H   0  0  0  0  0  0  0  0  0  0  0  0
  140.2060   71.2006  225.1468 H   0  0  0  0  0  0  0  0  0  0  0  0
  141.3772   72.2233  224.2473 H   0  0  0  0  0  0  0  0  0  0  0  0
  139.6312   72.6454  224.2473 H   0  0  0  0  0  0  0  0  0  0  0  0
  139.1490   75.0740  223.1020 H   0  0  0  0  0  0  0  0  0  0  0  0
  1  2  1  0
  2  3  1  0
  3  4  1  0
  4  5  1  0
  5  6  1  0
  6  7  1  0
  7  8  2  0
  7  9  1  0
  9 10  2  0
 10 11  1  0
 11 12  1  0
 12 13  2  0
 12 14  1  0
 14 15  1  0
 15 16  2  0
 16 17  1  0
 17 18  2  0
 18 19  1  0
 19 20  2  0
 20 21  1  0
 21 22  1  0
 22 23  1  0
 23 24  1  0
 24 25  1  0
 24 26  1  0
 22 27  1  0
 27 28  2  3
 27  9  1  0
 21 11  2  0
 19 14  1  0
  1 29  1  0
  1 30  1  0
  1 31  1  0
  2 32  1  0
  2 33  1  0
  3 34  1  0
  3 35  1  0
  4 36  1  0
  4 37  1  0
  5 38  1  0
  5 39  1  0
  6 40  1  0
 10 41  1  0
 15 42  1  0
 16 43  1  0
 17 44  1  0
 18 45  1  0
 23 46  1  0
 23 47  1  0
 24 48  1  0
 25 49  1  0
 25 50  1  0
 25 51  1  0
 26 52  1  0
 26 53  1  0
 26 54  1  0
 28 55  1  0
M  END
>  <smiles>  (1) 
CCCCCNC(=O)c1cc2c(=O)n3ccccc3nc2n(CC(C)C)c1=N

>  <score_type>  (1) 
oracle

>  <origin>  (1) 
autodockgpu

>  <m_score__min__energy>  (1) 
-6.6200000000000001

>  <m_primary>  (1) 
energy

>  <meeko>  (1) 
{"free_energy": -6.37, "intermolecular_energy": -8.76, "internal_energy": -1.31, "cluster_size": 7, "cluster_id": 2, "rank_in_cluster": 6}

>  <energy>  (1) 
-6.62

>  <cluster_rmsd>  (1) 
0.0

>  <rmsd>  (1) 
271.62

>  <cluster>  (1) 
1

$$$$

     RDKit          3D

 55 57  0  0  0  0  0  0  0  0999 V2000
  141.0630   71.8860  227.2140 C   0  0  0  0  0  0  0  0  0  0  0  0
  141.2210   71.1100  225.9260 C   0  0  0  0  0  0  0  0  0  0  0  0
  140.0940   71.4310  224.9370 C   0  0  0  0  0  0  0  0  0  0  0  0
  140.7000   71.5420  223.5730 C   0  0  0  0  0  0  0  0  0  0  0  0
  139.7240   72.0190  222.5550 C   0  0  0  0  0  0  0  0  0  0  0  0
  139.7090   73.4340  222.3240 N   0  0  0  0  0  0  0  0  0  0  0  0
  140.6790   74.1450  221.5860 C   0  0  0  0  0  0  0  0  0  0  0  0
  141.6410   73.4600  221.0940 O   0  0  0  0  0  0  0  0  0  0  0  0
  140.6120   75.5840  221.3790 C   0  0  0  0  0  0  0  0  0  0  0  0
  141.4080   76.1120  220.3610 C   0  0  0  0  0  0  0  0  0  0  0  0
  141.3930   77.4700  220.1150 C   0  0  0  0  0  0  0  0  0  0  0  0
  139.8240   76.4340  222.1210 C   0  0  0  0  0  0  0  0  0  0  0  0
  142.9030   77.2850  218.4130 O   0  0  0  0  0  0  0  0  0  0  0  0
  142.1650   79.3640  218.8570 N   0  0  0  0  0  0  0  0  0  0  0  0
  142.9330   79.8620  217.8710 C   0  0  0  0  0  0  0  0  0  0  0  0
  142.9340   81.2190  217.6010 C   0  0  0  0  0  0  0  0  0  0  0  0
  142.1260   82.0560  218.3690 C   0  0  0  0  0  0  0  0  0  0  0  0
  141.3530   81.4890  219.3740 C   0  0  0  0  0  0  0  0  0  0  0  0
  141.3680   80.1220  219.6280 C   0  0  0  0  0  0  0  0  0  0  0  0
  140.6090   79.5960  220.6050 N   0  0  0  0  0  0  0  0  0  0  0  0
  140.5840   78.2880  220.8890 C   0  0  0  0  0  0  0  0  0  0  0  0
  139.8030   77.7720  221.8860 N   0  0  0  0  0  0  0  0  0  0  0  0
  138.9750   78.6330  222.6690 C   0  0  0  0  0  0  0  0  0  0  0  0
  139.7100   79.5050  223.6470 C   0  0  0  0  0  0  0  0  0  0  0  0
  139.6410   80.9730  223.3310 C   0  0  0  0  0  0  0  0  0  0  0  0
  141.1310   79.0420  223.8550 C   0  0  0  0  0  0  0  0  0  0  0  0
  142.1650   78.0320  219.1170 C   0  0  0  0  0  0  0  0  0  0  0  0
  139.0950   75.9070  223.0600 N   0  0  0  0  0  0  0  0  0  0  0  0
  141.2009   71.2085  228.0695 H   0  0  0  0  0  0  0  0  0  0  0  0
  141.8167   72.6862  227.2548 H   0  0  0  0  0  0  0  0  0  0  0  0
  140.0565   72.3279  227.2548 H   0  0  0  0  0  0  0  0  0  0  0  0
  142.1856   71.3718  225.4666 H   0  0  0  0  0  0  0  0  0  0  0  0
  141.1792   70.0363  226.1616 H   0  0  0  0  0  0  0  0  0  0  0  0
  139.3448   70.6257  224.9492 H   0  0  0  0  0  0  0  0  0  0  0  0
  139.5962   72.3720  225.2140 H   0  0  0  0  0  0  0  0  0  0  0  0
  141.5400   72.2509  223.6163 H   0  0  0  0  0  0  0  0  0  0  0  0
  141.0345   70.5382  223.2721 H   0  0  0  0  0  0  0  0  0  0  0  0
  139.9602   71.5233  221.6018 H   0  0  0  0  0  0  0  0  0  0  0  0
  138.7293   71.7693  222.9527 H   0  0  0  0  0  0  0  0  0  0  0  0
  138.9190   74.0220  222.7290 H   0  0  0  0  0  0  0  0  0  0  0  0
  142.0446   75.4484  219.7573 H   0  0  0  0  0  0  0  0  0  0  0  0
  143.5642   79.1859  217.2756 H   0  0  0  0  0  0  0  0  0  0  0  0
  143.5606   81.6296  216.7955 H   0  0  0  0  0  0  0  0  0  0  0  0
  142.1012   83.1400  218.1835 H   0  0  0  0  0  0  0  0  0  0  0  0
  140.7110   82.1395  219.9861 H   0  0  0  0  0  0  0  0  0  0  0  0
  138.4166   79.2862  221.9824 H   0  0  0  0  0  0  0  0  0  0  0  0
  138.3290   77.9753  223.2692 H   0  0  0  0  0  0  0  0  0  0  0  0
  139.1741   79.3873  224.6004 H   0  0  0  0  0  0  0  0  0  0  0  0
  139.6139   81.5489  224.2678 H   0  0  0  0  0  0  0  0  0  0  0  0
  140.5264   81.2644  222.7470 H   0  0  0  0  0  0  0  0  0  0  0  0
  138.7321   81.1800  222.7470 H   0  0  0  0  0  0  0  0  0  0  0  0
  141.3404   78.9738  224.9327 H   0  0  0  0  0  0  0  0  0  0  0  0
  141.2660   78.0534  223.3919 H   0  0  0  0  0  0  0  0  0  0  0  0
  141.8225   79.7613  223.3919 H   0  0  0  0  0  0  0  0  0  0  0  0
  139.3710   75.0410  223.5400 H   0  0  0  0  0  0  0  0  0  0  0  0
  1  2  1  0
  2  3  1  0
  3  4  1  0
  4  5  1  0
  5  6  1  0
  6  7  1  0
  7  8  2  0
  7  9  1  0
  9 10  2  0
 10 11  1  0
 11 12  1  0
 12 13  2  0
 12 14  1  0
 14 15  1  0
 15 16  2  0
 16 17  1  0
 17 18  2  0
 18 19  1  0
 19 20  2  0
 20 21  1  0
 21 22  1  0
 22 23  1  0
 23 24  1  0
 24 25  1  0
 24 26  1  0
 22 27  1  0
 27 28  2  3
 27  9  1  0
 21 11  2  0
 19 14  1  0
  1 29  1  0
  1 30  1  0
  1 31  1  0
  2 32  1  0
  2 33  1  0
  3 34  1  0
  3 35  1  0
  4 36  1  0
  4 37  1  0
  5 38  1  0
  5 39  1  0
  6 40  1  0
 10 41  1  0
 15 42  1  0
 16 43  1  0
 17 44  1  0
 18 45  1  0
 23 46  1  0
 23 47  1  0
 24 48  1  0
 25 49  1  0
 25 50  1  0
 25 51  1  0
 26 52  1  0
 26 53  1  0
 26 54  1  0
 28 55  1  0
M  END
>  <smiles>  (2) 
CCCCCNC(=O)c1cc2c(=O)n3ccccc3nc2n(CC(C)C)c1=N

>  <score_type>  (2) 
oracle

>  <origin>  (2) 
autodockgpu

>  <m_score__min__energy>  (2) 
-6.6200000000000001

>  <m_primary>  (2) 
energy

>  <meeko>  (2) 
{"free_energy": -6.56, "intermolecular_energy": -8.94, "internal_energy": -1.17, "cluster_size": 6, "cluster_id": 1, "rank_in_cluster": 4}

>  <energy>  (2) 
-6.58

>  <cluster_rmsd>  (2) 
0.1

>  <rmsd>  (2) 
271.61

>  <cluster>  (2) 
1

$$$$

     RDKit          3D

 55 57  0  0  0  0  0  0  0  0999 V2000
  146.4800   73.3870  221.9690 C   0  0  0  0  0  0  0  0  0  0  0  0
  145.9780   73.5540  220.5530 C   0  0  0  0  0  0  0  0  0  0  0  0
  144.5620   74.1440  220.5260 C   0  0  0  0  0  0  0  0  0  0  0  0
  143.5930   73.0050  220.4570 C   0  0  0  0  0  0  0  0  0  0  0  0
  142.3180   73.3860  219.7890 C   0  0  0  0  0  0  0  0  0  0  0  0
  141.8380   74.7070  220.0730 N   0  0  0  0  0  0  0  0  0  0  0  0
  141.0350   75.0560  221.1790 C   0  0  0  0  0  0  0  0  0  0  0  0
  140.7150   74.1100  221.9780 O   0  0  0  0  0  0  0  0  0  0  0  0
  140.5790   76.4170  221.4230 C   0  0  0  0  0  0  0  0  0  0  0  0
  139.3440   76.5650  222.0570 C   0  0  0  0  0  0  0  0  0  0  0  0
  138.8530   77.8280  222.3140 C   0  0  0  0  0  0  0  0  0  0  0  0
  141.2860   77.5420  221.0660 C   0  0  0  0  0  0  0  0  0  0  0  0
  136.9570   77.0090  223.2830 O   0  0  0  0  0  0  0  0  0  0  0  0
  137.1350   79.2500  223.2040 N   0  0  0  0  0  0  0  0  0  0  0  0
  135.9460   79.3810  223.8190 C   0  0  0  0  0  0  0  0  0  0  0  0
  135.4330   80.6360  224.0920 C   0  0  0  0  0  0  0  0  0  0  0  0
  136.1700   81.7580  223.7180 C   0  0  0  0  0  0  0  0  0  0  0  0
  137.3930   81.5660  223.0870 C   0  0  0  0  0  0  0  0  0  0  0  0
  137.8890   80.2940  222.8210 C   0  0  0  0  0  0  0  0  0  0  0  0
  139.0750   80.1330  222.2110 N   0  0  0  0  0  0  0  0  0  0  0  0
  139.6010   78.9340  221.9350 C   0  0  0  0  0  0  0  0  0  0  0  0
  140.8110   78.7910  221.3150 N   0  0  0  0  0  0  0  0  0  0  0  0
  141.5650   79.9440  220.9350 C   0  0  0  0  0  0  0  0  0  0  0  0
  142.2190   80.6770  222.0710 C   0  0  0  0  0  0  0  0  0  0  0  0
  142.4990   79.8200  223.2730 C   0  0  0  0  0  0  0  0  0  0  0  0
  141.4630   81.9310  222.4390 C   0  0  0  0  0  0  0  0  0  0  0  0
  137.6370   78.0170  222.9400 C   0  0  0  0  0  0  0  0  0  0  0  0
  142.4320   77.3670  220.4780 N   0  0  0  0  0  0  0  0  0  0  0  0
  145.6799   73.6532  222.6754 H   0  0  0  0  0  0  0  0  0  0  0  0
  146.7792   72.3409  222.1310 H   0  0  0  0  0  0  0  0  0  0  0  0
  147.3462   74.0454  222.1310 H   0  0  0  0  0  0  0  0  0  0  0  0
  146.6568   74.2281  220.0100 H   0  0  0  0  0  0  0  0  0  0  0  0
  145.9487   72.5626  220.0773 H   0  0  0  0  0  0  0  0  0  0  0  0
  144.3841   74.7319  221.4385 H   0  0  0  0  0  0  0  0  0  0  0  0
  144.4384   74.8068  219.6569 H   0  0  0  0  0  0  0  0  0  0  0  0
  144.0552   72.1813  219.8931 H   0  0  0  0  0  0  0  0  0  0  0  0
  143.3552   72.7032  221.4877 H   0  0  0  0  0  0  0  0  0  0  0  0
  142.4692   73.3077  218.7023 H   0  0  0  0  0  0  0  0  0  0  0  0
  141.5555   72.6985  220.1838 H   0  0  0  0  0  0  0  0  0  0  0  0
  142.0890   75.5080  219.4170 H   0  0  0  0  0  0  0  0  0  0  0  0
  138.7645   75.6773  222.3506 H   0  0  0  0  0  0  0  0  0  0  0  0
  135.3779   78.4841  224.1067 H   0  0  0  0  0  0  0  0  0  0  0  0
  134.4611   80.7465  224.5951 H   0  0  0  0  0  0  0  0  0  0  0  0
  135.7925   82.7717  223.9176 H   0  0  0  0  0  0  0  0  0  0  0  0
  137.9852   82.4440  222.7897 H   0  0  0  0  0  0  0  0  0  0  0  0
  142.3528   79.6222  220.2380 H   0  0  0  0  0  0  0  0  0  0  0  0
  140.8471   80.6473  220.4879 H   0  0  0  0  0  0  0  0  0  0  0  0
  143.2072   80.9773  221.6924 H   0  0  0  0  0  0  0  0  0  0  0  0
  142.3097   80.3995  224.1886 H   0  0  0  0  0  0  0  0  0  0  0  0
  141.8424   78.9376  223.2552 H   0  0  0  0  0  0  0  0  0  0  0  0
  143.5499   79.4955  223.2552 H   0  0  0  0  0  0  0  0  0  0  0  0
  141.4099   82.0191  223.5342 H   0  0  0  0  0  0  0  0  0  0  0  0
  141.9833   82.8075  222.0255 H   0  0  0  0  0  0  0  0  0  0  0  0
  140.4450   81.8801  222.0255 H   0  0  0  0  0  0  0  0  0  0  0  0
  143.3210   77.6010  220.9400 H   0  0  0  0  0  0  0  0  0  0  0  0
  1  2  1  0
  2  3  1  0
  3  4  1  0
  4  5  1  0
  5  6  1  0
  6  7  1  0
  7  8  2  0
  7  9  1  0
  9 10  2  0
 10 11  1  0
 11 12  1  0
 12 13  2  0
 12 14  1  0
 14 15  1  0
 15 16  2  0
 16 17  1  0
 17 18  2  0
 18 19  1  0
 19 20  2  0
 20 21  1  0
 21 22  1  0
 22 23  1  0
 23 24  1  0
 24 25  1  0
 24 26  1  0
 22 27  1  0
 27 28  2  3
 27  9  1  0
 21 11  2  0
 19 14  1  0
  1 29  1  0
  1 30  1  0
  1 31  1  0
  2 32  1  0
  2 33  1  0
  3 34  1  0
  3 35  1  0
  4 36  1  0
  4 37  1  0
  5 38  1  0
  5 39  1  0
  6 40  1  0
 10 41  1  0
 15 42  1  0
 16 43  1  0
 17 44  1  0
 18 45  1  0
 23 46  1  0
 23 47  1  0
 24 48  1  0
 25 49  1  0
 25 50  1  0
 25 51  1  0
 26 52  1  0
 26 53  1  0
 26 54  1  0
 28 55  1  0
M  END
>  <smiles>  (3) 
CCCCCNC(=O)c1cc2c(=O)n3ccccc3nc2n(CC(C)C)c1=N

>  <score_type>  (3) 
oracle

>  <origin>  (3) 
autodockgpu

>  <m_score__min__energy>  (3) 
-6.6200000000000001

>  <m_primary>  (3) 
energy

>  <meeko>  (3) 
{"free_energy": -6.13, "intermolecular_energy": -8.52, "internal_energy": -1.43, "cluster_size": 1, "cluster_id": 5, "rank_in_cluster": 1}

>  <energy>  (3) 
-6.58

>  <cluster_rmsd>  (3) 
0.52

>  <rmsd>  (3) 
271.57

>  <cluster>  (3) 
1

$$$$

     RDKit          3D

 55 57  0  0  0  0  0  0  0  0999 V2000
  142.5940   81.2770  224.1940 C   0  0  0  0  0  0  0  0  0  0  0  0
  142.7400   80.1440  223.2050 C   0  0  0  0  0  0  0  0  0  0  0  0
  142.2110   80.5360  221.8200 C   0  0  0  0  0  0  0  0  0  0  0  0
  141.0080   79.6930  221.5340 C   0  0  0  0  0  0  0  0  0  0  0  0
  140.7470   78.6930  222.6070 C   0  0  0  0  0  0  0  0  0  0  0  0
  141.1310   77.3450  222.3060 N   0  0  0  0  0  0  0  0  0  0  0  0
  140.2450   76.3190  221.9120 C   0  0  0  0  0  0  0  0  0  0  0  0
  139.0080   76.6310  221.8260 O   0  0  0  0  0  0  0  0  0  0  0  0
  140.6910   74.9660  221.6140 C   0  0  0  0  0  0  0  0  0  0  0  0
  141.9700   74.8270  221.0720 C   0  0  0  0  0  0  0  0  0  0  0  0
  142.4510   73.5710  220.7640 C   0  0  0  0  0  0  0  0  0  0  0  0
  139.9310   73.8390  221.8310 C   0  0  0  0  0  0  0  0  0  0  0  0
  144.4390   74.4020  220.0140 O   0  0  0  0  0  0  0  0  0  0  0  0
  144.2040   72.1660  219.9190 N   0  0  0  0  0  0  0  0  0  0  0  0
  145.4400   72.0440  219.4010 C   0  0  0  0  0  0  0  0  0  0  0  0
  145.9470   70.7960  219.0870 C   0  0  0  0  0  0  0  0  0  0  0  0
  145.1560   69.6720  219.3170 C   0  0  0  0  0  0  0  0  0  0  0  0
  143.8870   69.8550  219.8540 C   0  0  0  0  0  0  0  0  0  0  0  0
  143.3970   71.1200  220.1620 C   0  0  0  0  0  0  0  0  0  0  0  0
  142.1680   71.2720  220.6830 N   0  0  0  0  0  0  0  0  0  0  0  0
  141.6490   72.4640  221.0000 C   0  0  0  0  0  0  0  0  0  0  0  0
  140.3960   72.5980  221.5310 N   0  0  0  0  0  0  0  0  0  0  0  0
  139.5880   71.4430  221.7670 C   0  0  0  0  0  0  0  0  0  0  0  0
  139.4180   71.0720  223.2120 C   0  0  0  0  0  0  0  0  0  0  0  0
  140.5420   71.5310  224.0980 C   0  0  0  0  0  0  0  0  0  0  0  0
  139.1320   69.6000  223.3840 C   0  0  0  0  0  0  0  0  0  0  0  0
  143.7100   73.3920  220.2280 C   0  0  0  0  0  0  0  0  0  0  0  0
  138.7450   74.0050  222.3380 N   0  0  0  0  0  0  0  0  0  0  0  0
  142.6453   80.8787  225.2181 H   0  0  0  0  0  0  0  0  0  0  0  0
  143.4060   82.0034  224.0420 H   0  0  0  0  0  0  0  0  0  0  0  0
  141.6244   81.7738  224.0420 H   0  0  0  0  0  0  0  0  0  0  0  0
  143.8042   79.8790  223.1194 H   0  0  0  0  0  0  0  0  0  0  0  0
  142.1520   79.2890  223.5700 H   0  0  0  0  0  0  0  0  0  0  0  0
  141.9323   81.6001  221.8134 H   0  0  0  0  0  0  0  0  0  0  0  0
  142.9838   80.3749  221.0540 H   0  0  0  0  0  0  0  0  0  0  0  0
  140.1303   80.3496  221.4420 H   0  0  0  0  0  0  0  0  0  0  0  0
  141.1987   79.1420  220.6013 H   0  0  0  0  0  0  0  0  0  0  0  0
  141.2980   79.0090  223.5051 H   0  0  0  0  0  0  0  0  0  0  0  0
  139.6551   78.6719  222.7386 H   0  0  0  0  0  0  0  0  0  0  0  0
  142.1560   77.0640  222.3770 H   0  0  0  0  0  0  0  0  0  0  0  0
  142.5923   75.7159  220.8911 H   0  0  0  0  0  0  0  0  0  0  0  0
  146.0507   72.9421  219.2263 H   0  0  0  0  0  0  0  0  0  0  0  0
  146.9568   70.6926  218.6632 H   0  0  0  0  0  0  0  0  0  0  0  0
  145.5270   68.6641  219.0793 H   0  0  0  0  0  0  0  0  0  0  0  0
  143.2530   68.9756  220.0405 H   0  0  0  0  0  0  0  0  0  0  0  0
  138.5905   71.6321  221.3436 H   0  0  0  0  0  0  0  0  0  0  0  0
  140.1112   70.5997  221.2926 H   0  0  0  0  0  0  0  0  0  0  0  0
  138.5330   71.6291  223.5532 H   0  0  0  0  0  0  0  0  0  0  0  0
  140.2502   71.4119  225.1519 H   0  0  0  0  0  0  0  0  0  0  0  0
  141.4387   70.9270  223.8953 H   0  0  0  0  0  0  0  0  0  0  0  0
  140.7597   72.5900  223.8953 H   0  0  0  0  0  0  0  0  0  0  0  0
  139.0851   69.3584  224.4561 H   0  0  0  0  0  0  0  0  0  0  0  0
  138.1696   69.3557  222.9106 H   0  0  0  0  0  0  0  0  0  0  0  0
  139.9329   69.0131  222.9106 H   0  0  0  0  0  0  0  0  0  0  0  0
  138.5080   74.8260  222.9100 H   0  0  0  0  0  0  0  0  0  0  0  0
  1  2  1  0
  2  3  1  0
  3  4  1  0
  4  5  1  0
  5  6  1  0
  6  7  1  0
  7  8  2  0
  7  9  1  0
  9 10  2  0
 10 11  1  0
 11 12  1  0
 12 13  2  0
 12 14  1  0
 14 15  1  0
 15 16  2  0
 16 17  1  0
 17 18  2  0
 18 19  1  0
 19 20  2  0
 20 21  1  0
 21 22  1  0
 22 23  1  0
 23 24  1  0
 24 25  1  0
 24 26  1  0
 22 27  1  0
 27 28  2  3
 27  9  1  0
 21 11  2  0
 19 14  1  0
  1 29  1  0
  1 30  1  0
  1 31  1  0
  2 32  1  0
  2 33  1  0
  3 34  1  0
  3 35  1  0
  4 36  1  0
  4 37  1  0
  5 38  1  0
  5 39  1  0
  6 40  1  0
 10 41  1  0
 15 42  1  0
 16 43  1  0
 17 44  1  0
 18 45  1  0
 23 46  1  0
 23 47  1  0
 24 48  1  0
 25 49  1  0
 25 50  1  0
 25 51  1  0
 26 52  1  0
 26 53  1  0
 26 54  1  0
 28 55  1  0
M  END
>  <smiles>  (4) 
CCCCCNC(=O)c1cc2c(=O)n3ccccc3nc2n(CC(C)C)c1=N

>  <score_type>  (4) 
oracle

>  <origin>  (4) 
autodockgpu

>  <m_score__min__energy>  (4) 
-6.6200000000000001

>  <m_primary>  (4) 
energy

>  <meeko>  (4) 
{"free_energy": -6.26, "intermolecular_energy": -8.65, "internal_energy": -1.26, "cluster_size": 7, "cluster_id": 2, "rank_in_cluster": 7}

>  <energy>  (4) 
-6.56

>  <cluster_rmsd>  (4) 
0.25

>  <rmsd>  (4) 
271.62

>  <cluster>  (4) 
1

$$$$

     RDKit          3D

 55 57  0  0  0  0  0  0  0  0999 V2000
  146.3270   73.3500  221.6060 C   0  0  0  0  0  0  0  0  0  0  0  0
  145.1160   73.7810  220.8120 C   0  0  0  0  0  0  0  0  0  0  0  0
  144.6720   72.6910  219.8280 C   0  0  0  0  0  0  0  0  0  0  0  0
  143.7770   71.7450  220.5660 C   0  0  0  0  0  0  0  0  0  0  0  0
  142.3510   72.1740  220.5370 C   0  0  0  0  0  0  0  0  0  0  0  0
  142.1310   73.5900  220.4590 N   0  0  0  0  0  0  0  0  0  0  0  0
  141.1910   74.3060  221.2300 C   0  0  0  0  0  0  0  0  0  0  0  0
  140.4880   73.6280  222.0540 O   0  0  0  0  0  0  0  0  0  0  0  0
  141.0110   75.7460  221.1120 C   0  0  0  0  0  0  0  0  0  0  0  0
  141.7470   76.3950  220.1190 C   0  0  0  0  0  0  0  0  0  0  0  0
  141.6240   77.7600  219.9570 C   0  0  0  0  0  0  0  0  0  0  0  0
  140.1730   76.4860  221.9150 C   0  0  0  0  0  0  0  0  0  0  0  0
  143.1140   77.7950  218.2290 O   0  0  0  0  0  0  0  0  0  0  0  0
  142.2270   79.7800  218.8090 N   0  0  0  0  0  0  0  0  0  0  0  0
  142.9370   80.3950  217.8460 C   0  0  0  0  0  0  0  0  0  0  0  0
  142.8300   81.7610  217.6610 C   0  0  0  0  0  0  0  0  0  0  0  0
  141.9730   82.4860  218.4880 C   0  0  0  0  0  0  0  0  0  0  0  0
  141.2630   81.8010  219.4660 C   0  0  0  0  0  0  0  0  0  0  0  0
  141.3870   80.4260  219.6350 C   0  0  0  0  0  0  0  0  0  0  0  0
  140.6880   79.7850  220.5870 N   0  0  0  0  0  0  0  0  0  0  0  0
  140.7670   78.4650  220.7900 C   0  0  0  0  0  0  0  0  0  0  0  0
  140.0450   77.8300  221.7640 N   0  0  0  0  0  0  0  0  0  0  0  0
  139.1670   78.5760  222.6080 C   0  0  0  0  0  0  0  0  0  0  0  0
  139.8490   79.4150  223.6510 C   0  0  0  0  0  0  0  0  0  0  0  0
  139.6800   80.8950  223.4510 C   0  0  0  0  0  0  0  0  0  0  0  0
  141.2990   79.0330  223.8200 C   0  0  0  0  0  0  0  0  0  0  0  0
  142.3330   78.4390  218.9870 C   0  0  0  0  0  0  0  0  0  0  0  0
  139.5030   75.8480  222.8290 N   0  0  0  0  0  0  0  0  0  0  0  0
  146.1074   73.4281  222.6810 H   0  0  0  0  0  0  0  0  0  0  0  0
  146.5765   72.3079  221.3575 H   0  0  0  0  0  0  0  0  0  0  0  0
  147.1788   74.0002  221.3575 H   0  0  0  0  0  0  0  0  0  0  0  0
  144.2900   73.9933  221.5068 H   0  0  0  0  0  0  0  0  0  0  0  0
  145.3830   74.6788  220.2352 H   0  0  0  0  0  0  0  0  0  0  0  0
  144.1254   73.1451  218.9883 H   0  0  0  0  0  0  0  0  0  0  0  0
  145.5459   72.1579  219.4254 H   0  0  0  0  0  0  0  0  0  0  0  0
  143.8562   70.7501  220.1035 H   0  0  0  0  0  0  0  0  0  0  0  0
  144.1009   71.7274  221.6171 H   0  0  0  0  0  0  0  0  0  0  0  0
  141.8754   71.7088  219.6610 H   0  0  0  0  0  0  0  0  0  0  0  0
  141.9212   71.8552  221.4981 H   0  0  0  0  0  0  0  0  0  0  0  0
  142.7030   74.1710  219.7750 H   0  0  0  0  0  0  0  0  0  0  0  0
  142.4225   75.8205  219.4681 H   0  0  0  0  0  0  0  0  0  0  0  0
  143.6071   79.8072  217.2015 H   0  0  0  0  0  0  0  0  0  0  0  0
  143.4106   82.2667  216.8754 H   0  0  0  0  0  0  0  0  0  0  0  0
  141.8618   83.5739  218.3690 H   0  0  0  0  0  0  0  0  0  0  0  0
  140.5838   82.3616  220.1251 H   0  0  0  0  0  0  0  0  0  0  0  0
  138.5675   79.2436  221.9716 H   0  0  0  0  0  0  0  0  0  0  0  0
  138.5643   77.8360  223.1549 H   0  0  0  0  0  0  0  0  0  0  0  0
  139.3293   79.1870  224.5933 H   0  0  0  0  0  0  0  0  0  0  0  0
  139.6231   81.3932  224.4301 H   0  0  0  0  0  0  0  0  0  0  0  0
  140.5389   81.2894  222.8883 H   0  0  0  0  0  0  0  0  0  0  0  0
  138.7542   81.0856  222.8883 H   0  0  0  0  0  0  0  0  0  0  0  0
  141.5390   78.9698  224.8916 H   0  0  0  0  0  0  0  0  0  0  0  0
  141.4787   78.0569  223.3458 H   0  0  0  0  0  0  0  0  0  0  0  0
  141.9363   79.7939  223.3458 H   0  0  0  0  0  0  0  0  0  0  0  0
  139.5650   74.8280  222.9360 H   0  0  0  0  0  0  0  0  0  0  0  0
  1  2  1  0
  2  3  1  0
  3  4  1  0
  4  5  1  0
  5  6  1  0
  6  7  1  0
  7  8  2  0
  7  9  1  0
  9 10  2  0
 10 11  1  0
 11 12  1  0
 12 13  2  0
 12 14  1  0
 14 15  1  0
 15 16  2  0
 16 17  1  0
 17 18  2  0
 18 19  1  0
 19 20  2  0
 20 21  1  0
 21 22  1  0
 22 23  1  0
 23 24  1  0
 24 25  1  0
 24 26  1  0
 22 27  1  0
 27 28  2  3
 27  9  1  0
 21 11  2  0
 19 14  1  0
  1 29  1  0
  1 30  1  0
  1 31  1  0
  2 32  1  0
  2 33  1  0
  3 34  1  0
  3 35  1  0
  4 36  1  0
  4 37  1  0
  5 38  1  0
  5 39  1  0
  6 40  1  0
 10 41  1  0
 15 42  1  0
 16 43  1  0
 17 44  1  0
 18 45  1  0
 23 46  1  0
 23 47  1  0
 24 48  1  0
 25 49  1  0
 25 50  1  0
 25 51  1  0
 26 52  1  0
 26 53  1  0
 26 54  1  0
 28 55  1  0
M  END
>  <smiles>  (5) 
CCCCCNC(=O)c1cc2c(=O)n3ccccc3nc2n(CC(C)C)c1=N

>  <score_type>  (5) 
oracle

>  <origin>  (5) 
autodockgpu

>  <m_score__min__energy>  (5) 
-6.6200000000000001

>  <m_primary>  (5) 
energy

>  <meeko>  (5) 
{"free_energy": -6.36, "intermolecular_energy": -8.74, "internal_energy": -1.41, "cluster_size": 4, "cluster_id": 4, "rank_in_cluster": 1}

>  <energy>  (5) 
-6.55

>  <cluster_rmsd>  (5) 
0.17

>  <rmsd>  (5) 
271.6

>  <cluster>  (5) 
1

$$$$

     RDKit          3D

 55 57  0  0  0  0  0  0  0  0999 V2000
  139.1910   80.4280  223.8240 C   0  0  0  0  0  0  0  0  0  0  0  0
  140.3270   79.4320  223.7740 C   0  0  0  0  0  0  0  0  0  0  0  0
  141.6860   80.1360  223.6760 C   0  0  0  0  0  0  0  0  0  0  0  0
  142.3830   79.6190  222.4570 C   0  0  0  0  0  0  0  0  0  0  0  0
  141.4560   78.9110  221.5310 C   0  0  0  0  0  0  0  0  0  0  0  0
  141.7270   77.5170  221.3260 N   0  0  0  0  0  0  0  0  0  0  0  0
  140.8610   76.4630  221.6850 C   0  0  0  0  0  0  0  0  0  0  0  0
  139.7560   76.7900  222.2390 O   0  0  0  0  0  0  0  0  0  0  0  0
  141.1850   75.0630  221.4490 C   0  0  0  0  0  0  0  0  0  0  0  0
  142.4170   74.7930  220.8520 C   0  0  0  0  0  0  0  0  0  0  0  0
  142.7840   73.4870  220.5990 C   0  0  0  0  0  0  0  0  0  0  0  0
  140.3550   74.0150  221.7760 C   0  0  0  0  0  0  0  0  0  0  0  0
  144.7840   74.1120  219.6960 O   0  0  0  0  0  0  0  0  0  0  0  0
  144.3750   71.9010  219.7530 N   0  0  0  0  0  0  0  0  0  0  0  0
  145.5660   71.6510  219.1810 C   0  0  0  0  0  0  0  0  0  0  0  0
  145.9590   70.3510  218.9190 C   0  0  0  0  0  0  0  0  0  0  0  0
  145.0990   69.3080  219.2600 C   0  0  0  0  0  0  0  0  0  0  0  0
  143.8810   69.6220  219.8490 C   0  0  0  0  0  0  0  0  0  0  0  0
  143.5050   70.9370  220.1020 C   0  0  0  0  0  0  0  0  0  0  0  0
  142.3230   71.2160  220.6760 N   0  0  0  0  0  0  0  0  0  0  0  0
  141.9150   72.4620  220.9440 C   0  0  0  0  0  0  0  0  0  0  0  0
  140.7070   72.7250  221.5300 N   0  0  0  0  0  0  0  0  0  0  0  0
  139.8290   71.6540  221.8790 C   0  0  0  0  0  0  0  0  0  0  0  0
  139.5030   71.5510  223.3420 C   0  0  0  0  0  0  0  0  0  0  0  0
  140.7040   71.3620  224.2250 C   0  0  0  0  0  0  0  0  0  0  0  0
  138.4400   70.5140  223.6090 C   0  0  0  0  0  0  0  0  0  0  0  0
  143.9940   73.1780  220.0100 C   0  0  0  0  0  0  0  0  0  0  0  0
  139.2160   74.3040  222.3310 N   0  0  0  0  0  0  0  0  0  0  0  0
  138.9412   80.6470  224.8727 H   0  0  0  0  0  0  0  0  0  0  0  0
  139.4946   81.3562  223.3179 H   0  0  0  0  0  0  0  0  0  0  0  0
  138.3104   80.0056  223.3179 H   0  0  0  0  0  0  0  0  0  0  0  0
  140.3064   78.8198  224.6876 H   0  0  0  0  0  0  0  0  0  0  0  0
  140.1975   78.8044  222.8799 H   0  0  0  0  0  0  0  0  0  0  0  0
  141.5390   81.2227  223.5902 H   0  0  0  0  0  0  0  0  0  0  0  0
  142.2872   79.9370  224.5754 H   0  0  0  0  0  0  0  0  0  0  0  0
  142.8366   80.4670  221.9229 H   0  0  0  0  0  0  0  0  0  0  0  0
  143.1445   78.8969  222.7867 H   0  0  0  0  0  0  0  0  0  0  0  0
  140.4378   79.0013  221.9374 H   0  0  0  0  0  0  0  0  0  0  0  0
  141.5882   79.3900  220.5496 H   0  0  0  0  0  0  0  0  0  0  0  0
  142.6440   77.2240  220.8710 H   0  0  0  0  0  0  0  0  0  0  0  0
  143.0932   75.6182  220.5840 H   0  0  0  0  0  0  0  0  0  0  0  0
  146.2324   72.4862  218.9196 H   0  0  0  0  0  0  0  0  0  0  0  0
  146.9323   70.1438  218.4502 H   0  0  0  0  0  0  0  0  0  0  0  0
  145.3784   68.2617  219.0672 H   0  0  0  0  0  0  0  0  0  0  0  0
  143.1942   68.8076  220.1232 H   0  0  0  0  0  0  0  0  0  0  0  0
  138.8868   71.7920  221.3284 H   0  0  0  0  0  0  0  0  0  0  0  0
  140.3569   70.7256  221.6157 H   0  0  0  0  0  0  0  0  0  0  0  0
  139.0917   72.5332  223.6179 H   0  0  0  0  0  0  0  0  0  0  0  0
  140.3950   71.4106  225.2796 H   0  0  0  0  0  0  0  0  0  0  0  0
  141.1585   70.3813  224.0209 H   0  0  0  0  0  0  0  0  0  0  0  0
  141.4377   72.1557  224.0209 H   0  0  0  0  0  0  0  0  0  0  0  0
  138.3130   70.3902  224.6946 H   0  0  0  0  0  0  0  0  0  0  0  0
  137.4888   70.8408  223.1635 H   0  0  0  0  0  0  0  0  0  0  0  0
  138.7432   69.5550  223.1635 H   0  0  0  0  0  0  0  0  0  0  0  0
  139.1510   74.9280  223.1450 H   0  0  0  0  0  0  0  0  0  0  0  0
  1  2  1  0
  2  3  1  0
  3  4  1  0
  4  5  1  0
  5  6  1  0
  6  7  1  0
  7  8  2  0
  7  9  1  0
  9 10  2  0
 10 11  1  0
 11 12  1  0
 12 13  2  0
 12 14  1  0
 14 15  1  0
 15 16  2  0
 16 17  1  0
 17 18  2  0
 18 19  1  0
 19 20  2  0
 20 21  1  0
 21 22  1  0
 22 23  1  0
 23 24  1  0
 24 25  1  0
 24 26  1  0
 22 27  1  0
 27 28  2  3
 27  9  1  0
 21 11  2  0
 19 14  1  0
  1 29  1  0
  1 30  1  0
  1 31  1  0
  2 32  1  0
  2 33  1  0
  3 34  1  0
  3 35  1  0
  4 36  1  0
  4 37  1  0
  5 38  1  0
  5 39  1  0
  6 40  1  0
 10 41  1  0
 15 42  1  0
 16 43  1  0
 17 44  1  0
 18 45  1  0
 23 46  1  0
 23 47  1  0
 24 48  1  0
 25 49  1  0
 25 50  1  0
 25 51  1  0
 26 52  1  0
 26 53  1  0
 26 54  1  0
 28 55  1  0
M  END
>  <smiles>  (6) 
CCCCCNC(=O)c1cc2c(=O)n3ccccc3nc2n(CC(C)C)c1=N

>  <score_type>  (6) 
oracle

>  <origin>  (6) 
autodockgpu

>  <m_score__min__energy>  (6) 
-6.6200000000000001

>  <m_primary>  (6) 
energy

>  <meeko>  (6) 
{"free_energy": -6.52, "intermolecular_energy": -8.91, "internal_energy": -1.23, "cluster_size": 7, "cluster_id": 2, "rank_in_cluster": 4}

>  <energy>  (6) 
-6.54

>  <cluster_rmsd>  (6) 
0.46

>  <rmsd>  (6) 
271.56

>  <cluster>  (6) 
1

$$$$

     RDKit          3D

 55 57  0  0  0  0  0  0  0  0999 V2000
  142.0410   79.3720  223.5220 C   0  0  0  0  0  0  0  0  0  0  0  0
  141.0330   78.7230  222.6020 C   0  0  0  0  0  0  0  0  0  0  0  0
  141.0590   77.1950  222.7310 C   0  0  0  0  0  0  0  0  0  0  0  0
  140.7850   76.6160  221.3780 C   0  0  0  0  0  0  0  0  0  0  0  0
  139.4890   75.8840  221.3270 C   0  0  0  0  0  0  0  0  0  0  0  0
  139.4420   74.6530  222.0610 N   0  0  0  0  0  0  0  0  0  0  0  0
  139.9250   73.4130  221.5940 C   0  0  0  0  0  0  0  0  0  0  0  0
  140.4390   73.4010  220.4220 O   0  0  0  0  0  0  0  0  0  0  0  0
  139.8560   72.1920  222.3840 C   0  0  0  0  0  0  0  0  0  0  0  0
  140.3080   72.2680  223.7030 C   0  0  0  0  0  0  0  0  0  0  0  0
  140.2720   71.1450  224.5040 C   0  0  0  0  0  0  0  0  0  0  0  0
  139.3800   70.9920  221.9080 C   0  0  0  0  0  0  0  0  0  0  0  0
  141.1540   72.2630  226.2880 O   0  0  0  0  0  0  0  0  0  0  0  0
  140.6820   70.0880  226.6210 N   0  0  0  0  0  0  0  0  0  0  0  0
  141.1160   70.1730  227.8910 C   0  0  0  0  0  0  0  0  0  0  0  0
  141.0880   69.0640  228.7170 C   0  0  0  0  0  0  0  0  0  0  0  0
  140.6010   67.8610  228.2080 C   0  0  0  0  0  0  0  0  0  0  0  0
  140.1650   67.8290  226.8900 C   0  0  0  0  0  0  0  0  0  0  0  0
  140.2030   68.9570  226.0760 C   0  0  0  0  0  0  0  0  0  0  0  0
  139.7730   68.9020  224.8050 N   0  0  0  0  0  0  0  0  0  0  0  0
  139.7850   69.9570  223.9810 C   0  0  0  0  0  0  0  0  0  0  0  0
  139.3410   69.8810  222.6900 N   0  0  0  0  0  0  0  0  0  0  0  0
  138.8410   68.6470  222.1730 C   0  0  0  0  0  0  0  0  0  0  0  0
  137.3450   68.5110  222.1870 C   0  0  0  0  0  0  0  0  0  0  0  0
  136.6990   68.9900  223.4560 C   0  0  0  0  0  0  0  0  0  0  0  0
  136.9040   67.1150  221.8240 C   0  0  0  0  0  0  0  0  0  0  0  0
  140.7090   71.1790  225.8140 C   0  0  0  0  0  0  0  0  0  0  0  0
  138.9660   70.9580  220.6760 N   0  0  0  0  0  0  0  0  0  0  0  0
  141.7547   79.1877  224.5680 H   0  0  0  0  0  0  0  0  0  0  0  0
  143.0372   78.9452  223.3339 H   0  0  0  0  0  0  0  0  0  0  0  0
  142.0648   80.4555  223.3339 H   0  0  0  0  0  0  0  0  0  0  0  0
  140.0274   79.0867  222.8596 H   0  0  0  0  0  0  0  0  0  0  0  0
  141.2904   78.9870  221.5656 H   0  0  0  0  0  0  0  0  0  0  0  0
  142.0471   76.8663  223.0854 H   0  0  0  0  0  0  0  0  0  0  0  0
  140.3012   76.8578  223.4535 H   0  0  0  0  0  0  0  0  0  0  0  0
  140.7585   77.4335  220.6424 H   0  0  0  0  0  0  0  0  0  0  0  0
  141.5861   75.8969  221.1518 H   0  0  0  0  0  0  0  0  0  0  0  0
  138.7097   76.5477  221.7296 H   0  0  0  0  0  0  0  0  0  0  0  0
  139.3399   75.6105  220.2720 H   0  0  0  0  0  0  0  0  0  0  0  0
  139.0140   74.6410  223.0360 H   0  0  0  0  0  0  0  0  0  0  0  0
  140.6911   73.2189  224.1018 H   0  0  0  0  0  0  0  0  0  0  0  0
  141.4958   71.1311  228.2755 H   0  0  0  0  0  0  0  0  0  0  0  0
  141.4433   69.1300  229.7559 H   0  0  0  0  0  0  0  0  0  0  0  0
  140.5630   66.9584  228.8356 H   0  0  0  0  0  0  0  0  0  0  0  0
  139.7786   66.8852  226.4777 H   0  0  0  0  0  0  0  0  0  0  0  0
  139.1825   68.5502  221.1318 H   0  0  0  0  0  0  0  0  0  0  0  0
  139.2270   67.8580  222.8352 H   0  0  0  0  0  0  0  0  0  0  0  0
  136.9841   69.1921  221.4023 H   0  0  0  0  0  0  0  0  0  0  0  0
  137.2450   68.5851  224.3208 H   0  0  0  0  0  0  0  0  0  0  0  0
  136.7245   70.0892  223.4881 H   0  0  0  0  0  0  0  0  0  0  0  0
  135.6546   68.6463  223.4881 H   0  0  0  0  0  0  0  0  0  0  0  0
  136.7216   66.5376  222.7424 H   0  0  0  0  0  0  0  0  0  0  0  0
  135.9780   67.1652  221.2325 H   0  0  0  0  0  0  0  0  0  0  0  0
  137.6908   66.6241  221.2325 H   0  0  0  0  0  0  0  0  0  0  0  0
  139.2600   71.6600  219.9850 H   0  0  0  0  0  0  0  0  0  0  0  0
  1  2  1  0
  2  3  1  0
  3  4  1  0
  4  5  1  0
  5  6  1  0
  6  7  1  0
  7  8  2  0
  7  9  1  0
  9 10  2  0
 10 11  1  0
 11 12  1  0
 12 13  2  0
 12 14  1  0
 14 15  1  0
 15 16  2  0
 16 17  1  0
 17 18  2  0
 18 19  1  0
 19 20  2  0
 20 21  1  0
 21 22  1  0
 22 23  1  0
 23 24  1  0
 24 25  1  0
 24 26  1  0
 22 27  1  0
 27 28  2  3
 27  9  1  0
 21 11  2  0
 19 14  1  0
  1 29  1  0
  1 30  1  0
  1 31  1  0
  2 32  1  0
  2 33  1  0
  3 34  1  0
  3 35  1  0
  4 36  1  0
  4 37  1  0
  5 38  1  0
  5 39  1  0
  6 40  1  0
 10 41  1  0
 15 42  1  0
 16 43  1  0
 17 44  1  0
 18 45  1  0
 23 46  1  0
 23 47  1  0
 24 48  1  0
 25 49  1  0
 25 50  1  0
 25 51  1  0
 26 52  1  0
 26 53  1  0
 26 54  1  0
 28 55  1  0
M  END
>  <smiles>  (7) 
CCCCCNC(=O)c1cc2c(=O)n3ccccc3nc2n(CC(C)C)c1=N

>  <score_type>  (7) 
oracle

>  <origin>  (7) 
autodockgpu

>  <m_score__min__energy>  (7) 
-6.6200000000000001

>  <m_primary>  (7) 
energy

>  <meeko>  (7) 
{"free_energy": -6.33, "intermolecular_energy": -8.72, "internal_energy": -1.33, "cluster_size": 2, "cluster_id": 3, "rank_in_cluster": 2}

>  <energy>  (7) 
-6.6

>  <cluster_rmsd>  (7) 
0.0

>  <rmsd>  (7) 
271.4

>  <cluster>  (7) 
2

$$$$

     RDKit          3D

 55 57  0  0  0  0  0  0  0  0999 V2000
  141.6910   81.6540  222.7930 C   0  0  0  0  0  0  0  0  0  0  0  0
  142.4810   80.9350  223.8620 C   0  0  0  0  0  0  0  0  0  0  0  0
  142.2080   79.4260  223.8420 C   0  0  0  0  0  0  0  0  0  0  0  0
  140.9000   79.2060  223.1490 C   0  0  0  0  0  0  0  0  0  0  0  0
  141.0720   78.7740  221.7350 C   0  0  0  0  0  0  0  0  0  0  0  0
  141.4340   77.3980  221.5450 N   0  0  0  0  0  0  0  0  0  0  0  0
  140.5430   76.3080  221.6380 C   0  0  0  0  0  0  0  0  0  0  0  0
  139.3250   76.5820  221.9160 O   0  0  0  0  0  0  0  0  0  0  0  0
  140.9630   74.9290  221.4320 C   0  0  0  0  0  0  0  0  0  0  0  0
  142.2080   74.7320  220.8320 C   0  0  0  0  0  0  0  0  0  0  0  0
  142.6640   73.4490  220.6060 C   0  0  0  0  0  0  0  0  0  0  0  0
  140.2110   73.8330  221.7880 C   0  0  0  0  0  0  0  0  0  0  0  0
  144.6100   74.1920  219.6750 O   0  0  0  0  0  0  0  0  0  0  0  0
  144.3580   71.9590  219.7860 N   0  0  0  0  0  0  0  0  0  0  0  0
  145.5610   71.7800  219.2110 C   0  0  0  0  0  0  0  0  0  0  0  0
  146.0430   70.5050  218.9770 C   0  0  0  0  0  0  0  0  0  0  0  0
  145.2590   69.4130  219.3470 C   0  0  0  0  0  0  0  0  0  0  0  0
  144.0250   69.6540  219.9370 C   0  0  0  0  0  0  0  0  0  0  0  0
  143.5600   70.9460  220.1630 C   0  0  0  0  0  0  0  0  0  0  0  0
  142.3640   71.1540  220.7380 N   0  0  0  0  0  0  0  0  0  0  0  0
  141.8710   72.3740  220.9810 C   0  0  0  0  0  0  0  0  0  0  0  0
  140.6510   72.5660  221.5690 N   0  0  0  0  0  0  0  0  0  0  0  0
  139.8520   71.4440  221.9490 C   0  0  0  0  0  0  0  0  0  0  0  0
  139.5350   71.3570  223.4150 C   0  0  0  0  0  0  0  0  0  0  0  0
  140.7350   71.4890  224.3090 C   0  0  0  0  0  0  0  0  0  0  0  0
  138.7220   70.1290  223.7420 C   0  0  0  0  0  0  0  0  0  0  0  0
  143.8890   73.2120  220.0170 C   0  0  0  0  0  0  0  0  0  0  0  0
  139.0570   74.0540  222.3450 N   0  0  0  0  0  0  0  0  0  0  0  0
  140.9568   82.3222  223.2667 H   0  0  0  0  0  0  0  0  0  0  0  0
  142.3751   82.2458  222.1671 H   0  0  0  0  0  0  0  0  0  0  0  0
  141.1661   80.9173  222.1671 H   0  0  0  0  0  0  0  0  0  0  0  0
  143.5539   81.1066  223.6901 H   0  0  0  0  0  0  0  0  0  0  0  0
  142.1740   81.3287  224.8422 H   0  0  0  0  0  0  0  0  0  0  0  0
  143.0114   78.9077  223.2979 H   0  0  0  0  0  0  0  0  0  0  0  0
  142.1708   79.0290  224.8672 H   0  0  0  0  0  0  0  0  0  0  0  0
  140.3400   78.4290  223.6900 H   0  0  0  0  0  0  0  0  0  0  0  0
  140.3585   80.1635  223.1434 H   0  0  0  0  0  0  0  0  0  0  0  0
  140.1214   78.9492  221.2099 H   0  0  0  0  0  0  0  0  0  0  0  0
  141.9136   79.3629  221.3414 H   0  0  0  0  0  0  0  0  0  0  0  0
  142.4430   77.1490  221.3180 H   0  0  0  0  0  0  0  0  0  0  0  0
  142.8232   75.5960  220.5404 H   0  0  0  0  0  0  0  0  0  0  0  0
  146.1653   72.6535  218.9251 H   0  0  0  0  0  0  0  0  0  0  0  0
  147.0265   70.3552  218.5077 H   0  0  0  0  0  0  0  0  0  0  0  0
  145.6097   68.3846  219.1756 H   0  0  0  0  0  0  0  0  0  0  0  0
  143.3981   68.8003  220.2338 H   0  0  0  0  0  0  0  0  0  0  0  0
  138.9020   71.4992  221.3973 H   0  0  0  0  0  0  0  0  0  0  0  0
  140.4452   70.5492  221.7094 H   0  0  0  0  0  0  0  0  0  0  0  0
  138.9137   72.2386  223.6312 H   0  0  0  0  0  0  0  0  0  0  0  0
  140.4144   71.4537  225.3607 H   0  0  0  0  0  0  0  0  0  0  0  0
  141.4329   70.6622  224.1105 H   0  0  0  0  0  0  0  0  0  0  0  0
  141.2364   72.4477  224.1105 H   0  0  0  0  0  0  0  0  0  0  0  0
  138.6485   70.0180  224.8339 H   0  0  0  0  0  0  0  0  0  0  0  0
  137.7135   70.2326  223.3153 H   0  0  0  0  0  0  0  0  0  0  0  0
  139.2112   69.2410  223.3153 H   0  0  0  0  0  0  0  0  0  0  0  0
  138.9270   74.7880  223.0530 H   0  0  0  0  0  0  0  0  0  0  0  0
  1  2  1  0
  2  3  1  0
  3  4  1  0
  4  5  1  0
  5  6  1  0
  6  7  1  0
  7  8  2  0
  7  9  1  0
  9 10  2  0
 10 11  1  0
 11 12  1  0
 12 13  2  0
 12 14  1  0
 14 15  1  0
 15 16  2  0
 16 17  1  0
 17 18  2  0
 18 19  1  0
 19 20  2  0
 20 21  1  0
 21 22  1  0
 22 23  1  0
 23 24  1  0
 24 25  1  0
 24 26  1  0
 22 27  1  0
 27 28  2  3
 27  9  1  0
 21 11  2  0
 19 14  1  0
  1 29  1  0
  1 30  1  0
  1 31  1  0
  2 32  1  0
  2 33  1  0
  3 34  1  0
  3 35  1  0
  4 36  1  0
  4 37  1  0
  5 38  1  0
  5 39  1  0
  6 40  1  0
 10 41  1  0
 15 42  1  0
 16 43  1  0
 17 44  1  0
 18 45  1  0
 23 46  1  0
 23 47  1  0
 24 48  1  0
 25 49  1  0
 25 50  1  0
 25 51  1  0
 26 52  1  0
 26 53  1  0
 26 54  1  0
 28 55  1  0
M  END
>  <smiles>  (8) 
CCCCCNC(=O)c1cc2c(=O)n3ccccc3nc2n(CC(C)C)c1=N

>  <score_type>  (8) 
oracle

>  <origin>  (8) 
autodockgpu

>  <m_score__min__energy>  (8) 
-6.6200000000000001

>  <m_primary>  (8) 
energy

>  <meeko>  (8) 
{"free_energy": -6.6, "intermolecular_energy": -8.98, "internal_energy": -1.09, "cluster_size": 7, "cluster_id": 2, "rank_in_cluster": 1}

>  <energy>  (8) 
-6.58

>  <cluster_rmsd>  (8) 
0.29

>  <rmsd>  (8) 
271.4

>  <cluster>  (8) 
2

$$$$

     RDKit          3D

 55 57  0  0  0  0  0  0  0  0999 V2000
  139.2450   80.3650  223.8210 C   0  0  0  0  0  0  0  0  0  0  0  0
  140.4280   79.4250  223.8440 C   0  0  0  0  0  0  0  0  0  0  0  0
  141.7480   80.1800  223.6460 C   0  0  0  0  0  0  0  0  0  0  0  0
  142.4260   79.6090  222.4400 C   0  0  0  0  0  0  0  0  0  0  0  0
  141.4750   78.9060  221.5350 C   0  0  0  0  0  0  0  0  0  0  0  0
  141.7350   77.5110  221.3240 N   0  0  0  0  0  0  0  0  0  0  0  0
  140.8810   76.4600  221.7180 C   0  0  0  0  0  0  0  0  0  0  0  0
  139.7970   76.7910  222.3100 O   0  0  0  0  0  0  0  0  0  0  0  0
  141.1930   75.0590  221.4740 C   0  0  0  0  0  0  0  0  0  0  0  0
  142.4240   74.7810  220.8790 C   0  0  0  0  0  0  0  0  0  0  0  0
  142.7790   73.4730  220.6190 C   0  0  0  0  0  0  0  0  0  0  0  0
  140.3520   74.0160  221.7900 C   0  0  0  0  0  0  0  0  0  0  0  0
  144.7880   74.0860  219.7260 O   0  0  0  0  0  0  0  0  0  0  0  0
  144.3590   71.8780  219.7680 N   0  0  0  0  0  0  0  0  0  0  0  0
  145.5500   71.6210  219.1980 C   0  0  0  0  0  0  0  0  0  0  0  0
  145.9320   70.3180  218.9300 C   0  0  0  0  0  0  0  0  0  0  0  0
  145.0610   69.2820  219.2600 C   0  0  0  0  0  0  0  0  0  0  0  0
  143.8430   69.6030  219.8480 C   0  0  0  0  0  0  0  0  0  0  0  0
  143.4800   70.9200  220.1080 C   0  0  0  0  0  0  0  0  0  0  0  0
  142.2980   71.2060  220.6790 N   0  0  0  0  0  0  0  0  0  0  0  0
  141.9000   72.4540  220.9540 C   0  0  0  0  0  0  0  0  0  0  0  0
  140.6930   72.7250  221.5380 N   0  0  0  0  0  0  0  0  0  0  0  0
  139.8040   71.6600  221.8770 C   0  0  0  0  0  0  0  0  0  0  0  0
  139.4880   71.5370  223.3410 C   0  0  0  0  0  0  0  0  0  0  0  0
  140.7020   71.4530  224.2230 C   0  0  0  0  0  0  0  0  0  0  0  0
  138.5160   70.4160  223.6140 C   0  0  0  0  0  0  0  0  0  0  0  0
  143.9890   73.1560  220.0320 C   0  0  0  0  0  0  0  0  0  0  0  0
  139.2140   74.3120  222.3440 N   0  0  0  0  0  0  0  0  0  0  0  0
  138.9456   80.6029  224.8524 H   0  0  0  0  0  0  0  0  0  0  0  0
  139.5229   81.2914  223.2969 H   0  0  0  0  0  0  0  0  0  0  0  0
  138.4054   79.8850  223.2969 H   0  0  0  0  0  0  0  0  0  0  0  0
  140.4543   78.9069  224.8140 H   0  0  0  0  0  0  0  0  0  0  0  0
  140.3141   78.7058  223.0195 H   0  0  0  0  0  0  0  0  0  0  0  0
  141.5471   81.2503  223.4906 H   0  0  0  0  0  0  0  0  0  0  0  0
  142.3887   80.0724  224.5336 H   0  0  0  0  0  0  0  0  0  0  0  0
  142.9046   80.4278  221.8827 H   0  0  0  0  0  0  0  0  0  0  0  0
  143.1655   78.8726  222.7876 H   0  0  0  0  0  0  0  0  0  0  0  0
  140.4667   79.0010  221.9642 H   0  0  0  0  0  0  0  0  0  0  0  0
  141.5870   79.3847  220.5510 H   0  0  0  0  0  0  0  0  0  0  0  0
  142.6340   77.2140  220.8360 H   0  0  0  0  0  0  0  0  0  0  0  0
  143.1089   75.6013  220.6181 H   0  0  0  0  0  0  0  0  0  0  0  0
  146.2246   72.4517  218.9433 H   0  0  0  0  0  0  0  0  0  0  0  0
  146.9057   70.1043  218.4649 H   0  0  0  0  0  0  0  0  0  0  0  0
  145.3308   68.2345  219.0599 H   0  0  0  0  0  0  0  0  0  0  0  0
  143.1476   68.7935  220.1148 H   0  0  0  0  0  0  0  0  0  0  0  0
  138.8593   71.8191  221.3364 H   0  0  0  0  0  0  0  0  0  0  0  0
  140.3180   70.7294  221.5946 H   0  0  0  0  0  0  0  0  0  0  0  0
  138.9954   72.4822  223.6130 H   0  0  0  0  0  0  0  0  0  0  0  0
  140.3910   71.4745  225.2779 H   0  0  0  0  0  0  0  0  0  0  0  0
  141.2398   70.5155  224.0183 H   0  0  0  0  0  0  0  0  0  0  0  0
  141.3638   72.3075  224.0183 H   0  0  0  0  0  0  0  0  0  0  0  0
  138.4027   70.2853  224.7003 H   0  0  0  0  0  0  0  0  0  0  0  0
  137.5397   70.6610  223.1704 H   0  0  0  0  0  0  0  0  0  0  0  0
  138.8969   69.4843  223.1704 H   0  0  0  0  0  0  0  0  0  0  0  0
  139.1530   74.9200  223.1710 H   0  0  0  0  0  0  0  0  0  0  0  0
  1  2  1  0
  2  3  1  0
  3  4  1  0
  4  5  1  0
  5  6  1  0
  6  7  1  0
  7  8  2  0
  7  9  1  0
  9 10  2  0
 10 11  1  0
 11 12  1  0
 12 13  2  0
 12 14  1  0
 14 15  1  0
 15 16  2  0
 16 17  1  0
 17 18  2  0
 18 19  1  0
 19 20  2  0
 20 21  1  0
 21 22  1  0
 22 23  1  0
 23 24  1  0
 24 25  1  0
 24 26  1  0
 22 27  1  0
 27 28  2  3
 27  9  1  0
 21 11  2  0
 19 14  1  0
  1 29  1  0
  1 30  1  0
  1 31  1  0
  2 32  1  0
  2 33  1  0
  3 34  1  0
  3 35  1  0
  4 36  1  0
  4 37  1  0
  5 38  1  0
  5 39  1  0
  6 40  1  0
 10 41  1  0
 15 42  1  0
 16 43  1  0
 17 44  1  0
 18 45  1  0
 23 46  1  0
 23 47  1  0
 24 48  1  0
 25 49  1  0
 25 50  1  0
 25 51  1  0
 26 52  1  0
 26 53  1  0
 26 54  1  0
 28 55  1  0
M  END
>  <smiles>  (9) 
CCCCCNC(=O)c1cc2c(=O)n3ccccc3nc2n(CC(C)C)c1=N

>  <score_type>  (9) 
oracle

>  <origin>  (9) 
autodockgpu

>  <m_score__min__energy>  (9) 
-6.6200000000000001

>  <m_primary>  (9) 
energy

>  <meeko>  (9) 
{"free_energy": -6.53, "intermolecular_energy": -8.91, "internal_energy": -1.24, "cluster_size": 7, "cluster_id": 2, "rank_in_cluster": 3}

>  <energy>  (9) 
-6.53

>  <cluster_rmsd>  (9) 
0.59

>  <rmsd>  (9) 
271.35

>  <cluster>  (9) 
2

$$$$

     RDKit          3D

 55 57  0  0  0  0  0  0  0  0999 V2000
  140.4470   71.1590  227.4230 C   0  0  0  0  0  0  0  0  0  0  0  0
  141.0240   71.4860  226.0650 C   0  0  0  0  0  0  0  0  0  0  0  0
  140.0170   71.2010  224.9440 C   0  0  0  0  0  0  0  0  0  0  0  0
  140.7090   71.4310  223.6370 C   0  0  0  0  0  0  0  0  0  0  0  0
  139.7810   71.9240  222.5820 C   0  0  0  0  0  0  0  0  0  0  0  0
  139.7790   73.3420  222.3700 N   0  0  0  0  0  0  0  0  0  0  0  0
  140.6980   74.0410  221.5590 C   0  0  0  0  0  0  0  0  0  0  0  0
  141.5980   73.3420  220.9780 O   0  0  0  0  0  0  0  0  0  0  0  0
  140.6480   75.4840  221.3760 C   0  0  0  0  0  0  0  0  0  0  0  0
  141.4290   76.0170  220.3490 C   0  0  0  0  0  0  0  0  0  0  0  0
  141.4270   77.3790  220.1240 C   0  0  0  0  0  0  0  0  0  0  0  0
  139.8880   76.3330  222.1480 C   0  0  0  0  0  0  0  0  0  0  0  0
  142.8970   77.1990  218.3870 O   0  0  0  0  0  0  0  0  0  0  0  0
  142.1990   79.2810  218.8780 N   0  0  0  0  0  0  0  0  0  0  0  0
  142.9520   79.7830  217.8840 C   0  0  0  0  0  0  0  0  0  0  0  0
  142.9660   81.1440  217.6350 C   0  0  0  0  0  0  0  0  0  0  0  0
  142.1870   81.9800  218.4320 C   0  0  0  0  0  0  0  0  0  0  0  0
  141.4280   81.4090  219.4460 C   0  0  0  0  0  0  0  0  0  0  0  0
  141.4290   80.0370  219.6790 C   0  0  0  0  0  0  0  0  0  0  0  0
  140.6840   79.5070  220.6630 N   0  0  0  0  0  0  0  0  0  0  0  0
  140.6460   78.1960  220.9280 C   0  0  0  0  0  0  0  0  0  0  0  0
  139.8800   77.6750  221.9340 N   0  0  0  0  0  0  0  0  0  0  0  0
  139.0820   78.5350  222.7480 C   0  0  0  0  0  0  0  0  0  0  0  0
  139.8520   79.4060  223.6990 C   0  0  0  0  0  0  0  0  0  0  0  0
  139.7540   80.8750  223.4000 C   0  0  0  0  0  0  0  0  0  0  0  0
  141.2860   78.9560  223.8370 C   0  0  0  0  0  0  0  0  0  0  0  0
  142.1850   77.9450  219.1180 C   0  0  0  0  0  0  0  0  0  0  0  0
  139.1720   75.8020  223.0940 N   0  0  0  0  0  0  0  0  0  0  0  0
  141.1178   71.5391  228.2076 H   0  0  0  0  0  0  0  0  0  0  0  0
  139.4588   71.6313  227.5249 H   0  0  0  0  0  0  0  0  0  0  0  0
  140.3445   70.0685  227.5249 H   0  0  0  0  0  0  0  0  0  0  0  0
  141.2958   72.5516  226.0391 H   0  0  0  0  0  0  0  0  0  0  0  0
  141.9088   70.8526  225.9039 H   0  0  0  0  0  0  0  0  0  0  0  0
  139.6728   70.1581  225.0066 H   0  0  0  0  0  0  0  0  0  0  0  0
  139.1422   71.8614  225.0367 H   0  0  0  0  0  0  0  0  0  0  0  0
  141.5040   72.1768  223.7847 H   0  0  0  0  0  0  0  0  0  0  0  0
  141.1179   70.4670  223.3000 H   0  0  0  0  0  0  0  0  0  0  0  0
  140.0596   71.4408  221.6339 H   0  0  0  0  0  0  0  0  0  0  0  0
  138.7688   71.6711  222.9305 H   0  0  0  0  0  0  0  0  0  0  0  0
  139.0410   73.9420  222.8490 H   0  0  0  0  0  0  0  0  0  0  0  0
  142.0434   75.3545  219.7217 H   0  0  0  0  0  0  0  0  0  0  0  0
  143.5607   79.1077  217.2648 H   0  0  0  0  0  0  0  0  0  0  0  0
  143.5810   81.5584  216.8225 H   0  0  0  0  0  0  0  0  0  0  0  0
  142.1732   83.0668  218.2624 H   0  0  0  0  0  0  0  0  0  0  0  0
  140.8093   82.0592  220.0820 H   0  0  0  0  0  0  0  0  0  0  0  0
  138.4985   79.1889  222.0832 H   0  0  0  0  0  0  0  0  0  0  0  0
  138.4591   77.8764  223.3711 H   0  0  0  0  0  0  0  0  0  0  0  0
  139.3616   79.2746  224.6749 H   0  0  0  0  0  0  0  0  0  0  0  0
  139.7163   81.4395  224.3434 H   0  0  0  0  0  0  0  0  0  0  0  0
  140.6331   81.1903  222.8188 H   0  0  0  0  0  0  0  0  0  0  0  0
  138.8408   81.0708  222.8188 H   0  0  0  0  0  0  0  0  0  0  0  0
  141.5439   78.8751  224.9033 H   0  0  0  0  0  0  0  0  0  0  0  0
  141.4107   77.9755  223.3542 H   0  0  0  0  0  0  0  0  0  0  0  0
  141.9485   79.6894  223.3542 H   0  0  0  0  0  0  0  0  0  0  0  0
  138.3970   75.1570  222.8930 H   0  0  0  0  0  0  0  0  0  0  0  0
  1  2  1  0
  2  3  1  0
  3  4  1  0
  4  5  1  0
  5  6  1  0
  6  7  1  0
  7  8  2  0
  7  9  1  0
  9 10  2  0
 10 11  1  0
 11 12  1  0
 12 13  2  0
 12 14  1  0
 14 15  1  0
 15 16  2  0
 16 17  1  0
 17 18  2  0
 18 19  1  0
 19 20  2  0
 20 21  1  0
 21 22  1  0
 22 23  1  0
 23 24  1  0
 24 25  1  0
 24 26  1  0
 22 27  1  0
 27 28  2  3
 27  9  1  0
 21 11  2  0
 19 14  1  0
  1 29  1  0
  1 30  1  0
  1 31  1  0
  2 32  1  0
  2 33  1  0
  3 34  1  0
  3 35  1  0
  4 36  1  0
  4 37  1  0
  5 38  1  0
  5 39  1  0
  6 40  1  0
 10 41  1  0
 15 42  1  0
 16 43  1  0
 17 44  1  0
 18 45  1  0
 23 46  1  0
 23 47  1  0
 24 48  1  0
 25 49  1  0
 25 50  1  0
 25 51  1  0
 26 52  1  0
 26 53  1  0
 26 54  1  0
 28 55  1  0
M  END
>  <smiles>  (10) 
CCCCCNC(=O)c1cc2c(=O)n3ccccc3nc2n(CC(C)C)c1=N

>  <score_type>  (10) 
oracle

>  <origin>  (10) 
autodockgpu

>  <m_score__min__energy>  (10) 
-6.6200000000000001

>  <m_primary>  (10) 
energy

>  <meeko>  (10) 
{"free_energy": -6.55, "intermolecular_energy": -8.94, "internal_energy": -1.14, "cluster_size": 6, "cluster_id": 1, "rank_in_cluster": 5}

>  <energy>  (10) 
-6.52

>  <cluster_rmsd>  (10) 
0.59

>  <rmsd>  (10) 
271.34

>  <cluster>  (10) 
2

$$$$

     RDKit          3D

 55 57  0  0  0  0  0  0  0  0999 V2000
  146.3330   73.3740  221.7010 C   0  0  0  0  0  0  0  0  0  0  0  0
  145.1290   73.7020  220.8480 C   0  0  0  0  0  0  0  0  0  0  0  0
  144.7130   72.5070  219.9820 C   0  0  0  0  0  0  0  0  0  0  0  0
  143.6370   71.7650  220.7110 C   0  0  0  0  0  0  0  0  0  0  0  0
  142.2730   72.1720  220.2750 C   0  0  0  0  0  0  0  0  0  0  0  0
  142.0320   73.5850  220.2230 N   0  0  0  0  0  0  0  0  0  0  0  0
  141.2470   74.3060  221.1470 C   0  0  0  0  0  0  0  0  0  0  0  0
  140.7120   73.6340  222.0950 O   0  0  0  0  0  0  0  0  0  0  0  0
  141.0390   75.7440  221.0500 C   0  0  0  0  0  0  0  0  0  0  0  0
  141.7660   76.4220  220.0700 C   0  0  0  0  0  0  0  0  0  0  0  0
  141.6170   77.7860  219.9270 C   0  0  0  0  0  0  0  0  0  0  0  0
  140.1830   76.4560  221.8600 C   0  0  0  0  0  0  0  0  0  0  0  0
  143.1130   77.8760  218.2060 O   0  0  0  0  0  0  0  0  0  0  0  0
  142.1850   79.8340  218.8110 N   0  0  0  0  0  0  0  0  0  0  0  0
  142.8870   80.4760  217.8600 C   0  0  0  0  0  0  0  0  0  0  0  0
  142.7530   81.8440  217.6940 C   0  0  0  0  0  0  0  0  0  0  0  0
  141.8800   82.5390  218.5280 C   0  0  0  0  0  0  0  0  0  0  0  0
  141.1790   81.8260  219.4930 C   0  0  0  0  0  0  0  0  0  0  0  0
  141.3290   80.4510  219.6430 C   0  0  0  0  0  0  0  0  0  0  0  0
  140.6390   79.7830  220.5820 N   0  0  0  0  0  0  0  0  0  0  0  0
  140.7430   78.4620  220.7670 C   0  0  0  0  0  0  0  0  0  0  0  0
  140.0300   77.7990  221.7280 N   0  0  0  0  0  0  0  0  0  0  0  0
  139.1340   78.5150  222.5790 C   0  0  0  0  0  0  0  0  0  0  0  0
  139.7960   79.3710  223.6210 C   0  0  0  0  0  0  0  0  0  0  0  0
  139.6090   80.8470  223.4100 C   0  0  0  0  0  0  0  0  0  0  0  0
  141.2490   79.0090  223.8050 C   0  0  0  0  0  0  0  0  0  0  0  0
  142.3170   78.4930  218.9690 C   0  0  0  0  0  0  0  0  0  0  0  0
  139.5220   75.7920  222.7610 N   0  0  0  0  0  0  0  0  0  0  0  0
  146.0604   73.4483  222.7641 H   0  0  0  0  0  0  0  0  0  0  0  0
  146.6713   72.3510  221.4798 H   0  0  0  0  0  0  0  0  0  0  0  0
  147.1435   74.0841  221.4798 H   0  0  0  0  0  0  0  0  0  0  0  0
  144.2902   73.9774  221.5041 H   0  0  0  0  0  0  0  0  0  0  0  0
  145.3944   74.5360  220.1817 H   0  0  0  0  0  0  0  0  0  0  0  0
  144.3320   72.8619  219.0130 H   0  0  0  0  0  0  0  0  0  0  0  0
  145.5748   71.8491  219.7964 H   0  0  0  0  0  0  0  0  0  0  0  0
  143.7612   70.6882  220.5239 H   0  0  0  0  0  0  0  0  0  0  0  0
  143.7320   72.0013  221.7811 H   0  0  0  0  0  0  0  0  0  0  0  0
  142.1042   71.7632  219.2678 H   0  0  0  0  0  0  0  0  0  0  0  0
  141.5848   71.7785  221.0375 H   0  0  0  0  0  0  0  0  0  0  0  0
  142.4650   74.1610  219.4400 H   0  0  0  0  0  0  0  0  0  0  0  0
  142.4555   75.8705  219.4139 H   0  0  0  0  0  0  0  0  0  0  0  0
  143.5715   79.9108  217.2104 H   0  0  0  0  0  0  0  0  0  0  0  0
  143.3256   82.3726  216.9176 H   0  0  0  0  0  0  0  0  0  0  0  0
  141.7487   83.6263  218.4251 H   0  0  0  0  0  0  0  0  0  0  0  0
  140.4861   82.3638  220.1569 H   0  0  0  0  0  0  0  0  0  0  0  0
  138.5110   79.1660  221.9481 H   0  0  0  0  0  0  0  0  0  0  0  0
  138.5568   77.7553  223.1265 H   0  0  0  0  0  0  0  0  0  0  0  0
  139.2710   79.1435  224.5604 H   0  0  0  0  0  0  0  0  0  0  0  0
  139.5451   81.3516  224.3853 H   0  0  0  0  0  0  0  0  0  0  0  0
  140.4635   81.2478  222.8451 H   0  0  0  0  0  0  0  0  0  0  0  0
  138.6815   81.0220  222.8451 H   0  0  0  0  0  0  0  0  0  0  0  0
  141.4794   78.9516  224.8791 H   0  0  0  0  0  0  0  0  0  0  0  0
  141.4464   78.0342  223.3350 H   0  0  0  0  0  0  0  0  0  0  0  0
  141.8806   79.7772  223.3350 H   0  0  0  0  0  0  0  0  0  0  0  0
  139.3820   74.7760  222.6940 H   0  0  0  0  0  0  0  0  0  0  0  0
  1  2  1  0
  2  3  1  0
  3  4  1  0
  4  5  1  0
  5  6  1  0
  6  7  1  0
  7  8  2  0
  7  9  1  0
  9 10  2  0
 10 11  1  0
 11 12  1  0
 12 13  2  0
 12 14  1  0
 14 15  1  0
 15 16  2  0
 16 17  1  0
 17 18  2  0
 18 19  1  0
 19 20  2  0
 20 21  1  0
 21 22  1  0
 22 23  1  0
 23 24  1  0
 24 25  1  0
 24 26  1  0
 22 27  1  0
 27 28  2  3
 27  9  1  0
 21 11  2  0
 19 14  1  0
  1 29  1  0
  1 30  1  0
  1 31  1  0
  2 32  1  0
  2 33  1  0
  3 34  1  0
  3 35  1  0
  4 36  1  0
  4 37  1  0
  5 38  1  0
  5 39  1  0
  6 40  1  0
 10 41  1  0
 15 42  1  0
 16 43  1  0
 17 44  1  0
 18 45  1  0
 23 46  1  0
 23 47  1  0
 24 48  1  0
 25 49  1  0
 25 50  1  0
 25 51  1  0
 26 52  1  0
 26 53  1  0
 26 54  1  0
 28 55  1  0
M  END
>  <smiles>  (11) 
CCCCCNC(=O)c1cc2c(=O)n3ccccc3nc2n(CC(C)C)c1=N

>  <score_type>  (11) 
oracle

>  <origin>  (11) 
autodockgpu

>  <m_score__min__energy>  (11) 
-6.6200000000000001

>  <m_primary>  (11) 
energy

>  <meeko>  (11) 
{"free_energy": -6.3, "intermolecular_energy": -8.69, "internal_energy": -1.43, "cluster_size": 4, "cluster_id": 4, "rank_in_cluster": 2}

>  <energy>  (11) 
-6.46

>  <cluster_rmsd>  (11) 
0.61

>  <rmsd>  (11) 
271.32

>  <cluster>  (11) 
2

$$$$

     RDKit          3D

 55 57  0  0  0  0  0  0  0  0999 V2000
  140.7670   71.8850  227.3520 C   0  0  0  0  0  0  0  0  0  0  0  0
  141.0720   71.1710  226.0560 C   0  0  0  0  0  0  0  0  0  0  0  0
  140.0240   71.4870  224.9820 C   0  0  0  0  0  0  0  0  0  0  0  0
  140.7110   71.4660  223.6520 C   0  0  0  0  0  0  0  0  0  0  0  0
  139.8310   71.9490  222.5520 C   0  0  0  0  0  0  0  0  0  0  0  0
  139.8190   73.3690  222.3440 N   0  0  0  0  0  0  0  0  0  0  0  0
  140.7370   74.0770  221.5410 C   0  0  0  0  0  0  0  0  0  0  0  0
  141.6460   73.3880  220.9630 O   0  0  0  0  0  0  0  0  0  0  0  0
  140.6750   75.5200  221.3610 C   0  0  0  0  0  0  0  0  0  0  0  0
  141.4500   76.0620  220.3330 C   0  0  0  0  0  0  0  0  0  0  0  0
  141.4380   77.4240  220.1120 C   0  0  0  0  0  0  0  0  0  0  0  0
  139.9120   76.3620  222.1370 C   0  0  0  0  0  0  0  0  0  0  0  0
  142.9040   77.2590  218.3710 O   0  0  0  0  0  0  0  0  0  0  0  0
  142.1920   79.3340  218.8690 N   0  0  0  0  0  0  0  0  0  0  0  0
  142.9390   79.8450  217.8740 C   0  0  0  0  0  0  0  0  0  0  0  0
  142.9430   81.2070  217.6280 C   0  0  0  0  0  0  0  0  0  0  0  0
  142.1600   82.0350  218.4300 C   0  0  0  0  0  0  0  0  0  0  0  0
  141.4080   81.4550  219.4440 C   0  0  0  0  0  0  0  0  0  0  0  0
  141.4190   80.0840  219.6740 C   0  0  0  0  0  0  0  0  0  0  0  0
  140.6810   79.5450  220.6590 N   0  0  0  0  0  0  0  0  0  0  0  0
  140.6530   78.2330  220.9200 C   0  0  0  0  0  0  0  0  0  0  0  0
  139.8940   77.7040  221.9270 N   0  0  0  0  0  0  0  0  0  0  0  0
  139.0910   78.5570  222.7460 C   0  0  0  0  0  0  0  0  0  0  0  0
  139.8580   79.4250  223.7030 C   0  0  0  0  0  0  0  0  0  0  0  0
  139.7470   80.8960  223.4180 C   0  0  0  0  0  0  0  0  0  0  0  0
  141.2960   78.9840  223.8320 C   0  0  0  0  0  0  0  0  0  0  0  0
  142.1890   77.9980  219.1060 C   0  0  0  0  0  0  0  0  0  0  0  0
  139.2030   75.8230  223.0840 N   0  0  0  0  0  0  0  0  0  0  0  0
  141.0425   71.2402  228.1995 H   0  0  0  0  0  0  0  0  0  0  0  0
  141.3442   72.8202  227.4001 H   0  0  0  0  0  0  0  0  0  0  0  0
  139.6923   72.1145  227.4001 H   0  0  0  0  0  0  0  0  0  0  0  0
  142.0610   71.4905  225.6957 H   0  0  0  0  0  0  0  0  0  0  0  0
  141.0566   70.0877  226.2461 H   0  0  0  0  0  0  0  0  0  0  0  0
  139.2264   70.7298  225.0032 H   0  0  0  0  0  0  0  0  0  0  0  0
  139.5713   72.4727  225.1651 H   0  0  0  0  0  0  0  0  0  0  0  0
  141.5999   72.1120  223.7031 H   0  0  0  0  0  0  0  0  0  0  0  0
  140.9833   70.4234  223.4310 H   0  0  0  0  0  0  0  0  0  0  0  0
  140.1649   71.4732  221.6181 H   0  0  0  0  0  0  0  0  0  0  0  0
  138.8061   71.6800  222.8472 H   0  0  0  0  0  0  0  0  0  0  0  0
  139.0730   73.9600  222.8200 H   0  0  0  0  0  0  0  0  0  0  0  0
  142.0674   75.4057  219.7021 H   0  0  0  0  0  0  0  0  0  0  0  0
  143.5510   79.1758  217.2514 H   0  0  0  0  0  0  0  0  0  0  0  0
  143.5527   81.6279  216.8149 H   0  0  0  0  0  0  0  0  0  0  0  0
  142.1379   83.1222  218.2641 H   0  0  0  0  0  0  0  0  0  0  0  0
  140.7861   82.0990  220.0832 H   0  0  0  0  0  0  0  0  0  0  0  0
  138.5058   79.2128  222.0846 H   0  0  0  0  0  0  0  0  0  0  0  0
  138.4693   77.8928  223.3644 H   0  0  0  0  0  0  0  0  0  0  0  0
  139.3728   79.2811  224.6797 H   0  0  0  0  0  0  0  0  0  0  0  0
  139.7051   81.4512  224.3667 H   0  0  0  0  0  0  0  0  0  0  0  0
  140.6229   81.2245  222.8393 H   0  0  0  0  0  0  0  0  0  0  0  0
  138.8317   81.0893  222.8393 H   0  0  0  0  0  0  0  0  0  0  0  0
  141.5605   78.9029  224.8966 H   0  0  0  0  0  0  0  0  0  0  0  0
  141.4243   78.0052  223.3467 H   0  0  0  0  0  0  0  0  0  0  0  0
  141.9510   79.7226  223.3467 H   0  0  0  0  0  0  0  0  0  0  0  0
  138.4300   75.1750  222.8840 H   0  0  0  0  0  0  0  0  0  0  0  0
  1  2  1  0
  2  3  1  0
  3  4  1  0
  4  5  1  0
  5  6  1  0
  6  7  1  0
  7  8  2  0
  7  9  1  0
  9 10  2  0
 10 11  1  0
 11 12  1  0
 12 13  2  0
 12 14  1  0
 14 15  1  0
 15 16  2  0
 16 17  1  0
 17 18  2  0
 18 19  1  0
 19 20  2  0
 20 21  1  0
 21 22  1  0
 22 23  1  0
 23 24  1  0
 24 25  1  0
 24 26  1  0
 22 27  1  0
 27 28  2  3
 27  9  1  0
 21 11  2  0
 19 14  1  0
  1 29  1  0
  1 30  1  0
  1 31  1  0
  2 32  1  0
  2 33  1  0
  3 34  1  0
  3 35  1  0
  4 36  1  0
  4 37  1  0
  5 38  1  0
  5 39  1  0
  6 40  1  0
 10 41  1  0
 15 42  1  0
 16 43  1  0
 17 44  1  0
 18 45  1  0
 23 46  1  0
 23 47  1  0
 24 48  1  0
 25 49  1  0
 25 50  1  0
 25 51  1  0
 26 52  1  0
 26 53  1  0
 26 54  1  0
 28 55  1  0
M  END
>  <smiles>  (12) 
CCCCCNC(=O)c1cc2c(=O)n3ccccc3nc2n(CC(C)C)c1=N

>  <score_type>  (12) 
oracle

>  <origin>  (12) 
autodockgpu

>  <m_score__min__energy>  (12) 
-6.6200000000000001

>  <m_primary>  (12) 
energy

>  <meeko>  (12) 
{"free_energy": -6.62, "intermolecular_energy": -9.0, "internal_energy": -1.16, "cluster_size": 6, "cluster_id": 1, "rank_in_cluster": 1}

>  <energy>  (12) 
-6.37

>  <cluster_rmsd>  (12) 
0.63

>  <rmsd>  (12) 
271.37

>  <cluster>  (12) 
2

$$$$

     RDKit          3D

 55 57  0  0  0  0  0  0  0  0999 V2000
  139.1420   79.8240  223.7970 C   0  0  0  0  0  0  0  0  0  0  0  0
  140.4080   80.5900  223.4920 C   0  0  0  0  0  0  0  0  0  0  0  0
  141.6570   79.7470  223.7760 C   0  0  0  0  0  0  0  0  0  0  0  0
  142.3810   79.5490  222.4810 C   0  0  0  0  0  0  0  0  0  0  0  0
  141.5310   78.8900  221.4510 C   0  0  0  0  0  0  0  0  0  0  0  0
  141.7770   77.4920  221.2440 N   0  0  0  0  0  0  0  0  0  0  0  0
  140.9330   76.4490  221.6800 C   0  0  0  0  0  0  0  0  0  0  0  0
  139.8730   76.7910  222.3090 O   0  0  0  0  0  0  0  0  0  0  0  0
  141.2300   75.0440  221.4390 C   0  0  0  0  0  0  0  0  0  0  0  0
  142.4610   74.7510  220.8500 C   0  0  0  0  0  0  0  0  0  0  0  0
  142.8020   73.4390  220.5930 C   0  0  0  0  0  0  0  0  0  0  0  0
  140.3760   74.0110  221.7530 C   0  0  0  0  0  0  0  0  0  0  0  0
  144.8220   74.0270  219.7100 O   0  0  0  0  0  0  0  0  0  0  0  0
  144.3670   71.8240  219.7520 N   0  0  0  0  0  0  0  0  0  0  0  0
  145.5580   71.5530  219.1880 C   0  0  0  0  0  0  0  0  0  0  0  0
  145.9260   70.2460  218.9220 C   0  0  0  0  0  0  0  0  0  0  0  0
  145.0410   69.2200  219.2500 C   0  0  0  0  0  0  0  0  0  0  0  0
  143.8240   69.5560  219.8310 C   0  0  0  0  0  0  0  0  0  0  0  0
  143.4750   70.8770  220.0890 C   0  0  0  0  0  0  0  0  0  0  0  0
  142.2940   71.1780  220.6530 N   0  0  0  0  0  0  0  0  0  0  0  0
  141.9090   72.4310  220.9250 C   0  0  0  0  0  0  0  0  0  0  0  0
  140.7020   72.7160  221.5030 N   0  0  0  0  0  0  0  0  0  0  0  0
  139.7990   71.6620  221.8390 C   0  0  0  0  0  0  0  0  0  0  0  0
  139.4850   71.5370  223.3020 C   0  0  0  0  0  0  0  0  0  0  0  0
  140.6980   71.4950  224.1870 C   0  0  0  0  0  0  0  0  0  0  0  0
  138.5470   70.3880  223.5790 C   0  0  0  0  0  0  0  0  0  0  0  0
  144.0100   73.1070  220.0130 C   0  0  0  0  0  0  0  0  0  0  0  0
  139.2380   74.3210  222.3000 N   0  0  0  0  0  0  0  0  0  0  0  0
  139.0139   79.7465  224.8868 H   0  0  0  0  0  0  0  0  0  0  0  0
  138.2802   80.3523  223.3631 H   0  0  0  0  0  0  0  0  0  0  0  0
  139.2101   78.8155  223.3631 H   0  0  0  0  0  0  0  0  0  0  0  0
  140.4047   80.8777  222.4303 H   0  0  0  0  0  0  0  0  0  0  0  0
  140.4375   81.4794  224.1386 H   0  0  0  0  0  0  0  0  0  0  0  0
  142.3073   80.2713  224.4917 H   0  0  0  0  0  0  0  0  0  0  0  0
  141.3744   78.7765  224.2099 H   0  0  0  0  0  0  0  0  0  0  0  0
  142.6998   80.5307  222.1007 H   0  0  0  0  0  0  0  0  0  0  0  0
  143.2425   78.8931  222.6750 H   0  0  0  0  0  0  0  0  0  0  0  0
  140.4802   79.0071  221.7544 H   0  0  0  0  0  0  0  0  0  0  0  0
  141.7774   79.3823  220.4987 H   0  0  0  0  0  0  0  0  0  0  0  0
  142.6560   77.1860  220.7280 H   0  0  0  0  0  0  0  0  0  0  0  0
  143.1567   75.5630  220.5917 H   0  0  0  0  0  0  0  0  0  0  0  0
  146.2436   72.3757  218.9368 H   0  0  0  0  0  0  0  0  0  0  0  0
  146.8987   70.0207  218.4603 H   0  0  0  0  0  0  0  0  0  0  0  0
  145.2999   68.1691  219.0536 H   0  0  0  0  0  0  0  0  0  0  0  0
  143.1175   68.7549  220.0939 H   0  0  0  0  0  0  0  0  0  0  0  0
  138.8554   71.8368  221.3013 H   0  0  0  0  0  0  0  0  0  0  0  0
  140.2991   70.7255  221.5510 H   0  0  0  0  0  0  0  0  0  0  0  0
  138.9640   72.4686  223.5679 H   0  0  0  0  0  0  0  0  0  0  0  0
  140.3834   71.5059  225.2410 H   0  0  0  0  0  0  0  0  0  0  0  0
  141.2683   70.5766  223.9840 H   0  0  0  0  0  0  0  0  0  0  0  0
  141.3305   72.3718  223.9840 H   0  0  0  0  0  0  0  0  0  0  0  0
  138.4395   70.2563  224.6658 H   0  0  0  0  0  0  0  0  0  0  0  0
  137.5631   70.6030  223.1366 H   0  0  0  0  0  0  0  0  0  0  0  0
  138.9546   69.4671  223.1366 H   0  0  0  0  0  0  0  0  0  0  0  0
  139.1810   74.9250  223.1300 H   0  0  0  0  0  0  0  0  0  0  0  0
  1  2  1  0
  2  3  1  0
  3  4  1  0
  4  5  1  0
  5  6  1  0
  6  7  1  0
  7  8  2  0
  7  9  1  0
  9 10  2  0
 10 11  1  0
 11 12  1  0
 12 13  2  0
 12 14  1  0
 14 15  1  0
 15 16  2  0
 16 17  1  0
 17 18  2  0
 18 19  1  0
 19 20  2  0
 20 21  1  0
 21 22  1  0
 22 23  1  0
 23 24  1  0
 24 25  1  0
 24 26  1  0
 22 27  1  0
 27 28  2  3
 27  9  1  0
 21 11  2  0
 19 14  1  0
  1 29  1  0
  1 30  1  0
  1 31  1  0
  2 32  1  0
  2 33  1  0
  3 34  1  0
  3 35  1  0
  4 36  1  0
  4 37  1  0
  5 38  1  0
  5 39  1  0
  6 40  1  0
 10 41  1  0
 15 42  1  0
 16 43  1  0
 17 44  1  0
 18 45  1  0
 23 46  1  0
 23 47  1  0
 24 48  1  0
 25 49  1  0
 25 50  1  0
 25 51  1  0
 26 52  1  0
 26 53  1  0
 26 54  1  0
 28 55  1  0
M  END
>  <smiles>  (13) 
CCCCCNC(=O)c1cc2c(=O)n3ccccc3nc2n(CC(C)C)c1=N

>  <score_type>  (13) 
oracle

>  <origin>  (13) 
autodockgpu

>  <m_score__min__energy>  (13) 
-6.6200000000000001

>  <m_primary>  (13) 
energy

>  <meeko>  (13) 
{"free_energy": -6.46, "intermolecular_energy": -8.85, "internal_energy": -1.26, "cluster_size": 7, "cluster_id": 2, "rank_in_cluster": 5}

>  <energy>  (13) 
-6.26

>  <cluster_rmsd>  (13) 
0.58

>  <rmsd>  (13) 
271.35

>  <cluster>  (13) 
2

$$$$

     RDKit          3D

 55 57  0  0  0  0  0  0  0  0999 V2000
  146.3350   73.7660  220.7900 C   0  0  0  0  0  0  0  0  0  0  0  0
  144.9320   73.3070  221.1150 C   0  0  0  0  0  0  0  0  0  0  0  0
  144.3690   72.4000  220.0150 C   0  0  0  0  0  0  0  0  0  0  0  0
  143.2900   71.5580  220.6220 C   0  0  0  0  0  0  0  0  0  0  0  0
  141.9270   72.0330  220.2560 C   0  0  0  0  0  0  0  0  0  0  0  0
  141.7560   73.4570  220.2130 N   0  0  0  0  0  0  0  0  0  0  0  0
  141.0820   74.2210  221.1890 C   0  0  0  0  0  0  0  0  0  0  0  0
  140.5890   73.5810  222.1800 O   0  0  0  0  0  0  0  0  0  0  0  0
  140.9410   75.6670  221.0970 C   0  0  0  0  0  0  0  0  0  0  0  0
  141.6680   76.3090  220.0930 C   0  0  0  0  0  0  0  0  0  0  0  0
  141.5800   77.6790  219.9540 C   0  0  0  0  0  0  0  0  0  0  0  0
  140.1470   76.4180  221.9330 C   0  0  0  0  0  0  0  0  0  0  0  0
  143.0230   77.6970  218.1860 O   0  0  0  0  0  0  0  0  0  0  0  0
  142.2110   79.6980  218.8180 N   0  0  0  0  0  0  0  0  0  0  0  0
  142.9120   80.3060  217.8440 C   0  0  0  0  0  0  0  0  0  0  0  0
  142.8400   81.6780  217.6810 C   0  0  0  0  0  0  0  0  0  0  0  0
  142.0280   82.4140  218.5430 C   0  0  0  0  0  0  0  0  0  0  0  0
  141.3250   81.7360  219.5300 C   0  0  0  0  0  0  0  0  0  0  0  0
  141.4130   80.3550  219.6770 C   0  0  0  0  0  0  0  0  0  0  0  0
  140.7220   79.7210  220.6380 N   0  0  0  0  0  0  0  0  0  0  0  0
  140.7680   78.3960  220.8200 C   0  0  0  0  0  0  0  0  0  0  0  0
  140.0550   77.7680  221.8040 N   0  0  0  0  0  0  0  0  0  0  0  0
  139.2230   78.5260  222.6840 C   0  0  0  0  0  0  0  0  0  0  0  0
  139.9590   79.3820  223.6740 C   0  0  0  0  0  0  0  0  0  0  0  0
  139.8140   80.8590  223.4330 C   0  0  0  0  0  0  0  0  0  0  0  0
  141.4050   78.9740  223.8050 C   0  0  0  0  0  0  0  0  0  0  0  0
  142.2830   78.3520  218.9730 C   0  0  0  0  0  0  0  0  0  0  0  0
  139.4840   75.7870  222.8560 N   0  0  0  0  0  0  0  0  0  0  0  0
  146.8873   73.9467  221.7240 H   0  0  0  0  0  0  0  0  0  0  0  0
  146.8486   72.9891  220.2047 H   0  0  0  0  0  0  0  0  0  0  0  0
  146.2901   74.6963  220.2047 H   0  0  0  0  0  0  0  0  0  0  0  0
  144.9487   72.7503  222.0636 H   0  0  0  0  0  0  0  0  0  0  0  0
  144.2877   74.1951  221.1936 H   0  0  0  0  0  0  0  0  0  0  0  0
  143.9524   73.0127  219.2019 H   0  0  0  0  0  0  0  0  0  0  0  0
  145.1636   71.7636  219.5983 H   0  0  0  0  0  0  0  0  0  0  0  0
  143.4097   70.5226  220.2703 H   0  0  0  0  0  0  0  0  0  0  0  0
  143.3867   71.6255  221.7157 H   0  0  0  0  0  0  0  0  0  0  0  0
  141.6857   71.6332  219.2600 H   0  0  0  0  0  0  0  0  0  0  0  0
  141.2598   71.6744  221.0537 H   0  0  0  0  0  0  0  0  0  0  0  0
  142.1550   74.0070  219.3930 H   0  0  0  0  0  0  0  0  0  0  0  0
  142.3084   75.7251  219.4155 H   0  0  0  0  0  0  0  0  0  0  0  0
  143.5465   79.7085  217.1729 H   0  0  0  0  0  0  0  0  0  0  0  0
  143.4125   82.1787  216.8864 H   0  0  0  0  0  0  0  0  0  0  0  0
  141.9462   83.5064  218.4435 H   0  0  0  0  0  0  0  0  0  0  0  0
  140.6805   82.3065  220.2149 H   0  0  0  0  0  0  0  0  0  0  0  0
  138.5875   79.1825  222.0715 H   0  0  0  0  0  0  0  0  0  0  0  0
  138.6535   77.7936  223.2750 H   0  0  0  0  0  0  0  0  0  0  0  0
  139.4681   79.1951  224.6405 H   0  0  0  0  0  0  0  0  0  0  0  0
  139.7624   81.3846  224.3979 H   0  0  0  0  0  0  0  0  0  0  0  0
  140.6806   81.2242  222.8624 H   0  0  0  0  0  0  0  0  0  0  0  0
  138.8929   81.0487  222.8624 H   0  0  0  0  0  0  0  0  0  0  0  0
  141.6699   78.8993  224.8700 H   0  0  0  0  0  0  0  0  0  0  0  0
  141.5560   77.9982  223.3203 H   0  0  0  0  0  0  0  0  0  0  0  0
  142.0438   79.7270  223.3203 H   0  0  0  0  0  0  0  0  0  0  0  0
  139.2190   74.7990  222.7550 H   0  0  0  0  0  0  0  0  0  0  0  0
  1  2  1  0
  2  3  1  0
  3  4  1  0
  4  5  1  0
  5  6  1  0
  6  7  1  0
  7  8  2  0
  7  9  1  0
  9 10  2  0
 10 11  1  0
 11 12  1  0
 12 13  2  0
 12 14  1  0
 14 15  1  0
 15 16  2  0
 16 17  1  0
 17 18  2  0
 18 19  1  0
 19 20  2  0
 20 21  1  0
 21 22  1  0
 22 23  1  0
 23 24  1  0
 24 25  1  0
 24 26  1  0
 22 27  1  0
 27 28  2  3
 27  9  1  0
 21 11  2  0
 19 14  1  0
  1 29  1  0
  1 30  1  0
  1 31  1  0
  2 32  1  0
  2 33  1  0
  3 34  1  0
  3 35  1  0
  4 36  1  0
  4 37  1  0
  5 38  1  0
  5 39  1  0
  6 40  1  0
 10 41  1  0
 15 42  1  0
 16 43  1  0
 17 44  1  0
 18 45  1  0
 23 46  1  0
 23 47  1  0
 24 48  1  0
 25 49  1  0
 25 50  1  0
 25 51  1  0
 26 52  1  0
 26 53  1  0
 26 54  1  0
 28 55  1  0
M  END
>  <smiles>  (14) 
CCCCCNC(=O)c1cc2c(=O)n3ccccc3nc2n(CC(C)C)c1=N

>  <score_type>  (14) 
oracle

>  <origin>  (14) 
autodockgpu

>  <m_score__min__energy>  (14) 
-6.6200000000000001

>  <m_primary>  (14) 
energy

>  <meeko>  (14) 
{"free_energy": -6.13, "intermolecular_energy": -8.51, "internal_energy": -1.44, "cluster_size": 4, "cluster_id": 4, "rank_in_cluster": 3}

>  <energy>  (14) 
-6.42

>  <cluster_rmsd>  (14) 
0.0

>  <rmsd>  (14) 
271.37

>  <cluster>  (14) 
3

$$$$

     RDKit          3D

 55 57  0  0  0  0  0  0  0  0999 V2000
  141.8110   79.1740  223.8470 C   0  0  0  0  0  0  0  0  0  0  0  0
  141.4250   78.6820  222.4720 C   0  0  0  0  0  0  0  0  0  0  0  0
  141.0150   77.2040  222.4990 C   0  0  0  0  0  0  0  0  0  0  0  0
  139.6210   77.1050  221.9630 C   0  0  0  0  0  0  0  0  0  0  0  0
  139.3970   75.8480  221.1960 C   0  0  0  0  0  0  0  0  0  0  0  0
  139.3170   74.6490  221.9780 N   0  0  0  0  0  0  0  0  0  0  0  0
  139.6880   73.3640  221.5300 C   0  0  0  0  0  0  0  0  0  0  0  0
  140.1240   73.2770  220.3300 O   0  0  0  0  0  0  0  0  0  0  0  0
  139.5900   72.1780  222.3690 C   0  0  0  0  0  0  0  0  0  0  0  0
  140.1590   72.2580  223.6420 C   0  0  0  0  0  0  0  0  0  0  0  0
  140.1020   71.1680  224.4860 C   0  0  0  0  0  0  0  0  0  0  0  0
  138.9810   71.0070  221.9810 C   0  0  0  0  0  0  0  0  0  0  0  0
  141.2200   72.2640  226.1470 O   0  0  0  0  0  0  0  0  0  0  0  0
  140.6070   70.1470  226.6000 N   0  0  0  0  0  0  0  0  0  0  0  0
  141.1540   70.2360  227.8250 C   0  0  0  0  0  0  0  0  0  0  0  0
  141.1090   69.1590  228.6930 C   0  0  0  0  0  0  0  0  0  0  0  0
  140.4860   67.9850  228.2720 C   0  0  0  0  0  0  0  0  0  0  0  0
  139.9370   67.9480  226.9970 C   0  0  0  0  0  0  0  0  0  0  0  0
  139.9950   69.0420  226.1410 C   0  0  0  0  0  0  0  0  0  0  0  0
  139.4540   68.9840  224.9130 N   0  0  0  0  0  0  0  0  0  0  0  0
  139.4790   70.0070  224.0510 C   0  0  0  0  0  0  0  0  0  0  0  0
  138.9210   69.9280  222.8050 N   0  0  0  0  0  0  0  0  0  0  0  0
  138.2820   68.7240  222.3790 C   0  0  0  0  0  0  0  0  0  0  0  0
  139.2120   67.6500  221.8900 C   0  0  0  0  0  0  0  0  0  0  0  0
  139.4880   67.7040  220.4140 C   0  0  0  0  0  0  0  0  0  0  0  0
  138.7640   66.2770  222.3280 C   0  0  0  0  0  0  0  0  0  0  0  0
  140.6520   71.2070  225.7520 C   0  0  0  0  0  0  0  0  0  0  0  0
  138.4620   70.9690  220.7890 N   0  0  0  0  0  0  0  0  0  0  0  0
  141.3220   78.5507  224.6101 H   0  0  0  0  0  0  0  0  0  0  0  0
  142.9027   79.1104  223.9661 H   0  0  0  0  0  0  0  0  0  0  0  0
  141.4894   80.2192  223.9661 H   0  0  0  0  0  0  0  0  0  0  0  0
  140.5796   79.2809  222.1022 H   0  0  0  0  0  0  0  0  0  0  0  0
  142.2975   78.7864  221.8103 H   0  0  0  0  0  0  0  0  0  0  0  0
  141.6997   76.6144  221.8716 H   0  0  0  0  0  0  0  0  0  0  0  0
  141.0602   76.8119  223.5257 H   0  0  0  0  0  0  0  0  0  0  0  0
  138.9151   77.1353  222.8061 H   0  0  0  0  0  0  0  0  0  0  0  0
  139.4642   77.9500  221.2764 H   0  0  0  0  0  0  0  0  0  0  0  0
  138.4527   75.9538  220.6418 H   0  0  0  0  0  0  0  0  0  0  0  0
  140.2807   75.7279  220.5521 H   0  0  0  0  0  0  0  0  0  0  0  0
  138.9520   74.6990  222.9770 H   0  0  0  0  0  0  0  0  0  0  0  0
  140.6503   73.1858  223.9702 H   0  0  0  0  0  0  0  0  0  0  0  0
  141.6406   71.1711  228.1394 H   0  0  0  0  0  0  0  0  0  0  0  0
  141.5561   69.2279  229.6957 H   0  0  0  0  0  0  0  0  0  0  0  0
  140.4306   67.1085  228.9343 H   0  0  0  0  0  0  0  0  0  0  0  0
  139.4423   67.0271  226.6546 H   0  0  0  0  0  0  0  0  0  0  0  0
  137.7123   68.3209  223.2292 H   0  0  0  0  0  0  0  0  0  0  0  0
  137.6508   68.9981  221.5208 H   0  0  0  0  0  0  0  0  0  0  0  0
  140.1775   67.8597  222.3735 H   0  0  0  0  0  0  0  0  0  0  0  0
  140.5552   67.9128  220.2479 H   0  0  0  0  0  0  0  0  0  0  0  0
  139.2279   66.7379  219.9568 H   0  0  0  0  0  0  0  0  0  0  0  0
  138.8830   68.5008  219.9568 H   0  0  0  0  0  0  0  0  0  0  0  0
  138.7485   66.2296  223.4269 H   0  0  0  0  0  0  0  0  0  0  0  0
  137.7546   66.0790  221.9382 H   0  0  0  0  0  0  0  0  0  0  0  0
  139.4623   65.5218  221.9382 H   0  0  0  0  0  0  0  0  0  0  0  0
  138.7200   71.6480  220.0620 H   0  0  0  0  0  0  0  0  0  0  0  0
  1  2  1  0
  2  3  1  0
  3  4  1  0
  4  5  1  0
  5  6  1  0
  6  7  1  0
  7  8  2  0
  7  9  1  0
  9 10  2  0
 10 11  1  0
 11 12  1  0
 12 13  2  0
 12 14  1  0
 14 15  1  0
 15 16  2  0
 16 17  1  0
 17 18  2  0
 18 19  1  0
 19 20  2  0
 20 21  1  0
 21 22  1  0
 22 23  1  0
 23 24  1  0
 24 25  1  0
 24 26  1  0
 22 27  1  0
 27 28  2  3
 27  9  1  0
 21 11  2  0
 19 14  1  0
  1 29  1  0
  1 30  1  0
  1 31  1  0
  2 32  1  0
  2 33  1  0
  3 34  1  0
  3 35  1  0
  4 36  1  0
  4 37  1  0
  5 38  1  0
  5 39  1  0
  6 40  1  0
 10 41  1  0
 15 42  1  0
 16 43  1  0
 17 44  1  0
 18 45  1  0
 23 46  1  0
 23 47  1  0
 24 48  1  0
 25 49  1  0
 25 50  1  0
 25 51  1  0
 26 52  1  0
 26 53  1  0
 26 54  1  0
 28 55  1  0
M  END
>  <smiles>  (15) 
CCCCCNC(=O)c1cc2c(=O)n3ccccc3nc2n(CC(C)C)c1=N

>  <score_type>  (15) 
oracle

>  <origin>  (15) 
autodockgpu

>  <m_score__min__energy>  (15) 
-6.6200000000000001

>  <m_primary>  (15) 
energy

>  <meeko>  (15) 
{"free_energy": -6.42, "intermolecular_energy": -8.8, "internal_energy": -1.28, "cluster_size": 2, "cluster_id": 3, "rank_in_cluster": 1}

>  <energy>  (15) 
-6.33

>  <cluster_rmsd>  (15) 
0.67

>  <rmsd>  (15) 
271.44

>  <cluster>  (15) 
3

$$$$

     RDKit          3D

 55 57  0  0  0  0  0  0  0  0999 V2000
  142.1930   81.5850  223.8380 C   0  0  0  0  0  0  0  0  0  0  0  0
  142.8040   80.2120  223.6710 C   0  0  0  0  0  0  0  0  0  0  0  0
  141.8290   79.1090  224.0990 C   0  0  0  0  0  0  0  0  0  0  0  0
  140.7000   79.0870  223.1160 C   0  0  0  0  0  0  0  0  0  0  0  0
  141.1570   78.7710  221.7340 C   0  0  0  0  0  0  0  0  0  0  0  0
  141.4760   77.3940  221.4860 N   0  0  0  0  0  0  0  0  0  0  0  0
  140.6430   76.3010  221.8040 C   0  0  0  0  0  0  0  0  0  0  0  0
  139.5240   76.5730  222.3600 O   0  0  0  0  0  0  0  0  0  0  0  0
  141.0150   74.9210  221.5250 C   0  0  0  0  0  0  0  0  0  0  0  0
  142.2720   74.7090  220.9570 C   0  0  0  0  0  0  0  0  0  0  0  0
  142.6840   73.4250  220.6650 C   0  0  0  0  0  0  0  0  0  0  0  0
  140.2070   73.8380  221.7840 C   0  0  0  0  0  0  0  0  0  0  0  0
  144.6920   74.1410  219.8510 O   0  0  0  0  0  0  0  0  0  0  0  0
  144.3460   71.9180  219.8100 N   0  0  0  0  0  0  0  0  0  0  0  0
  145.5610   71.7250  219.2670 C   0  0  0  0  0  0  0  0  0  0  0  0
  146.0000   70.4470  218.9680 C   0  0  0  0  0  0  0  0  0  0  0  0
  145.1600   69.3690  219.2410 C   0  0  0  0  0  0  0  0  0  0  0  0
  143.9160   69.6250  219.8030 C   0  0  0  0  0  0  0  0  0  0  0  0
  143.4950   70.9180  220.0950 C   0  0  0  0  0  0  0  0  0  0  0  0
  142.2880   71.1410  220.6400 N   0  0  0  0  0  0  0  0  0  0  0  0
  141.8350   72.3630  220.9430 C   0  0  0  0  0  0  0  0  0  0  0  0
  140.6030   72.5690  221.5000 N   0  0  0  0  0  0  0  0  0  0  0  0
  139.7460   71.4610  221.7800 C   0  0  0  0  0  0  0  0  0  0  0  0
  139.5300   71.1780  223.2400 C   0  0  0  0  0  0  0  0  0  0  0  0
  140.6950   71.5490  224.1140 C   0  0  0  0  0  0  0  0  0  0  0  0
  139.0820   69.7570  223.4750 C   0  0  0  0  0  0  0  0  0  0  0  0
  143.9200   73.1730  220.1040 C   0  0  0  0  0  0  0  0  0  0  0  0
  139.0430   74.0720  222.3140 N   0  0  0  0  0  0  0  0  0  0  0  0
  142.0914   81.8133  224.9092 H   0  0  0  0  0  0  0  0  0  0  0  0
  142.8421   82.3354  223.3631 H   0  0  0  0  0  0  0  0  0  0  0  0
  141.2010   81.6051  223.3631 H   0  0  0  0  0  0  0  0  0  0  0  0
  143.0691   80.0646  222.6136 H   0  0  0  0  0  0  0  0  0  0  0  0
  143.6973   80.1510  224.3100 H   0  0  0  0  0  0  0  0  0  0  0  0
  142.3424   78.1361  224.1006 H   0  0  0  0  0  0  0  0  0  0  0  0
  141.4506   79.3040  225.1133 H   0  0  0  0  0  0  0  0  0  0  0  0
  139.9724   78.3243  223.4306 H   0  0  0  0  0  0  0  0  0  0  0  0
  140.2499   80.0906  223.0994 H   0  0  0  0  0  0  0  0  0  0  0  0
  140.3572   79.0638  221.0378 H   0  0  0  0  0  0  0  0  0  0  0  0
  142.0953   79.3274  221.5928 H   0  0  0  0  0  0  0  0  0  0  0  0
  142.4050   77.1470  221.0290 H   0  0  0  0  0  0  0  0  0  0  0  0
  142.9320   75.5626  220.7429 H   0  0  0  0  0  0  0  0  0  0  0  0
  146.2101   72.5884  219.0591 H   0  0  0  0  0  0  0  0  0  0  0  0
  146.9930   70.2852  218.5233 H   0  0  0  0  0  0  0  0  0  0  0  0
  145.4750   68.3392  219.0166 H   0  0  0  0  0  0  0  0  0  0  0  0
  143.2450   68.7816  220.0233 H   0  0  0  0  0  0  0  0  0  0  0  0
  138.7661   71.6636  221.3231 H   0  0  0  0  0  0  0  0  0  0  0  0
  140.2461   70.5732  221.3656 H   0  0  0  0  0  0  0  0  0  0  0  0
  138.7115   71.8451  223.5482 H   0  0  0  0  0  0  0  0  0  0  0  0
  140.4046   71.4565  225.1709 H   0  0  0  0  0  0  0  0  0  0  0  0
  141.5391   70.8752  223.9054 H   0  0  0  0  0  0  0  0  0  0  0  0
  140.9940   72.5868  223.9054 H   0  0  0  0  0  0  0  0  0  0  0  0
  139.0217   69.5657  224.5566 H   0  0  0  0  0  0  0  0  0  0  0  0
  138.0922   69.6046  223.0199 H   0  0  0  0  0  0  0  0  0  0  0  0
  139.8054   69.0645  223.0199 H   0  0  0  0  0  0  0  0  0  0  0  0
  138.9260   74.7180  223.1060 H   0  0  0  0  0  0  0  0  0  0  0  0
  1  2  1  0
  2  3  1  0
  3  4  1  0
  4  5  1  0
  5  6  1  0
  6  7  1  0
  7  8  2  0
  7  9  1  0
  9 10  2  0
 10 11  1  0
 11 12  1  0
 12 13  2  0
 12 14  1  0
 14 15  1  0
 15 16  2  0
 16 17  1  0
 17 18  2  0
 18 19  1  0
 19 20  2  0
 20 21  1  0
 21 22  1  0
 22 23  1  0
 23 24  1  0
 24 25  1  0
 24 26  1  0
 22 27  1  0
 27 28  2  3
 27  9  1  0
 21 11  2  0
 19 14  1  0
  1 29  1  0
  1 30  1  0
  1 31  1  0
  2 32  1  0
  2 33  1  0
  3 34  1  0
  3 35  1  0
  4 36  1  0
  4 37  1  0
  5 38  1  0
  5 39  1  0
  6 40  1  0
 10 41  1  0
 15 42  1  0
 16 43  1  0
 17 44  1  0
 18 45  1  0
 23 46  1  0
 23 47  1  0
 24 48  1  0
 25 49  1  0
 25 50  1  0
 25 51  1  0
 26 52  1  0
 26 53  1  0
 26 54  1  0
 28 55  1  0
M  END
>  <smiles>  (16) 
CCCCCNC(=O)c1cc2c(=O)n3ccccc3nc2n(CC(C)C)c1=N

>  <score_type>  (16) 
oracle

>  <origin>  (16) 
autodockgpu

>  <m_score__min__energy>  (16) 
-6.6200000000000001

>  <m_primary>  (16) 
energy

>  <meeko>  (16) 
{"free_energy": -6.58, "intermolecular_energy": -8.97, "internal_energy": -1.19, "cluster_size": 7, "cluster_id": 2, "rank_in_cluster": 2}

>  <energy>  (16) 
-6.36

>  <cluster_rmsd>  (16) 
0.0

>  <rmsd>  (16) 
271.45

>  <cluster>  (16) 
4

$$$$

     RDKit          3D

 55 57  0  0  0  0  0  0  0  0999 V2000
  146.3180   73.7330  220.8430 C   0  0  0  0  0  0  0  0  0  0  0  0
  144.9570   73.1250  221.0930 C   0  0  0  0  0  0  0  0  0  0  0  0
  144.2910   72.6830  219.7840 C   0  0  0  0  0  0  0  0  0  0  0  0
  143.3610   71.5540  220.1010 C   0  0  0  0  0  0  0  0  0  0  0  0
  141.9750   72.0220  220.3800 C   0  0  0  0  0  0  0  0  0  0  0  0
  141.7680   73.4390  220.2870 N   0  0  0  0  0  0  0  0  0  0  0  0
  141.1080   74.2250  221.2550 C   0  0  0  0  0  0  0  0  0  0  0  0
  140.6630   73.6130  222.2860 O   0  0  0  0  0  0  0  0  0  0  0  0
  140.9280   75.6620  221.1120 C   0  0  0  0  0  0  0  0  0  0  0  0
  141.6950   76.3000  220.1350 C   0  0  0  0  0  0  0  0  0  0  0  0
  141.5740   77.6620  219.9510 C   0  0  0  0  0  0  0  0  0  0  0  0
  140.0620   76.4110  221.8770 C   0  0  0  0  0  0  0  0  0  0  0  0
  143.1200   77.6780  218.2730 O   0  0  0  0  0  0  0  0  0  0  0  0
  142.2110   79.6680  218.7960 N   0  0  0  0  0  0  0  0  0  0  0  0
  142.9510   80.2720  217.8490 C   0  0  0  0  0  0  0  0  0  0  0  0
  142.8460   81.6350  217.6410 C   0  0  0  0  0  0  0  0  0  0  0  0
  141.9620   82.3680  218.4300 C   0  0  0  0  0  0  0  0  0  0  0  0
  141.2210   81.6950  219.3930 C   0  0  0  0  0  0  0  0  0  0  0  0
  141.3420   80.3230  219.5850 C   0  0  0  0  0  0  0  0  0  0  0  0
  140.6130   79.6930  220.5210 N   0  0  0  0  0  0  0  0  0  0  0  0
  140.6890   78.3760  220.7450 C   0  0  0  0  0  0  0  0  0  0  0  0
  139.9370   77.7530  221.7030 N   0  0  0  0  0  0  0  0  0  0  0  0
  139.0300   78.5070  222.5080 C   0  0  0  0  0  0  0  0  0  0  0  0
  139.6770   79.3900  223.5370 C   0  0  0  0  0  0  0  0  0  0  0  0
  139.4720   80.8590  223.2990 C   0  0  0  0  0  0  0  0  0  0  0  0
  141.1340   79.0500  223.7330 C   0  0  0  0  0  0  0  0  0  0  0  0
  142.3140   78.3300  218.9950 C   0  0  0  0  0  0  0  0  0  0  0  0
  139.3640   75.7840  222.7760 N   0  0  0  0  0  0  0  0  0  0  0  0
  146.8048   73.9505  221.8052 H   0  0  0  0  0  0  0  0  0  0  0  0
  146.9362   73.0255  220.2710 H   0  0  0  0  0  0  0  0  0  0  0  0
  146.2035   74.6656  220.2710 H   0  0  0  0  0  0  0  0  0  0  0  0
  145.0714   72.2497  221.7494 H   0  0  0  0  0  0  0  0  0  0  0  0
  144.3195   73.8871  221.5650 H   0  0  0  0  0  0  0  0  0  0  0  0
  143.7269   73.5215  219.3497 H   0  0  0  0  0  0  0  0  0  0  0  0
  145.0507   72.3616  219.0563 H   0  0  0  0  0  0  0  0  0  0  0  0
  143.3356   70.8657  219.2433 H   0  0  0  0  0  0  0  0  0  0  0  0
  143.7355   71.0551  221.0070 H   0  0  0  0  0  0  0  0  0  0  0  0
  141.3017   71.5338  219.6601 H   0  0  0  0  0  0  0  0  0  0  0  0
  141.7734   71.7569  221.4284 H   0  0  0  0  0  0  0  0  0  0  0  0
  142.1260   73.9650  219.4340 H   0  0  0  0  0  0  0  0  0  0  0  0
  142.3930   75.7189  219.5144 H   0  0  0  0  0  0  0  0  0  0  0  0
  143.6444   79.6777  217.2359 H   0  0  0  0  0  0  0  0  0  0  0  0
  143.4494   82.1315  216.8668 H   0  0  0  0  0  0  0  0  0  0  0  0
  141.8535   83.4541  218.2935 H   0  0  0  0  0  0  0  0  0  0  0  0
  140.5190   82.2630  220.0212 H   0  0  0  0  0  0  0  0  0  0  0  0
  138.4300   79.1435  221.8410 H   0  0  0  0  0  0  0  0  0  0  0  0
  138.4312   77.7724  223.0663 H   0  0  0  0  0  0  0  0  0  0  0  0
  139.1512   79.1725  224.4784 H   0  0  0  0  0  0  0  0  0  0  0  0
  139.3993   81.3803  224.2649 H   0  0  0  0  0  0  0  0  0  0  0  0
  140.3228   81.2603  222.7289 H   0  0  0  0  0  0  0  0  0  0  0  0
  138.5438   81.0121  222.7289 H   0  0  0  0  0  0  0  0  0  0  0  0
  141.3569   78.9980  224.8089 H   0  0  0  0  0  0  0  0  0  0  0  0
  141.3495   78.0774  223.2665 H   0  0  0  0  0  0  0  0  0  0  0  0
  141.7577   79.8267  223.2665 H   0  0  0  0  0  0  0  0  0  0  0  0
  139.5770   74.8170  223.0540 H   0  0  0  0  0  0  0  0  0  0  0  0
  1  2  1  0
  2  3  1  0
  3  4  1  0
  4  5  1  0
  5  6  1  0
  6  7  1  0
  7  8  2  0
  7  9  1  0
  9 10  2  0
 10 11  1  0
 11 12  1  0
 12 13  2  0
 12 14  1  0
 14 15  1  0
 15 16  2  0
 16 17  1  0
 17 18  2  0
 18 19  1  0
 19 20  2  0
 20 21  1  0
 21 22  1  0
 22 23  1  0
 23 24  1  0
 24 25  1  0
 24 26  1  0
 22 27  1  0
 27 28  2  3
 27  9  1  0
 21 11  2  0
 19 14  1  0
  1 29  1  0
  1 30  1  0
  1 31  1  0
  2 32  1  0
  2 33  1  0
  3 34  1  0
  3 35  1  0
  4 36  1  0
  4 37  1  0
  5 38  1  0
  5 39  1  0
  6 40  1  0
 10 41  1  0
 15 42  1  0
 16 43  1  0
 17 44  1  0
 18 45  1  0
 23 46  1  0
 23 47  1  0
 24 48  1  0
 25 49  1  0
 25 50  1  0
 25 51  1  0
 26 52  1  0
 26 53  1  0
 26 54  1  0
 28 55  1  0
M  END
>  <smiles>  (17) 
CCCCCNC(=O)c1cc2c(=O)n3ccccc3nc2n(CC(C)C)c1=N

>  <score_type>  (17) 
oracle

>  <origin>  (17) 
autodockgpu

>  <m_score__min__energy>  (17) 
-6.6200000000000001

>  <m_primary>  (17) 
energy

>  <meeko>  (17) 
{"free_energy": -6.11, "intermolecular_energy": -8.5, "internal_energy": -1.47, "cluster_size": 4, "cluster_id": 4, "rank_in_cluster": 4}

>  <energy>  (17) 
-6.3

>  <cluster_rmsd>  (17) 
0.15

>  <rmsd>  (17) 
271.4

>  <cluster>  (17) 
4

$$$$

     RDKit          3D

 55 57  0  0  0  0  0  0  0  0999 V2000
  141.0610   71.8720  226.8920 C   0  0  0  0  0  0  0  0  0  0  0  0
  140.5740   70.6910  226.0850 C   0  0  0  0  0  0  0  0  0  0  0  0
  139.7040   71.1390  224.9040 C   0  0  0  0  0  0  0  0  0  0  0  0
  140.6180   71.5800  223.8030 C   0  0  0  0  0  0  0  0  0  0  0  0
  139.8750   71.9830  222.5770 C   0  0  0  0  0  0  0  0  0  0  0  0
  139.8100   73.3940  222.3270 N   0  0  0  0  0  0  0  0  0  0  0  0
  140.7590   74.1300  221.5870 C   0  0  0  0  0  0  0  0  0  0  0  0
  141.7500   73.4760  221.1120 O   0  0  0  0  0  0  0  0  0  0  0  0
  140.6410   75.5630  221.3590 C   0  0  0  0  0  0  0  0  0  0  0  0
  141.4630   76.1160  220.3760 C   0  0  0  0  0  0  0  0  0  0  0  0
  141.4020   77.4690  220.1130 C   0  0  0  0  0  0  0  0  0  0  0  0
  139.7810   76.3850  222.0510 C   0  0  0  0  0  0  0  0  0  0  0  0
  143.0010   77.3340  218.4910 O   0  0  0  0  0  0  0  0  0  0  0  0
  142.1530   79.3820  218.8730 N   0  0  0  0  0  0  0  0  0  0  0  0
  142.9470   79.9040  217.9200 C   0  0  0  0  0  0  0  0  0  0  0  0
  142.9020   81.2570  217.6350 C   0  0  0  0  0  0  0  0  0  0  0  0
  142.0220   82.0650  218.3510 C   0  0  0  0  0  0  0  0  0  0  0  0
  141.2240   81.4750  219.3240 C   0  0  0  0  0  0  0  0  0  0  0  0
  141.2860   80.1120  219.5950 C   0  0  0  0  0  0  0  0  0  0  0  0
  140.5030   79.5630  220.5380 N   0  0  0  0  0  0  0  0  0  0  0  0
  140.5200   78.2590  220.8360 C   0  0  0  0  0  0  0  0  0  0  0  0
  139.7130   77.7190  221.8000 N   0  0  0  0  0  0  0  0  0  0  0  0
  138.8110   78.5500  222.5310 C   0  0  0  0  0  0  0  0  0  0  0  0
  139.4450   79.7240  223.2210 C   0  0  0  0  0  0  0  0  0  0  0  0
  140.7840   79.4230  223.8340 C   0  0  0  0  0  0  0  0  0  0  0  0
  138.5060   80.3690  224.2110 C   0  0  0  0  0  0  0  0  0  0  0  0
  142.1970   78.0540  219.1480 C   0  0  0  0  0  0  0  0  0  0  0  0
  139.0290   75.8360  222.9590 N   0  0  0  0  0  0  0  0  0  0  0  0
  140.9680   71.6465  227.9646 H   0  0  0  0  0  0  0  0  0  0  0  0
  142.1151   72.0722  226.6494 H   0  0  0  0  0  0  0  0  0  0  0  0
  140.4544   72.7570  226.6494 H   0  0  0  0  0  0  0  0  0  0  0  0
  141.4434   70.1384  225.6994 H   0  0  0  0  0  0  0  0  0  0  0  0
  139.9642   70.0522  226.7408 H   0  0  0  0  0  0  0  0  0  0  0  0
  139.0805   70.3008  224.5595 H   0  0  0  0  0  0  0  0  0  0  0  0
  139.0412   71.9632  225.2062 H   0  0  0  0  0  0  0  0  0  0  0  0
  141.2087   72.4380  224.1564 H   0  0  0  0  0  0  0  0  0  0  0  0
  141.2627   70.7283  223.5403 H   0  0  0  0  0  0  0  0  0  0  0  0
  140.3643   71.5086  221.7136 H   0  0  0  0  0  0  0  0  0  0  0  0
  138.8362   71.6572  222.7342 H   0  0  0  0  0  0  0  0  0  0  0  0
  138.9950   73.9580  222.7170 H   0  0  0  0  0  0  0  0  0  0  0  0
  142.1573   75.4752  219.8127 H   0  0  0  0  0  0  0  0  0  0  0  0
  143.6360   79.2509  217.3643 H   0  0  0  0  0  0  0  0  0  0  0  0
  143.5497   81.6870  216.8568 H   0  0  0  0  0  0  0  0  0  0  0  0
  141.9600   83.1449  218.1511 H   0  0  0  0  0  0  0  0  0  0  0  0
  140.5244   82.1029  219.8953 H   0  0  0  0  0  0  0  0  0  0  0  0
  138.0561   78.9339  221.8291 H   0  0  0  0  0  0  0  0  0  0  0  0
  138.3879   77.9185  223.3261 H   0  0  0  0  0  0  0  0  0  0  0  0
  139.6472   80.4549  222.4242 H   0  0  0  0  0  0  0  0  0  0  0  0
  140.6980   79.4423  224.9305 H   0  0  0  0  0  0  0  0  0  0  0  0
  141.1200   78.4269  223.5101 H   0  0  0  0  0  0  0  0  0  0  0  0
  141.5140   80.1795  223.5101 H   0  0  0  0  0  0  0  0  0  0  0  0
  138.8386   80.1405  225.2343 H   0  0  0  0  0  0  0  0  0  0  0  0
  138.5060   81.4586  224.0601 H   0  0  0  0  0  0  0  0  0  0  0  0
  137.4890   79.9780  224.0601 H   0  0  0  0  0  0  0  0  0  0  0  0
  139.3450   75.0280  223.5110 H   0  0  0  0  0  0  0  0  0  0  0  0
  1  2  1  0
  2  3  1  0
  3  4  1  0
  4  5  1  0
  5  6  1  0
  6  7  1  0
  7  8  2  0
  7  9  1  0
  9 10  2  0
 10 11  1  0
 11 12  1  0
 12 13  2  0
 12 14  1  0
 14 15  1  0
 15 16  2  0
 16 17  1  0
 17 18  2  0
 18 19  1  0
 19 20  2  0
 20 21  1  0
 21 22  1  0
 22 23  1  0
 23 24  1  0
 24 25  1  0
 24 26  1  0
 22 27  1  0
 27 28  2  3
 27  9  1  0
 21 11  2  0
 19 14  1  0
  1 29  1  0
  1 30  1  0
  1 31  1  0
  2 32  1  0
  2 33  1  0
  3 34  1  0
  3 35  1  0
  4 36  1  0
  4 37  1  0
  5 38  1  0
  5 39  1  0
  6 40  1  0
 10 41  1  0
 15 42  1  0
 16 43  1  0
 17 44  1  0
 18 45  1  0
 23 46  1  0
 23 47  1  0
 24 48  1  0
 25 49  1  0
 25 50  1  0
 25 51  1  0
 26 52  1  0
 26 53  1  0
 26 54  1  0
 28 55  1  0
M  END
>  <smiles>  (18) 
CCCCCNC(=O)c1cc2c(=O)n3ccccc3nc2n(CC(C)C)c1=N

>  <score_type>  (18) 
oracle

>  <origin>  (18) 
autodockgpu

>  <m_score__min__energy>  (18) 
-6.6200000000000001

>  <m_primary>  (18) 
energy

>  <meeko>  (18) 
{"free_energy": -6.54, "intermolecular_energy": -8.93, "internal_energy": -1.08, "cluster_size": 6, "cluster_id": 1, "rank_in_cluster": 6}

>  <energy>  (18) 
-6.13

>  <cluster_rmsd>  (18) 
0.32

>  <rmsd>  (18) 
271.36

>  <cluster>  (18) 
4

$$$$

     RDKit          3D

 55 57  0  0  0  0  0  0  0  0999 V2000
  141.0640   71.9480  227.1540 C   0  0  0  0  0  0  0  0  0  0  0  0
  140.3020   71.0290  226.2270 C   0  0  0  0  0  0  0  0  0  0  0  0
  140.7880   71.1640  224.7790 C   0  0  0  0  0  0  0  0  0  0  0  0
  139.6050   71.5110  223.9300 C   0  0  0  0  0  0  0  0  0  0  0  0
  139.9970   71.9460  222.5610 C   0  0  0  0  0  0  0  0  0  0  0  0
  139.9160   73.3560  222.3100 N   0  0  0  0  0  0  0  0  0  0  0  0
  140.8530   74.1010  221.5630 C   0  0  0  0  0  0  0  0  0  0  0  0
  141.8480   73.4560  221.0830 O   0  0  0  0  0  0  0  0  0  0  0  0
  140.7190   75.5330  221.3360 C   0  0  0  0  0  0  0  0  0  0  0  0
  141.5380   76.0950  220.3550 C   0  0  0  0  0  0  0  0  0  0  0  0
  141.4610   77.4480  220.0920 C   0  0  0  0  0  0  0  0  0  0  0  0
  139.8470   76.3440  222.0250 C   0  0  0  0  0  0  0  0  0  0  0  0
  143.0670   77.3310  218.4750 O   0  0  0  0  0  0  0  0  0  0  0  0
  142.1950   79.3690  218.8540 N   0  0  0  0  0  0  0  0  0  0  0  0
  142.9850   79.9000  217.9040 C   0  0  0  0  0  0  0  0  0  0  0  0
  142.9260   81.2520  217.6180 C   0  0  0  0  0  0  0  0  0  0  0  0
  142.0340   82.0510  218.3320 C   0  0  0  0  0  0  0  0  0  0  0  0
  141.2400   81.4510  219.3020 C   0  0  0  0  0  0  0  0  0  0  0  0
  141.3160   80.0890  219.5730 C   0  0  0  0  0  0  0  0  0  0  0  0
  140.5370   79.5310  220.5140 N   0  0  0  0  0  0  0  0  0  0  0  0
  140.5680   78.2270  220.8120 C   0  0  0  0  0  0  0  0  0  0  0  0
  139.7650   77.6780  221.7730 N   0  0  0  0  0  0  0  0  0  0  0  0
  138.8500   78.4990  222.5010 C   0  0  0  0  0  0  0  0  0  0  0  0
  139.4710   79.6700  223.2070 C   0  0  0  0  0  0  0  0  0  0  0  0
  140.8030   79.3710  223.8350 C   0  0  0  0  0  0  0  0  0  0  0  0
  138.5170   80.3050  224.1880 C   0  0  0  0  0  0  0  0  0  0  0  0
  142.2530   78.0420  219.1300 C   0  0  0  0  0  0  0  0  0  0  0  0
  139.0990   75.7870  222.9300 N   0  0  0  0  0  0  0  0  0  0  0  0
  140.8429   71.6813  228.1980 H   0  0  0  0  0  0  0  0  0  0  0  0
  142.1432   71.8425  226.9693 H   0  0  0  0  0  0  0  0  0  0  0  0
  140.7605   72.9890  226.9693 H   0  0  0  0  0  0  0  0  0  0  0  0
  140.4452   69.9894  226.5568 H   0  0  0  0  0  0  0  0  0  0  0  0
  139.2384   71.3074  226.2619 H   0  0  0  0  0  0  0  0  0  0  0  0
  141.5441   71.9601  224.7107 H   0  0  0  0  0  0  0  0  0  0  0  0
  141.2436   70.2229  224.4372 H   0  0  0  0  0  0  0  0  0  0  0  0
  138.9575   70.6256  223.8475 H   0  0  0  0  0  0  0  0  0  0  0  0
  139.0811   72.3499  224.4114 H   0  0  0  0  0  0  0  0  0  0  0  0
  141.0373   71.6316  222.3913 H   0  0  0  0  0  0  0  0  0  0  0  0
  139.2728   71.4775  221.8783 H   0  0  0  0  0  0  0  0  0  0  0  0
  139.0980   73.9120  222.7050 H   0  0  0  0  0  0  0  0  0  0  0  0
  142.2417   75.4624  219.7940 H   0  0  0  0  0  0  0  0  0  0  0  0
  143.6830   79.2546  217.3505 H   0  0  0  0  0  0  0  0  0  0  0  0
  143.5710   81.6888  216.8414 H   0  0  0  0  0  0  0  0  0  0  0  0
  141.9605   83.1302  218.1324 H   0  0  0  0  0  0  0  0  0  0  0  0
  140.5316   82.0707  219.8714 H   0  0  0  0  0  0  0  0  0  0  0  0
  138.1010   78.8850  221.7939 H   0  0  0  0  0  0  0  0  0  0  0  0
  138.4208   77.8592  223.2861 H   0  0  0  0  0  0  0  0  0  0  0  0
  139.6815   80.4064  222.4174 H   0  0  0  0  0  0  0  0  0  0  0  0
  140.7051   79.3930  224.9304 H   0  0  0  0  0  0  0  0  0  0  0  0
  141.1428   78.3742  223.5172 H   0  0  0  0  0  0  0  0  0  0  0  0
  141.5362   80.1269  223.5172 H   0  0  0  0  0  0  0  0  0  0  0  0
  138.8465   80.0856  225.2143 H   0  0  0  0  0  0  0  0  0  0  0  0
  138.5021   81.3939  224.0325 H   0  0  0  0  0  0  0  0  0  0  0  0
  137.5067   79.8985  224.0325 H   0  0  0  0  0  0  0  0  0  0  0  0
  139.4180   74.9740  223.4740 H   0  0  0  0  0  0  0  0  0  0  0  0
  1  2  1  0
  2  3  1  0
  3  4  1  0
  4  5  1  0
  5  6  1  0
  6  7  1  0
  7  8  2  0
  7  9  1  0
  9 10  2  0
 10 11  1  0
 11 12  1  0
 12 13  2  0
 12 14  1  0
 14 15  1  0
 15 16  2  0
 16 17  1  0
 17 18  2  0
 18 19  1  0
 19 20  2  0
 20 21  1  0
 21 22  1  0
 22 23  1  0
 23 24  1  0
 24 25  1  0
 24 26  1  0
 22 27  1  0
 27 28  2  3
 27  9  1  0
 21 11  2  0
 19 14  1  0
  1 29  1  0
  1 30  1  0
  1 31  1  0
  2 32  1  0
  2 33  1  0
  3 34  1  0
  3 35  1  0
  4 36  1  0
  4 37  1  0
  5 38  1  0
  5 39  1  0
  6 40  1  0
 10 41  1  0
 15 42  1  0
 16 43  1  0
 17 44  1  0
 18 45  1  0
 23 46  1  0
 23 47  1  0
 24 48  1  0
 25 49  1  0
 25 50  1  0
 25 51  1  0
 26 52  1  0
 26 53  1  0
 26 54  1  0
 28 55  1  0
M  END
>  <smiles>  (19) 
CCCCCNC(=O)c1cc2c(=O)n3ccccc3nc2n(CC(C)C)c1=N

>  <score_type>  (19) 
oracle

>  <origin>  (19) 
autodockgpu

>  <m_score__min__energy>  (19) 
-6.6200000000000001

>  <m_primary>  (19) 
energy

>  <meeko>  (19) 
{"free_energy": -6.58, "intermolecular_energy": -8.96, "internal_energy": -1.06, "cluster_size": 6, "cluster_id": 1, "rank_in_cluster": 3}

>  <energy>  (19) 
-6.11

>  <cluster_rmsd>  (19) 
0.33

>  <rmsd>  (19) 
271.3

>  <cluster>  (19) 
4

$$$$

     RDKit          3D

 55 57  0  0  0  0  0  0  0  0999 V2000
  141.0070   71.9080  227.1210 C   0  0  0  0  0  0  0  0  0  0  0  0
  141.0230   70.9720  225.9350 C   0  0  0  0  0  0  0  0  0  0  0  0
  139.9860   71.3810  224.8820 C   0  0  0  0  0  0  0  0  0  0  0  0
  140.6870   71.4840  223.5640 C   0  0  0  0  0  0  0  0  0  0  0  0
  139.7900   71.9770  222.4820 C   0  0  0  0  0  0  0  0  0  0  0  0
  139.7830   73.3980  222.2810 N   0  0  0  0  0  0  0  0  0  0  0  0
  140.7400   74.1140  221.5310 C   0  0  0  0  0  0  0  0  0  0  0  0
  141.6820   73.4310  221.0000 O   0  0  0  0  0  0  0  0  0  0  0  0
  140.6820   75.5580  221.3560 C   0  0  0  0  0  0  0  0  0  0  0  0
  141.4540   76.1000  220.3260 C   0  0  0  0  0  0  0  0  0  0  0  0
  141.4450   77.4620  220.1090 C   0  0  0  0  0  0  0  0  0  0  0  0
  139.9230   76.3990  222.1370 C   0  0  0  0  0  0  0  0  0  0  0  0
  142.9040   77.2980  218.3620 O   0  0  0  0  0  0  0  0  0  0  0  0
  142.2000   79.3740  218.8680 N   0  0  0  0  0  0  0  0  0  0  0  0
  142.9450   79.8850  217.8710 C   0  0  0  0  0  0  0  0  0  0  0  0
  142.9510   81.2470  217.6290 C   0  0  0  0  0  0  0  0  0  0  0  0
  142.1740   82.0760  218.4370 C   0  0  0  0  0  0  0  0  0  0  0  0
  141.4240   81.4960  219.4520 C   0  0  0  0  0  0  0  0  0  0  0  0
  141.4320   80.1230  219.6770 C   0  0  0  0  0  0  0  0  0  0  0  0
  140.6970   79.5840  220.6640 N   0  0  0  0  0  0  0  0  0  0  0  0
  140.6660   78.2720  220.9220 C   0  0  0  0  0  0  0  0  0  0  0  0
  139.9090   77.7430  221.9310 N   0  0  0  0  0  0  0  0  0  0  0  0
  139.1120   78.5950  222.7540 C   0  0  0  0  0  0  0  0  0  0  0  0
  139.8850   79.4630  223.7060 C   0  0  0  0  0  0  0  0  0  0  0  0
  139.8060   80.9310  223.3960 C   0  0  0  0  0  0  0  0  0  0  0  0
  141.3120   78.9970  223.8590 C   0  0  0  0  0  0  0  0  0  0  0  0
  142.1940   78.0370  219.1010 C   0  0  0  0  0  0  0  0  0  0  0  0
  139.2160   75.8600  223.0850 N   0  0  0  0  0  0  0  0  0  0  0  0
  141.0170   71.3212  228.0514 H   0  0  0  0  0  0  0  0  0  0  0  0
  141.8942   72.5575  227.0875 H   0  0  0  0  0  0  0  0  0  0  0  0
  140.0982   72.5268  227.0875 H   0  0  0  0  0  0  0  0  0  0  0  0
  142.0233   70.9914  225.4779 H   0  0  0  0  0  0  0  0  0  0  0  0
  140.7741   69.9610  226.2899 H   0  0  0  0  0  0  0  0  0  0  0  0
  139.1917   70.6222  224.8249 H   0  0  0  0  0  0  0  0  0  0  0  0
  139.5273   72.3445  225.1491 H   0  0  0  0  0  0  0  0  0  0  0  0
  141.5325   72.1801  223.6668 H   0  0  0  0  0  0  0  0  0  0  0  0
  141.0273   70.4759  223.2849 H   0  0  0  0  0  0  0  0  0  0  0  0
  140.1042   71.5036  221.5401 H   0  0  0  0  0  0  0  0  0  0  0  0
  138.7689   71.7124  222.7941 H   0  0  0  0  0  0  0  0  0  0  0  0
  139.0100   73.9840  222.7190 H   0  0  0  0  0  0  0  0  0  0  0  0
  142.0665   75.4434  219.6906 H   0  0  0  0  0  0  0  0  0  0  0  0
  143.5530   79.2157  217.2445 H   0  0  0  0  0  0  0  0  0  0  0  0
  143.5578   81.6683  216.8139 H   0  0  0  0  0  0  0  0  0  0  0  0
  142.1554   83.1638  218.2745 H   0  0  0  0  0  0  0  0  0  0  0  0
  140.8067   82.1399  220.0957 H   0  0  0  0  0  0  0  0  0  0  0  0
  138.5226   79.2507  222.0963 H   0  0  0  0  0  0  0  0  0  0  0  0
  138.4941   77.9309  223.3763 H   0  0  0  0  0  0  0  0  0  0  0  0
  139.3861   79.3437  224.6791 H   0  0  0  0  0  0  0  0  0  0  0  0
  139.7752   81.5029  224.3351 H   0  0  0  0  0  0  0  0  0  0  0  0
  140.6893   81.2307  222.8130 H   0  0  0  0  0  0  0  0  0  0  0  0
  138.8956   81.1342  222.8130 H   0  0  0  0  0  0  0  0  0  0  0  0
  141.5588   78.9164  224.9279 H   0  0  0  0  0  0  0  0  0  0  0  0
  141.4299   78.0137  223.3803 H   0  0  0  0  0  0  0  0  0  0  0  0
  141.9875   79.7212  223.3803 H   0  0  0  0  0  0  0  0  0  0  0  0
  138.4210   75.2400  222.8850 H   0  0  0  0  0  0  0  0  0  0  0  0
  1  2  1  0
  2  3  1  0
  3  4  1  0
  4  5  1  0
  5  6  1  0
  6  7  1  0
  7  8  2  0
  7  9  1  0
  9 10  2  0
 10 11  1  0
 11 12  1  0
 12 13  2  0
 12 14  1  0
 14 15  1  0
 15 16  2  0
 16 17  1  0
 17 18  2  0
 18 19  1  0
 19 20  2  0
 20 21  1  0
 21 22  1  0
 22 23  1  0
 23 24  1  0
 24 25  1  0
 24 26  1  0
 22 27  1  0
 27 28  2  3
 27  9  1  0
 21 11  2  0
 19 14  1  0
  1 29  1  0
  1 30  1  0
  1 31  1  0
  2 32  1  0
  2 33  1  0
  3 34  1  0
  3 35  1  0
  4 36  1  0
  4 37  1  0
  5 38  1  0
  5 39  1  0
  6 40  1  0
 10 41  1  0
 15 42  1  0
 16 43  1  0
 17 44  1  0
 18 45  1  0
 23 46  1  0
 23 47  1  0
 24 48  1  0
 25 49  1  0
 25 50  1  0
 25 51  1  0
 26 52  1  0
 26 53  1  0
 26 54  1  0
 28 55  1  0
M  END
>  <smiles>  (20) 
CCCCCNC(=O)c1cc2c(=O)n3ccccc3nc2n(CC(C)C)c1=N

>  <score_type>  (20) 
oracle

>  <origin>  (20) 
autodockgpu

>  <m_score__min__energy>  (20) 
-6.6200000000000001

>  <m_primary>  (20) 
energy

>  <meeko>  (20) 
{"free_energy": -6.58, "intermolecular_energy": -8.97, "internal_energy": -1.17, "cluster_size": 6, "cluster_id": 1, "rank_in_cluster": 2}

>  <energy>  (20) 
-6.13

>  <cluster_rmsd>  (20) 
0.0

>  <rmsd>  (20) 
271.89

>  <cluster>  (20) 
5

$$$$
