NKXSPJYDRINBNN-SEQHFDQZNA-N
     RDKit          3D

 47 48  0  0  0  0  0  0  0  0999 V2000
  141.8260   76.1990  222.6460 H   0  0  0  0  0  0  0  0  0  0  0  0
  141.1650   76.8440  223.0650 O   0  0  0  0  0  0  0  0  0  0  0  0
  141.0280   78.1570  222.6180 C   0  0  0  0  0  0  0  0  0  0  0  0
  141.3870   79.1760  223.4200 C   0  0  0  0  0  0  0  0  0  0  0  0
  140.7074   79.4481  224.2410 H   0  0  0  0  0  0  0  0  0  0  0  0
  142.6580   79.9680  223.2670 C   0  0  0  0  0  0  0  0  0  0  0  0
  142.8306   80.1665  222.1989 H   0  0  0  0  0  0  0  0  0  0  0  0
  143.4865   79.3821  223.6917 H   0  0  0  0  0  0  0  0  0  0  0  0
  142.5740   81.2970  224.0130 C   0  0  0  0  0  0  0  0  0  0  0  0
  142.5858   81.1104  225.0970 H   0  0  0  0  0  0  0  0  0  0  0  0
  143.4342   81.9258  223.7398 H   0  0  0  0  0  0  0  0  0  0  0  0
  141.6415   81.8125  223.7398 H   0  0  0  0  0  0  0  0  0  0  0  0
  140.5270   78.3750  221.2910 N   0  0  0  0  0  0  0  0  0  0  0  0
  139.5080   78.1950  221.1470 H   0  0  0  0  0  0  0  0  0  0  0  0
  141.2380   79.1200  220.2800 C   0  0  0  0  0  0  0  0  0  0  0  0
  141.1800   80.5280  220.2640 C   0  0  0  0  0  0  0  0  0  0  0  0
  140.6291   81.0594  221.0540 H   0  0  0  0  0  0  0  0  0  0  0  0
  141.8150   81.2550  219.2550 C   0  0  0  0  0  0  0  0  0  0  0  0
  141.7674   82.3540  219.2573 H   0  0  0  0  0  0  0  0  0  0  0  0
  142.5090   80.5910  218.2450 C   0  0  0  0  0  0  0  0  0  0  0  0
  143.0067   81.1663  217.4504 H   0  0  0  0  0  0  0  0  0  0  0  0
  142.5730   79.1970  218.2410 C   0  0  0  0  0  0  0  0  0  0  0  0
  143.1224   78.6795  217.4408 H   0  0  0  0  0  0  0  0  0  0  0  0
  141.9420   78.4470  219.2500 C   0  0  0  0  0  0  0  0  0  0  0  0
  142.0670   76.9740  219.2340 C   0  0  0  0  0  0  0  0  0  0  0  0
  141.8810   76.3490  218.1550 O   0  0  0  0  0  0  0  0  0  0  0  0
  142.3660   76.2520  220.4410 N   0  0  0  0  0  0  0  0  0  0  0  0
  142.2850   76.7440  221.3590 H   0  0  0  0  0  0  0  0  0  0  0  0
  142.6550   74.8460  220.4590 C   0  0  0  0  0  0  0  0  0  0  0  0
  143.7020   74.3580  219.6680 C   0  0  0  0  0  0  0  0  0  0  0  0
  144.2857   75.0535  219.0471 H   0  0  0  0  0  0  0  0  0  0  0  0
  144.0120   72.9970  219.6600 C   0  0  0  0  0  0  0  0  0  0  0  0
  144.8453   72.6285  219.0436 H   0  0  0  0  0  0  0  0  0  0  0  0
  143.2640   72.0960  220.4360 C   0  0  0  0  0  0  0  0  0  0  0  0
  143.5400   70.7200  220.4650 O   0  0  0  0  0  0  0  0  0  0  0  0
  143.6410   69.8950  219.3090 C   0  0  0  0  0  0  0  0  0  0  0  0
  143.7694   68.8467  219.6167 H   0  0  0  0  0  0  0  0  0  0  0  0
  142.7244   69.9913  218.7086 H   0  0  0  0  0  0  0  0  0  0  0  0
  144.5073   70.2096  218.7086 H   0  0  0  0  0  0  0  0  0  0  0  0
  142.1990   72.5760  221.2060 C   0  0  0  0  0  0  0  0  0  0  0  0
  141.6081   71.8738  221.8124 H   0  0  0  0  0  0  0  0  0  0  0  0
  141.8730   73.9480  221.2150 C   0  0  0  0  0  0  0  0  0  0  0  0
  140.7730   74.4410  221.9360 O   0  0  0  0  0  0  0  0  0  0  0  0
  139.5480   74.8710  221.3530 C   0  0  0  0  0  0  0  0  0  0  0  0
  138.8315   75.1225  222.1489 H   0  0  0  0  0  0  0  0  0  0  0  0
  139.7303   75.7589  220.7298 H   0  0  0  0  0  0  0  0  0  0  0  0
  139.1354   74.0640  220.7298 H   0  0  0  0  0  0  0  0  0  0  0  0
  1  2  1  0
  2  3  1  0
  3  4  2  0
  4  5  1  0
  4  6  1  0
  6  7  1  0
  6  8  1  0
  6  9  1  0
  9 10  1  0
  9 11  1  0
  9 12  1  0
  3 13  1  0
 13 14  1  0
 13 15  1  0
 15 16  2  0
 16 17  1  0
 16 18  1  0
 18 19  1  0
 18 20  2  0
 20 21  1  0
 20 22  1  0
 22 23  1  0
 22 24  2  0
 24 25  1  0
 25 26  2  0
 25 27  1  0
 27 28  1  0
 27 29  1  0
 29 30  2  0
 30 31  1  0
 30 32  1  0
 32 33  1  0
 32 34  2  0
 34 35  1  0
 35 36  1  0
 36 37  1  0
 36 38  1  0
 36 39  1  0
 34 40  1  0
 40 41  1  0
 40 42  2  0
 42 43  1  0
 43 44  1  0
 44 45  1  0
 44 46  1  0
 44 47  1  0
 24 15  1  0
 42 29  1  0
M  END
>  <UniqueID>  (1) 
9

>  <SMILES>  (1) 
CC/C=C(/O)Nc1ccccc1C(=O)Nc1ccc(OC)cc1OC

>  <Energy>  (1) 
58.713125590397404

>  <Genealogy>  (1) 
CCC=C(O)Nc1ccccc1C(=O)Nc1ccc(OC)cc1OC (tautomer)
CC/C=C(/O)Nc1ccccc1C(=O)Nc1ccc(OC)cc1OC (cis-trans isomerization)
CC/C=C(/O)Nc1ccccc1C(=O)Nc1ccc(OC)cc1OC (3D coordinates assigned)
CC/C=C(/O)Nc1ccccc1C(=O)Nc1ccc(OC)cc1OC (optimized conformer: 58.713125590397404 kcal/mol)

>  <smiles>  (1) 
CCCC(=O)Nc1ccccc1C(=O)Nc1ccc(OC)cc1OC

>  <score_type>  (1) 
oracle

>  <origin>  (1) 
autodockgpu

>  <m_score__min__energy>  (1) 
-5.9699999999999998

>  <m_primary>  (1) 
energy

>  <meeko>  (1) 
{"free_energy": -5.13, "intermolecular_energy": -7.81, "internal_energy": -2.64, "cluster_size": 5, "cluster_id": 3, "rank_in_cluster": 2}

>  <energy>  (1) 
-5.97

>  <cluster_rmsd>  (1) 
0.0

>  <rmsd>  (1) 
271.15

>  <cluster>  (1) 
1

$$$$
NKXSPJYDRINBNN-SEQHFDQZNA-N
     RDKit          3D

 47 48  0  0  0  0  0  0  0  0999 V2000
  143.0800   77.8880  219.6140 H   0  0  0  0  0  0  0  0  0  0  0  0
  142.1390   78.2000  219.8250 O   0  0  0  0  0  0  0  0  0  0  0  0
  141.7770   78.6520  221.0930 C   0  0  0  0  0  0  0  0  0  0  0  0
  141.8170   79.9680  221.3690 C   0  0  0  0  0  0  0  0  0  0  0  0
  141.4789   80.6669  220.5898 H   0  0  0  0  0  0  0  0  0  0  0  0
  142.2940   80.5470  222.6740 C   0  0  0  0  0  0  0  0  0  0  0  0
  142.2690   81.6448  222.6095 H   0  0  0  0  0  0  0  0  0  0  0  0
  143.3186   80.1914  222.8580 H   0  0  0  0  0  0  0  0  0  0  0  0
  141.4120   80.0970  223.8350 C   0  0  0  0  0  0  0  0  0  0  0  0
  141.9030   80.3475  224.7870 H   0  0  0  0  0  0  0  0  0  0  0  0
  140.4404   80.6096  223.7775 H   0  0  0  0  0  0  0  0  0  0  0  0
  141.2568   79.0095  223.7775 H   0  0  0  0  0  0  0  0  0  0  0  0
  141.3440   77.6850  222.0610 N   0  0  0  0  0  0  0  0  0  0  0  0
  141.9780   77.5320  222.8770 H   0  0  0  0  0  0  0  0  0  0  0  0
  139.9910   77.1900  222.1470 C   0  0  0  0  0  0  0  0  0  0  0  0
  138.9350   78.0640  222.4740 C   0  0  0  0  0  0  0  0  0  0  0  0
  139.1391   79.1354  222.6172 H   0  0  0  0  0  0  0  0  0  0  0  0
  137.6320   77.5830  222.6180 C   0  0  0  0  0  0  0  0  0  0  0  0
  136.8155   78.2764  222.8678 H   0  0  0  0  0  0  0  0  0  0  0  0
  137.3640   76.2270  222.4460 C   0  0  0  0  0  0  0  0  0  0  0  0
  136.3367   75.8511  222.5616 H   0  0  0  0  0  0  0  0  0  0  0  0
  138.3980   75.3440  222.1270 C   0  0  0  0  0  0  0  0  0  0  0  0
  138.1794   74.2743  221.9934 H   0  0  0  0  0  0  0  0  0  0  0  0
  139.7160   75.8100  221.9750 C   0  0  0  0  0  0  0  0  0  0  0  0
  140.7770   74.8520  221.5970 C   0  0  0  0  0  0  0  0  0  0  0  0
  140.6990   73.6560  221.9890 O   0  0  0  0  0  0  0  0  0  0  0  0
  141.9040   75.2800  220.8140 N   0  0  0  0  0  0  0  0  0  0  0  0
  142.0800   76.3030  220.6960 H   0  0  0  0  0  0  0  0  0  0  0  0
  142.8790   74.3690  220.2840 C   0  0  0  0  0  0  0  0  0  0  0  0
  142.9810   73.0870  220.8380 C   0  0  0  0  0  0  0  0  0  0  0  0
  142.3176   72.7967  221.6660 H   0  0  0  0  0  0  0  0  0  0  0  0
  143.9170   72.1740  220.3490 C   0  0  0  0  0  0  0  0  0  0  0  0
  143.9783   71.1656  220.7841 H   0  0  0  0  0  0  0  0  0  0  0  0
  144.7810   72.5390  219.3030 C   0  0  0  0  0  0  0  0  0  0  0  0
  145.7340   71.6550  218.7730 O   0  0  0  0  0  0  0  0  0  0  0  0
  145.5440   70.2500  218.6440 C   0  0  0  0  0  0  0  0  0  0  0  0
  145.4825   69.7950  219.6436 H   0  0  0  0  0  0  0  0  0  0  0  0
  144.6113   70.0550  218.0944 H   0  0  0  0  0  0  0  0  0  0  0  0
  146.3914   69.8143  218.0944 H   0  0  0  0  0  0  0  0  0  0  0  0
  144.7000   73.8280  218.7660 C   0  0  0  0  0  0  0  0  0  0  0  0
  145.3761   74.1184  217.9484 H   0  0  0  0  0  0  0  0  0  0  0  0
  143.7640   74.7600  219.2580 C   0  0  0  0  0  0  0  0  0  0  0  0
  143.7060   76.0760  218.7720 O   0  0  0  0  0  0  0  0  0  0  0  0
  143.1420   76.4550  217.5220 C   0  0  0  0  0  0  0  0  0  0  0  0
  142.2404   77.0609  217.6952 H   0  0  0  0  0  0  0  0  0  0  0  0
  143.8757   77.0440  216.9522 H   0  0  0  0  0  0  0  0  0  0  0  0
  142.8738   75.5531  216.9522 H   0  0  0  0  0  0  0  0  0  0  0  0
  1  2  1  0
  2  3  1  0
  3  4  2  0
  4  5  1  0
  4  6  1  0
  6  7  1  0
  6  8  1  0
  6  9  1  0
  9 10  1  0
  9 11  1  0
  9 12  1  0
  3 13  1  0
 13 14  1  0
 13 15  1  0
 15 16  2  0
 16 17  1  0
 16 18  1  0
 18 19  1  0
 18 20  2  0
 20 21  1  0
 20 22  1  0
 22 23  1  0
 22 24  2  0
 24 25  1  0
 25 26  2  0
 25 27  1  0
 27 28  1  0
 27 29  1  0
 29 30  2  0
 30 31  1  0
 30 32  1  0
 32 33  1  0
 32 34  2  0
 34 35  1  0
 35 36  1  0
 36 37  1  0
 36 38  1  0
 36 39  1  0
 34 40  1  0
 40 41  1  0
 40 42  2  0
 42 43  1  0
 43 44  1  0
 44 45  1  0
 44 46  1  0
 44 47  1  0
 24 15  1  0
 42 29  1  0
M  END
>  <UniqueID>  (2) 
9

>  <SMILES>  (2) 
CC/C=C(/O)Nc1ccccc1C(=O)Nc1ccc(OC)cc1OC

>  <Energy>  (2) 
58.713125590397404

>  <Genealogy>  (2) 
CCC=C(O)Nc1ccccc1C(=O)Nc1ccc(OC)cc1OC (tautomer)
CC/C=C(/O)Nc1ccccc1C(=O)Nc1ccc(OC)cc1OC (cis-trans isomerization)
CC/C=C(/O)Nc1ccccc1C(=O)Nc1ccc(OC)cc1OC (3D coordinates assigned)
CC/C=C(/O)Nc1ccccc1C(=O)Nc1ccc(OC)cc1OC (optimized conformer: 58.713125590397404 kcal/mol)

>  <smiles>  (2) 
CCCC(=O)Nc1ccccc1C(=O)Nc1ccc(OC)cc1OC

>  <score_type>  (2) 
oracle

>  <origin>  (2) 
autodockgpu

>  <m_score__min__energy>  (2) 
-5.9699999999999998

>  <m_primary>  (2) 
energy

>  <meeko>  (2) 
{"free_energy": -5.7, "intermolecular_energy": -8.39, "internal_energy": -2.51, "cluster_size": 14, "cluster_id": 1, "rank_in_cluster": 14}

>  <energy>  (2) 
-5.97

>  <cluster_rmsd>  (2) 
0.29

>  <rmsd>  (2) 
271.2

>  <cluster>  (2) 
1

$$$$
NKXSPJYDRINBNN-SEQHFDQZNA-N
     RDKit          3D

 47 48  0  0  0  0  0  0  0  0999 V2000
  141.8800   76.4980  222.7960 H   0  0  0  0  0  0  0  0  0  0  0  0
  141.2000   77.1830  223.1070 O   0  0  0  0  0  0  0  0  0  0  0  0
  141.4460   78.5530  223.0410 C   0  0  0  0  0  0  0  0  0  0  0  0
  140.8470   79.3820  223.9140 C   0  0  0  0  0  0  0  0  0  0  0  0
  141.3584   79.5815  224.8672 H   0  0  0  0  0  0  0  0  0  0  0  0
  139.5220   80.0550  223.6720 C   0  0  0  0  0  0  0  0  0  0  0  0
  139.6976   81.0331  223.2004 H   0  0  0  0  0  0  0  0  0  0  0  0
  139.0117   80.1757  224.6390 H   0  0  0  0  0  0  0  0  0  0  0  0
  138.6330   79.2150  222.7590 C   0  0  0  0  0  0  0  0  0  0  0  0
  137.9685   78.5871  223.3708 H   0  0  0  0  0  0  0  0  0  0  0  0
  138.0280   79.8791  222.1241 H   0  0  0  0  0  0  0  0  0  0  0  0
  139.2617   78.5734  222.1241 H   0  0  0  0  0  0  0  0  0  0  0  0
  142.3640   79.0320  222.0470 N   0  0  0  0  0  0  0  0  0  0  0  0
  143.2960   78.5620  222.0150 H   0  0  0  0  0  0  0  0  0  0  0  0
  141.9710   79.8450  220.9210 C   0  0  0  0  0  0  0  0  0  0  0  0
  141.6660   81.2080  221.1020 C   0  0  0  0  0  0  0  0  0  0  0  0
  141.7747   81.6630  222.0976 H   0  0  0  0  0  0  0  0  0  0  0  0
  141.2270   81.9870  220.0300 C   0  0  0  0  0  0  0  0  0  0  0  0
  140.9967   83.0517  220.1832 H   0  0  0  0  0  0  0  0  0  0  0  0
  141.0800   81.4190  218.7670 C   0  0  0  0  0  0  0  0  0  0  0  0
  140.7331   82.0356  217.9247 H   0  0  0  0  0  0  0  0  0  0  0  0
  141.3720   80.0690  218.5680 C   0  0  0  0  0  0  0  0  0  0  0  0
  141.2516   79.6270  217.5679 H   0  0  0  0  0  0  0  0  0  0  0  0
  141.8190   79.2680  219.6350 C   0  0  0  0  0  0  0  0  0  0  0  0
  142.1580   77.8530  219.3770 C   0  0  0  0  0  0  0  0  0  0  0  0
  142.4010   77.4800  218.1970 O   0  0  0  0  0  0  0  0  0  0  0  0
  142.1820   76.8990  220.4520 N   0  0  0  0  0  0  0  0  0  0  0  0
  141.7570   77.1580  221.3700 H   0  0  0  0  0  0  0  0  0  0  0  0
  142.6560   75.5530  220.2920 C   0  0  0  0  0  0  0  0  0  0  0  0
  143.6640   75.2950  219.3550 C   0  0  0  0  0  0  0  0  0  0  0  0
  144.0767   76.1212  218.7574 H   0  0  0  0  0  0  0  0  0  0  0  0
  144.1500   74.0000  219.1720 C   0  0  0  0  0  0  0  0  0  0  0  0
  144.9519   73.8137  218.4425 H   0  0  0  0  0  0  0  0  0  0  0  0
  143.6190   72.9330  219.9160 C   0  0  0  0  0  0  0  0  0  0  0  0
  144.0770   71.6140  219.7720 O   0  0  0  0  0  0  0  0  0  0  0  0
  143.2300   70.4710  219.7090 C   0  0  0  0  0  0  0  0  0  0  0  0
  142.9846   70.1398  220.7289 H   0  0  0  0  0  0  0  0  0  0  0  0
  142.3040   70.7299  219.1747 H   0  0  0  0  0  0  0  0  0  0  0  0
  143.7472   69.6604  219.1747 H   0  0  0  0  0  0  0  0  0  0  0  0
  142.5920   73.1820  220.8320 C   0  0  0  0  0  0  0  0  0  0  0  0
  142.1709   72.3493  221.4145 H   0  0  0  0  0  0  0  0  0  0  0  0
  142.0890   74.4860  221.0190 C   0  0  0  0  0  0  0  0  0  0  0  0
  141.0200   74.7480  221.8920 O   0  0  0  0  0  0  0  0  0  0  0  0
  139.6870   75.0260  221.4800 C   0  0  0  0  0  0  0  0  0  0  0  0
  139.0494   75.1590  222.3665 H   0  0  0  0  0  0  0  0  0  0  0  0
  139.6738   75.9462  220.8775 H   0  0  0  0  0  0  0  0  0  0  0  0
  139.3071   74.1878  220.8775 H   0  0  0  0  0  0  0  0  0  0  0  0
  1  2  1  0
  2  3  1  0
  3  4  2  0
  4  5  1  0
  4  6  1  0
  6  7  1  0
  6  8  1  0
  6  9  1  0
  9 10  1  0
  9 11  1  0
  9 12  1  0
  3 13  1  0
 13 14  1  0
 13 15  1  0
 15 16  2  0
 16 17  1  0
 16 18  1  0
 18 19  1  0
 18 20  2  0
 20 21  1  0
 20 22  1  0
 22 23  1  0
 22 24  2  0
 24 25  1  0
 25 26  2  0
 25 27  1  0
 27 28  1  0
 27 29  1  0
 29 30  2  0
 30 31  1  0
 30 32  1  0
 32 33  1  0
 32 34  2  0
 34 35  1  0
 35 36  1  0
 36 37  1  0
 36 38  1  0
 36 39  1  0
 34 40  1  0
 40 41  1  0
 40 42  2  0
 42 43  1  0
 43 44  1  0
 44 45  1  0
 44 46  1  0
 44 47  1  0
 24 15  1  0
 42 29  1  0
M  END
>  <UniqueID>  (3) 
9

>  <SMILES>  (3) 
CC/C=C(/O)Nc1ccccc1C(=O)Nc1ccc(OC)cc1OC

>  <Energy>  (3) 
58.713125590397404

>  <Genealogy>  (3) 
CCC=C(O)Nc1ccccc1C(=O)Nc1ccc(OC)cc1OC (tautomer)
CC/C=C(/O)Nc1ccccc1C(=O)Nc1ccc(OC)cc1OC (cis-trans isomerization)
CC/C=C(/O)Nc1ccccc1C(=O)Nc1ccc(OC)cc1OC (3D coordinates assigned)
CC/C=C(/O)Nc1ccccc1C(=O)Nc1ccc(OC)cc1OC (optimized conformer: 58.713125590397404 kcal/mol)

>  <smiles>  (3) 
CCCC(=O)Nc1ccccc1C(=O)Nc1ccc(OC)cc1OC

>  <score_type>  (3) 
oracle

>  <origin>  (3) 
autodockgpu

>  <m_score__min__energy>  (3) 
-5.9699999999999998

>  <m_primary>  (3) 
energy

>  <meeko>  (3) 
{"free_energy": -4.97, "intermolecular_energy": -7.65, "internal_energy": -2.68, "cluster_size": 5, "cluster_id": 3, "rank_in_cluster": 4}

>  <energy>  (3) 
-5.97

>  <cluster_rmsd>  (3) 
0.07

>  <rmsd>  (3) 
271.16

>  <cluster>  (3) 
1

$$$$
NKXSPJYDRINBNN-SEQHFDQZNA-N
     RDKit          3D

 47 48  0  0  0  0  0  0  0  0999 V2000
  141.9750   76.5730  222.7530 H   0  0  0  0  0  0  0  0  0  0  0  0
  141.4420   77.2530  223.2850 O   0  0  0  0  0  0  0  0  0  0  0  0
  141.5760   78.6240  223.0770 C   0  0  0  0  0  0  0  0  0  0  0  0
  140.8890   79.4860  223.8470 C   0  0  0  0  0  0  0  0  0  0  0  0
  141.3828   79.8741  224.7501 H   0  0  0  0  0  0  0  0  0  0  0  0
  139.4890   79.9550  223.5550 C   0  0  0  0  0  0  0  0  0  0  0  0
  139.5284   80.9856  223.1725 H   0  0  0  0  0  0  0  0  0  0  0  0
  138.9051   79.9085  224.4861 H   0  0  0  0  0  0  0  0  0  0  0  0
  138.8130   79.0640  222.5160 C   0  0  0  0  0  0  0  0  0  0  0  0
  138.2240   78.2877  223.0263 H   0  0  0  0  0  0  0  0  0  0  0  0
  138.1484   79.6740  221.8865 H   0  0  0  0  0  0  0  0  0  0  0  0
  139.5795   78.5883  221.8865 H   0  0  0  0  0  0  0  0  0  0  0  0
  142.4770   79.0720  222.0520 N   0  0  0  0  0  0  0  0  0  0  0  0
  143.3920   78.5720  221.9920 H   0  0  0  0  0  0  0  0  0  0  0  0
  142.0730   79.8940  220.9370 C   0  0  0  0  0  0  0  0  0  0  0  0
  141.8180   81.2680  221.1240 C   0  0  0  0  0  0  0  0  0  0  0  0
  141.9735   81.7215  222.1140 H   0  0  0  0  0  0  0  0  0  0  0  0
  141.3700   82.0580  220.0640 C   0  0  0  0  0  0  0  0  0  0  0  0
  141.1806   83.1301  220.2211 H   0  0  0  0  0  0  0  0  0  0  0  0
  141.1620   81.4930  218.8080 C   0  0  0  0  0  0  0  0  0  0  0  0
  140.8069   82.1185  217.9757 H   0  0  0  0  0  0  0  0  0  0  0  0
  141.4040   80.1330  218.6050 C   0  0  0  0  0  0  0  0  0  0  0  0
  141.2372   79.6928  217.6108 H   0  0  0  0  0  0  0  0  0  0  0  0
  141.8590   79.3200  219.6590 C   0  0  0  0  0  0  0  0  0  0  0  0
  142.1430   77.8940  219.3940 C   0  0  0  0  0  0  0  0  0  0  0  0
  142.3080   77.5060  218.2060 O   0  0  0  0  0  0  0  0  0  0  0  0
  142.2010   76.9470  220.4750 N   0  0  0  0  0  0  0  0  0  0  0  0
  141.8360   77.2250  221.4130 H   0  0  0  0  0  0  0  0  0  0  0  0
  142.6270   75.5870  220.3000 C   0  0  0  0  0  0  0  0  0  0  0  0
  143.6060   75.3010  219.3410 C   0  0  0  0  0  0  0  0  0  0  0  0
  144.0331   76.1160  218.7382 H   0  0  0  0  0  0  0  0  0  0  0  0
  144.0450   73.9910  219.1430 C   0  0  0  0  0  0  0  0  0  0  0  0
  144.8243   73.7813  218.3956 H   0  0  0  0  0  0  0  0  0  0  0  0
  143.4950   72.9390  219.8950 C   0  0  0  0  0  0  0  0  0  0  0  0
  143.9070   71.6060  219.7370 O   0  0  0  0  0  0  0  0  0  0  0  0
  145.2080   71.2110  219.3140 C   0  0  0  0  0  0  0  0  0  0  0  0
  145.8378   71.0198  220.1953 H   0  0  0  0  0  0  0  0  0  0  0  0
  145.1347   70.2946  218.7099 H   0  0  0  0  0  0  0  0  0  0  0  0
  145.6565   72.0134  218.7099 H   0  0  0  0  0  0  0  0  0  0  0  0
  142.4970   73.2180  220.8340 C   0  0  0  0  0  0  0  0  0  0  0  0
  142.0617   72.3973  221.4231 H   0  0  0  0  0  0  0  0  0  0  0  0
  142.0410   74.5370  221.0360 C   0  0  0  0  0  0  0  0  0  0  0  0
  141.0010   74.8300  221.9330 O   0  0  0  0  0  0  0  0  0  0  0  0
  139.6970   75.2520  221.5520 C   0  0  0  0  0  0  0  0  0  0  0  0
  139.0966   75.4463  222.4530 H   0  0  0  0  0  0  0  0  0  0  0  0
  139.7696   76.1725  220.9542 H   0  0  0  0  0  0  0  0  0  0  0  0
  139.2165   74.4635  220.9542 H   0  0  0  0  0  0  0  0  0  0  0  0
  1  2  1  0
  2  3  1  0
  3  4  2  0
  4  5  1  0
  4  6  1  0
  6  7  1  0
  6  8  1  0
  6  9  1  0
  9 10  1  0
  9 11  1  0
  9 12  1  0
  3 13  1  0
 13 14  1  0
 13 15  1  0
 15 16  2  0
 16 17  1  0
 16 18  1  0
 18 19  1  0
 18 20  2  0
 20 21  1  0
 20 22  1  0
 22 23  1  0
 22 24  2  0
 24 25  1  0
 25 26  2  0
 25 27  1  0
 27 28  1  0
 27 29  1  0
 29 30  2  0
 30 31  1  0
 30 32  1  0
 32 33  1  0
 32 34  2  0
 34 35  1  0
 35 36  1  0
 36 37  1  0
 36 38  1  0
 36 39  1  0
 34 40  1  0
 40 41  1  0
 40 42  2  0
 42 43  1  0
 43 44  1  0
 44 45  1  0
 44 46  1  0
 44 47  1  0
 24 15  1  0
 42 29  1  0
M  END
>  <UniqueID>  (4) 
9

>  <SMILES>  (4) 
CC/C=C(/O)Nc1ccccc1C(=O)Nc1ccc(OC)cc1OC

>  <Energy>  (4) 
58.713125590397404

>  <Genealogy>  (4) 
CCC=C(O)Nc1ccccc1C(=O)Nc1ccc(OC)cc1OC (tautomer)
CC/C=C(/O)Nc1ccccc1C(=O)Nc1ccc(OC)cc1OC (cis-trans isomerization)
CC/C=C(/O)Nc1ccccc1C(=O)Nc1ccc(OC)cc1OC (3D coordinates assigned)
CC/C=C(/O)Nc1ccccc1C(=O)Nc1ccc(OC)cc1OC (optimized conformer: 58.713125590397404 kcal/mol)

>  <smiles>  (4) 
CCCC(=O)Nc1ccccc1C(=O)Nc1ccc(OC)cc1OC

>  <score_type>  (4) 
oracle

>  <origin>  (4) 
autodockgpu

>  <m_score__min__energy>  (4) 
-5.9699999999999998

>  <m_primary>  (4) 
energy

>  <meeko>  (4) 
{"free_energy": -4.93, "intermolecular_energy": -7.61, "internal_energy": -2.68, "cluster_size": 5, "cluster_id": 3, "rank_in_cluster": 5}

>  <energy>  (4) 
-5.96

>  <cluster_rmsd>  (4) 
0.07

>  <rmsd>  (4) 
271.16

>  <cluster>  (4) 
1

$$$$
NKXSPJYDRINBNN-SEQHFDQZNA-N
     RDKit          3D

 47 48  0  0  0  0  0  0  0  0999 V2000
  143.1070   77.9200  220.0070 H   0  0  0  0  0  0  0  0  0  0  0  0
  142.2040   78.3770  220.0550 O   0  0  0  0  0  0  0  0  0  0  0  0
  141.6380   78.7710  221.2660 C   0  0  0  0  0  0  0  0  0  0  0  0
  141.4680   80.0790  221.5290 C   0  0  0  0  0  0  0  0  0  0  0  0
  140.6596   80.6083  221.0033 H   0  0  0  0  0  0  0  0  0  0  0  0
  142.3120   80.8660  222.4960 C   0  0  0  0  0  0  0  0  0  0  0  0
  141.7977   81.8082  222.7362 H   0  0  0  0  0  0  0  0  0  0  0  0
  143.2864   81.0639  222.0255 H   0  0  0  0  0  0  0  0  0  0  0  0
  142.5490   80.0860  223.7860 C   0  0  0  0  0  0  0  0  0  0  0  0
  142.3511   80.7374  224.6500 H   0  0  0  0  0  0  0  0  0  0  0  0
  141.8740   79.2181  223.8189 H   0  0  0  0  0  0  0  0  0  0  0  0
  143.5927   79.7403  223.8189 H   0  0  0  0  0  0  0  0  0  0  0  0
  141.2270   77.7500  222.1880 N   0  0  0  0  0  0  0  0  0  0  0  0
  141.8730   77.5630  222.9870 H   0  0  0  0  0  0  0  0  0  0  0  0
  139.8810   77.2370  222.2650 C   0  0  0  0  0  0  0  0  0  0  0  0
  138.8140   78.0900  222.6130 C   0  0  0  0  0  0  0  0  0  0  0  0
  139.0044   79.1605  222.7798 H   0  0  0  0  0  0  0  0  0  0  0  0
  137.5180   77.5890  222.7480 C   0  0  0  0  0  0  0  0  0  0  0  0
  136.6930   78.2660  223.0146 H   0  0  0  0  0  0  0  0  0  0  0  0
  137.2670   76.2340  222.5460 C   0  0  0  0  0  0  0  0  0  0  0  0
  136.2447   75.8428  222.6547 H   0  0  0  0  0  0  0  0  0  0  0  0
  138.3100   75.3720  222.2060 C   0  0  0  0  0  0  0  0  0  0  0  0
  138.1043   74.3029  222.0490 H   0  0  0  0  0  0  0  0  0  0  0  0
  139.6230   75.8580  222.0620 C   0  0  0  0  0  0  0  0  0  0  0  0
  140.6950   74.9220  221.6610 C   0  0  0  0  0  0  0  0  0  0  0  0
  140.6060   73.7050  221.9810 O   0  0  0  0  0  0  0  0  0  0  0  0
  141.8450   75.3930  220.9400 N   0  0  0  0  0  0  0  0  0  0  0  0
  142.0240   76.4210  220.8860 H   0  0  0  0  0  0  0  0  0  0  0  0
  142.8360   74.5130  220.3870 C   0  0  0  0  0  0  0  0  0  0  0  0
  142.9330   73.2060  220.8800 C   0  0  0  0  0  0  0  0  0  0  0  0
  142.2537   72.8732  221.6786 H   0  0  0  0  0  0  0  0  0  0  0  0
  143.8830   72.3220  220.3680 C   0  0  0  0  0  0  0  0  0  0  0  0
  143.9398   71.2940  220.7553 H   0  0  0  0  0  0  0  0  0  0  0  0
  144.7680   72.7400  219.3590 C   0  0  0  0  0  0  0  0  0  0  0  0
  145.7370   71.8880  218.8080 O   0  0  0  0  0  0  0  0  0  0  0  0
  145.6170   70.4700  218.7420 C   0  0  0  0  0  0  0  0  0  0  0  0
  145.5821   70.0572  219.7610 H   0  0  0  0  0  0  0  0  0  0  0  0
  144.6932   70.2047  218.2070 H   0  0  0  0  0  0  0  0  0  0  0  0
  146.4831   70.0532  218.2070 H   0  0  0  0  0  0  0  0  0  0  0  0
  144.6920   74.0540  218.8840 C   0  0  0  0  0  0  0  0  0  0  0  0
  145.3839   74.3869  218.0963 H   0  0  0  0  0  0  0  0  0  0  0  0
  143.7410   74.9570  219.4010 C   0  0  0  0  0  0  0  0  0  0  0  0
  143.6860   76.2950  218.9780 O   0  0  0  0  0  0  0  0  0  0  0  0
  143.1430   76.7320  217.7380 C   0  0  0  0  0  0  0  0  0  0  0  0
  142.2987   77.4115  217.9266 H   0  0  0  0  0  0  0  0  0  0  0  0
  143.9183   77.2609  217.1643 H   0  0  0  0  0  0  0  0  0  0  0  0
  142.7921   75.8615  217.1643 H   0  0  0  0  0  0  0  0  0  0  0  0
  1  2  1  0
  2  3  1  0
  3  4  2  0
  4  5  1  0
  4  6  1  0
  6  7  1  0
  6  8  1  0
  6  9  1  0
  9 10  1  0
  9 11  1  0
  9 12  1  0
  3 13  1  0
 13 14  1  0
 13 15  1  0
 15 16  2  0
 16 17  1  0
 16 18  1  0
 18 19  1  0
 18 20  2  0
 20 21  1  0
 20 22  1  0
 22 23  1  0
 22 24  2  0
 24 25  1  0
 25 26  2  0
 25 27  1  0
 27 28  1  0
 27 29  1  0
 29 30  2  0
 30 31  1  0
 30 32  1  0
 32 33  1  0
 32 34  2  0
 34 35  1  0
 35 36  1  0
 36 37  1  0
 36 38  1  0
 36 39  1  0
 34 40  1  0
 40 41  1  0
 40 42  2  0
 42 43  1  0
 43 44  1  0
 44 45  1  0
 44 46  1  0
 44 47  1  0
 24 15  1  0
 42 29  1  0
M  END
>  <UniqueID>  (5) 
9

>  <SMILES>  (5) 
CC/C=C(/O)Nc1ccccc1C(=O)Nc1ccc(OC)cc1OC

>  <Energy>  (5) 
58.713125590397404

>  <Genealogy>  (5) 
CCC=C(O)Nc1ccccc1C(=O)Nc1ccc(OC)cc1OC (tautomer)
CC/C=C(/O)Nc1ccccc1C(=O)Nc1ccc(OC)cc1OC (cis-trans isomerization)
CC/C=C(/O)Nc1ccccc1C(=O)Nc1ccc(OC)cc1OC (3D coordinates assigned)
CC/C=C(/O)Nc1ccccc1C(=O)Nc1ccc(OC)cc1OC (optimized conformer: 58.713125590397404 kcal/mol)

>  <smiles>  (5) 
CCCC(=O)Nc1ccccc1C(=O)Nc1ccc(OC)cc1OC

>  <score_type>  (5) 
oracle

>  <origin>  (5) 
autodockgpu

>  <m_score__min__energy>  (5) 
-5.9699999999999998

>  <m_primary>  (5) 
energy

>  <meeko>  (5) 
{"free_energy": -5.81, "intermolecular_energy": -8.49, "internal_energy": -2.48, "cluster_size": 14, "cluster_id": 1, "rank_in_cluster": 13}

>  <energy>  (5) 
-5.95

>  <cluster_rmsd>  (5) 
0.05

>  <rmsd>  (5) 
271.17

>  <cluster>  (5) 
1

$$$$
NKXSPJYDRINBNN-SEQHFDQZNA-N
     RDKit          3D

 47 48  0  0  0  0  0  0  0  0999 V2000
  143.0790   77.9050  219.8730 H   0  0  0  0  0  0  0  0  0  0  0  0
  142.1900   78.3560  220.0600 O   0  0  0  0  0  0  0  0  0  0  0  0
  141.8240   78.7670  221.3400 C   0  0  0  0  0  0  0  0  0  0  0  0
  141.8810   80.0710  221.6640 C   0  0  0  0  0  0  0  0  0  0  0  0
  142.0639   80.7938  220.8552 H   0  0  0  0  0  0  0  0  0  0  0  0
  141.7110   80.6070  223.0610 C   0  0  0  0  0  0  0  0  0  0  0  0
  140.9362   80.0218  223.5778 H   0  0  0  0  0  0  0  0  0  0  0  0
  141.4185   81.6653  222.9944 H   0  0  0  0  0  0  0  0  0  0  0  0
  143.0140   80.5150  223.8510 C   0  0  0  0  0  0  0  0  0  0  0  0
  142.7916   80.5307  224.9282 H   0  0  0  0  0  0  0  0  0  0  0  0
  143.5314   79.5781  223.5970 H   0  0  0  0  0  0  0  0  0  0  0  0
  143.6579   81.3699  223.5970 H   0  0  0  0  0  0  0  0  0  0  0  0
  141.3680   77.7720  222.2690 N   0  0  0  0  0  0  0  0  0  0  0  0
  141.9990   77.5700  223.0760 H   0  0  0  0  0  0  0  0  0  0  0  0
  140.0030   77.3090  222.3390 C   0  0  0  0  0  0  0  0  0  0  0  0
  138.9710   78.1930  222.7140 C   0  0  0  0  0  0  0  0  0  0  0  0
  139.2036   79.2505  222.9077 H   0  0  0  0  0  0  0  0  0  0  0  0
  137.6570   77.7400  222.8420 C   0  0  0  0  0  0  0  0  0  0  0  0
  136.8600   78.4415  223.1297 H   0  0  0  0  0  0  0  0  0  0  0  0
  137.3530   76.4010  222.6060 C   0  0  0  0  0  0  0  0  0  0  0  0
  136.3170   76.0462  222.7097 H   0  0  0  0  0  0  0  0  0  0  0  0
  138.3620   75.5090  222.2380 C   0  0  0  0  0  0  0  0  0  0  0  0
  138.1148   74.4531  222.0534 H   0  0  0  0  0  0  0  0  0  0  0  0
  139.6910   75.9470  222.1010 C   0  0  0  0  0  0  0  0  0  0  0  0
  140.7240   74.9810  221.6700 C   0  0  0  0  0  0  0  0  0  0  0  0
  140.5950   73.7630  221.9680 O   0  0  0  0  0  0  0  0  0  0  0  0
  141.8830   75.4260  220.9450 N   0  0  0  0  0  0  0  0  0  0  0  0
  142.0980   76.4470  220.9090 H   0  0  0  0  0  0  0  0  0  0  0  0
  142.8360   74.5220  220.3650 C   0  0  0  0  0  0  0  0  0  0  0  0
  142.9380   73.2230  220.8770 C   0  0  0  0  0  0  0  0  0  0  0  0
  142.2913   72.9142  221.7116 H   0  0  0  0  0  0  0  0  0  0  0  0
  143.8520   72.3160  220.3390 C   0  0  0  0  0  0  0  0  0  0  0  0
  143.9126   71.2945  220.7425 H   0  0  0  0  0  0  0  0  0  0  0  0
  144.6950   72.7030  219.2840 C   0  0  0  0  0  0  0  0  0  0  0  0
  145.6270   71.8270  218.7050 O   0  0  0  0  0  0  0  0  0  0  0  0
  145.5090   70.4080  218.7130 C   0  0  0  0  0  0  0  0  0  0  0  0
  145.4791   70.0484  219.7521 H   0  0  0  0  0  0  0  0  0  0  0  0
  144.5833   70.1141  218.1965 H   0  0  0  0  0  0  0  0  0  0  0  0
  146.3734   69.9653  218.1965 H   0  0  0  0  0  0  0  0  0  0  0  0
  144.6160   74.0090  218.7880 C   0  0  0  0  0  0  0  0  0  0  0  0
  145.2765   74.3175  217.9642 H   0  0  0  0  0  0  0  0  0  0  0  0
  143.7010   74.9350  219.3300 C   0  0  0  0  0  0  0  0  0  0  0  0
  143.6450   76.2660  218.8860 O   0  0  0  0  0  0  0  0  0  0  0  0
  143.2510   76.6680  217.5790 C   0  0  0  0  0  0  0  0  0  0  0  0
  142.4828   77.4518  217.6524 H   0  0  0  0  0  0  0  0  0  0  0  0
  144.1243   77.0601  217.0371 H   0  0  0  0  0  0  0  0  0  0  0  0
  142.8414   75.8028  217.0371 H   0  0  0  0  0  0  0  0  0  0  0  0
  1  2  1  0
  2  3  1  0
  3  4  2  0
  4  5  1  0
  4  6  1  0
  6  7  1  0
  6  8  1  0
  6  9  1  0
  9 10  1  0
  9 11  1  0
  9 12  1  0
  3 13  1  0
 13 14  1  0
 13 15  1  0
 15 16  2  0
 16 17  1  0
 16 18  1  0
 18 19  1  0
 18 20  2  0
 20 21  1  0
 20 22  1  0
 22 23  1  0
 22 24  2  0
 24 25  1  0
 25 26  2  0
 25 27  1  0
 27 28  1  0
 27 29  1  0
 29 30  2  0
 30 31  1  0
 30 32  1  0
 32 33  1  0
 32 34  2  0
 34 35  1  0
 35 36  1  0
 36 37  1  0
 36 38  1  0
 36 39  1  0
 34 40  1  0
 40 41  1  0
 40 42  2  0
 42 43  1  0
 43 44  1  0
 44 45  1  0
 44 46  1  0
 44 47  1  0
 24 15  1  0
 42 29  1  0
M  END
>  <UniqueID>  (6) 
9

>  <SMILES>  (6) 
CC/C=C(/O)Nc1ccccc1C(=O)Nc1ccc(OC)cc1OC

>  <Energy>  (6) 
58.713125590397404

>  <Genealogy>  (6) 
CCC=C(O)Nc1ccccc1C(=O)Nc1ccc(OC)cc1OC (tautomer)
CC/C=C(/O)Nc1ccccc1C(=O)Nc1ccc(OC)cc1OC (cis-trans isomerization)
CC/C=C(/O)Nc1ccccc1C(=O)Nc1ccc(OC)cc1OC (3D coordinates assigned)
CC/C=C(/O)Nc1ccccc1C(=O)Nc1ccc(OC)cc1OC (optimized conformer: 58.713125590397404 kcal/mol)

>  <smiles>  (6) 
CCCC(=O)Nc1ccccc1C(=O)Nc1ccc(OC)cc1OC

>  <score_type>  (6) 
oracle

>  <origin>  (6) 
autodockgpu

>  <m_score__min__energy>  (6) 
-5.9699999999999998

>  <m_primary>  (6) 
energy

>  <meeko>  (6) 
{"free_energy": -5.95, "intermolecular_energy": -8.63, "internal_energy": -2.52, "cluster_size": 14, "cluster_id": 1, "rank_in_cluster": 6}

>  <energy>  (6) 
-5.95

>  <cluster_rmsd>  (6) 
0.1

>  <rmsd>  (6) 
271.13

>  <cluster>  (6) 
1

$$$$
NKXSPJYDRINBNN-SEQHFDQZNA-N
     RDKit          3D

 47 48  0  0  0  0  0  0  0  0999 V2000
  141.8380   76.1320  222.6820 H   0  0  0  0  0  0  0  0  0  0  0  0
  141.1280   76.7590  223.0450 O   0  0  0  0  0  0  0  0  0  0  0  0
  140.9980   78.0710  222.5910 C   0  0  0  0  0  0  0  0  0  0  0  0
  141.3400   79.0920  223.3960 C   0  0  0  0  0  0  0  0  0  0  0  0
  140.6343   79.3798  224.1892 H   0  0  0  0  0  0  0  0  0  0  0  0
  142.6250   79.8670  223.2830 C   0  0  0  0  0  0  0  0  0  0  0  0
  142.8979   79.9561  222.2211 H   0  0  0  0  0  0  0  0  0  0  0  0
  143.4058   79.3292  223.8409 H   0  0  0  0  0  0  0  0  0  0  0  0
  142.4820   81.2650  223.8790 C   0  0  0  0  0  0  0  0  0  0  0  0
  142.4888   81.1980  224.9769 H   0  0  0  0  0  0  0  0  0  0  0  0
  143.3205   81.8936  223.5448 H   0  0  0  0  0  0  0  0  0  0  0  0
  141.5336   81.7108  223.5448 H   0  0  0  0  0  0  0  0  0  0  0  0
  140.5210   78.2830  221.2540 N   0  0  0  0  0  0  0  0  0  0  0  0
  139.5080   78.0910  221.0890 H   0  0  0  0  0  0  0  0  0  0  0  0
  141.2430   79.0390  220.2590 C   0  0  0  0  0  0  0  0  0  0  0  0
  141.1780   80.4470  220.2510 C   0  0  0  0  0  0  0  0  0  0  0  0
  140.6126   80.9706  221.0359 H   0  0  0  0  0  0  0  0  0  0  0  0
  141.8240   81.1830  219.2570 C   0  0  0  0  0  0  0  0  0  0  0  0
  141.7704   82.2817  219.2658 H   0  0  0  0  0  0  0  0  0  0  0  0
  142.5370   80.5300  218.2530 C   0  0  0  0  0  0  0  0  0  0  0  0
  143.0438   81.1132  217.4701 H   0  0  0  0  0  0  0  0  0  0  0  0
  142.6080   79.1360  218.2410 C   0  0  0  0  0  0  0  0  0  0  0  0
  143.1710   78.6262  217.4453 H   0  0  0  0  0  0  0  0  0  0  0  0
  141.9670   78.3770  219.2360 C   0  0  0  0  0  0  0  0  0  0  0  0
  142.1000   76.9040  219.2120 C   0  0  0  0  0  0  0  0  0  0  0  0
  141.9580   76.2870  218.1220 O   0  0  0  0  0  0  0  0  0  0  0  0
  142.3580   76.1740  220.4230 N   0  0  0  0  0  0  0  0  0  0  0  0
  142.2410   76.6570  221.3420 H   0  0  0  0  0  0  0  0  0  0  0  0
  142.6540   74.7690  220.4400 C   0  0  0  0  0  0  0  0  0  0  0  0
  143.6820   74.2820  219.6240 C   0  0  0  0  0  0  0  0  0  0  0  0
  144.2460   74.9772  218.9848 H   0  0  0  0  0  0  0  0  0  0  0  0
  143.9980   72.9220  219.6140 C   0  0  0  0  0  0  0  0  0  0  0  0
  144.8164   72.5540  218.9778 H   0  0  0  0  0  0  0  0  0  0  0  0
  143.2740   72.0220  220.4140 C   0  0  0  0  0  0  0  0  0  0  0  0
  143.5560   70.6470  220.4430 O   0  0  0  0  0  0  0  0  0  0  0  0
  143.7780   69.8470  219.2860 C   0  0  0  0  0  0  0  0  0  0  0  0
  144.0605   68.8291  219.5927 H   0  0  0  0  0  0  0  0  0  0  0  0
  142.8571   69.8068  218.6858 H   0  0  0  0  0  0  0  0  0  0  0  0
  144.5879   70.2871  218.6858 H   0  0  0  0  0  0  0  0  0  0  0  0
  142.2280   72.5010  221.2100 C   0  0  0  0  0  0  0  0  0  0  0  0
  141.6570   71.7992  221.8357 H   0  0  0  0  0  0  0  0  0  0  0  0
  141.8960   73.8710  221.2210 C   0  0  0  0  0  0  0  0  0  0  0  0
  140.8140   74.3630  221.9680 O   0  0  0  0  0  0  0  0  0  0  0  0
  139.5240   74.6450  221.4390 C   0  0  0  0  0  0  0  0  0  0  0  0
  138.8147   74.8001  222.2653 H   0  0  0  0  0  0  0  0  0  0  0  0
  139.5717   75.5539  220.8213 H   0  0  0  0  0  0  0  0  0  0  0  0
  139.1881   73.7991  220.8213 H   0  0  0  0  0  0  0  0  0  0  0  0
  1  2  1  0
  2  3  1  0
  3  4  2  0
  4  5  1  0
  4  6  1  0
  6  7  1  0
  6  8  1  0
  6  9  1  0
  9 10  1  0
  9 11  1  0
  9 12  1  0
  3 13  1  0
 13 14  1  0
 13 15  1  0
 15 16  2  0
 16 17  1  0
 16 18  1  0
 18 19  1  0
 18 20  2  0
 20 21  1  0
 20 22  1  0
 22 23  1  0
 22 24  2  0
 24 25  1  0
 25 26  2  0
 25 27  1  0
 27 28  1  0
 27 29  1  0
 29 30  2  0
 30 31  1  0
 30 32  1  0
 32 33  1  0
 32 34  2  0
 34 35  1  0
 35 36  1  0
 36 37  1  0
 36 38  1  0
 36 39  1  0
 34 40  1  0
 40 41  1  0
 40 42  2  0
 42 43  1  0
 43 44  1  0
 44 45  1  0
 44 46  1  0
 44 47  1  0
 24 15  1  0
 42 29  1  0
M  END
>  <UniqueID>  (7) 
9

>  <SMILES>  (7) 
CC/C=C(/O)Nc1ccccc1C(=O)Nc1ccc(OC)cc1OC

>  <Energy>  (7) 
58.713125590397404

>  <Genealogy>  (7) 
CCC=C(O)Nc1ccccc1C(=O)Nc1ccc(OC)cc1OC (tautomer)
CC/C=C(/O)Nc1ccccc1C(=O)Nc1ccc(OC)cc1OC (cis-trans isomerization)
CC/C=C(/O)Nc1ccccc1C(=O)Nc1ccc(OC)cc1OC (3D coordinates assigned)
CC/C=C(/O)Nc1ccccc1C(=O)Nc1ccc(OC)cc1OC (optimized conformer: 58.713125590397404 kcal/mol)

>  <smiles>  (7) 
CCCC(=O)Nc1ccccc1C(=O)Nc1ccc(OC)cc1OC

>  <score_type>  (7) 
oracle

>  <origin>  (7) 
autodockgpu

>  <m_score__min__energy>  (7) 
-5.9699999999999998

>  <m_primary>  (7) 
energy

>  <meeko>  (7) 
{"free_energy": -5.12, "intermolecular_energy": -7.8, "internal_energy": -2.65, "cluster_size": 5, "cluster_id": 3, "rank_in_cluster": 3}

>  <energy>  (7) 
-5.95

>  <cluster_rmsd>  (7) 
0.29

>  <rmsd>  (7) 
271.17

>  <cluster>  (7) 
1

$$$$
NKXSPJYDRINBNN-SEQHFDQZNA-N
     RDKit          3D

 47 48  0  0  0  0  0  0  0  0999 V2000
  143.0740   77.9010  219.9000 H   0  0  0  0  0  0  0  0  0  0  0  0
  142.1920   78.3690  220.0780 O   0  0  0  0  0  0  0  0  0  0  0  0
  141.8120   78.7700  221.3580 C   0  0  0  0  0  0  0  0  0  0  0  0
  141.8560   80.0730  221.6890 C   0  0  0  0  0  0  0  0  0  0  0  0
  142.0384   80.8017  220.8854 H   0  0  0  0  0  0  0  0  0  0  0  0
  141.6720   80.5990  223.0870 C   0  0  0  0  0  0  0  0  0  0  0  0
  140.9157   79.9891  223.6029 H   0  0  0  0  0  0  0  0  0  0  0  0
  141.3480   81.6483  223.0238 H   0  0  0  0  0  0  0  0  0  0  0  0
  142.9770   80.5440  223.8750 C   0  0  0  0  0  0  0  0  0  0  0  0
  142.7554   80.5533  224.9524 H   0  0  0  0  0  0  0  0  0  0  0  0
  143.5205   79.6222  223.6204 H   0  0  0  0  0  0  0  0  0  0  0  0
  143.5961   81.4168  223.6204 H   0  0  0  0  0  0  0  0  0  0  0  0
  141.3570   77.7670  222.2780 N   0  0  0  0  0  0  0  0  0  0  0  0
  141.9890   77.5580  223.0830 H   0  0  0  0  0  0  0  0  0  0  0  0
  139.9920   77.3020  222.3430 C   0  0  0  0  0  0  0  0  0  0  0  0
  138.9580   78.1860  222.7090 C   0  0  0  0  0  0  0  0  0  0  0  0
  139.1881   79.2448  222.8989 H   0  0  0  0  0  0  0  0  0  0  0  0
  137.6440   77.7310  222.8330 C   0  0  0  0  0  0  0  0  0  0  0  0
  136.8445   78.4325  223.1136 H   0  0  0  0  0  0  0  0  0  0  0  0
  137.3430   76.3900  222.6020 C   0  0  0  0  0  0  0  0  0  0  0  0
  136.3069   76.0345  222.7021 H   0  0  0  0  0  0  0  0  0  0  0  0
  138.3540   75.4980  222.2440 C   0  0  0  0  0  0  0  0  0  0  0  0
  138.1093   74.4408  222.0640 H   0  0  0  0  0  0  0  0  0  0  0  0
  139.6840   75.9380  222.1110 C   0  0  0  0  0  0  0  0  0  0  0  0
  140.7210   74.9720  221.6900 C   0  0  0  0  0  0  0  0  0  0  0  0
  140.5780   73.7500  221.9680 O   0  0  0  0  0  0  0  0  0  0  0  0
  141.8980   75.4180  220.9970 N   0  0  0  0  0  0  0  0  0  0  0  0
  142.1200   76.4390  220.9790 H   0  0  0  0  0  0  0  0  0  0  0  0
  142.8580   74.5160  220.4250 C   0  0  0  0  0  0  0  0  0  0  0  0
  142.9540   73.2150  220.9340 C   0  0  0  0  0  0  0  0  0  0  0  0
  142.2968   72.9033  221.7592 H   0  0  0  0  0  0  0  0  0  0  0  0
  143.8750   72.3100  220.4050 C   0  0  0  0  0  0  0  0  0  0  0  0
  143.9310   71.2871  220.8055 H   0  0  0  0  0  0  0  0  0  0  0  0
  144.7310   72.7020  219.3620 C   0  0  0  0  0  0  0  0  0  0  0  0
  145.6700   71.8280  218.7920 O   0  0  0  0  0  0  0  0  0  0  0  0
  145.5690   70.4070  218.8230 C   0  0  0  0  0  0  0  0  0  0  0  0
  145.5446   70.0638  219.8678 H   0  0  0  0  0  0  0  0  0  0  0  0
  144.6463   70.0938  218.3125 H   0  0  0  0  0  0  0  0  0  0  0  0
  146.4381   69.9664  218.3125 H   0  0  0  0  0  0  0  0  0  0  0  0
  144.6580   74.0090  218.8700 C   0  0  0  0  0  0  0  0  0  0  0  0
  145.3283   74.3203  218.0553 H   0  0  0  0  0  0  0  0  0  0  0  0
  143.7370   74.9330  219.4040 C   0  0  0  0  0  0  0  0  0  0  0  0
  143.6870   76.2660  218.9630 O   0  0  0  0  0  0  0  0  0  0  0  0
  143.1230   76.6910  217.7280 C   0  0  0  0  0  0  0  0  0  0  0  0
  142.2586   77.3424  217.9245 H   0  0  0  0  0  0  0  0  0  0  0  0
  143.8777   77.2469  217.1523 H   0  0  0  0  0  0  0  0  0  0  0  0
  142.7966   75.8123  217.1523 H   0  0  0  0  0  0  0  0  0  0  0  0
  1  2  1  0
  2  3  1  0
  3  4  2  0
  4  5  1  0
  4  6  1  0
  6  7  1  0
  6  8  1  0
  6  9  1  0
  9 10  1  0
  9 11  1  0
  9 12  1  0
  3 13  1  0
 13 14  1  0
 13 15  1  0
 15 16  2  0
 16 17  1  0
 16 18  1  0
 18 19  1  0
 18 20  2  0
 20 21  1  0
 20 22  1  0
 22 23  1  0
 22 24  2  0
 24 25  1  0
 25 26  2  0
 25 27  1  0
 27 28  1  0
 27 29  1  0
 29 30  2  0
 30 31  1  0
 30 32  1  0
 32 33  1  0
 32 34  2  0
 34 35  1  0
 35 36  1  0
 36 37  1  0
 36 38  1  0
 36 39  1  0
 34 40  1  0
 40 41  1  0
 40 42  2  0
 42 43  1  0
 43 44  1  0
 44 45  1  0
 44 46  1  0
 44 47  1  0
 24 15  1  0
 42 29  1  0
M  END
>  <UniqueID>  (8) 
9

>  <SMILES>  (8) 
CC/C=C(/O)Nc1ccccc1C(=O)Nc1ccc(OC)cc1OC

>  <Energy>  (8) 
58.713125590397404

>  <Genealogy>  (8) 
CCC=C(O)Nc1ccccc1C(=O)Nc1ccc(OC)cc1OC (tautomer)
CC/C=C(/O)Nc1ccccc1C(=O)Nc1ccc(OC)cc1OC (cis-trans isomerization)
CC/C=C(/O)Nc1ccccc1C(=O)Nc1ccc(OC)cc1OC (3D coordinates assigned)
CC/C=C(/O)Nc1ccccc1C(=O)Nc1ccc(OC)cc1OC (optimized conformer: 58.713125590397404 kcal/mol)

>  <smiles>  (8) 
CCCC(=O)Nc1ccccc1C(=O)Nc1ccc(OC)cc1OC

>  <score_type>  (8) 
oracle

>  <origin>  (8) 
autodockgpu

>  <m_score__min__energy>  (8) 
-5.9699999999999998

>  <m_primary>  (8) 
energy

>  <meeko>  (8) 
{"free_energy": -5.97, "intermolecular_energy": -8.65, "internal_energy": -2.51, "cluster_size": 14, "cluster_id": 1, "rank_in_cluster": 3}

>  <energy>  (8) 
-5.95

>  <cluster_rmsd>  (8) 
0.29

>  <rmsd>  (8) 
271.18

>  <cluster>  (8) 
1

$$$$
NKXSPJYDRINBNN-SEQHFDQZNA-N
     RDKit          3D

 47 48  0  0  0  0  0  0  0  0999 V2000
  143.0140   77.9630  220.0070 H   0  0  0  0  0  0  0  0  0  0  0  0
  142.1340   78.3980  220.2580 O   0  0  0  0  0  0  0  0  0  0  0  0
  141.8250   78.7370  221.5740 C   0  0  0  0  0  0  0  0  0  0  0  0
  142.0120   79.9990  221.9990 C   0  0  0  0  0  0  0  0  0  0  0  0
  141.4732   80.8024  221.4754 H   0  0  0  0  0  0  0  0  0  0  0  0
  142.9100   80.3850  223.1440 C   0  0  0  0  0  0  0  0  0  0  0  0
  143.8079   80.8793  222.7446 H   0  0  0  0  0  0  0  0  0  0  0  0
  143.1816   79.4729  223.6957 H   0  0  0  0  0  0  0  0  0  0  0  0
  142.2030   81.3380  224.1050 C   0  0  0  0  0  0  0  0  0  0  0  0
  142.4221   81.0426  225.1417 H   0  0  0  0  0  0  0  0  0  0  0  0
  142.5601   82.3641  223.9328 H   0  0  0  0  0  0  0  0  0  0  0  0
  141.1175   81.2938  223.9328 H   0  0  0  0  0  0  0  0  0  0  0  0
  141.2880   77.7180  222.4310 N   0  0  0  0  0  0  0  0  0  0  0  0
  141.8540   77.4790  223.2750 H   0  0  0  0  0  0  0  0  0  0  0  0
  139.9150   77.2750  222.3810 C   0  0  0  0  0  0  0  0  0  0  0  0
  138.8700   78.1580  222.7170 C   0  0  0  0  0  0  0  0  0  0  0  0
  139.1010   79.2029  222.9718 H   0  0  0  0  0  0  0  0  0  0  0  0
  137.5450   77.7210  222.7300 C   0  0  0  0  0  0  0  0  0  0  0  0
  136.7381   78.4225  222.9887 H   0  0  0  0  0  0  0  0  0  0  0  0
  137.2420   76.3980  222.4160 C   0  0  0  0  0  0  0  0  0  0  0  0
  136.1966   76.0560  222.4290 H   0  0  0  0  0  0  0  0  0  0  0  0
  138.2630   75.5060  222.0850 C   0  0  0  0  0  0  0  0  0  0  0  0
  138.0162   74.4628  221.8382 H   0  0  0  0  0  0  0  0  0  0  0  0
  139.6040   75.9280  222.0640 C   0  0  0  0  0  0  0  0  0  0  0  0
  140.6540   74.9650  221.6690 C   0  0  0  0  0  0  0  0  0  0  0  0
  140.5110   73.7440  221.9500 O   0  0  0  0  0  0  0  0  0  0  0  0
  141.8430   75.4140  220.9980 N   0  0  0  0  0  0  0  0  0  0  0  0
  142.0610   76.4350  220.9790 H   0  0  0  0  0  0  0  0  0  0  0  0
  142.8190   74.5130  220.4500 C   0  0  0  0  0  0  0  0  0  0  0  0
  142.8990   73.2110  220.9570 C   0  0  0  0  0  0  0  0  0  0  0  0
  142.2180   72.8969  221.7617 H   0  0  0  0  0  0  0  0  0  0  0  0
  143.8350   72.3070  220.4510 C   0  0  0  0  0  0  0  0  0  0  0  0
  143.8791   71.2827  220.8495 H   0  0  0  0  0  0  0  0  0  0  0  0
  144.7210   72.7020  219.4340 C   0  0  0  0  0  0  0  0  0  0  0  0
  145.6750   71.8300  218.8880 O   0  0  0  0  0  0  0  0  0  0  0  0
  145.5720   70.4090  218.9100 C   0  0  0  0  0  0  0  0  0  0  0  0
  145.5467   70.0593  219.9526 H   0  0  0  0  0  0  0  0  0  0  0  0
  144.6491   70.1003  218.3972 H   0  0  0  0  0  0  0  0  0  0  0  0
  146.4407   69.9704  218.3972 H   0  0  0  0  0  0  0  0  0  0  0  0
  144.6620   74.0110  218.9440 C   0  0  0  0  0  0  0  0  0  0  0  0
  145.3551   74.3250  218.1496 H   0  0  0  0  0  0  0  0  0  0  0  0
  143.7260   74.9330  219.4550 C   0  0  0  0  0  0  0  0  0  0  0  0
  143.6880   76.2680  219.0180 O   0  0  0  0  0  0  0  0  0  0  0  0
  142.9660   76.7290  217.8820 C   0  0  0  0  0  0  0  0  0  0  0  0
  142.0820   77.2934  218.2137 H   0  0  0  0  0  0  0  0  0  0  0  0
  143.6122   77.3820  217.2770 H   0  0  0  0  0  0  0  0  0  0  0  0
  142.6456   75.8680  217.2770 H   0  0  0  0  0  0  0  0  0  0  0  0
  1  2  1  0
  2  3  1  0
  3  4  2  0
  4  5  1  0
  4  6  1  0
  6  7  1  0
  6  8  1  0
  6  9  1  0
  9 10  1  0
  9 11  1  0
  9 12  1  0
  3 13  1  0
 13 14  1  0
 13 15  1  0
 15 16  2  0
 16 17  1  0
 16 18  1  0
 18 19  1  0
 18 20  2  0
 20 21  1  0
 20 22  1  0
 22 23  1  0
 22 24  2  0
 24 25  1  0
 25 26  2  0
 25 27  1  0
 27 28  1  0
 27 29  1  0
 29 30  2  0
 30 31  1  0
 30 32  1  0
 32 33  1  0
 32 34  2  0
 34 35  1  0
 35 36  1  0
 36 37  1  0
 36 38  1  0
 36 39  1  0
 34 40  1  0
 40 41  1  0
 40 42  2  0
 42 43  1  0
 43 44  1  0
 44 45  1  0
 44 46  1  0
 44 47  1  0
 24 15  1  0
 42 29  1  0
M  END
>  <UniqueID>  (9) 
9

>  <SMILES>  (9) 
CC/C=C(/O)Nc1ccccc1C(=O)Nc1ccc(OC)cc1OC

>  <Energy>  (9) 
58.713125590397404

>  <Genealogy>  (9) 
CCC=C(O)Nc1ccccc1C(=O)Nc1ccc(OC)cc1OC (tautomer)
CC/C=C(/O)Nc1ccccc1C(=O)Nc1ccc(OC)cc1OC (cis-trans isomerization)
CC/C=C(/O)Nc1ccccc1C(=O)Nc1ccc(OC)cc1OC (3D coordinates assigned)
CC/C=C(/O)Nc1ccccc1C(=O)Nc1ccc(OC)cc1OC (optimized conformer: 58.713125590397404 kcal/mol)

>  <smiles>  (9) 
CCCC(=O)Nc1ccccc1C(=O)Nc1ccc(OC)cc1OC

>  <score_type>  (9) 
oracle

>  <origin>  (9) 
autodockgpu

>  <m_score__min__energy>  (9) 
-5.9699999999999998

>  <m_primary>  (9) 
energy

>  <meeko>  (9) 
{"free_energy": -5.97, "intermolecular_energy": -8.65, "internal_energy": -2.5, "cluster_size": 14, "cluster_id": 1, "rank_in_cluster": 2}

>  <energy>  (9) 
-5.93

>  <cluster_rmsd>  (9) 
0.29

>  <rmsd>  (9) 
271.14

>  <cluster>  (9) 
1

$$$$
NKXSPJYDRINBNN-SEQHFDQZNA-N
     RDKit          3D

 47 48  0  0  0  0  0  0  0  0999 V2000
  143.0560   77.9600  219.9820 H   0  0  0  0  0  0  0  0  0  0  0  0
  142.1470   78.3350  220.2310 O   0  0  0  0  0  0  0  0  0  0  0  0
  141.8320   78.7070  221.5370 C   0  0  0  0  0  0  0  0  0  0  0  0
  142.0230   79.9770  221.9330 C   0  0  0  0  0  0  0  0  0  0  0  0
  141.4801   80.7693  221.3969 H   0  0  0  0  0  0  0  0  0  0  0  0
  142.9310   80.3870  223.0620 C   0  0  0  0  0  0  0  0  0  0  0  0
  143.7907   80.9355  222.6495 H   0  0  0  0  0  0  0  0  0  0  0  0
  143.2643   79.4796  223.5869 H   0  0  0  0  0  0  0  0  0  0  0  0
  142.2030   81.2820  224.0610 C   0  0  0  0  0  0  0  0  0  0  0  0
  142.4565   80.9704  225.0850 H   0  0  0  0  0  0  0  0  0  0  0  0
  142.5106   82.3271  223.9090 H   0  0  0  0  0  0  0  0  0  0  0  0
  141.1171   81.1936  223.9090 H   0  0  0  0  0  0  0  0  0  0  0  0
  141.2830   77.7110  222.4130 N   0  0  0  0  0  0  0  0  0  0  0  0
  141.8350   77.4990  223.2740 H   0  0  0  0  0  0  0  0  0  0  0  0
  139.9140   77.2600  222.3520 C   0  0  0  0  0  0  0  0  0  0  0  0
  138.8620   78.1360  222.6870 C   0  0  0  0  0  0  0  0  0  0  0  0
  139.0857   79.1806  222.9494 H   0  0  0  0  0  0  0  0  0  0  0  0
  137.5390   77.6910  222.6890 C   0  0  0  0  0  0  0  0  0  0  0  0
  136.7266   78.3863  222.9469 H   0  0  0  0  0  0  0  0  0  0  0  0
  137.2450   76.3680  222.3650 C   0  0  0  0  0  0  0  0  0  0  0  0
  136.2015   76.0201  222.3694 H   0  0  0  0  0  0  0  0  0  0  0  0
  138.2730   75.4840  222.0350 C   0  0  0  0  0  0  0  0  0  0  0  0
  138.0338   74.4408  221.7810 H   0  0  0  0  0  0  0  0  0  0  0  0
  139.6120   75.9140  222.0240 C   0  0  0  0  0  0  0  0  0  0  0  0
  140.6700   74.9590  221.6300 C   0  0  0  0  0  0  0  0  0  0  0  0
  140.5620   73.7460  221.9560 O   0  0  0  0  0  0  0  0  0  0  0  0
  141.8290   75.4090  220.9070 N   0  0  0  0  0  0  0  0  0  0  0  0
  142.0240   76.4330  220.8480 H   0  0  0  0  0  0  0  0  0  0  0  0
  142.8060   74.5100  220.3610 C   0  0  0  0  0  0  0  0  0  0  0  0
  142.8750   73.2010  220.8540 C   0  0  0  0  0  0  0  0  0  0  0  0
  142.1840   72.8807  221.6477 H   0  0  0  0  0  0  0  0  0  0  0  0
  143.8120   72.2990  220.3480 C   0  0  0  0  0  0  0  0  0  0  0  0
  143.8471   71.2701  220.7354 H   0  0  0  0  0  0  0  0  0  0  0  0
  144.7110   72.7010  219.3450 C   0  0  0  0  0  0  0  0  0  0  0  0
  145.6680   71.8310  218.8000 O   0  0  0  0  0  0  0  0  0  0  0  0
  145.5500   70.4120  218.7890 C   0  0  0  0  0  0  0  0  0  0  0  0
  145.5190   70.0386  219.8232 H   0  0  0  0  0  0  0  0  0  0  0  0
  144.6249   70.1250  218.2676 H   0  0  0  0  0  0  0  0  0  0  0  0
  146.4150   69.9762  218.2676 H   0  0  0  0  0  0  0  0  0  0  0  0
  144.6640   74.0160  218.8700 C   0  0  0  0  0  0  0  0  0  0  0  0
  145.3679   74.3359  218.0876 H   0  0  0  0  0  0  0  0  0  0  0  0
  143.7260   74.9370  219.3810 C   0  0  0  0  0  0  0  0  0  0  0  0
  143.7000   76.2760  218.9590 O   0  0  0  0  0  0  0  0  0  0  0  0
  143.0910   76.7360  217.7570 C   0  0  0  0  0  0  0  0  0  0  0  0
  142.2356   77.3822  218.0034 H   0  0  0  0  0  0  0  0  0  0  0  0
  143.8248   77.3073  217.1695 H   0  0  0  0  0  0  0  0  0  0  0  0
  142.7421   75.8739  217.1695 H   0  0  0  0  0  0  0  0  0  0  0  0
  1  2  1  0
  2  3  1  0
  3  4  2  0
  4  5  1  0
  4  6  1  0
  6  7  1  0
  6  8  1  0
  6  9  1  0
  9 10  1  0
  9 11  1  0
  9 12  1  0
  3 13  1  0
 13 14  1  0
 13 15  1  0
 15 16  2  0
 16 17  1  0
 16 18  1  0
 18 19  1  0
 18 20  2  0
 20 21  1  0
 20 22  1  0
 22 23  1  0
 22 24  2  0
 24 25  1  0
 25 26  2  0
 25 27  1  0
 27 28  1  0
 27 29  1  0
 29 30  2  0
 30 31  1  0
 30 32  1  0
 32 33  1  0
 32 34  2  0
 34 35  1  0
 35 36  1  0
 36 37  1  0
 36 38  1  0
 36 39  1  0
 34 40  1  0
 40 41  1  0
 40 42  2  0
 42 43  1  0
 43 44  1  0
 44 45  1  0
 44 46  1  0
 44 47  1  0
 24 15  1  0
 42 29  1  0
M  END
>  <UniqueID>  (10) 
9

>  <SMILES>  (10) 
CC/C=C(/O)Nc1ccccc1C(=O)Nc1ccc(OC)cc1OC

>  <Energy>  (10) 
58.713125590397404

>  <Genealogy>  (10) 
CCC=C(O)Nc1ccccc1C(=O)Nc1ccc(OC)cc1OC (tautomer)
CC/C=C(/O)Nc1ccccc1C(=O)Nc1ccc(OC)cc1OC (cis-trans isomerization)
CC/C=C(/O)Nc1ccccc1C(=O)Nc1ccc(OC)cc1OC (3D coordinates assigned)
CC/C=C(/O)Nc1ccccc1C(=O)Nc1ccc(OC)cc1OC (optimized conformer: 58.713125590397404 kcal/mol)

>  <smiles>  (10) 
CCCC(=O)Nc1ccccc1C(=O)Nc1ccc(OC)cc1OC

>  <score_type>  (10) 
oracle

>  <origin>  (10) 
autodockgpu

>  <m_score__min__energy>  (10) 
-5.9699999999999998

>  <m_primary>  (10) 
energy

>  <meeko>  (10) 
{"free_energy": -5.93, "intermolecular_energy": -8.61, "internal_energy": -2.52, "cluster_size": 14, "cluster_id": 1, "rank_in_cluster": 10}

>  <energy>  (10) 
-5.93

>  <cluster_rmsd>  (10) 
0.29

>  <rmsd>  (10) 
271.15

>  <cluster>  (10) 
1

$$$$
NKXSPJYDRINBNN-SEQHFDQZNA-N
     RDKit          3D

 47 48  0  0  0  0  0  0  0  0999 V2000
  142.9940   77.8910  219.9850 H   0  0  0  0  0  0  0  0  0  0  0  0
  142.1250   78.3480  220.2360 O   0  0  0  0  0  0  0  0  0  0  0  0
  141.8300   78.7070  221.5500 C   0  0  0  0  0  0  0  0  0  0  0  0
  142.0380   79.9710  221.9600 C   0  0  0  0  0  0  0  0  0  0  0  0
  141.5357   80.7794  221.4085 H   0  0  0  0  0  0  0  0  0  0  0  0
  142.9130   80.3520  223.1240 C   0  0  0  0  0  0  0  0  0  0  0  0
  143.8304   80.8250  222.7435 H   0  0  0  0  0  0  0  0  0  0  0  0
  143.1531   79.4411  223.6921 H   0  0  0  0  0  0  0  0  0  0  0  0
  142.1990   81.3280  224.0550 C   0  0  0  0  0  0  0  0  0  0  0  0
  142.4010   81.0519  225.1004 H   0  0  0  0  0  0  0  0  0  0  0  0
  142.5656   82.3481  223.8678 H   0  0  0  0  0  0  0  0  0  0  0  0
  141.1158   81.2875  223.8678 H   0  0  0  0  0  0  0  0  0  0  0  0
  141.2830   77.7060  222.4210 N   0  0  0  0  0  0  0  0  0  0  0  0
  141.8380   77.4850  223.2780 H   0  0  0  0  0  0  0  0  0  0  0  0
  139.9120   77.2580  222.3640 C   0  0  0  0  0  0  0  0  0  0  0  0
  138.8630   78.1370  222.7000 C   0  0  0  0  0  0  0  0  0  0  0  0
  139.0901   79.1812  222.9609 H   0  0  0  0  0  0  0  0  0  0  0  0
  137.5390   77.6960  222.7050 C   0  0  0  0  0  0  0  0  0  0  0  0
  136.7290   78.3938  222.9638 H   0  0  0  0  0  0  0  0  0  0  0  0
  137.2410   76.3740  222.3830 C   0  0  0  0  0  0  0  0  0  0  0  0
  136.1964   76.0292  222.3895 H   0  0  0  0  0  0  0  0  0  0  0  0
  138.2660   75.4860  222.0520 C   0  0  0  0  0  0  0  0  0  0  0  0
  138.0235   74.4431  221.7999 H   0  0  0  0  0  0  0  0  0  0  0  0
  139.6060   75.9130  222.0380 C   0  0  0  0  0  0  0  0  0  0  0  0
  140.6600   74.9540  221.6430 C   0  0  0  0  0  0  0  0  0  0  0  0
  140.5340   73.7360  221.9440 O   0  0  0  0  0  0  0  0  0  0  0  0
  141.8360   75.4050  220.9490 N   0  0  0  0  0  0  0  0  0  0  0  0
  142.0420   76.4290  220.9130 H   0  0  0  0  0  0  0  0  0  0  0  0
  142.8130   74.5070  220.4010 C   0  0  0  0  0  0  0  0  0  0  0  0
  142.8850   73.2000  220.8970 C   0  0  0  0  0  0  0  0  0  0  0  0
  142.1973   72.8807  221.6940 H   0  0  0  0  0  0  0  0  0  0  0  0
  143.8220   72.2980  220.3890 C   0  0  0  0  0  0  0  0  0  0  0  0
  143.8596   71.2697  220.7779 H   0  0  0  0  0  0  0  0  0  0  0  0
  144.7170   72.6990  219.3830 C   0  0  0  0  0  0  0  0  0  0  0  0
  145.6740   71.8290  218.8370 O   0  0  0  0  0  0  0  0  0  0  0  0
  145.5720   70.4090  218.8550 C   0  0  0  0  0  0  0  0  0  0  0  0
  145.5467   70.0564  219.8966 H   0  0  0  0  0  0  0  0  0  0  0  0
  144.6494   70.1011  218.3411 H   0  0  0  0  0  0  0  0  0  0  0  0
  146.4411   69.9724  218.3411 H   0  0  0  0  0  0  0  0  0  0  0  0
  144.6660   74.0130  218.9050 C   0  0  0  0  0  0  0  0  0  0  0  0
  145.3665   74.3322  218.1192 H   0  0  0  0  0  0  0  0  0  0  0  0
  143.7290   74.9330  219.4170 C   0  0  0  0  0  0  0  0  0  0  0  0
  143.6990   76.2720  218.9920 O   0  0  0  0  0  0  0  0  0  0  0  0
  143.0450   76.7340  217.8160 C   0  0  0  0  0  0  0  0  0  0  0  0
  142.1763   77.3477  218.0966 H   0  0  0  0  0  0  0  0  0  0  0  0
  143.7447   77.3393  217.2211 H   0  0  0  0  0  0  0  0  0  0  0  0
  142.7083   75.8722  217.2211 H   0  0  0  0  0  0  0  0  0  0  0  0
  1  2  1  0
  2  3  1  0
  3  4  2  0
  4  5  1  0
  4  6  1  0
  6  7  1  0
  6  8  1  0
  6  9  1  0
  9 10  1  0
  9 11  1  0
  9 12  1  0
  3 13  1  0
 13 14  1  0
 13 15  1  0
 15 16  2  0
 16 17  1  0
 16 18  1  0
 18 19  1  0
 18 20  2  0
 20 21  1  0
 20 22  1  0
 22 23  1  0
 22 24  2  0
 24 25  1  0
 25 26  2  0
 25 27  1  0
 27 28  1  0
 27 29  1  0
 29 30  2  0
 30 31  1  0
 30 32  1  0
 32 33  1  0
 32 34  2  0
 34 35  1  0
 35 36  1  0
 36 37  1  0
 36 38  1  0
 36 39  1  0
 34 40  1  0
 40 41  1  0
 40 42  2  0
 42 43  1  0
 43 44  1  0
 44 45  1  0
 44 46  1  0
 44 47  1  0
 24 15  1  0
 42 29  1  0
M  END
>  <UniqueID>  (11) 
9

>  <SMILES>  (11) 
CC/C=C(/O)Nc1ccccc1C(=O)Nc1ccc(OC)cc1OC

>  <Energy>  (11) 
58.713125590397404

>  <Genealogy>  (11) 
CCC=C(O)Nc1ccccc1C(=O)Nc1ccc(OC)cc1OC (tautomer)
CC/C=C(/O)Nc1ccccc1C(=O)Nc1ccc(OC)cc1OC (cis-trans isomerization)
CC/C=C(/O)Nc1ccccc1C(=O)Nc1ccc(OC)cc1OC (3D coordinates assigned)
CC/C=C(/O)Nc1ccccc1C(=O)Nc1ccc(OC)cc1OC (optimized conformer: 58.713125590397404 kcal/mol)

>  <smiles>  (11) 
CCCC(=O)Nc1ccccc1C(=O)Nc1ccc(OC)cc1OC

>  <score_type>  (11) 
oracle

>  <origin>  (11) 
autodockgpu

>  <m_score__min__energy>  (11) 
-5.9699999999999998

>  <m_primary>  (11) 
energy

>  <meeko>  (11) 
{"free_energy": -5.95, "intermolecular_energy": -8.63, "internal_energy": -2.52, "cluster_size": 14, "cluster_id": 1, "rank_in_cluster": 7}

>  <energy>  (11) 
-5.92

>  <cluster_rmsd>  (11) 
0.3

>  <rmsd>  (11) 
271.15

>  <cluster>  (11) 
1

$$$$
NKXSPJYDRINBNN-SEQHFDQZNA-N
     RDKit          3D

 47 48  0  0  0  0  0  0  0  0999 V2000
  142.9840   77.9710  220.0080 H   0  0  0  0  0  0  0  0  0  0  0  0
  142.1080   78.3720  220.3210 O   0  0  0  0  0  0  0  0  0  0  0  0
  141.8690   78.6750  221.6610 C   0  0  0  0  0  0  0  0  0  0  0  0
  142.1420   79.9070  222.1250 C   0  0  0  0  0  0  0  0  0  0  0  0
  142.0193   80.7552  221.4355 H   0  0  0  0  0  0  0  0  0  0  0  0
  142.6050   80.2010  223.5280 C   0  0  0  0  0  0  0  0  0  0  0  0
  143.7010   80.1167  223.5694 H   0  0  0  0  0  0  0  0  0  0  0  0
  142.1346   79.4767  224.2093 H   0  0  0  0  0  0  0  0  0  0  0  0
  142.1970   81.6070  223.9600 C   0  0  0  0  0  0  0  0  0  0  0  0
  142.1808   81.6629  225.0585 H   0  0  0  0  0  0  0  0  0  0  0  0
  142.9207   82.3360  223.5664 H   0  0  0  0  0  0  0  0  0  0  0  0
  141.1955   81.8354  223.5664 H   0  0  0  0  0  0  0  0  0  0  0  0
  141.3080   77.6530  222.4990 N   0  0  0  0  0  0  0  0  0  0  0  0
  141.8530   77.4070  223.3550 H   0  0  0  0  0  0  0  0  0  0  0  0
  139.9360   77.2140  222.4150 C   0  0  0  0  0  0  0  0  0  0  0  0
  138.8870   78.0930  222.7530 C   0  0  0  0  0  0  0  0  0  0  0  0
  139.1160   79.1310  223.0360 H   0  0  0  0  0  0  0  0  0  0  0  0
  137.5610   77.6590  222.7320 C   0  0  0  0  0  0  0  0  0  0  0  0
  136.7513   78.3565  222.9923 H   0  0  0  0  0  0  0  0  0  0  0  0
  137.2600   76.3440  222.3820 C   0  0  0  0  0  0  0  0  0  0  0  0
  136.2137   76.0048  222.3682 H   0  0  0  0  0  0  0  0  0  0  0  0
  138.2850   75.4570  222.0490 C   0  0  0  0  0  0  0  0  0  0  0  0
  138.0404   74.4203  221.7745 H   0  0  0  0  0  0  0  0  0  0  0  0
  139.6280   75.8760  222.0610 C   0  0  0  0  0  0  0  0  0  0  0  0
  140.6820   74.9200  221.6630 C   0  0  0  0  0  0  0  0  0  0  0  0
  140.5620   73.7020  221.9700 O   0  0  0  0  0  0  0  0  0  0  0  0
  141.8520   75.3710  220.9590 N   0  0  0  0  0  0  0  0  0  0  0  0
  142.0550   76.3950  220.9180 H   0  0  0  0  0  0  0  0  0  0  0  0
  142.8280   74.4730  220.4090 C   0  0  0  0  0  0  0  0  0  0  0  0
  142.9090   73.1690  220.9110 C   0  0  0  0  0  0  0  0  0  0  0  0
  142.2287   72.8517  221.7151 H   0  0  0  0  0  0  0  0  0  0  0  0
  143.8450   72.2670  220.4010 C   0  0  0  0  0  0  0  0  0  0  0  0
  143.8882   71.2405  220.7940 H   0  0  0  0  0  0  0  0  0  0  0  0
  144.7320   72.6670  219.3870 C   0  0  0  0  0  0  0  0  0  0  0  0
  145.6870   71.7970  218.8380 O   0  0  0  0  0  0  0  0  0  0  0  0
  145.5530   70.3800  218.7940 C   0  0  0  0  0  0  0  0  0  0  0  0
  145.5155   69.9832  219.8193 H   0  0  0  0  0  0  0  0  0  0  0  0
  144.6258   70.1156  218.2644 H   0  0  0  0  0  0  0  0  0  0  0  0
  146.4142   69.9465  218.2644 H   0  0  0  0  0  0  0  0  0  0  0  0
  144.6730   73.9780  218.9030 C   0  0  0  0  0  0  0  0  0  0  0  0
  145.3669   74.2956  218.1108 H   0  0  0  0  0  0  0  0  0  0  0  0
  143.7360   74.8980  219.4170 C   0  0  0  0  0  0  0  0  0  0  0  0
  143.6990   76.2340  218.9860 O   0  0  0  0  0  0  0  0  0  0  0  0
  142.9680   76.7020  217.8580 C   0  0  0  0  0  0  0  0  0  0  0  0
  142.0875   77.2657  218.1999 H   0  0  0  0  0  0  0  0  0  0  0  0
  143.6101   77.3574  217.2512 H   0  0  0  0  0  0  0  0  0  0  0  0
  142.6415   75.8446  217.2512 H   0  0  0  0  0  0  0  0  0  0  0  0
  1  2  1  0
  2  3  1  0
  3  4  2  0
  4  5  1  0
  4  6  1  0
  6  7  1  0
  6  8  1  0
  6  9  1  0
  9 10  1  0
  9 11  1  0
  9 12  1  0
  3 13  1  0
 13 14  1  0
 13 15  1  0
 15 16  2  0
 16 17  1  0
 16 18  1  0
 18 19  1  0
 18 20  2  0
 20 21  1  0
 20 22  1  0
 22 23  1  0
 22 24  2  0
 24 25  1  0
 25 26  2  0
 25 27  1  0
 27 28  1  0
 27 29  1  0
 29 30  2  0
 30 31  1  0
 30 32  1  0
 32 33  1  0
 32 34  2  0
 34 35  1  0
 35 36  1  0
 36 37  1  0
 36 38  1  0
 36 39  1  0
 34 40  1  0
 40 41  1  0
 40 42  2  0
 42 43  1  0
 43 44  1  0
 44 45  1  0
 44 46  1  0
 44 47  1  0
 24 15  1  0
 42 29  1  0
M  END
>  <UniqueID>  (12) 
9

>  <SMILES>  (12) 
CC/C=C(/O)Nc1ccccc1C(=O)Nc1ccc(OC)cc1OC

>  <Energy>  (12) 
58.713125590397404

>  <Genealogy>  (12) 
CCC=C(O)Nc1ccccc1C(=O)Nc1ccc(OC)cc1OC (tautomer)
CC/C=C(/O)Nc1ccccc1C(=O)Nc1ccc(OC)cc1OC (cis-trans isomerization)
CC/C=C(/O)Nc1ccccc1C(=O)Nc1ccc(OC)cc1OC (3D coordinates assigned)
CC/C=C(/O)Nc1ccccc1C(=O)Nc1ccc(OC)cc1OC (optimized conformer: 58.713125590397404 kcal/mol)

>  <smiles>  (12) 
CCCC(=O)Nc1ccccc1C(=O)Nc1ccc(OC)cc1OC

>  <score_type>  (12) 
oracle

>  <origin>  (12) 
autodockgpu

>  <m_score__min__energy>  (12) 
-5.9699999999999998

>  <m_primary>  (12) 
energy

>  <meeko>  (12) 
{"free_energy": -5.91, "intermolecular_energy": -8.6, "internal_energy": -2.51, "cluster_size": 14, "cluster_id": 1, "rank_in_cluster": 12}

>  <energy>  (12) 
-5.91

>  <cluster_rmsd>  (12) 
0.33

>  <rmsd>  (12) 
271.19

>  <cluster>  (12) 
1

$$$$
NKXSPJYDRINBNN-SEQHFDQZNA-N
     RDKit          3D

 47 48  0  0  0  0  0  0  0  0999 V2000
  143.0690   77.8920  220.0050 H   0  0  0  0  0  0  0  0  0  0  0  0
  142.1990   78.3980  220.1320 O   0  0  0  0  0  0  0  0  0  0  0  0
  141.7430   78.7800  221.3930 C   0  0  0  0  0  0  0  0  0  0  0  0
  141.7110   80.0830  221.7240 C   0  0  0  0  0  0  0  0  0  0  0  0
  141.7541   80.8215  220.9099 H   0  0  0  0  0  0  0  0  0  0  0  0
  141.6200   80.5970  223.1360 C   0  0  0  0  0  0  0  0  0  0  0  0
  140.8929   79.9880  223.6932 H   0  0  0  0  0  0  0  0  0  0  0  0
  141.3010   81.6492  223.1035 H   0  0  0  0  0  0  0  0  0  0  0  0
  142.9730   80.5240  223.8390 C   0  0  0  0  0  0  0  0  0  0  0  0
  142.8211   80.5322  224.9284 H   0  0  0  0  0  0  0  0  0  0  0  0
  143.4881   79.5968  223.5476 H   0  0  0  0  0  0  0  0  0  0  0  0
  143.5849   81.3904  223.5476 H   0  0  0  0  0  0  0  0  0  0  0  0
  141.2930   77.7560  222.2920 N   0  0  0  0  0  0  0  0  0  0  0  0
  141.9260   77.5330  223.0920 H   0  0  0  0  0  0  0  0  0  0  0  0
  139.9300   77.2840  222.3480 C   0  0  0  0  0  0  0  0  0  0  0  0
  138.8890   78.1620  222.7100 C   0  0  0  0  0  0  0  0  0  0  0  0
  139.1129   79.2215  222.9031 H   0  0  0  0  0  0  0  0  0  0  0  0
  137.5770   77.7010  222.8260 C   0  0  0  0  0  0  0  0  0  0  0  0
  136.7730   78.3982  223.1043 H   0  0  0  0  0  0  0  0  0  0  0  0
  137.2830   76.3590  222.5900 C   0  0  0  0  0  0  0  0  0  0  0  0
  136.2478   75.9987  222.6828 H   0  0  0  0  0  0  0  0  0  0  0  0
  138.3010   75.4720  222.2360 C   0  0  0  0  0  0  0  0  0  0  0  0
  138.0626   74.4140  222.0523 H   0  0  0  0  0  0  0  0  0  0  0  0
  139.6290   75.9190  222.1120 C   0  0  0  0  0  0  0  0  0  0  0  0
  140.6740   74.9590  221.6950 C   0  0  0  0  0  0  0  0  0  0  0  0
  140.5360   73.7360  221.9720 O   0  0  0  0  0  0  0  0  0  0  0  0
  141.8520   75.4120  221.0070 N   0  0  0  0  0  0  0  0  0  0  0  0
  142.0680   76.4340  220.9910 H   0  0  0  0  0  0  0  0  0  0  0  0
  142.8190   74.5160  220.4400 C   0  0  0  0  0  0  0  0  0  0  0  0
  142.9010   73.2070  220.9300 C   0  0  0  0  0  0  0  0  0  0  0  0
  142.2273   72.8847  221.7376 H   0  0  0  0  0  0  0  0  0  0  0  0
  143.8290   72.3070  220.4040 C   0  0  0  0  0  0  0  0  0  0  0  0
  143.8741   71.2779  220.7900 H   0  0  0  0  0  0  0  0  0  0  0  0
  144.7060   72.7110  219.3830 C   0  0  0  0  0  0  0  0  0  0  0  0
  145.6520   71.8430  218.8170 O   0  0  0  0  0  0  0  0  0  0  0  0
  145.5610   70.4220  218.8500 C   0  0  0  0  0  0  0  0  0  0  0  0
  145.5391   70.0802  219.8953 H   0  0  0  0  0  0  0  0  0  0  0  0
  144.6405   70.1016  218.3401 H   0  0  0  0  0  0  0  0  0  0  0  0
  146.4331   69.9868  218.3401 H   0  0  0  0  0  0  0  0  0  0  0  0
  144.6460   74.0260  218.9100 C   0  0  0  0  0  0  0  0  0  0  0  0
  145.3326   74.3478  218.1131 H   0  0  0  0  0  0  0  0  0  0  0  0
  143.7170   74.9450  219.4410 C   0  0  0  0  0  0  0  0  0  0  0  0
  143.6800   76.2840  219.0200 O   0  0  0  0  0  0  0  0  0  0  0  0
  143.1980   76.7240  217.7560 C   0  0  0  0  0  0  0  0  0  0  0  0
  142.3932   77.4587  217.9060 H   0  0  0  0  0  0  0  0  0  0  0  0
  144.0196   77.1901  217.1923 H   0  0  0  0  0  0  0  0  0  0  0  0
  142.8085   75.8634  217.1923 H   0  0  0  0  0  0  0  0  0  0  0  0
  1  2  1  0
  2  3  1  0
  3  4  2  0
  4  5  1  0
  4  6  1  0
  6  7  1  0
  6  8  1  0
  6  9  1  0
  9 10  1  0
  9 11  1  0
  9 12  1  0
  3 13  1  0
 13 14  1  0
 13 15  1  0
 15 16  2  0
 16 17  1  0
 16 18  1  0
 18 19  1  0
 18 20  2  0
 20 21  1  0
 20 22  1  0
 22 23  1  0
 22 24  2  0
 24 25  1  0
 25 26  2  0
 25 27  1  0
 27 28  1  0
 27 29  1  0
 29 30  2  0
 30 31  1  0
 30 32  1  0
 32 33  1  0
 32 34  2  0
 34 35  1  0
 35 36  1  0
 36 37  1  0
 36 38  1  0
 36 39  1  0
 34 40  1  0
 40 41  1  0
 40 42  2  0
 42 43  1  0
 43 44  1  0
 44 45  1  0
 44 46  1  0
 44 47  1  0
 24 15  1  0
 42 29  1  0
M  END
>  <UniqueID>  (13) 
9

>  <SMILES>  (13) 
CC/C=C(/O)Nc1ccccc1C(=O)Nc1ccc(OC)cc1OC

>  <Energy>  (13) 
58.713125590397404

>  <Genealogy>  (13) 
CCC=C(O)Nc1ccccc1C(=O)Nc1ccc(OC)cc1OC (tautomer)
CC/C=C(/O)Nc1ccccc1C(=O)Nc1ccc(OC)cc1OC (cis-trans isomerization)
CC/C=C(/O)Nc1ccccc1C(=O)Nc1ccc(OC)cc1OC (3D coordinates assigned)
CC/C=C(/O)Nc1ccccc1C(=O)Nc1ccc(OC)cc1OC (optimized conformer: 58.713125590397404 kcal/mol)

>  <smiles>  (13) 
CCCC(=O)Nc1ccccc1C(=O)Nc1ccc(OC)cc1OC

>  <score_type>  (13) 
oracle

>  <origin>  (13) 
autodockgpu

>  <m_score__min__energy>  (13) 
-5.9699999999999998

>  <m_primary>  (13) 
energy

>  <meeko>  (13) 
{"free_energy": -5.97, "intermolecular_energy": -8.66, "internal_energy": -2.51, "cluster_size": 14, "cluster_id": 1, "rank_in_cluster": 1}

>  <energy>  (13) 
-5.81

>  <cluster_rmsd>  (13) 
0.24

>  <rmsd>  (13) 
271.08

>  <cluster>  (13) 
1

$$$$
NKXSPJYDRINBNN-SEQHFDQZNA-N
     RDKit          3D

 47 48  0  0  0  0  0  0  0  0999 V2000
  139.9380   69.3930  222.9350 H   0  0  0  0  0  0  0  0  0  0  0  0
  139.6520   70.3100  222.6110 O   0  0  0  0  0  0  0  0  0  0  0  0
  139.8120   71.4540  223.3920 C   0  0  0  0  0  0  0  0  0  0  0  0
  139.8370   71.3490  224.7320 C   0  0  0  0  0  0  0  0  0  0  0  0
  138.8843   71.4470  225.2731 H   0  0  0  0  0  0  0  0  0  0  0  0
  141.0840   71.1060  225.5410 C   0  0  0  0  0  0  0  0  0  0  0  0
  141.9559   71.4598  224.9712 H   0  0  0  0  0  0  0  0  0  0  0  0
  141.1636   70.0275  225.7424 H   0  0  0  0  0  0  0  0  0  0  0  0
  141.0290   71.8440  226.8760 C   0  0  0  0  0  0  0  0  0  0  0  0
  141.0832   71.1167  227.6995 H   0  0  0  0  0  0  0  0  0  0  0  0
  141.8778   72.5403  226.9453 H   0  0  0  0  0  0  0  0  0  0  0  0
  140.0864   72.4068  226.9453 H   0  0  0  0  0  0  0  0  0  0  0  0
  139.9740   72.7140  222.7240 N   0  0  0  0  0  0  0  0  0  0  0  0
  139.4190   73.5130  223.1050 H   0  0  0  0  0  0  0  0  0  0  0  0
  141.0630   73.0080  221.8240 C   0  0  0  0  0  0  0  0  0  0  0  0
  141.8650   71.9670  221.3160 C   0  0  0  0  0  0  0  0  0  0  0  0
  141.6283   70.9234  221.5705 H   0  0  0  0  0  0  0  0  0  0  0  0
  142.9570   72.2470  220.4930 C   0  0  0  0  0  0  0  0  0  0  0  0
  143.5724   71.4249  220.0987 H   0  0  0  0  0  0  0  0  0  0  0  0
  143.2690   73.5660  220.1700 C   0  0  0  0  0  0  0  0  0  0  0  0
  144.1309   73.7833  219.5220 H   0  0  0  0  0  0  0  0  0  0  0  0
  142.4900   74.6120  220.6670 C   0  0  0  0  0  0  0  0  0  0  0  0
  142.7435   75.6508  220.4087 H   0  0  0  0  0  0  0  0  0  0  0  0
  141.3840   74.3500  221.4950 C   0  0  0  0  0  0  0  0  0  0  0  0
  140.5580   75.4800  221.9690 C   0  0  0  0  0  0  0  0  0  0  0  0
  139.3540   75.2770  222.2870 O   0  0  0  0  0  0  0  0  0  0  0  0
  141.1060   76.8070  222.0410 N   0  0  0  0  0  0  0  0  0  0  0  0
  142.0120   77.0080  221.5610 H   0  0  0  0  0  0  0  0  0  0  0  0
  140.4080   77.9100  222.6390 C   0  0  0  0  0  0  0  0  0  0  0  0
  139.0090   77.9310  222.5960 C   0  0  0  0  0  0  0  0  0  0  0  0
  138.4664   77.1080  222.1079 H   0  0  0  0  0  0  0  0  0  0  0  0
  138.2960   78.9870  223.1670 C   0  0  0  0  0  0  0  0  0  0  0  0
  137.1964   78.9848  223.1382 H   0  0  0  0  0  0  0  0  0  0  0  0
  138.9780   80.0520  223.7780 C   0  0  0  0  0  0  0  0  0  0  0  0
  138.3070   81.1330  224.3700 O   0  0  0  0  0  0  0  0  0  0  0  0
  137.2410   81.0030  225.3060 C   0  0  0  0  0  0  0  0  0  0  0  0
  137.6430   81.0520  226.3287 H   0  0  0  0  0  0  0  0  0  0  0  0
  136.5197   81.8198  225.1560 H   0  0  0  0  0  0  0  0  0  0  0  0
  136.7371   80.0368  225.1560 H   0  0  0  0  0  0  0  0  0  0  0  0
  140.3770   80.0480  223.7980 C   0  0  0  0  0  0  0  0  0  0  0  0
  140.9152   80.8811  224.2737 H   0  0  0  0  0  0  0  0  0  0  0  0
  141.1060   78.9910  223.2170 C   0  0  0  0  0  0  0  0  0  0  0  0
  142.5100   78.9960  223.1760 O   0  0  0  0  0  0  0  0  0  0  0  0
  143.3140   80.1660  223.0820 C   0  0  0  0  0  0  0  0  0  0  0  0
  143.5600   80.5240  224.0926 H   0  0  0  0  0  0  0  0  0  0  0  0
  144.2420   79.9306  222.5404 H   0  0  0  0  0  0  0  0  0  0  0  0
  142.7616   80.9480  222.5404 H   0  0  0  0  0  0  0  0  0  0  0  0
  1  2  1  0
  2  3  1  0
  3  4  2  0
  4  5  1  0
  4  6  1  0
  6  7  1  0
  6  8  1  0
  6  9  1  0
  9 10  1  0
  9 11  1  0
  9 12  1  0
  3 13  1  0
 13 14  1  0
 13 15  1  0
 15 16  2  0
 16 17  1  0
 16 18  1  0
 18 19  1  0
 18 20  2  0
 20 21  1  0
 20 22  1  0
 22 23  1  0
 22 24  2  0
 24 25  1  0
 25 26  2  0
 25 27  1  0
 27 28  1  0
 27 29  1  0
 29 30  2  0
 30 31  1  0
 30 32  1  0
 32 33  1  0
 32 34  2  0
 34 35  1  0
 35 36  1  0
 36 37  1  0
 36 38  1  0
 36 39  1  0
 34 40  1  0
 40 41  1  0
 40 42  2  0
 42 43  1  0
 43 44  1  0
 44 45  1  0
 44 46  1  0
 44 47  1  0
 24 15  1  0
 42 29  1  0
M  END
>  <UniqueID>  (14) 
9

>  <SMILES>  (14) 
CC/C=C(/O)Nc1ccccc1C(=O)Nc1ccc(OC)cc1OC

>  <Energy>  (14) 
58.713125590397404

>  <Genealogy>  (14) 
CCC=C(O)Nc1ccccc1C(=O)Nc1ccc(OC)cc1OC (tautomer)
CC/C=C(/O)Nc1ccccc1C(=O)Nc1ccc(OC)cc1OC (cis-trans isomerization)
CC/C=C(/O)Nc1ccccc1C(=O)Nc1ccc(OC)cc1OC (3D coordinates assigned)
CC/C=C(/O)Nc1ccccc1C(=O)Nc1ccc(OC)cc1OC (optimized conformer: 58.713125590397404 kcal/mol)

>  <smiles>  (14) 
CCCC(=O)Nc1ccccc1C(=O)Nc1ccc(OC)cc1OC

>  <score_type>  (14) 
oracle

>  <origin>  (14) 
autodockgpu

>  <m_score__min__energy>  (14) 
-5.9699999999999998

>  <m_primary>  (14) 
energy

>  <meeko>  (14) 
{"free_energy": -5.89, "intermolecular_energy": -8.58, "internal_energy": -1.57, "cluster_size": 1, "cluster_id": 2, "rank_in_cluster": 1}

>  <energy>  (14) 
-5.7

>  <cluster_rmsd>  (14) 
0.34

>  <rmsd>  (14) 
270.97

>  <cluster>  (14) 
1

$$$$
NKXSPJYDRINBNN-SEQHFDQZNA-N
     RDKit          3D

 47 48  0  0  0  0  0  0  0  0999 V2000
  143.0130   77.8970  219.9290 H   0  0  0  0  0  0  0  0  0  0  0  0
  142.1080   78.2610  220.2050 O   0  0  0  0  0  0  0  0  0  0  0  0
  141.8400   78.6630  221.5120 C   0  0  0  0  0  0  0  0  0  0  0  0
  142.0830   79.9320  221.8830 C   0  0  0  0  0  0  0  0  0  0  0  0
  141.6669   80.7382  221.2610 H   0  0  0  0  0  0  0  0  0  0  0  0
  142.8880   80.3220  223.0950 C   0  0  0  0  0  0  0  0  0  0  0  0
  143.8353   80.7742  222.7662 H   0  0  0  0  0  0  0  0  0  0  0  0
  143.0766   79.4185  223.6934 H   0  0  0  0  0  0  0  0  0  0  0  0
  142.1310   81.3260  223.9610 C   0  0  0  0  0  0  0  0  0  0  0  0
  142.3033   81.0974  225.0231 H   0  0  0  0  0  0  0  0  0  0  0  0
  142.4893   82.3427  223.7419 H   0  0  0  0  0  0  0  0  0  0  0  0
  141.0550   81.2612  223.7419 H   0  0  0  0  0  0  0  0  0  0  0  0
  141.2810   77.7000  222.4180 N   0  0  0  0  0  0  0  0  0  0  0  0
  141.8260   77.5150  223.2900 H   0  0  0  0  0  0  0  0  0  0  0  0
  139.9100   77.2530  222.3630 C   0  0  0  0  0  0  0  0  0  0  0  0
  138.8620   78.1320  222.6990 C   0  0  0  0  0  0  0  0  0  0  0  0
  139.0899   79.1765  222.9579 H   0  0  0  0  0  0  0  0  0  0  0  0
  137.5370   77.6920  222.7070 C   0  0  0  0  0  0  0  0  0  0  0  0
  136.7278   78.3909  222.9653 H   0  0  0  0  0  0  0  0  0  0  0  0
  137.2380   76.3680  222.3880 C   0  0  0  0  0  0  0  0  0  0  0  0
  136.1935   76.0231  222.3964 H   0  0  0  0  0  0  0  0  0  0  0  0
  138.2630   75.4800  222.0580 C   0  0  0  0  0  0  0  0  0  0  0  0
  138.0202   74.4367  221.8080 H   0  0  0  0  0  0  0  0  0  0  0  0
  139.6030   75.9060  222.0420 C   0  0  0  0  0  0  0  0  0  0  0  0
  140.6570   74.9470  221.6470 C   0  0  0  0  0  0  0  0  0  0  0  0
  140.5290   73.7290  221.9470 O   0  0  0  0  0  0  0  0  0  0  0  0
  141.8340   75.3970  220.9550 N   0  0  0  0  0  0  0  0  0  0  0  0
  142.0420   76.4200  220.9190 H   0  0  0  0  0  0  0  0  0  0  0  0
  142.8100   74.4980  220.4080 C   0  0  0  0  0  0  0  0  0  0  0  0
  142.8920   73.1950  220.9150 C   0  0  0  0  0  0  0  0  0  0  0  0
  142.2114   72.8796  221.7196 H   0  0  0  0  0  0  0  0  0  0  0  0
  143.8290   72.2930  220.4090 C   0  0  0  0  0  0  0  0  0  0  0  0
  143.8743   71.2688  220.8077 H   0  0  0  0  0  0  0  0  0  0  0  0
  144.7150   72.6880  219.3920 C   0  0  0  0  0  0  0  0  0  0  0  0
  145.6710   71.8170  218.8470 O   0  0  0  0  0  0  0  0  0  0  0  0
  145.5590   70.3970  218.8490 C   0  0  0  0  0  0  0  0  0  0  0  0
  145.5303   70.0329  219.8866 H   0  0  0  0  0  0  0  0  0  0  0  0
  144.6348   70.1014  218.3310 H   0  0  0  0  0  0  0  0  0  0  0  0
  146.4255   69.9601  218.3310 H   0  0  0  0  0  0  0  0  0  0  0  0
  144.6550   73.9970  218.9030 C   0  0  0  0  0  0  0  0  0  0  0  0
  145.3489   74.3119  218.1097 H   0  0  0  0  0  0  0  0  0  0  0  0
  143.7170   74.9190  219.4130 C   0  0  0  0  0  0  0  0  0  0  0  0
  143.6780   76.2530  218.9760 O   0  0  0  0  0  0  0  0  0  0  0  0
  143.0770   76.6920  217.7640 C   0  0  0  0  0  0  0  0  0  0  0  0
  142.2084   77.3265  217.9943 H   0  0  0  0  0  0  0  0  0  0  0  0
  143.8087   77.2698  217.1802 H   0  0  0  0  0  0  0  0  0  0  0  0
  142.7491   75.8193  217.1802 H   0  0  0  0  0  0  0  0  0  0  0  0
  1  2  1  0
  2  3  1  0
  3  4  2  0
  4  5  1  0
  4  6  1  0
  6  7  1  0
  6  8  1  0
  6  9  1  0
  9 10  1  0
  9 11  1  0
  9 12  1  0
  3 13  1  0
 13 14  1  0
 13 15  1  0
 15 16  2  0
 16 17  1  0
 16 18  1  0
 18 19  1  0
 18 20  2  0
 20 21  1  0
 20 22  1  0
 22 23  1  0
 22 24  2  0
 24 25  1  0
 25 26  2  0
 25 27  1  0
 27 28  1  0
 27 29  1  0
 29 30  2  0
 30 31  1  0
 30 32  1  0
 32 33  1  0
 32 34  2  0
 34 35  1  0
 35 36  1  0
 36 37  1  0
 36 38  1  0
 36 39  1  0
 34 40  1  0
 40 41  1  0
 40 42  2  0
 42 43  1  0
 43 44  1  0
 44 45  1  0
 44 46  1  0
 44 47  1  0
 24 15  1  0
 42 29  1  0
M  END
>  <UniqueID>  (15) 
9

>  <SMILES>  (15) 
CC/C=C(/O)Nc1ccccc1C(=O)Nc1ccc(OC)cc1OC

>  <Energy>  (15) 
58.713125590397404

>  <Genealogy>  (15) 
CCC=C(O)Nc1ccccc1C(=O)Nc1ccc(OC)cc1OC (tautomer)
CC/C=C(/O)Nc1ccccc1C(=O)Nc1ccc(OC)cc1OC (cis-trans isomerization)
CC/C=C(/O)Nc1ccccc1C(=O)Nc1ccc(OC)cc1OC (3D coordinates assigned)
CC/C=C(/O)Nc1ccccc1C(=O)Nc1ccc(OC)cc1OC (optimized conformer: 58.713125590397404 kcal/mol)

>  <smiles>  (15) 
CCCC(=O)Nc1ccccc1C(=O)Nc1ccc(OC)cc1OC

>  <score_type>  (15) 
oracle

>  <origin>  (15) 
autodockgpu

>  <m_score__min__energy>  (15) 
-5.9699999999999998

>  <m_primary>  (15) 
energy

>  <meeko>  (15) 
{"free_energy": -5.92, "intermolecular_energy": -8.6, "internal_energy": -2.52, "cluster_size": 14, "cluster_id": 1, "rank_in_cluster": 11}

>  <energy>  (15) 
-5.89

>  <cluster_rmsd>  (15) 
0.0

>  <rmsd>  (15) 
271.74

>  <cluster>  (15) 
2

$$$$
NKXSPJYDRINBNN-SEQHFDQZNA-N
     RDKit          3D

 47 48  0  0  0  0  0  0  0  0999 V2000
  143.0680   77.9570  220.0380 H   0  0  0  0  0  0  0  0  0  0  0  0
  142.1930   78.4540  220.1580 O   0  0  0  0  0  0  0  0  0  0  0  0
  141.7200   78.8270  221.4150 C   0  0  0  0  0  0  0  0  0  0  0  0
  141.6680   80.1280  221.7490 C   0  0  0  0  0  0  0  0  0  0  0  0
  141.6748   80.8683  220.9354 H   0  0  0  0  0  0  0  0  0  0  0  0
  141.6010   80.6380  223.1640 C   0  0  0  0  0  0  0  0  0  0  0  0
  140.8654   80.0430  223.7252 H   0  0  0  0  0  0  0  0  0  0  0  0
  141.3055   81.6973  223.1383 H   0  0  0  0  0  0  0  0  0  0  0  0
  142.9580   80.5320  223.8550 C   0  0  0  0  0  0  0  0  0  0  0  0
  142.8159   80.5431  224.9457 H   0  0  0  0  0  0  0  0  0  0  0  0
  143.4480   79.5928  223.5586 H   0  0  0  0  0  0  0  0  0  0  0  0
  143.5879   81.3837  223.5586 H   0  0  0  0  0  0  0  0  0  0  0  0
  141.2740   77.7940  222.3070 N   0  0  0  0  0  0  0  0  0  0  0  0
  141.9100   77.5670  223.1030 H   0  0  0  0  0  0  0  0  0  0  0  0
  139.9130   77.3180  222.3630 C   0  0  0  0  0  0  0  0  0  0  0  0
  138.8690   78.1930  222.7260 C   0  0  0  0  0  0  0  0  0  0  0  0
  139.0893   79.2530  222.9204 H   0  0  0  0  0  0  0  0  0  0  0  0
  137.5590   77.7270  222.8410 C   0  0  0  0  0  0  0  0  0  0  0  0
  136.7526   78.4213  223.1197 H   0  0  0  0  0  0  0  0  0  0  0  0
  137.2690   76.3850  222.6040 C   0  0  0  0  0  0  0  0  0  0  0  0
  136.2350   76.0213  222.6967 H   0  0  0  0  0  0  0  0  0  0  0  0
  138.2900   75.5020  222.2490 C   0  0  0  0  0  0  0  0  0  0  0  0
  138.0550   74.4432  222.0651 H   0  0  0  0  0  0  0  0  0  0  0  0
  139.6170   75.9530  222.1240 C   0  0  0  0  0  0  0  0  0  0  0  0
  140.6630   74.9960  221.7060 C   0  0  0  0  0  0  0  0  0  0  0  0
  140.5320   73.7730  221.9840 O   0  0  0  0  0  0  0  0  0  0  0  0
  141.8380   75.4540  221.0150 N   0  0  0  0  0  0  0  0  0  0  0  0
  142.0500   76.4760  220.9970 H   0  0  0  0  0  0  0  0  0  0  0  0
  142.8070   74.5600  220.4460 C   0  0  0  0  0  0  0  0  0  0  0  0
  142.8960   73.2530  220.9380 C   0  0  0  0  0  0  0  0  0  0  0  0
  142.2266   72.9294  221.7487 H   0  0  0  0  0  0  0  0  0  0  0  0
  143.8260   72.3560  220.4100 C   0  0  0  0  0  0  0  0  0  0  0  0
  143.8764   71.3276  220.7970 H   0  0  0  0  0  0  0  0  0  0  0  0
  144.6980   72.7620  219.3860 C   0  0  0  0  0  0  0  0  0  0  0  0
  145.6470   71.8970  218.8180 O   0  0  0  0  0  0  0  0  0  0  0  0
  145.5530   70.4760  218.8380 C   0  0  0  0  0  0  0  0  0  0  0  0
  145.5298   70.1247  219.8801 H   0  0  0  0  0  0  0  0  0  0  0  0
  144.6321   70.1622  218.3247 H   0  0  0  0  0  0  0  0  0  0  0  0
  146.4245   70.0436  218.3247 H   0  0  0  0  0  0  0  0  0  0  0  0
  144.6310   74.0760  218.9110 C   0  0  0  0  0  0  0  0  0  0  0  0
  145.3136   74.3990  218.1111 H   0  0  0  0  0  0  0  0  0  0  0  0
  143.7010   74.9920  219.4430 C   0  0  0  0  0  0  0  0  0  0  0  0
  143.6560   76.3310  219.0200 O   0  0  0  0  0  0  0  0  0  0  0  0
  143.0820   76.7760  217.7970 C   0  0  0  0  0  0  0  0  0  0  0  0
  142.2293   77.4371  218.0113 H   0  0  0  0  0  0  0  0  0  0  0  0
  143.8367   77.3274  217.2170 H   0  0  0  0  0  0  0  0  0  0  0  0
  142.7361   75.9077  217.2170 H   0  0  0  0  0  0  0  0  0  0  0  0
  1  2  1  0
  2  3  1  0
  3  4  2  0
  4  5  1  0
  4  6  1  0
  6  7  1  0
  6  8  1  0
  6  9  1  0
  9 10  1  0
  9 11  1  0
  9 12  1  0
  3 13  1  0
 13 14  1  0
 13 15  1  0
 15 16  2  0
 16 17  1  0
 16 18  1  0
 18 19  1  0
 18 20  2  0
 20 21  1  0
 20 22  1  0
 22 23  1  0
 22 24  2  0
 24 25  1  0
 25 26  2  0
 25 27  1  0
 27 28  1  0
 27 29  1  0
 29 30  2  0
 30 31  1  0
 30 32  1  0
 32 33  1  0
 32 34  2  0
 34 35  1  0
 35 36  1  0
 36 37  1  0
 36 38  1  0
 36 39  1  0
 34 40  1  0
 40 41  1  0
 40 42  2  0
 42 43  1  0
 43 44  1  0
 44 45  1  0
 44 46  1  0
 44 47  1  0
 24 15  1  0
 42 29  1  0
M  END
>  <UniqueID>  (16) 
9

>  <SMILES>  (16) 
CC/C=C(/O)Nc1ccccc1C(=O)Nc1ccc(OC)cc1OC

>  <Energy>  (16) 
58.713125590397404

>  <Genealogy>  (16) 
CCC=C(O)Nc1ccccc1C(=O)Nc1ccc(OC)cc1OC (tautomer)
CC/C=C(/O)Nc1ccccc1C(=O)Nc1ccc(OC)cc1OC (cis-trans isomerization)
CC/C=C(/O)Nc1ccccc1C(=O)Nc1ccc(OC)cc1OC (3D coordinates assigned)
CC/C=C(/O)Nc1ccccc1C(=O)Nc1ccc(OC)cc1OC (optimized conformer: 58.713125590397404 kcal/mol)

>  <smiles>  (16) 
CCCC(=O)Nc1ccccc1C(=O)Nc1ccc(OC)cc1OC

>  <score_type>  (16) 
oracle

>  <origin>  (16) 
autodockgpu

>  <m_score__min__energy>  (16) 
-5.9699999999999998

>  <m_primary>  (16) 
energy

>  <meeko>  (16) 
{"free_energy": -5.95, "intermolecular_energy": -8.64, "internal_energy": -2.5, "cluster_size": 14, "cluster_id": 1, "rank_in_cluster": 5}

>  <energy>  (16) 
-5.2

>  <cluster_rmsd>  (16) 
0.0

>  <rmsd>  (16) 
271.3

>  <cluster>  (16) 
3

$$$$
NKXSPJYDRINBNN-SEQHFDQZNA-N
     RDKit          3D

 47 48  0  0  0  0  0  0  0  0999 V2000
  141.7540   76.4050  222.7100 H   0  0  0  0  0  0  0  0  0  0  0  0
  141.0910   77.1390  222.9330 O   0  0  0  0  0  0  0  0  0  0  0  0
  141.4150   78.4890  222.8160 C   0  0  0  0  0  0  0  0  0  0  0  0
  140.8940   79.3780  223.6800 C   0  0  0  0  0  0  0  0  0  0  0  0
  140.0522   79.0513  224.3083 H   0  0  0  0  0  0  0  0  0  0  0  0
  141.3870   80.7910  223.8440 C   0  0  0  0  0  0  0  0  0  0  0  0
  140.9399   81.2238  224.7511 H   0  0  0  0  0  0  0  0  0  0  0  0
  141.0942   81.3672  222.9539 H   0  0  0  0  0  0  0  0  0  0  0  0
  142.9080   80.8350  223.9690 C   0  0  0  0  0  0  0  0  0  0  0  0
  143.1884   80.8431  225.0326 H   0  0  0  0  0  0  0  0  0  0  0  0
  143.3417   79.9490  223.4822 H   0  0  0  0  0  0  0  0  0  0  0  0
  143.2898   81.7446  223.4822 H   0  0  0  0  0  0  0  0  0  0  0  0
  142.3270   78.8820  221.7790 N   0  0  0  0  0  0  0  0  0  0  0  0
  143.2490   78.3930  221.7650 H   0  0  0  0  0  0  0  0  0  0  0  0
  141.9310   79.6250  220.6060 C   0  0  0  0  0  0  0  0  0  0  0  0
  141.6050   80.9920  220.7080 C   0  0  0  0  0  0  0  0  0  0  0  0
  141.6983   81.5035  221.6774 H   0  0  0  0  0  0  0  0  0  0  0  0
  141.1650   81.7030  219.5910 C   0  0  0  0  0  0  0  0  0  0  0  0
  140.9201   82.7715  219.6824 H   0  0  0  0  0  0  0  0  0  0  0  0
  141.0350   81.0630  218.3600 C   0  0  0  0  0  0  0  0  0  0  0  0
  140.6854   81.6261  217.4821 H   0  0  0  0  0  0  0  0  0  0  0  0
  141.3480   79.7080  218.2400 C   0  0  0  0  0  0  0  0  0  0  0  0
  141.2432   79.2089  217.2654 H   0  0  0  0  0  0  0  0  0  0  0  0
  141.7960   78.9750  219.3530 C   0  0  0  0  0  0  0  0  0  0  0  0
  142.1570   77.5520  219.1770 C   0  0  0  0  0  0  0  0  0  0  0  0
  142.3480   77.1010  218.0150 O   0  0  0  0  0  0  0  0  0  0  0  0
  142.2600   76.6780  220.3140 N   0  0  0  0  0  0  0  0  0  0  0  0
  141.8760   76.9940  221.2330 H   0  0  0  0  0  0  0  0  0  0  0  0
  142.7590   75.3350  220.2240 C   0  0  0  0  0  0  0  0  0  0  0  0
  143.8120   75.0590  219.3440 C   0  0  0  0  0  0  0  0  0  0  0  0
  144.2411   75.8698  218.7370 H   0  0  0  0  0  0  0  0  0  0  0  0
  144.3230   73.7650  219.2290 C   0  0  0  0  0  0  0  0  0  0  0  0
  145.1597   73.5647  218.5435 H   0  0  0  0  0  0  0  0  0  0  0  0
  143.7720   72.7180  219.9860 C   0  0  0  0  0  0  0  0  0  0  0  0
  144.2540   71.4020  219.9110 O   0  0  0  0  0  0  0  0  0  0  0  0
  143.4420   70.2620  219.6480 C   0  0  0  0  0  0  0  0  0  0  0  0
  143.1218   69.8125  220.5995 H   0  0  0  0  0  0  0  0  0  0  0  0
  142.5569   70.5675  219.0707 H   0  0  0  0  0  0  0  0  0  0  0  0
  144.0200   69.5254  219.0707 H   0  0  0  0  0  0  0  0  0  0  0  0
  142.7020   72.9840  220.8460 C   0  0  0  0  0  0  0  0  0  0  0  0
  142.2669   72.1664  221.4394 H   0  0  0  0  0  0  0  0  0  0  0  0
  142.1730   74.2860  220.9630 C   0  0  0  0  0  0  0  0  0  0  0  0
  141.0620   74.5630  221.7770 O   0  0  0  0  0  0  0  0  0  0  0  0
  139.7420   74.7880  221.2970 C   0  0  0  0  0  0  0  0  0  0  0  0
  139.0568   74.9048  222.1495 H   0  0  0  0  0  0  0  0  0  0  0  0
  139.7252   75.7020  220.6851 H   0  0  0  0  0  0  0  0  0  0  0  0
  139.4233   73.9312  220.6851 H   0  0  0  0  0  0  0  0  0  0  0  0
  1  2  1  0
  2  3  1  0
  3  4  2  0
  4  5  1  0
  4  6  1  0
  6  7  1  0
  6  8  1  0
  6  9  1  0
  9 10  1  0
  9 11  1  0
  9 12  1  0
  3 13  1  0
 13 14  1  0
 13 15  1  0
 15 16  2  0
 16 17  1  0
 16 18  1  0
 18 19  1  0
 18 20  2  0
 20 21  1  0
 20 22  1  0
 22 23  1  0
 22 24  2  0
 24 25  1  0
 25 26  2  0
 25 27  1  0
 27 28  1  0
 27 29  1  0
 29 30  2  0
 30 31  1  0
 30 32  1  0
 32 33  1  0
 32 34  2  0
 34 35  1  0
 35 36  1  0
 36 37  1  0
 36 38  1  0
 36 39  1  0
 34 40  1  0
 40 41  1  0
 40 42  2  0
 42 43  1  0
 43 44  1  0
 44 45  1  0
 44 46  1  0
 44 47  1  0
 24 15  1  0
 42 29  1  0
M  END
>  <UniqueID>  (17) 
9

>  <SMILES>  (17) 
CC/C=C(/O)Nc1ccccc1C(=O)Nc1ccc(OC)cc1OC

>  <Energy>  (17) 
58.713125590397404

>  <Genealogy>  (17) 
CCC=C(O)Nc1ccccc1C(=O)Nc1ccc(OC)cc1OC (tautomer)
CC/C=C(/O)Nc1ccccc1C(=O)Nc1ccc(OC)cc1OC (cis-trans isomerization)
CC/C=C(/O)Nc1ccccc1C(=O)Nc1ccc(OC)cc1OC (3D coordinates assigned)
CC/C=C(/O)Nc1ccccc1C(=O)Nc1ccc(OC)cc1OC (optimized conformer: 58.713125590397404 kcal/mol)

>  <smiles>  (17) 
CCCC(=O)Nc1ccccc1C(=O)Nc1ccc(OC)cc1OC

>  <score_type>  (17) 
oracle

>  <origin>  (17) 
autodockgpu

>  <m_score__min__energy>  (17) 
-5.9699999999999998

>  <m_primary>  (17) 
energy

>  <meeko>  (17) 
{"free_energy": -5.2, "intermolecular_energy": -7.89, "internal_energy": -2.43, "cluster_size": 5, "cluster_id": 3, "rank_in_cluster": 1}

>  <energy>  (17) 
-5.13

>  <cluster_rmsd>  (17) 
0.96

>  <rmsd>  (17) 
271.09

>  <cluster>  (17) 
3

$$$$
NKXSPJYDRINBNN-SEQHFDQZNA-N
     RDKit          3D

 47 48  0  0  0  0  0  0  0  0999 V2000
  143.0630   77.9040  219.8830 H   0  0  0  0  0  0  0  0  0  0  0  0
  142.1830   78.3700  220.0690 O   0  0  0  0  0  0  0  0  0  0  0  0
  141.8190   78.7780  221.3520 C   0  0  0  0  0  0  0  0  0  0  0  0
  141.8770   80.0800  221.6800 C   0  0  0  0  0  0  0  0  0  0  0  0
  142.0889   80.8029  220.8784 H   0  0  0  0  0  0  0  0  0  0  0  0
  141.6710   80.6140  223.0720 C   0  0  0  0  0  0  0  0  0  0  0  0
  140.9108   80.0035  223.5813 H   0  0  0  0  0  0  0  0  0  0  0  0
  141.3426   81.6612  222.9974 H   0  0  0  0  0  0  0  0  0  0  0  0
  142.9660   80.5710  223.8790 C   0  0  0  0  0  0  0  0  0  0  0  0
  142.7291   80.5789  224.9532 H   0  0  0  0  0  0  0  0  0  0  0  0
  143.5213   79.6539  223.6327 H   0  0  0  0  0  0  0  0  0  0  0  0
  143.5809   81.4492  223.6327 H   0  0  0  0  0  0  0  0  0  0  0  0
  141.3630   77.7800  222.2780 N   0  0  0  0  0  0  0  0  0  0  0  0
  141.9960   77.5710  223.0810 H   0  0  0  0  0  0  0  0  0  0  0  0
  139.9960   77.3220  222.3500 C   0  0  0  0  0  0  0  0  0  0  0  0
  138.9670   78.2110  222.7200 C   0  0  0  0  0  0  0  0  0  0  0  0
  139.2029   79.2689  222.9075 H   0  0  0  0  0  0  0  0  0  0  0  0
  137.6520   77.7630  222.8510 C   0  0  0  0  0  0  0  0  0  0  0  0
  136.8575   78.4688  223.1348 H   0  0  0  0  0  0  0  0  0  0  0  0
  137.3430   76.4230  222.6230 C   0  0  0  0  0  0  0  0  0  0  0  0
  136.3058   76.0722  222.7292 H   0  0  0  0  0  0  0  0  0  0  0  0
  138.3490   75.5260  222.2600 C   0  0  0  0  0  0  0  0  0  0  0  0
  138.0984   74.4699  222.0816 H   0  0  0  0  0  0  0  0  0  0  0  0
  139.6800   75.9590  222.1200 C   0  0  0  0  0  0  0  0  0  0  0  0
  140.7100   74.9870  221.6950 C   0  0  0  0  0  0  0  0  0  0  0  0
  140.5610   73.7660  221.9730 O   0  0  0  0  0  0  0  0  0  0  0  0
  141.8880   75.4280  220.9990 N   0  0  0  0  0  0  0  0  0  0  0  0
  142.1160   76.4480  220.9820 H   0  0  0  0  0  0  0  0  0  0  0  0
  142.8410   74.5210  220.4240 C   0  0  0  0  0  0  0  0  0  0  0  0
  142.9270   73.2180  220.9270 C   0  0  0  0  0  0  0  0  0  0  0  0
  142.2675   72.9079  221.7509 H   0  0  0  0  0  0  0  0  0  0  0  0
  143.8410   72.3080  220.3940 C   0  0  0  0  0  0  0  0  0  0  0  0
  143.8884   71.2829  220.7901 H   0  0  0  0  0  0  0  0  0  0  0  0
  144.7010   72.6970  219.3530 C   0  0  0  0  0  0  0  0  0  0  0  0
  145.6330   71.8190  218.7790 O   0  0  0  0  0  0  0  0  0  0  0  0
  145.5250   70.3990  218.8110 C   0  0  0  0  0  0  0  0  0  0  0  0
  145.4990   70.0567  219.8561 H   0  0  0  0  0  0  0  0  0  0  0  0
  144.6008   70.0900  218.3008 H   0  0  0  0  0  0  0  0  0  0  0  0
  146.3919   69.9538  218.3008 H   0  0  0  0  0  0  0  0  0  0  0  0
  144.6370   74.0070  218.8660 C   0  0  0  0  0  0  0  0  0  0  0  0
  145.3091   74.3165  218.0520 H   0  0  0  0  0  0  0  0  0  0  0  0
  143.7230   74.9360  219.4040 C   0  0  0  0  0  0  0  0  0  0  0  0
  143.6830   76.2710  218.9690 O   0  0  0  0  0  0  0  0  0  0  0  0
  143.2420   76.6920  217.6840 C   0  0  0  0  0  0  0  0  0  0  0  0
  142.4506   77.4475  217.7973 H   0  0  0  0  0  0  0  0  0  0  0  0
  144.0874   77.1267  217.1305 H   0  0  0  0  0  0  0  0  0  0  0  0
  142.8470   75.8274  217.1305 H   0  0  0  0  0  0  0  0  0  0  0  0
  1  2  1  0
  2  3  1  0
  3  4  2  0
  4  5  1  0
  4  6  1  0
  6  7  1  0
  6  8  1  0
  6  9  1  0
  9 10  1  0
  9 11  1  0
  9 12  1  0
  3 13  1  0
 13 14  1  0
 13 15  1  0
 15 16  2  0
 16 17  1  0
 16 18  1  0
 18 19  1  0
 18 20  2  0
 20 21  1  0
 20 22  1  0
 22 23  1  0
 22 24  2  0
 24 25  1  0
 25 26  2  0
 25 27  1  0
 27 28  1  0
 27 29  1  0
 29 30  2  0
 30 31  1  0
 30 32  1  0
 32 33  1  0
 32 34  2  0
 34 35  1  0
 35 36  1  0
 36 37  1  0
 36 38  1  0
 36 39  1  0
 34 40  1  0
 40 41  1  0
 40 42  2  0
 42 43  1  0
 43 44  1  0
 44 45  1  0
 44 46  1  0
 44 47  1  0
 24 15  1  0
 42 29  1  0
M  END
>  <UniqueID>  (18) 
9

>  <SMILES>  (18) 
CC/C=C(/O)Nc1ccccc1C(=O)Nc1ccc(OC)cc1OC

>  <Energy>  (18) 
58.713125590397404

>  <Genealogy>  (18) 
CCC=C(O)Nc1ccccc1C(=O)Nc1ccc(OC)cc1OC (tautomer)
CC/C=C(/O)Nc1ccccc1C(=O)Nc1ccc(OC)cc1OC (cis-trans isomerization)
CC/C=C(/O)Nc1ccccc1C(=O)Nc1ccc(OC)cc1OC (3D coordinates assigned)
CC/C=C(/O)Nc1ccccc1C(=O)Nc1ccc(OC)cc1OC (optimized conformer: 58.713125590397404 kcal/mol)

>  <smiles>  (18) 
CCCC(=O)Nc1ccccc1C(=O)Nc1ccc(OC)cc1OC

>  <score_type>  (18) 
oracle

>  <origin>  (18) 
autodockgpu

>  <m_score__min__energy>  (18) 
-5.9699999999999998

>  <m_primary>  (18) 
energy

>  <meeko>  (18) 
{"free_energy": -5.96, "intermolecular_energy": -8.65, "internal_energy": -2.51, "cluster_size": 14, "cluster_id": 1, "rank_in_cluster": 4}

>  <energy>  (18) 
-5.12

>  <cluster_rmsd>  (18) 
0.99

>  <rmsd>  (18) 
271.06

>  <cluster>  (18) 
3

$$$$
NKXSPJYDRINBNN-SEQHFDQZNA-N
     RDKit          3D

 47 48  0  0  0  0  0  0  0  0999 V2000
  142.9890   77.9250  219.9420 H   0  0  0  0  0  0  0  0  0  0  0  0
  142.0920   78.3060  220.2210 O   0  0  0  0  0  0  0  0  0  0  0  0
  141.8270   78.6910  221.5340 C   0  0  0  0  0  0  0  0  0  0  0  0
  142.0660   79.9570  221.9190 C   0  0  0  0  0  0  0  0  0  0  0  0
  141.6129   80.7676  221.3294 H   0  0  0  0  0  0  0  0  0  0  0  0
  142.9130   80.3380  223.1040 C   0  0  0  0  0  0  0  0  0  0  0  0
  143.8438   80.8015  222.7453 H   0  0  0  0  0  0  0  0  0  0  0  0
  143.1302   79.4284  223.6832 H   0  0  0  0  0  0  0  0  0  0  0  0
  142.1830   81.3250  224.0110 C   0  0  0  0  0  0  0  0  0  0  0  0
  142.3741   81.0666  225.0630 H   0  0  0  0  0  0  0  0  0  0  0  0
  142.5465   82.3439  223.8118 H   0  0  0  0  0  0  0  0  0  0  0  0
  141.1023   81.2758  223.8118 H   0  0  0  0  0  0  0  0  0  0  0  0
  141.2770   77.7150  222.4300 N   0  0  0  0  0  0  0  0  0  0  0  0
  141.8290   77.5170  223.2940 H   0  0  0  0  0  0  0  0  0  0  0  0
  139.9050   77.2670  222.3800 C   0  0  0  0  0  0  0  0  0  0  0  0
  138.8580   78.1480  222.7170 C   0  0  0  0  0  0  0  0  0  0  0  0
  139.0865   79.1933  222.9722 H   0  0  0  0  0  0  0  0  0  0  0  0
  137.5340   77.7070  222.7300 C   0  0  0  0  0  0  0  0  0  0  0  0
  136.7253   78.4061  222.9895 H   0  0  0  0  0  0  0  0  0  0  0  0
  137.2340   76.3830  222.4150 C   0  0  0  0  0  0  0  0  0  0  0  0
  136.1895   76.0383  222.4272 H   0  0  0  0  0  0  0  0  0  0  0  0
  138.2580   75.4940  222.0840 C   0  0  0  0  0  0  0  0  0  0  0  0
  138.0144   74.4501  221.8372 H   0  0  0  0  0  0  0  0  0  0  0  0
  139.5980   75.9200  222.0630 C   0  0  0  0  0  0  0  0  0  0  0  0
  140.6500   74.9600  221.6670 C   0  0  0  0  0  0  0  0  0  0  0  0
  140.5140   73.7390  221.9530 O   0  0  0  0  0  0  0  0  0  0  0  0
  141.8350   75.4110  220.9890 N   0  0  0  0  0  0  0  0  0  0  0  0
  142.0480   76.4340  220.9670 H   0  0  0  0  0  0  0  0  0  0  0  0
  142.8120   74.5130  220.4420 C   0  0  0  0  0  0  0  0  0  0  0  0
  142.8900   73.2080  220.9420 C   0  0  0  0  0  0  0  0  0  0  0  0
  142.2056   72.8894  221.7421 H   0  0  0  0  0  0  0  0  0  0  0  0
  143.8280   72.3070  220.4350 C   0  0  0  0  0  0  0  0  0  0  0  0
  143.8708   71.2809  220.8290 H   0  0  0  0  0  0  0  0  0  0  0  0
  144.7180   72.7060  219.4230 C   0  0  0  0  0  0  0  0  0  0  0  0
  145.6740   71.8360  218.8770 O   0  0  0  0  0  0  0  0  0  0  0  0
  145.5780   70.4150  218.9050 C   0  0  0  0  0  0  0  0  0  0  0  0
  145.5547   70.0696  219.9491 H   0  0  0  0  0  0  0  0  0  0  0  0
  144.6565   70.0996  218.3938 H   0  0  0  0  0  0  0  0  0  0  0  0
  146.4487   69.9785  218.3938 H   0  0  0  0  0  0  0  0  0  0  0  0
  144.6610   74.0180  218.9410 C   0  0  0  0  0  0  0  0  0  0  0  0
  145.3578   74.3361  218.1515 H   0  0  0  0  0  0  0  0  0  0  0  0
  143.7240   74.9380  219.4520 C   0  0  0  0  0  0  0  0  0  0  0  0
  143.6890   76.2740  219.0220 O   0  0  0  0  0  0  0  0  0  0  0  0
  143.0960   76.7200  217.8070 C   0  0  0  0  0  0  0  0  0  0  0  0
  142.2359   77.3669  218.0346 H   0  0  0  0  0  0  0  0  0  0  0  0
  143.8368   77.2867  217.2238 H   0  0  0  0  0  0  0  0  0  0  0  0
  142.7571   75.8511  217.2238 H   0  0  0  0  0  0  0  0  0  0  0  0
  1  2  1  0
  2  3  1  0
  3  4  2  0
  4  5  1  0
  4  6  1  0
  6  7  1  0
  6  8  1  0
  6  9  1  0
  9 10  1  0
  9 11  1  0
  9 12  1  0
  3 13  1  0
 13 14  1  0
 13 15  1  0
 15 16  2  0
 16 17  1  0
 16 18  1  0
 18 19  1  0
 18 20  2  0
 20 21  1  0
 20 22  1  0
 22 23  1  0
 22 24  2  0
 24 25  1  0
 25 26  2  0
 25 27  1  0
 27 28  1  0
 27 29  1  0
 29 30  2  0
 30 31  1  0
 30 32  1  0
 32 33  1  0
 32 34  2  0
 34 35  1  0
 35 36  1  0
 36 37  1  0
 36 38  1  0
 36 39  1  0
 34 40  1  0
 40 41  1  0
 40 42  2  0
 42 43  1  0
 43 44  1  0
 44 45  1  0
 44 46  1  0
 44 47  1  0
 24 15  1  0
 42 29  1  0
M  END
>  <UniqueID>  (19) 
9

>  <SMILES>  (19) 
CC/C=C(/O)Nc1ccccc1C(=O)Nc1ccc(OC)cc1OC

>  <Energy>  (19) 
58.713125590397404

>  <Genealogy>  (19) 
CCC=C(O)Nc1ccccc1C(=O)Nc1ccc(OC)cc1OC (tautomer)
CC/C=C(/O)Nc1ccccc1C(=O)Nc1ccc(OC)cc1OC (cis-trans isomerization)
CC/C=C(/O)Nc1ccccc1C(=O)Nc1ccc(OC)cc1OC (3D coordinates assigned)
CC/C=C(/O)Nc1ccccc1C(=O)Nc1ccc(OC)cc1OC (optimized conformer: 58.713125590397404 kcal/mol)

>  <smiles>  (19) 
CCCC(=O)Nc1ccccc1C(=O)Nc1ccc(OC)cc1OC

>  <score_type>  (19) 
oracle

>  <origin>  (19) 
autodockgpu

>  <m_score__min__energy>  (19) 
-5.9699999999999998

>  <m_primary>  (19) 
energy

>  <meeko>  (19) 
{"free_energy": -5.95, "intermolecular_energy": -8.63, "internal_energy": -2.51, "cluster_size": 14, "cluster_id": 1, "rank_in_cluster": 8}

>  <energy>  (19) 
-4.97

>  <cluster_rmsd>  (19) 
0.63

>  <rmsd>  (19) 
271.29

>  <cluster>  (19) 
3

$$$$
NKXSPJYDRINBNN-SEQHFDQZNA-N
     RDKit          3D

 47 48  0  0  0  0  0  0  0  0999 V2000
  143.0300   77.9080  220.0020 H   0  0  0  0  0  0  0  0  0  0  0  0
  142.1320   78.3030  220.2530 O   0  0  0  0  0  0  0  0  0  0  0  0
  141.8160   78.6470  221.5660 C   0  0  0  0  0  0  0  0  0  0  0  0
  142.0020   79.9100  221.9880 C   0  0  0  0  0  0  0  0  0  0  0  0
  141.4109   80.7045  221.5090 H   0  0  0  0  0  0  0  0  0  0  0  0
  142.9670   80.3080  223.0740 C   0  0  0  0  0  0  0  0  0  0  0  0
  143.8373   80.8019  222.6172 H   0  0  0  0  0  0  0  0  0  0  0  0
  143.2750   79.4013  223.6153 H   0  0  0  0  0  0  0  0  0  0  0  0
  142.3160   81.2660  224.0680 C   0  0  0  0  0  0  0  0  0  0  0  0
  142.5392   80.9375  225.0938 H   0  0  0  0  0  0  0  0  0  0  0  0
  142.7127   82.2803  223.9133 H   0  0  0  0  0  0  0  0  0  0  0  0
  141.2269   81.2707  223.9133 H   0  0  0  0  0  0  0  0  0  0  0  0
  141.2700   77.6320  222.4220 N   0  0  0  0  0  0  0  0  0  0  0  0
  141.8210   77.4080  223.2800 H   0  0  0  0  0  0  0  0  0  0  0  0
  139.9040   77.1740  222.3480 C   0  0  0  0  0  0  0  0  0  0  0  0
  138.8440   78.0420  222.6780 C   0  0  0  0  0  0  0  0  0  0  0  0
  139.0595   79.0868  222.9463 H   0  0  0  0  0  0  0  0  0  0  0  0
  137.5240   77.5900  222.6680 C   0  0  0  0  0  0  0  0  0  0  0  0
  136.7058   78.2797  222.9228 H   0  0  0  0  0  0  0  0  0  0  0  0
  137.2400   76.2670  222.3360 C   0  0  0  0  0  0  0  0  0  0  0  0
  136.1984   75.9134  222.3300 H   0  0  0  0  0  0  0  0  0  0  0  0
  138.2760   75.3900  222.0110 C   0  0  0  0  0  0  0  0  0  0  0  0
  138.0446   74.3466  221.7507 H   0  0  0  0  0  0  0  0  0  0  0  0
  139.6130   75.8270  222.0130 C   0  0  0  0  0  0  0  0  0  0  0  0
  140.6790   74.8800  221.6240 C   0  0  0  0  0  0  0  0  0  0  0  0
  140.5750   73.6650  221.9470 O   0  0  0  0  0  0  0  0  0  0  0  0
  141.8400   75.3380  220.9110 N   0  0  0  0  0  0  0  0  0  0  0  0
  142.0290   76.3640  220.8560 H   0  0  0  0  0  0  0  0  0  0  0  0
  142.8270   74.4460  220.3690 C   0  0  0  0  0  0  0  0  0  0  0  0
  142.9040   73.1390  220.8640 C   0  0  0  0  0  0  0  0  0  0  0  0
  142.2120   72.8141  221.6550 H   0  0  0  0  0  0  0  0  0  0  0  0
  143.8510   72.2440  220.3630 C   0  0  0  0  0  0  0  0  0  0  0  0
  143.8936   71.2161  220.7523 H   0  0  0  0  0  0  0  0  0  0  0  0
  144.7500   72.6520  219.3630 C   0  0  0  0  0  0  0  0  0  0  0  0
  145.7160   71.7880  218.8230 O   0  0  0  0  0  0  0  0  0  0  0  0
  145.5980   70.3690  218.7910 C   0  0  0  0  0  0  0  0  0  0  0  0
  145.5657   69.9805  219.8196 H   0  0  0  0  0  0  0  0  0  0  0  0
  144.6735   70.0897  218.2643 H   0  0  0  0  0  0  0  0  0  0  0  0
  146.4637   69.9409  218.2643 H   0  0  0  0  0  0  0  0  0  0  0  0
  144.6940   73.9660  218.8860 C   0  0  0  0  0  0  0  0  0  0  0  0
  145.3982   74.2905  218.1057 H   0  0  0  0  0  0  0  0  0  0  0  0
  143.7470   74.8800  219.3920 C   0  0  0  0  0  0  0  0  0  0  0  0
  143.7110   76.2180  218.9680 O   0  0  0  0  0  0  0  0  0  0  0  0
  143.0280   76.6840  217.8100 C   0  0  0  0  0  0  0  0  0  0  0  0
  142.1548   77.2798  218.1142 H   0  0  0  0  0  0  0  0  0  0  0  0
  143.7068   77.3081  217.2103 H   0  0  0  0  0  0  0  0  0  0  0  0
  142.6944   75.8243  217.2103 H   0  0  0  0  0  0  0  0  0  0  0  0
  1  2  1  0
  2  3  1  0
  3  4  2  0
  4  5  1  0
  4  6  1  0
  6  7  1  0
  6  8  1  0
  6  9  1  0
  9 10  1  0
  9 11  1  0
  9 12  1  0
  3 13  1  0
 13 14  1  0
 13 15  1  0
 15 16  2  0
 16 17  1  0
 16 18  1  0
 18 19  1  0
 18 20  2  0
 20 21  1  0
 20 22  1  0
 22 23  1  0
 22 24  2  0
 24 25  1  0
 25 26  2  0
 25 27  1  0
 27 28  1  0
 27 29  1  0
 29 30  2  0
 30 31  1  0
 30 32  1  0
 32 33  1  0
 32 34  2  0
 34 35  1  0
 35 36  1  0
 36 37  1  0
 36 38  1  0
 36 39  1  0
 34 40  1  0
 40 41  1  0
 40 42  2  0
 42 43  1  0
 43 44  1  0
 44 45  1  0
 44 46  1  0
 44 47  1  0
 24 15  1  0
 42 29  1  0
M  END
>  <UniqueID>  (20) 
9

>  <SMILES>  (20) 
CC/C=C(/O)Nc1ccccc1C(=O)Nc1ccc(OC)cc1OC

>  <Energy>  (20) 
58.713125590397404

>  <Genealogy>  (20) 
CCC=C(O)Nc1ccccc1C(=O)Nc1ccc(OC)cc1OC (tautomer)
CC/C=C(/O)Nc1ccccc1C(=O)Nc1ccc(OC)cc1OC (cis-trans isomerization)
CC/C=C(/O)Nc1ccccc1C(=O)Nc1ccc(OC)cc1OC (3D coordinates assigned)
CC/C=C(/O)Nc1ccccc1C(=O)Nc1ccc(OC)cc1OC (optimized conformer: 58.713125590397404 kcal/mol)

>  <smiles>  (20) 
CCCC(=O)Nc1ccccc1C(=O)Nc1ccc(OC)cc1OC

>  <score_type>  (20) 
oracle

>  <origin>  (20) 
autodockgpu

>  <m_score__min__energy>  (20) 
-5.9699999999999998

>  <m_primary>  (20) 
energy

>  <meeko>  (20) 
{"free_energy": -5.93, "intermolecular_energy": -8.61, "internal_energy": -2.51, "cluster_size": 14, "cluster_id": 1, "rank_in_cluster": 9}

>  <energy>  (20) 
-4.93

>  <cluster_rmsd>  (20) 
0.77

>  <rmsd>  (20) 
271.35

>  <cluster>  (20) 
3

$$$$
CILLJEXPWJCFIZ-SPGWRTIFNA-N
     RDKit          3D

 46 47  0  0  0  0  0  0  0  0999 V2000
  137.5620   79.5220  222.0850 H   0  0  0  0  0  0  0  0  0  0  0  0
  137.1900   80.1590  222.7810 O   0  0  0  0  0  0  0  0  0  0  0  0
  138.0150   80.8650  223.6570 C   0  0  0  0  0  0  0  0  0  0  0  0
  140.1430   78.5900  220.2030 N   0  0  0  0  0  0  0  0  0  0  0  0
  140.3130   77.2820  220.7630 C   0  0  0  0  0  0  0  0  0  0  0  0
  141.4240   76.4960  220.4210 C   0  0  0  0  0  0  0  0  0  0  0  0
  142.1894   76.8973  219.7405 H   0  0  0  0  0  0  0  0  0  0  0  0
  141.5630   75.2070  220.9400 C   0  0  0  0  0  0  0  0  0  0  0  0
  142.4434   74.6020  220.6778 H   0  0  0  0  0  0  0  0  0  0  0  0
  140.5790   74.6800  221.7980 C   0  0  0  0  0  0  0  0  0  0  0  0
  140.6740   73.3920  222.3460 O   0  0  0  0  0  0  0  0  0  0  0  0
  139.6160   72.4390  222.3490 C   0  0  0  0  0  0  0  0  0  0  0  0
  139.3452   72.1951  223.3869 H   0  0  0  0  0  0  0  0  0  0  0  0
  138.7416   72.8602  221.8312 H   0  0  0  0  0  0  0  0  0  0  0  0
  139.9438   71.5255  221.8312 H   0  0  0  0  0  0  0  0  0  0  0  0
  139.4610   75.4590  222.1190 C   0  0  0  0  0  0  0  0  0  0  0  0
  138.6868   75.0504  222.7850 H   0  0  0  0  0  0  0  0  0  0  0  0
  139.3160   76.7600  221.5990 C   0  0  0  0  0  0  0  0  0  0  0  0
  138.2060   77.5660  221.9010 O   0  0  0  0  0  0  0  0  0  0  0  0
  137.1170   77.1660  222.7240 C   0  0  0  0  0  0  0  0  0  0  0  0
  137.3996   77.2698  223.7820 H   0  0  0  0  0  0  0  0  0  0  0  0
  136.2450   77.8025  222.5132 H   0  0  0  0  0  0  0  0  0  0  0  0
  136.8643   76.1164  222.5132 H   0  0  0  0  0  0  0  0  0  0  0  0
  140.8750   80.1230  221.8850 C   0  0  0  0  0  0  0  0  0  0  0  0
  142.2090   79.6920  221.7790 C   0  0  0  0  0  0  0  0  0  0  0  0
  142.5202   79.0877  220.9141 H   0  0  0  0  0  0  0  0  0  0  0  0
  143.1420   80.0250  222.7630 C   0  0  0  0  0  0  0  0  0  0  0  0
  144.1839   79.6844  222.6706 H   0  0  0  0  0  0  0  0  0  0  0  0
  142.7530   80.7900  223.8640 C   0  0  0  0  0  0  0  0  0  0  0  0
  143.4847   81.0367  224.6475 H   0  0  0  0  0  0  0  0  0  0  0  0
  141.4380   81.2420  223.9720 C   0  0  0  0  0  0  0  0  0  0  0  0
  141.1370   81.8369  224.8469 H   0  0  0  0  0  0  0  0  0  0  0  0
  140.4960   80.9460  222.9770 C   0  0  0  0  0  0  0  0  0  0  0  0
  139.1780   81.5040  223.1100 N   0  0  0  0  0  0  0  0  0  0  0  0
  137.7130   80.8920  224.9700 C   0  0  0  0  0  0  0  0  0  0  0  0
  138.7810   80.4750  220.6210 O   0  0  0  0  0  0  0  0  0  0  0  0
  138.3990   81.1220  221.2990 H   0  0  0  0  0  0  0  0  0  0  0  0
  139.9060   79.6820  220.8700 C   0  0  0  0  0  0  0  0  0  0  0  0
  138.3848   80.3523  225.6537 H   0  0  0  0  0  0  0  0  0  0  0  0
  136.5320   81.6000  225.5780 C   0  0  0  0  0  0  0  0  0  0  0  0
  135.7562   80.8578  225.8175 H   0  0  0  0  0  0  0  0  0  0  0  0
  136.1620   82.3366  224.8496 H   0  0  0  0  0  0  0  0  0  0  0  0
  136.9150   82.3450  226.8550 C   0  0  0  0  0  0  0  0  0  0  0  0
  136.6105   81.7526  227.7304 H   0  0  0  0  0  0  0  0  0  0  0  0
  138.0040   82.4988  226.8772 H   0  0  0  0  0  0  0  0  0  0  0  0
  136.4064   83.3201  226.8772 H   0  0  0  0  0  0  0  0  0  0  0  0
  1  2  1  0
  2  3  1  0
  3  4  2  0
  4  5  1  0
  5  6  2  0
  6  7  1  0
  6  8  1  0
  8  9  1  0
  8 10  2  0
 10 11  1  0
 11 12  1  0
 12 13  1  0
 12 14  1  0
 12 15  1  0
 10 16  1  0
 16 17  1  0
 16 18  2  0
 18 19  1  0
 19 20  1  0
 20 21  1  0
 20 22  1  0
 20 23  1  0
  3 24  1  0
 24 25  2  0
 25 26  1  0
 25 27  1  0
 27 28  1  0
 27 29  2  0
 29 30  1  0
 29 31  1  0
 31 32  1  0
 31 33  2  0
 33 34  1  0
 34 35  1  0
 35 36  1  0
 36 37  1  0
 35 38  2  0
 38 39  1  0
 38 40  1  0
 40 41  1  0
 40 42  1  0
 40 43  1  0
 43 44  1  0
 43 45  1  0
 43 46  1  0
 18  5  1  0
 33 24  1  0
M  CHG  1  34  -1
M  END
>  <UniqueID>  (21) 
10

>  <SMILES>  (21) 
CC/C=C(/O)[N-]c1ccccc1/C(O)=N/c1ccc(OC)cc1OC

>  <Energy>  (21) 
61.481365850089105

>  <Genealogy>  (21) 
CCCC(=O)[N-]c1ccccc1C(=O)Nc1ccc(OC)cc1OC (protonated)
CCC=C(O)[N-]c1ccccc1C(O)=Nc1ccc(OC)cc1OC (tautomer)
CC/C=C(/O)[N-]c1ccccc1/C(O)=N/c1ccc(OC)cc1OC (cis-trans isomerization)
CC/C=C(/O)[N-]c1ccccc1/C(O)=N/c1ccc(OC)cc1OC (3D coordinates assigned)
CC/C=C(/O)[N-]c1ccccc1/C(O)=N/c1ccc(OC)cc1OC (optimized conformer: 61.481365850089105 kcal/mol)

>  <smiles>  (21) 
CCCC(=O)Nc1ccccc1C(=O)Nc1ccc(OC)cc1OC

>  <score_type>  (21) 
oracle

>  <origin>  (21) 
autodockgpu

>  <m_score__min__energy>  (21) 
-5.0300000000000002

>  <m_primary>  (21) 
energy

>  <meeko>  (21) 
{"free_energy": -3.5, "intermolecular_energy": -6.78, "internal_energy": -3.93, "cluster_size": 2, "cluster_id": 4, "rank_in_cluster": 1}

>  <energy>  (21) 
-5.03

>  <cluster_rmsd>  (21) 
0.0

>  <rmsd>  (21) 
270.94

>  <cluster>  (21) 
1

$$$$
CILLJEXPWJCFIZ-SPGWRTIFNA-N
     RDKit          3D

 46 47  0  0  0  0  0  0  0  0999 V2000
  139.0520   74.1130  220.8850 H   0  0  0  0  0  0  0  0  0  0  0  0
  139.8460   74.6280  220.5270 O   0  0  0  0  0  0  0  0  0  0  0  0
  141.0400   74.7840  221.2400 C   0  0  0  0  0  0  0  0  0  0  0  0
  141.1400   75.5960  222.2520 N   0  0  0  0  0  0  0  0  0  0  0  0
  140.4130   76.8190  222.4240 C   0  0  0  0  0  0  0  0  0  0  0  0
  141.0910   78.0370  222.5850 C   0  0  0  0  0  0  0  0  0  0  0  0
  142.1901   78.0607  222.5480 H   0  0  0  0  0  0  0  0  0  0  0  0
  140.3770   79.2190  222.7920 C   0  0  0  0  0  0  0  0  0  0  0  0
  140.9149   80.1719  222.9046 H   0  0  0  0  0  0  0  0  0  0  0  0
  138.9710   79.1950  222.8570 C   0  0  0  0  0  0  0  0  0  0  0  0
  138.2090   80.3550  223.0610 O   0  0  0  0  0  0  0  0  0  0  0  0
  137.8930   80.8960  224.3390 C   0  0  0  0  0  0  0  0  0  0  0  0
  138.2813   80.2313  225.1247 H   0  0  0  0  0  0  0  0  0  0  0  0
  138.3523   81.8904  224.4400 H   0  0  0  0  0  0  0  0  0  0  0  0
  136.8012   80.9844  224.4400 H   0  0  0  0  0  0  0  0  0  0  0  0
  138.3000   77.9750  222.7170 C   0  0  0  0  0  0  0  0  0  0  0  0
  137.2016   77.9496  222.7707 H   0  0  0  0  0  0  0  0  0  0  0  0
  139.0150   76.7780  222.5080 C   0  0  0  0  0  0  0  0  0  0  0  0
  138.3720   75.5380  222.3650 O   0  0  0  0  0  0  0  0  0  0  0  0
  136.9650   75.3440  222.4470 C   0  0  0  0  0  0  0  0  0  0  0  0
  136.6616   75.3022  223.5035 H   0  0  0  0  0  0  0  0  0  0  0  0
  136.4501   76.1796  221.9505 H   0  0  0  0  0  0  0  0  0  0  0  0
  136.6954   74.4002  221.9505 H   0  0  0  0  0  0  0  0  0  0  0  0
  142.2030   73.9670  220.8620 C   0  0  0  0  0  0  0  0  0  0  0  0
  143.3850   74.6170  220.4630 C   0  0  0  0  0  0  0  0  0  0  0  0
  143.4423   75.7150  220.4971 H   0  0  0  0  0  0  0  0  0  0  0  0
  144.4860   73.8790  220.0240 C   0  0  0  0  0  0  0  0  0  0  0  0
  145.4067   74.3960  219.7158 H   0  0  0  0  0  0  0  0  0  0  0  0
  144.4190   72.4860  219.9760 C   0  0  0  0  0  0  0  0  0  0  0  0
  145.2805   71.9069  219.6120 H   0  0  0  0  0  0  0  0  0  0  0  0
  143.2610   71.8270  220.3890 C   0  0  0  0  0  0  0  0  0  0  0  0
  143.2127   70.7291  220.3408 H   0  0  0  0  0  0  0  0  0  0  0  0
  142.1580   72.5500  220.8650 C   0  0  0  0  0  0  0  0  0  0  0  0
  141.0240   71.8080  221.3450 N   0  0  0  0  0  0  0  0  0  0  0  0
  140.3500   71.9700  222.6030 C   0  0  0  0  0  0  0  0  0  0  0  0
  139.4360   73.0180  222.7190 O   0  0  0  0  0  0  0  0  0  0  0  0
  139.7180   73.9900  222.6530 H   0  0  0  0  0  0  0  0  0  0  0  0
  140.5390   71.1410  223.6480 C   0  0  0  0  0  0  0  0  0  0  0  0
  140.8482   70.1093  223.4242 H   0  0  0  0  0  0  0  0  0  0  0  0
  140.3620   71.5100  225.0970 C   0  0  0  0  0  0  0  0  0  0  0  0
  139.3583   71.2004  225.4237 H   0  0  0  0  0  0  0  0  0  0  0  0
  140.4890   72.5985  225.1918 H   0  0  0  0  0  0  0  0  0  0  0  0
  141.4030   70.8300  225.9840 C   0  0  0  0  0  0  0  0  0  0  0  0
  141.1487   70.9961  227.0412 H   0  0  0  0  0  0  0  0  0  0  0  0
  141.4138   69.7501  225.7748 H   0  0  0  0  0  0  0  0  0  0  0  0
  142.3962   71.2540  225.7748 H   0  0  0  0  0  0  0  0  0  0  0  0
  1  2  1  0
  2  3  1  0
  3  4  2  0
  4  5  1  0
  5  6  2  0
  6  7  1  0
  6  8  1  0
  8  9  1  0
  8 10  2  0
 10 11  1  0
 11 12  1  0
 12 13  1  0
 12 14  1  0
 12 15  1  0
 10 16  1  0
 16 17  1  0
 16 18  2  0
 18 19  1  0
 19 20  1  0
 20 21  1  0
 20 22  1  0
 20 23  1  0
  3 24  1  0
 24 25  2  0
 25 26  1  0
 25 27  1  0
 27 28  1  0
 27 29  2  0
 29 30  1  0
 29 31  1  0
 31 32  1  0
 31 33  2  0
 33 34  1  0
 34 35  1  0
 35 36  1  0
 36 37  1  0
 35 38  2  0
 38 39  1  0
 38 40  1  0
 40 41  1  0
 40 42  1  0
 40 43  1  0
 43 44  1  0
 43 45  1  0
 43 46  1  0
 18  5  1  0
 33 24  1  0
M  CHG  1  34  -1
M  END
>  <UniqueID>  (22) 
10

>  <SMILES>  (22) 
CC/C=C(/O)[N-]c1ccccc1/C(O)=N/c1ccc(OC)cc1OC

>  <Energy>  (22) 
61.481365850089105

>  <Genealogy>  (22) 
CCCC(=O)[N-]c1ccccc1C(=O)Nc1ccc(OC)cc1OC (protonated)
CCC=C(O)[N-]c1ccccc1C(O)=Nc1ccc(OC)cc1OC (tautomer)
CC/C=C(/O)[N-]c1ccccc1/C(O)=N/c1ccc(OC)cc1OC (cis-trans isomerization)
CC/C=C(/O)[N-]c1ccccc1/C(O)=N/c1ccc(OC)cc1OC (3D coordinates assigned)
CC/C=C(/O)[N-]c1ccccc1/C(O)=N/c1ccc(OC)cc1OC (optimized conformer: 61.481365850089105 kcal/mol)

>  <smiles>  (22) 
CCCC(=O)Nc1ccccc1C(=O)Nc1ccc(OC)cc1OC

>  <score_type>  (22) 
oracle

>  <origin>  (22) 
autodockgpu

>  <m_score__min__energy>  (22) 
-5.0300000000000002

>  <m_primary>  (22) 
energy

>  <meeko>  (22) 
{"free_energy": -3.66, "intermolecular_energy": -6.94, "internal_energy": -3.87, "cluster_size": 8, "cluster_id": 2, "rank_in_cluster": 8}

>  <energy>  (22) 
-4.99

>  <cluster_rmsd>  (22) 
0.29

>  <rmsd>  (22) 
270.91

>  <cluster>  (22) 
1

$$$$
CILLJEXPWJCFIZ-SPGWRTIFNA-N
     RDKit          3D

 46 47  0  0  0  0  0  0  0  0999 V2000
  139.4420   74.4500  223.1110 H   0  0  0  0  0  0  0  0  0  0  0  0
  139.4190   75.3760  222.7040 O   0  0  0  0  0  0  0  0  0  0  0  0
  140.4470   75.8840  221.9020 C   0  0  0  0  0  0  0  0  0  0  0  0
  140.6520   77.1620  221.7700 N   0  0  0  0  0  0  0  0  0  0  0  0
  139.9940   78.2010  222.5050 C   0  0  0  0  0  0  0  0  0  0  0  0
  138.5930   78.2920  222.5170 C   0  0  0  0  0  0  0  0  0  0  0  0
  137.9911   77.5421  221.9827 H   0  0  0  0  0  0  0  0  0  0  0  0
  137.9600   79.3300  223.2040 C   0  0  0  0  0  0  0  0  0  0  0  0
  136.8616   79.3875  223.2201 H   0  0  0  0  0  0  0  0  0  0  0  0
  138.7240   80.3030  223.8760 C   0  0  0  0  0  0  0  0  0  0  0  0
  138.1350   81.3640  224.5800 O   0  0  0  0  0  0  0  0  0  0  0  0
  136.9570   81.2490  225.3720 C   0  0  0  0  0  0  0  0  0  0  0  0
  137.2277   81.2754  226.4378 H   0  0  0  0  0  0  0  0  0  0  0  0
  136.2794   82.0853  225.1449 H   0  0  0  0  0  0  0  0  0  0  0  0
  136.4540   80.2975  225.1449 H   0  0  0  0  0  0  0  0  0  0  0  0
  140.1200   80.2210  223.8430 C   0  0  0  0  0  0  0  0  0  0  0  0
  140.7215   80.9814  224.3627 H   0  0  0  0  0  0  0  0  0  0  0  0
  140.7650   79.1760  223.1520 C   0  0  0  0  0  0  0  0  0  0  0  0
  142.1640   79.0660  223.0990 O   0  0  0  0  0  0  0  0  0  0  0  0
  143.0610   80.1700  223.0890 C   0  0  0  0  0  0  0  0  0  0  0  0
  143.2968   80.4602  224.1235 H   0  0  0  0  0  0  0  0  0  0  0  0
  143.9870   79.8854  222.5679 H   0  0  0  0  0  0  0  0  0  0  0  0
  142.5929   81.0181  222.5679 H   0  0  0  0  0  0  0  0  0  0  0  0
  141.3520   74.9420  221.2280 C   0  0  0  0  0  0  0  0  0  0  0  0
  142.1520   75.4120  220.1710 C   0  0  0  0  0  0  0  0  0  0  0  0
  142.1349   76.4795  219.9062 H   0  0  0  0  0  0  0  0  0  0  0  0
  142.9680   74.5330  219.4550 C   0  0  0  0  0  0  0  0  0  0  0  0
  143.5916   74.9100  218.6310 H   0  0  0  0  0  0  0  0  0  0  0  0
  142.9930   73.1770  219.7840 C   0  0  0  0  0  0  0  0  0  0  0  0
  143.6227   72.4831  219.2078 H   0  0  0  0  0  0  0  0  0  0  0  0
  142.2200   72.7010  220.8430 C   0  0  0  0  0  0  0  0  0  0  0  0
  142.2372   71.6293  221.0904 H   0  0  0  0  0  0  0  0  0  0  0  0
  141.4220   73.5730  221.5950 C   0  0  0  0  0  0  0  0  0  0  0  0
  140.7080   73.0330  222.7200 N   0  0  0  0  0  0  0  0  0  0  0  0
  139.5070   72.2470  222.6910 C   0  0  0  0  0  0  0  0  0  0  0  0
  138.3200   72.8910  222.3400 O   0  0  0  0  0  0  0  0  0  0  0  0
  138.0110   73.7410  222.7990 H   0  0  0  0  0  0  0  0  0  0  0  0
  139.4890   70.9260  222.9530 C   0  0  0  0  0  0  0  0  0  0  0  0
  139.3782   70.2435  222.0975 H   0  0  0  0  0  0  0  0  0  0  0  0
  139.6080   70.3060  224.3200 C   0  0  0  0  0  0  0  0  0  0  0  0
  140.0264   69.2939  224.2172 H   0  0  0  0  0  0  0  0  0  0  0  0
  138.6050   70.2740  224.7705 H   0  0  0  0  0  0  0  0  0  0  0  0
  140.5150   71.1260  225.2350 C   0  0  0  0  0  0  0  0  0  0  0  0
  140.2718   70.9062  226.2850 H   0  0  0  0  0  0  0  0  0  0  0  0
  141.5656   70.8650  225.0395 H   0  0  0  0  0  0  0  0  0  0  0  0
  140.3609   72.1975  225.0395 H   0  0  0  0  0  0  0  0  0  0  0  0
  1  2  1  0
  2  3  1  0
  3  4  2  0
  4  5  1  0
  5  6  2  0
  6  7  1  0
  6  8  1  0
  8  9  1  0
  8 10  2  0
 10 11  1  0
 11 12  1  0
 12 13  1  0
 12 14  1  0
 12 15  1  0
 10 16  1  0
 16 17  1  0
 16 18  2  0
 18 19  1  0
 19 20  1  0
 20 21  1  0
 20 22  1  0
 20 23  1  0
  3 24  1  0
 24 25  2  0
 25 26  1  0
 25 27  1  0
 27 28  1  0
 27 29  2  0
 29 30  1  0
 29 31  1  0
 31 32  1  0
 31 33  2  0
 33 34  1  0
 34 35  1  0
 35 36  1  0
 36 37  1  0
 35 38  2  0
 38 39  1  0
 38 40  1  0
 40 41  1  0
 40 42  1  0
 40 43  1  0
 43 44  1  0
 43 45  1  0
 43 46  1  0
 18  5  1  0
 33 24  1  0
M  CHG  1  34  -1
M  END
>  <UniqueID>  (23) 
10

>  <SMILES>  (23) 
CC/C=C(/O)[N-]c1ccccc1/C(O)=N/c1ccc(OC)cc1OC

>  <Energy>  (23) 
61.481365850089105

>  <Genealogy>  (23) 
CCCC(=O)[N-]c1ccccc1C(=O)Nc1ccc(OC)cc1OC (protonated)
CCC=C(O)[N-]c1ccccc1C(O)=Nc1ccc(OC)cc1OC (tautomer)
CC/C=C(/O)[N-]c1ccccc1/C(O)=N/c1ccc(OC)cc1OC (cis-trans isomerization)
CC/C=C(/O)[N-]c1ccccc1/C(O)=N/c1ccc(OC)cc1OC (3D coordinates assigned)
CC/C=C(/O)[N-]c1ccccc1/C(O)=N/c1ccc(OC)cc1OC (optimized conformer: 61.481365850089105 kcal/mol)

>  <smiles>  (23) 
CCCC(=O)Nc1ccccc1C(=O)Nc1ccc(OC)cc1OC

>  <score_type>  (23) 
oracle

>  <origin>  (23) 
autodockgpu

>  <m_score__min__energy>  (23) 
-5.0300000000000002

>  <m_primary>  (23) 
energy

>  <meeko>  (23) 
{"free_energy": -4.81, "intermolecular_energy": -8.1, "internal_energy": -2.77, "cluster_size": 8, "cluster_id": 2, "rank_in_cluster": 2}

>  <energy>  (23) 
-4.93

>  <cluster_rmsd>  (23) 
1.01

>  <rmsd>  (23) 
270.53

>  <cluster>  (23) 
1

$$$$
CILLJEXPWJCFIZ-SPGWRTIFNA-N
     RDKit          3D

 46 47  0  0  0  0  0  0  0  0999 V2000
  140.1010   74.2140  222.1480 H   0  0  0  0  0  0  0  0  0  0  0  0
  139.9220   73.3620  222.6670 O   0  0  0  0  0  0  0  0  0  0  0  0
  140.6920   72.2120  222.4940 C   0  0  0  0  0  0  0  0  0  0  0  0
  140.8750   76.0430  219.8500 N   0  0  0  0  0  0  0  0  0  0  0  0
  141.0990   77.0650  220.8290 C   0  0  0  0  0  0  0  0  0  0  0  0
  141.9350   78.1560  220.5470 C   0  0  0  0  0  0  0  0  0  0  0  0
  142.4007   78.2460  219.5545 H   0  0  0  0  0  0  0  0  0  0  0  0
  142.1790   79.1280  221.5190 C   0  0  0  0  0  0  0  0  0  0  0  0
  142.8251   79.9872  221.2858 H   0  0  0  0  0  0  0  0  0  0  0  0
  141.6000   79.0110  222.7970 C   0  0  0  0  0  0  0  0  0  0  0  0
  141.8140   79.9620  223.8070 O   0  0  0  0  0  0  0  0  0  0  0  0
  142.9130   80.8660  223.8410 C   0  0  0  0  0  0  0  0  0  0  0  0
  143.1770   81.0831  224.8866 H   0  0  0  0  0  0  0  0  0  0  0  0
  143.7762   80.4131  223.3314 H   0  0  0  0  0  0  0  0  0  0  0  0
  142.6351   81.8004  223.3314 H   0  0  0  0  0  0  0  0  0  0  0  0
  140.7840   77.9110  223.0820 C   0  0  0  0  0  0  0  0  0  0  0  0
  140.3330   77.8130  224.0805 H   0  0  0  0  0  0  0  0  0  0  0  0
  140.5330   76.9270  222.1050 C   0  0  0  0  0  0  0  0  0  0  0  0
  139.7200   75.8110  222.3590 O   0  0  0  0  0  0  0  0  0  0  0  0
  138.2980   75.8190  222.3130 C   0  0  0  0  0  0  0  0  0  0  0  0
  137.8980   75.8213  223.3377 H   0  0  0  0  0  0  0  0  0  0  0  0
  137.9533   76.7191  221.7829 H   0  0  0  0  0  0  0  0  0  0  0  0
  137.9432   74.9228  221.7829 H   0  0  0  0  0  0  0  0  0  0  0  0
  142.3540   74.2230  220.3130 C   0  0  0  0  0  0  0  0  0  0  0  0
  143.4770   75.0110  220.0060 C   0  0  0  0  0  0  0  0  0  0  0  0
  143.3385   76.0333  219.6242 H   0  0  0  0  0  0  0  0  0  0  0  0
  144.7670   74.5060  220.1820 C   0  0  0  0  0  0  0  0  0  0  0  0
  145.6395   75.1308  219.9406 H   0  0  0  0  0  0  0  0  0  0  0  0
  144.9500   73.2090  220.6640 C   0  0  0  0  0  0  0  0  0  0  0  0
  145.9664   72.8060  220.7846 H   0  0  0  0  0  0  0  0  0  0  0  0
  143.8450   72.4230  220.9930 C   0  0  0  0  0  0  0  0  0  0  0  0
  143.9965   71.3987  221.3643 H   0  0  0  0  0  0  0  0  0  0  0  0
  142.5430   72.9260  220.8550 C   0  0  0  0  0  0  0  0  0  0  0  0
  141.4520   72.0940  221.2810 N   0  0  0  0  0  0  0  0  0  0  0  0
  140.6680   71.2530  223.4400 C   0  0  0  0  0  0  0  0  0  0  0  0
  139.9220   73.8870  220.0270 O   0  0  0  0  0  0  0  0  0  0  0  0
  139.9080   73.0170  220.5410 H   0  0  0  0  0  0  0  0  0  0  0  0
  141.0140   74.7630  220.0360 C   0  0  0  0  0  0  0  0  0  0  0  0
  141.1407   70.2904  223.1953 H   0  0  0  0  0  0  0  0  0  0  0  0
  140.0470   71.3910  224.8050 C   0  0  0  0  0  0  0  0  0  0  0  0
  139.2726   70.6188  224.9238 H   0  0  0  0  0  0  0  0  0  0  0  0
  139.6145   72.3993  224.8840 H   0  0  0  0  0  0  0  0  0  0  0  0
  141.0820   71.2290  225.9170 C   0  0  0  0  0  0  0  0  0  0  0  0
  140.5846   71.3068  226.8950 H   0  0  0  0  0  0  0  0  0  0  0  0
  141.5644   70.2444  225.8283 H   0  0  0  0  0  0  0  0  0  0  0  0
  141.8422   72.0191  225.8283 H   0  0  0  0  0  0  0  0  0  0  0  0
  1  2  1  0
  2  3  1  0
  3  4  2  0
  4  5  1  0
  5  6  2  0
  6  7  1  0
  6  8  1  0
  8  9  1  0
  8 10  2  0
 10 11  1  0
 11 12  1  0
 12 13  1  0
 12 14  1  0
 12 15  1  0
 10 16  1  0
 16 17  1  0
 16 18  2  0
 18 19  1  0
 19 20  1  0
 20 21  1  0
 20 22  1  0
 20 23  1  0
  3 24  1  0
 24 25  2  0
 25 26  1  0
 25 27  1  0
 27 28  1  0
 27 29  2  0
 29 30  1  0
 29 31  1  0
 31 32  1  0
 31 33  2  0
 33 34  1  0
 34 35  1  0
 35 36  1  0
 36 37  1  0
 35 38  2  0
 38 39  1  0
 38 40  1  0
 40 41  1  0
 40 42  1  0
 40 43  1  0
 43 44  1  0
 43 45  1  0
 43 46  1  0
 18  5  1  0
 33 24  1  0
M  CHG  1  34  -1
M  END
>  <UniqueID>  (24) 
10

>  <SMILES>  (24) 
CC/C=C(/O)[N-]c1ccccc1/C(O)=N/c1ccc(OC)cc1OC

>  <Energy>  (24) 
61.481365850089105

>  <Genealogy>  (24) 
CCCC(=O)[N-]c1ccccc1C(=O)Nc1ccc(OC)cc1OC (protonated)
CCC=C(O)[N-]c1ccccc1C(O)=Nc1ccc(OC)cc1OC (tautomer)
CC/C=C(/O)[N-]c1ccccc1/C(O)=N/c1ccc(OC)cc1OC (cis-trans isomerization)
CC/C=C(/O)[N-]c1ccccc1/C(O)=N/c1ccc(OC)cc1OC (3D coordinates assigned)
CC/C=C(/O)[N-]c1ccccc1/C(O)=N/c1ccc(OC)cc1OC (optimized conformer: 61.481365850089105 kcal/mol)

>  <smiles>  (24) 
CCCC(=O)Nc1ccccc1C(=O)Nc1ccc(OC)cc1OC

>  <score_type>  (24) 
oracle

>  <origin>  (24) 
autodockgpu

>  <m_score__min__energy>  (24) 
-5.0300000000000002

>  <m_primary>  (24) 
energy

>  <meeko>  (24) 
{"free_energy": -4.13, "intermolecular_energy": -7.41, "internal_energy": -3.87, "cluster_size": 8, "cluster_id": 2, "rank_in_cluster": 6}

>  <energy>  (24) 
-4.86

>  <cluster_rmsd>  (24) 
1.14

>  <rmsd>  (24) 
270.52

>  <cluster>  (24) 
1

$$$$
CILLJEXPWJCFIZ-SPGWRTIFNA-N
     RDKit          3D

 46 47  0  0  0  0  0  0  0  0999 V2000
  138.0570   73.6550  222.7680 H   0  0  0  0  0  0  0  0  0  0  0  0
  137.9680   72.6550  222.6490 O   0  0  0  0  0  0  0  0  0  0  0  0
  139.0650   71.7870  222.6260 C   0  0  0  0  0  0  0  0  0  0  0  0
  139.0490   70.6360  223.2330 N   0  0  0  0  0  0  0  0  0  0  0  0
  139.6180   70.3530  224.5170 C   0  0  0  0  0  0  0  0  0  0  0  0
  140.4480   71.2880  225.1530 C   0  0  0  0  0  0  0  0  0  0  0  0
  140.6414   72.2610  224.6778 H   0  0  0  0  0  0  0  0  0  0  0  0
  141.0300   70.9890  226.3870 C   0  0  0  0  0  0  0  0  0  0  0  0
  141.6692   71.7321  226.8862 H   0  0  0  0  0  0  0  0  0  0  0  0
  140.8010   69.7390  226.9940 C   0  0  0  0  0  0  0  0  0  0  0  0
  141.3610   69.3930  228.2330 O   0  0  0  0  0  0  0  0  0  0  0  0
  141.1500   68.1480  228.8910 C   0  0  0  0  0  0  0  0  0  0  0  0
  141.1757   68.2999  229.9802 H   0  0  0  0  0  0  0  0  0  0  0  0
  140.1701   67.7412  228.6006 H   0  0  0  0  0  0  0  0  0  0  0  0
  141.9411   67.4411  228.6006 H   0  0  0  0  0  0  0  0  0  0  0  0
  139.9890   68.8020  226.3460 C   0  0  0  0  0  0  0  0  0  0  0  0
  139.8087   67.8232  226.8144 H   0  0  0  0  0  0  0  0  0  0  0  0
  139.3990   69.0970  225.1000 C   0  0  0  0  0  0  0  0  0  0  0  0
  138.5810   68.1780  224.4240 O   0  0  0  0  0  0  0  0  0  0  0  0
  138.8040   67.7250  223.0940 C   0  0  0  0  0  0  0  0  0  0  0  0
  139.2897   66.7384  223.1193 H   0  0  0  0  0  0  0  0  0  0  0  0
  137.8416   67.6465  222.5672 H   0  0  0  0  0  0  0  0  0  0  0  0
  139.4532   68.4399  222.5672 H   0  0  0  0  0  0  0  0  0  0  0  0
  140.2560   72.1690  221.8510 C   0  0  0  0  0  0  0  0  0  0  0  0
  140.9970   71.1620  221.2100 C   0  0  0  0  0  0  0  0  0  0  0  0
  140.6457   70.1202  221.2448 H   0  0  0  0  0  0  0  0  0  0  0  0
  142.1760   71.4730  220.5290 C   0  0  0  0  0  0  0  0  0  0  0  0
  142.7477   70.6779  220.0280 H   0  0  0  0  0  0  0  0  0  0  0  0
  142.6290   72.7920  220.4840 C   0  0  0  0  0  0  0  0  0  0  0  0
  143.5679   73.0330  219.9641 H   0  0  0  0  0  0  0  0  0  0  0  0
  141.8920   73.8060  221.0980 C   0  0  0  0  0  0  0  0  0  0  0  0
  142.2592   74.8424  221.0650 H   0  0  0  0  0  0  0  0  0  0  0  0
  140.6890   73.5170  221.7560 C   0  0  0  0  0  0  0  0  0  0  0  0
  139.9400   74.6150  222.3040 N   0  0  0  0  0  0  0  0  0  0  0  0
  139.0730   75.5130  221.5950 C   0  0  0  0  0  0  0  0  0  0  0  0
  137.7640   75.0960  221.3540 O   0  0  0  0  0  0  0  0  0  0  0  0
  137.5370   74.1330  221.1310 H   0  0  0  0  0  0  0  0  0  0  0  0
  139.4600   76.7390  221.1910 C   0  0  0  0  0  0  0  0  0  0  0  0
  138.6990   77.3785  220.7199 H   0  0  0  0  0  0  0  0  0  0  0  0
  140.8480   77.3060  221.3310 C   0  0  0  0  0  0  0  0  0  0  0  0
  140.9942   78.0833  220.5666 H   0  0  0  0  0  0  0  0  0  0  0  0
  141.5683   76.4848  221.2013 H   0  0  0  0  0  0  0  0  0  0  0  0
  141.0710   77.9210  222.7110 C   0  0  0  0  0  0  0  0  0  0  0  0
  140.8051   77.1876  223.4866 H   0  0  0  0  0  0  0  0  0  0  0  0
  142.1286   78.2030  222.8202 H   0  0  0  0  0  0  0  0  0  0  0  0
  140.4399   78.8153  222.8202 H   0  0  0  0  0  0  0  0  0  0  0  0
  1  2  1  0
  2  3  1  0
  3  4  2  0
  4  5  1  0
  5  6  2  0
  6  7  1  0
  6  8  1  0
  8  9  1  0
  8 10  2  0
 10 11  1  0
 11 12  1  0
 12 13  1  0
 12 14  1  0
 12 15  1  0
 10 16  1  0
 16 17  1  0
 16 18  2  0
 18 19  1  0
 19 20  1  0
 20 21  1  0
 20 22  1  0
 20 23  1  0
  3 24  1  0
 24 25  2  0
 25 26  1  0
 25 27  1  0
 27 28  1  0
 27 29  2  0
 29 30  1  0
 29 31  1  0
 31 32  1  0
 31 33  2  0
 33 34  1  0
 34 35  1  0
 35 36  1  0
 36 37  1  0
 35 38  2  0
 38 39  1  0
 38 40  1  0
 40 41  1  0
 40 42  1  0
 40 43  1  0
 43 44  1  0
 43 45  1  0
 43 46  1  0
 18  5  1  0
 33 24  1  0
M  CHG  1  34  -1
M  END
>  <UniqueID>  (25) 
10

>  <SMILES>  (25) 
CC/C=C(/O)[N-]c1ccccc1/C(O)=N/c1ccc(OC)cc1OC

>  <Energy>  (25) 
61.481365850089105

>  <Genealogy>  (25) 
CCCC(=O)[N-]c1ccccc1C(=O)Nc1ccc(OC)cc1OC (protonated)
CCC=C(O)[N-]c1ccccc1C(O)=Nc1ccc(OC)cc1OC (tautomer)
CC/C=C(/O)[N-]c1ccccc1/C(O)=N/c1ccc(OC)cc1OC (cis-trans isomerization)
CC/C=C(/O)[N-]c1ccccc1/C(O)=N/c1ccc(OC)cc1OC (3D coordinates assigned)
CC/C=C(/O)[N-]c1ccccc1/C(O)=N/c1ccc(OC)cc1OC (optimized conformer: 61.481365850089105 kcal/mol)

>  <smiles>  (25) 
CCCC(=O)Nc1ccccc1C(=O)Nc1ccc(OC)cc1OC

>  <score_type>  (25) 
oracle

>  <origin>  (25) 
autodockgpu

>  <m_score__min__energy>  (25) 
-5.0300000000000002

>  <m_primary>  (25) 
energy

>  <meeko>  (25) 
{"free_energy": -4.36, "intermolecular_energy": -7.64, "internal_energy": -3.08, "cluster_size": 8, "cluster_id": 1, "rank_in_cluster": 6}

>  <energy>  (25) 
-4.85

>  <cluster_rmsd>  (25) 
1.13

>  <rmsd>  (25) 
270.45

>  <cluster>  (25) 
1

$$$$
CILLJEXPWJCFIZ-SPGWRTIFNA-N
     RDKit          3D

 46 47  0  0  0  0  0  0  0  0999 V2000
  139.2840   81.5560  220.4220 H   0  0  0  0  0  0  0  0  0  0  0  0
  139.7850   80.8470  219.9040 O   0  0  0  0  0  0  0  0  0  0  0  0
  140.7110   79.9800  220.4940 C   0  0  0  0  0  0  0  0  0  0  0  0
  141.0290   78.8390  219.9560 N   0  0  0  0  0  0  0  0  0  0  0  0
  140.9140   77.5530  220.5790 C   0  0  0  0  0  0  0  0  0  0  0  0
  141.8450   76.5400  220.3050 C   0  0  0  0  0  0  0  0  0  0  0  0
  142.6897   76.7406  219.6296 H   0  0  0  0  0  0  0  0  0  0  0  0
  141.7040   75.2780  220.8860 C   0  0  0  0  0  0  0  0  0  0  0  0
  142.4447   74.4922  220.6765 H   0  0  0  0  0  0  0  0  0  0  0  0
  140.6170   75.0080  221.7390 C   0  0  0  0  0  0  0  0  0  0  0  0
  140.4330   73.7570  222.3470 O   0  0  0  0  0  0  0  0  0  0  0  0
  140.6870   72.5090  221.7130 C   0  0  0  0  0  0  0  0  0  0  0  0
  140.8446   71.7345  222.4780 H   0  0  0  0  0  0  0  0  0  0  0  0
  139.8263   72.2347  221.0854 H   0  0  0  0  0  0  0  0  0  0  0  0
  141.5865   72.5929  221.0854 H   0  0  0  0  0  0  0  0  0  0  0  0
  139.6790   76.0150  221.9920 C   0  0  0  0  0  0  0  0  0  0  0  0
  138.8248   75.8085  222.6536 H   0  0  0  0  0  0  0  0  0  0  0  0
  139.8160   77.2910  221.4090 C   0  0  0  0  0  0  0  0  0  0  0  0
  138.8910   78.3220  221.6420 O   0  0  0  0  0  0  0  0  0  0  0  0
  137.9260   78.3210  222.6870 C   0  0  0  0  0  0  0  0  0  0  0  0
  138.4392   78.3215  223.6600 H   0  0  0  0  0  0  0  0  0  0  0  0
  137.2953   79.2185  222.6046 H   0  0  0  0  0  0  0  0  0  0  0  0
  137.2972   77.4222  222.6046 H   0  0  0  0  0  0  0  0  0  0  0  0
  141.3800   80.3950  221.7360 C   0  0  0  0  0  0  0  0  0  0  0  0
  142.6000   79.7870  222.0830 C   0  0  0  0  0  0  0  0  0  0  0  0
  143.0625   79.0611  221.3981 H   0  0  0  0  0  0  0  0  0  0  0  0
  143.2280   80.0980  223.2900 C   0  0  0  0  0  0  0  0  0  0  0  0
  144.1834   79.6194  223.5511 H   0  0  0  0  0  0  0  0  0  0  0  0
  142.6460   81.0150  224.1660 C   0  0  0  0  0  0  0  0  0  0  0  0
  143.1327   81.2440  225.1255 H   0  0  0  0  0  0  0  0  0  0  0  0
  141.4460   81.6420  223.8250 C   0  0  0  0  0  0  0  0  0  0  0  0
  140.9882   82.3582  224.5232 H   0  0  0  0  0  0  0  0  0  0  0  0
  140.8190   81.3680  222.6020 C   0  0  0  0  0  0  0  0  0  0  0  0
  139.6260   82.1030  222.2780 N   0  0  0  0  0  0  0  0  0  0  0  0
  138.2680   81.6680  222.4420 C   0  0  0  0  0  0  0  0  0  0  0  0
  137.6640   81.0080  221.3720 O   0  0  0  0  0  0  0  0  0  0  0  0
  138.0650   80.1740  220.9570 H   0  0  0  0  0  0  0  0  0  0  0  0
  137.5760   81.8420  223.5850 C   0  0  0  0  0  0  0  0  0  0  0  0
  136.8054   82.6269  223.5942 H   0  0  0  0  0  0  0  0  0  0  0  0
  137.7710   81.0500  224.8510 C   0  0  0  0  0  0  0  0  0  0  0  0
  138.8437   81.0237  225.0933 H   0  0  0  0  0  0  0  0  0  0  0  0
  137.3793   80.0357  224.6844 H   0  0  0  0  0  0  0  0  0  0  0  0
  137.0130   81.6660  226.0260 C   0  0  0  0  0  0  0  0  0  0  0  0
  137.4500   81.3108  226.9709 H   0  0  0  0  0  0  0  0  0  0  0  0
  137.0881   82.7623  225.9765 H   0  0  0  0  0  0  0  0  0  0  0  0
  135.9552   81.3683  225.9765 H   0  0  0  0  0  0  0  0  0  0  0  0
  1  2  1  0
  2  3  1  0
  3  4  2  0
  4  5  1  0
  5  6  2  0
  6  7  1  0
  6  8  1  0
  8  9  1  0
  8 10  2  0
 10 11  1  0
 11 12  1  0
 12 13  1  0
 12 14  1  0
 12 15  1  0
 10 16  1  0
 16 17  1  0
 16 18  2  0
 18 19  1  0
 19 20  1  0
 20 21  1  0
 20 22  1  0
 20 23  1  0
  3 24  1  0
 24 25  2  0
 25 26  1  0
 25 27  1  0
 27 28  1  0
 27 29  2  0
 29 30  1  0
 29 31  1  0
 31 32  1  0
 31 33  2  0
 33 34  1  0
 34 35  1  0
 35 36  1  0
 36 37  1  0
 35 38  2  0
 38 39  1  0
 38 40  1  0
 40 41  1  0
 40 42  1  0
 40 43  1  0
 43 44  1  0
 43 45  1  0
 43 46  1  0
 18  5  1  0
 33 24  1  0
M  CHG  1  34  -1
M  END
>  <UniqueID>  (26) 
10

>  <SMILES>  (26) 
CC/C=C(/O)[N-]c1ccccc1/C(O)=N/c1ccc(OC)cc1OC

>  <Energy>  (26) 
61.481365850089105

>  <Genealogy>  (26) 
CCCC(=O)[N-]c1ccccc1C(=O)Nc1ccc(OC)cc1OC (protonated)
CCC=C(O)[N-]c1ccccc1C(O)=Nc1ccc(OC)cc1OC (tautomer)
CC/C=C(/O)[N-]c1ccccc1/C(O)=N/c1ccc(OC)cc1OC (cis-trans isomerization)
CC/C=C(/O)[N-]c1ccccc1/C(O)=N/c1ccc(OC)cc1OC (3D coordinates assigned)
CC/C=C(/O)[N-]c1ccccc1/C(O)=N/c1ccc(OC)cc1OC (optimized conformer: 61.481365850089105 kcal/mol)

>  <smiles>  (26) 
CCCC(=O)Nc1ccccc1C(=O)Nc1ccc(OC)cc1OC

>  <score_type>  (26) 
oracle

>  <origin>  (26) 
autodockgpu

>  <m_score__min__energy>  (26) 
-5.0300000000000002

>  <m_primary>  (26) 
energy

>  <meeko>  (26) 
{"free_energy": -3.24, "intermolecular_energy": -6.53, "internal_energy": -4.0, "cluster_size": 2, "cluster_id": 4, "rank_in_cluster": 2}

>  <energy>  (26) 
-4.36

>  <cluster_rmsd>  (26) 
1.28

>  <rmsd>  (26) 
270.42

>  <cluster>  (26) 
1

$$$$
CILLJEXPWJCFIZ-SPGWRTIFNA-N
     RDKit          3D

 46 47  0  0  0  0  0  0  0  0999 V2000
  139.3350   74.2430  222.7240 H   0  0  0  0  0  0  0  0  0  0  0  0
  139.2550   73.2360  222.6690 O   0  0  0  0  0  0  0  0  0  0  0  0
  140.3390   72.3990  222.3830 C   0  0  0  0  0  0  0  0  0  0  0  0
  140.4110   71.1820  222.8370 N   0  0  0  0  0  0  0  0  0  0  0  0
  140.3650   70.7940  224.2150 C   0  0  0  0  0  0  0  0  0  0  0  0
  141.0760   71.5150  225.1860 C   0  0  0  0  0  0  0  0  0  0  0  0
  141.6515   72.4056  224.8936 H   0  0  0  0  0  0  0  0  0  0  0  0
  141.0570   71.1080  226.5220 C   0  0  0  0  0  0  0  0  0  0  0  0
  141.6063   71.6860  227.2797 H   0  0  0  0  0  0  0  0  0  0  0  0
  140.3360   69.9590  226.9010 C   0  0  0  0  0  0  0  0  0  0  0  0
  140.2850   69.5100  228.2300 O   0  0  0  0  0  0  0  0  0  0  0  0
  140.9470   68.3450  228.7110 C   0  0  0  0  0  0  0  0  0  0  0  0
  140.9444   68.3496  229.8110 H   0  0  0  0  0  0  0  0  0  0  0  0
  140.4232   67.4489  228.3468 H   0  0  0  0  0  0  0  0  0  0  0  0
  141.9849   68.3364  228.3468 H   0  0  0  0  0  0  0  0  0  0  0  0
  139.6460   69.2300  225.9270 C   0  0  0  0  0  0  0  0  0  0  0  0
  139.0854   68.3292  226.2173 H   0  0  0  0  0  0  0  0  0  0  0  0
  139.6610   69.6370  224.5770 C   0  0  0  0  0  0  0  0  0  0  0  0
  138.9800   68.9270  223.5750 O   0  0  0  0  0  0  0  0  0  0  0  0
  137.7800   69.3640  222.9480 C   0  0  0  0  0  0  0  0  0  0  0  0
  137.0413   69.6330  223.7174 H   0  0  0  0  0  0  0  0  0  0  0  0
  137.9928   70.2424  222.3209 H   0  0  0  0  0  0  0  0  0  0  0  0
  137.3781   68.5545  222.3209 H   0  0  0  0  0  0  0  0  0  0  0  0
  141.4070   72.8960  221.5010 C   0  0  0  0  0  0  0  0  0  0  0  0
  142.5030   72.0590  221.2280 C   0  0  0  0  0  0  0  0  0  0  0  0
  142.5181   71.0326  221.6233 H   0  0  0  0  0  0  0  0  0  0  0  0
  143.5720   72.5210  220.4590 C   0  0  0  0  0  0  0  0  0  0  0  0
  144.4245   71.8583  220.2492 H   0  0  0  0  0  0  0  0  0  0  0  0
  143.5610   73.8220  219.9560 C   0  0  0  0  0  0  0  0  0  0  0  0
  144.4126   74.1898  219.3648 H   0  0  0  0  0  0  0  0  0  0  0  0
  142.4710   74.6570  220.2020 C   0  0  0  0  0  0  0  0  0  0  0  0
  142.4734   75.6849  219.8102 H   0  0  0  0  0  0  0  0  0  0  0  0
  141.3730   74.2000  220.9430 C   0  0  0  0  0  0  0  0  0  0  0  0
  140.2490   75.0830  221.0970 N   0  0  0  0  0  0  0  0  0  0  0  0
  140.1200   76.1700  222.0250 C   0  0  0  0  0  0  0  0  0  0  0  0
  139.1770   76.0430  223.0450 O   0  0  0  0  0  0  0  0  0  0  0  0
  138.5440   75.2520  223.1000 H   0  0  0  0  0  0  0  0  0  0  0  0
  140.8860   77.2770  221.9700 C   0  0  0  0  0  0  0  0  0  0  0  0
  141.4038   77.4855  221.0222 H   0  0  0  0  0  0  0  0  0  0  0  0
  141.0920   78.2520  223.0980 C   0  0  0  0  0  0  0  0  0  0  0  0
  141.3877   77.6961  223.9999 H   0  0  0  0  0  0  0  0  0  0  0  0
  140.1480   78.7931  223.2596 H   0  0  0  0  0  0  0  0  0  0  0  0
  142.1770   79.2760  222.7700 C   0  0  0  0  0  0  0  0  0  0  0  0
  142.5994   79.6746  223.7042 H   0  0  0  0  0  0  0  0  0  0  0  0
  142.9729   78.7922  222.1848 H   0  0  0  0  0  0  0  0  0  0  0  0
  141.7400   80.0986  222.1848 H   0  0  0  0  0  0  0  0  0  0  0  0
  1  2  1  0
  2  3  1  0
  3  4  2  0
  4  5  1  0
  5  6  2  0
  6  7  1  0
  6  8  1  0
  8  9  1  0
  8 10  2  0
 10 11  1  0
 11 12  1  0
 12 13  1  0
 12 14  1  0
 12 15  1  0
 10 16  1  0
 16 17  1  0
 16 18  2  0
 18 19  1  0
 19 20  1  0
 20 21  1  0
 20 22  1  0
 20 23  1  0
  3 24  1  0
 24 25  2  0
 25 26  1  0
 25 27  1  0
 27 28  1  0
 27 29  2  0
 29 30  1  0
 29 31  1  0
 31 32  1  0
 31 33  2  0
 33 34  1  0
 34 35  1  0
 35 36  1  0
 36 37  1  0
 35 38  2  0
 38 39  1  0
 38 40  1  0
 40 41  1  0
 40 42  1  0
 40 43  1  0
 43 44  1  0
 43 45  1  0
 43 46  1  0
 18  5  1  0
 33 24  1  0
M  CHG  1  34  -1
M  END
>  <UniqueID>  (27) 
10

>  <SMILES>  (27) 
CC/C=C(/O)[N-]c1ccccc1/C(O)=N/c1ccc(OC)cc1OC

>  <Energy>  (27) 
61.481365850089105

>  <Genealogy>  (27) 
CCCC(=O)[N-]c1ccccc1C(=O)Nc1ccc(OC)cc1OC (protonated)
CCC=C(O)[N-]c1ccccc1C(O)=Nc1ccc(OC)cc1OC (tautomer)
CC/C=C(/O)[N-]c1ccccc1/C(O)=N/c1ccc(OC)cc1OC (cis-trans isomerization)
CC/C=C(/O)[N-]c1ccccc1/C(O)=N/c1ccc(OC)cc1OC (3D coordinates assigned)
CC/C=C(/O)[N-]c1ccccc1/C(O)=N/c1ccc(OC)cc1OC (optimized conformer: 61.481365850089105 kcal/mol)

>  <smiles>  (27) 
CCCC(=O)Nc1ccccc1C(=O)Nc1ccc(OC)cc1OC

>  <score_type>  (27) 
oracle

>  <origin>  (27) 
autodockgpu

>  <m_score__min__energy>  (27) 
-5.0300000000000002

>  <m_primary>  (27) 
energy

>  <meeko>  (27) 
{"free_energy": -4.99, "intermolecular_energy": -8.28, "internal_energy": -2.68, "cluster_size": 8, "cluster_id": 1, "rank_in_cluster": 2}

>  <energy>  (27) 
-4.32

>  <cluster_rmsd>  (27) 
1.25

>  <rmsd>  (27) 
270.45

>  <cluster>  (27) 
1

$$$$
CILLJEXPWJCFIZ-SPGWRTIFNA-N
     RDKit          3D

 46 47  0  0  0  0  0  0  0  0999 V2000
  138.2280   72.2040  223.9390 H   0  0  0  0  0  0  0  0  0  0  0  0
  138.0420   72.2000  222.9450 O   0  0  0  0  0  0  0  0  0  0  0  0
  138.6550   71.3110  222.0550 C   0  0  0  0  0  0  0  0  0  0  0  0
  139.1620   71.7050  220.9240 N   0  0  0  0  0  0  0  0  0  0  0  0
  140.4990   72.1780  220.7200 C   0  0  0  0  0  0  0  0  0  0  0  0
  141.4390   71.3920  220.0360 C   0  0  0  0  0  0  0  0  0  0  0  0
  141.1415   70.4160  219.6249 H   0  0  0  0  0  0  0  0  0  0  0  0
  142.7510   71.8440  219.8750 C   0  0  0  0  0  0  0  0  0  0  0  0
  143.4794   71.2286  219.3266 H   0  0  0  0  0  0  0  0  0  0  0  0
  143.1440   73.0840  220.4120 C   0  0  0  0  0  0  0  0  0  0  0  0
  144.4490   73.5810  220.2760 O   0  0  0  0  0  0  0  0  0  0  0  0
  145.5050   73.3310  221.1960 C   0  0  0  0  0  0  0  0  0  0  0  0
  145.1246   73.4211  222.2242 H   0  0  0  0  0  0  0  0  0  0  0  0
  145.8966   72.3153  221.0376 H   0  0  0  0  0  0  0  0  0  0  0  0
  146.3104   74.0633  221.0376 H   0  0  0  0  0  0  0  0  0  0  0  0
  142.2090   73.8550  221.1110 C   0  0  0  0  0  0  0  0  0  0  0  0
  142.5117   74.8234  221.5360 H   0  0  0  0  0  0  0  0  0  0  0  0
  140.8830   73.4050  221.2770 C   0  0  0  0  0  0  0  0  0  0  0  0
  139.9220   74.1540  221.9750 O   0  0  0  0  0  0  0  0  0  0  0  0
  139.7570   75.5630  221.8630 C   0  0  0  0  0  0  0  0  0  0  0  0
  139.7050   76.0071  222.8680 H   0  0  0  0  0  0  0  0  0  0  0  0
  140.6113   75.9900  221.3172 H   0  0  0  0  0  0  0  0  0  0  0  0
  138.8272   75.7811  221.3172 H   0  0  0  0  0  0  0  0  0  0  0  0
  138.7710   69.8950  222.4350 C   0  0  0  0  0  0  0  0  0  0  0  0
  138.6840   68.9150  221.4300 C   0  0  0  0  0  0  0  0  0  0  0  0
  138.5924   69.2199  220.3771 H   0  0  0  0  0  0  0  0  0  0  0  0
  138.7130   67.5590  221.7580 C   0  0  0  0  0  0  0  0  0  0  0  0
  138.6460   66.8001  220.9646 H   0  0  0  0  0  0  0  0  0  0  0  0
  138.8270   67.1650  223.0920 C   0  0  0  0  0  0  0  0  0  0  0  0
  138.8317   66.0958  223.3504 H   0  0  0  0  0  0  0  0  0  0  0  0
  138.9350   68.1250  224.0980 C   0  0  0  0  0  0  0  0  0  0  0  0
  139.0155   67.8070  225.1480 H   0  0  0  0  0  0  0  0  0  0  0  0
  138.9420   69.4910  223.7840 C   0  0  0  0  0  0  0  0  0  0  0  0
  139.1330   70.4280  224.8580 N   0  0  0  0  0  0  0  0  0  0  0  0
  140.2080   71.3670  225.0120 C   0  0  0  0  0  0  0  0  0  0  0  0
  140.4200   72.2840  223.9820 O   0  0  0  0  0  0  0  0  0  0  0  0
  139.6540   72.7530  223.5110 H   0  0  0  0  0  0  0  0  0  0  0  0
  140.9860   71.4170  226.1100 C   0  0  0  0  0  0  0  0  0  0  0  0
  142.0657   71.5618  225.9572 H   0  0  0  0  0  0  0  0  0  0  0  0
  140.5000   71.2910  227.5300 C   0  0  0  0  0  0  0  0  0  0  0  0
  139.5434   71.8251  227.6280 H   0  0  0  0  0  0  0  0  0  0  0  0
  141.2633   71.7241  228.1932 H   0  0  0  0  0  0  0  0  0  0  0  0
  140.2950   69.8310  227.9300 C   0  0  0  0  0  0  0  0  0  0  0  0
  140.2836   69.7495  229.0269 H   0  0  0  0  0  0  0  0  0  0  0  0
  139.3375   69.4710  227.5255 H   0  0  0  0  0  0  0  0  0  0  0  0
  141.1163   69.2212  227.5255 H   0  0  0  0  0  0  0  0  0  0  0  0
  1  2  1  0
  2  3  1  0
  3  4  2  0
  4  5  1  0
  5  6  2  0
  6  7  1  0
  6  8  1  0
  8  9  1  0
  8 10  2  0
 10 11  1  0
 11 12  1  0
 12 13  1  0
 12 14  1  0
 12 15  1  0
 10 16  1  0
 16 17  1  0
 16 18  2  0
 18 19  1  0
 19 20  1  0
 20 21  1  0
 20 22  1  0
 20 23  1  0
  3 24  1  0
 24 25  2  0
 25 26  1  0
 25 27  1  0
 27 28  1  0
 27 29  2  0
 29 30  1  0
 29 31  1  0
 31 32  1  0
 31 33  2  0
 33 34  1  0
 34 35  1  0
 35 36  1  0
 36 37  1  0
 35 38  2  0
 38 39  1  0
 38 40  1  0
 40 41  1  0
 40 42  1  0
 40 43  1  0
 43 44  1  0
 43 45  1  0
 43 46  1  0
 18  5  1  0
 33 24  1  0
M  CHG  1  34  -1
M  END
>  <UniqueID>  (28) 
10

>  <SMILES>  (28) 
CC/C=C(/O)[N-]c1ccccc1/C(O)=N/c1ccc(OC)cc1OC

>  <Energy>  (28) 
61.481365850089105

>  <Genealogy>  (28) 
CCCC(=O)[N-]c1ccccc1C(=O)Nc1ccc(OC)cc1OC (protonated)
CCC=C(O)[N-]c1ccccc1C(O)=Nc1ccc(OC)cc1OC (tautomer)
CC/C=C(/O)[N-]c1ccccc1/C(O)=N/c1ccc(OC)cc1OC (cis-trans isomerization)
CC/C=C(/O)[N-]c1ccccc1/C(O)=N/c1ccc(OC)cc1OC (3D coordinates assigned)
CC/C=C(/O)[N-]c1ccccc1/C(O)=N/c1ccc(OC)cc1OC (optimized conformer: 61.481365850089105 kcal/mol)

>  <smiles>  (28) 
CCCC(=O)Nc1ccccc1C(=O)Nc1ccc(OC)cc1OC

>  <score_type>  (28) 
oracle

>  <origin>  (28) 
autodockgpu

>  <m_score__min__energy>  (28) 
-5.0300000000000002

>  <m_primary>  (28) 
energy

>  <meeko>  (28) 
{"free_energy": -3.83, "intermolecular_energy": -7.11, "internal_energy": -3.83, "cluster_size": 2, "cluster_id": 3, "rank_in_cluster": 2}

>  <energy>  (28) 
-3.69

>  <cluster_rmsd>  (28) 
1.52

>  <rmsd>  (28) 
270.06

>  <cluster>  (28) 
1

$$$$
CILLJEXPWJCFIZ-SPGWRTIFNA-N
     RDKit          3D

 46 47  0  0  0  0  0  0  0  0999 V2000
  138.5660   73.4410  222.7990 H   0  0  0  0  0  0  0  0  0  0  0  0
  138.5430   72.4320  222.7320 O   0  0  0  0  0  0  0  0  0  0  0  0
  139.6880   71.6540  222.5270 C   0  0  0  0  0  0  0  0  0  0  0  0
  139.8220   70.4700  223.0520 N   0  0  0  0  0  0  0  0  0  0  0  0
  139.9810   70.1800  224.4460 C   0  0  0  0  0  0  0  0  0  0  0  0
  140.6950   71.0530  225.2810 C   0  0  0  0  0  0  0  0  0  0  0  0
  141.1117   71.9847  224.8708 H   0  0  0  0  0  0  0  0  0  0  0  0
  140.8790   70.7440  226.6310 C   0  0  0  0  0  0  0  0  0  0  0  0
  141.4286   71.4390  227.2829 H   0  0  0  0  0  0  0  0  0  0  0  0
  140.3630   69.5460  227.1590 C   0  0  0  0  0  0  0  0  0  0  0  0
  140.5210   69.1910  228.5080 O   0  0  0  0  0  0  0  0  0  0  0  0
  141.3570   68.1370  228.9700 C   0  0  0  0  0  0  0  0  0  0  0  0
  141.3632   68.1292  230.0700 H   0  0  0  0  0  0  0  0  0  0  0  0
  140.9735   67.1752  228.5987 H   0  0  0  0  0  0  0  0  0  0  0  0
  142.3808   68.2915  228.5987 H   0  0  0  0  0  0  0  0  0  0  0  0
  139.6710   68.6680  226.3180 C   0  0  0  0  0  0  0  0  0  0  0  0
  139.2704   67.7278  226.7250 H   0  0  0  0  0  0  0  0  0  0  0  0
  139.4810   68.9740  224.9550 C   0  0  0  0  0  0  0  0  0  0  0  0
  138.7920   68.1140  224.0850 O   0  0  0  0  0  0  0  0  0  0  0  0
  137.6780   68.4950  223.2870 C   0  0  0  0  0  0  0  0  0  0  0  0
  136.8403   68.7815  223.9398 H   0  0  0  0  0  0  0  0  0  0  0  0
  137.9567   69.3489  222.6520 H   0  0  0  0  0  0  0  0  0  0  0  0
  137.3754   67.6493  222.6520 H   0  0  0  0  0  0  0  0  0  0  0  0
  140.7510   72.1710  221.6530 C   0  0  0  0  0  0  0  0  0  0  0  0
  141.4640   71.2670  220.8460 C   0  0  0  0  0  0  0  0  0  0  0  0
  141.1787   70.2047  220.8338 H   0  0  0  0  0  0  0  0  0  0  0  0
  142.5310   71.7060  220.0600 C   0  0  0  0  0  0  0  0  0  0  0  0
  143.0817   70.9909  219.4312 H   0  0  0  0  0  0  0  0  0  0  0  0
  142.8990   73.0520  220.0720 C   0  0  0  0  0  0  0  0  0  0  0  0
  143.7508   73.3939  219.4657 H   0  0  0  0  0  0  0  0  0  0  0  0
  142.1880   73.9650  220.8520 C   0  0  0  0  0  0  0  0  0  0  0  0
  142.4901   75.0227  220.8634 H   0  0  0  0  0  0  0  0  0  0  0  0
  141.0930   73.5480  221.6210 C   0  0  0  0  0  0  0  0  0  0  0  0
  140.3560   74.5490  222.3420 N   0  0  0  0  0  0  0  0  0  0  0  0
  139.3100   75.3920  221.8350 C   0  0  0  0  0  0  0  0  0  0  0  0
  137.9940   74.9590  221.9940 O   0  0  0  0  0  0  0  0  0  0  0  0
  137.6910   74.4450  222.8140 H   0  0  0  0  0  0  0  0  0  0  0  0
  139.5470   76.5820  221.2490 C   0  0  0  0  0  0  0  0  0  0  0  0
  138.7300   77.0277  220.6626 H   0  0  0  0  0  0  0  0  0  0  0  0
  140.8390   77.3520  221.3310 C   0  0  0  0  0  0  0  0  0  0  0  0
  140.8107   78.1740  220.6005 H   0  0  0  0  0  0  0  0  0  0  0  0
  141.6649   76.6587  221.1138 H   0  0  0  0  0  0  0  0  0  0  0  0
  141.0630   77.9360  222.7240 C   0  0  0  0  0  0  0  0  0  0  0  0
  140.7780   77.1929  223.4833 H   0  0  0  0  0  0  0  0  0  0  0  0
  142.1248   78.1963  222.8461 H   0  0  0  0  0  0  0  0  0  0  0  0
  140.4476   78.8395  222.8461 H   0  0  0  0  0  0  0  0  0  0  0  0
  1  2  1  0
  2  3  1  0
  3  4  2  0
  4  5  1  0
  5  6  2  0
  6  7  1  0
  6  8  1  0
  8  9  1  0
  8 10  2  0
 10 11  1  0
 11 12  1  0
 12 13  1  0
 12 14  1  0
 12 15  1  0
 10 16  1  0
 16 17  1  0
 16 18  2  0
 18 19  1  0
 19 20  1  0
 20 21  1  0
 20 22  1  0
 20 23  1  0
  3 24  1  0
 24 25  2  0
 25 26  1  0
 25 27  1  0
 27 28  1  0
 27 29  2  0
 29 30  1  0
 29 31  1  0
 31 32  1  0
 31 33  2  0
 33 34  1  0
 34 35  1  0
 35 36  1  0
 36 37  1  0
 35 38  2  0
 38 39  1  0
 38 40  1  0
 40 41  1  0
 40 42  1  0
 40 43  1  0
 43 44  1  0
 43 45  1  0
 43 46  1  0
 18  5  1  0
 33 24  1  0
M  CHG  1  34  -1
M  END
>  <UniqueID>  (29) 
10

>  <SMILES>  (29) 
CC/C=C(/O)[N-]c1ccccc1/C(O)=N/c1ccc(OC)cc1OC

>  <Energy>  (29) 
61.481365850089105

>  <Genealogy>  (29) 
CCCC(=O)[N-]c1ccccc1C(=O)Nc1ccc(OC)cc1OC (protonated)
CCC=C(O)[N-]c1ccccc1C(O)=Nc1ccc(OC)cc1OC (tautomer)
CC/C=C(/O)[N-]c1ccccc1/C(O)=N/c1ccc(OC)cc1OC (cis-trans isomerization)
CC/C=C(/O)[N-]c1ccccc1/C(O)=N/c1ccc(OC)cc1OC (3D coordinates assigned)
CC/C=C(/O)[N-]c1ccccc1/C(O)=N/c1ccc(OC)cc1OC (optimized conformer: 61.481365850089105 kcal/mol)

>  <smiles>  (29) 
CCCC(=O)Nc1ccccc1C(=O)Nc1ccc(OC)cc1OC

>  <score_type>  (29) 
oracle

>  <origin>  (29) 
autodockgpu

>  <m_score__min__energy>  (29) 
-5.0300000000000002

>  <m_primary>  (29) 
energy

>  <meeko>  (29) 
{"free_energy": -4.93, "intermolecular_energy": -8.21, "internal_energy": -2.8, "cluster_size": 8, "cluster_id": 1, "rank_in_cluster": 3}

>  <energy>  (29) 
-4.84

>  <cluster_rmsd>  (29) 
0.0

>  <rmsd>  (29) 
270.98

>  <cluster>  (29) 
2

$$$$
CILLJEXPWJCFIZ-SPGWRTIFNA-N
     RDKit          3D

 46 47  0  0  0  0  0  0  0  0999 V2000
  140.1510   74.2180  222.2220 H   0  0  0  0  0  0  0  0  0  0  0  0
  139.9560   73.3460  222.7010 O   0  0  0  0  0  0  0  0  0  0  0  0
  140.7040   72.1910  222.4750 C   0  0  0  0  0  0  0  0  0  0  0  0
  140.9160   76.0850  219.8560 N   0  0  0  0  0  0  0  0  0  0  0  0
  141.1120   77.1180  220.8300 C   0  0  0  0  0  0  0  0  0  0  0  0
  141.9100   78.2350  220.5380 C   0  0  0  0  0  0  0  0  0  0  0  0
  142.3660   78.3364  219.5421 H   0  0  0  0  0  0  0  0  0  0  0  0
  142.1280   79.2180  221.5050 C   0  0  0  0  0  0  0  0  0  0  0  0
  142.7435   80.0973  221.2642 H   0  0  0  0  0  0  0  0  0  0  0  0
  141.5620   79.0870  222.7880 C   0  0  0  0  0  0  0  0  0  0  0  0
  141.7510   80.0470  223.7930 O   0  0  0  0  0  0  0  0  0  0  0  0
  142.9030   80.8760  223.9080 C   0  0  0  0  0  0  0  0  0  0  0  0
  143.1317   81.0405  224.9713 H   0  0  0  0  0  0  0  0  0  0  0  0
  143.7582   80.3849  223.4208 H   0  0  0  0  0  0  0  0  0  0  0  0
  142.7090   81.8429  223.4208 H   0  0  0  0  0  0  0  0  0  0  0  0
  140.7860   77.9610  223.0820 C   0  0  0  0  0  0  0  0  0  0  0  0
  140.3458   77.8513  224.0841 H   0  0  0  0  0  0  0  0  0  0  0  0
  140.5610   76.9650  222.1100 C   0  0  0  0  0  0  0  0  0  0  0  0
  139.7880   75.8230  222.3740 O   0  0  0  0  0  0  0  0  0  0  0  0
  138.3670   75.7840  222.3390 C   0  0  0  0  0  0  0  0  0  0  0  0
  137.9751   75.7732  223.3668 H   0  0  0  0  0  0  0  0  0  0  0  0
  137.9887   76.6721  221.8116 H   0  0  0  0  0  0  0  0  0  0  0  0
  138.0380   74.8765  221.8116 H   0  0  0  0  0  0  0  0  0  0  0  0
  142.3690   74.2460  220.3250 C   0  0  0  0  0  0  0  0  0  0  0  0
  143.5000   75.0280  220.0320 C   0  0  0  0  0  0  0  0  0  0  0  0
  143.3720   76.0599  219.6731 H   0  0  0  0  0  0  0  0  0  0  0  0
  144.7840   74.5050  220.1930 C   0  0  0  0  0  0  0  0  0  0  0  0
  145.6628   75.1254  219.9633 H   0  0  0  0  0  0  0  0  0  0  0  0
  144.9540   73.1960  220.6450 C   0  0  0  0  0  0  0  0  0  0  0  0
  145.9662   72.7791  220.7532 H   0  0  0  0  0  0  0  0  0  0  0  0
  143.8410   72.4150  220.9600 C   0  0  0  0  0  0  0  0  0  0  0  0
  143.9822   71.3812  221.3082 H   0  0  0  0  0  0  0  0  0  0  0  0
  142.5450   72.9350  220.8370 C   0  0  0  0  0  0  0  0  0  0  0  0
  141.4450   72.1060  221.2480 N   0  0  0  0  0  0  0  0  0  0  0  0
  140.6790   71.1990  223.3860 C   0  0  0  0  0  0  0  0  0  0  0  0
  139.9260   73.9530  220.0920 O   0  0  0  0  0  0  0  0  0  0  0  0
  139.9320   73.0560  220.5590 H   0  0  0  0  0  0  0  0  0  0  0  0
  141.0340   74.8060  220.0630 C   0  0  0  0  0  0  0  0  0  0  0  0
  141.1674   70.2515  223.1144 H   0  0  0  0  0  0  0  0  0  0  0  0
  140.0370   71.2810  224.7460 C   0  0  0  0  0  0  0  0  0  0  0  0
  139.4032   70.3944  224.8950 H   0  0  0  0  0  0  0  0  0  0  0  0
  139.4401   72.2040  224.7882 H   0  0  0  0  0  0  0  0  0  0  0  0
  141.0800   71.3370  225.8610 C   0  0  0  0  0  0  0  0  0  0  0  0
  140.5745   71.3099  226.8376 H   0  0  0  0  0  0  0  0  0  0  0  0
  141.7564   70.4739  225.7741 H   0  0  0  0  0  0  0  0  0  0  0  0
  141.6601   72.2676  225.7741 H   0  0  0  0  0  0  0  0  0  0  0  0
  1  2  1  0
  2  3  1  0
  3  4  2  0
  4  5  1  0
  5  6  2  0
  6  7  1  0
  6  8  1  0
  8  9  1  0
  8 10  2  0
 10 11  1  0
 11 12  1  0
 12 13  1  0
 12 14  1  0
 12 15  1  0
 10 16  1  0
 16 17  1  0
 16 18  2  0
 18 19  1  0
 19 20  1  0
 20 21  1  0
 20 22  1  0
 20 23  1  0
  3 24  1  0
 24 25  2  0
 25 26  1  0
 25 27  1  0
 27 28  1  0
 27 29  2  0
 29 30  1  0
 29 31  1  0
 31 32  1  0
 31 33  2  0
 33 34  1  0
 34 35  1  0
 35 36  1  0
 36 37  1  0
 35 38  2  0
 38 39  1  0
 38 40  1  0
 40 41  1  0
 40 42  1  0
 40 43  1  0
 43 44  1  0
 43 45  1  0
 43 46  1  0
 18  5  1  0
 33 24  1  0
M  CHG  1  34  -1
M  END
>  <UniqueID>  (30) 
10

>  <SMILES>  (30) 
CC/C=C(/O)[N-]c1ccccc1/C(O)=N/c1ccc(OC)cc1OC

>  <Energy>  (30) 
61.481365850089105

>  <Genealogy>  (30) 
CCCC(=O)[N-]c1ccccc1C(=O)Nc1ccc(OC)cc1OC (protonated)
CCC=C(O)[N-]c1ccccc1C(O)=Nc1ccc(OC)cc1OC (tautomer)
CC/C=C(/O)[N-]c1ccccc1/C(O)=N/c1ccc(OC)cc1OC (cis-trans isomerization)
CC/C=C(/O)[N-]c1ccccc1/C(O)=N/c1ccc(OC)cc1OC (3D coordinates assigned)
CC/C=C(/O)[N-]c1ccccc1/C(O)=N/c1ccc(OC)cc1OC (optimized conformer: 61.481365850089105 kcal/mol)

>  <smiles>  (30) 
CCCC(=O)Nc1ccccc1C(=O)Nc1ccc(OC)cc1OC

>  <score_type>  (30) 
oracle

>  <origin>  (30) 
autodockgpu

>  <m_score__min__energy>  (30) 
-5.0300000000000002

>  <m_primary>  (30) 
energy

>  <meeko>  (30) 
{"free_energy": -4.16, "intermolecular_energy": -7.44, "internal_energy": -3.84, "cluster_size": 8, "cluster_id": 2, "rank_in_cluster": 3}

>  <energy>  (30) 
-4.81

>  <cluster_rmsd>  (30) 
0.1

>  <rmsd>  (30) 
270.97

>  <cluster>  (30) 
2

$$$$
CILLJEXPWJCFIZ-SPGWRTIFNA-N
     RDKit          3D

 46 47  0  0  0  0  0  0  0  0999 V2000
  140.1160   74.2010  222.1790 H   0  0  0  0  0  0  0  0  0  0  0  0
  139.9400   73.3460  222.6960 O   0  0  0  0  0  0  0  0  0  0  0  0
  140.6890   72.1870  222.4910 C   0  0  0  0  0  0  0  0  0  0  0  0
  140.9090   76.0470  219.8530 N   0  0  0  0  0  0  0  0  0  0  0  0
  141.1300   77.0710  220.8300 C   0  0  0  0  0  0  0  0  0  0  0  0
  141.9590   78.1670  220.5430 C   0  0  0  0  0  0  0  0  0  0  0  0
  142.4204   78.2583  219.5486 H   0  0  0  0  0  0  0  0  0  0  0  0
  142.2010   79.1420  221.5130 C   0  0  0  0  0  0  0  0  0  0  0  0
  142.8407   80.0049  221.2760 H   0  0  0  0  0  0  0  0  0  0  0  0
  141.6280   79.0230  222.7940 C   0  0  0  0  0  0  0  0  0  0  0  0
  141.8400   79.9760  223.8020 O   0  0  0  0  0  0  0  0  0  0  0  0
  142.9480   80.8680  223.8460 C   0  0  0  0  0  0  0  0  0  0  0  0
  143.2085   81.0777  224.8939 H   0  0  0  0  0  0  0  0  0  0  0  0
  143.8092   80.4083  223.3390 H   0  0  0  0  0  0  0  0  0  0  0  0
  142.6827   81.8075  223.3390 H   0  0  0  0  0  0  0  0  0  0  0  0
  140.8200   77.9180  223.0830 C   0  0  0  0  0  0  0  0  0  0  0  0
  140.3736   77.8182  224.0834 H   0  0  0  0  0  0  0  0  0  0  0  0
  140.5710   76.9310  222.1080 C   0  0  0  0  0  0  0  0  0  0  0  0
  139.7670   75.8100  222.3670 O   0  0  0  0  0  0  0  0  0  0  0  0
  138.3440   75.8150  222.3510 C   0  0  0  0  0  0  0  0  0  0  0  0
  137.9657   75.8163  223.3839 H   0  0  0  0  0  0  0  0  0  0  0  0
  137.9863   76.7144  221.8284 H   0  0  0  0  0  0  0  0  0  0  0  0
  137.9800   74.9181  221.8284 H   0  0  0  0  0  0  0  0  0  0  0  0
  142.3600   74.2050  220.3150 C   0  0  0  0  0  0  0  0  0  0  0  0
  143.4930   74.9790  220.0100 C   0  0  0  0  0  0  0  0  0  0  0  0
  143.3677   76.0067  219.6383 H   0  0  0  0  0  0  0  0  0  0  0  0
  144.7760   74.4540  220.1750 C   0  0  0  0  0  0  0  0  0  0  0  0
  145.6562   75.0686  219.9352 H   0  0  0  0  0  0  0  0  0  0  0  0
  144.9430   73.1500  220.6440 C   0  0  0  0  0  0  0  0  0  0  0  0
  145.9540   72.7314  220.7559 H   0  0  0  0  0  0  0  0  0  0  0  0
  143.8280   72.3770  220.9710 C   0  0  0  0  0  0  0  0  0  0  0  0
  143.9662   71.3474  221.3327 H   0  0  0  0  0  0  0  0  0  0  0  0
  142.5330   72.9000  220.8430 C   0  0  0  0  0  0  0  0  0  0  0  0
  141.4320   72.0800  221.2670 N   0  0  0  0  0  0  0  0  0  0  0  0
  140.6620   71.2120  223.4210 C   0  0  0  0  0  0  0  0  0  0  0  0
  139.9200   73.9110  220.0590 O   0  0  0  0  0  0  0  0  0  0  0  0
  139.9020   73.0370  220.5690 H   0  0  0  0  0  0  0  0  0  0  0  0
  141.0270   74.7660  220.0490 C   0  0  0  0  0  0  0  0  0  0  0  0
  141.1454   70.2575  223.1654 H   0  0  0  0  0  0  0  0  0  0  0  0
  140.0250   71.3210  224.7810 C   0  0  0  0  0  0  0  0  0  0  0  0
  139.4160   70.4231  224.9623 H   0  0  0  0  0  0  0  0  0  0  0  0
  139.4038   72.2287  224.7968 H   0  0  0  0  0  0  0  0  0  0  0  0
  141.0710   71.4410  225.8870 C   0  0  0  0  0  0  0  0  0  0  0  0
  140.5759   71.3842  226.8676 H   0  0  0  0  0  0  0  0  0  0  0  0
  141.7977   70.6203  225.7950 H   0  0  0  0  0  0  0  0  0  0  0  0
  141.5929   72.4049  225.7950 H   0  0  0  0  0  0  0  0  0  0  0  0
  1  2  1  0
  2  3  1  0
  3  4  2  0
  4  5  1  0
  5  6  2  0
  6  7  1  0
  6  8  1  0
  8  9  1  0
  8 10  2  0
 10 11  1  0
 11 12  1  0
 12 13  1  0
 12 14  1  0
 12 15  1  0
 10 16  1  0
 16 17  1  0
 16 18  2  0
 18 19  1  0
 19 20  1  0
 20 21  1  0
 20 22  1  0
 20 23  1  0
  3 24  1  0
 24 25  2  0
 25 26  1  0
 25 27  1  0
 27 28  1  0
 27 29  2  0
 29 30  1  0
 29 31  1  0
 31 32  1  0
 31 33  2  0
 33 34  1  0
 34 35  1  0
 35 36  1  0
 36 37  1  0
 35 38  2  0
 38 39  1  0
 38 40  1  0
 40 41  1  0
 40 42  1  0
 40 43  1  0
 43 44  1  0
 43 45  1  0
 43 46  1  0
 18  5  1  0
 33 24  1  0
M  CHG  1  34  -1
M  END
>  <UniqueID>  (31) 
10

>  <SMILES>  (31) 
CC/C=C(/O)[N-]c1ccccc1/C(O)=N/c1ccc(OC)cc1OC

>  <Energy>  (31) 
61.481365850089105

>  <Genealogy>  (31) 
CCCC(=O)[N-]c1ccccc1C(=O)Nc1ccc(OC)cc1OC (protonated)
CCC=C(O)[N-]c1ccccc1C(O)=Nc1ccc(OC)cc1OC (tautomer)
CC/C=C(/O)[N-]c1ccccc1/C(O)=N/c1ccc(OC)cc1OC (cis-trans isomerization)
CC/C=C(/O)[N-]c1ccccc1/C(O)=N/c1ccc(OC)cc1OC (3D coordinates assigned)
CC/C=C(/O)[N-]c1ccccc1/C(O)=N/c1ccc(OC)cc1OC (optimized conformer: 61.481365850089105 kcal/mol)

>  <smiles>  (31) 
CCCC(=O)Nc1ccccc1C(=O)Nc1ccc(OC)cc1OC

>  <score_type>  (31) 
oracle

>  <origin>  (31) 
autodockgpu

>  <m_score__min__energy>  (31) 
-5.0300000000000002

>  <m_primary>  (31) 
energy

>  <meeko>  (31) 
{"free_energy": -4.15, "intermolecular_energy": -7.43, "internal_energy": -3.86, "cluster_size": 8, "cluster_id": 2, "rank_in_cluster": 5}

>  <energy>  (31) 
-4.16

>  <cluster_rmsd>  (31) 
1.74

>  <rmsd>  (31) 
270.73

>  <cluster>  (31) 
2

$$$$
CILLJEXPWJCFIZ-SPGWRTIFNA-N
     RDKit          3D

 46 47  0  0  0  0  0  0  0  0999 V2000
  138.3670   72.2500  223.8630 H   0  0  0  0  0  0  0  0  0  0  0  0
  138.1910   72.2240  222.8680 O   0  0  0  0  0  0  0  0  0  0  0  0
  138.8040   71.3060  222.0070 C   0  0  0  0  0  0  0  0  0  0  0  0
  139.3520   71.6700  220.8850 N   0  0  0  0  0  0  0  0  0  0  0  0
  140.6710   72.2080  220.7270 C   0  0  0  0  0  0  0  0  0  0  0  0
  141.6670   71.4750  220.0650 C   0  0  0  0  0  0  0  0  0  0  0  0
  141.4282   70.4907  219.6359 H   0  0  0  0  0  0  0  0  0  0  0  0
  142.9610   71.9890  219.9480 C   0  0  0  0  0  0  0  0  0  0  0  0
  143.7336   71.4148  219.4156 H   0  0  0  0  0  0  0  0  0  0  0  0
  143.2780   73.2400  220.5100 C   0  0  0  0  0  0  0  0  0  0  0  0
  144.5620   73.8000  220.4190 O   0  0  0  0  0  0  0  0  0  0  0  0
  145.6830   73.3690  221.1820 C   0  0  0  0  0  0  0  0  0  0  0  0
  145.4528   73.4575  222.2540 H   0  0  0  0  0  0  0  0  0  0  0  0
  145.9091   72.3198  220.9409 H   0  0  0  0  0  0  0  0  0  0  0  0
  146.5537   73.9965  220.9409 H   0  0  0  0  0  0  0  0  0  0  0  0
  142.2870   73.9580  221.1880 C   0  0  0  0  0  0  0  0  0  0  0  0
  142.5309   74.9345  221.6319 H   0  0  0  0  0  0  0  0  0  0  0  0
  140.9800   73.4450  221.3090 C   0  0  0  0  0  0  0  0  0  0  0  0
  139.9630   74.1400  221.9840 O   0  0  0  0  0  0  0  0  0  0  0  0
  139.7930   75.5520  221.9560 C   0  0  0  0  0  0  0  0  0  0  0  0
  139.7467   75.9362  222.9857 H   0  0  0  0  0  0  0  0  0  0  0  0
  140.6421   76.0132  221.4303 H   0  0  0  0  0  0  0  0  0  0  0  0
  138.8587   75.7985  221.4303 H   0  0  0  0  0  0  0  0  0  0  0  0
  138.8720   69.8930  222.4100 C   0  0  0  0  0  0  0  0  0  0  0  0
  138.7640   68.9020  221.4180 C   0  0  0  0  0  0  0  0  0  0  0  0
  138.6925   69.1939  220.3599 H   0  0  0  0  0  0  0  0  0  0  0  0
  138.7470   67.5500  221.7670 C   0  0  0  0  0  0  0  0  0  0  0  0
  138.6633   66.7815  220.9844 H   0  0  0  0  0  0  0  0  0  0  0  0
  138.8360   67.1730  223.1070 C   0  0  0  0  0  0  0  0  0  0  0  0
  138.8052   66.1082  223.3813 H   0  0  0  0  0  0  0  0  0  0  0  0
  138.9640   68.1450  224.1000 C   0  0  0  0  0  0  0  0  0  0  0  0
  139.0231   67.8407  225.1554 H   0  0  0  0  0  0  0  0  0  0  0  0
  139.0180   69.5050  223.7660 C   0  0  0  0  0  0  0  0  0  0  0  0
  139.2270   70.4510  224.8280 N   0  0  0  0  0  0  0  0  0  0  0  0
  140.3290   71.3590  224.9780 C   0  0  0  0  0  0  0  0  0  0  0  0
  140.5460   72.2890  223.9610 O   0  0  0  0  0  0  0  0  0  0  0  0
  139.7850   72.7980  223.5250 H   0  0  0  0  0  0  0  0  0  0  0  0
  141.1290   71.3680  226.0620 C   0  0  0  0  0  0  0  0  0  0  0  0
  142.2120   71.2790  225.8910 H   0  0  0  0  0  0  0  0  0  0  0  0
  140.6620   71.4900  227.4890 C   0  0  0  0  0  0  0  0  0  0  0  0
  139.8892   72.2707  227.5456 H   0  0  0  0  0  0  0  0  0  0  0  0
  141.5303   71.7486  228.1128 H   0  0  0  0  0  0  0  0  0  0  0  0
  140.0780   70.1770  228.0070 C   0  0  0  0  0  0  0  0  0  0  0  0
  140.0807   70.1832  229.1070 H   0  0  0  0  0  0  0  0  0  0  0  0
  139.0457   70.0662  227.6435 H   0  0  0  0  0  0  0  0  0  0  0  0
  140.6870   69.3362  227.6435 H   0  0  0  0  0  0  0  0  0  0  0  0
  1  2  1  0
  2  3  1  0
  3  4  2  0
  4  5  1  0
  5  6  2  0
  6  7  1  0
  6  8  1  0
  8  9  1  0
  8 10  2  0
 10 11  1  0
 11 12  1  0
 12 13  1  0
 12 14  1  0
 12 15  1  0
 10 16  1  0
 16 17  1  0
 16 18  2  0
 18 19  1  0
 19 20  1  0
 20 21  1  0
 20 22  1  0
 20 23  1  0
  3 24  1  0
 24 25  2  0
 25 26  1  0
 25 27  1  0
 27 28  1  0
 27 29  2  0
 29 30  1  0
 29 31  1  0
 31 32  1  0
 31 33  2  0
 33 34  1  0
 34 35  1  0
 35 36  1  0
 36 37  1  0
 35 38  2  0
 38 39  1  0
 38 40  1  0
 40 41  1  0
 40 42  1  0
 40 43  1  0
 43 44  1  0
 43 45  1  0
 43 46  1  0
 18  5  1  0
 33 24  1  0
M  CHG  1  34  -1
M  END
>  <UniqueID>  (32) 
10

>  <SMILES>  (32) 
CC/C=C(/O)[N-]c1ccccc1/C(O)=N/c1ccc(OC)cc1OC

>  <Energy>  (32) 
61.481365850089105

>  <Genealogy>  (32) 
CCCC(=O)[N-]c1ccccc1C(=O)Nc1ccc(OC)cc1OC (protonated)
CCC=C(O)[N-]c1ccccc1C(O)=Nc1ccc(OC)cc1OC (tautomer)
CC/C=C(/O)[N-]c1ccccc1/C(O)=N/c1ccc(OC)cc1OC (cis-trans isomerization)
CC/C=C(/O)[N-]c1ccccc1/C(O)=N/c1ccc(OC)cc1OC (3D coordinates assigned)
CC/C=C(/O)[N-]c1ccccc1/C(O)=N/c1ccc(OC)cc1OC (optimized conformer: 61.481365850089105 kcal/mol)

>  <smiles>  (32) 
CCCC(=O)Nc1ccccc1C(=O)Nc1ccc(OC)cc1OC

>  <score_type>  (32) 
oracle

>  <origin>  (32) 
autodockgpu

>  <m_score__min__energy>  (32) 
-5.0300000000000002

>  <m_primary>  (32) 
energy

>  <meeko>  (32) 
{"free_energy": -3.9, "intermolecular_energy": -7.18, "internal_energy": -3.78, "cluster_size": 2, "cluster_id": 3, "rank_in_cluster": 1}

>  <energy>  (32) 
-4.15

>  <cluster_rmsd>  (32) 
1.74

>  <rmsd>  (32) 
270.75

>  <cluster>  (32) 
2

$$$$
CILLJEXPWJCFIZ-SPGWRTIFNA-N
     RDKit          3D

 46 47  0  0  0  0  0  0  0  0999 V2000
  138.2340   72.7850  221.0790 H   0  0  0  0  0  0  0  0  0  0  0  0
  139.1860   72.4460  221.0570 O   0  0  0  0  0  0  0  0  0  0  0  0
  140.2150   73.0060  221.8220 C   0  0  0  0  0  0  0  0  0  0  0  0
  140.2910   72.8330  223.1100 N   0  0  0  0  0  0  0  0  0  0  0  0
  139.9280   71.6440  223.8220 C   0  0  0  0  0  0  0  0  0  0  0  0
  140.8870   70.9290  224.5560 C   0  0  0  0  0  0  0  0  0  0  0  0
  141.9213   71.2993  224.6116 H   0  0  0  0  0  0  0  0  0  0  0  0
  140.5350   69.7500  225.2160 C   0  0  0  0  0  0  0  0  0  0  0  0
  141.2891   69.2019  225.7998 H   0  0  0  0  0  0  0  0  0  0  0  0
  139.2170   69.2610  225.1360 C   0  0  0  0  0  0  0  0  0  0  0  0
  138.8140   68.0820  225.7820 O   0  0  0  0  0  0  0  0  0  0  0  0
  139.5440   67.4470  226.8260 C   0  0  0  0  0  0  0  0  0  0  0  0
  139.1581   67.7826  227.7999 H   0  0  0  0  0  0  0  0  0  0  0  0
  139.4296   66.3562  226.7425 H   0  0  0  0  0  0  0  0  0  0  0  0
  140.6085   67.7115  226.7425 H   0  0  0  0  0  0  0  0  0  0  0  0
  138.2690   69.9650  224.3860 C   0  0  0  0  0  0  0  0  0  0  0  0
  137.2392   69.5846  224.3168 H   0  0  0  0  0  0  0  0  0  0  0  0
  138.6180   71.1560  223.7180 C   0  0  0  0  0  0  0  0  0  0  0  0
  137.6910   71.8860  222.9570 O   0  0  0  0  0  0  0  0  0  0  0  0
  136.3660   72.1920  223.3730 C   0  0  0  0  0  0  0  0  0  0  0  0
  136.3200   72.2026  224.4720 H   0  0  0  0  0  0  0  0  0  0  0  0
  136.0787   73.1801  222.9844 H   0  0  0  0  0  0  0  0  0  0  0  0
  135.6745   71.4299  222.9844 H   0  0  0  0  0  0  0  0  0  0  0  0
  141.2700   73.7730  221.1420 C   0  0  0  0  0  0  0  0  0  0  0  0
  142.5310   73.1780  220.9650 C   0  0  0  0  0  0  0  0  0  0  0  0
  142.6919   72.1363  221.2795 H   0  0  0  0  0  0  0  0  0  0  0  0
  143.5810   73.8990  220.3930 C   0  0  0  0  0  0  0  0  0  0  0  0
  144.5637   73.4238  220.2567 H   0  0  0  0  0  0  0  0  0  0  0  0
  143.3850   75.2220  219.9940 C   0  0  0  0  0  0  0  0  0  0  0  0
  144.2183   75.7950  219.5612 H   0  0  0  0  0  0  0  0  0  0  0  0
  142.1320   75.8180  220.1440 C   0  0  0  0  0  0  0  0  0  0  0  0
  141.9858   76.8634  219.8345 H   0  0  0  0  0  0  0  0  0  0  0  0
  141.0580   75.0980  220.6850 C   0  0  0  0  0  0  0  0  0  0  0  0
  139.7750   75.7460  220.7430 N   0  0  0  0  0  0  0  0  0  0  0  0
  138.8810   75.8020  221.8650 C   0  0  0  0  0  0  0  0  0  0  0  0
  138.0930   74.6800  222.1220 O   0  0  0  0  0  0  0  0  0  0  0  0
  138.4460   73.8770  222.6300 H   0  0  0  0  0  0  0  0  0  0  0  0
  138.8000   76.8670  222.6850 C   0  0  0  0  0  0  0  0  0  0  0  0
  138.1186   76.7907  223.5452 H   0  0  0  0  0  0  0  0  0  0  0  0
  139.5650   78.1540  222.5220 C   0  0  0  0  0  0  0  0  0  0  0  0
  139.1700   78.8958  223.2318 H   0  0  0  0  0  0  0  0  0  0  0  0
  139.4419   78.4968  221.4841 H   0  0  0  0  0  0  0  0  0  0  0  0
  141.0570   77.9620  222.7860 C   0  0  0  0  0  0  0  0  0  0  0  0
  141.2374   77.9388  223.8709 H   0  0  0  0  0  0  0  0  0  0  0  0
  141.3895   77.0137  222.3386 H   0  0  0  0  0  0  0  0  0  0  0  0
  141.6187   78.7953  222.3386 H   0  0  0  0  0  0  0  0  0  0  0  0
  1  2  1  0
  2  3  1  0
  3  4  2  0
  4  5  1  0
  5  6  2  0
  6  7  1  0
  6  8  1  0
  8  9  1  0
  8 10  2  0
 10 11  1  0
 11 12  1  0
 12 13  1  0
 12 14  1  0
 12 15  1  0
 10 16  1  0
 16 17  1  0
 16 18  2  0
 18 19  1  0
 19 20  1  0
 20 21  1  0
 20 22  1  0
 20 23  1  0
  3 24  1  0
 24 25  2  0
 25 26  1  0
 25 27  1  0
 27 28  1  0
 27 29  2  0
 29 30  1  0
 29 31  1  0
 31 32  1  0
 31 33  2  0
 33 34  1  0
 34 35  1  0
 35 36  1  0
 36 37  1  0
 35 38  2  0
 38 39  1  0
 38 40  1  0
 40 41  1  0
 40 42  1  0
 40 43  1  0
 43 44  1  0
 43 45  1  0
 43 46  1  0
 18  5  1  0
 33 24  1  0
M  CHG  1  34  -1
M  END
>  <UniqueID>  (33) 
10

>  <SMILES>  (33) 
CC/C=C(/O)[N-]c1ccccc1/C(O)=N/c1ccc(OC)cc1OC

>  <Energy>  (33) 
61.481365850089105

>  <Genealogy>  (33) 
CCCC(=O)[N-]c1ccccc1C(=O)Nc1ccc(OC)cc1OC (protonated)
CCC=C(O)[N-]c1ccccc1C(O)=Nc1ccc(OC)cc1OC (tautomer)
CC/C=C(/O)[N-]c1ccccc1/C(O)=N/c1ccc(OC)cc1OC (cis-trans isomerization)
CC/C=C(/O)[N-]c1ccccc1/C(O)=N/c1ccc(OC)cc1OC (3D coordinates assigned)
CC/C=C(/O)[N-]c1ccccc1/C(O)=N/c1ccc(OC)cc1OC (optimized conformer: 61.481365850089105 kcal/mol)

>  <smiles>  (33) 
CCCC(=O)Nc1ccccc1C(=O)Nc1ccc(OC)cc1OC

>  <score_type>  (33) 
oracle

>  <origin>  (33) 
autodockgpu

>  <m_score__min__energy>  (33) 
-5.0300000000000002

>  <m_primary>  (33) 
energy

>  <meeko>  (33) 
{"free_energy": -3.69, "intermolecular_energy": -6.97, "internal_energy": -3.89, "cluster_size": 8, "cluster_id": 1, "rank_in_cluster": 8}

>  <energy>  (33) 
-4.15

>  <cluster_rmsd>  (33) 
1.74

>  <rmsd>  (33) 
270.72

>  <cluster>  (33) 
2

$$$$
CILLJEXPWJCFIZ-SPGWRTIFNA-N
     RDKit          3D

 46 47  0  0  0  0  0  0  0  0999 V2000
  140.0830   74.2290  222.1710 H   0  0  0  0  0  0  0  0  0  0  0  0
  139.8820   73.3540  222.6440 O   0  0  0  0  0  0  0  0  0  0  0  0
  140.6850   72.2250  222.4850 C   0  0  0  0  0  0  0  0  0  0  0  0
  140.9180   76.0690  219.8450 N   0  0  0  0  0  0  0  0  0  0  0  0
  141.1330   77.0910  220.8260 C   0  0  0  0  0  0  0  0  0  0  0  0
  141.9660   78.1860  220.5480 C   0  0  0  0  0  0  0  0  0  0  0  0
  142.4359   78.2790  219.5578 H   0  0  0  0  0  0  0  0  0  0  0  0
  142.2010   79.1580  221.5230 C   0  0  0  0  0  0  0  0  0  0  0  0
  142.8452   80.0198  221.2943 H   0  0  0  0  0  0  0  0  0  0  0  0
  141.6160   79.0380  222.7970 C   0  0  0  0  0  0  0  0  0  0  0  0
  141.8210   79.9890  223.8090 O   0  0  0  0  0  0  0  0  0  0  0  0
  142.9180   80.8950  223.8520 C   0  0  0  0  0  0  0  0  0  0  0  0
  143.1764   81.1084  224.8997 H   0  0  0  0  0  0  0  0  0  0  0  0
  143.7846   80.4459  223.3448 H   0  0  0  0  0  0  0  0  0  0  0  0
  142.6407   81.8309  223.3448 H   0  0  0  0  0  0  0  0  0  0  0  0
  140.8030   77.9350  223.0770 C   0  0  0  0  0  0  0  0  0  0  0  0
  140.3470   77.8349  224.0730 H   0  0  0  0  0  0  0  0  0  0  0  0
  140.5610   76.9500  222.0980 C   0  0  0  0  0  0  0  0  0  0  0  0
  139.7520   75.8300  222.3470 O   0  0  0  0  0  0  0  0  0  0  0  0
  138.3290   75.8440  222.3420 C   0  0  0  0  0  0  0  0  0  0  0  0
  137.9587   75.8476  223.3778 H   0  0  0  0  0  0  0  0  0  0  0  0
  137.9730   76.7457  221.8222 H   0  0  0  0  0  0  0  0  0  0  0  0
  137.9553   74.9495  221.8222 H   0  0  0  0  0  0  0  0  0  0  0  0
  142.3690   74.2260  220.3090 C   0  0  0  0  0  0  0  0  0  0  0  0
  143.5030   74.9990  220.0030 C   0  0  0  0  0  0  0  0  0  0  0  0
  143.3792   76.0253  219.6271 H   0  0  0  0  0  0  0  0  0  0  0  0
  144.7850   74.4730  220.1730 C   0  0  0  0  0  0  0  0  0  0  0  0
  145.6666   75.0856  219.9330 H   0  0  0  0  0  0  0  0  0  0  0  0
  144.9490   73.1710  220.6470 C   0  0  0  0  0  0  0  0  0  0  0  0
  145.9594   72.7518  220.7630 H   0  0  0  0  0  0  0  0  0  0  0  0
  143.8330   72.4000  220.9740 C   0  0  0  0  0  0  0  0  0  0  0  0
  143.9697   71.3714  221.3390 H   0  0  0  0  0  0  0  0  0  0  0  0
  142.5400   72.9230  220.8420 C   0  0  0  0  0  0  0  0  0  0  0  0
  141.4360   72.1050  221.2670 N   0  0  0  0  0  0  0  0  0  0  0  0
  140.7000   71.2850  223.4500 C   0  0  0  0  0  0  0  0  0  0  0  0
  139.9290   73.9320  220.0420 O   0  0  0  0  0  0  0  0  0  0  0  0
  139.9240   73.0380  220.5160 H   0  0  0  0  0  0  0  0  0  0  0  0
  141.0360   74.7880  220.0380 C   0  0  0  0  0  0  0  0  0  0  0  0
  141.1209   70.3023  223.1909 H   0  0  0  0  0  0  0  0  0  0  0  0
  140.1880   71.4690  224.8540 C   0  0  0  0  0  0  0  0  0  0  0  0
  139.3256   70.8039  225.0088 H   0  0  0  0  0  0  0  0  0  0  0  0
  139.9005   72.5235  224.9783 H   0  0  0  0  0  0  0  0  0  0  0  0
  141.2580   71.1420  225.8940 C   0  0  0  0  0  0  0  0  0  0  0  0
  140.8396   71.2699  226.9032 H   0  0  0  0  0  0  0  0  0  0  0  0
  141.5900   70.1014  225.7638 H   0  0  0  0  0  0  0  0  0  0  0  0
  142.1150   71.8193  225.7638 H   0  0  0  0  0  0  0  0  0  0  0  0
  1  2  1  0
  2  3  1  0
  3  4  2  0
  4  5  1  0
  5  6  2  0
  6  7  1  0
  6  8  1  0
  8  9  1  0
  8 10  2  0
 10 11  1  0
 11 12  1  0
 12 13  1  0
 12 14  1  0
 12 15  1  0
 10 16  1  0
 16 17  1  0
 16 18  2  0
 18 19  1  0
 19 20  1  0
 20 21  1  0
 20 22  1  0
 20 23  1  0
  3 24  1  0
 24 25  2  0
 25 26  1  0
 25 27  1  0
 27 28  1  0
 27 29  2  0
 29 30  1  0
 29 31  1  0
 31 32  1  0
 31 33  2  0
 33 34  1  0
 34 35  1  0
 35 36  1  0
 36 37  1  0
 35 38  2  0
 38 39  1  0
 38 40  1  0
 40 41  1  0
 40 42  1  0
 40 43  1  0
 43 44  1  0
 43 45  1  0
 43 46  1  0
 18  5  1  0
 33 24  1  0
M  CHG  1  34  -1
M  END
>  <UniqueID>  (34) 
10

>  <SMILES>  (34) 
CC/C=C(/O)[N-]c1ccccc1/C(O)=N/c1ccc(OC)cc1OC

>  <Energy>  (34) 
61.481365850089105

>  <Genealogy>  (34) 
CCCC(=O)[N-]c1ccccc1C(=O)Nc1ccc(OC)cc1OC (protonated)
CCC=C(O)[N-]c1ccccc1C(O)=Nc1ccc(OC)cc1OC (tautomer)
CC/C=C(/O)[N-]c1ccccc1/C(O)=N/c1ccc(OC)cc1OC (cis-trans isomerization)
CC/C=C(/O)[N-]c1ccccc1/C(O)=N/c1ccc(OC)cc1OC (3D coordinates assigned)
CC/C=C(/O)[N-]c1ccccc1/C(O)=N/c1ccc(OC)cc1OC (optimized conformer: 61.481365850089105 kcal/mol)

>  <smiles>  (34) 
CCCC(=O)Nc1ccccc1C(=O)Nc1ccc(OC)cc1OC

>  <score_type>  (34) 
oracle

>  <origin>  (34) 
autodockgpu

>  <m_score__min__energy>  (34) 
-5.0300000000000002

>  <m_primary>  (34) 
energy

>  <meeko>  (34) 
{"free_energy": -4.12, "intermolecular_energy": -7.41, "internal_energy": -3.88, "cluster_size": 8, "cluster_id": 2, "rank_in_cluster": 7}

>  <energy>  (34) 
-4.13

>  <cluster_rmsd>  (34) 
1.75

>  <rmsd>  (34) 
270.72

>  <cluster>  (34) 
2

$$$$
CILLJEXPWJCFIZ-SPGWRTIFNA-N
     RDKit          3D

 46 47  0  0  0  0  0  0  0  0999 V2000
  139.2200   74.2660  222.7260 H   0  0  0  0  0  0  0  0  0  0  0  0
  139.1940   73.2560  222.6920 O   0  0  0  0  0  0  0  0  0  0  0  0
  140.3160   72.4710  222.4050 C   0  0  0  0  0  0  0  0  0  0  0  0
  140.4370   71.2520  222.8440 N   0  0  0  0  0  0  0  0  0  0  0  0
  140.3380   70.8370  224.2120 C   0  0  0  0  0  0  0  0  0  0  0  0
  141.0400   71.5160  225.2190 C   0  0  0  0  0  0  0  0  0  0  0  0
  141.6497   72.3951  224.9632 H   0  0  0  0  0  0  0  0  0  0  0  0
  140.9690   71.0820  226.5440 C   0  0  0  0  0  0  0  0  0  0  0  0
  141.5121   71.6274  227.3298 H   0  0  0  0  0  0  0  0  0  0  0  0
  140.2040   69.9480  226.8770 C   0  0  0  0  0  0  0  0  0  0  0  0
  140.1000   69.4730  228.1930 O   0  0  0  0  0  0  0  0  0  0  0  0
  140.8350   68.3690  228.7110 C   0  0  0  0  0  0  0  0  0  0  0  0
  140.8152   68.3988  229.8104 H   0  0  0  0  0  0  0  0  0  0  0  0
  140.3812   67.4299  228.3614 H   0  0  0  0  0  0  0  0  0  0  0  0
  141.8764   68.4254  228.3614 H   0  0  0  0  0  0  0  0  0  0  0  0
  139.5230   69.2600  225.8670 C   0  0  0  0  0  0  0  0  0  0  0  0
  138.9284   68.3702  226.1211 H   0  0  0  0  0  0  0  0  0  0  0  0
  139.5900   69.6940  224.5270 C   0  0  0  0  0  0  0  0  0  0  0  0
  138.9200   69.0250  223.4910 O   0  0  0  0  0  0  0  0  0  0  0  0
  137.7100   69.4730  222.8900 C   0  0  0  0  0  0  0  0  0  0  0  0
  136.9877   69.7404  223.6753 H   0  0  0  0  0  0  0  0  0  0  0  0
  137.9155   70.3547  222.2651 H   0  0  0  0  0  0  0  0  0  0  0  0
  137.2918   68.6701  222.2651 H   0  0  0  0  0  0  0  0  0  0  0  0
  141.3670   73.0250  221.5380 C   0  0  0  0  0  0  0  0  0  0  0  0
  142.4810   72.2250  221.2290 C   0  0  0  0  0  0  0  0  0  0  0  0
  142.5215   71.1850  221.5850 H   0  0  0  0  0  0  0  0  0  0  0  0
  143.5360   72.7400  220.4740 C   0  0  0  0  0  0  0  0  0  0  0  0
  144.4026   72.1057  220.2360 H   0  0  0  0  0  0  0  0  0  0  0  0
  143.4920   74.0590  220.0210 C   0  0  0  0  0  0  0  0  0  0  0  0
  144.3323   74.4688  219.4414 H   0  0  0  0  0  0  0  0  0  0  0  0
  142.3840   74.8590  220.3020 C   0  0  0  0  0  0  0  0  0  0  0  0
  142.3606   75.9006  219.9491 H   0  0  0  0  0  0  0  0  0  0  0  0
  141.3000   74.3480  221.0300 C   0  0  0  0  0  0  0  0  0  0  0  0
  140.1570   75.1980  221.2210 N   0  0  0  0  0  0  0  0  0  0  0  0
  139.9920   76.2210  222.2150 C   0  0  0  0  0  0  0  0  0  0  0  0
  138.8940   76.1250  223.0690 O   0  0  0  0  0  0  0  0  0  0  0  0
  138.4690   75.2340  223.3030 H   0  0  0  0  0  0  0  0  0  0  0  0
  140.8630   77.2370  222.3730 C   0  0  0  0  0  0  0  0  0  0  0  0
  141.8795   77.0963  221.9768 H   0  0  0  0  0  0  0  0  0  0  0  0
  140.5600   78.5490  223.0470 C   0  0  0  0  0  0  0  0  0  0  0  0
  139.7644   78.3923  223.7903 H   0  0  0  0  0  0  0  0  0  0  0  0
  140.2433   79.2655  222.2748 H   0  0  0  0  0  0  0  0  0  0  0  0
  141.7890   79.1210  223.7510 C   0  0  0  0  0  0  0  0  0  0  0  0
  141.6507   79.0566  224.8404 H   0  0  0  0  0  0  0  0  0  0  0  0
  142.6797   78.5449  223.4598 H   0  0  0  0  0  0  0  0  0  0  0  0
  141.9217   80.1734  223.4598 H   0  0  0  0  0  0  0  0  0  0  0  0
  1  2  1  0
  2  3  1  0
  3  4  2  0
  4  5  1  0
  5  6  2  0
  6  7  1  0
  6  8  1  0
  8  9  1  0
  8 10  2  0
 10 11  1  0
 11 12  1  0
 12 13  1  0
 12 14  1  0
 12 15  1  0
 10 16  1  0
 16 17  1  0
 16 18  2  0
 18 19  1  0
 19 20  1  0
 20 21  1  0
 20 22  1  0
 20 23  1  0
  3 24  1  0
 24 25  2  0
 25 26  1  0
 25 27  1  0
 27 28  1  0
 27 29  2  0
 29 30  1  0
 29 31  1  0
 31 32  1  0
 31 33  2  0
 33 34  1  0
 34 35  1  0
 35 36  1  0
 36 37  1  0
 35 38  2  0
 38 39  1  0
 38 40  1  0
 40 41  1  0
 40 42  1  0
 40 43  1  0
 43 44  1  0
 43 45  1  0
 43 46  1  0
 18  5  1  0
 33 24  1  0
M  CHG  1  34  -1
M  END
>  <UniqueID>  (35) 
10

>  <SMILES>  (35) 
CC/C=C(/O)[N-]c1ccccc1/C(O)=N/c1ccc(OC)cc1OC

>  <Energy>  (35) 
61.481365850089105

>  <Genealogy>  (35) 
CCCC(=O)[N-]c1ccccc1C(=O)Nc1ccc(OC)cc1OC (protonated)
CCC=C(O)[N-]c1ccccc1C(O)=Nc1ccc(OC)cc1OC (tautomer)
CC/C=C(/O)[N-]c1ccccc1/C(O)=N/c1ccc(OC)cc1OC (cis-trans isomerization)
CC/C=C(/O)[N-]c1ccccc1/C(O)=N/c1ccc(OC)cc1OC (3D coordinates assigned)
CC/C=C(/O)[N-]c1ccccc1/C(O)=N/c1ccc(OC)cc1OC (optimized conformer: 61.481365850089105 kcal/mol)

>  <smiles>  (35) 
CCCC(=O)Nc1ccccc1C(=O)Nc1ccc(OC)cc1OC

>  <score_type>  (35) 
oracle

>  <origin>  (35) 
autodockgpu

>  <m_score__min__energy>  (35) 
-5.0300000000000002

>  <m_primary>  (35) 
energy

>  <meeko>  (35) 
{"free_energy": -5.03, "intermolecular_energy": -8.31, "internal_energy": -2.66, "cluster_size": 8, "cluster_id": 1, "rank_in_cluster": 1}

>  <energy>  (35) 
-4.12

>  <cluster_rmsd>  (35) 
1.75

>  <rmsd>  (35) 
270.73

>  <cluster>  (35) 
2

$$$$
CILLJEXPWJCFIZ-SPGWRTIFNA-N
     RDKit          3D

 46 47  0  0  0  0  0  0  0  0999 V2000
  138.0470   73.5900  222.8030 H   0  0  0  0  0  0  0  0  0  0  0  0
  138.0660   72.5960  222.6170 O   0  0  0  0  0  0  0  0  0  0  0  0
  139.2500   71.8530  222.5560 C   0  0  0  0  0  0  0  0  0  0  0  0
  139.3550   70.6750  223.1000 N   0  0  0  0  0  0  0  0  0  0  0  0
  139.8040   70.4000  224.4320 C   0  0  0  0  0  0  0  0  0  0  0  0
  140.6990   71.2660  225.0790 C   0  0  0  0  0  0  0  0  0  0  0  0
  141.0375   72.1817  224.5721 H   0  0  0  0  0  0  0  0  0  0  0  0
  141.1620   70.9710  226.3630 C   0  0  0  0  0  0  0  0  0  0  0  0
  141.8536   71.6609  226.8687 H   0  0  0  0  0  0  0  0  0  0  0  0
  140.7460   69.7930  227.0120 C   0  0  0  0  0  0  0  0  0  0  0  0
  141.1820   69.4530  228.3020 O   0  0  0  0  0  0  0  0  0  0  0  0
  141.1150   68.1430  228.8550 C   0  0  0  0  0  0  0  0  0  0  0  0
  141.1183   68.2079  229.9531 H   0  0  0  0  0  0  0  0  0  0  0  0
  140.1905   67.6503  228.5196 H   0  0  0  0  0  0  0  0  0  0  0  0
  141.9844   67.5585  228.5196 H   0  0  0  0  0  0  0  0  0  0  0  0
  139.8700   68.9210  226.3550 C   0  0  0  0  0  0  0  0  0  0  0  0
  139.5457   67.9967  226.8554 H   0  0  0  0  0  0  0  0  0  0  0  0
  139.3990   69.2140  225.0600 C   0  0  0  0  0  0  0  0  0  0  0  0
  138.5200   68.3600  224.3730 O   0  0  0  0  0  0  0  0  0  0  0  0
  138.8060   67.7400  223.1250 C   0  0  0  0  0  0  0  0  0  0  0  0
  139.2608   66.7540  223.3011 H   0  0  0  0  0  0  0  0  0  0  0  0
  137.8736   67.6171  222.5544 H   0  0  0  0  0  0  0  0  0  0  0  0
  139.5047   68.3695  222.5544 H   0  0  0  0  0  0  0  0  0  0  0  0
  140.3950   72.4000  221.8130 C   0  0  0  0  0  0  0  0  0  0  0  0
  141.2570   71.5110  221.1480 C   0  0  0  0  0  0  0  0  0  0  0  0
  141.0315   70.4344  221.1413 H   0  0  0  0  0  0  0  0  0  0  0  0
  142.3970   71.9840  220.4960 C   0  0  0  0  0  0  0  0  0  0  0  0
  143.0645   71.2805  219.9768 H   0  0  0  0  0  0  0  0  0  0  0  0
  142.6910   73.3480  220.5020 C   0  0  0  0  0  0  0  0  0  0  0  0
  143.5997   73.7166  220.0035 H   0  0  0  0  0  0  0  0  0  0  0  0
  141.8330   74.2450  221.1400 C   0  0  0  0  0  0  0  0  0  0  0  0
  142.0748   75.3181  221.1478 H   0  0  0  0  0  0  0  0  0  0  0  0
  140.6660   73.7920  221.7710 C   0  0  0  0  0  0  0  0  0  0  0  0
  139.7860   74.7740  222.3450 N   0  0  0  0  0  0  0  0  0  0  0  0
  138.8250   75.5870  221.6550 C   0  0  0  0  0  0  0  0  0  0  0  0
  137.6520   74.9730  221.2150 O   0  0  0  0  0  0  0  0  0  0  0  0
  137.6000   73.9760  221.0370 H   0  0  0  0  0  0  0  0  0  0  0  0
  138.9950   76.9080  221.4500 C   0  0  0  0  0  0  0  0  0  0  0  0
  138.6973   77.3089  220.4699 H   0  0  0  0  0  0  0  0  0  0  0  0
  139.5590   77.8810  222.4520 C   0  0  0  0  0  0  0  0  0  0  0  0
  139.1832   77.6204  223.4524 H   0  0  0  0  0  0  0  0  0  0  0  0
  139.2412   78.8936  222.1629 H   0  0  0  0  0  0  0  0  0  0  0  0
  141.0860   77.8490  222.4730 C   0  0  0  0  0  0  0  0  0  0  0  0
  141.4383   77.8416  223.5150 H   0  0  0  0  0  0  0  0  0  0  0  0
  141.4409   76.9432  221.9596 H   0  0  0  0  0  0  0  0  0  0  0  0
  141.4785   78.7391  221.9596 H   0  0  0  0  0  0  0  0  0  0  0  0
  1  2  1  0
  2  3  1  0
  3  4  2  0
  4  5  1  0
  5  6  2  0
  6  7  1  0
  6  8  1  0
  8  9  1  0
  8 10  2  0
 10 11  1  0
 11 12  1  0
 12 13  1  0
 12 14  1  0
 12 15  1  0
 10 16  1  0
 16 17  1  0
 16 18  2  0
 18 19  1  0
 19 20  1  0
 20 21  1  0
 20 22  1  0
 20 23  1  0
  3 24  1  0
 24 25  2  0
 25 26  1  0
 25 27  1  0
 27 28  1  0
 27 29  2  0
 29 30  1  0
 29 31  1  0
 31 32  1  0
 31 33  2  0
 33 34  1  0
 34 35  1  0
 35 36  1  0
 36 37  1  0
 35 38  2  0
 38 39  1  0
 38 40  1  0
 40 41  1  0
 40 42  1  0
 40 43  1  0
 43 44  1  0
 43 45  1  0
 43 46  1  0
 18  5  1  0
 33 24  1  0
M  CHG  1  34  -1
M  END
>  <UniqueID>  (36) 
10

>  <SMILES>  (36) 
CC/C=C(/O)[N-]c1ccccc1/C(O)=N/c1ccc(OC)cc1OC

>  <Energy>  (36) 
61.481365850089105

>  <Genealogy>  (36) 
CCCC(=O)[N-]c1ccccc1C(=O)Nc1ccc(OC)cc1OC (protonated)
CCC=C(O)[N-]c1ccccc1C(O)=Nc1ccc(OC)cc1OC (tautomer)
CC/C=C(/O)[N-]c1ccccc1/C(O)=N/c1ccc(OC)cc1OC (cis-trans isomerization)
CC/C=C(/O)[N-]c1ccccc1/C(O)=N/c1ccc(OC)cc1OC (3D coordinates assigned)
CC/C=C(/O)[N-]c1ccccc1/C(O)=N/c1ccc(OC)cc1OC (optimized conformer: 61.481365850089105 kcal/mol)

>  <smiles>  (36) 
CCCC(=O)Nc1ccccc1C(=O)Nc1ccc(OC)cc1OC

>  <score_type>  (36) 
oracle

>  <origin>  (36) 
autodockgpu

>  <m_score__min__energy>  (36) 
-5.0300000000000002

>  <m_primary>  (36) 
energy

>  <meeko>  (36) 
{"free_energy": -4.32, "intermolecular_energy": -7.61, "internal_energy": -3.05, "cluster_size": 8, "cluster_id": 1, "rank_in_cluster": 7}

>  <energy>  (36) 
-3.66

>  <cluster_rmsd>  (36) 
1.5

>  <rmsd>  (36) 
270.52

>  <cluster>  (36) 
2

$$$$
CILLJEXPWJCFIZ-SPGWRTIFNA-N
     RDKit          3D

 46 47  0  0  0  0  0  0  0  0999 V2000
  138.5140   73.4200  222.7600 H   0  0  0  0  0  0  0  0  0  0  0  0
  138.4430   72.4120  222.7210 O   0  0  0  0  0  0  0  0  0  0  0  0
  139.5450   71.5760  222.5120 C   0  0  0  0  0  0  0  0  0  0  0  0
  139.6140   70.3820  223.0250 N   0  0  0  0  0  0  0  0  0  0  0  0
  139.8060   70.0710  224.4100 C   0  0  0  0  0  0  0  0  0  0  0  0
  140.6390   70.8650  225.2130 C   0  0  0  0  0  0  0  0  0  0  0  0
  141.1269   71.7530  224.7847 H   0  0  0  0  0  0  0  0  0  0  0  0
  140.8520   70.5340  226.5530 C   0  0  0  0  0  0  0  0  0  0  0  0
  141.4955   71.1692  227.1795 H   0  0  0  0  0  0  0  0  0  0  0  0
  140.2450   69.3890  227.1040 C   0  0  0  0  0  0  0  0  0  0  0  0
  140.4270   69.0140  228.4430 O   0  0  0  0  0  0  0  0  0  0  0  0
  141.4390   68.1230  228.9000 C   0  0  0  0  0  0  0  0  0  0  0  0
  141.4498   68.1135  229.9999 H   0  0  0  0  0  0  0  0  0  0  0  0
  141.2311   67.1094  228.5266 H   0  0  0  0  0  0  0  0  0  0  0  0
  142.4181   68.4576  228.5266 H   0  0  0  0  0  0  0  0  0  0  0  0
  139.4330   68.5870  226.2940 C   0  0  0  0  0  0  0  0  0  0  0  0
  138.9602   67.6888  226.7179 H   0  0  0  0  0  0  0  0  0  0  0  0
  139.2140   68.9170  224.9410 C   0  0  0  0  0  0  0  0  0  0  0  0
  138.4050   68.1330  224.1020 O   0  0  0  0  0  0  0  0  0  0  0  0
  138.8570   67.4870  222.9180 C   0  0  0  0  0  0  0  0  0  0  0  0
  139.4684   66.6132  223.1876 H   0  0  0  0  0  0  0  0  0  0  0  0
  137.9902   67.1592  222.3254 H   0  0  0  0  0  0  0  0  0  0  0  0
  139.4620   68.1890  222.3254 H   0  0  0  0  0  0  0  0  0  0  0  0
  140.6370   72.0440  221.6450 C   0  0  0  0  0  0  0  0  0  0  0  0
  141.3120   71.1080  220.8410 C   0  0  0  0  0  0  0  0  0  0  0  0
  140.9777   70.0601  220.8252 H   0  0  0  0  0  0  0  0  0  0  0  0
  142.4030   71.4990  220.0630 C   0  0  0  0  0  0  0  0  0  0  0  0
  142.9230   70.7601  219.4356 H   0  0  0  0  0  0  0  0  0  0  0  0
  142.8350   72.8260  220.0800 C   0  0  0  0  0  0  0  0  0  0  0  0
  143.7065   73.1280  219.4806 H   0  0  0  0  0  0  0  0  0  0  0  0
  142.1620   73.7700  220.8570 C   0  0  0  0  0  0  0  0  0  0  0  0
  142.5126   74.8125  220.8722 H   0  0  0  0  0  0  0  0  0  0  0  0
  141.0440   73.4030  221.6180 C   0  0  0  0  0  0  0  0  0  0  0  0
  140.3500   74.4370  222.3370 N   0  0  0  0  0  0  0  0  0  0  0  0
  139.3460   75.3270  221.8250 C   0  0  0  0  0  0  0  0  0  0  0  0
  138.0100   74.9970  222.0530 O   0  0  0  0  0  0  0  0  0  0  0  0
  137.7160   74.4670  222.8660 H   0  0  0  0  0  0  0  0  0  0  0  0
  139.6420   76.4680  221.1730 C   0  0  0  0  0  0  0  0  0  0  0  0
  138.8893   76.8585  220.4723 H   0  0  0  0  0  0  0  0  0  0  0  0
  140.9180   77.2530  221.3240 C   0  0  0  0  0  0  0  0  0  0  0  0
  140.9331   78.0563  220.5727 H   0  0  0  0  0  0  0  0  0  0  0  0
  141.7630   76.5633  221.1817 H   0  0  0  0  0  0  0  0  0  0  0  0
  141.0400   77.8740  222.7150 C   0  0  0  0  0  0  0  0  0  0  0  0
  140.8873   77.0967  223.4782 H   0  0  0  0  0  0  0  0  0  0  0  0
  142.0415   78.3130  222.8340 H   0  0  0  0  0  0  0  0  0  0  0  0
  140.2789   78.6593  222.8340 H   0  0  0  0  0  0  0  0  0  0  0  0
  1  2  1  0
  2  3  1  0
  3  4  2  0
  4  5  1  0
  5  6  2  0
  6  7  1  0
  6  8  1  0
  8  9  1  0
  8 10  2  0
 10 11  1  0
 11 12  1  0
 12 13  1  0
 12 14  1  0
 12 15  1  0
 10 16  1  0
 16 17  1  0
 16 18  2  0
 18 19  1  0
 19 20  1  0
 20 21  1  0
 20 22  1  0
 20 23  1  0
  3 24  1  0
 24 25  2  0
 25 26  1  0
 25 27  1  0
 27 28  1  0
 27 29  2  0
 29 30  1  0
 29 31  1  0
 31 32  1  0
 31 33  2  0
 33 34  1  0
 34 35  1  0
 35 36  1  0
 36 37  1  0
 35 38  2  0
 38 39  1  0
 38 40  1  0
 40 41  1  0
 40 42  1  0
 40 43  1  0
 43 44  1  0
 43 45  1  0
 43 46  1  0
 18  5  1  0
 33 24  1  0
M  CHG  1  34  -1
M  END
>  <UniqueID>  (37) 
10

>  <SMILES>  (37) 
CC/C=C(/O)[N-]c1ccccc1/C(O)=N/c1ccc(OC)cc1OC

>  <Energy>  (37) 
61.481365850089105

>  <Genealogy>  (37) 
CCCC(=O)[N-]c1ccccc1C(=O)Nc1ccc(OC)cc1OC (protonated)
CCC=C(O)[N-]c1ccccc1C(O)=Nc1ccc(OC)cc1OC (tautomer)
CC/C=C(/O)[N-]c1ccccc1/C(O)=N/c1ccc(OC)cc1OC (cis-trans isomerization)
CC/C=C(/O)[N-]c1ccccc1/C(O)=N/c1ccc(OC)cc1OC (3D coordinates assigned)
CC/C=C(/O)[N-]c1ccccc1/C(O)=N/c1ccc(OC)cc1OC (optimized conformer: 61.481365850089105 kcal/mol)

>  <smiles>  (37) 
CCCC(=O)Nc1ccccc1C(=O)Nc1ccc(OC)cc1OC

>  <score_type>  (37) 
oracle

>  <origin>  (37) 
autodockgpu

>  <m_score__min__energy>  (37) 
-5.0300000000000002

>  <m_primary>  (37) 
energy

>  <meeko>  (37) 
{"free_energy": -4.85, "intermolecular_energy": -8.13, "internal_energy": -2.81, "cluster_size": 8, "cluster_id": 1, "rank_in_cluster": 5}

>  <energy>  (37) 
-3.9

>  <cluster_rmsd>  (37) 
0.0

>  <rmsd>  (37) 
270.05

>  <cluster>  (37) 
3

$$$$
CILLJEXPWJCFIZ-SPGWRTIFNA-N
     RDKit          3D

 46 47  0  0  0  0  0  0  0  0999 V2000
  140.1380   74.2390  222.2230 H   0  0  0  0  0  0  0  0  0  0  0  0
  139.9520   73.3740  222.7190 O   0  0  0  0  0  0  0  0  0  0  0  0
  140.6990   72.2170  222.4970 C   0  0  0  0  0  0  0  0  0  0  0  0
  140.9390   76.1040  219.8720 N   0  0  0  0  0  0  0  0  0  0  0  0
  141.1370   77.1310  220.8510 C   0  0  0  0  0  0  0  0  0  0  0  0
  141.9480   78.2410  220.5700 C   0  0  0  0  0  0  0  0  0  0  0  0
  142.4128   78.3420  219.5782 H   0  0  0  0  0  0  0  0  0  0  0  0
  142.1680   79.2180  221.5430 C   0  0  0  0  0  0  0  0  0  0  0  0
  142.7952   80.0915  221.3114 H   0  0  0  0  0  0  0  0  0  0  0  0
  141.5890   79.0880  222.8200 C   0  0  0  0  0  0  0  0  0  0  0  0
  141.7790   80.0430  223.8310 O   0  0  0  0  0  0  0  0  0  0  0  0
  142.9180   80.8900  223.9330 C   0  0  0  0  0  0  0  0  0  0  0  0
  143.1518   81.0639  224.9937 H   0  0  0  0  0  0  0  0  0  0  0  0
  143.7772   80.4097  223.4421 H   0  0  0  0  0  0  0  0  0  0  0  0
  142.7054   81.8511  223.4421 H   0  0  0  0  0  0  0  0  0  0  0  0
  140.7990   77.9690  223.1030 C   0  0  0  0  0  0  0  0  0  0  0  0
  140.3486   77.8601  224.1006 H   0  0  0  0  0  0  0  0  0  0  0  0
  140.5730   76.9790  222.1250 C   0  0  0  0  0  0  0  0  0  0  0  0
  139.7860   75.8440  222.3780 O   0  0  0  0  0  0  0  0  0  0  0  0
  138.3640   75.8250  222.3520 C   0  0  0  0  0  0  0  0  0  0  0  0
  137.9785   75.8198  223.3822 H   0  0  0  0  0  0  0  0  0  0  0  0
  137.9949   76.7183  221.8268 H   0  0  0  0  0  0  0  0  0  0  0  0
  138.0189   74.9222  221.8268 H   0  0  0  0  0  0  0  0  0  0  0  0
  142.3780   74.2530  220.3380 C   0  0  0  0  0  0  0  0  0  0  0  0
  143.5160   75.0250  220.0430 C   0  0  0  0  0  0  0  0  0  0  0  0
  143.3967   76.0566  219.6803 H   0  0  0  0  0  0  0  0  0  0  0  0
  144.7960   74.4920  220.2070 C   0  0  0  0  0  0  0  0  0  0  0  0
  145.6800   75.1044  219.9755 H   0  0  0  0  0  0  0  0  0  0  0  0
  144.9550   73.1840  220.6640 C   0  0  0  0  0  0  0  0  0  0  0  0
  145.9637   72.7594  220.7748 H   0  0  0  0  0  0  0  0  0  0  0  0
  143.8350   72.4130  220.9810 C   0  0  0  0  0  0  0  0  0  0  0  0
  143.9674   71.3793  221.3331 H   0  0  0  0  0  0  0  0  0  0  0  0
  142.5440   72.9430  220.8550 C   0  0  0  0  0  0  0  0  0  0  0  0
  141.4370   72.1240  221.2690 N   0  0  0  0  0  0  0  0  0  0  0  0
  140.6740   71.2300  223.4130 C   0  0  0  0  0  0  0  0  0  0  0  0
  139.9350   73.9770  220.0930 O   0  0  0  0  0  0  0  0  0  0  0  0
  139.9240   73.0900  220.5790 H   0  0  0  0  0  0  0  0  0  0  0  0
  141.0480   74.8230  220.0740 C   0  0  0  0  0  0  0  0  0  0  0  0
  141.1651   70.2823  223.1473 H   0  0  0  0  0  0  0  0  0  0  0  0
  140.0290   71.3170  224.7710 C   0  0  0  0  0  0  0  0  0  0  0  0
  139.4300   70.4100  224.9398 H   0  0  0  0  0  0  0  0  0  0  0  0
  139.3970   72.2170  224.7930 H   0  0  0  0  0  0  0  0  0  0  0  0
  141.0680   71.4380  225.8840 C   0  0  0  0  0  0  0  0  0  0  0  0
  140.5668   71.3796  226.8614 H   0  0  0  0  0  0  0  0  0  0  0  0
  141.7966   70.6186  225.7961 H   0  0  0  0  0  0  0  0  0  0  0  0
  141.5888   72.4029  225.7961 H   0  0  0  0  0  0  0  0  0  0  0  0
  1  2  1  0
  2  3  1  0
  3  4  2  0
  4  5  1  0
  5  6  2  0
  6  7  1  0
  6  8  1  0
  8  9  1  0
  8 10  2  0
 10 11  1  0
 11 12  1  0
 12 13  1  0
 12 14  1  0
 12 15  1  0
 10 16  1  0
 16 17  1  0
 16 18  2  0
 18 19  1  0
 19 20  1  0
 20 21  1  0
 20 22  1  0
 20 23  1  0
  3 24  1  0
 24 25  2  0
 25 26  1  0
 25 27  1  0
 27 28  1  0
 27 29  2  0
 29 30  1  0
 29 31  1  0
 31 32  1  0
 31 33  2  0
 33 34  1  0
 34 35  1  0
 35 36  1  0
 36 37  1  0
 35 38  2  0
 38 39  1  0
 38 40  1  0
 40 41  1  0
 40 42  1  0
 40 43  1  0
 43 44  1  0
 43 45  1  0
 43 46  1  0
 18  5  1  0
 33 24  1  0
M  CHG  1  34  -1
M  END
>  <UniqueID>  (38) 
10

>  <SMILES>  (38) 
CC/C=C(/O)[N-]c1ccccc1/C(O)=N/c1ccc(OC)cc1OC

>  <Energy>  (38) 
61.481365850089105

>  <Genealogy>  (38) 
CCCC(=O)[N-]c1ccccc1C(=O)Nc1ccc(OC)cc1OC (protonated)
CCC=C(O)[N-]c1ccccc1C(O)=Nc1ccc(OC)cc1OC (tautomer)
CC/C=C(/O)[N-]c1ccccc1/C(O)=N/c1ccc(OC)cc1OC (cis-trans isomerization)
CC/C=C(/O)[N-]c1ccccc1/C(O)=N/c1ccc(OC)cc1OC (3D coordinates assigned)
CC/C=C(/O)[N-]c1ccccc1/C(O)=N/c1ccc(OC)cc1OC (optimized conformer: 61.481365850089105 kcal/mol)

>  <smiles>  (38) 
CCCC(=O)Nc1ccccc1C(=O)Nc1ccc(OC)cc1OC

>  <score_type>  (38) 
oracle

>  <origin>  (38) 
autodockgpu

>  <m_score__min__energy>  (38) 
-5.0300000000000002

>  <m_primary>  (38) 
energy

>  <meeko>  (38) 
{"free_energy": -4.15, "intermolecular_energy": -7.43, "internal_energy": -3.86, "cluster_size": 8, "cluster_id": 2, "rank_in_cluster": 4}

>  <energy>  (38) 
-3.83

>  <cluster_rmsd>  (38) 
0.18

>  <rmsd>  (38) 
269.97

>  <cluster>  (38) 
3

$$$$
CILLJEXPWJCFIZ-SPGWRTIFNA-N
     RDKit          3D

 46 47  0  0  0  0  0  0  0  0999 V2000
  139.4180   74.4340  223.0990 H   0  0  0  0  0  0  0  0  0  0  0  0
  139.4370   75.3610  222.6950 O   0  0  0  0  0  0  0  0  0  0  0  0
  140.5180   75.8470  221.9510 C   0  0  0  0  0  0  0  0  0  0  0  0
  140.8040   77.1160  221.8970 N   0  0  0  0  0  0  0  0  0  0  0  0
  140.0910   78.1690  222.5560 C   0  0  0  0  0  0  0  0  0  0  0  0
  138.6910   78.2360  222.4890 C   0  0  0  0  0  0  0  0  0  0  0  0
  138.1310   77.4565  221.9516 H   0  0  0  0  0  0  0  0  0  0  0  0
  138.0050   79.2870  223.1010 C   0  0  0  0  0  0  0  0  0  0  0  0
  136.9067   79.3257  223.0547 H   0  0  0  0  0  0  0  0  0  0  0  0
  138.7150   80.2970  223.7770 C   0  0  0  0  0  0  0  0  0  0  0  0
  138.0720   81.3720  224.4090 O   0  0  0  0  0  0  0  0  0  0  0  0
  137.0740   81.2340  225.4150 C   0  0  0  0  0  0  0  0  0  0  0  0
  137.5429   81.2988  226.4080 H   0  0  0  0  0  0  0  0  0  0  0  0
  136.3310   82.0380  225.3071 H   0  0  0  0  0  0  0  0  0  0  0  0
  136.5771   80.2586  225.3071 H   0  0  0  0  0  0  0  0  0  0  0  0
  140.1120   80.2380  223.8240 C   0  0  0  0  0  0  0  0  0  0  0  0
  140.6722   81.0271  224.3469 H   0  0  0  0  0  0  0  0  0  0  0  0
  140.8100   79.1790  223.2090 C   0  0  0  0  0  0  0  0  0  0  0  0
  142.2110   79.0920  223.2370 O   0  0  0  0  0  0  0  0  0  0  0  0
  143.0940   80.1930  223.0530 C   0  0  0  0  0  0  0  0  0  0  0  0
  143.4054   80.5812  224.0340 H   0  0  0  0  0  0  0  0  0  0  0  0
  143.9802   79.8624  222.4914 H   0  0  0  0  0  0  0  0  0  0  0  0
  142.5789   80.9863  222.4914 H   0  0  0  0  0  0  0  0  0  0  0  0
  141.3840   74.8890  221.2480 C   0  0  0  0  0  0  0  0  0  0  0  0
  142.1820   75.3510  220.1860 C   0  0  0  0  0  0  0  0  0  0  0  0
  142.1939   76.4227  219.9383 H   0  0  0  0  0  0  0  0  0  0  0  0
  142.9590   74.4600  219.4440 C   0  0  0  0  0  0  0  0  0  0  0  0
  143.5808   74.8313  218.6161 H   0  0  0  0  0  0  0  0  0  0  0  0
  142.9480   73.0990  219.7510 C   0  0  0  0  0  0  0  0  0  0  0  0
  143.5475   72.3960  219.1540 H   0  0  0  0  0  0  0  0  0  0  0  0
  142.1770   72.6290  220.8150 C   0  0  0  0  0  0  0  0  0  0  0  0
  142.1654   71.5535  221.0457 H   0  0  0  0  0  0  0  0  0  0  0  0
  141.4170   73.5140  221.5930 C   0  0  0  0  0  0  0  0  0  0  0  0
  140.7050   72.9770  222.7210 N   0  0  0  0  0  0  0  0  0  0  0  0
  139.4840   72.2220  222.6980 C   0  0  0  0  0  0  0  0  0  0  0  0
  138.3160   72.8890  222.3310 O   0  0  0  0  0  0  0  0  0  0  0  0
  138.0090   73.7360  222.7970 H   0  0  0  0  0  0  0  0  0  0  0  0
  139.4320   70.9050  222.9800 C   0  0  0  0  0  0  0  0  0  0  0  0
  139.1859   70.2213  222.1542 H   0  0  0  0  0  0  0  0  0  0  0  0
  139.6830   70.2930  224.3320 C   0  0  0  0  0  0  0  0  0  0  0  0
  140.2500   69.3596  224.2009 H   0  0  0  0  0  0  0  0  0  0  0  0
  138.7096   70.1001  224.8067 H   0  0  0  0  0  0  0  0  0  0  0  0
  140.4770   71.2310  225.2390 C   0  0  0  0  0  0  0  0  0  0  0  0
  140.2697   70.9861  226.2912 H   0  0  0  0  0  0  0  0  0  0  0  0
  141.5521   71.1109  225.0395 H   0  0  0  0  0  0  0  0  0  0  0  0
  140.1810   72.2715  225.0395 H   0  0  0  0  0  0  0  0  0  0  0  0
  1  2  1  0
  2  3  1  0
  3  4  2  0
  4  5  1  0
  5  6  2  0
  6  7  1  0
  6  8  1  0
  8  9  1  0
  8 10  2  0
 10 11  1  0
 11 12  1  0
 12 13  1  0
 12 14  1  0
 12 15  1  0
 10 16  1  0
 16 17  1  0
 16 18  2  0
 18 19  1  0
 19 20  1  0
 20 21  1  0
 20 22  1  0
 20 23  1  0
  3 24  1  0
 24 25  2  0
 25 26  1  0
 25 27  1  0
 27 28  1  0
 27 29  2  0
 29 30  1  0
 29 31  1  0
 31 32  1  0
 31 33  2  0
 33 34  1  0
 34 35  1  0
 35 36  1  0
 36 37  1  0
 35 38  2  0
 38 39  1  0
 38 40  1  0
 40 41  1  0
 40 42  1  0
 40 43  1  0
 43 44  1  0
 43 45  1  0
 43 46  1  0
 18  5  1  0
 33 24  1  0
M  CHG  1  34  -1
M  END
>  <UniqueID>  (39) 
10

>  <SMILES>  (39) 
CC/C=C(/O)[N-]c1ccccc1/C(O)=N/c1ccc(OC)cc1OC

>  <Energy>  (39) 
61.481365850089105

>  <Genealogy>  (39) 
CCCC(=O)[N-]c1ccccc1C(=O)Nc1ccc(OC)cc1OC (protonated)
CCC=C(O)[N-]c1ccccc1C(O)=Nc1ccc(OC)cc1OC (tautomer)
CC/C=C(/O)[N-]c1ccccc1/C(O)=N/c1ccc(OC)cc1OC (cis-trans isomerization)
CC/C=C(/O)[N-]c1ccccc1/C(O)=N/c1ccc(OC)cc1OC (3D coordinates assigned)
CC/C=C(/O)[N-]c1ccccc1/C(O)=N/c1ccc(OC)cc1OC (optimized conformer: 61.481365850089105 kcal/mol)

>  <smiles>  (39) 
CCCC(=O)Nc1ccccc1C(=O)Nc1ccc(OC)cc1OC

>  <score_type>  (39) 
oracle

>  <origin>  (39) 
autodockgpu

>  <m_score__min__energy>  (39) 
-5.0300000000000002

>  <m_primary>  (39) 
energy

>  <meeko>  (39) 
{"free_energy": -4.84, "intermolecular_energy": -8.12, "internal_energy": -2.74, "cluster_size": 8, "cluster_id": 2, "rank_in_cluster": 1}

>  <energy>  (39) 
-3.5

>  <cluster_rmsd>  (39) 
0.0

>  <rmsd>  (39) 
271.3

>  <cluster>  (39) 
4

$$$$
CILLJEXPWJCFIZ-SPGWRTIFNA-N
     RDKit          3D

 46 47  0  0  0  0  0  0  0  0999 V2000
  138.3300   73.6420  222.7400 H   0  0  0  0  0  0  0  0  0  0  0  0
  138.2100   72.6370  222.7250 O   0  0  0  0  0  0  0  0  0  0  0  0
  139.2800   71.7430  222.6040 C   0  0  0  0  0  0  0  0  0  0  0  0
  139.2840   70.5870  223.2010 N   0  0  0  0  0  0  0  0  0  0  0  0
  139.7340   70.3310  224.5370 C   0  0  0  0  0  0  0  0  0  0  0  0
  140.5780   71.2390  225.1940 C   0  0  0  0  0  0  0  0  0  0  0  0
  140.8750   72.1716  224.6920 H   0  0  0  0  0  0  0  0  0  0  0  0
  141.0430   70.9650  226.4820 C   0  0  0  0  0  0  0  0  0  0  0  0
  141.6928   71.6884  226.9962 H   0  0  0  0  0  0  0  0  0  0  0  0
  140.6820   69.7650  227.1240 C   0  0  0  0  0  0  0  0  0  0  0  0
  141.1220   69.4440  228.4170 O   0  0  0  0  0  0  0  0  0  0  0  0
  141.0820   68.1380  228.9800 C   0  0  0  0  0  0  0  0  0  0  0  0
  141.0843   68.2116  230.0775 H   0  0  0  0  0  0  0  0  0  0  0  0
  140.1677   67.6238  228.6489 H   0  0  0  0  0  0  0  0  0  0  0  0
  141.9631   67.5688  228.6489 H   0  0  0  0  0  0  0  0  0  0  0  0
  139.8570   68.8520  226.4570 C   0  0  0  0  0  0  0  0  0  0  0  0
  139.5747   67.9114  226.9526 H   0  0  0  0  0  0  0  0  0  0  0  0
  139.3840   69.1240  225.1580 C   0  0  0  0  0  0  0  0  0  0  0  0
  138.5570   68.2280  224.4610 O   0  0  0  0  0  0  0  0  0  0  0  0
  138.8250   67.7290  223.1570 C   0  0  0  0  0  0  0  0  0  0  0  0
  139.3442   66.7623  223.2339 H   0  0  0  0  0  0  0  0  0  0  0  0
  137.8778   67.5944  222.6141 H   0  0  0  0  0  0  0  0  0  0  0  0
  139.4603   68.4443  222.6141 H   0  0  0  0  0  0  0  0  0  0  0  0
  140.4120   72.1020  221.7360 C   0  0  0  0  0  0  0  0  0  0  0  0
  141.0260   71.0940  220.9730 C   0  0  0  0  0  0  0  0  0  0  0  0
  140.6170   70.0730  220.9878 H   0  0  0  0  0  0  0  0  0  0  0  0
  142.1500   71.3780  220.1970 C   0  0  0  0  0  0  0  0  0  0  0  0
  142.6229   70.5822  219.6028 H   0  0  0  0  0  0  0  0  0  0  0  0
  142.6750   72.6710  220.1740 C   0  0  0  0  0  0  0  0  0  0  0  0
  143.5714   72.8894  219.5750 H   0  0  0  0  0  0  0  0  0  0  0  0
  142.0640   73.6870  220.9100 C   0  0  0  0  0  0  0  0  0  0  0  0
  142.4889   74.7015  220.8952 H   0  0  0  0  0  0  0  0  0  0  0  0
  140.9140   73.4270  221.6680 C   0  0  0  0  0  0  0  0  0  0  0  0
  140.2890   74.5320  222.3430 N   0  0  0  0  0  0  0  0  0  0  0  0
  139.2920   75.4200  221.8150 C   0  0  0  0  0  0  0  0  0  0  0  0
  137.9690   75.2190  222.2110 O   0  0  0  0  0  0  0  0  0  0  0  0
  137.7310   74.7590  223.0830 H   0  0  0  0  0  0  0  0  0  0  0  0
  139.5850   76.4450  220.9910 C   0  0  0  0  0  0  0  0  0  0  0  0
  138.8972   76.6317  220.1531 H   0  0  0  0  0  0  0  0  0  0  0  0
  140.7770   77.3560  221.1230 C   0  0  0  0  0  0  0  0  0  0  0  0
  140.6222   78.2400  220.4869 H   0  0  0  0  0  0  0  0  0  0  0  0
  141.6717   76.7975  220.8108 H   0  0  0  0  0  0  0  0  0  0  0  0
  140.9810   77.8140  222.5660 C   0  0  0  0  0  0  0  0  0  0  0  0
  140.6314   77.0291  223.2527 H   0  0  0  0  0  0  0  0  0  0  0  0
  142.0497   78.0059  222.7422 H   0  0  0  0  0  0  0  0  0  0  0  0
  140.4088   78.7368  222.7422 H   0  0  0  0  0  0  0  0  0  0  0  0
  1  2  1  0
  2  3  1  0
  3  4  2  0
  4  5  1  0
  5  6  2  0
  6  7  1  0
  6  8  1  0
  8  9  1  0
  8 10  2  0
 10 11  1  0
 11 12  1  0
 12 13  1  0
 12 14  1  0
 12 15  1  0
 10 16  1  0
 16 17  1  0
 16 18  2  0
 18 19  1  0
 19 20  1  0
 20 21  1  0
 20 22  1  0
 20 23  1  0
  3 24  1  0
 24 25  2  0
 25 26  1  0
 25 27  1  0
 27 28  1  0
 27 29  2  0
 29 30  1  0
 29 31  1  0
 31 32  1  0
 31 33  2  0
 33 34  1  0
 34 35  1  0
 35 36  1  0
 36 37  1  0
 35 38  2  0
 38 39  1  0
 38 40  1  0
 40 41  1  0
 40 42  1  0
 40 43  1  0
 43 44  1  0
 43 45  1  0
 43 46  1  0
 18  5  1  0
 33 24  1  0
M  CHG  1  34  -1
M  END
>  <UniqueID>  (40) 
10

>  <SMILES>  (40) 
CC/C=C(/O)[N-]c1ccccc1/C(O)=N/c1ccc(OC)cc1OC

>  <Energy>  (40) 
61.481365850089105

>  <Genealogy>  (40) 
CCCC(=O)[N-]c1ccccc1C(=O)Nc1ccc(OC)cc1OC (protonated)
CCC=C(O)[N-]c1ccccc1C(O)=Nc1ccc(OC)cc1OC (tautomer)
CC/C=C(/O)[N-]c1ccccc1/C(O)=N/c1ccc(OC)cc1OC (cis-trans isomerization)
CC/C=C(/O)[N-]c1ccccc1/C(O)=N/c1ccc(OC)cc1OC (3D coordinates assigned)
CC/C=C(/O)[N-]c1ccccc1/C(O)=N/c1ccc(OC)cc1OC (optimized conformer: 61.481365850089105 kcal/mol)

>  <smiles>  (40) 
CCCC(=O)Nc1ccccc1C(=O)Nc1ccc(OC)cc1OC

>  <score_type>  (40) 
oracle

>  <origin>  (40) 
autodockgpu

>  <m_score__min__energy>  (40) 
-5.0300000000000002

>  <m_primary>  (40) 
energy

>  <meeko>  (40) 
{"free_energy": -4.86, "intermolecular_energy": -8.14, "internal_energy": -2.82, "cluster_size": 8, "cluster_id": 1, "rank_in_cluster": 4}

>  <energy>  (40) 
-3.24

>  <cluster_rmsd>  (40) 
0.9

>  <rmsd>  (40) 
271.3

>  <cluster>  (40) 
4

$$$$
XACSTBCXFQXDPE-MDQZRGDRNA-N
     RDKit          3D

 47 48  0  0  0  0  0  0  0  0999 V2000
  143.1470   77.7150  220.6550 H   0  0  0  0  0  0  0  0  0  0  0  0
  142.1750   77.9920  220.6320 O   0  0  0  0  0  0  0  0  0  0  0  0
  141.4250   78.2400  221.7840 C   0  0  0  0  0  0  0  0  0  0  0  0
  140.8720   77.2850  222.4750 N   0  0  0  0  0  0  0  0  0  0  0  0
  139.5230   76.8050  222.3490 C   0  0  0  0  0  0  0  0  0  0  0  0
  138.4850   77.4200  223.0750 C   0  0  0  0  0  0  0  0  0  0  0  0
  138.6981   78.3133  223.6805 H   0  0  0  0  0  0  0  0  0  0  0  0
  137.1880   76.9060  223.0330 C   0  0  0  0  0  0  0  0  0  0  0  0
  136.3794   77.4081  223.5845 H   0  0  0  0  0  0  0  0  0  0  0  0
  136.9170   75.7560  222.2920 C   0  0  0  0  0  0  0  0  0  0  0  0
  135.8929   75.3563  222.2533 H   0  0  0  0  0  0  0  0  0  0  0  0
  137.9440   75.1110  221.5990 C   0  0  0  0  0  0  0  0  0  0  0  0
  137.7258   74.1953  221.0298 H   0  0  0  0  0  0  0  0  0  0  0  0
  139.2540   75.6210  221.6220 C   0  0  0  0  0  0  0  0  0  0  0  0
  140.3210   74.9210  220.8620 C   0  0  0  0  0  0  0  0  0  0  0  0
  140.0100   74.1150  219.9440 O   0  0  0  0  0  0  0  0  0  0  0  0
  141.7050   75.1670  221.1540 N   0  0  0  0  0  0  0  0  0  0  0  0
  141.9620   76.0690  221.6120 H   0  0  0  0  0  0  0  0  0  0  0  0
  142.7610   74.3480  220.6320 C   0  0  0  0  0  0  0  0  0  0  0  0
  142.7490   72.9700  220.8880 C   0  0  0  0  0  0  0  0  0  0  0  0
  141.9250   72.5290  221.4681 H   0  0  0  0  0  0  0  0  0  0  0  0
  143.7770   72.1530  220.4110 C   0  0  0  0  0  0  0  0  0  0  0  0
  143.7649   71.0759  220.6341 H   0  0  0  0  0  0  0  0  0  0  0  0
  144.8220   72.6920  219.6520 C   0  0  0  0  0  0  0  0  0  0  0  0
  145.8300   71.8280  219.1990 O   0  0  0  0  0  0  0  0  0  0  0  0
  145.6390   70.4440  218.9260 C   0  0  0  0  0  0  0  0  0  0  0  0
  145.5626   69.8905  219.8735 H   0  0  0  0  0  0  0  0  0  0  0  0
  144.7137   70.3088  218.3468 H   0  0  0  0  0  0  0  0  0  0  0  0
  146.4931   70.0632  218.3468 H   0  0  0  0  0  0  0  0  0  0  0  0
  144.8260   74.0720  219.3740 C   0  0  0  0  0  0  0  0  0  0  0  0
  145.6470   74.5070  218.7851 H   0  0  0  0  0  0  0  0  0  0  0  0
  143.7930   74.8970  219.8410 C   0  0  0  0  0  0  0  0  0  0  0  0
  143.8060   76.2530  219.5120 O   0  0  0  0  0  0  0  0  0  0  0  0
  143.3090   76.7200  218.2630 C   0  0  0  0  0  0  0  0  0  0  0  0
  142.5176   77.4636  218.4382 H   0  0  0  0  0  0  0  0  0  0  0  0
  144.1276   77.1832  217.6927 H   0  0  0  0  0  0  0  0  0  0  0  0
  142.8976   75.8741  217.6927 H   0  0  0  0  0  0  0  0  0  0  0  0
  141.3130   79.6500  222.2750 C   0  0  0  0  0  0  0  0  0  0  0  0
  140.4337   79.7366  222.9303 H   0  0  0  0  0  0  0  0  0  0  0  0
  141.2081   80.3212  221.4098 H   0  0  0  0  0  0  0  0  0  0  0  0
  142.5680   80.0450  223.0600 C   0  0  0  0  0  0  0  0  0  0  0  0
  143.3749   80.2828  222.3512 H   0  0  0  0  0  0  0  0  0  0  0  0
  142.8557   79.2019  223.7053 H   0  0  0  0  0  0  0  0  0  0  0  0
  142.3050   81.2620  223.9420 C   0  0  0  0  0  0  0  0  0  0  0  0
  142.3684   80.9685  225.0002 H   0  0  0  0  0  0  0  0  0  0  0  0
  143.0564   82.0371  223.7308 H   0  0  0  0  0  0  0  0  0  0  0  0
  141.3006   81.6577  223.7308 H   0  0  0  0  0  0  0  0  0  0  0  0
  1  2  1  0
  2  3  1  0
  3  4  2  0
  4  5  1  0
  5  6  2  0
  6  7  1  0
  6  8  1  0
  8  9  1  0
  8 10  2  0
 10 11  1  0
 10 12  1  0
 12 13  1  0
 12 14  2  0
 14 15  1  0
 15 16  2  0
 15 17  1  0
 17 18  1  0
 17 19  1  0
 19 20  2  0
 20 21  1  0
 20 22  1  0
 22 23  1  0
 22 24  2  0
 24 25  1  0
 25 26  1  0
 26 27  1  0
 26 28  1  0
 26 29  1  0
 24 30  1  0
 30 31  1  0
 30 32  2  0
 32 33  1  0
 33 34  1  0
 34 35  1  0
 34 36  1  0
 34 37  1  0
  3 38  1  0
 38 39  1  0
 38 40  1  0
 38 41  1  0
 41 42  1  0
 41 43  1  0
 41 44  1  0
 44 45  1  0
 44 46  1  0
 44 47  1  0
 14  5  1  0
 32 19  1  0
M  END
>  <UniqueID>  (41) 
11

>  <SMILES>  (41) 
CCC/C(O)=N/c1ccccc1C(=O)Nc1ccc(OC)cc1OC

>  <Energy>  (41) 
60.59000813245773

>  <Genealogy>  (41) 
CCCC(O)=Nc1ccccc1C(=O)Nc1ccc(OC)cc1OC (tautomer)
CCC/C(O)=N/c1ccccc1C(=O)Nc1ccc(OC)cc1OC (cis-trans isomerization)
CCC/C(O)=N/c1ccccc1C(=O)Nc1ccc(OC)cc1OC (3D coordinates assigned)
CCC/C(O)=N/c1ccccc1C(=O)Nc1ccc(OC)cc1OC (optimized conformer: 60.59000813245773 kcal/mol)

>  <smiles>  (41) 
CCCC(=O)Nc1ccccc1C(=O)Nc1ccc(OC)cc1OC

>  <score_type>  (41) 
oracle

>  <origin>  (41) 
autodockgpu

>  <m_score__min__energy>  (41) 
-5.1299999999999999

>  <m_primary>  (41) 
energy

>  <meeko>  (41) 
{"free_energy": -5.07, "intermolecular_energy": -7.75, "internal_energy": -3.15, "cluster_size": 7, "cluster_id": 1, "rank_in_cluster": 6}

>  <energy>  (41) 
-5.13

>  <cluster_rmsd>  (41) 
0.0

>  <rmsd>  (41) 
271.88

>  <cluster>  (41) 
1

$$$$
XACSTBCXFQXDPE-MDQZRGDRNA-N
     RDKit          3D

 47 48  0  0  0  0  0  0  0  0999 V2000
  143.1330   77.6950  220.8610 H   0  0  0  0  0  0  0  0  0  0  0  0
  142.1830   78.0410  220.8650 O   0  0  0  0  0  0  0  0  0  0  0  0
  141.4080   78.1300  222.0240 C   0  0  0  0  0  0  0  0  0  0  0  0
  140.8480   77.0890  222.5700 N   0  0  0  0  0  0  0  0  0  0  0  0
  139.4980   76.6380  222.3710 C   0  0  0  0  0  0  0  0  0  0  0  0
  138.4380   77.2610  223.0560 C   0  0  0  0  0  0  0  0  0  0  0  0
  138.6376   78.1402  223.6862 H   0  0  0  0  0  0  0  0  0  0  0  0
  137.1350   76.7720  222.9420 C   0  0  0  0  0  0  0  0  0  0  0  0
  136.3099   77.2799  223.4628 H   0  0  0  0  0  0  0  0  0  0  0  0
  136.8790   75.6410  222.1690 C   0  0  0  0  0  0  0  0  0  0  0  0
  135.8510   75.2612  222.0744 H   0  0  0  0  0  0  0  0  0  0  0  0
  137.9270   74.9890  221.5140 C   0  0  0  0  0  0  0  0  0  0  0  0
  137.7201   74.0882  220.9175 H   0  0  0  0  0  0  0  0  0  0  0  0
  139.2430   75.4730  221.6100 C   0  0  0  0  0  0  0  0  0  0  0  0
  140.3330   74.7640  220.8900 C   0  0  0  0  0  0  0  0  0  0  0  0
  140.0490   73.9020  220.0160 O   0  0  0  0  0  0  0  0  0  0  0  0
  141.7080   75.0670  221.1700 N   0  0  0  0  0  0  0  0  0  0  0  0
  141.9370   75.9990  221.5810 H   0  0  0  0  0  0  0  0  0  0  0  0
  142.7890   74.2530  220.6950 C   0  0  0  0  0  0  0  0  0  0  0  0
  142.7420   72.8670  220.8940 C   0  0  0  0  0  0  0  0  0  0  0  0
  141.8724   72.4164  221.3946 H   0  0  0  0  0  0  0  0  0  0  0  0
  143.7920   72.0530  220.4610 C   0  0  0  0  0  0  0  0  0  0  0  0
  143.7506   70.9684  220.6396 H   0  0  0  0  0  0  0  0  0  0  0  0
  144.8960   72.6060  219.8020 C   0  0  0  0  0  0  0  0  0  0  0  0
  145.9240   71.7450  219.3900 O   0  0  0  0  0  0  0  0  0  0  0  0
  145.7270   70.3970  218.9760 C   0  0  0  0  0  0  0  0  0  0  0  0
  145.6327   69.7515  219.8617 H   0  0  0  0  0  0  0  0  0  0  0  0
  144.8094   70.3289  218.3732 H   0  0  0  0  0  0  0  0  0  0  0  0
  146.5868   70.0692  218.3732 H   0  0  0  0  0  0  0  0  0  0  0  0
  144.9380   73.9960  219.5800 C   0  0  0  0  0  0  0  0  0  0  0  0
  145.8050   74.4413  219.0701 H   0  0  0  0  0  0  0  0  0  0  0  0
  143.8830   74.8170  220.0040 C   0  0  0  0  0  0  0  0  0  0  0  0
  143.9370   76.1850  219.7300 O   0  0  0  0  0  0  0  0  0  0  0  0
  143.3170   76.7370  218.5750 C   0  0  0  0  0  0  0  0  0  0  0  0
  142.5282   77.4393  218.8825 H   0  0  0  0  0  0  0  0  0  0  0  0
  144.0689   77.2701  217.9746 H   0  0  0  0  0  0  0  0  0  0  0  0
  142.8744   75.9285  217.9746 H   0  0  0  0  0  0  0  0  0  0  0  0
  141.2770   79.4620  222.6960 C   0  0  0  0  0  0  0  0  0  0  0  0
  140.6255   79.3609  223.5766 H   0  0  0  0  0  0  0  0  0  0  0  0
  140.8426   80.1790  221.9839 H   0  0  0  0  0  0  0  0  0  0  0  0
  142.6510   79.9750  223.1410 C   0  0  0  0  0  0  0  0  0  0  0  0
  143.2743   80.1498  222.2516 H   0  0  0  0  0  0  0  0  0  0  0  0
  143.1111   79.2186  223.7938 H   0  0  0  0  0  0  0  0  0  0  0  0
  142.5250   81.2770  223.9240 C   0  0  0  0  0  0  0  0  0  0  0  0
  142.5460   81.0600  225.0022 H   0  0  0  0  0  0  0  0  0  0  0  0
  143.3630   81.9418  223.6674 H   0  0  0  0  0  0  0  0  0  0  0  0
  141.5751   81.7687  223.6674 H   0  0  0  0  0  0  0  0  0  0  0  0
  1  2  1  0
  2  3  1  0
  3  4  2  0
  4  5  1  0
  5  6  2  0
  6  7  1  0
  6  8  1  0
  8  9  1  0
  8 10  2  0
 10 11  1  0
 10 12  1  0
 12 13  1  0
 12 14  2  0
 14 15  1  0
 15 16  2  0
 15 17  1  0
 17 18  1  0
 17 19  1  0
 19 20  2  0
 20 21  1  0
 20 22  1  0
 22 23  1  0
 22 24  2  0
 24 25  1  0
 25 26  1  0
 26 27  1  0
 26 28  1  0
 26 29  1  0
 24 30  1  0
 30 31  1  0
 30 32  2  0
 32 33  1  0
 33 34  1  0
 34 35  1  0
 34 36  1  0
 34 37  1  0
  3 38  1  0
 38 39  1  0
 38 40  1  0
 38 41  1  0
 41 42  1  0
 41 43  1  0
 41 44  1  0
 44 45  1  0
 44 46  1  0
 44 47  1  0
 14  5  1  0
 32 19  1  0
M  END
>  <UniqueID>  (42) 
11

>  <SMILES>  (42) 
CCC/C(O)=N/c1ccccc1C(=O)Nc1ccc(OC)cc1OC

>  <Energy>  (42) 
60.59000813245773

>  <Genealogy>  (42) 
CCCC(O)=Nc1ccccc1C(=O)Nc1ccc(OC)cc1OC (tautomer)
CCC/C(O)=N/c1ccccc1C(=O)Nc1ccc(OC)cc1OC (cis-trans isomerization)
CCC/C(O)=N/c1ccccc1C(=O)Nc1ccc(OC)cc1OC (3D coordinates assigned)
CCC/C(O)=N/c1ccccc1C(=O)Nc1ccc(OC)cc1OC (optimized conformer: 60.59000813245773 kcal/mol)

>  <smiles>  (42) 
CCCC(=O)Nc1ccccc1C(=O)Nc1ccc(OC)cc1OC

>  <score_type>  (42) 
oracle

>  <origin>  (42) 
autodockgpu

>  <m_score__min__energy>  (42) 
-5.1299999999999999

>  <m_primary>  (42) 
energy

>  <meeko>  (42) 
{"free_energy": -5.12, "intermolecular_energy": -7.81, "internal_energy": -3.15, "cluster_size": 7, "cluster_id": 1, "rank_in_cluster": 2}

>  <energy>  (42) 
-5.12

>  <cluster_rmsd>  (42) 
0.31

>  <rmsd>  (42) 
271.92

>  <cluster>  (42) 
1

$$$$
XACSTBCXFQXDPE-MDQZRGDRNA-N
     RDKit          3D

 47 48  0  0  0  0  0  0  0  0999 V2000
  138.9350   73.9110  222.7490 H   0  0  0  0  0  0  0  0  0  0  0  0
  139.9350   73.7650  222.7080 O   0  0  0  0  0  0  0  0  0  0  0  0
  140.5320   72.7920  221.9030 C   0  0  0  0  0  0  0  0  0  0  0  0
  141.0250   73.0660  220.7290 N   0  0  0  0  0  0  0  0  0  0  0  0
  142.4170   73.1800  220.3880 C   0  0  0  0  0  0  0  0  0  0  0  0
  143.2000   72.0210  220.2240 C   0  0  0  0  0  0  0  0  0  0  0  0
  142.7269   71.0298  220.2847 H   0  0  0  0  0  0  0  0  0  0  0  0
  144.5720   72.1200  219.9850 C   0  0  0  0  0  0  0  0  0  0  0  0
  145.1711   71.2097  219.8353 H   0  0  0  0  0  0  0  0  0  0  0  0
  145.1830   73.3720  219.9360 C   0  0  0  0  0  0  0  0  0  0  0  0
  146.2626   73.4488  219.7396 H   0  0  0  0  0  0  0  0  0  0  0  0
  144.4260   74.5300  220.1360 C   0  0  0  0  0  0  0  0  0  0  0  0
  144.9178   75.5136  220.1116 H   0  0  0  0  0  0  0  0  0  0  0  0
  143.0420   74.4490  220.3680 C   0  0  0  0  0  0  0  0  0  0  0  0
  142.2630   75.6990  220.5630 C   0  0  0  0  0  0  0  0  0  0  0  0
  142.4660   76.6870  219.8080 O   0  0  0  0  0  0  0  0  0  0  0  0
  141.2660   75.7830  221.5930 N   0  0  0  0  0  0  0  0  0  0  0  0
  140.8400   74.8980  221.9440 H   0  0  0  0  0  0  0  0  0  0  0  0
  140.6660   77.0260  221.9850 C   0  0  0  0  0  0  0  0  0  0  0  0
  141.4410   78.1930  221.9780 C   0  0  0  0  0  0  0  0  0  0  0  0
  142.4920   78.1488  221.6563 H   0  0  0  0  0  0  0  0  0  0  0  0
  140.8880   79.4130  222.3770 C   0  0  0  0  0  0  0  0  0  0  0  0
  141.5125   80.3185  222.3848 H   0  0  0  0  0  0  0  0  0  0  0  0
  139.5450   79.4920  222.7670 C   0  0  0  0  0  0  0  0  0  0  0  0
  139.0400   80.7400  223.1600 O   0  0  0  0  0  0  0  0  0  0  0  0
  138.0810   80.9300  224.1950 C   0  0  0  0  0  0  0  0  0  0  0  0
  138.5736   80.8324  225.1737 H   0  0  0  0  0  0  0  0  0  0  0  0
  137.6388   81.9332  224.1055 H   0  0  0  0  0  0  0  0  0  0  0  0
  137.2897   80.1712  224.1055 H   0  0  0  0  0  0  0  0  0  0  0  0
  138.7570   78.3260  222.7540 C   0  0  0  0  0  0  0  0  0  0  0  0
  137.7037   78.3758  223.0671 H   0  0  0  0  0  0  0  0  0  0  0  0
  139.3040   77.1010  222.3450 C   0  0  0  0  0  0  0  0  0  0  0  0
  138.4830   75.9720  222.3040 O   0  0  0  0  0  0  0  0  0  0  0  0
  137.1210   76.0280  222.7130 C   0  0  0  0  0  0  0  0  0  0  0  0
  137.0679   76.0302  223.8117 H   0  0  0  0  0  0  0  0  0  0  0  0
  136.6581   76.9459  222.3217 H   0  0  0  0  0  0  0  0  0  0  0  0
  136.5843   75.1512  222.3217 H   0  0  0  0  0  0  0  0  0  0  0  0
  140.6670   71.4010  222.4420 C   0  0  0  0  0  0  0  0  0  0  0  0
  141.7233   71.2047  222.6782 H   0  0  0  0  0  0  0  0  0  0  0  0
  140.3106   70.6882  221.6838 H   0  0  0  0  0  0  0  0  0  0  0  0
  139.8270   71.2370  223.7120 C   0  0  0  0  0  0  0  0  0  0  0  0
  139.2368   70.3119  223.6352 H   0  0  0  0  0  0  0  0  0  0  0  0
  139.1661   72.1110  223.8085 H   0  0  0  0  0  0  0  0  0  0  0  0
  140.7130   71.1610  224.9520 C   0  0  0  0  0  0  0  0  0  0  0  0
  140.0862   71.2148  225.8544 H   0  0  0  0  0  0  0  0  0  0  0  0
  141.2690   70.2119  224.9478 H   0  0  0  0  0  0  0  0  0  0  0  0
  141.4225   72.0016  224.9478 H   0  0  0  0  0  0  0  0  0  0  0  0
  1  2  1  0
  2  3  1  0
  3  4  2  0
  4  5  1  0
  5  6  2  0
  6  7  1  0
  6  8  1  0
  8  9  1  0
  8 10  2  0
 10 11  1  0
 10 12  1  0
 12 13  1  0
 12 14  2  0
 14 15  1  0
 15 16  2  0
 15 17  1  0
 17 18  1  0
 17 19  1  0
 19 20  2  0
 20 21  1  0
 20 22  1  0
 22 23  1  0
 22 24  2  0
 24 25  1  0
 25 26  1  0
 26 27  1  0
 26 28  1  0
 26 29  1  0
 24 30  1  0
 30 31  1  0
 30 32  2  0
 32 33  1  0
 33 34  1  0
 34 35  1  0
 34 36  1  0
 34 37  1  0
  3 38  1  0
 38 39  1  0
 38 40  1  0
 38 41  1  0
 41 42  1  0
 41 43  1  0
 41 44  1  0
 44 45  1  0
 44 46  1  0
 44 47  1  0
 14  5  1  0
 32 19  1  0
M  END
>  <UniqueID>  (43) 
11

>  <SMILES>  (43) 
CCC/C(O)=N/c1ccccc1C(=O)Nc1ccc(OC)cc1OC

>  <Energy>  (43) 
60.59000813245773

>  <Genealogy>  (43) 
CCCC(O)=Nc1ccccc1C(=O)Nc1ccc(OC)cc1OC (tautomer)
CCC/C(O)=N/c1ccccc1C(=O)Nc1ccc(OC)cc1OC (cis-trans isomerization)
CCC/C(O)=N/c1ccccc1C(=O)Nc1ccc(OC)cc1OC (3D coordinates assigned)
CCC/C(O)=N/c1ccccc1C(=O)Nc1ccc(OC)cc1OC (optimized conformer: 60.59000813245773 kcal/mol)

>  <smiles>  (43) 
CCCC(=O)Nc1ccccc1C(=O)Nc1ccc(OC)cc1OC

>  <score_type>  (43) 
oracle

>  <origin>  (43) 
autodockgpu

>  <m_score__min__energy>  (43) 
-5.1299999999999999

>  <m_primary>  (43) 
energy

>  <meeko>  (43) 
{"free_energy": -5.0, "intermolecular_energy": -7.69, "internal_energy": -3.21, "cluster_size": 6, "cluster_id": 3, "rank_in_cluster": 1}

>  <energy>  (43) 
-5.11

>  <cluster_rmsd>  (43) 
0.34

>  <rmsd>  (43) 
271.92

>  <cluster>  (43) 
1

$$$$
XACSTBCXFQXDPE-MDQZRGDRNA-N
     RDKit          3D

 47 48  0  0  0  0  0  0  0  0999 V2000
  141.8470   76.3980  222.7070 H   0  0  0  0  0  0  0  0  0  0  0  0
  141.4370   77.2030  223.1610 O   0  0  0  0  0  0  0  0  0  0  0  0
  141.0390   78.3490  222.4690 C   0  0  0  0  0  0  0  0  0  0  0  0
  140.7680   78.3360  221.1960 N   0  0  0  0  0  0  0  0  0  0  0  0
  141.3440   79.1820  220.1870 C   0  0  0  0  0  0  0  0  0  0  0  0
  140.9640   80.5350  220.1000 C   0  0  0  0  0  0  0  0  0  0  0  0
  140.2818   80.9595  220.8513 H   0  0  0  0  0  0  0  0  0  0  0  0
  141.4460   81.3420  219.0680 C   0  0  0  0  0  0  0  0  0  0  0  0
  141.1622   82.4038  219.0223 H   0  0  0  0  0  0  0  0  0  0  0  0
  142.2870   80.8030  218.0950 C   0  0  0  0  0  0  0  0  0  0  0  0
  142.6714   81.4418  217.2862 H   0  0  0  0  0  0  0  0  0  0  0  0
  142.6420   79.4530  218.1460 C   0  0  0  0  0  0  0  0  0  0  0  0
  143.2947   79.0315  217.3673 H   0  0  0  0  0  0  0  0  0  0  0  0
  142.1730   78.6280  219.1830 C   0  0  0  0  0  0  0  0  0  0  0  0
  142.5800   77.1990  219.2170 C   0  0  0  0  0  0  0  0  0  0  0  0
  143.0590   76.6600  218.1830 O   0  0  0  0  0  0  0  0  0  0  0  0
  142.4480   76.4320  220.4230 N   0  0  0  0  0  0  0  0  0  0  0  0
  142.4240   76.9410  221.3340 H   0  0  0  0  0  0  0  0  0  0  0  0
  142.5880   75.0040  220.4480 C   0  0  0  0  0  0  0  0  0  0  0  0
  143.6350   74.4060  219.7350 C   0  0  0  0  0  0  0  0  0  0  0  0
  144.3470   75.0346  219.1800 H   0  0  0  0  0  0  0  0  0  0  0  0
  143.7810   73.0170  219.7240 C   0  0  0  0  0  0  0  0  0  0  0  0
  144.5962   72.5592  219.1445 H   0  0  0  0  0  0  0  0  0  0  0  0
  142.8990   72.2020  220.4440 C   0  0  0  0  0  0  0  0  0  0  0  0
  143.0890   70.8130  220.3970 O   0  0  0  0  0  0  0  0  0  0  0  0
  142.7350   69.9890  219.2920 C   0  0  0  0  0  0  0  0  0  0  0  0
  142.3259   69.0368  219.6609 H   0  0  0  0  0  0  0  0  0  0  0  0
  141.9775   70.5011  218.6805 H   0  0  0  0  0  0  0  0  0  0  0  0
  143.6279   69.7921  218.6805 H   0  0  0  0  0  0  0  0  0  0  0  0
  141.8580   72.8010  221.1800 C   0  0  0  0  0  0  0  0  0  0  0  0
  141.1539   72.1698  221.7420 H   0  0  0  0  0  0  0  0  0  0  0  0
  141.7120   74.1950  221.2020 C   0  0  0  0  0  0  0  0  0  0  0  0
  140.6950   74.7580  221.9760 O   0  0  0  0  0  0  0  0  0  0  0  0
  139.5030   75.2620  221.3850 C   0  0  0  0  0  0  0  0  0  0  0  0
  138.7990   75.5597  222.1761 H   0  0  0  0  0  0  0  0  0  0  0  0
  139.7440   76.1352  220.7610 H   0  0  0  0  0  0  0  0  0  0  0  0
  139.0444   74.4808  220.7610 H   0  0  0  0  0  0  0  0  0  0  0  0
  140.8530   79.6210  223.2380 C   0  0  0  0  0  0  0  0  0  0  0  0
  140.1231   79.4539  224.0438 H   0  0  0  0  0  0  0  0  0  0  0  0
  140.4888   80.4015  222.5538 H   0  0  0  0  0  0  0  0  0  0  0  0
  142.1830   80.0760  223.8480 C   0  0  0  0  0  0  0  0  0  0  0  0
  142.4835   79.3613  224.6283 H   0  0  0  0  0  0  0  0  0  0  0  0
  142.0459   81.0802  224.2756 H   0  0  0  0  0  0  0  0  0  0  0  0
  143.2780   80.1460  222.7880 C   0  0  0  0  0  0  0  0  0  0  0  0
  144.2603   80.2088  223.2791 H   0  0  0  0  0  0  0  0  0  0  0  0
  143.2389   79.2435  222.1603 H   0  0  0  0  0  0  0  0  0  0  0  0
  143.1243   81.0362  222.1603 H   0  0  0  0  0  0  0  0  0  0  0  0
  1  2  1  0
  2  3  1  0
  3  4  2  0
  4  5  1  0
  5  6  2  0
  6  7  1  0
  6  8  1  0
  8  9  1  0
  8 10  2  0
 10 11  1  0
 10 12  1  0
 12 13  1  0
 12 14  2  0
 14 15  1  0
 15 16  2  0
 15 17  1  0
 17 18  1  0
 17 19  1  0
 19 20  2  0
 20 21  1  0
 20 22  1  0
 22 23  1  0
 22 24  2  0
 24 25  1  0
 25 26  1  0
 26 27  1  0
 26 28  1  0
 26 29  1  0
 24 30  1  0
 30 31  1  0
 30 32  2  0
 32 33  1  0
 33 34  1  0
 34 35  1  0
 34 36  1  0
 34 37  1  0
  3 38  1  0
 38 39  1  0
 38 40  1  0
 38 41  1  0
 41 42  1  0
 41 43  1  0
 41 44  1  0
 44 45  1  0
 44 46  1  0
 44 47  1  0
 14  5  1  0
 32 19  1  0
M  END
>  <UniqueID>  (44) 
11

>  <SMILES>  (44) 
CCC/C(O)=N/c1ccccc1C(=O)Nc1ccc(OC)cc1OC

>  <Energy>  (44) 
60.59000813245773

>  <Genealogy>  (44) 
CCCC(O)=Nc1ccccc1C(=O)Nc1ccc(OC)cc1OC (tautomer)
CCC/C(O)=N/c1ccccc1C(=O)Nc1ccc(OC)cc1OC (cis-trans isomerization)
CCC/C(O)=N/c1ccccc1C(=O)Nc1ccc(OC)cc1OC (3D coordinates assigned)
CCC/C(O)=N/c1ccccc1C(=O)Nc1ccc(OC)cc1OC (optimized conformer: 60.59000813245773 kcal/mol)

>  <smiles>  (44) 
CCCC(=O)Nc1ccccc1C(=O)Nc1ccc(OC)cc1OC

>  <score_type>  (44) 
oracle

>  <origin>  (44) 
autodockgpu

>  <m_score__min__energy>  (44) 
-5.1299999999999999

>  <m_primary>  (44) 
energy

>  <meeko>  (44) 
{"free_energy": -5.12, "intermolecular_energy": -7.8, "internal_energy": -3.29, "cluster_size": 4, "cluster_id": 2, "rank_in_cluster": 1}

>  <energy>  (44) 
-5.1

>  <cluster_rmsd>  (44) 
0.22

>  <rmsd>  (44) 
271.89

>  <cluster>  (44) 
1

$$$$
XACSTBCXFQXDPE-MDQZRGDRNA-N
     RDKit          3D

 47 48  0  0  0  0  0  0  0  0999 V2000
  141.7180   76.6520  222.7340 H   0  0  0  0  0  0  0  0  0  0  0  0
  141.4330   77.5010  223.2030 O   0  0  0  0  0  0  0  0  0  0  0  0
  140.8930   78.6000  222.5300 C   0  0  0  0  0  0  0  0  0  0  0  0
  140.6590   78.5870  221.2490 N   0  0  0  0  0  0  0  0  0  0  0  0
  141.2580   79.4400  220.2580 C   0  0  0  0  0  0  0  0  0  0  0  0
  140.9020   80.8000  220.1910 C   0  0  0  0  0  0  0  0  0  0  0  0
  140.2213   81.2236  220.9442 H   0  0  0  0  0  0  0  0  0  0  0  0
  141.4060   81.6160  219.1760 C   0  0  0  0  0  0  0  0  0  0  0  0
  141.1411   82.6832  219.1457 H   0  0  0  0  0  0  0  0  0  0  0  0
  142.2450   81.0780  218.2010 C   0  0  0  0  0  0  0  0  0  0  0  0
  142.6470   81.7231  217.4059 H   0  0  0  0  0  0  0  0  0  0  0  0
  142.5760   79.7210  218.2320 C   0  0  0  0  0  0  0  0  0  0  0  0
  143.2268   79.3008  217.4510 H   0  0  0  0  0  0  0  0  0  0  0  0
  142.0850   78.8880  219.2520 C   0  0  0  0  0  0  0  0  0  0  0  0
  142.4670   77.4520  219.2650 C   0  0  0  0  0  0  0  0  0  0  0  0
  142.9380   76.9200  218.2240 O   0  0  0  0  0  0  0  0  0  0  0  0
  142.3190   76.6700  220.4590 N   0  0  0  0  0  0  0  0  0  0  0  0
  142.3030   77.1650  221.3780 H   0  0  0  0  0  0  0  0  0  0  0  0
  142.4350   75.2390  220.4640 C   0  0  0  0  0  0  0  0  0  0  0  0
  143.4670   74.6330  219.7360 C   0  0  0  0  0  0  0  0  0  0  0  0
  144.1868   75.2568  219.1859 H   0  0  0  0  0  0  0  0  0  0  0  0
  143.5880   73.2420  219.7040 C   0  0  0  0  0  0  0  0  0  0  0  0
  144.3911   72.7780  219.1126 H   0  0  0  0  0  0  0  0  0  0  0  0
  142.6960   72.4330  220.4180 C   0  0  0  0  0  0  0  0  0  0  0  0
  142.8610   71.0410  220.3510 O   0  0  0  0  0  0  0  0  0  0  0  0
  143.9480   70.3910  219.7010 C   0  0  0  0  0  0  0  0  0  0  0  0
  144.6344   69.9806  220.4563 H   0  0  0  0  0  0  0  0  0  0  0  0
  143.5638   69.5742  219.0722 H   0  0  0  0  0  0  0  0  0  0  0  0
  144.4857   71.1159  219.0722 H   0  0  0  0  0  0  0  0  0  0  0  0
  141.6710   73.0380  221.1690 C   0  0  0  0  0  0  0  0  0  0  0  0
  140.9600   72.4107  221.7266 H   0  0  0  0  0  0  0  0  0  0  0  0
  141.5490   74.4350  221.2120 C   0  0  0  0  0  0  0  0  0  0  0  0
  140.5470   75.0040  222.0000 O   0  0  0  0  0  0  0  0  0  0  0  0
  139.3510   75.5180  221.4260 C   0  0  0  0  0  0  0  0  0  0  0  0
  138.6583   75.8157  222.2270 H   0  0  0  0  0  0  0  0  0  0  0  0
  139.5896   76.3930  220.8036 H   0  0  0  0  0  0  0  0  0  0  0  0
  138.8803   74.7427  220.8036 H   0  0  0  0  0  0  0  0  0  0  0  0
  140.5080   79.8080  223.3270 C   0  0  0  0  0  0  0  0  0  0  0  0
  140.1878   79.4927  224.3310 H   0  0  0  0  0  0  0  0  0  0  0  0
  139.6853   80.3269  222.8132 H   0  0  0  0  0  0  0  0  0  0  0  0
  141.6970   80.7660  223.4540 C   0  0  0  0  0  0  0  0  0  0  0  0
  141.7559   81.1299  224.4904 H   0  0  0  0  0  0  0  0  0  0  0  0
  141.5460   81.6040  222.7576 H   0  0  0  0  0  0  0  0  0  0  0  0
  143.0050   80.0690  223.0960 C   0  0  0  0  0  0  0  0  0  0  0  0
  143.5344   79.7869  224.0180 H   0  0  0  0  0  0  0  0  0  0  0  0
  142.7897   79.1660  222.5059 H   0  0  0  0  0  0  0  0  0  0  0  0
  143.6345   80.7513  222.5059 H   0  0  0  0  0  0  0  0  0  0  0  0
  1  2  1  0
  2  3  1  0
  3  4  2  0
  4  5  1  0
  5  6  2  0
  6  7  1  0
  6  8  1  0
  8  9  1  0
  8 10  2  0
 10 11  1  0
 10 12  1  0
 12 13  1  0
 12 14  2  0
 14 15  1  0
 15 16  2  0
 15 17  1  0
 17 18  1  0
 17 19  1  0
 19 20  2  0
 20 21  1  0
 20 22  1  0
 22 23  1  0
 22 24  2  0
 24 25  1  0
 25 26  1  0
 26 27  1  0
 26 28  1  0
 26 29  1  0
 24 30  1  0
 30 31  1  0
 30 32  2  0
 32 33  1  0
 33 34  1  0
 34 35  1  0
 34 36  1  0
 34 37  1  0
  3 38  1  0
 38 39  1  0
 38 40  1  0
 38 41  1  0
 41 42  1  0
 41 43  1  0
 41 44  1  0
 44 45  1  0
 44 46  1  0
 44 47  1  0
 14  5  1  0
 32 19  1  0
M  END
>  <UniqueID>  (45) 
11

>  <SMILES>  (45) 
CCC/C(O)=N/c1ccccc1C(=O)Nc1ccc(OC)cc1OC

>  <Energy>  (45) 
60.59000813245773

>  <Genealogy>  (45) 
CCCC(O)=Nc1ccccc1C(=O)Nc1ccc(OC)cc1OC (tautomer)
CCC/C(O)=N/c1ccccc1C(=O)Nc1ccc(OC)cc1OC (cis-trans isomerization)
CCC/C(O)=N/c1ccccc1C(=O)Nc1ccc(OC)cc1OC (3D coordinates assigned)
CCC/C(O)=N/c1ccccc1C(=O)Nc1ccc(OC)cc1OC (optimized conformer: 60.59000813245773 kcal/mol)

>  <smiles>  (45) 
CCCC(=O)Nc1ccccc1C(=O)Nc1ccc(OC)cc1OC

>  <score_type>  (45) 
oracle

>  <origin>  (45) 
autodockgpu

>  <m_score__min__energy>  (45) 
-5.1299999999999999

>  <m_primary>  (45) 
energy

>  <meeko>  (45) 
{"free_energy": -5.07, "intermolecular_energy": -7.75, "internal_energy": -3.28, "cluster_size": 4, "cluster_id": 2, "rank_in_cluster": 4}

>  <energy>  (45) 
-5.1

>  <cluster_rmsd>  (45) 
0.28

>  <rmsd>  (45) 
271.91

>  <cluster>  (45) 
1

$$$$
XACSTBCXFQXDPE-MDQZRGDRNA-N
     RDKit          3D

 47 48  0  0  0  0  0  0  0  0999 V2000
  138.9320   73.9690  222.7820 H   0  0  0  0  0  0  0  0  0  0  0  0
  139.8880   73.6500  222.7110 O   0  0  0  0  0  0  0  0  0  0  0  0
  140.3100   72.7050  221.7720 C   0  0  0  0  0  0  0  0  0  0  0  0
  140.8850   73.0430  220.6530 N   0  0  0  0  0  0  0  0  0  0  0  0
  142.2980   73.1200  220.4040 C   0  0  0  0  0  0  0  0  0  0  0  0
  143.0510   71.9420  220.2430 C   0  0  0  0  0  0  0  0  0  0  0  0
  142.5426   70.9666  220.2352 H   0  0  0  0  0  0  0  0  0  0  0  0
  144.4380   72.0010  220.0930 C   0  0  0  0  0  0  0  0  0  0  0  0
  145.0149   71.0762  219.9448 H   0  0  0  0  0  0  0  0  0  0  0  0
  145.0920   73.2320  220.1310 C   0  0  0  0  0  0  0  0  0  0  0  0
  146.1838   73.2779  220.0048 H   0  0  0  0  0  0  0  0  0  0  0  0
  144.3630   74.4070  220.3290 C   0  0  0  0  0  0  0  0  0  0  0  0
  144.8874   75.3730  220.3726 H   0  0  0  0  0  0  0  0  0  0  0  0
  142.9650   74.3660  220.4730 C   0  0  0  0  0  0  0  0  0  0  0  0
  142.2170   75.6350  220.6680 C   0  0  0  0  0  0  0  0  0  0  0  0
  142.4930   76.6400  219.9600 O   0  0  0  0  0  0  0  0  0  0  0  0
  141.1690   75.7200  221.6450 N   0  0  0  0  0  0  0  0  0  0  0  0
  140.6950   74.8380  221.9420 H   0  0  0  0  0  0  0  0  0  0  0  0
  140.5880   76.9690  222.0470 C   0  0  0  0  0  0  0  0  0  0  0  0
  141.3970   78.1100  222.1140 C   0  0  0  0  0  0  0  0  0  0  0  0
  142.4607   78.0423  221.8421 H   0  0  0  0  0  0  0  0  0  0  0  0
  140.8620   79.3340  222.5240 C   0  0  0  0  0  0  0  0  0  0  0  0
  141.5124   80.2186  222.5904 H   0  0  0  0  0  0  0  0  0  0  0  0
  139.5050   79.4440  222.8510 C   0  0  0  0  0  0  0  0  0  0  0  0
  139.0190   80.6960  223.2590 O   0  0  0  0  0  0  0  0  0  0  0  0
  138.0430   80.8870  224.2770 C   0  0  0  0  0  0  0  0  0  0  0  0
  138.5196   80.7937  225.2640 H   0  0  0  0  0  0  0  0  0  0  0  0
  137.6000   81.8889  224.1769 H   0  0  0  0  0  0  0  0  0  0  0  0
  137.2550   80.1260  224.1769 H   0  0  0  0  0  0  0  0  0  0  0  0
  138.6830   78.3050  222.7640 C   0  0  0  0  0  0  0  0  0  0  0  0
  137.6175   78.3792  223.0271 H   0  0  0  0  0  0  0  0  0  0  0  0
  139.2130   77.0750  222.3440 C   0  0  0  0  0  0  0  0  0  0  0  0
  138.3610   75.9750  222.2280 O   0  0  0  0  0  0  0  0  0  0  0  0
  137.0330   76.0060  222.7390 C   0  0  0  0  0  0  0  0  0  0  0  0
  137.0631   76.0053  223.8386 H   0  0  0  0  0  0  0  0  0  0  0  0
  136.5257   76.9162  222.3867 H   0  0  0  0  0  0  0  0  0  0  0  0
  136.4838   75.1204  222.3867 H   0  0  0  0  0  0  0  0  0  0  0  0
  140.1550   71.2520  222.0990 C   0  0  0  0  0  0  0  0  0  0  0  0
  141.1405   70.7648  222.0607 H   0  0  0  0  0  0  0  0  0  0  0  0
  139.4768   70.7917  221.3654 H   0  0  0  0  0  0  0  0  0  0  0  0
  139.5610   71.0800  223.5010 C   0  0  0  0  0  0  0  0  0  0  0  0
  139.0982   70.0849  223.5753 H   0  0  0  0  0  0  0  0  0  0  0  0
  138.8111   71.8686  223.6614 H   0  0  0  0  0  0  0  0  0  0  0  0
  140.6370   71.2100  224.5740 C   0  0  0  0  0  0  0  0  0  0  0  0
  140.1713   71.1537  225.5690 H   0  0  0  0  0  0  0  0  0  0  0  0
  141.3656   70.3934  224.4635 H   0  0  0  0  0  0  0  0  0  0  0  0
  141.1501   72.1767  224.4635 H   0  0  0  0  0  0  0  0  0  0  0  0
  1  2  1  0
  2  3  1  0
  3  4  2  0
  4  5  1  0
  5  6  2  0
  6  7  1  0
  6  8  1  0
  8  9  1  0
  8 10  2  0
 10 11  1  0
 10 12  1  0
 12 13  1  0
 12 14  2  0
 14 15  1  0
 15 16  2  0
 15 17  1  0
 17 18  1  0
 17 19  1  0
 19 20  2  0
 20 21  1  0
 20 22  1  0
 22 23  1  0
 22 24  2  0
 24 25  1  0
 25 26  1  0
 26 27  1  0
 26 28  1  0
 26 29  1  0
 24 30  1  0
 30 31  1  0
 30 32  2  0
 32 33  1  0
 33 34  1  0
 34 35  1  0
 34 36  1  0
 34 37  1  0
  3 38  1  0
 38 39  1  0
 38 40  1  0
 38 41  1  0
 41 42  1  0
 41 43  1  0
 41 44  1  0
 44 45  1  0
 44 46  1  0
 44 47  1  0
 14  5  1  0
 32 19  1  0
M  END
>  <UniqueID>  (46) 
11

>  <SMILES>  (46) 
CCC/C(O)=N/c1ccccc1C(=O)Nc1ccc(OC)cc1OC

>  <Energy>  (46) 
60.59000813245773

>  <Genealogy>  (46) 
CCCC(O)=Nc1ccccc1C(=O)Nc1ccc(OC)cc1OC (tautomer)
CCC/C(O)=N/c1ccccc1C(=O)Nc1ccc(OC)cc1OC (cis-trans isomerization)
CCC/C(O)=N/c1ccccc1C(=O)Nc1ccc(OC)cc1OC (3D coordinates assigned)
CCC/C(O)=N/c1ccccc1C(=O)Nc1ccc(OC)cc1OC (optimized conformer: 60.59000813245773 kcal/mol)

>  <smiles>  (46) 
CCCC(=O)Nc1ccccc1C(=O)Nc1ccc(OC)cc1OC

>  <score_type>  (46) 
oracle

>  <origin>  (46) 
autodockgpu

>  <m_score__min__energy>  (46) 
-5.1299999999999999

>  <m_primary>  (46) 
energy

>  <meeko>  (46) 
{"free_energy": -4.9, "intermolecular_energy": -7.58, "internal_energy": -3.29, "cluster_size": 6, "cluster_id": 3, "rank_in_cluster": 6}

>  <energy>  (46) 
-5.07

>  <cluster_rmsd>  (46) 
0.41

>  <rmsd>  (46) 
271.86

>  <cluster>  (46) 
1

$$$$
XACSTBCXFQXDPE-MDQZRGDRNA-N
     RDKit          3D

 47 48  0  0  0  0  0  0  0  0999 V2000
  143.1050   77.6020  220.9300 H   0  0  0  0  0  0  0  0  0  0  0  0
  142.1780   77.9960  220.8410 O   0  0  0  0  0  0  0  0  0  0  0  0
  141.3070   78.1490  221.9230 C   0  0  0  0  0  0  0  0  0  0  0  0
  140.7730   77.1320  222.5360 N   0  0  0  0  0  0  0  0  0  0  0  0
  139.4370   76.6300  222.3620 C   0  0  0  0  0  0  0  0  0  0  0  0
  138.3660   77.2180  223.0600 C   0  0  0  0  0  0  0  0  0  0  0  0
  138.5432   78.1080  223.6817 H   0  0  0  0  0  0  0  0  0  0  0  0
  137.0800   76.6810  222.9700 C   0  0  0  0  0  0  0  0  0  0  0  0
  136.2449   77.1625  223.4999 H   0  0  0  0  0  0  0  0  0  0  0  0
  136.8540   75.5350  222.2090 C   0  0  0  0  0  0  0  0  0  0  0  0
  135.8394   75.1168  222.1335 H   0  0  0  0  0  0  0  0  0  0  0  0
  137.9150   74.9170  221.5420 C   0  0  0  0  0  0  0  0  0  0  0  0
  137.7321   74.0045  220.9556 H   0  0  0  0  0  0  0  0  0  0  0  0
  139.2140   75.4500  221.6130 C   0  0  0  0  0  0  0  0  0  0  0  0
  140.3170   74.7770  220.8810 C   0  0  0  0  0  0  0  0  0  0  0  0
  140.0500   73.9550  219.9640 O   0  0  0  0  0  0  0  0  0  0  0  0
  141.6860   75.0700  221.1970 N   0  0  0  0  0  0  0  0  0  0  0  0
  141.9060   75.9830  221.6530 H   0  0  0  0  0  0  0  0  0  0  0  0
  142.7780   74.2790  220.7040 C   0  0  0  0  0  0  0  0  0  0  0  0
  142.7660   72.8930  220.9050 C   0  0  0  0  0  0  0  0  0  0  0  0
  141.9156   72.4234  221.4210 H   0  0  0  0  0  0  0  0  0  0  0  0
  143.8260   72.1030  220.4550 C   0  0  0  0  0  0  0  0  0  0  0  0
  143.8123   71.0180  220.6356 H   0  0  0  0  0  0  0  0  0  0  0  0
  144.9060   72.6800  219.7760 C   0  0  0  0  0  0  0  0  0  0  0  0
  145.9460   71.8420  219.3470 O   0  0  0  0  0  0  0  0  0  0  0  0
  145.7750   70.4840  218.9560 C   0  0  0  0  0  0  0  0  0  0  0  0
  145.6954   69.8516  219.8525 H   0  0  0  0  0  0  0  0  0  0  0  0
  144.8576   70.3877  218.3567 H   0  0  0  0  0  0  0  0  0  0  0  0
  146.6398   70.1633  218.3567 H   0  0  0  0  0  0  0  0  0  0  0  0
  144.9120   74.0700  219.5520 C   0  0  0  0  0  0  0  0  0  0  0  0
  145.7597   74.5344  219.0269 H   0  0  0  0  0  0  0  0  0  0  0  0
  143.8460   74.8670  219.9930 C   0  0  0  0  0  0  0  0  0  0  0  0
  143.8640   76.2360  219.7170 O   0  0  0  0  0  0  0  0  0  0  0  0
  143.3230   76.7580  218.5090 C   0  0  0  0  0  0  0  0  0  0  0  0
  142.5499   77.5039  218.7457 H   0  0  0  0  0  0  0  0  0  0  0  0
  144.1240   77.2332  217.9237 H   0  0  0  0  0  0  0  0  0  0  0  0
  142.8768   75.9405  217.9237 H   0  0  0  0  0  0  0  0  0  0  0  0
  141.0360   79.5300  222.4330 C   0  0  0  0  0  0  0  0  0  0  0  0
  139.9497   79.6736  222.5301 H   0  0  0  0  0  0  0  0  0  0  0  0
  141.4525   80.2599  221.7233 H   0  0  0  0  0  0  0  0  0  0  0  0
  141.6960   79.7350  223.8000 C   0  0  0  0  0  0  0  0  0  0  0  0
  141.9175   78.7527  224.2428 H   0  0  0  0  0  0  0  0  0  0  0  0
  141.0036   80.3009  224.4406 H   0  0  0  0  0  0  0  0  0  0  0  0
  142.9930   80.5270  223.6710 C   0  0  0  0  0  0  0  0  0  0  0  0
  143.3797   80.7631  224.6734 H   0  0  0  0  0  0  0  0  0  0  0  0
  143.7355   79.9280  223.1233 H   0  0  0  0  0  0  0  0  0  0  0  0
  142.7993   81.4611  223.1233 H   0  0  0  0  0  0  0  0  0  0  0  0
  1  2  1  0
  2  3  1  0
  3  4  2  0
  4  5  1  0
  5  6  2  0
  6  7  1  0
  6  8  1  0
  8  9  1  0
  8 10  2  0
 10 11  1  0
 10 12  1  0
 12 13  1  0
 12 14  2  0
 14 15  1  0
 15 16  2  0
 15 17  1  0
 17 18  1  0
 17 19  1  0
 19 20  2  0
 20 21  1  0
 20 22  1  0
 22 23  1  0
 22 24  2  0
 24 25  1  0
 25 26  1  0
 26 27  1  0
 26 28  1  0
 26 29  1  0
 24 30  1  0
 30 31  1  0
 30 32  2  0
 32 33  1  0
 33 34  1  0
 34 35  1  0
 34 36  1  0
 34 37  1  0
  3 38  1  0
 38 39  1  0
 38 40  1  0
 38 41  1  0
 41 42  1  0
 41 43  1  0
 41 44  1  0
 44 45  1  0
 44 46  1  0
 44 47  1  0
 14  5  1  0
 32 19  1  0
M  END
>  <UniqueID>  (47) 
11

>  <SMILES>  (47) 
CCC/C(O)=N/c1ccccc1C(=O)Nc1ccc(OC)cc1OC

>  <Energy>  (47) 
60.59000813245773

>  <Genealogy>  (47) 
CCCC(O)=Nc1ccccc1C(=O)Nc1ccc(OC)cc1OC (tautomer)
CCC/C(O)=N/c1ccccc1C(=O)Nc1ccc(OC)cc1OC (cis-trans isomerization)
CCC/C(O)=N/c1ccccc1C(=O)Nc1ccc(OC)cc1OC (3D coordinates assigned)
CCC/C(O)=N/c1ccccc1C(=O)Nc1ccc(OC)cc1OC (optimized conformer: 60.59000813245773 kcal/mol)

>  <smiles>  (47) 
CCCC(=O)Nc1ccccc1C(=O)Nc1ccc(OC)cc1OC

>  <score_type>  (47) 
oracle

>  <origin>  (47) 
autodockgpu

>  <m_score__min__energy>  (47) 
-5.1299999999999999

>  <m_primary>  (47) 
energy

>  <meeko>  (47) 
{"free_energy": -5.1, "intermolecular_energy": -7.79, "internal_energy": -3.19, "cluster_size": 7, "cluster_id": 1, "rank_in_cluster": 4}

>  <energy>  (47) 
-5.06

>  <cluster_rmsd>  (47) 
0.3

>  <rmsd>  (47) 
271.84

>  <cluster>  (47) 
1

$$$$
XACSTBCXFQXDPE-MDQZRGDRNA-N
     RDKit          3D

 47 48  0  0  0  0  0  0  0  0999 V2000
  138.8690   73.9270  222.7420 H   0  0  0  0  0  0  0  0  0  0  0  0
  139.8610   73.7390  222.7160 O   0  0  0  0  0  0  0  0  0  0  0  0
  140.4320   72.7640  221.8930 C   0  0  0  0  0  0  0  0  0  0  0  0
  140.9670   73.0510  220.7410 N   0  0  0  0  0  0  0  0  0  0  0  0
  142.3710   73.1640  220.4520 C   0  0  0  0  0  0  0  0  0  0  0  0
  143.1560   72.0050  220.3060 C   0  0  0  0  0  0  0  0  0  0  0  0
  142.6785   71.0147  220.3411 H   0  0  0  0  0  0  0  0  0  0  0  0
  144.5360   72.1020  220.1170 C   0  0  0  0  0  0  0  0  0  0  0  0
  145.1377   71.1913  219.9807 H   0  0  0  0  0  0  0  0  0  0  0  0
  145.1510   73.3520  220.1010 C   0  0  0  0  0  0  0  0  0  0  0  0
  146.2371   73.4274  219.9440 H   0  0  0  0  0  0  0  0  0  0  0  0
  144.3910   74.5100  220.2840 C   0  0  0  0  0  0  0  0  0  0  0  0
  144.8862   75.4923  220.2865 H   0  0  0  0  0  0  0  0  0  0  0  0
  142.9990   74.4310  220.4650 C   0  0  0  0  0  0  0  0  0  0  0  0
  142.2170   75.6820  220.6430 C   0  0  0  0  0  0  0  0  0  0  0  0
  142.4440   76.6730  219.8990 O   0  0  0  0  0  0  0  0  0  0  0  0
  141.1910   75.7640  221.6430 N   0  0  0  0  0  0  0  0  0  0  0  0
  140.7520   74.8770  221.9780 H   0  0  0  0  0  0  0  0  0  0  0  0
  140.5810   77.0060  222.0230 C   0  0  0  0  0  0  0  0  0  0  0  0
  141.3640   78.1660  222.0720 C   0  0  0  0  0  0  0  0  0  0  0  0
  142.4295   78.1177  221.8032 H   0  0  0  0  0  0  0  0  0  0  0  0
  140.8010   79.3840  222.4600 C   0  0  0  0  0  0  0  0  0  0  0  0
  141.4313   80.2841  222.5107 H   0  0  0  0  0  0  0  0  0  0  0  0
  139.4420   79.4700  222.7850 C   0  0  0  0  0  0  0  0  0  0  0  0
  138.9280   80.7160  223.1710 O   0  0  0  0  0  0  0  0  0  0  0  0
  138.1000   80.9270  224.3090 C   0  0  0  0  0  0  0  0  0  0  0  0
  138.6903   80.7766  225.2249 H   0  0  0  0  0  0  0  0  0  0  0  0
  137.7066   81.9541  224.2909 H   0  0  0  0  0  0  0  0  0  0  0  0
  137.2630   80.2134  224.2909 H   0  0  0  0  0  0  0  0  0  0  0  0
  138.6470   78.3100  222.7160 C   0  0  0  0  0  0  0  0  0  0  0  0
  137.5797   78.3642  222.9766 H   0  0  0  0  0  0  0  0  0  0  0  0
  139.2040   77.0860  222.3180 C   0  0  0  0  0  0  0  0  0  0  0  0
  138.3770   75.9650  222.2200 O   0  0  0  0  0  0  0  0  0  0  0  0
  137.0440   75.9790  222.7180 C   0  0  0  0  0  0  0  0  0  0  0  0
  137.0635   75.9788  223.8178 H   0  0  0  0  0  0  0  0  0  0  0  0
  136.5285   76.8826  222.3606 H   0  0  0  0  0  0  0  0  0  0  0  0
  136.5097   75.0864  222.3606 H   0  0  0  0  0  0  0  0  0  0  0  0
  140.4870   71.3520  222.3890 C   0  0  0  0  0  0  0  0  0  0  0  0
  141.5368   71.0643  222.5477 H   0  0  0  0  0  0  0  0  0  0  0  0
  140.0231   70.6928  221.6405 H   0  0  0  0  0  0  0  0  0  0  0  0
  139.7220   71.2190  223.7100 C   0  0  0  0  0  0  0  0  0  0  0  0
  139.1345   70.2892  223.6930 H   0  0  0  0  0  0  0  0  0  0  0  0
  139.0614   72.0915  223.8207 H   0  0  0  0  0  0  0  0  0  0  0  0
  140.6790   71.1820  224.8970 C   0  0  0  0  0  0  0  0  0  0  0  0
  140.1025   71.2043  225.8336 H   0  0  0  0  0  0  0  0  0  0  0  0
  141.2776   70.2600  224.8568 H   0  0  0  0  0  0  0  0  0  0  0  0
  141.3470   72.0550  224.8568 H   0  0  0  0  0  0  0  0  0  0  0  0
  1  2  1  0
  2  3  1  0
  3  4  2  0
  4  5  1  0
  5  6  2  0
  6  7  1  0
  6  8  1  0
  8  9  1  0
  8 10  2  0
 10 11  1  0
 10 12  1  0
 12 13  1  0
 12 14  2  0
 14 15  1  0
 15 16  2  0
 15 17  1  0
 17 18  1  0
 17 19  1  0
 19 20  2  0
 20 21  1  0
 20 22  1  0
 22 23  1  0
 22 24  2  0
 24 25  1  0
 25 26  1  0
 26 27  1  0
 26 28  1  0
 26 29  1  0
 24 30  1  0
 30 31  1  0
 30 32  2  0
 32 33  1  0
 33 34  1  0
 34 35  1  0
 34 36  1  0
 34 37  1  0
  3 38  1  0
 38 39  1  0
 38 40  1  0
 38 41  1  0
 41 42  1  0
 41 43  1  0
 41 44  1  0
 44 45  1  0
 44 46  1  0
 44 47  1  0
 14  5  1  0
 32 19  1  0
M  END
>  <UniqueID>  (48) 
11

>  <SMILES>  (48) 
CCC/C(O)=N/c1ccccc1C(=O)Nc1ccc(OC)cc1OC

>  <Energy>  (48) 
60.59000813245773

>  <Genealogy>  (48) 
CCCC(O)=Nc1ccccc1C(=O)Nc1ccc(OC)cc1OC (tautomer)
CCC/C(O)=N/c1ccccc1C(=O)Nc1ccc(OC)cc1OC (cis-trans isomerization)
CCC/C(O)=N/c1ccccc1C(=O)Nc1ccc(OC)cc1OC (3D coordinates assigned)
CCC/C(O)=N/c1ccccc1C(=O)Nc1ccc(OC)cc1OC (optimized conformer: 60.59000813245773 kcal/mol)

>  <smiles>  (48) 
CCCC(=O)Nc1ccccc1C(=O)Nc1ccc(OC)cc1OC

>  <score_type>  (48) 
oracle

>  <origin>  (48) 
autodockgpu

>  <m_score__min__energy>  (48) 
-5.1299999999999999

>  <m_primary>  (48) 
energy

>  <meeko>  (48) 
{"free_energy": -4.98, "intermolecular_energy": -7.66, "internal_energy": -3.22, "cluster_size": 6, "cluster_id": 3, "rank_in_cluster": 2}

>  <energy>  (48) 
-5.12

>  <cluster_rmsd>  (48) 
0.0

>  <rmsd>  (48) 
271.94

>  <cluster>  (48) 
2

$$$$
XACSTBCXFQXDPE-MDQZRGDRNA-N
     RDKit          3D

 47 48  0  0  0  0  0  0  0  0999 V2000
  143.5630   77.1840  219.9360 H   0  0  0  0  0  0  0  0  0  0  0  0
  144.0860   76.3310  220.0810 O   0  0  0  0  0  0  0  0  0  0  0  0
  143.5230   75.0590  219.9520 C   0  0  0  0  0  0  0  0  0  0  0  0
  142.2370   74.8700  219.8710 N   0  0  0  0  0  0  0  0  0  0  0  0
  141.4640   73.9040  220.6010 C   0  0  0  0  0  0  0  0  0  0  0  0
  141.5150   72.5440  220.2440 C   0  0  0  0  0  0  0  0  0  0  0  0
  142.2044   72.2134  219.4531 H   0  0  0  0  0  0  0  0  0  0  0  0
  140.6980   71.6100  220.8850 C   0  0  0  0  0  0  0  0  0  0  0  0
  140.7618   70.5458  220.6139 H   0  0  0  0  0  0  0  0  0  0  0  0
  139.8020   72.0260  221.8680 C   0  0  0  0  0  0  0  0  0  0  0  0
  139.1647   71.2885  222.3778 H   0  0  0  0  0  0  0  0  0  0  0  0
  139.7120   73.3790  222.2070 C   0  0  0  0  0  0  0  0  0  0  0  0
  138.9919   73.7019  222.9733 H   0  0  0  0  0  0  0  0  0  0  0  0
  140.5330   74.3310  221.5780 C   0  0  0  0  0  0  0  0  0  0  0  0
  140.4230   75.7590  221.9700 C   0  0  0  0  0  0  0  0  0  0  0  0
  139.4120   76.1570  222.6090 O   0  0  0  0  0  0  0  0  0  0  0  0
  141.4690   76.6870  221.6440 N   0  0  0  0  0  0  0  0  0  0  0  0
  142.4290   76.3140  221.4750 H   0  0  0  0  0  0  0  0  0  0  0  0
  141.3080   78.1070  221.7750 C   0  0  0  0  0  0  0  0  0  0  0  0
  140.8220   78.6330  222.9790 C   0  0  0  0  0  0  0  0  0  0  0  0
  140.5853   77.9575  223.8142 H   0  0  0  0  0  0  0  0  0  0  0  0
  140.6360   80.0100  223.1260 C   0  0  0  0  0  0  0  0  0  0  0  0
  140.2379   80.4086  224.0708 H   0  0  0  0  0  0  0  0  0  0  0  0
  140.9520   80.8870  222.0810 C   0  0  0  0  0  0  0  0  0  0  0  0
  140.7440   82.2600  222.2800 O   0  0  0  0  0  0  0  0  0  0  0  0
  140.5540   83.2040  221.2310 C   0  0  0  0  0  0  0  0  0  0  0  0
  140.3543   84.1961  221.6622 H   0  0  0  0  0  0  0  0  0  0  0  0
  141.4609   83.2498  220.6102 H   0  0  0  0  0  0  0  0  0  0  0  0
  139.7000   82.8954  220.6102 H   0  0  0  0  0  0  0  0  0  0  0  0
  141.4620   80.3640  220.8770 C   0  0  0  0  0  0  0  0  0  0  0  0
  141.7070   81.0436  220.0475 H   0  0  0  0  0  0  0  0  0  0  0  0
  141.6600   78.9840  220.7270 C   0  0  0  0  0  0  0  0  0  0  0  0
  142.2070   78.5040  219.5360 O   0  0  0  0  0  0  0  0  0  0  0  0
  141.3990   77.8780  218.5460 C   0  0  0  0  0  0  0  0  0  0  0  0
  140.6204   77.2748  219.0359 H   0  0  0  0  0  0  0  0  0  0  0  0
  140.9259   78.6476  217.9184 H   0  0  0  0  0  0  0  0  0  0  0  0
  142.0261   77.2276  217.9184 H   0  0  0  0  0  0  0  0  0  0  0  0
  144.4400   73.8800  219.8350 C   0  0  0  0  0  0  0  0  0  0  0  0
  144.6662   73.7011  218.7735 H   0  0  0  0  0  0  0  0  0  0  0  0
  143.9452   72.9994  220.2706 H   0  0  0  0  0  0  0  0  0  0  0  0
  145.7460   74.1400  220.5920 C   0  0  0  0  0  0  0  0  0  0  0  0
  145.6590   75.0880  221.1430 H   0  0  0  0  0  0  0  0  0  0  0  0
  146.5679   74.1901  219.8627 H   0  0  0  0  0  0  0  0  0  0  0  0
  146.0430   73.0160  221.5790 C   0  0  0  0  0  0  0  0  0  0  0  0
  145.9429   73.3947  222.6069 H   0  0  0  0  0  0  0  0  0  0  0  0
  145.3318   72.1918  221.4210 H   0  0  0  0  0  0  0  0  0  0  0  0
  147.0685   72.6507  221.4210 H   0  0  0  0  0  0  0  0  0  0  0  0
  1  2  1  0
  2  3  1  0
  3  4  2  0
  4  5  1  0
  5  6  2  0
  6  7  1  0
  6  8  1  0
  8  9  1  0
  8 10  2  0
 10 11  1  0
 10 12  1  0
 12 13  1  0
 12 14  2  0
 14 15  1  0
 15 16  2  0
 15 17  1  0
 17 18  1  0
 17 19  1  0
 19 20  2  0
 20 21  1  0
 20 22  1  0
 22 23  1  0
 22 24  2  0
 24 25  1  0
 25 26  1  0
 26 27  1  0
 26 28  1  0
 26 29  1  0
 24 30  1  0
 30 31  1  0
 30 32  2  0
 32 33  1  0
 33 34  1  0
 34 35  1  0
 34 36  1  0
 34 37  1  0
  3 38  1  0
 38 39  1  0
 38 40  1  0
 38 41  1  0
 41 42  1  0
 41 43  1  0
 41 44  1  0
 44 45  1  0
 44 46  1  0
 44 47  1  0
 14  5  1  0
 32 19  1  0
M  END
>  <UniqueID>  (49) 
11

>  <SMILES>  (49) 
CCC/C(O)=N/c1ccccc1C(=O)Nc1ccc(OC)cc1OC

>  <Energy>  (49) 
60.59000813245773

>  <Genealogy>  (49) 
CCCC(O)=Nc1ccccc1C(=O)Nc1ccc(OC)cc1OC (tautomer)
CCC/C(O)=N/c1ccccc1C(=O)Nc1ccc(OC)cc1OC (cis-trans isomerization)
CCC/C(O)=N/c1ccccc1C(=O)Nc1ccc(OC)cc1OC (3D coordinates assigned)
CCC/C(O)=N/c1ccccc1C(=O)Nc1ccc(OC)cc1OC (optimized conformer: 60.59000813245773 kcal/mol)

>  <smiles>  (49) 
CCCC(=O)Nc1ccccc1C(=O)Nc1ccc(OC)cc1OC

>  <score_type>  (49) 
oracle

>  <origin>  (49) 
autodockgpu

>  <m_score__min__energy>  (49) 
-5.1299999999999999

>  <m_primary>  (49) 
energy

>  <meeko>  (49) 
{"free_energy": -4.75, "intermolecular_energy": -7.43, "internal_energy": -3.25, "cluster_size": 1, "cluster_id": 4, "rank_in_cluster": 1}

>  <energy>  (49) 
-5.11

>  <cluster_rmsd>  (49) 
0.15

>  <rmsd>  (49) 
271.97

>  <cluster>  (49) 
2

$$$$
XACSTBCXFQXDPE-MDQZRGDRNA-N
     RDKit          3D

 47 48  0  0  0  0  0  0  0  0999 V2000
  143.1340   77.6880  220.9090 H   0  0  0  0  0  0  0  0  0  0  0  0
  142.1800   78.0220  220.8860 O   0  0  0  0  0  0  0  0  0  0  0  0
  141.3890   78.1550  222.0300 C   0  0  0  0  0  0  0  0  0  0  0  0
  140.8090   77.1370  222.5980 N   0  0  0  0  0  0  0  0  0  0  0  0
  139.4640   76.6820  222.3760 C   0  0  0  0  0  0  0  0  0  0  0  0
  138.3940   77.2810  223.0660 C   0  0  0  0  0  0  0  0  0  0  0  0
  138.5825   78.1452  223.7199 H   0  0  0  0  0  0  0  0  0  0  0  0
  137.0950   76.7880  222.9280 C   0  0  0  0  0  0  0  0  0  0  0  0
  136.2618   77.2791  223.4519 H   0  0  0  0  0  0  0  0  0  0  0  0
  136.8540   75.6730  222.1260 C   0  0  0  0  0  0  0  0  0  0  0  0
  135.8294   75.2890  222.0131 H   0  0  0  0  0  0  0  0  0  0  0  0
  137.9110   75.0430  221.4660 C   0  0  0  0  0  0  0  0  0  0  0  0
  137.7149   74.1550  220.8471 H   0  0  0  0  0  0  0  0  0  0  0  0
  139.2240   75.5330  221.5850 C   0  0  0  0  0  0  0  0  0  0  0  0
  140.3240   74.8490  220.8590 C   0  0  0  0  0  0  0  0  0  0  0  0
  140.0550   74.0490  219.9230 O   0  0  0  0  0  0  0  0  0  0  0  0
  141.6940   75.1050  221.2030 N   0  0  0  0  0  0  0  0  0  0  0  0
  141.9260   76.0050  221.6790 H   0  0  0  0  0  0  0  0  0  0  0  0
  142.7760   74.3000  220.7140 C   0  0  0  0  0  0  0  0  0  0  0  0
  142.7470   72.9150  220.9210 C   0  0  0  0  0  0  0  0  0  0  0  0
  141.8905   72.4578  221.4381 H   0  0  0  0  0  0  0  0  0  0  0  0
  143.7990   72.1100  220.4750 C   0  0  0  0  0  0  0  0  0  0  0  0
  143.7726   71.0261  220.6607 H   0  0  0  0  0  0  0  0  0  0  0  0
  144.8860   72.6710  219.7940 C   0  0  0  0  0  0  0  0  0  0  0  0
  145.9160   71.8190  219.3690 O   0  0  0  0  0  0  0  0  0  0  0  0
  145.7280   70.4620  218.9820 C   0  0  0  0  0  0  0  0  0  0  0  0
  145.6409   69.8332  219.8803 H   0  0  0  0  0  0  0  0  0  0  0  0
  144.8093   70.3754  218.3833 H   0  0  0  0  0  0  0  0  0  0  0  0
  146.5886   70.1289  218.3833 H   0  0  0  0  0  0  0  0  0  0  0  0
  144.9080   74.0600  219.5640 C   0  0  0  0  0  0  0  0  0  0  0  0
  145.7613   74.5121  219.0372 H   0  0  0  0  0  0  0  0  0  0  0  0
  143.8510   74.8720  220.0010 C   0  0  0  0  0  0  0  0  0  0  0  0
  143.8850   76.2390  219.7190 O   0  0  0  0  0  0  0  0  0  0  0  0
  143.3160   76.7670  218.5270 C   0  0  0  0  0  0  0  0  0  0  0  0
  142.5323   77.4942  218.7857 H   0  0  0  0  0  0  0  0  0  0  0  0
  144.0988   77.2659  217.9368 H   0  0  0  0  0  0  0  0  0  0  0  0
  142.8769   75.9492  217.9368 H   0  0  0  0  0  0  0  0  0  0  0  0
  141.2640   79.5070  222.6600 C   0  0  0  0  0  0  0  0  0  0  0  0
  140.7016   79.4175  223.6011 H   0  0  0  0  0  0  0  0  0  0  0  0
  140.7354   80.1763  221.9653 H   0  0  0  0  0  0  0  0  0  0  0  0
  142.6500   80.0910  222.9540 C   0  0  0  0  0  0  0  0  0  0  0  0
  143.0573   80.5311  222.0318 H   0  0  0  0  0  0  0  0  0  0  0  0
  143.3004   79.2812  223.3163 H   0  0  0  0  0  0  0  0  0  0  0  0
  142.5750   81.1700  224.0300 C   0  0  0  0  0  0  0  0  0  0  0  0
  142.6077   80.6996  225.0238 H   0  0  0  0  0  0  0  0  0  0  0  0
  143.4276   81.8564  223.9210 H   0  0  0  0  0  0  0  0  0  0  0  0
  141.6356   81.7319  223.9210 H   0  0  0  0  0  0  0  0  0  0  0  0
  1  2  1  0
  2  3  1  0
  3  4  2  0
  4  5  1  0
  5  6  2  0
  6  7  1  0
  6  8  1  0
  8  9  1  0
  8 10  2  0
 10 11  1  0
 10 12  1  0
 12 13  1  0
 12 14  2  0
 14 15  1  0
 15 16  2  0
 15 17  1  0
 17 18  1  0
 17 19  1  0
 19 20  2  0
 20 21  1  0
 20 22  1  0
 22 23  1  0
 22 24  2  0
 24 25  1  0
 25 26  1  0
 26 27  1  0
 26 28  1  0
 26 29  1  0
 24 30  1  0
 30 31  1  0
 30 32  2  0
 32 33  1  0
 33 34  1  0
 34 35  1  0
 34 36  1  0
 34 37  1  0
  3 38  1  0
 38 39  1  0
 38 40  1  0
 38 41  1  0
 41 42  1  0
 41 43  1  0
 41 44  1  0
 44 45  1  0
 44 46  1  0
 44 47  1  0
 14  5  1  0
 32 19  1  0
M  END
>  <UniqueID>  (50) 
11

>  <SMILES>  (50) 
CCC/C(O)=N/c1ccccc1C(=O)Nc1ccc(OC)cc1OC

>  <Energy>  (50) 
60.59000813245773

>  <Genealogy>  (50) 
CCCC(O)=Nc1ccccc1C(=O)Nc1ccc(OC)cc1OC (tautomer)
CCC/C(O)=N/c1ccccc1C(=O)Nc1ccc(OC)cc1OC (cis-trans isomerization)
CCC/C(O)=N/c1ccccc1C(=O)Nc1ccc(OC)cc1OC (3D coordinates assigned)
CCC/C(O)=N/c1ccccc1C(=O)Nc1ccc(OC)cc1OC (optimized conformer: 60.59000813245773 kcal/mol)

>  <smiles>  (50) 
CCCC(=O)Nc1ccccc1C(=O)Nc1ccc(OC)cc1OC

>  <score_type>  (50) 
oracle

>  <origin>  (50) 
autodockgpu

>  <m_score__min__energy>  (50) 
-5.1299999999999999

>  <m_primary>  (50) 
energy

>  <meeko>  (50) 
{"free_energy": -5.11, "intermolecular_energy": -7.8, "internal_energy": -3.15, "cluster_size": 7, "cluster_id": 1, "rank_in_cluster": 3}

>  <energy>  (50) 
-5.11

>  <cluster_rmsd>  (50) 
0.13

>  <rmsd>  (50) 
271.97

>  <cluster>  (50) 
2

$$$$
XACSTBCXFQXDPE-MDQZRGDRNA-N
     RDKit          3D

 47 48  0  0  0  0  0  0  0  0999 V2000
  138.9440   73.9580  222.7900 H   0  0  0  0  0  0  0  0  0  0  0  0
  139.9180   73.6940  222.7200 O   0  0  0  0  0  0  0  0  0  0  0  0
  140.3870   72.7400  221.8140 C   0  0  0  0  0  0  0  0  0  0  0  0
  140.9310   73.0670  220.6770 N   0  0  0  0  0  0  0  0  0  0  0  0
  142.3370   73.1690  220.3950 C   0  0  0  0  0  0  0  0  0  0  0  0
  143.1100   72.0040  220.2340 C   0  0  0  0  0  0  0  0  0  0  0  0
  142.6216   71.0185  220.2509 H   0  0  0  0  0  0  0  0  0  0  0  0
  144.4920   72.0890  220.0530 C   0  0  0  0  0  0  0  0  0  0  0  0
  145.0844   71.1742  219.9041 H   0  0  0  0  0  0  0  0  0  0  0  0
  145.1210   73.3330  220.0610 C   0  0  0  0  0  0  0  0  0  0  0  0
  146.2087   73.3992  219.9110 H   0  0  0  0  0  0  0  0  0  0  0  0
  144.3730   74.4950  220.2590 C   0  0  0  0  0  0  0  0  0  0  0  0
  144.8788   75.4716  220.2791 H   0  0  0  0  0  0  0  0  0  0  0  0
  142.9790   74.4290  220.4330 C   0  0  0  0  0  0  0  0  0  0  0  0
  142.2100   75.6850  220.6280 C   0  0  0  0  0  0  0  0  0  0  0  0
  142.4490   76.6850  219.9000 O   0  0  0  0  0  0  0  0  0  0  0  0
  141.1830   75.7630  221.6280 N   0  0  0  0  0  0  0  0  0  0  0  0
  140.7340   74.8760  221.9490 H   0  0  0  0  0  0  0  0  0  0  0  0
  140.5860   77.0060  222.0260 C   0  0  0  0  0  0  0  0  0  0  0  0
  141.3720   78.1640  222.0560 C   0  0  0  0  0  0  0  0  0  0  0  0
  142.4299   78.1140  221.7587 H   0  0  0  0  0  0  0  0  0  0  0  0
  140.8220   79.3830  222.4610 C   0  0  0  0  0  0  0  0  0  0  0  0
  141.4553   80.2817  222.4980 H   0  0  0  0  0  0  0  0  0  0  0  0
  139.4720   79.4700  222.8200 C   0  0  0  0  0  0  0  0  0  0  0  0
  138.9700   80.7170  223.2210 O   0  0  0  0  0  0  0  0  0  0  0  0
  138.0120   80.9030  224.2580 C   0  0  0  0  0  0  0  0  0  0  0  0
  138.5067   80.8069  225.2358 H   0  0  0  0  0  0  0  0  0  0  0  0
  137.5658   81.9045  224.1696 H   0  0  0  0  0  0  0  0  0  0  0  0
  137.2234   80.1412  224.1696 H   0  0  0  0  0  0  0  0  0  0  0  0
  138.6720   78.3130  222.7700 C   0  0  0  0  0  0  0  0  0  0  0  0
  137.6120   78.3696  223.0585 H   0  0  0  0  0  0  0  0  0  0  0  0
  139.2160   77.0880  222.3550 C   0  0  0  0  0  0  0  0  0  0  0  0
  138.3850   75.9690  222.2760 O   0  0  0  0  0  0  0  0  0  0  0  0
  137.0300   76.0180  222.7080 C   0  0  0  0  0  0  0  0  0  0  0  0
  136.9955   76.0192  223.8075 H   0  0  0  0  0  0  0  0  0  0  0  0
  136.5560   76.9339  222.3252 H   0  0  0  0  0  0  0  0  0  0  0  0
  136.4911   75.1388  222.3252 H   0  0  0  0  0  0  0  0  0  0  0  0
  140.3210   71.2950  222.1990 C   0  0  0  0  0  0  0  0  0  0  0  0
  141.3410   70.8860  222.2476 H   0  0  0  0  0  0  0  0  0  0  0  0
  139.7311   70.7520  221.4459 H   0  0  0  0  0  0  0  0  0  0  0  0
  139.6480   71.1360  223.5660 C   0  0  0  0  0  0  0  0  0  0  0  0
  139.1310   70.1657  223.6010 H   0  0  0  0  0  0  0  0  0  0  0  0
  138.9328   71.9608  223.7009 H   0  0  0  0  0  0  0  0  0  0  0  0
  140.6730   71.1950  224.6940 C   0  0  0  0  0  0  0  0  0  0  0  0
  140.1537   71.1651  225.6632 H   0  0  0  0  0  0  0  0  0  0  0  0
  141.3539   70.3346  224.6161 H   0  0  0  0  0  0  0  0  0  0  0  0
  141.2506   72.1279  224.6161 H   0  0  0  0  0  0  0  0  0  0  0  0
  1  2  1  0
  2  3  1  0
  3  4  2  0
  4  5  1  0
  5  6  2  0
  6  7  1  0
  6  8  1  0
  8  9  1  0
  8 10  2  0
 10 11  1  0
 10 12  1  0
 12 13  1  0
 12 14  2  0
 14 15  1  0
 15 16  2  0
 15 17  1  0
 17 18  1  0
 17 19  1  0
 19 20  2  0
 20 21  1  0
 20 22  1  0
 22 23  1  0
 22 24  2  0
 24 25  1  0
 25 26  1  0
 26 27  1  0
 26 28  1  0
 26 29  1  0
 24 30  1  0
 30 31  1  0
 30 32  2  0
 32 33  1  0
 33 34  1  0
 34 35  1  0
 34 36  1  0
 34 37  1  0
  3 38  1  0
 38 39  1  0
 38 40  1  0
 38 41  1  0
 41 42  1  0
 41 43  1  0
 41 44  1  0
 44 45  1  0
 44 46  1  0
 44 47  1  0
 14  5  1  0
 32 19  1  0
M  END
>  <UniqueID>  (51) 
11

>  <SMILES>  (51) 
CCC/C(O)=N/c1ccccc1C(=O)Nc1ccc(OC)cc1OC

>  <Energy>  (51) 
60.59000813245773

>  <Genealogy>  (51) 
CCCC(O)=Nc1ccccc1C(=O)Nc1ccc(OC)cc1OC (tautomer)
CCC/C(O)=N/c1ccccc1C(=O)Nc1ccc(OC)cc1OC (cis-trans isomerization)
CCC/C(O)=N/c1ccccc1C(=O)Nc1ccc(OC)cc1OC (3D coordinates assigned)
CCC/C(O)=N/c1ccccc1C(=O)Nc1ccc(OC)cc1OC (optimized conformer: 60.59000813245773 kcal/mol)

>  <smiles>  (51) 
CCCC(=O)Nc1ccccc1C(=O)Nc1ccc(OC)cc1OC

>  <score_type>  (51) 
oracle

>  <origin>  (51) 
autodockgpu

>  <m_score__min__energy>  (51) 
-5.1299999999999999

>  <m_primary>  (51) 
energy

>  <meeko>  (51) 
{"free_energy": -4.96, "intermolecular_energy": -7.64, "internal_energy": -3.27, "cluster_size": 6, "cluster_id": 3, "rank_in_cluster": 3}

>  <energy>  (51) 
-5.07

>  <cluster_rmsd>  (51) 
0.43

>  <rmsd>  (51) 
272.0

>  <cluster>  (51) 
2

$$$$
XACSTBCXFQXDPE-MDQZRGDRNA-N
     RDKit          3D

 47 48  0  0  0  0  0  0  0  0999 V2000
  138.9380   73.9930  222.7850 H   0  0  0  0  0  0  0  0  0  0  0  0
  139.9010   73.6930  222.7150 O   0  0  0  0  0  0  0  0  0  0  0  0
  140.3410   72.7500  221.7830 C   0  0  0  0  0  0  0  0  0  0  0  0
  140.8960   73.0920  220.6560 N   0  0  0  0  0  0  0  0  0  0  0  0
  142.3050   73.1840  220.3860 C   0  0  0  0  0  0  0  0  0  0  0  0
  143.0680   72.0150  220.2140 C   0  0  0  0  0  0  0  0  0  0  0  0
  142.5702   71.0341  220.2134 H   0  0  0  0  0  0  0  0  0  0  0  0
  144.4520   72.0890  220.0440 C   0  0  0  0  0  0  0  0  0  0  0  0
  145.0364   71.1707  219.8856 H   0  0  0  0  0  0  0  0  0  0  0  0
  145.0930   73.3260  220.0750 C   0  0  0  0  0  0  0  0  0  0  0  0
  146.1824   73.3837  219.9339 H   0  0  0  0  0  0  0  0  0  0  0  0
  144.3540   74.4930  220.2850 C   0  0  0  0  0  0  0  0  0  0  0  0
  144.8690   75.4642  220.3239 H   0  0  0  0  0  0  0  0  0  0  0  0
  142.9590   74.4380  220.4470 C   0  0  0  0  0  0  0  0  0  0  0  0
  142.2000   75.6980  220.6540 C   0  0  0  0  0  0  0  0  0  0  0  0
  142.4510   76.7050  219.9390 O   0  0  0  0  0  0  0  0  0  0  0  0
  141.1700   75.7720  221.6510 N   0  0  0  0  0  0  0  0  0  0  0  0
  140.7120   74.8860  221.9590 H   0  0  0  0  0  0  0  0  0  0  0  0
  140.5820   77.0150  222.0610 C   0  0  0  0  0  0  0  0  0  0  0  0
  141.3790   78.1660  222.1120 C   0  0  0  0  0  0  0  0  0  0  0  0
  142.4383   78.1101  221.8208 H   0  0  0  0  0  0  0  0  0  0  0  0
  140.8380   79.3840  222.5300 C   0  0  0  0  0  0  0  0  0  0  0  0
  141.4797   80.2759  222.5830 H   0  0  0  0  0  0  0  0  0  0  0  0
  139.4870   79.4800  222.8820 C   0  0  0  0  0  0  0  0  0  0  0  0
  138.9940   80.7260  223.2970 O   0  0  0  0  0  0  0  0  0  0  0  0
  137.9930   80.9050  224.2930 C   0  0  0  0  0  0  0  0  0  0  0  0
  138.4495   80.8234  225.2905 H   0  0  0  0  0  0  0  0  0  0  0  0
  137.5361   81.8991  224.1791 H   0  0  0  0  0  0  0  0  0  0  0  0
  137.2199   80.1309  224.1791 H   0  0  0  0  0  0  0  0  0  0  0  0
  138.6760   78.3310  222.8120 C   0  0  0  0  0  0  0  0  0  0  0  0
  137.6149   78.3938  223.0951 H   0  0  0  0  0  0  0  0  0  0  0  0
  139.2110   77.1070  222.3840 C   0  0  0  0  0  0  0  0  0  0  0  0
  138.3700   75.9970  222.2850 O   0  0  0  0  0  0  0  0  0  0  0  0
  137.0370   76.0280  222.7800 C   0  0  0  0  0  0  0  0  0  0  0  0
  137.0542   76.0276  223.8799 H   0  0  0  0  0  0  0  0  0  0  0  0
  136.5338   76.9381  222.4215 H   0  0  0  0  0  0  0  0  0  0  0  0
  136.4920   75.1423  222.4215 H   0  0  0  0  0  0  0  0  0  0  0  0
  140.2290   71.2970  222.1280 C   0  0  0  0  0  0  0  0  0  0  0  0
  141.2324   70.8462  222.1279 H   0  0  0  0  0  0  0  0  0  0  0  0
  139.5914   70.8015  221.3811 H   0  0  0  0  0  0  0  0  0  0  0  0
  139.5980   71.1230  223.5130 C   0  0  0  0  0  0  0  0  0  0  0  0
  139.0922   70.1472  223.5572 H   0  0  0  0  0  0  0  0  0  0  0  0
  138.8785   71.9393  223.6740 H   0  0  0  0  0  0  0  0  0  0  0  0
  140.6550   71.1860  224.6100 C   0  0  0  0  0  0  0  0  0  0  0  0
  140.1643   71.1568  225.5941 H   0  0  0  0  0  0  0  0  0  0  0  0
  141.3351   70.3268  224.5137 H   0  0  0  0  0  0  0  0  0  0  0  0
  141.2282   72.1199  224.5137 H   0  0  0  0  0  0  0  0  0  0  0  0
  1  2  1  0
  2  3  1  0
  3  4  2  0
  4  5  1  0
  5  6  2  0
  6  7  1  0
  6  8  1  0
  8  9  1  0
  8 10  2  0
 10 11  1  0
 10 12  1  0
 12 13  1  0
 12 14  2  0
 14 15  1  0
 15 16  2  0
 15 17  1  0
 17 18  1  0
 17 19  1  0
 19 20  2  0
 20 21  1  0
 20 22  1  0
 22 23  1  0
 22 24  2  0
 24 25  1  0
 25 26  1  0
 26 27  1  0
 26 28  1  0
 26 29  1  0
 24 30  1  0
 30 31  1  0
 30 32  2  0
 32 33  1  0
 33 34  1  0
 34 35  1  0
 34 36  1  0
 34 37  1  0
  3 38  1  0
 38 39  1  0
 38 40  1  0
 38 41  1  0
 41 42  1  0
 41 43  1  0
 41 44  1  0
 44 45  1  0
 44 46  1  0
 44 47  1  0
 14  5  1  0
 32 19  1  0
M  END
>  <UniqueID>  (52) 
11

>  <SMILES>  (52) 
CCC/C(O)=N/c1ccccc1C(=O)Nc1ccc(OC)cc1OC

>  <Energy>  (52) 
60.59000813245773

>  <Genealogy>  (52) 
CCCC(O)=Nc1ccccc1C(=O)Nc1ccc(OC)cc1OC (tautomer)
CCC/C(O)=N/c1ccccc1C(=O)Nc1ccc(OC)cc1OC (cis-trans isomerization)
CCC/C(O)=N/c1ccccc1C(=O)Nc1ccc(OC)cc1OC (3D coordinates assigned)
CCC/C(O)=N/c1ccccc1C(=O)Nc1ccc(OC)cc1OC (optimized conformer: 60.59000813245773 kcal/mol)

>  <smiles>  (52) 
CCCC(=O)Nc1ccccc1C(=O)Nc1ccc(OC)cc1OC

>  <score_type>  (52) 
oracle

>  <origin>  (52) 
autodockgpu

>  <m_score__min__energy>  (52) 
-5.1299999999999999

>  <m_primary>  (52) 
energy

>  <meeko>  (52) 
{"free_energy": -4.93, "intermolecular_energy": -7.61, "internal_energy": -3.28, "cluster_size": 6, "cluster_id": 3, "rank_in_cluster": 5}

>  <energy>  (52) 
-5.0

>  <cluster_rmsd>  (52) 
0.0

>  <rmsd>  (52) 
271.91

>  <cluster>  (52) 
3

$$$$
XACSTBCXFQXDPE-MDQZRGDRNA-N
     RDKit          3D

 47 48  0  0  0  0  0  0  0  0999 V2000
  143.1130   77.6490  220.8470 H   0  0  0  0  0  0  0  0  0  0  0  0
  142.1690   78.0080  220.8130 O   0  0  0  0  0  0  0  0  0  0  0  0
  141.3680   78.1570  221.9480 C   0  0  0  0  0  0  0  0  0  0  0  0
  140.8130   77.1440  222.5480 N   0  0  0  0  0  0  0  0  0  0  0  0
  139.4720   76.6630  222.3600 C   0  0  0  0  0  0  0  0  0  0  0  0
  138.4050   77.2620  223.0560 C   0  0  0  0  0  0  0  0  0  0  0  0
  138.5917   78.1440  223.6863 H   0  0  0  0  0  0  0  0  0  0  0  0
  137.1120   76.7460  222.9530 C   0  0  0  0  0  0  0  0  0  0  0  0
  136.2808   77.2355  223.4816 H   0  0  0  0  0  0  0  0  0  0  0  0
  136.8740   75.6100  222.1800 C   0  0  0  0  0  0  0  0  0  0  0  0
  135.8535   75.2085  222.0938 H   0  0  0  0  0  0  0  0  0  0  0  0
  137.9290   74.9810  221.5150 C   0  0  0  0  0  0  0  0  0  0  0  0
  137.7361   74.0765  220.9195 H   0  0  0  0  0  0  0  0  0  0  0  0
  139.2360   75.4940  221.6000 C   0  0  0  0  0  0  0  0  0  0  0  0
  140.3340   74.8100  220.8700 C   0  0  0  0  0  0  0  0  0  0  0  0
  140.0610   73.9850  219.9580 O   0  0  0  0  0  0  0  0  0  0  0  0
  141.7060   75.0960  221.1830 N   0  0  0  0  0  0  0  0  0  0  0  0
  141.9310   76.0100  221.6340 H   0  0  0  0  0  0  0  0  0  0  0  0
  142.7910   74.2960  220.6930 C   0  0  0  0  0  0  0  0  0  0  0  0
  142.7710   72.9110  220.9010 C   0  0  0  0  0  0  0  0  0  0  0  0
  141.9186   72.4491  221.4207 H   0  0  0  0  0  0  0  0  0  0  0  0
  143.8260   72.1120  220.4530 C   0  0  0  0  0  0  0  0  0  0  0  0
  143.8057   71.0279  220.6381 H   0  0  0  0  0  0  0  0  0  0  0  0
  144.9080   72.6790  219.7710 C   0  0  0  0  0  0  0  0  0  0  0  0
  145.9430   71.8320  219.3450 O   0  0  0  0  0  0  0  0  0  0  0  0
  145.7640   70.4720  218.9660 C   0  0  0  0  0  0  0  0  0  0  0  0
  145.6819   69.8478  219.8680 H   0  0  0  0  0  0  0  0  0  0  0  0
  144.8454   70.3757  218.3685 H   0  0  0  0  0  0  0  0  0  0  0  0
  146.6264   70.1413  218.3685 H   0  0  0  0  0  0  0  0  0  0  0  0
  144.9230   74.0680  219.5400 C   0  0  0  0  0  0  0  0  0  0  0  0
  145.7733   74.5244  219.0120 H   0  0  0  0  0  0  0  0  0  0  0  0
  143.8620   74.8740  219.9780 C   0  0  0  0  0  0  0  0  0  0  0  0
  143.8890   76.2410  219.6960 O   0  0  0  0  0  0  0  0  0  0  0  0
  143.3270   76.7630  218.4970 C   0  0  0  0  0  0  0  0  0  0  0  0
  142.5421   77.4920  218.7470 H   0  0  0  0  0  0  0  0  0  0  0  0
  144.1135   77.2583  217.9087 H   0  0  0  0  0  0  0  0  0  0  0  0
  142.8910   75.9421  217.9087 H   0  0  0  0  0  0  0  0  0  0  0  0
  141.1990   79.5270  222.5290 C   0  0  0  0  0  0  0  0  0  0  0  0
  140.1775   79.6297  222.9240 H   0  0  0  0  0  0  0  0  0  0  0  0
  141.3762   80.2733  221.7405 H   0  0  0  0  0  0  0  0  0  0  0  0
  142.2040   79.7540  223.6630 C   0  0  0  0  0  0  0  0  0  0  0  0
  143.1424   79.2338  223.4206 H   0  0  0  0  0  0  0  0  0  0  0  0
  141.7728   79.3604  224.5953 H   0  0  0  0  0  0  0  0  0  0  0  0
  142.4930   81.2400  223.8530 C   0  0  0  0  0  0  0  0  0  0  0  0
  142.5378   81.4703  224.9277 H   0  0  0  0  0  0  0  0  0  0  0  0
  143.4564   81.4890  223.3842 H   0  0  0  0  0  0  0  0  0  0  0  0
  141.6932   81.8320  223.3842 H   0  0  0  0  0  0  0  0  0  0  0  0
  1  2  1  0
  2  3  1  0
  3  4  2  0
  4  5  1  0
  5  6  2  0
  6  7  1  0
  6  8  1  0
  8  9  1  0
  8 10  2  0
 10 11  1  0
 10 12  1  0
 12 13  1  0
 12 14  2  0
 14 15  1  0
 15 16  2  0
 15 17  1  0
 17 18  1  0
 17 19  1  0
 19 20  2  0
 20 21  1  0
 20 22  1  0
 22 23  1  0
 22 24  2  0
 24 25  1  0
 25 26  1  0
 26 27  1  0
 26 28  1  0
 26 29  1  0
 24 30  1  0
 30 31  1  0
 30 32  2  0
 32 33  1  0
 33 34  1  0
 34 35  1  0
 34 36  1  0
 34 37  1  0
  3 38  1  0
 38 39  1  0
 38 40  1  0
 38 41  1  0
 41 42  1  0
 41 43  1  0
 41 44  1  0
 44 45  1  0
 44 46  1  0
 44 47  1  0
 14  5  1  0
 32 19  1  0
M  END
>  <UniqueID>  (53) 
11

>  <SMILES>  (53) 
CCC/C(O)=N/c1ccccc1C(=O)Nc1ccc(OC)cc1OC

>  <Energy>  (53) 
60.59000813245773

>  <Genealogy>  (53) 
CCCC(O)=Nc1ccccc1C(=O)Nc1ccc(OC)cc1OC (tautomer)
CCC/C(O)=N/c1ccccc1C(=O)Nc1ccc(OC)cc1OC (cis-trans isomerization)
CCC/C(O)=N/c1ccccc1C(=O)Nc1ccc(OC)cc1OC (3D coordinates assigned)
CCC/C(O)=N/c1ccccc1C(=O)Nc1ccc(OC)cc1OC (optimized conformer: 60.59000813245773 kcal/mol)

>  <smiles>  (53) 
CCCC(=O)Nc1ccccc1C(=O)Nc1ccc(OC)cc1OC

>  <score_type>  (53) 
oracle

>  <origin>  (53) 
autodockgpu

>  <m_score__min__energy>  (53) 
-5.1299999999999999

>  <m_primary>  (53) 
energy

>  <meeko>  (53) 
{"free_energy": -5.1, "intermolecular_energy": -7.79, "internal_energy": -3.17, "cluster_size": 7, "cluster_id": 1, "rank_in_cluster": 5}

>  <energy>  (53) 
-4.98

>  <cluster_rmsd>  (53) 
0.11

>  <rmsd>  (53) 
271.9

>  <cluster>  (53) 
3

$$$$
XACSTBCXFQXDPE-MDQZRGDRNA-N
     RDKit          3D

 47 48  0  0  0  0  0  0  0  0999 V2000
  141.8300   76.5340  222.6950 H   0  0  0  0  0  0  0  0  0  0  0  0
  141.4500   77.3440  223.1640 O   0  0  0  0  0  0  0  0  0  0  0  0
  141.0080   78.4830  222.4860 C   0  0  0  0  0  0  0  0  0  0  0  0
  140.7430   78.4750  221.2110 N   0  0  0  0  0  0  0  0  0  0  0  0
  141.3250   79.3250  220.2080 C   0  0  0  0  0  0  0  0  0  0  0  0
  140.9530   80.6800  220.1310 C   0  0  0  0  0  0  0  0  0  0  0  0
  140.2734   81.1030  220.8854 H   0  0  0  0  0  0  0  0  0  0  0  0
  141.4400   81.4920  219.1040 C   0  0  0  0  0  0  0  0  0  0  0  0
  141.1621   82.5556  219.0654 H   0  0  0  0  0  0  0  0  0  0  0  0
  142.2780   80.9550  218.1280 C   0  0  0  0  0  0  0  0  0  0  0  0
  142.6668   81.5974  217.3242 H   0  0  0  0  0  0  0  0  0  0  0  0
  142.6250   79.6020  218.1690 C   0  0  0  0  0  0  0  0  0  0  0  0
  143.2747   79.1818  217.3871 H   0  0  0  0  0  0  0  0  0  0  0  0
  142.1510   78.7730  219.2010 C   0  0  0  0  0  0  0  0  0  0  0  0
  142.5490   77.3420  219.2240 C   0  0  0  0  0  0  0  0  0  0  0  0
  143.0100   76.8030  218.1830 O   0  0  0  0  0  0  0  0  0  0  0  0
  142.4290   76.5720  220.4300 N   0  0  0  0  0  0  0  0  0  0  0  0
  142.4210   77.0780  221.3430 H   0  0  0  0  0  0  0  0  0  0  0  0
  142.5610   75.1430  220.4490 C   0  0  0  0  0  0  0  0  0  0  0  0
  143.6090   74.5420  219.7400 C   0  0  0  0  0  0  0  0  0  0  0  0
  144.3288   75.1687  219.1931 H   0  0  0  0  0  0  0  0  0  0  0  0
  143.7460   73.1520  219.7230 C   0  0  0  0  0  0  0  0  0  0  0  0
  144.5625   72.6920  219.1471 H   0  0  0  0  0  0  0  0  0  0  0  0
  142.8540   72.3390  220.4320 C   0  0  0  0  0  0  0  0  0  0  0  0
  143.0360   70.9490  220.3810 O   0  0  0  0  0  0  0  0  0  0  0  0
  142.5980   70.1200  219.3100 C   0  0  0  0  0  0  0  0  0  0  0  0
  142.1207   69.2165  219.7172 H   0  0  0  0  0  0  0  0  0  0  0  0
  141.8733   70.6710  218.6926 H   0  0  0  0  0  0  0  0  0  0  0  0
  143.4616   69.8319  218.6926 H   0  0  0  0  0  0  0  0  0  0  0  0
  141.8120   72.9400  221.1650 C   0  0  0  0  0  0  0  0  0  0  0  0
  141.1006   72.3103  221.7194 H   0  0  0  0  0  0  0  0  0  0  0  0
  141.6750   74.3360  221.1930 C   0  0  0  0  0  0  0  0  0  0  0  0
  140.6560   74.9000  221.9630 O   0  0  0  0  0  0  0  0  0  0  0  0
  139.4640   75.4000  221.3690 C   0  0  0  0  0  0  0  0  0  0  0  0
  138.7574   75.6964  222.1583 H   0  0  0  0  0  0  0  0  0  0  0  0
  139.7038   76.2734  220.7447 H   0  0  0  0  0  0  0  0  0  0  0  0
  139.0090   74.6169  220.7447 H   0  0  0  0  0  0  0  0  0  0  0  0
  140.7690   79.7360  223.2710 C   0  0  0  0  0  0  0  0  0  0  0  0
  140.0790   79.5185  224.0996 H   0  0  0  0  0  0  0  0  0  0  0  0
  140.3333   80.4960  222.6058 H   0  0  0  0  0  0  0  0  0  0  0  0
  142.0870   80.2700  223.8390 C   0  0  0  0  0  0  0  0  0  0  0  0
  142.3420   79.7039  224.7470 H   0  0  0  0  0  0  0  0  0  0  0  0
  141.9595   81.3377  224.0710 H   0  0  0  0  0  0  0  0  0  0  0  0
  143.2200   80.1270  222.8290 C   0  0  0  0  0  0  0  0  0  0  0  0
  144.1742   80.0066  223.3629 H   0  0  0  0  0  0  0  0  0  0  0  0
  143.0392   79.2445  222.1977 H   0  0  0  0  0  0  0  0  0  0  0  0
  143.2641   81.0267  222.1977 H   0  0  0  0  0  0  0  0  0  0  0  0
  1  2  1  0
  2  3  1  0
  3  4  2  0
  4  5  1  0
  5  6  2  0
  6  7  1  0
  6  8  1  0
  8  9  1  0
  8 10  2  0
 10 11  1  0
 10 12  1  0
 12 13  1  0
 12 14  2  0
 14 15  1  0
 15 16  2  0
 15 17  1  0
 17 18  1  0
 17 19  1  0
 19 20  2  0
 20 21  1  0
 20 22  1  0
 22 23  1  0
 22 24  2  0
 24 25  1  0
 25 26  1  0
 26 27  1  0
 26 28  1  0
 26 29  1  0
 24 30  1  0
 30 31  1  0
 30 32  2  0
 32 33  1  0
 33 34  1  0
 34 35  1  0
 34 36  1  0
 34 37  1  0
  3 38  1  0
 38 39  1  0
 38 40  1  0
 38 41  1  0
 41 42  1  0
 41 43  1  0
 41 44  1  0
 44 45  1  0
 44 46  1  0
 44 47  1  0
 14  5  1  0
 32 19  1  0
M  END
>  <UniqueID>  (54) 
11

>  <SMILES>  (54) 
CCC/C(O)=N/c1ccccc1C(=O)Nc1ccc(OC)cc1OC

>  <Energy>  (54) 
60.59000813245773

>  <Genealogy>  (54) 
CCCC(O)=Nc1ccccc1C(=O)Nc1ccc(OC)cc1OC (tautomer)
CCC/C(O)=N/c1ccccc1C(=O)Nc1ccc(OC)cc1OC (cis-trans isomerization)
CCC/C(O)=N/c1ccccc1C(=O)Nc1ccc(OC)cc1OC (3D coordinates assigned)
CCC/C(O)=N/c1ccccc1C(=O)Nc1ccc(OC)cc1OC (optimized conformer: 60.59000813245773 kcal/mol)

>  <smiles>  (54) 
CCCC(=O)Nc1ccccc1C(=O)Nc1ccc(OC)cc1OC

>  <score_type>  (54) 
oracle

>  <origin>  (54) 
autodockgpu

>  <m_score__min__energy>  (54) 
-5.1299999999999999

>  <m_primary>  (54) 
energy

>  <meeko>  (54) 
{"free_energy": -5.11, "intermolecular_energy": -7.8, "internal_energy": -3.29, "cluster_size": 4, "cluster_id": 2, "rank_in_cluster": 2}

>  <energy>  (54) 
-4.96

>  <cluster_rmsd>  (54) 
0.15

>  <rmsd>  (54) 
271.86

>  <cluster>  (54) 
3

$$$$
XACSTBCXFQXDPE-MDQZRGDRNA-N
     RDKit          3D

 47 48  0  0  0  0  0  0  0  0999 V2000
  142.7550   78.3400  220.4640 H   0  0  0  0  0  0  0  0  0  0  0  0
  142.5280   77.8780  219.5930 O   0  0  0  0  0  0  0  0  0  0  0  0
  143.0690   76.6460  219.2190 C   0  0  0  0  0  0  0  0  0  0  0  0
  143.5280   75.7930  220.0890 N   0  0  0  0  0  0  0  0  0  0  0  0
  143.2620   74.3810  220.1300 C   0  0  0  0  0  0  0  0  0  0  0  0
  144.0520   73.4930  219.3760 C   0  0  0  0  0  0  0  0  0  0  0  0
  144.9177   73.8750  218.8151 H   0  0  0  0  0  0  0  0  0  0  0  0
  143.7460   72.1310  219.3340 C   0  0  0  0  0  0  0  0  0  0  0  0
  144.3835   71.4416  218.7610 H   0  0  0  0  0  0  0  0  0  0  0  0
  142.6330   71.6450  220.0180 C   0  0  0  0  0  0  0  0  0  0  0  0
  142.3976   70.5708  219.9908 H   0  0  0  0  0  0  0  0  0  0  0  0
  141.8160   72.5200  220.7380 C   0  0  0  0  0  0  0  0  0  0  0  0
  140.9304   72.1315  221.2622 H   0  0  0  0  0  0  0  0  0  0  0  0
  142.1150   73.8930  220.7990 C   0  0  0  0  0  0  0  0  0  0  0  0
  141.2350   74.7950  221.5850 C   0  0  0  0  0  0  0  0  0  0  0  0
  140.3090   74.3090  222.2900 O   0  0  0  0  0  0  0  0  0  0  0  0
  141.4410   76.2150  221.5630 N   0  0  0  0  0  0  0  0  0  0  0  0
  142.3880   76.5750  221.3130 H   0  0  0  0  0  0  0  0  0  0  0  0
  140.4830   77.1420  222.0950 C   0  0  0  0  0  0  0  0  0  0  0  0
  139.1440   76.7500  222.2150 C   0  0  0  0  0  0  0  0  0  0  0  0
  138.8437   75.7340  221.9189 H   0  0  0  0  0  0  0  0  0  0  0  0
  138.1870   77.6400  222.7080 C   0  0  0  0  0  0  0  0  0  0  0  0
  137.1353   77.3255  222.7794 H   0  0  0  0  0  0  0  0  0  0  0  0
  138.5550   78.9290  223.1120 C   0  0  0  0  0  0  0  0  0  0  0  0
  137.5550   79.7850  223.5990 O   0  0  0  0  0  0  0  0  0  0  0  0
  137.7920   80.8870  224.4670 C   0  0  0  0  0  0  0  0  0  0  0  0
  137.7200   80.5524  225.5124 H   0  0  0  0  0  0  0  0  0  0  0  0
  138.7977   81.2915  224.2799 H   0  0  0  0  0  0  0  0  0  0  0  0
  137.0416   81.6692  224.2799 H   0  0  0  0  0  0  0  0  0  0  0  0
  139.9040   79.3200  223.0130 C   0  0  0  0  0  0  0  0  0  0  0  0
  140.2020   80.3336  223.3194 H   0  0  0  0  0  0  0  0  0  0  0  0
  140.8710   78.4280  222.5270 C   0  0  0  0  0  0  0  0  0  0  0  0
  142.2060   78.8340  222.4830 O   0  0  0  0  0  0  0  0  0  0  0  0
  142.6380   80.0380  223.1060 C   0  0  0  0  0  0  0  0  0  0  0  0
  142.5960   79.9209  224.1989 H   0  0  0  0  0  0  0  0  0  0  0  0
  143.6714   80.2587  222.8004 H   0  0  0  0  0  0  0  0  0  0  0  0
  141.9806   80.8653  222.8004 H   0  0  0  0  0  0  0  0  0  0  0  0
  143.0550   76.2690  217.7690 C   0  0  0  0  0  0  0  0  0  0  0  0
  143.8946   75.5887  217.5634 H   0  0  0  0  0  0  0  0  0  0  0  0
  143.1502   77.1817  217.1624 H   0  0  0  0  0  0  0  0  0  0  0  0
  141.7400   75.5700  217.4110 C   0  0  0  0  0  0  0  0  0  0  0  0
  141.8763   74.4820  217.4988 H   0  0  0  0  0  0  0  0  0  0  0  0
  141.4684   75.8446  216.3810 H   0  0  0  0  0  0  0  0  0  0  0  0
  140.6130   76.0070  218.3410 C   0  0  0  0  0  0  0  0  0  0  0  0
  140.9317   75.8834  219.3866 H   0  0  0  0  0  0  0  0  0  0  0  0
  140.3719   77.0638  218.1536 H   0  0  0  0  0  0  0  0  0  0  0  0
  139.7225   75.3890  218.1536 H   0  0  0  0  0  0  0  0  0  0  0  0
  1  2  1  0
  2  3  1  0
  3  4  2  0
  4  5  1  0
  5  6  2  0
  6  7  1  0
  6  8  1  0
  8  9  1  0
  8 10  2  0
 10 11  1  0
 10 12  1  0
 12 13  1  0
 12 14  2  0
 14 15  1  0
 15 16  2  0
 15 17  1  0
 17 18  1  0
 17 19  1  0
 19 20  2  0
 20 21  1  0
 20 22  1  0
 22 23  1  0
 22 24  2  0
 24 25  1  0
 25 26  1  0
 26 27  1  0
 26 28  1  0
 26 29  1  0
 24 30  1  0
 30 31  1  0
 30 32  2  0
 32 33  1  0
 33 34  1  0
 34 35  1  0
 34 36  1  0
 34 37  1  0
  3 38  1  0
 38 39  1  0
 38 40  1  0
 38 41  1  0
 41 42  1  0
 41 43  1  0
 41 44  1  0
 44 45  1  0
 44 46  1  0
 44 47  1  0
 14  5  1  0
 32 19  1  0
M  END
>  <UniqueID>  (55) 
11

>  <SMILES>  (55) 
CCC/C(O)=N/c1ccccc1C(=O)Nc1ccc(OC)cc1OC

>  <Energy>  (55) 
60.59000813245773

>  <Genealogy>  (55) 
CCCC(O)=Nc1ccccc1C(=O)Nc1ccc(OC)cc1OC (tautomer)
CCC/C(O)=N/c1ccccc1C(=O)Nc1ccc(OC)cc1OC (cis-trans isomerization)
CCC/C(O)=N/c1ccccc1C(=O)Nc1ccc(OC)cc1OC (3D coordinates assigned)
CCC/C(O)=N/c1ccccc1C(=O)Nc1ccc(OC)cc1OC (optimized conformer: 60.59000813245773 kcal/mol)

>  <smiles>  (55) 
CCCC(=O)Nc1ccccc1C(=O)Nc1ccc(OC)cc1OC

>  <score_type>  (55) 
oracle

>  <origin>  (55) 
autodockgpu

>  <m_score__min__energy>  (55) 
-5.1299999999999999

>  <m_primary>  (55) 
energy

>  <meeko>  (55) 
{"free_energy": -4.4, "intermolecular_energy": -7.09, "internal_energy": -3.43, "cluster_size": 2, "cluster_id": 5, "rank_in_cluster": 2}

>  <energy>  (55) 
-4.95

>  <cluster_rmsd>  (55) 
0.17

>  <rmsd>  (55) 
271.86

>  <cluster>  (55) 
3

$$$$
XACSTBCXFQXDPE-MDQZRGDRNA-N
     RDKit          3D

 47 48  0  0  0  0  0  0  0  0999 V2000
  143.1870   77.6800  220.7910 H   0  0  0  0  0  0  0  0  0  0  0  0
  142.1940   77.8680  220.7490 O   0  0  0  0  0  0  0  0  0  0  0  0
  141.3930   77.9930  221.8870 C   0  0  0  0  0  0  0  0  0  0  0  0
  140.8810   76.9620  222.4960 N   0  0  0  0  0  0  0  0  0  0  0  0
  139.5400   76.4630  222.3610 C   0  0  0  0  0  0  0  0  0  0  0  0
  138.4840   77.0850  223.0530 C   0  0  0  0  0  0  0  0  0  0  0  0
  138.6772   77.9962  223.6381 H   0  0  0  0  0  0  0  0  0  0  0  0
  137.1930   76.5550  223.0030 C   0  0  0  0  0  0  0  0  0  0  0  0
  136.3699   77.0618  223.5281 H   0  0  0  0  0  0  0  0  0  0  0  0
  136.9470   75.3840  222.2880 C   0  0  0  0  0  0  0  0  0  0  0  0
  135.9284   74.9710  222.2439 H   0  0  0  0  0  0  0  0  0  0  0  0
  137.9930   74.7340  221.6270 C   0  0  0  0  0  0  0  0  0  0  0  0
  137.7943   73.8026  221.0765 H   0  0  0  0  0  0  0  0  0  0  0  0
  139.2960   75.2590  221.6590 C   0  0  0  0  0  0  0  0  0  0  0  0
  140.3830   74.5520  220.9350 C   0  0  0  0  0  0  0  0  0  0  0  0
  140.0970   73.6560  220.0960 O   0  0  0  0  0  0  0  0  0  0  0  0
  141.7580   74.8930  221.1700 N   0  0  0  0  0  0  0  0  0  0  0  0
  141.9760   75.8430  221.5440 H   0  0  0  0  0  0  0  0  0  0  0  0
  142.8450   74.0870  220.6930 C   0  0  0  0  0  0  0  0  0  0  0  0
  142.8200   72.7040  220.9130 C   0  0  0  0  0  0  0  0  0  0  0  0
  141.9626   72.2485  221.4301 H   0  0  0  0  0  0  0  0  0  0  0  0
  143.8770   71.8990  220.4800 C   0  0  0  0  0  0  0  0  0  0  0  0
  143.8540   70.8168  220.6759 H   0  0  0  0  0  0  0  0  0  0  0  0
  144.9650   72.4580  219.7990 C   0  0  0  0  0  0  0  0  0  0  0  0
  146.0000   71.6060  219.3870 O   0  0  0  0  0  0  0  0  0  0  0  0
  145.8120   70.2610  218.9580 C   0  0  0  0  0  0  0  0  0  0  0  0
  145.7204   69.6054  219.8365 H   0  0  0  0  0  0  0  0  0  0  0  0
  144.8957   70.1938  218.3531 H   0  0  0  0  0  0  0  0  0  0  0  0
  146.6747   69.9451  218.3531 H   0  0  0  0  0  0  0  0  0  0  0  0
  144.9840   73.8450  219.5560 C   0  0  0  0  0  0  0  0  0  0  0  0
  145.8385   74.2951  219.0295 H   0  0  0  0  0  0  0  0  0  0  0  0
  143.9220   74.6570  219.9800 C   0  0  0  0  0  0  0  0  0  0  0  0
  143.9520   76.0210  219.6860 O   0  0  0  0  0  0  0  0  0  0  0  0
  143.3280   76.5440  218.5190 C   0  0  0  0  0  0  0  0  0  0  0  0
  142.5153   77.2251  218.8117 H   0  0  0  0  0  0  0  0  0  0  0  0
  144.0701   77.0939  217.9216 H   0  0  0  0  0  0  0  0  0  0  0  0
  142.9162   75.7172  217.9216 H   0  0  0  0  0  0  0  0  0  0  0  0
  141.1740   79.3590  222.4610 C   0  0  0  0  0  0  0  0  0  0  0  0
  140.0943   79.5343  222.5773 H   0  0  0  0  0  0  0  0  0  0  0  0
  141.6073   80.1058  221.7794 H   0  0  0  0  0  0  0  0  0  0  0  0
  141.8550   79.4800  223.8280 C   0  0  0  0  0  0  0  0  0  0  0  0
  142.3035   78.5112  224.0930 H   0  0  0  0  0  0  0  0  0  0  0  0
  141.0980   79.7716  224.5709 H   0  0  0  0  0  0  0  0  0  0  0  0
  142.9470   80.5450  223.8050 C   0  0  0  0  0  0  0  0  0  0  0  0
  143.2207   80.8119  224.8364 H   0  0  0  0  0  0  0  0  0  0  0  0
  143.8310   80.1525  223.2810 H   0  0  0  0  0  0  0  0  0  0  0  0
  142.5768   81.4385  223.2810 H   0  0  0  0  0  0  0  0  0  0  0  0
  1  2  1  0
  2  3  1  0
  3  4  2  0
  4  5  1  0
  5  6  2  0
  6  7  1  0
  6  8  1  0
  8  9  1  0
  8 10  2  0
 10 11  1  0
 10 12  1  0
 12 13  1  0
 12 14  2  0
 14 15  1  0
 15 16  2  0
 15 17  1  0
 17 18  1  0
 17 19  1  0
 19 20  2  0
 20 21  1  0
 20 22  1  0
 22 23  1  0
 22 24  2  0
 24 25  1  0
 25 26  1  0
 26 27  1  0
 26 28  1  0
 26 29  1  0
 24 30  1  0
 30 31  1  0
 30 32  2  0
 32 33  1  0
 33 34  1  0
 34 35  1  0
 34 36  1  0
 34 37  1  0
  3 38  1  0
 38 39  1  0
 38 40  1  0
 38 41  1  0
 41 42  1  0
 41 43  1  0
 41 44  1  0
 44 45  1  0
 44 46  1  0
 44 47  1  0
 14  5  1  0
 32 19  1  0
M  END
>  <UniqueID>  (56) 
11

>  <SMILES>  (56) 
CCC/C(O)=N/c1ccccc1C(=O)Nc1ccc(OC)cc1OC

>  <Energy>  (56) 
60.59000813245773

>  <Genealogy>  (56) 
CCCC(O)=Nc1ccccc1C(=O)Nc1ccc(OC)cc1OC (tautomer)
CCC/C(O)=N/c1ccccc1C(=O)Nc1ccc(OC)cc1OC (cis-trans isomerization)
CCC/C(O)=N/c1ccccc1C(=O)Nc1ccc(OC)cc1OC (3D coordinates assigned)
CCC/C(O)=N/c1ccccc1C(=O)Nc1ccc(OC)cc1OC (optimized conformer: 60.59000813245773 kcal/mol)

>  <smiles>  (56) 
CCCC(=O)Nc1ccccc1C(=O)Nc1ccc(OC)cc1OC

>  <score_type>  (56) 
oracle

>  <origin>  (56) 
autodockgpu

>  <m_score__min__energy>  (56) 
-5.1299999999999999

>  <m_primary>  (56) 
energy

>  <meeko>  (56) 
{"free_energy": -5.13, "intermolecular_energy": -7.81, "internal_energy": -3.16, "cluster_size": 7, "cluster_id": 1, "rank_in_cluster": 1}

>  <energy>  (56) 
-4.93

>  <cluster_rmsd>  (56) 
0.19

>  <rmsd>  (56) 
271.87

>  <cluster>  (56) 
3

$$$$
XACSTBCXFQXDPE-MDQZRGDRNA-N
     RDKit          3D

 47 48  0  0  0  0  0  0  0  0999 V2000
  143.1310   77.7120  220.6360 H   0  0  0  0  0  0  0  0  0  0  0  0
  142.1540   77.9710  220.5960 O   0  0  0  0  0  0  0  0  0  0  0  0
  141.3850   78.2280  221.7330 C   0  0  0  0  0  0  0  0  0  0  0  0
  140.8540   77.2760  222.4450 N   0  0  0  0  0  0  0  0  0  0  0  0
  139.5110   76.7730  222.3410 C   0  0  0  0  0  0  0  0  0  0  0  0
  138.4720   77.3800  223.0700 C   0  0  0  0  0  0  0  0  0  0  0  0
  138.6766   78.2848  223.6612 H   0  0  0  0  0  0  0  0  0  0  0  0
  137.1830   76.8430  223.0490 C   0  0  0  0  0  0  0  0  0  0  0  0
  136.3720   77.3376  223.6037 H   0  0  0  0  0  0  0  0  0  0  0  0
  136.9240   75.6800  222.3250 C   0  0  0  0  0  0  0  0  0  0  0  0
  135.9066   75.2625  222.3026 H   0  0  0  0  0  0  0  0  0  0  0  0
  137.9540   75.0440  221.6280 C   0  0  0  0  0  0  0  0  0  0  0  0
  137.7450   74.1183  221.0717 H   0  0  0  0  0  0  0  0  0  0  0  0
  139.2550   75.5760  221.6310 C   0  0  0  0  0  0  0  0  0  0  0  0
  140.3250   74.8840  220.8680 C   0  0  0  0  0  0  0  0  0  0  0  0
  140.0180   74.0750  219.9510 O   0  0  0  0  0  0  0  0  0  0  0  0
  141.7080   75.1420  221.1540 N   0  0  0  0  0  0  0  0  0  0  0  0
  141.9590   76.0460  221.6120 H   0  0  0  0  0  0  0  0  0  0  0  0
  142.7690   74.3310  220.6300 C   0  0  0  0  0  0  0  0  0  0  0  0
  142.7790   72.9570  220.9010 C   0  0  0  0  0  0  0  0  0  0  0  0
  141.9675   72.5117  221.4953 H   0  0  0  0  0  0  0  0  0  0  0  0
  143.8120   72.1480  220.4220 C   0  0  0  0  0  0  0  0  0  0  0  0
  143.8173   71.0736  220.6579 H   0  0  0  0  0  0  0  0  0  0  0  0
  144.8410   72.6930  219.6440 C   0  0  0  0  0  0  0  0  0  0  0  0
  145.8550   71.8370  219.1890 O   0  0  0  0  0  0  0  0  0  0  0  0
  145.6880   70.4430  218.9590 C   0  0  0  0  0  0  0  0  0  0  0  0
  145.6250   69.9173  219.9232 H   0  0  0  0  0  0  0  0  0  0  0  0
  144.7632   70.2738  218.3880 H   0  0  0  0  0  0  0  0  0  0  0  0
  146.5467   70.0601  218.3880 H   0  0  0  0  0  0  0  0  0  0  0  0
  144.8230   74.0700  219.3500 C   0  0  0  0  0  0  0  0  0  0  0  0
  145.6304   74.5097  218.7461 H   0  0  0  0  0  0  0  0  0  0  0  0
  143.7840   74.8850  219.8210 C   0  0  0  0  0  0  0  0  0  0  0  0
  143.7750   76.2380  219.4750 O   0  0  0  0  0  0  0  0  0  0  0  0
  143.2830   76.6810  218.2160 C   0  0  0  0  0  0  0  0  0  0  0  0
  142.4740   77.4094  218.3742 H   0  0  0  0  0  0  0  0  0  0  0  0
  144.0982   77.1555  217.6501 H   0  0  0  0  0  0  0  0  0  0  0  0
  142.8963   75.8206  217.6501 H   0  0  0  0  0  0  0  0  0  0  0  0
  141.2260   79.6480  222.1820 C   0  0  0  0  0  0  0  0  0  0  0  0
  140.1808   79.9589  222.0376 H   0  0  0  0  0  0  0  0  0  0  0  0
  141.8960   80.2872  221.5882 H   0  0  0  0  0  0  0  0  0  0  0  0
  141.5930   79.7840  223.6630 C   0  0  0  0  0  0  0  0  0  0  0  0
  141.6856   78.7804  224.1037 H   0  0  0  0  0  0  0  0  0  0  0  0
  140.8010   80.3566  224.1678 H   0  0  0  0  0  0  0  0  0  0  0  0
  142.9140   80.5280  223.8360 C   0  0  0  0  0  0  0  0  0  0  0  0
  143.1290   80.6491  224.9080 H   0  0  0  0  0  0  0  0  0  0  0  0
  143.7234   79.9531  223.3624 H   0  0  0  0  0  0  0  0  0  0  0  0
  142.8419   81.5182  223.3624 H   0  0  0  0  0  0  0  0  0  0  0  0
  1  2  1  0
  2  3  1  0
  3  4  2  0
  4  5  1  0
  5  6  2  0
  6  7  1  0
  6  8  1  0
  8  9  1  0
  8 10  2  0
 10 11  1  0
 10 12  1  0
 12 13  1  0
 12 14  2  0
 14 15  1  0
 15 16  2  0
 15 17  1  0
 17 18  1  0
 17 19  1  0
 19 20  2  0
 20 21  1  0
 20 22  1  0
 22 23  1  0
 22 24  2  0
 24 25  1  0
 25 26  1  0
 26 27  1  0
 26 28  1  0
 26 29  1  0
 24 30  1  0
 30 31  1  0
 30 32  2  0
 32 33  1  0
 33 34  1  0
 34 35  1  0
 34 36  1  0
 34 37  1  0
  3 38  1  0
 38 39  1  0
 38 40  1  0
 38 41  1  0
 41 42  1  0
 41 43  1  0
 41 44  1  0
 44 45  1  0
 44 46  1  0
 44 47  1  0
 14  5  1  0
 32 19  1  0
M  END
>  <UniqueID>  (57) 
11

>  <SMILES>  (57) 
CCC/C(O)=N/c1ccccc1C(=O)Nc1ccc(OC)cc1OC

>  <Energy>  (57) 
60.59000813245773

>  <Genealogy>  (57) 
CCCC(O)=Nc1ccccc1C(=O)Nc1ccc(OC)cc1OC (tautomer)
CCC/C(O)=N/c1ccccc1C(=O)Nc1ccc(OC)cc1OC (cis-trans isomerization)
CCC/C(O)=N/c1ccccc1C(=O)Nc1ccc(OC)cc1OC (3D coordinates assigned)
CCC/C(O)=N/c1ccccc1C(=O)Nc1ccc(OC)cc1OC (optimized conformer: 60.59000813245773 kcal/mol)

>  <smiles>  (57) 
CCCC(=O)Nc1ccccc1C(=O)Nc1ccc(OC)cc1OC

>  <score_type>  (57) 
oracle

>  <origin>  (57) 
autodockgpu

>  <m_score__min__energy>  (57) 
-5.1299999999999999

>  <m_primary>  (57) 
energy

>  <meeko>  (57) 
{"free_energy": -5.06, "intermolecular_energy": -7.74, "internal_energy": -3.2, "cluster_size": 7, "cluster_id": 1, "rank_in_cluster": 7}

>  <energy>  (57) 
-4.9

>  <cluster_rmsd>  (57) 
0.22

>  <rmsd>  (57) 
271.85

>  <cluster>  (57) 
3

$$$$
XACSTBCXFQXDPE-MDQZRGDRNA-N
     RDKit          3D

 47 48  0  0  0  0  0  0  0  0999 V2000
  138.9300   73.9340  222.7700 H   0  0  0  0  0  0  0  0  0  0  0  0
  139.9020   73.6630  222.7130 O   0  0  0  0  0  0  0  0  0  0  0  0
  140.3770   72.7130  221.8050 C   0  0  0  0  0  0  0  0  0  0  0  0
  140.9340   73.0440  220.6760 N   0  0  0  0  0  0  0  0  0  0  0  0
  142.3430   73.1530  220.4130 C   0  0  0  0  0  0  0  0  0  0  0  0
  143.1230   71.9920  220.2610 C   0  0  0  0  0  0  0  0  0  0  0  0
  142.6387   71.0044  220.2706 H   0  0  0  0  0  0  0  0  0  0  0  0
  144.5070   72.0830  220.0980 C   0  0  0  0  0  0  0  0  0  0  0  0
  145.1052   71.1709  219.9562 H   0  0  0  0  0  0  0  0  0  0  0  0
  145.1300   73.3290  220.1150 C   0  0  0  0  0  0  0  0  0  0  0  0
  146.2192   73.4002  219.9786 H   0  0  0  0  0  0  0  0  0  0  0  0
  144.3740   74.4880  220.3050 C   0  0  0  0  0  0  0  0  0  0  0  0
  144.8753   75.4667  220.3328 H   0  0  0  0  0  0  0  0  0  0  0  0
  142.9790   74.4160  220.4610 C   0  0  0  0  0  0  0  0  0  0  0  0
  142.2020   75.6680  220.6470 C   0  0  0  0  0  0  0  0  0  0  0  0
  142.4440   76.6690  219.9200 O   0  0  0  0  0  0  0  0  0  0  0  0
  141.1640   75.7410  221.6360 N   0  0  0  0  0  0  0  0  0  0  0  0
  140.7160   74.8530  221.9520 H   0  0  0  0  0  0  0  0  0  0  0  0
  140.5570   76.9820  222.0260 C   0  0  0  0  0  0  0  0  0  0  0  0
  141.3380   78.1440  222.0660 C   0  0  0  0  0  0  0  0  0  0  0  0
  142.3996   78.0991  221.7815 H   0  0  0  0  0  0  0  0  0  0  0  0
  140.7770   79.3600  222.4650 C   0  0  0  0  0  0  0  0  0  0  0  0
  141.4055   80.2616  222.5098 H   0  0  0  0  0  0  0  0  0  0  0  0
  139.4230   79.4410  222.8080 C   0  0  0  0  0  0  0  0  0  0  0  0
  138.9100   80.6860  223.2030 O   0  0  0  0  0  0  0  0  0  0  0  0
  138.0780   80.8890  224.3400 C   0  0  0  0  0  0  0  0  0  0  0  0
  138.6685   80.7449  225.2568 H   0  0  0  0  0  0  0  0  0  0  0  0
  137.6742   81.9120  224.3209 H   0  0  0  0  0  0  0  0  0  0  0  0
  137.2484   80.1669  224.3209 H   0  0  0  0  0  0  0  0  0  0  0  0
  138.6290   78.2800  222.7480 C   0  0  0  0  0  0  0  0  0  0  0  0
  137.5653   78.3318  223.0234 H   0  0  0  0  0  0  0  0  0  0  0  0
  139.1830   77.0580  222.3400 C   0  0  0  0  0  0  0  0  0  0  0  0
  138.3580   75.9360  222.2510 O   0  0  0  0  0  0  0  0  0  0  0  0
  137.0190   75.9570  222.7330 C   0  0  0  0  0  0  0  0  0  0  0  0
  137.0252   75.9569  223.8330 H   0  0  0  0  0  0  0  0  0  0  0  0
  136.5125   76.8632  222.3693 H   0  0  0  0  0  0  0  0  0  0  0  0
  136.4844   75.0671  222.3693 H   0  0  0  0  0  0  0  0  0  0  0  0
  140.3010   71.2650  222.1810 C   0  0  0  0  0  0  0  0  0  0  0  0
  141.3168   70.8438  222.2073 H   0  0  0  0  0  0  0  0  0  0  0  0
  139.6905   70.7349  221.4352 H   0  0  0  0  0  0  0  0  0  0  0  0
  139.6520   71.1030  223.5590 C   0  0  0  0  0  0  0  0  0  0  0  0
  139.1409   70.1299  223.6031 H   0  0  0  0  0  0  0  0  0  0  0  0
  138.9347   71.9240  223.7056 H   0  0  0  0  0  0  0  0  0  0  0  0
  140.6950   71.1680  224.6690 C   0  0  0  0  0  0  0  0  0  0  0  0
  140.1922   71.1367  225.6469 H   0  0  0  0  0  0  0  0  0  0  0  0
  141.3785   70.3107  224.5805 H   0  0  0  0  0  0  0  0  0  0  0  0
  141.2668   72.1035  224.5805 H   0  0  0  0  0  0  0  0  0  0  0  0
  1  2  1  0
  2  3  1  0
  3  4  2  0
  4  5  1  0
  5  6  2  0
  6  7  1  0
  6  8  1  0
  8  9  1  0
  8 10  2  0
 10 11  1  0
 10 12  1  0
 12 13  1  0
 12 14  2  0
 14 15  1  0
 15 16  2  0
 15 17  1  0
 17 18  1  0
 17 19  1  0
 19 20  2  0
 20 21  1  0
 20 22  1  0
 22 23  1  0
 22 24  2  0
 24 25  1  0
 25 26  1  0
 26 27  1  0
 26 28  1  0
 26 29  1  0
 24 30  1  0
 30 31  1  0
 30 32  2  0
 32 33  1  0
 33 34  1  0
 34 35  1  0
 34 36  1  0
 34 37  1  0
  3 38  1  0
 38 39  1  0
 38 40  1  0
 38 41  1  0
 41 42  1  0
 41 43  1  0
 41 44  1  0
 44 45  1  0
 44 46  1  0
 44 47  1  0
 14  5  1  0
 32 19  1  0
M  END
>  <UniqueID>  (58) 
11

>  <SMILES>  (58) 
CCC/C(O)=N/c1ccccc1C(=O)Nc1ccc(OC)cc1OC

>  <Energy>  (58) 
60.59000813245773

>  <Genealogy>  (58) 
CCCC(O)=Nc1ccccc1C(=O)Nc1ccc(OC)cc1OC (tautomer)
CCC/C(O)=N/c1ccccc1C(=O)Nc1ccc(OC)cc1OC (cis-trans isomerization)
CCC/C(O)=N/c1ccccc1C(=O)Nc1ccc(OC)cc1OC (3D coordinates assigned)
CCC/C(O)=N/c1ccccc1C(=O)Nc1ccc(OC)cc1OC (optimized conformer: 60.59000813245773 kcal/mol)

>  <smiles>  (58) 
CCCC(=O)Nc1ccccc1C(=O)Nc1ccc(OC)cc1OC

>  <score_type>  (58) 
oracle

>  <origin>  (58) 
autodockgpu

>  <m_score__min__energy>  (58) 
-5.1299999999999999

>  <m_primary>  (58) 
energy

>  <meeko>  (58) 
{"free_energy": -4.95, "intermolecular_energy": -7.63, "internal_energy": -3.28, "cluster_size": 6, "cluster_id": 3, "rank_in_cluster": 4}

>  <energy>  (58) 
-4.75

>  <cluster_rmsd>  (58) 
0.0

>  <rmsd>  (58) 
272.1

>  <cluster>  (58) 
4

$$$$
XACSTBCXFQXDPE-MDQZRGDRNA-N
     RDKit          3D

 47 48  0  0  0  0  0  0  0  0999 V2000
  142.8150   78.3400  220.4340 H   0  0  0  0  0  0  0  0  0  0  0  0
  142.5310   77.8450  219.5990 O   0  0  0  0  0  0  0  0  0  0  0  0
  143.0650   76.6100  219.2250 C   0  0  0  0  0  0  0  0  0  0  0  0
  143.5290   75.7580  220.0950 N   0  0  0  0  0  0  0  0  0  0  0  0
  143.2640   74.3460  220.1390 C   0  0  0  0  0  0  0  0  0  0  0  0
  144.0590   73.4560  219.3940 C   0  0  0  0  0  0  0  0  0  0  0  0
  144.9280   73.8362  218.8369 H   0  0  0  0  0  0  0  0  0  0  0  0
  143.7540   72.0940  219.3560 C   0  0  0  0  0  0  0  0  0  0  0  0
  144.3955   71.4026  218.7900 H   0  0  0  0  0  0  0  0  0  0  0  0
  142.6370   71.6100  220.0350 C   0  0  0  0  0  0  0  0  0  0  0  0
  142.4023   70.5356  220.0102 H   0  0  0  0  0  0  0  0  0  0  0  0
  141.8150   72.4870  220.7470 C   0  0  0  0  0  0  0  0  0  0  0  0
  140.9267   72.1000  221.2677 H   0  0  0  0  0  0  0  0  0  0  0  0
  142.1130   73.8600  220.8040 C   0  0  0  0  0  0  0  0  0  0  0  0
  141.2270   74.7640  221.5810 C   0  0  0  0  0  0  0  0  0  0  0  0
  140.2900   74.2820  222.2720 O   0  0  0  0  0  0  0  0  0  0  0  0
  141.4410   76.1840  221.5650 N   0  0  0  0  0  0  0  0  0  0  0  0
  142.3930   76.5400  221.3280 H   0  0  0  0  0  0  0  0  0  0  0  0
  140.4810   77.1140  222.0870 C   0  0  0  0  0  0  0  0  0  0  0  0
  139.1440   76.7190  222.2170 C   0  0  0  0  0  0  0  0  0  0  0  0
  138.8466   75.6980  221.9359 H   0  0  0  0  0  0  0  0  0  0  0  0
  138.1850   77.6120  222.7010 C   0  0  0  0  0  0  0  0  0  0  0  0
  137.1349   77.2943  222.7803 H   0  0  0  0  0  0  0  0  0  0  0  0
  138.5490   78.9080  223.0860 C   0  0  0  0  0  0  0  0  0  0  0  0
  137.5470   79.7650  223.5640 O   0  0  0  0  0  0  0  0  0  0  0  0
  137.7830   80.8820  224.4150 C   0  0  0  0  0  0  0  0  0  0  0  0
  137.7156   80.5632  225.4656 H   0  0  0  0  0  0  0  0  0  0  0  0
  138.7866   81.2872  224.2184 H   0  0  0  0  0  0  0  0  0  0  0  0
  137.0291   81.6585  224.2184 H   0  0  0  0  0  0  0  0  0  0  0  0
  139.8960   79.3030  222.9780 C   0  0  0  0  0  0  0  0  0  0  0  0
  140.1911   80.3217  223.2697 H   0  0  0  0  0  0  0  0  0  0  0  0
  140.8650   78.4070  222.5010 C   0  0  0  0  0  0  0  0  0  0  0  0
  142.1980   78.8180  222.4470 O   0  0  0  0  0  0  0  0  0  0  0  0
  142.6410   79.9950  223.1120 C   0  0  0  0  0  0  0  0  0  0  0  0
  142.5844   79.8447  224.2002 H   0  0  0  0  0  0  0  0  0  0  0  0
  143.6812   80.2088  222.8250 H   0  0  0  0  0  0  0  0  0  0  0  0
  142.0000   80.8416  222.8250 H   0  0  0  0  0  0  0  0  0  0  0  0
  143.0390   76.2280  217.7770 C   0  0  0  0  0  0  0  0  0  0  0  0
  143.4046   75.1963  217.6677 H   0  0  0  0  0  0  0  0  0  0  0  0
  143.6836   76.9191  217.2140 H   0  0  0  0  0  0  0  0  0  0  0  0
  141.6120   76.3190  217.2260 C   0  0  0  0  0  0  0  0  0  0  0  0
  141.5544   75.7550  216.2833 H   0  0  0  0  0  0  0  0  0  0  0  0
  141.3695   77.3788  217.0584 H   0  0  0  0  0  0  0  0  0  0  0  0
  140.6030   75.7420  218.2140 C   0  0  0  0  0  0  0  0  0  0  0  0
  140.9436   75.9367  219.2417 H   0  0  0  0  0  0  0  0  0  0  0  0
  139.6231   76.2163  218.0564 H   0  0  0  0  0  0  0  0  0  0  0  0
  140.5148   74.6569  218.0564 H   0  0  0  0  0  0  0  0  0  0  0  0
  1  2  1  0
  2  3  1  0
  3  4  2  0
  4  5  1  0
  5  6  2  0
  6  7  1  0
  6  8  1  0
  8  9  1  0
  8 10  2  0
 10 11  1  0
 10 12  1  0
 12 13  1  0
 12 14  2  0
 14 15  1  0
 15 16  2  0
 15 17  1  0
 17 18  1  0
 17 19  1  0
 19 20  2  0
 20 21  1  0
 20 22  1  0
 22 23  1  0
 22 24  2  0
 24 25  1  0
 25 26  1  0
 26 27  1  0
 26 28  1  0
 26 29  1  0
 24 30  1  0
 30 31  1  0
 30 32  2  0
 32 33  1  0
 33 34  1  0
 34 35  1  0
 34 36  1  0
 34 37  1  0
  3 38  1  0
 38 39  1  0
 38 40  1  0
 38 41  1  0
 41 42  1  0
 41 43  1  0
 41 44  1  0
 44 45  1  0
 44 46  1  0
 44 47  1  0
 14  5  1  0
 32 19  1  0
M  END
>  <UniqueID>  (59) 
11

>  <SMILES>  (59) 
CCC/C(O)=N/c1ccccc1C(=O)Nc1ccc(OC)cc1OC

>  <Energy>  (59) 
60.59000813245773

>  <Genealogy>  (59) 
CCCC(O)=Nc1ccccc1C(=O)Nc1ccc(OC)cc1OC (tautomer)
CCC/C(O)=N/c1ccccc1C(=O)Nc1ccc(OC)cc1OC (cis-trans isomerization)
CCC/C(O)=N/c1ccccc1C(=O)Nc1ccc(OC)cc1OC (3D coordinates assigned)
CCC/C(O)=N/c1ccccc1C(=O)Nc1ccc(OC)cc1OC (optimized conformer: 60.59000813245773 kcal/mol)

>  <smiles>  (59) 
CCCC(=O)Nc1ccccc1C(=O)Nc1ccc(OC)cc1OC

>  <score_type>  (59) 
oracle

>  <origin>  (59) 
autodockgpu

>  <m_score__min__energy>  (59) 
-5.1299999999999999

>  <m_primary>  (59) 
energy

>  <meeko>  (59) 
{"free_energy": -4.42, "intermolecular_energy": -7.1, "internal_energy": -3.41, "cluster_size": 2, "cluster_id": 5, "rank_in_cluster": 1}

>  <energy>  (59) 
-4.42

>  <cluster_rmsd>  (59) 
0.0

>  <rmsd>  (59) 
271.82

>  <cluster>  (59) 
5

$$$$
XACSTBCXFQXDPE-MDQZRGDRNA-N
     RDKit          3D

 47 48  0  0  0  0  0  0  0  0999 V2000
  141.8190   76.5400  222.7080 H   0  0  0  0  0  0  0  0  0  0  0  0
  141.4510   77.3640  223.1640 O   0  0  0  0  0  0  0  0  0  0  0  0
  141.0060   78.4890  222.4650 C   0  0  0  0  0  0  0  0  0  0  0  0
  140.7540   78.4610  221.1870 N   0  0  0  0  0  0  0  0  0  0  0  0
  141.3370   79.3040  220.1790 C   0  0  0  0  0  0  0  0  0  0  0  0
  140.9620   80.6570  220.0890 C   0  0  0  0  0  0  0  0  0  0  0  0
  140.2788   81.0845  220.8376 H   0  0  0  0  0  0  0  0  0  0  0  0
  141.4500   81.4620  219.0570 C   0  0  0  0  0  0  0  0  0  0  0  0
  141.1693   82.5245  219.0081 H   0  0  0  0  0  0  0  0  0  0  0  0
  142.2930   80.9180  218.0890 C   0  0  0  0  0  0  0  0  0  0  0  0
  142.6833   81.5542  217.2810 H   0  0  0  0  0  0  0  0  0  0  0  0
  142.6430   79.5670  218.1430 C   0  0  0  0  0  0  0  0  0  0  0  0
  143.2965   79.1421  217.3669 H   0  0  0  0  0  0  0  0  0  0  0  0
  142.1680   78.7450  219.1800 C   0  0  0  0  0  0  0  0  0  0  0  0
  142.5700   77.3160  219.2170 C   0  0  0  0  0  0  0  0  0  0  0  0
  143.0410   76.7700  218.1830 O   0  0  0  0  0  0  0  0  0  0  0  0
  142.4440   76.5540  220.4280 N   0  0  0  0  0  0  0  0  0  0  0  0
  142.4290   77.0670  221.3370 H   0  0  0  0  0  0  0  0  0  0  0  0
  142.5800   75.1260  220.4590 C   0  0  0  0  0  0  0  0  0  0  0  0
  143.6280   74.5220  219.7520 C   0  0  0  0  0  0  0  0  0  0  0  0
  144.3442   75.1461  219.1974 H   0  0  0  0  0  0  0  0  0  0  0  0
  143.7690   73.1330  219.7470 C   0  0  0  0  0  0  0  0  0  0  0  0
  144.5851   72.6705  219.1724 H   0  0  0  0  0  0  0  0  0  0  0  0
  142.8820   72.3230  220.4660 C   0  0  0  0  0  0  0  0  0  0  0  0
  143.0670   70.9330  220.4260 O   0  0  0  0  0  0  0  0  0  0  0  0
  142.6910   70.1030  219.3330 C   0  0  0  0  0  0  0  0  0  0  0  0
  142.2654   69.1635  219.7154 H   0  0  0  0  0  0  0  0  0  0  0  0
  141.9404   70.6225  218.7193 H   0  0  0  0  0  0  0  0  0  0  0  0
  143.5766   69.8813  218.7193 H   0  0  0  0  0  0  0  0  0  0  0  0
  141.8400   72.9280  221.1960 C   0  0  0  0  0  0  0  0  0  0  0  0
  141.1318   72.3008  221.7574 H   0  0  0  0  0  0  0  0  0  0  0  0
  141.6980   74.3230  221.2130 C   0  0  0  0  0  0  0  0  0  0  0  0
  140.6810   74.8910  221.9810 O   0  0  0  0  0  0  0  0  0  0  0  0
  139.4900   75.3920  221.3850 C   0  0  0  0  0  0  0  0  0  0  0  0
  138.7827   75.6895  222.1731 H   0  0  0  0  0  0  0  0  0  0  0  0
  139.7316   76.2648  220.7605 H   0  0  0  0  0  0  0  0  0  0  0  0
  139.0351   74.6090  220.7605 H   0  0  0  0  0  0  0  0  0  0  0  0
  140.7460   79.7500  223.2300 C   0  0  0  0  0  0  0  0  0  0  0  0
  140.0339   79.5409  224.0419 H   0  0  0  0  0  0  0  0  0  0  0  0
  140.3287   80.5027  222.5450 H   0  0  0  0  0  0  0  0  0  0  0  0
  142.0480   80.2910  223.8280 C   0  0  0  0  0  0  0  0  0  0  0  0
  142.2795   79.7336  224.7476 H   0  0  0  0  0  0  0  0  0  0  0  0
  141.9133   81.3606  224.0469 H   0  0  0  0  0  0  0  0  0  0  0  0
  143.2080   80.1400  222.8490 C   0  0  0  0  0  0  0  0  0  0  0  0
  144.1469   80.0178  223.4090 H   0  0  0  0  0  0  0  0  0  0  0  0
  143.0409   79.2560  222.2160 H   0  0  0  0  0  0  0  0  0  0  0  0
  143.2727   81.0373  222.2160 H   0  0  0  0  0  0  0  0  0  0  0  0
  1  2  1  0
  2  3  1  0
  3  4  2  0
  4  5  1  0
  5  6  2  0
  6  7  1  0
  6  8  1  0
  8  9  1  0
  8 10  2  0
 10 11  1  0
 10 12  1  0
 12 13  1  0
 12 14  2  0
 14 15  1  0
 15 16  2  0
 15 17  1  0
 17 18  1  0
 17 19  1  0
 19 20  2  0
 20 21  1  0
 20 22  1  0
 22 23  1  0
 22 24  2  0
 24 25  1  0
 25 26  1  0
 26 27  1  0
 26 28  1  0
 26 29  1  0
 24 30  1  0
 30 31  1  0
 30 32  2  0
 32 33  1  0
 33 34  1  0
 34 35  1  0
 34 36  1  0
 34 37  1  0
  3 38  1  0
 38 39  1  0
 38 40  1  0
 38 41  1  0
 41 42  1  0
 41 43  1  0
 41 44  1  0
 44 45  1  0
 44 46  1  0
 44 47  1  0
 14  5  1  0
 32 19  1  0
M  END
>  <UniqueID>  (60) 
11

>  <SMILES>  (60) 
CCC/C(O)=N/c1ccccc1C(=O)Nc1ccc(OC)cc1OC

>  <Energy>  (60) 
60.59000813245773

>  <Genealogy>  (60) 
CCCC(O)=Nc1ccccc1C(=O)Nc1ccc(OC)cc1OC (tautomer)
CCC/C(O)=N/c1ccccc1C(=O)Nc1ccc(OC)cc1OC (cis-trans isomerization)
CCC/C(O)=N/c1ccccc1C(=O)Nc1ccc(OC)cc1OC (3D coordinates assigned)
CCC/C(O)=N/c1ccccc1C(=O)Nc1ccc(OC)cc1OC (optimized conformer: 60.59000813245773 kcal/mol)

>  <smiles>  (60) 
CCCC(=O)Nc1ccccc1C(=O)Nc1ccc(OC)cc1OC

>  <score_type>  (60) 
oracle

>  <origin>  (60) 
autodockgpu

>  <m_score__min__energy>  (60) 
-5.1299999999999999

>  <m_primary>  (60) 
energy

>  <meeko>  (60) 
{"free_energy": -5.11, "intermolecular_energy": -7.79, "internal_energy": -3.3, "cluster_size": 4, "cluster_id": 2, "rank_in_cluster": 3}

>  <energy>  (60) 
-4.4

>  <cluster_rmsd>  (60) 
0.17

>  <rmsd>  (60) 
271.84

>  <cluster>  (60) 
5

$$$$
XACSTBCXFQXDPE-SGJRTRLANA-N
     RDKit          3D

 47 48  0  0  0  0  0  0  0  0999 V2000
  141.8160   76.4270  222.5920 H   0  0  0  0  0  0  0  0  0  0  0  0
  141.3910   77.1920  223.1030 O   0  0  0  0  0  0  0  0  0  0  0  0
  140.9450   78.3360  222.4460 C   0  0  0  0  0  0  0  0  0  0  0  0
  140.6840   78.2700  221.1700 N   0  0  0  0  0  0  0  0  0  0  0  0
  141.2590   79.1000  220.1490 C   0  0  0  0  0  0  0  0  0  0  0  0
  140.9390   80.4640  220.1380 C   0  0  0  0  0  0  0  0  0  0  0  0
  140.2801   80.8765  220.9163 H   0  0  0  0  0  0  0  0  0  0  0  0
  141.4500   81.3030  219.1470 C   0  0  0  0  0  0  0  0  0  0  0  0
  141.1847   82.3705  219.1401 H   0  0  0  0  0  0  0  0  0  0  0  0
  142.2970   80.7890  218.1650 C   0  0  0  0  0  0  0  0  0  0  0  0
  142.6891   81.4494  217.3775 H   0  0  0  0  0  0  0  0  0  0  0  0
  142.6480   79.4370  218.1800 C   0  0  0  0  0  0  0  0  0  0  0  0
  143.3239   79.0412  217.4077 H   0  0  0  0  0  0  0  0  0  0  0  0
  142.1450   78.5760  219.1740 C   0  0  0  0  0  0  0  0  0  0  0  0
  142.5760   77.1570  219.1930 C   0  0  0  0  0  0  0  0  0  0  0  0
  143.0390   76.6300  218.1450 O   0  0  0  0  0  0  0  0  0  0  0  0
  142.4920   76.3870  220.4040 N   0  0  0  0  0  0  0  0  0  0  0  0
  142.3500   76.8890  221.3090 H   0  0  0  0  0  0  0  0  0  0  0  0
  142.6940   74.9660  220.4450 C   0  0  0  0  0  0  0  0  0  0  0  0
  143.7140   74.3810  219.6760 C   0  0  0  0  0  0  0  0  0  0  0  0
  144.4140   75.0230  219.1212 H   0  0  0  0  0  0  0  0  0  0  0  0
  143.8480   72.9920  219.6090 C   0  0  0  0  0  0  0  0  0  0  0  0
  144.6593   72.5476  219.0138 H   0  0  0  0  0  0  0  0  0  0  0  0
  142.9490   72.1600  220.3000 C   0  0  0  0  0  0  0  0  0  0  0  0
  143.0340   70.7610  220.2560 O   0  0  0  0  0  0  0  0  0  0  0  0
  143.9530   70.0340  219.4460 C   0  0  0  0  0  0  0  0  0  0  0  0
  144.6520   69.4810  220.0906 H   0  0  0  0  0  0  0  0  0  0  0  0
  143.4011   69.3254  218.8109 H   0  0  0  0  0  0  0  0  0  0  0  0
  144.5155   70.7342  218.8109 H   0  0  0  0  0  0  0  0  0  0  0  0
  141.9280   72.7410  221.0590 C   0  0  0  0  0  0  0  0  0  0  0  0
  141.2124   72.0947  221.5883 H   0  0  0  0  0  0  0  0  0  0  0  0
  141.8020   74.1330  221.1560 C   0  0  0  0  0  0  0  0  0  0  0  0
  140.7810   74.6480  221.9650 O   0  0  0  0  0  0  0  0  0  0  0  0
  139.5480   75.1390  221.4440 C   0  0  0  0  0  0  0  0  0  0  0  0
  138.8788   75.4055  222.2754 H   0  0  0  0  0  0  0  0  0  0  0  0
  139.7392   76.0296  220.8273 H   0  0  0  0  0  0  0  0  0  0  0  0
  139.0747   74.3607  220.8273 H   0  0  0  0  0  0  0  0  0  0  0  0
  140.8240   79.6110  223.2480 C   0  0  0  0  0  0  0  0  0  0  0  0
  140.1064   79.4507  224.0662 H   0  0  0  0  0  0  0  0  0  0  0  0
  140.4808   80.4092  222.5734 H   0  0  0  0  0  0  0  0  0  0  0  0
  142.1720   80.0360  223.8450 C   0  0  0  0  0  0  0  0  0  0  0  0
  142.5091   79.2582  224.5459 H   0  0  0  0  0  0  0  0  0  0  0  0
  142.0250   81.0000  224.3539 H   0  0  0  0  0  0  0  0  0  0  0  0
  143.2460   80.2320  222.7750 C   0  0  0  0  0  0  0  0  0  0  0  0
  144.2177   80.4093  223.2590 H   0  0  0  0  0  0  0  0  0  0  0  0
  143.3078   79.3303  222.1480 H   0  0  0  0  0  0  0  0  0  0  0  0
  142.9853   81.0974  222.1480 H   0  0  0  0  0  0  0  0  0  0  0  0
  1  2  1  0
  2  3  1  0
  3  4  2  0
  4  5  1  0
  5  6  2  0
  6  7  1  0
  6  8  1  0
  8  9  1  0
  8 10  2  0
 10 11  1  0
 10 12  1  0
 12 13  1  0
 12 14  2  0
 14 15  1  0
 15 16  2  0
 15 17  1  0
 17 18  1  0
 17 19  1  0
 19 20  2  0
 20 21  1  0
 20 22  1  0
 22 23  1  0
 22 24  2  0
 24 25  1  0
 25 26  1  0
 26 27  1  0
 26 28  1  0
 26 29  1  0
 24 30  1  0
 30 31  1  0
 30 32  2  0
 32 33  1  0
 33 34  1  0
 34 35  1  0
 34 36  1  0
 34 37  1  0
  3 38  1  0
 38 39  1  0
 38 40  1  0
 38 41  1  0
 41 42  1  0
 41 43  1  0
 41 44  1  0
 44 45  1  0
 44 46  1  0
 44 47  1  0
 14  5  1  0
 32 19  1  0
M  END
>  <UniqueID>  (61) 
12

>  <SMILES>  (61) 
CCC/C(O)=N\c1ccccc1C(=O)Nc1ccc(OC)cc1OC

>  <Energy>  (61) 
61.29818353579485

>  <Genealogy>  (61) 
CCCC(O)=Nc1ccccc1C(=O)Nc1ccc(OC)cc1OC (tautomer)
CCC/C(O)=N\c1ccccc1C(=O)Nc1ccc(OC)cc1OC (cis-trans isomerization)
CCC/C(O)=N\c1ccccc1C(=O)Nc1ccc(OC)cc1OC (3D coordinates assigned)
CCC/C(O)=N\c1ccccc1C(=O)Nc1ccc(OC)cc1OC (optimized conformer: 61.29818353579485 kcal/mol)

>  <smiles>  (61) 
CCCC(=O)Nc1ccccc1C(=O)Nc1ccc(OC)cc1OC

>  <score_type>  (61) 
oracle

>  <origin>  (61) 
autodockgpu

>  <m_score__min__energy>  (61) 
-5.2000000000000002

>  <m_primary>  (61) 
energy

>  <meeko>  (61) 
{"free_energy": -5.08, "intermolecular_energy": -7.77, "internal_energy": -3.32, "cluster_size": 10, "cluster_id": 2, "rank_in_cluster": 7}

>  <energy>  (61) 
-5.2

>  <cluster_rmsd>  (61) 
0.0

>  <rmsd>  (61) 
270.31

>  <cluster>  (61) 
1

$$$$
XACSTBCXFQXDPE-SGJRTRLANA-N
     RDKit          3D

 47 48  0  0  0  0  0  0  0  0999 V2000
  138.9420   73.9120  222.7670 H   0  0  0  0  0  0  0  0  0  0  0  0
  139.9410   73.7600  222.7020 O   0  0  0  0  0  0  0  0  0  0  0  0
  140.4640   72.7400  221.9110 C   0  0  0  0  0  0  0  0  0  0  0  0
  140.9850   73.0420  220.7550 N   0  0  0  0  0  0  0  0  0  0  0  0
  142.3870   73.1090  220.4540 C   0  0  0  0  0  0  0  0  0  0  0  0
  143.0810   71.9120  220.2310 C   0  0  0  0  0  0  0  0  0  0  0  0
  142.5419   70.9538  220.2651 H   0  0  0  0  0  0  0  0  0  0  0  0
  144.4510   71.9270  219.9660 C   0  0  0  0  0  0  0  0  0  0  0  0
  144.9896   70.9816  219.8043 H   0  0  0  0  0  0  0  0  0  0  0  0
  145.1380   73.1390  219.9060 C   0  0  0  0  0  0  0  0  0  0  0  0
  146.2200   73.1473  219.7079 H   0  0  0  0  0  0  0  0  0  0  0  0
  144.4550   74.3430  220.0970 C   0  0  0  0  0  0  0  0  0  0  0  0
  145.0023   75.2954  220.0383 H   0  0  0  0  0  0  0  0  0  0  0  0
  143.0720   74.3480  220.3640 C   0  0  0  0  0  0  0  0  0  0  0  0
  142.3650   75.6430  220.5110 C   0  0  0  0  0  0  0  0  0  0  0  0
  142.6880   76.6190  219.7790 O   0  0  0  0  0  0  0  0  0  0  0  0
  141.3000   75.7860  221.4660 N   0  0  0  0  0  0  0  0  0  0  0  0
  140.8780   74.9250  221.8800 H   0  0  0  0  0  0  0  0  0  0  0  0
  140.7170   77.0540  221.8060 C   0  0  0  0  0  0  0  0  0  0  0  0
  141.4920   78.2240  221.7320 C   0  0  0  0  0  0  0  0  0  0  0  0
  142.5117   78.1769  221.3220 H   0  0  0  0  0  0  0  0  0  0  0  0
  140.9800   79.4460  222.1740 C   0  0  0  0  0  0  0  0  0  0  0  0
  141.5928   80.3563  222.0983 H   0  0  0  0  0  0  0  0  0  0  0  0
  139.6850   79.5170  222.7150 C   0  0  0  0  0  0  0  0  0  0  0  0
  139.1290   80.7170  223.1820 O   0  0  0  0  0  0  0  0  0  0  0  0
  138.1230   80.8020  224.1870 C   0  0  0  0  0  0  0  0  0  0  0  0
  138.5931   80.7623  225.1807 H   0  0  0  0  0  0  0  0  0  0  0  0
  137.5751   81.7496  224.0782 H   0  0  0  0  0  0  0  0  0  0  0  0
  137.4239   79.9597  224.0782 H   0  0  0  0  0  0  0  0  0  0  0  0
  138.9150   78.3510  222.7980 C   0  0  0  0  0  0  0  0  0  0  0  0
  137.9073   78.3977  223.2366 H   0  0  0  0  0  0  0  0  0  0  0  0
  139.4080   77.1250  222.3310 C   0  0  0  0  0  0  0  0  0  0  0  0
  138.5700   76.0060  222.4080 O   0  0  0  0  0  0  0  0  0  0  0  0
  137.1800   76.0930  222.7100 C   0  0  0  0  0  0  0  0  0  0  0  0
  137.0417   76.1017  223.8012 H   0  0  0  0  0  0  0  0  0  0  0  0
  136.7688   77.0186  222.2809 H   0  0  0  0  0  0  0  0  0  0  0  0
  136.6566   75.2259  222.2809 H   0  0  0  0  0  0  0  0  0  0  0  0
  140.3620   71.3220  222.4250 C   0  0  0  0  0  0  0  0  0  0  0  0
  141.3741   70.8990  222.5070 H   0  0  0  0  0  0  0  0  0  0  0  0
  139.7492   70.7442  221.7175 H   0  0  0  0  0  0  0  0  0  0  0  0
  139.6860   71.2640  223.8010 C   0  0  0  0  0  0  0  0  0  0  0  0
  139.0544   70.3646  223.8469 H   0  0  0  0  0  0  0  0  0  0  0  0
  139.0902   72.1808  223.9214 H   0  0  0  0  0  0  0  0  0  0  0  0
  140.6980   71.2120  224.9440 C   0  0  0  0  0  0  0  0  0  0  0  0
  140.1659   71.2393  225.9064 H   0  0  0  0  0  0  0  0  0  0  0  0
  141.2823   70.2826  224.8744 H   0  0  0  0  0  0  0  0  0  0  0  0
  141.3745   72.0766  224.8744 H   0  0  0  0  0  0  0  0  0  0  0  0
  1  2  1  0
  2  3  1  0
  3  4  2  0
  4  5  1  0
  5  6  2  0
  6  7  1  0
  6  8  1  0
  8  9  1  0
  8 10  2  0
 10 11  1  0
 10 12  1  0
 12 13  1  0
 12 14  2  0
 14 15  1  0
 15 16  2  0
 15 17  1  0
 17 18  1  0
 17 19  1  0
 19 20  2  0
 20 21  1  0
 20 22  1  0
 22 23  1  0
 22 24  2  0
 24 25  1  0
 25 26  1  0
 26 27  1  0
 26 28  1  0
 26 29  1  0
 24 30  1  0
 30 31  1  0
 30 32  2  0
 32 33  1  0
 33 34  1  0
 34 35  1  0
 34 36  1  0
 34 37  1  0
  3 38  1  0
 38 39  1  0
 38 40  1  0
 38 41  1  0
 41 42  1  0
 41 43  1  0
 41 44  1  0
 44 45  1  0
 44 46  1  0
 44 47  1  0
 14  5  1  0
 32 19  1  0
M  END
>  <UniqueID>  (62) 
12

>  <SMILES>  (62) 
CCC/C(O)=N\c1ccccc1C(=O)Nc1ccc(OC)cc1OC

>  <Energy>  (62) 
61.29818353579485

>  <Genealogy>  (62) 
CCCC(O)=Nc1ccccc1C(=O)Nc1ccc(OC)cc1OC (tautomer)
CCC/C(O)=N\c1ccccc1C(=O)Nc1ccc(OC)cc1OC (cis-trans isomerization)
CCC/C(O)=N\c1ccccc1C(=O)Nc1ccc(OC)cc1OC (3D coordinates assigned)
CCC/C(O)=N\c1ccccc1C(=O)Nc1ccc(OC)cc1OC (optimized conformer: 61.29818353579485 kcal/mol)

>  <smiles>  (62) 
CCCC(=O)Nc1ccccc1C(=O)Nc1ccc(OC)cc1OC

>  <score_type>  (62) 
oracle

>  <origin>  (62) 
autodockgpu

>  <m_score__min__energy>  (62) 
-5.2000000000000002

>  <m_primary>  (62) 
energy

>  <meeko>  (62) 
{"free_energy": -5.0, "intermolecular_energy": -7.69, "internal_energy": -3.24, "cluster_size": 3, "cluster_id": 3, "rank_in_cluster": 3}

>  <energy>  (62) 
-5.2

>  <cluster_rmsd>  (62) 
0.04

>  <rmsd>  (62) 
270.31

>  <cluster>  (62) 
1

$$$$
XACSTBCXFQXDPE-SGJRTRLANA-N
     RDKit          3D

 47 48  0  0  0  0  0  0  0  0999 V2000
  143.1240   77.8860  219.7700 H   0  0  0  0  0  0  0  0  0  0  0  0
  142.2040   78.2910  219.8960 O   0  0  0  0  0  0  0  0  0  0  0  0
  141.8070   78.8090  221.1260 C   0  0  0  0  0  0  0  0  0  0  0  0
  141.4260   77.9860  222.0640 N   0  0  0  0  0  0  0  0  0  0  0  0
  140.0730   77.6000  222.3460 C   0  0  0  0  0  0  0  0  0  0  0  0
  139.1730   78.5840  222.7760 C   0  0  0  0  0  0  0  0  0  0  0  0
  139.5073   79.6282  222.8653 H   0  0  0  0  0  0  0  0  0  0  0  0
  137.8550   78.2490  223.0920 C   0  0  0  0  0  0  0  0  0  0  0  0
  137.1591   79.0260  223.4414 H   0  0  0  0  0  0  0  0  0  0  0  0
  137.4200   76.9300  222.9650 C   0  0  0  0  0  0  0  0  0  0  0  0
  136.3841   76.6661  223.2242 H   0  0  0  0  0  0  0  0  0  0  0  0
  138.2980   75.9430  222.5090 C   0  0  0  0  0  0  0  0  0  0  0  0
  137.9448   74.9067  222.4030 H   0  0  0  0  0  0  0  0  0  0  0  0
  139.6300   76.2620  222.1840 C   0  0  0  0  0  0  0  0  0  0  0  0
  140.5230   75.2030  221.6540 C   0  0  0  0  0  0  0  0  0  0  0  0
  140.3070   73.9970  221.9510 O   0  0  0  0  0  0  0  0  0  0  0  0
  141.6180   75.5420  220.7870 N   0  0  0  0  0  0  0  0  0  0  0  0
  141.6390   76.4910  220.3520 H   0  0  0  0  0  0  0  0  0  0  0  0
  142.6380   74.6040  220.4080 C   0  0  0  0  0  0  0  0  0  0  0  0
  142.6420   73.3120  220.9640 C   0  0  0  0  0  0  0  0  0  0  0  0
  141.8115   72.9949  221.6118 H   0  0  0  0  0  0  0  0  0  0  0  0
  143.6910   72.4280  220.7010 C   0  0  0  0  0  0  0  0  0  0  0  0
  143.6751   71.4156  221.1309 H   0  0  0  0  0  0  0  0  0  0  0  0
  144.7670   72.8270  219.8890 C   0  0  0  0  0  0  0  0  0  0  0  0
  145.8490   71.9810  219.6050 O   0  0  0  0  0  0  0  0  0  0  0  0
  145.7290   70.6870  219.0220 C   0  0  0  0  0  0  0  0  0  0  0  0
  145.6589   69.9312  219.8182 H   0  0  0  0  0  0  0  0  0  0  0  0
  144.8234   70.6481  218.3988 H   0  0  0  0  0  0  0  0  0  0  0  0
  146.6120   70.4823  218.3988 H   0  0  0  0  0  0  0  0  0  0  0  0
  144.7690   74.1150  219.3430 C   0  0  0  0  0  0  0  0  0  0  0  0
  145.6169   74.4383  218.7213 H   0  0  0  0  0  0  0  0  0  0  0  0
  143.7070   75.0000  219.5760 C   0  0  0  0  0  0  0  0  0  0  0  0
  143.7540   76.2600  218.9670 O   0  0  0  0  0  0  0  0  0  0  0  0
  143.3140   76.4960  217.6320 C   0  0  0  0  0  0  0  0  0  0  0  0
  142.3448   77.0158  217.6519 H   0  0  0  0  0  0  0  0  0  0  0  0
  144.0533   77.1186  217.1069 H   0  0  0  0  0  0  0  0  0  0  0  0
  143.2043   75.5357  217.1069 H   0  0  0  0  0  0  0  0  0  0  0  0
  141.8040   80.3110  221.2950 C   0  0  0  0  0  0  0  0  0  0  0  0
  140.9308   80.7268  220.7710 H   0  0  0  0  0  0  0  0  0  0  0  0
  142.7409   80.7050  220.8745 H   0  0  0  0  0  0  0  0  0  0  0  0
  141.7360   80.7160  222.7730 C   0  0  0  0  0  0  0  0  0  0  0  0
  140.9332   80.1429  223.2600 H   0  0  0  0  0  0  0  0  0  0  0  0
  141.5415   81.7978  222.8162 H   0  0  0  0  0  0  0  0  0  0  0  0
  143.0470   80.4480  223.5100 C   0  0  0  0  0  0  0  0  0  0  0  0
  142.8715   80.4839  224.5953 H   0  0  0  0  0  0  0  0  0  0  0  0
  143.4269   79.4536  223.2327 H   0  0  0  0  0  0  0  0  0  0  0  0
  143.7866   81.2135  223.2327 H   0  0  0  0  0  0  0  0  0  0  0  0
  1  2  1  0
  2  3  1  0
  3  4  2  0
  4  5  1  0
  5  6  2  0
  6  7  1  0
  6  8  1  0
  8  9  1  0
  8 10  2  0
 10 11  1  0
 10 12  1  0
 12 13  1  0
 12 14  2  0
 14 15  1  0
 15 16  2  0
 15 17  1  0
 17 18  1  0
 17 19  1  0
 19 20  2  0
 20 21  1  0
 20 22  1  0
 22 23  1  0
 22 24  2  0
 24 25  1  0
 25 26  1  0
 26 27  1  0
 26 28  1  0
 26 29  1  0
 24 30  1  0
 30 31  1  0
 30 32  2  0
 32 33  1  0
 33 34  1  0
 34 35  1  0
 34 36  1  0
 34 37  1  0
  3 38  1  0
 38 39  1  0
 38 40  1  0
 38 41  1  0
 41 42  1  0
 41 43  1  0
 41 44  1  0
 44 45  1  0
 44 46  1  0
 44 47  1  0
 14  5  1  0
 32 19  1  0
M  END
>  <UniqueID>  (63) 
12

>  <SMILES>  (63) 
CCC/C(O)=N\c1ccccc1C(=O)Nc1ccc(OC)cc1OC

>  <Energy>  (63) 
61.29818353579485

>  <Genealogy>  (63) 
CCCC(O)=Nc1ccccc1C(=O)Nc1ccc(OC)cc1OC (tautomer)
CCC/C(O)=N\c1ccccc1C(=O)Nc1ccc(OC)cc1OC (cis-trans isomerization)
CCC/C(O)=N\c1ccccc1C(=O)Nc1ccc(OC)cc1OC (3D coordinates assigned)
CCC/C(O)=N\c1ccccc1C(=O)Nc1ccc(OC)cc1OC (optimized conformer: 61.29818353579485 kcal/mol)

>  <smiles>  (63) 
CCCC(=O)Nc1ccccc1C(=O)Nc1ccc(OC)cc1OC

>  <score_type>  (63) 
oracle

>  <origin>  (63) 
autodockgpu

>  <m_score__min__energy>  (63) 
-5.2000000000000002

>  <m_primary>  (63) 
energy

>  <meeko>  (63) 
{"free_energy": -5.17, "intermolecular_energy": -7.86, "internal_energy": -3.21, "cluster_size": 6, "cluster_id": 1, "rank_in_cluster": 3}

>  <energy>  (63) 
-5.17

>  <cluster_rmsd>  (63) 
0.3

>  <rmsd>  (63) 
270.32

>  <cluster>  (63) 
1

$$$$
XACSTBCXFQXDPE-SGJRTRLANA-N
     RDKit          3D

 47 48  0  0  0  0  0  0  0  0999 V2000
  143.6020   77.2330  219.8520 H   0  0  0  0  0  0  0  0  0  0  0  0
  144.0830   76.3750  220.0910 O   0  0  0  0  0  0  0  0  0  0  0  0
  143.5220   75.1320  219.8100 C   0  0  0  0  0  0  0  0  0  0  0  0
  142.2230   75.0110  219.8090 N   0  0  0  0  0  0  0  0  0  0  0  0
  141.4660   74.0410  220.5480 C   0  0  0  0  0  0  0  0  0  0  0  0
  141.6390   72.6850  220.2420 C   0  0  0  0  0  0  0  0  0  0  0  0
  142.3611   72.3880  219.4671 H   0  0  0  0  0  0  0  0  0  0  0  0
  140.9020   71.7080  220.9130 C   0  0  0  0  0  0  0  0  0  0  0  0
  141.0352   70.6466  220.6567 H   0  0  0  0  0  0  0  0  0  0  0  0
  139.9970   72.0760  221.9080 C   0  0  0  0  0  0  0  0  0  0  0  0
  139.4091   71.3054  222.4282 H   0  0  0  0  0  0  0  0  0  0  0  0
  139.8360   73.4220  222.2450 C   0  0  0  0  0  0  0  0  0  0  0  0
  139.1269   73.7039  223.0373 H   0  0  0  0  0  0  0  0  0  0  0  0
  140.5720   74.4210  221.5810 C   0  0  0  0  0  0  0  0  0  0  0  0
  140.4160   75.8370  221.9960 C   0  0  0  0  0  0  0  0  0  0  0  0
  139.3870   76.1920  222.6340 O   0  0  0  0  0  0  0  0  0  0  0  0
  141.4410   76.7990  221.6970 N   0  0  0  0  0  0  0  0  0  0  0  0
  142.3810   76.4560  221.4000 H   0  0  0  0  0  0  0  0  0  0  0  0
  141.2660   78.2130  221.8820 C   0  0  0  0  0  0  0  0  0  0  0  0
  140.7130   78.6990  223.0790 C   0  0  0  0  0  0  0  0  0  0  0  0
  140.5056   78.0030  223.9052 H   0  0  0  0  0  0  0  0  0  0  0  0
  140.4240   80.0580  223.2300 C   0  0  0  0  0  0  0  0  0  0  0  0
  140.0035   80.4272  224.1771 H   0  0  0  0  0  0  0  0  0  0  0  0
  140.6690   80.9550  222.1750 C   0  0  0  0  0  0  0  0  0  0  0  0
  140.3860   82.3250  222.2720 O   0  0  0  0  0  0  0  0  0  0  0  0
  140.5950   83.2670  221.2250 C   0  0  0  0  0  0  0  0  0  0  0  0
  140.8140   84.2541  221.6582 H   0  0  0  0  0  0  0  0  0  0  0  0
  141.4431   82.9428  220.6040 H   0  0  0  0  0  0  0  0  0  0  0  0
  139.6894   83.3319  220.6040 H   0  0  0  0  0  0  0  0  0  0  0  0
  141.2110   80.4710  220.9800 C   0  0  0  0  0  0  0  0  0  0  0  0
  141.3883   81.1658  220.1458 H   0  0  0  0  0  0  0  0  0  0  0  0
  141.5320   79.1150  220.8280 C   0  0  0  0  0  0  0  0  0  0  0  0
  142.1080   78.7050  219.6200 O   0  0  0  0  0  0  0  0  0  0  0  0
  142.1990   79.5490  218.4750 C   0  0  0  0  0  0  0  0  0  0  0  0
  142.3117   80.5944  218.7981 H   0  0  0  0  0  0  0  0  0  0  0  0
  143.0707   79.2557  217.8716 H   0  0  0  0  0  0  0  0  0  0  0  0
  141.2848   79.4483  217.8716 H   0  0  0  0  0  0  0  0  0  0  0  0
  144.4580   73.9720  219.5580 C   0  0  0  0  0  0  0  0  0  0  0  0
  145.3743   74.3504  219.0813 H   0  0  0  0  0  0  0  0  0  0  0  0
  143.9430   73.2513  218.9057 H   0  0  0  0  0  0  0  0  0  0  0  0
  144.8350   73.2540  220.8600 C   0  0  0  0  0  0  0  0  0  0  0  0
  144.6574   72.1759  220.7332 H   0  0  0  0  0  0  0  0  0  0  0  0
  144.2142   73.6724  221.6660 H   0  0  0  0  0  0  0  0  0  0  0  0
  146.3000   73.4690  221.2400 C   0  0  0  0  0  0  0  0  0  0  0  0
  146.3963   73.4831  222.3357 H   0  0  0  0  0  0  0  0  0  0  0  0
  146.9093   72.6507  220.8289 H   0  0  0  0  0  0  0  0  0  0  0  0
  146.6485   74.4279  220.8289 H   0  0  0  0  0  0  0  0  0  0  0  0
  1  2  1  0
  2  3  1  0
  3  4  2  0
  4  5  1  0
  5  6  2  0
  6  7  1  0
  6  8  1  0
  8  9  1  0
  8 10  2  0
 10 11  1  0
 10 12  1  0
 12 13  1  0
 12 14  2  0
 14 15  1  0
 15 16  2  0
 15 17  1  0
 17 18  1  0
 17 19  1  0
 19 20  2  0
 20 21  1  0
 20 22  1  0
 22 23  1  0
 22 24  2  0
 24 25  1  0
 25 26  1  0
 26 27  1  0
 26 28  1  0
 26 29  1  0
 24 30  1  0
 30 31  1  0
 30 32  2  0
 32 33  1  0
 33 34  1  0
 34 35  1  0
 34 36  1  0
 34 37  1  0
  3 38  1  0
 38 39  1  0
 38 40  1  0
 38 41  1  0
 41 42  1  0
 41 43  1  0
 41 44  1  0
 44 45  1  0
 44 46  1  0
 44 47  1  0
 14  5  1  0
 32 19  1  0
M  END
>  <UniqueID>  (64) 
12

>  <SMILES>  (64) 
CCC/C(O)=N\c1ccccc1C(=O)Nc1ccc(OC)cc1OC

>  <Energy>  (64) 
61.29818353579485

>  <Genealogy>  (64) 
CCCC(O)=Nc1ccccc1C(=O)Nc1ccc(OC)cc1OC (tautomer)
CCC/C(O)=N\c1ccccc1C(=O)Nc1ccc(OC)cc1OC (cis-trans isomerization)
CCC/C(O)=N\c1ccccc1C(=O)Nc1ccc(OC)cc1OC (3D coordinates assigned)
CCC/C(O)=N\c1ccccc1C(=O)Nc1ccc(OC)cc1OC (optimized conformer: 61.29818353579485 kcal/mol)

>  <smiles>  (64) 
CCCC(=O)Nc1ccccc1C(=O)Nc1ccc(OC)cc1OC

>  <score_type>  (64) 
oracle

>  <origin>  (64) 
autodockgpu

>  <m_score__min__energy>  (64) 
-5.2000000000000002

>  <m_primary>  (64) 
energy

>  <meeko>  (64) 
{"free_energy": -4.9, "intermolecular_energy": -7.58, "internal_energy": -3.22, "cluster_size": 1, "cluster_id": 4, "rank_in_cluster": 1}

>  <energy>  (64) 
-5.03

>  <cluster_rmsd>  (64) 
0.56

>  <rmsd>  (64) 
270.2

>  <cluster>  (64) 
1

$$$$
XACSTBCXFQXDPE-SGJRTRLANA-N
     RDKit          3D

 47 48  0  0  0  0  0  0  0  0999 V2000
  141.8330   76.2990  222.6170 H   0  0  0  0  0  0  0  0  0  0  0  0
  141.4070   77.0570  223.1360 O   0  0  0  0  0  0  0  0  0  0  0  0
  141.0500   78.2480  222.5080 C   0  0  0  0  0  0  0  0  0  0  0  0
  140.7320   78.2240  221.2430 N   0  0  0  0  0  0  0  0  0  0  0  0
  141.3020   79.0480  220.2150 C   0  0  0  0  0  0  0  0  0  0  0  0
  141.0050   80.4170  220.2150 C   0  0  0  0  0  0  0  0  0  0  0  0
  140.3674   80.8372  221.0068 H   0  0  0  0  0  0  0  0  0  0  0  0
  141.5120   81.2520  219.2180 C   0  0  0  0  0  0  0  0  0  0  0  0
  141.2631   82.3235  219.2188 H   0  0  0  0  0  0  0  0  0  0  0  0
  142.3340   80.7280  218.2210 C   0  0  0  0  0  0  0  0  0  0  0  0
  142.7237   81.3854  217.4298 H   0  0  0  0  0  0  0  0  0  0  0  0
  142.6640   79.3710  218.2240 C   0  0  0  0  0  0  0  0  0  0  0  0
  143.3210   78.9680  217.4392 H   0  0  0  0  0  0  0  0  0  0  0  0
  142.1630   78.5140  219.2230 C   0  0  0  0  0  0  0  0  0  0  0  0
  142.5720   77.0880  219.2300 C   0  0  0  0  0  0  0  0  0  0  0  0
  143.0080   76.5580  218.1710 O   0  0  0  0  0  0  0  0  0  0  0  0
  142.4950   76.3150  220.4390 N   0  0  0  0  0  0  0  0  0  0  0  0
  142.3760   76.8150  221.3470 H   0  0  0  0  0  0  0  0  0  0  0  0
  142.6750   74.8900  220.4710 C   0  0  0  0  0  0  0  0  0  0  0  0
  143.6930   74.2950  219.7060 C   0  0  0  0  0  0  0  0  0  0  0  0
  144.4075   74.9302  219.1619 H   0  0  0  0  0  0  0  0  0  0  0  0
  143.8060   72.9050  219.6300 C   0  0  0  0  0  0  0  0  0  0  0  0
  144.6161   72.4525  219.0392 H   0  0  0  0  0  0  0  0  0  0  0  0
  142.8880   72.0820  220.3060 C   0  0  0  0  0  0  0  0  0  0  0  0
  142.9520   70.6820  220.2530 O   0  0  0  0  0  0  0  0  0  0  0  0
  143.8210   69.9470  219.3960 C   0  0  0  0  0  0  0  0  0  0  0  0
  144.5210   69.3550  220.0039 H   0  0  0  0  0  0  0  0  0  0  0  0
  143.2265   69.2735  218.7612 H   0  0  0  0  0  0  0  0  0  0  0  0
  144.3865   70.6450  218.7612 H   0  0  0  0  0  0  0  0  0  0  0  0
  141.8690   72.6730  221.0610 C   0  0  0  0  0  0  0  0  0  0  0  0
  141.1387   72.0338  221.5788 H   0  0  0  0  0  0  0  0  0  0  0  0
  141.7640   74.0660  221.1680 C   0  0  0  0  0  0  0  0  0  0  0  0
  140.7440   74.5900  221.9710 O   0  0  0  0  0  0  0  0  0  0  0  0
  139.5340   75.1280  221.4420 C   0  0  0  0  0  0  0  0  0  0  0  0
  138.8713   75.4226  222.2691 H   0  0  0  0  0  0  0  0  0  0  0  0
  139.7635   76.0089  220.8244 H   0  0  0  0  0  0  0  0  0  0  0  0
  139.0337   74.3675  220.8244 H   0  0  0  0  0  0  0  0  0  0  0  0
  141.0880   79.5190  223.3250 C   0  0  0  0  0  0  0  0  0  0  0  0
  140.7132   79.3040  224.3366 H   0  0  0  0  0  0  0  0  0  0  0  0
  140.4587   80.2687  222.8230 H   0  0  0  0  0  0  0  0  0  0  0  0
  142.5110   80.0820  223.4310 C   0  0  0  0  0  0  0  0  0  0  0  0
  142.8996   80.2539  222.4164 H   0  0  0  0  0  0  0  0  0  0  0  0
  143.1225   79.3488  223.9773 H   0  0  0  0  0  0  0  0  0  0  0  0
  142.5590   81.3990  224.2050 C   0  0  0  0  0  0  0  0  0  0  0  0
  142.5514   81.1901  225.2850 H   0  0  0  0  0  0  0  0  0  0  0  0
  143.4776   81.9447  223.9436 H   0  0  0  0  0  0  0  0  0  0  0  0
  141.6825   82.0101  223.9436 H   0  0  0  0  0  0  0  0  0  0  0  0
  1  2  1  0
  2  3  1  0
  3  4  2  0
  4  5  1  0
  5  6  2  0
  6  7  1  0
  6  8  1  0
  8  9  1  0
  8 10  2  0
 10 11  1  0
 10 12  1  0
 12 13  1  0
 12 14  2  0
 14 15  1  0
 15 16  2  0
 15 17  1  0
 17 18  1  0
 17 19  1  0
 19 20  2  0
 20 21  1  0
 20 22  1  0
 22 23  1  0
 22 24  2  0
 24 25  1  0
 25 26  1  0
 26 27  1  0
 26 28  1  0
 26 29  1  0
 24 30  1  0
 30 31  1  0
 30 32  2  0
 32 33  1  0
 33 34  1  0
 34 35  1  0
 34 36  1  0
 34 37  1  0
  3 38  1  0
 38 39  1  0
 38 40  1  0
 38 41  1  0
 41 42  1  0
 41 43  1  0
 41 44  1  0
 44 45  1  0
 44 46  1  0
 44 47  1  0
 14  5  1  0
 32 19  1  0
M  END
>  <UniqueID>  (65) 
12

>  <SMILES>  (65) 
CCC/C(O)=N\c1ccccc1C(=O)Nc1ccc(OC)cc1OC

>  <Energy>  (65) 
61.29818353579485

>  <Genealogy>  (65) 
CCCC(O)=Nc1ccccc1C(=O)Nc1ccc(OC)cc1OC (tautomer)
CCC/C(O)=N\c1ccccc1C(=O)Nc1ccc(OC)cc1OC (cis-trans isomerization)
CCC/C(O)=N\c1ccccc1C(=O)Nc1ccc(OC)cc1OC (3D coordinates assigned)
CCC/C(O)=N\c1ccccc1C(=O)Nc1ccc(OC)cc1OC (optimized conformer: 61.29818353579485 kcal/mol)

>  <smiles>  (65) 
CCCC(=O)Nc1ccccc1C(=O)Nc1ccc(OC)cc1OC

>  <score_type>  (65) 
oracle

>  <origin>  (65) 
autodockgpu

>  <m_score__min__energy>  (65) 
-5.2000000000000002

>  <m_primary>  (65) 
energy

>  <meeko>  (65) 
{"free_energy": -5.18, "intermolecular_energy": -7.86, "internal_energy": -3.21, "cluster_size": 10, "cluster_id": 2, "rank_in_cluster": 1}

>  <energy>  (65) 
-5.03

>  <cluster_rmsd>  (65) 
0.55

>  <rmsd>  (65) 
270.21

>  <cluster>  (65) 
1

$$$$
XACSTBCXFQXDPE-SGJRTRLANA-N
     RDKit          3D

 47 48  0  0  0  0  0  0  0  0999 V2000
  143.1620   77.8630  219.9140 H   0  0  0  0  0  0  0  0  0  0  0  0
  142.2010   78.1410  220.0720 O   0  0  0  0  0  0  0  0  0  0  0  0
  141.7710   78.5670  221.3270 C   0  0  0  0  0  0  0  0  0  0  0  0
  141.3140   77.6840  222.1710 N   0  0  0  0  0  0  0  0  0  0  0  0
  139.9490   77.2540  222.2830 C   0  0  0  0  0  0  0  0  0  0  0  0
  139.0300   78.1040  222.9130 C   0  0  0  0  0  0  0  0  0  0  0  0
  139.3601   79.0852  223.2850 H   0  0  0  0  0  0  0  0  0  0  0  0
  137.6990   77.7150  223.0720 C   0  0  0  0  0  0  0  0  0  0  0  0
  136.9878   78.3839  223.5787 H   0  0  0  0  0  0  0  0  0  0  0  0
  137.2700   76.4790  222.5890 C   0  0  0  0  0  0  0  0  0  0  0  0
  136.2233   76.1694  222.7253 H   0  0  0  0  0  0  0  0  0  0  0  0
  138.1680   75.6330  221.9320 C   0  0  0  0  0  0  0  0  0  0  0  0
  137.8202   74.6635  221.5458 H   0  0  0  0  0  0  0  0  0  0  0  0
  139.5130   76.0100  221.7600 C   0  0  0  0  0  0  0  0  0  0  0  0
  140.4300   75.1130  221.0140 C   0  0  0  0  0  0  0  0  0  0  0  0
  139.9630   74.1180  220.3960 O   0  0  0  0  0  0  0  0  0  0  0  0
  141.8400   75.3860  220.9730 N   0  0  0  0  0  0  0  0  0  0  0  0
  142.1780   76.3290  221.2680 H   0  0  0  0  0  0  0  0  0  0  0  0
  142.8030   74.4570  220.4510 C   0  0  0  0  0  0  0  0  0  0  0  0
  142.8260   73.1330  220.9210 C   0  0  0  0  0  0  0  0  0  0  0  0
  142.0460   72.7884  221.6159 H   0  0  0  0  0  0  0  0  0  0  0  0
  143.8290   72.2500  220.5150 C   0  0  0  0  0  0  0  0  0  0  0  0
  143.8266   71.2124  220.8801 H   0  0  0  0  0  0  0  0  0  0  0  0
  144.8420   72.6830  219.6410 C   0  0  0  0  0  0  0  0  0  0  0  0
  145.8780   71.8390  219.2130 O   0  0  0  0  0  0  0  0  0  0  0  0
  145.7320   70.4430  218.9710 C   0  0  0  0  0  0  0  0  0  0  0  0
  145.6761   69.9084  219.9307 H   0  0  0  0  0  0  0  0  0  0  0  0
  144.8103   70.2647  218.3977 H   0  0  0  0  0  0  0  0  0  0  0  0
  146.5968   70.0778  218.3977 H   0  0  0  0  0  0  0  0  0  0  0  0
  144.8260   74.0030  219.1790 C   0  0  0  0  0  0  0  0  0  0  0  0
  145.6252   74.3513  218.5082 H   0  0  0  0  0  0  0  0  0  0  0  0
  143.8080   74.8890  219.5570 C   0  0  0  0  0  0  0  0  0  0  0  0
  143.8310   76.1850  219.0260 O   0  0  0  0  0  0  0  0  0  0  0  0
  143.3020   76.5100  217.7430 C   0  0  0  0  0  0  0  0  0  0  0  0
  142.3705   77.0823  217.8647 H   0  0  0  0  0  0  0  0  0  0  0  0
  144.0338   77.1145  217.1871 H   0  0  0  0  0  0  0  0  0  0  0  0
  143.0935   75.5840  217.1871 H   0  0  0  0  0  0  0  0  0  0  0  0
  141.8240   80.0470  221.6290 C   0  0  0  0  0  0  0  0  0  0  0  0
  141.0238   80.5539  221.0698 H   0  0  0  0  0  0  0  0  0  0  0  0
  142.8132   80.4232  221.3292 H   0  0  0  0  0  0  0  0  0  0  0  0
  141.6390   80.3270  223.1260 C   0  0  0  0  0  0  0  0  0  0  0  0
  141.1028   79.4808  223.5803 H   0  0  0  0  0  0  0  0  0  0  0  0
  141.0704   81.2635  223.2248 H   0  0  0  0  0  0  0  0  0  0  0  0
  142.9710   80.5110  223.8520 C   0  0  0  0  0  0  0  0  0  0  0  0
  142.8025   80.4877  224.9388 H   0  0  0  0  0  0  0  0  0  0  0  0
  143.6575   79.6992  223.5699 H   0  0  0  0  0  0  0  0  0  0  0  0
  143.4117   81.4786  223.5699 H   0  0  0  0  0  0  0  0  0  0  0  0
  1  2  1  0
  2  3  1  0
  3  4  2  0
  4  5  1  0
  5  6  2  0
  6  7  1  0
  6  8  1  0
  8  9  1  0
  8 10  2  0
 10 11  1  0
 10 12  1  0
 12 13  1  0
 12 14  2  0
 14 15  1  0
 15 16  2  0
 15 17  1  0
 17 18  1  0
 17 19  1  0
 19 20  2  0
 20 21  1  0
 20 22  1  0
 22 23  1  0
 22 24  2  0
 24 25  1  0
 25 26  1  0
 26 27  1  0
 26 28  1  0
 26 29  1  0
 24 30  1  0
 30 31  1  0
 30 32  2  0
 32 33  1  0
 33 34  1  0
 34 35  1  0
 34 36  1  0
 34 37  1  0
  3 38  1  0
 38 39  1  0
 38 40  1  0
 38 41  1  0
 41 42  1  0
 41 43  1  0
 41 44  1  0
 44 45  1  0
 44 46  1  0
 44 47  1  0
 14  5  1  0
 32 19  1  0
M  END
>  <UniqueID>  (66) 
12

>  <SMILES>  (66) 
CCC/C(O)=N\c1ccccc1C(=O)Nc1ccc(OC)cc1OC

>  <Energy>  (66) 
61.29818353579485

>  <Genealogy>  (66) 
CCCC(O)=Nc1ccccc1C(=O)Nc1ccc(OC)cc1OC (tautomer)
CCC/C(O)=N\c1ccccc1C(=O)Nc1ccc(OC)cc1OC (cis-trans isomerization)
CCC/C(O)=N\c1ccccc1C(=O)Nc1ccc(OC)cc1OC (3D coordinates assigned)
CCC/C(O)=N\c1ccccc1C(=O)Nc1ccc(OC)cc1OC (optimized conformer: 61.29818353579485 kcal/mol)

>  <smiles>  (66) 
CCCC(=O)Nc1ccccc1C(=O)Nc1ccc(OC)cc1OC

>  <score_type>  (66) 
oracle

>  <origin>  (66) 
autodockgpu

>  <m_score__min__energy>  (66) 
-5.2000000000000002

>  <m_primary>  (66) 
energy

>  <meeko>  (66) 
{"free_energy": -5.03, "intermolecular_energy": -7.72, "internal_energy": -3.26, "cluster_size": 6, "cluster_id": 1, "rank_in_cluster": 5}

>  <energy>  (66) 
-5.02

>  <cluster_rmsd>  (66) 
0.53

>  <rmsd>  (66) 
270.22

>  <cluster>  (66) 
1

$$$$
XACSTBCXFQXDPE-SGJRTRLANA-N
     RDKit          3D

 47 48  0  0  0  0  0  0  0  0999 V2000
  141.8290   76.3790  222.5940 H   0  0  0  0  0  0  0  0  0  0  0  0
  141.4040   77.1470  223.1000 O   0  0  0  0  0  0  0  0  0  0  0  0
  140.9630   78.2890  222.4380 C   0  0  0  0  0  0  0  0  0  0  0  0
  140.7010   78.2180  221.1620 N   0  0  0  0  0  0  0  0  0  0  0  0
  141.2750   79.0420  220.1370 C   0  0  0  0  0  0  0  0  0  0  0  0
  140.9540   80.4060  220.1180 C   0  0  0  0  0  0  0  0  0  0  0  0
  140.2952   80.8228  220.8940 H   0  0  0  0  0  0  0  0  0  0  0  0
  141.4640   81.2390  219.1220 C   0  0  0  0  0  0  0  0  0  0  0  0
  141.1963   82.3058  219.1079 H   0  0  0  0  0  0  0  0  0  0  0  0
  142.3130   80.7210  218.1440 C   0  0  0  0  0  0  0  0  0  0  0  0
  142.7061   81.3780  217.3541 H   0  0  0  0  0  0  0  0  0  0  0  0
  142.6650   79.3690  218.1660 C   0  0  0  0  0  0  0  0  0  0  0  0
  143.3411   78.9691  217.3959 H   0  0  0  0  0  0  0  0  0  0  0  0
  142.1620   78.5140  219.1650 C   0  0  0  0  0  0  0  0  0  0  0  0
  142.5950   77.0950  219.1920 C   0  0  0  0  0  0  0  0  0  0  0  0
  143.0600   76.5630  218.1470 O   0  0  0  0  0  0  0  0  0  0  0  0
  142.5100   76.3320  220.4070 N   0  0  0  0  0  0  0  0  0  0  0  0
  142.3660   76.8380  221.3090 H   0  0  0  0  0  0  0  0  0  0  0  0
  142.7130   74.9110  220.4570 C   0  0  0  0  0  0  0  0  0  0  0  0
  143.7370   74.3230  219.6940 C   0  0  0  0  0  0  0  0  0  0  0  0
  144.4380   74.9630  219.1380 H   0  0  0  0  0  0  0  0  0  0  0  0
  143.8730   72.9340  219.6350 C   0  0  0  0  0  0  0  0  0  0  0  0
  144.6870   72.4874  219.0451 H   0  0  0  0  0  0  0  0  0  0  0  0
  142.9730   72.1050  220.3270 C   0  0  0  0  0  0  0  0  0  0  0  0
  143.0590   70.7050  220.2900 O   0  0  0  0  0  0  0  0  0  0  0  0
  142.8910   69.9180  219.1150 C   0  0  0  0  0  0  0  0  0  0  0  0
  142.6691   68.8786  219.3985 H   0  0  0  0  0  0  0  0  0  0  0  0
  142.0587   70.3213  218.5195 H   0  0  0  0  0  0  0  0  0  0  0  0
  143.8154   69.9463  218.5195 H   0  0  0  0  0  0  0  0  0  0  0  0
  141.9470   72.6880  221.0790 C   0  0  0  0  0  0  0  0  0  0  0  0
  141.2300   72.0433  221.6084 H   0  0  0  0  0  0  0  0  0  0  0  0
  141.8190   74.0810  221.1680 C   0  0  0  0  0  0  0  0  0  0  0  0
  140.7950   74.5980  221.9700 O   0  0  0  0  0  0  0  0  0  0  0  0
  139.5660   75.0920  221.4420 C   0  0  0  0  0  0  0  0  0  0  0  0
  138.8937   75.3623  222.2696 H   0  0  0  0  0  0  0  0  0  0  0  0
  139.7631   75.9808  220.8245 H   0  0  0  0  0  0  0  0  0  0  0  0
  139.0932   74.3141  220.8245 H   0  0  0  0  0  0  0  0  0  0  0  0
  140.8470   79.5700  223.2320 C   0  0  0  0  0  0  0  0  0  0  0  0
  140.1334   79.4162  224.0549 H   0  0  0  0  0  0  0  0  0  0  0  0
  140.5008   80.3641  222.5540 H   0  0  0  0  0  0  0  0  0  0  0  0
  142.1990   79.9970  223.8190 C   0  0  0  0  0  0  0  0  0  0  0  0
  142.5332   79.2292  224.5323 H   0  0  0  0  0  0  0  0  0  0  0  0
  142.0592   80.9702  224.3122 H   0  0  0  0  0  0  0  0  0  0  0  0
  143.2710   80.1680  222.7430 C   0  0  0  0  0  0  0  0  0  0  0  0
  144.2491   80.3240  223.2214 H   0  0  0  0  0  0  0  0  0  0  0  0
  143.3092   79.2646  222.1166 H   0  0  0  0  0  0  0  0  0  0  0  0
  143.0262   81.0384  222.1166 H   0  0  0  0  0  0  0  0  0  0  0  0
  1  2  1  0
  2  3  1  0
  3  4  2  0
  4  5  1  0
  5  6  2  0
  6  7  1  0
  6  8  1  0
  8  9  1  0
  8 10  2  0
 10 11  1  0
 10 12  1  0
 12 13  1  0
 12 14  2  0
 14 15  1  0
 15 16  2  0
 15 17  1  0
 17 18  1  0
 17 19  1  0
 19 20  2  0
 20 21  1  0
 20 22  1  0
 22 23  1  0
 22 24  2  0
 24 25  1  0
 25 26  1  0
 26 27  1  0
 26 28  1  0
 26 29  1  0
 24 30  1  0
 30 31  1  0
 30 32  2  0
 32 33  1  0
 33 34  1  0
 34 35  1  0
 34 36  1  0
 34 37  1  0
  3 38  1  0
 38 39  1  0
 38 40  1  0
 38 41  1  0
 41 42  1  0
 41 43  1  0
 41 44  1  0
 44 45  1  0
 44 46  1  0
 44 47  1  0
 14  5  1  0
 32 19  1  0
M  END
>  <UniqueID>  (67) 
12

>  <SMILES>  (67) 
CCC/C(O)=N\c1ccccc1C(=O)Nc1ccc(OC)cc1OC

>  <Energy>  (67) 
61.29818353579485

>  <Genealogy>  (67) 
CCCC(O)=Nc1ccccc1C(=O)Nc1ccc(OC)cc1OC (tautomer)
CCC/C(O)=N\c1ccccc1C(=O)Nc1ccc(OC)cc1OC (cis-trans isomerization)
CCC/C(O)=N\c1ccccc1C(=O)Nc1ccc(OC)cc1OC (3D coordinates assigned)
CCC/C(O)=N\c1ccccc1C(=O)Nc1ccc(OC)cc1OC (optimized conformer: 61.29818353579485 kcal/mol)

>  <smiles>  (67) 
CCCC(=O)Nc1ccccc1C(=O)Nc1ccc(OC)cc1OC

>  <score_type>  (67) 
oracle

>  <origin>  (67) 
autodockgpu

>  <m_score__min__energy>  (67) 
-5.2000000000000002

>  <m_primary>  (67) 
energy

>  <meeko>  (67) 
{"free_energy": -5.08, "intermolecular_energy": -7.76, "internal_energy": -3.33, "cluster_size": 10, "cluster_id": 2, "rank_in_cluster": 9}

>  <energy>  (67) 
-5.18

>  <cluster_rmsd>  (67) 
0.0

>  <rmsd>  (67) 
270.31

>  <cluster>  (67) 
2

$$$$
XACSTBCXFQXDPE-SGJRTRLANA-N
     RDKit          3D

 47 48  0  0  0  0  0  0  0  0999 V2000
  141.8440   76.3150  222.6280 H   0  0  0  0  0  0  0  0  0  0  0  0
  141.4160   77.0720  223.1460 O   0  0  0  0  0  0  0  0  0  0  0  0
  141.0570   78.2620  222.5180 C   0  0  0  0  0  0  0  0  0  0  0  0
  140.7330   78.2360  221.2550 N   0  0  0  0  0  0  0  0  0  0  0  0
  141.2990   79.0580  220.2230 C   0  0  0  0  0  0  0  0  0  0  0  0
  141.0050   80.4280  220.2240 C   0  0  0  0  0  0  0  0  0  0  0  0
  140.3729   80.8500  221.0192 H   0  0  0  0  0  0  0  0  0  0  0  0
  141.5080   81.2610  219.2240 C   0  0  0  0  0  0  0  0  0  0  0  0
  141.2624   82.3332  219.2267 H   0  0  0  0  0  0  0  0  0  0  0  0
  142.3220   80.7350  218.2210 C   0  0  0  0  0  0  0  0  0  0  0  0
  142.7075   81.3911  217.4266 H   0  0  0  0  0  0  0  0  0  0  0  0
  142.6490   79.3760  218.2230 C   0  0  0  0  0  0  0  0  0  0  0  0
  143.3000   78.9704  217.4345 H   0  0  0  0  0  0  0  0  0  0  0  0
  142.1520   78.5220  219.2260 C   0  0  0  0  0  0  0  0  0  0  0  0
  142.5580   77.0940  219.2300 C   0  0  0  0  0  0  0  0  0  0  0  0
  142.9780   76.5610  218.1680 O   0  0  0  0  0  0  0  0  0  0  0  0
  142.4960   76.3250  220.4430 N   0  0  0  0  0  0  0  0  0  0  0  0
  142.3910   76.8280  221.3520 H   0  0  0  0  0  0  0  0  0  0  0  0
  142.6720   74.9000  220.4760 C   0  0  0  0  0  0  0  0  0  0  0  0
  143.6870   74.3010  219.7100 C   0  0  0  0  0  0  0  0  0  0  0  0
  144.4021   74.9338  219.1640 H   0  0  0  0  0  0  0  0  0  0  0  0
  143.7970   72.9110  219.6350 C   0  0  0  0  0  0  0  0  0  0  0  0
  144.6042   72.4560  219.0422 H   0  0  0  0  0  0  0  0  0  0  0  0
  142.8790   72.0910  220.3150 C   0  0  0  0  0  0  0  0  0  0  0  0
  142.9400   70.6900  220.2630 O   0  0  0  0  0  0  0  0  0  0  0  0
  143.9260   69.9520  219.5480 C   0  0  0  0  0  0  0  0  0  0  0  0
  144.5967   69.4500  220.2608 H   0  0  0  0  0  0  0  0  0  0  0  0
  143.4332   69.1990  218.9155 H   0  0  0  0  0  0  0  0  0  0  0  0
  144.5096   70.6370  218.9155 H   0  0  0  0  0  0  0  0  0  0  0  0
  141.8630   72.6850  221.0710 C   0  0  0  0  0  0  0  0  0  0  0  0
  141.1326   72.0480  221.5913 H   0  0  0  0  0  0  0  0  0  0  0  0
  141.7610   74.0780  221.1760 C   0  0  0  0  0  0  0  0  0  0  0  0
  140.7440   74.6060  221.9810 O   0  0  0  0  0  0  0  0  0  0  0  0
  139.5230   75.1220  221.4550 C   0  0  0  0  0  0  0  0  0  0  0  0
  138.8567   75.4036  222.2837 H   0  0  0  0  0  0  0  0  0  0  0  0
  139.7349   76.0075  220.8378 H   0  0  0  0  0  0  0  0  0  0  0  0
  139.0356   74.3529  220.8378 H   0  0  0  0  0  0  0  0  0  0  0  0
  141.0990   79.5340  223.3320 C   0  0  0  0  0  0  0  0  0  0  0  0
  140.7344   79.3196  224.3474 H   0  0  0  0  0  0  0  0  0  0  0  0
  140.4630   80.2808  222.8343 H   0  0  0  0  0  0  0  0  0  0  0  0
  142.5210   80.1020  223.4240 C   0  0  0  0  0  0  0  0  0  0  0  0
  142.9017   80.2684  222.4055 H   0  0  0  0  0  0  0  0  0  0  0  0
  143.1385   79.3742  223.9707 H   0  0  0  0  0  0  0  0  0  0  0  0
  142.5710   81.4240  224.1890 C   0  0  0  0  0  0  0  0  0  0  0  0
  142.5634   81.2224  225.2703 H   0  0  0  0  0  0  0  0  0  0  0  0
  143.4903   81.9666  223.9236 H   0  0  0  0  0  0  0  0  0  0  0  0
  141.6953   82.0345  223.9236 H   0  0  0  0  0  0  0  0  0  0  0  0
  1  2  1  0
  2  3  1  0
  3  4  2  0
  4  5  1  0
  5  6  2  0
  6  7  1  0
  6  8  1  0
  8  9  1  0
  8 10  2  0
 10 11  1  0
 10 12  1  0
 12 13  1  0
 12 14  2  0
 14 15  1  0
 15 16  2  0
 15 17  1  0
 17 18  1  0
 17 19  1  0
 19 20  2  0
 20 21  1  0
 20 22  1  0
 22 23  1  0
 22 24  2  0
 24 25  1  0
 25 26  1  0
 26 27  1  0
 26 28  1  0
 26 29  1  0
 24 30  1  0
 30 31  1  0
 30 32  2  0
 32 33  1  0
 33 34  1  0
 34 35  1  0
 34 36  1  0
 34 37  1  0
  3 38  1  0
 38 39  1  0
 38 40  1  0
 38 41  1  0
 41 42  1  0
 41 43  1  0
 41 44  1  0
 44 45  1  0
 44 46  1  0
 44 47  1  0
 14  5  1  0
 32 19  1  0
M  END
>  <UniqueID>  (68) 
12

>  <SMILES>  (68) 
CCC/C(O)=N\c1ccccc1C(=O)Nc1ccc(OC)cc1OC

>  <Energy>  (68) 
61.29818353579485

>  <Genealogy>  (68) 
CCCC(O)=Nc1ccccc1C(=O)Nc1ccc(OC)cc1OC (tautomer)
CCC/C(O)=N\c1ccccc1C(=O)Nc1ccc(OC)cc1OC (cis-trans isomerization)
CCC/C(O)=N\c1ccccc1C(=O)Nc1ccc(OC)cc1OC (3D coordinates assigned)
CCC/C(O)=N\c1ccccc1C(=O)Nc1ccc(OC)cc1OC (optimized conformer: 61.29818353579485 kcal/mol)

>  <smiles>  (68) 
CCCC(=O)Nc1ccccc1C(=O)Nc1ccc(OC)cc1OC

>  <score_type>  (68) 
oracle

>  <origin>  (68) 
autodockgpu

>  <m_score__min__energy>  (68) 
-5.2000000000000002

>  <m_primary>  (68) 
energy

>  <meeko>  (68) 
{"free_energy": -5.17, "intermolecular_energy": -7.85, "internal_energy": -3.21, "cluster_size": 10, "cluster_id": 2, "rank_in_cluster": 2}

>  <energy>  (68) 
-5.17

>  <cluster_rmsd>  (68) 
0.04

>  <rmsd>  (68) 
270.33

>  <cluster>  (68) 
2

$$$$
XACSTBCXFQXDPE-SGJRTRLANA-N
     RDKit          3D

 47 48  0  0  0  0  0  0  0  0999 V2000
  141.8100   76.4080  222.6100 H   0  0  0  0  0  0  0  0  0  0  0  0
  141.4330   77.1980  223.1200 O   0  0  0  0  0  0  0  0  0  0  0  0
  140.9670   78.3290  222.4540 C   0  0  0  0  0  0  0  0  0  0  0  0
  140.7160   78.2510  221.1760 N   0  0  0  0  0  0  0  0  0  0  0  0
  141.2930   79.0740  220.1520 C   0  0  0  0  0  0  0  0  0  0  0  0
  140.9780   80.4400  220.1370 C   0  0  0  0  0  0  0  0  0  0  0  0
  140.3215   80.8580  220.9144 H   0  0  0  0  0  0  0  0  0  0  0  0
  141.4920   81.2730  219.1420 C   0  0  0  0  0  0  0  0  0  0  0  0
  141.2296   82.3412  219.1306 H   0  0  0  0  0  0  0  0  0  0  0  0
  142.3370   80.7540  218.1630 C   0  0  0  0  0  0  0  0  0  0  0  0
  142.7317   81.4109  217.3739 H   0  0  0  0  0  0  0  0  0  0  0  0
  142.6840   79.4000  218.1820 C   0  0  0  0  0  0  0  0  0  0  0  0
  143.3588   78.9994  217.4112 H   0  0  0  0  0  0  0  0  0  0  0  0
  142.1780   78.5450  219.1780 C   0  0  0  0  0  0  0  0  0  0  0  0
  142.6040   77.1240  219.2030 C   0  0  0  0  0  0  0  0  0  0  0  0
  143.0610   76.5910  218.1540 O   0  0  0  0  0  0  0  0  0  0  0  0
  142.5220   76.3600  220.4170 N   0  0  0  0  0  0  0  0  0  0  0  0
  142.3850   76.8660  221.3200 H   0  0  0  0  0  0  0  0  0  0  0  0
  142.7190   74.9380  220.4640 C   0  0  0  0  0  0  0  0  0  0  0  0
  143.7410   74.3470  219.7010 C   0  0  0  0  0  0  0  0  0  0  0  0
  144.4454   74.9851  219.1472 H   0  0  0  0  0  0  0  0  0  0  0  0
  143.8710   72.9580  219.6390 C   0  0  0  0  0  0  0  0  0  0  0  0
  144.6835   72.5091  219.0488 H   0  0  0  0  0  0  0  0  0  0  0  0
  142.9660   72.1310  220.3290 C   0  0  0  0  0  0  0  0  0  0  0  0
  143.0470   70.7310  220.2900 O   0  0  0  0  0  0  0  0  0  0  0  0
  143.8880   69.9970  219.4060 C   0  0  0  0  0  0  0  0  0  0  0  0
  144.5896   69.3846  219.9914 H   0  0  0  0  0  0  0  0  0  0  0  0
  143.2714   69.3430  218.7719 H   0  0  0  0  0  0  0  0  0  0  0  0
  144.4526   70.6963  218.7719 H   0  0  0  0  0  0  0  0  0  0  0  0
  141.9430   72.7180  221.0820 C   0  0  0  0  0  0  0  0  0  0  0  0
  141.2230   72.0757  221.6102 H   0  0  0  0  0  0  0  0  0  0  0  0
  141.8210   74.1110  221.1740 C   0  0  0  0  0  0  0  0  0  0  0  0
  140.7980   74.6310  221.9760 O   0  0  0  0  0  0  0  0  0  0  0  0
  139.5850   75.1590  221.4460 C   0  0  0  0  0  0  0  0  0  0  0  0
  138.9193   75.4488  222.2723 H   0  0  0  0  0  0  0  0  0  0  0  0
  139.8082   76.0414  220.8283 H   0  0  0  0  0  0  0  0  0  0  0  0
  139.0913   74.3944  220.8283 H   0  0  0  0  0  0  0  0  0  0  0  0
  140.8140   79.6060  223.2480 C   0  0  0  0  0  0  0  0  0  0  0  0
  140.1011   79.4331  224.0677 H   0  0  0  0  0  0  0  0  0  0  0  0
  140.4502   80.3910  222.5687 H   0  0  0  0  0  0  0  0  0  0  0  0
  142.1510   80.0680  223.8410 C   0  0  0  0  0  0  0  0  0  0  0  0
  142.4553   79.3566  224.6229 H   0  0  0  0  0  0  0  0  0  0  0  0
  142.0050   81.0786  224.2501 H   0  0  0  0  0  0  0  0  0  0  0  0
  143.2580   80.1460  222.7910 C   0  0  0  0  0  0  0  0  0  0  0  0
  144.2347   80.2148  223.2923 H   0  0  0  0  0  0  0  0  0  0  0  0
  143.2313   79.2438  222.1623 H   0  0  0  0  0  0  0  0  0  0  0  0
  143.1050   81.0356  222.1623 H   0  0  0  0  0  0  0  0  0  0  0  0
  1  2  1  0
  2  3  1  0
  3  4  2  0
  4  5  1  0
  5  6  2  0
  6  7  1  0
  6  8  1  0
  8  9  1  0
  8 10  2  0
 10 11  1  0
 10 12  1  0
 12 13  1  0
 12 14  2  0
 14 15  1  0
 15 16  2  0
 15 17  1  0
 17 18  1  0
 17 19  1  0
 19 20  2  0
 20 21  1  0
 20 22  1  0
 22 23  1  0
 22 24  2  0
 24 25  1  0
 25 26  1  0
 26 27  1  0
 26 28  1  0
 26 29  1  0
 24 30  1  0
 30 31  1  0
 30 32  2  0
 32 33  1  0
 33 34  1  0
 34 35  1  0
 34 36  1  0
 34 37  1  0
  3 38  1  0
 38 39  1  0
 38 40  1  0
 38 41  1  0
 41 42  1  0
 41 43  1  0
 41 44  1  0
 44 45  1  0
 44 46  1  0
 44 47  1  0
 14  5  1  0
 32 19  1  0
M  END
>  <UniqueID>  (69) 
12

>  <SMILES>  (69) 
CCC/C(O)=N\c1ccccc1C(=O)Nc1ccc(OC)cc1OC

>  <Energy>  (69) 
61.29818353579485

>  <Genealogy>  (69) 
CCCC(O)=Nc1ccccc1C(=O)Nc1ccc(OC)cc1OC (tautomer)
CCC/C(O)=N\c1ccccc1C(=O)Nc1ccc(OC)cc1OC (cis-trans isomerization)
CCC/C(O)=N\c1ccccc1C(=O)Nc1ccc(OC)cc1OC (3D coordinates assigned)
CCC/C(O)=N\c1ccccc1C(=O)Nc1ccc(OC)cc1OC (optimized conformer: 61.29818353579485 kcal/mol)

>  <smiles>  (69) 
CCCC(=O)Nc1ccccc1C(=O)Nc1ccc(OC)cc1OC

>  <score_type>  (69) 
oracle

>  <origin>  (69) 
autodockgpu

>  <m_score__min__energy>  (69) 
-5.2000000000000002

>  <m_primary>  (69) 
energy

>  <meeko>  (69) 
{"free_energy": -5.08, "intermolecular_energy": -7.77, "internal_energy": -3.33, "cluster_size": 10, "cluster_id": 2, "rank_in_cluster": 6}

>  <energy>  (69) 
-5.17

>  <cluster_rmsd>  (69) 
0.11

>  <rmsd>  (69) 
270.29

>  <cluster>  (69) 
2

$$$$
XACSTBCXFQXDPE-SGJRTRLANA-N
     RDKit          3D

 47 48  0  0  0  0  0  0  0  0999 V2000
  141.8020   76.5350  222.6150 H   0  0  0  0  0  0  0  0  0  0  0  0
  141.4310   77.3230  223.1310 O   0  0  0  0  0  0  0  0  0  0  0  0
  140.9530   78.4540  222.4730 C   0  0  0  0  0  0  0  0  0  0  0  0
  140.6970   78.3800  221.1960 N   0  0  0  0  0  0  0  0  0  0  0  0
  141.2770   79.2000  220.1720 C   0  0  0  0  0  0  0  0  0  0  0  0
  140.9800   80.5700  220.1640 C   0  0  0  0  0  0  0  0  0  0  0  0
  140.3351   80.9932  220.9483 H   0  0  0  0  0  0  0  0  0  0  0  0
  141.4960   81.4010  219.1690 C   0  0  0  0  0  0  0  0  0  0  0  0
  141.2466   82.4723  219.1636 H   0  0  0  0  0  0  0  0  0  0  0  0
  142.3280   80.8740  218.1810 C   0  0  0  0  0  0  0  0  0  0  0  0
  142.7256   81.5285  217.3913 H   0  0  0  0  0  0  0  0  0  0  0  0
  142.6570   79.5160  218.1930 C   0  0  0  0  0  0  0  0  0  0  0  0
  143.3208   79.1098  217.4156 H   0  0  0  0  0  0  0  0  0  0  0  0
  142.1480   78.6630  219.1890 C   0  0  0  0  0  0  0  0  0  0  0  0
  142.5560   77.2370  219.2050 C   0  0  0  0  0  0  0  0  0  0  0  0
  143.0010   76.7030  218.1520 O   0  0  0  0  0  0  0  0  0  0  0  0
  142.4700   76.4690  220.4160 N   0  0  0  0  0  0  0  0  0  0  0  0
  142.3440   76.9730  221.3220 H   0  0  0  0  0  0  0  0  0  0  0  0
  142.6490   75.0440  220.4560 C   0  0  0  0  0  0  0  0  0  0  0  0
  143.6610   74.4440  219.6870 C   0  0  0  0  0  0  0  0  0  0  0  0
  144.3718   75.0757  219.1341 H   0  0  0  0  0  0  0  0  0  0  0  0
  143.7730   73.0540  219.6180 C   0  0  0  0  0  0  0  0  0  0  0  0
  144.5776   72.5979  219.0225 H   0  0  0  0  0  0  0  0  0  0  0  0
  142.8610   72.2350  220.3070 C   0  0  0  0  0  0  0  0  0  0  0  0
  142.9230   70.8340  220.2610 O   0  0  0  0  0  0  0  0  0  0  0  0
  143.8260   70.0940  219.4440 C   0  0  0  0  0  0  0  0  0  0  0  0
  144.5183   69.5267  220.0835 H   0  0  0  0  0  0  0  0  0  0  0  0
  143.2591   69.3974  218.8089 H   0  0  0  0  0  0  0  0  0  0  0  0
  144.3977   70.7867  218.8089 H   0  0  0  0  0  0  0  0  0  0  0  0
  141.8470   72.8310  221.0650 C   0  0  0  0  0  0  0  0  0  0  0  0
  141.1200   72.1952  221.5915 H   0  0  0  0  0  0  0  0  0  0  0  0
  141.7430   74.2250  221.1640 C   0  0  0  0  0  0  0  0  0  0  0  0
  140.7290   74.7540  221.9720 O   0  0  0  0  0  0  0  0  0  0  0  0
  139.5100   75.2770  221.4500 C   0  0  0  0  0  0  0  0  0  0  0  0
  138.8474   75.5613  222.2808 H   0  0  0  0  0  0  0  0  0  0  0  0
  139.7251   76.1620  220.8332 H   0  0  0  0  0  0  0  0  0  0  0  0
  139.0168   74.5113  220.8332 H   0  0  0  0  0  0  0  0  0  0  0  0
  140.7930   79.7260  223.2740 C   0  0  0  0  0  0  0  0  0  0  0  0
  140.1148   79.5328  224.1182 H   0  0  0  0  0  0  0  0  0  0  0  0
  140.3837   80.5009  222.6092 H   0  0  0  0  0  0  0  0  0  0  0  0
  142.1370   80.2250  223.8200 C   0  0  0  0  0  0  0  0  0  0  0  0
  142.4204   79.6044  224.6829 H   0  0  0  0  0  0  0  0  0  0  0  0
  142.0126   81.2797  224.1066 H   0  0  0  0  0  0  0  0  0  0  0  0
  143.2510   80.1530  222.7760 C   0  0  0  0  0  0  0  0  0  0  0  0
  144.2252   80.0900  223.2830 H   0  0  0  0  0  0  0  0  0  0  0  0
  143.1069   79.2623  222.1468 H   0  0  0  0  0  0  0  0  0  0  0  0
  143.2227   81.0548  222.1468 H   0  0  0  0  0  0  0  0  0  0  0  0
  1  2  1  0
  2  3  1  0
  3  4  2  0
  4  5  1  0
  5  6  2  0
  6  7  1  0
  6  8  1  0
  8  9  1  0
  8 10  2  0
 10 11  1  0
 10 12  1  0
 12 13  1  0
 12 14  2  0
 14 15  1  0
 15 16  2  0
 15 17  1  0
 17 18  1  0
 17 19  1  0
 19 20  2  0
 20 21  1  0
 20 22  1  0
 22 23  1  0
 22 24  2  0
 24 25  1  0
 25 26  1  0
 26 27  1  0
 26 28  1  0
 26 29  1  0
 24 30  1  0
 30 31  1  0
 30 32  2  0
 32 33  1  0
 33 34  1  0
 34 35  1  0
 34 36  1  0
 34 37  1  0
  3 38  1  0
 38 39  1  0
 38 40  1  0
 38 41  1  0
 41 42  1  0
 41 43  1  0
 41 44  1  0
 44 45  1  0
 44 46  1  0
 44 47  1  0
 14  5  1  0
 32 19  1  0
M  END
>  <UniqueID>  (70) 
12

>  <SMILES>  (70) 
CCC/C(O)=N\c1ccccc1C(=O)Nc1ccc(OC)cc1OC

>  <Energy>  (70) 
61.29818353579485

>  <Genealogy>  (70) 
CCCC(O)=Nc1ccccc1C(=O)Nc1ccc(OC)cc1OC (tautomer)
CCC/C(O)=N\c1ccccc1C(=O)Nc1ccc(OC)cc1OC (cis-trans isomerization)
CCC/C(O)=N\c1ccccc1C(=O)Nc1ccc(OC)cc1OC (3D coordinates assigned)
CCC/C(O)=N\c1ccccc1C(=O)Nc1ccc(OC)cc1OC (optimized conformer: 61.29818353579485 kcal/mol)

>  <smiles>  (70) 
CCCC(=O)Nc1ccccc1C(=O)Nc1ccc(OC)cc1OC

>  <score_type>  (70) 
oracle

>  <origin>  (70) 
autodockgpu

>  <m_score__min__energy>  (70) 
-5.2000000000000002

>  <m_primary>  (70) 
energy

>  <meeko>  (70) 
{"free_energy": -5.09, "intermolecular_energy": -7.77, "internal_energy": -3.32, "cluster_size": 10, "cluster_id": 2, "rank_in_cluster": 5}

>  <energy>  (70) 
-5.09

>  <cluster_rmsd>  (70) 
0.24

>  <rmsd>  (70) 
270.28

>  <cluster>  (70) 
2

$$$$
XACSTBCXFQXDPE-SGJRTRLANA-N
     RDKit          3D

 47 48  0  0  0  0  0  0  0  0999 V2000
  138.9310   73.9160  222.7720 H   0  0  0  0  0  0  0  0  0  0  0  0
  139.9310   73.7650  222.7120 O   0  0  0  0  0  0  0  0  0  0  0  0
  140.4570   72.7310  221.9420 C   0  0  0  0  0  0  0  0  0  0  0  0
  140.9790   73.0120  220.7800 N   0  0  0  0  0  0  0  0  0  0  0  0
  142.3810   73.0900  220.4820 C   0  0  0  0  0  0  0  0  0  0  0  0
  143.0850   71.8980  220.2660 C   0  0  0  0  0  0  0  0  0  0  0  0
  142.5541   70.9353  220.3039 H   0  0  0  0  0  0  0  0  0  0  0  0
  144.4560   71.9240  220.0030 C   0  0  0  0  0  0  0  0  0  0  0  0
  145.0034   70.9828  219.8462 H   0  0  0  0  0  0  0  0  0  0  0  0
  145.1320   73.1420  219.9390 C   0  0  0  0  0  0  0  0  0  0  0  0
  146.2143   73.1594  219.7433 H   0  0  0  0  0  0  0  0  0  0  0  0
  144.4370   74.3410  220.1230 C   0  0  0  0  0  0  0  0  0  0  0  0
  144.9755   75.2982  220.0617 H   0  0  0  0  0  0  0  0  0  0  0  0
  143.0540   74.3340  220.3860 C   0  0  0  0  0  0  0  0  0  0  0  0
  142.3350   75.6240  220.5260 C   0  0  0  0  0  0  0  0  0  0  0  0
  142.6450   76.5960  219.7850 O   0  0  0  0  0  0  0  0  0  0  0  0
  141.2720   75.7640  221.4840 N   0  0  0  0  0  0  0  0  0  0  0  0
  140.8610   74.9030  221.9060 H   0  0  0  0  0  0  0  0  0  0  0  0
  140.6780   77.0290  221.8160 C   0  0  0  0  0  0  0  0  0  0  0  0
  141.4540   78.2000  221.7750 C   0  0  0  0  0  0  0  0  0  0  0  0
  142.4859   78.1565  221.3965 H   0  0  0  0  0  0  0  0  0  0  0  0
  140.9280   79.4180  222.2100 C   0  0  0  0  0  0  0  0  0  0  0  0
  141.5421   80.3293  222.1599 H   0  0  0  0  0  0  0  0  0  0  0  0
  139.6160   79.4840  222.7120 C   0  0  0  0  0  0  0  0  0  0  0  0
  139.0450   80.6800  223.1710 O   0  0  0  0  0  0  0  0  0  0  0  0
  138.0800   80.7640  224.2150 C   0  0  0  0  0  0  0  0  0  0  0  0
  138.5889   80.7197  225.1892 H   0  0  0  0  0  0  0  0  0  0  0  0
  137.5307   81.7134  224.1311 H   0  0  0  0  0  0  0  0  0  0  0  0
  137.3750   79.9238  224.1311 H   0  0  0  0  0  0  0  0  0  0  0  0
  138.8450   78.3180  222.7610 C   0  0  0  0  0  0  0  0  0  0  0  0
  137.8239   78.3609  223.1678 H   0  0  0  0  0  0  0  0  0  0  0  0
  139.3530   77.0960  222.3000 C   0  0  0  0  0  0  0  0  0  0  0  0
  138.5140   75.9750  222.3420 O   0  0  0  0  0  0  0  0  0  0  0  0
  137.1480   76.0400  222.7440 C   0  0  0  0  0  0  0  0  0  0  0  0
  137.0888   76.0428  223.8424 H   0  0  0  0  0  0  0  0  0  0  0  0
  136.6932   76.9608  222.3499 H   0  0  0  0  0  0  0  0  0  0  0  0
  136.6078   75.1665  222.3499 H   0  0  0  0  0  0  0  0  0  0  0  0
  140.3600   71.3240  222.4840 C   0  0  0  0  0  0  0  0  0  0  0  0
  141.3738   70.9079  222.5791 H   0  0  0  0  0  0  0  0  0  0  0  0
  139.7535   70.7286  221.7857 H   0  0  0  0  0  0  0  0  0  0  0  0
  139.6780   71.2910  223.8580 C   0  0  0  0  0  0  0  0  0  0  0  0
  139.0015   70.4244  223.8962 H   0  0  0  0  0  0  0  0  0  0  0  0
  139.1290   72.2359  223.9833 H   0  0  0  0  0  0  0  0  0  0  0  0
  140.6830   71.1800  225.0030 C   0  0  0  0  0  0  0  0  0  0  0  0
  140.1516   71.2387  225.9643 H   0  0  0  0  0  0  0  0  0  0  0  0
  141.2120   70.2180  224.9346 H   0  0  0  0  0  0  0  0  0  0  0  0
  141.4092   72.0034  224.9346 H   0  0  0  0  0  0  0  0  0  0  0  0
  1  2  1  0
  2  3  1  0
  3  4  2  0
  4  5  1  0
  5  6  2  0
  6  7  1  0
  6  8  1  0
  8  9  1  0
  8 10  2  0
 10 11  1  0
 10 12  1  0
 12 13  1  0
 12 14  2  0
 14 15  1  0
 15 16  2  0
 15 17  1  0
 17 18  1  0
 17 19  1  0
 19 20  2  0
 20 21  1  0
 20 22  1  0
 22 23  1  0
 22 24  2  0
 24 25  1  0
 25 26  1  0
 26 27  1  0
 26 28  1  0
 26 29  1  0
 24 30  1  0
 30 31  1  0
 30 32  2  0
 32 33  1  0
 33 34  1  0
 34 35  1  0
 34 36  1  0
 34 37  1  0
  3 38  1  0
 38 39  1  0
 38 40  1  0
 38 41  1  0
 41 42  1  0
 41 43  1  0
 41 44  1  0
 44 45  1  0
 44 46  1  0
 44 47  1  0
 14  5  1  0
 32 19  1  0
M  END
>  <UniqueID>  (71) 
12

>  <SMILES>  (71) 
CCC/C(O)=N\c1ccccc1C(=O)Nc1ccc(OC)cc1OC

>  <Energy>  (71) 
61.29818353579485

>  <Genealogy>  (71) 
CCCC(O)=Nc1ccccc1C(=O)Nc1ccc(OC)cc1OC (tautomer)
CCC/C(O)=N\c1ccccc1C(=O)Nc1ccc(OC)cc1OC (cis-trans isomerization)
CCC/C(O)=N\c1ccccc1C(=O)Nc1ccc(OC)cc1OC (3D coordinates assigned)
CCC/C(O)=N\c1ccccc1C(=O)Nc1ccc(OC)cc1OC (optimized conformer: 61.29818353579485 kcal/mol)

>  <smiles>  (71) 
CCCC(=O)Nc1ccccc1C(=O)Nc1ccc(OC)cc1OC

>  <score_type>  (71) 
oracle

>  <origin>  (71) 
autodockgpu

>  <m_score__min__energy>  (71) 
-5.2000000000000002

>  <m_primary>  (71) 
energy

>  <meeko>  (71) 
{"free_energy": -5.02, "intermolecular_energy": -7.7, "internal_energy": -3.24, "cluster_size": 3, "cluster_id": 3, "rank_in_cluster": 1}

>  <energy>  (71) 
-5.09

>  <cluster_rmsd>  (71) 
0.28

>  <rmsd>  (71) 
270.29

>  <cluster>  (71) 
2

$$$$
XACSTBCXFQXDPE-SGJRTRLANA-N
     RDKit          3D

 47 48  0  0  0  0  0  0  0  0999 V2000
  141.7830   76.3140  222.6160 H   0  0  0  0  0  0  0  0  0  0  0  0
  141.4500   77.1190  223.1320 O   0  0  0  0  0  0  0  0  0  0  0  0
  140.9330   78.2320  222.4740 C   0  0  0  0  0  0  0  0  0  0  0  0
  140.7070   78.1590  221.1910 N   0  0  0  0  0  0  0  0  0  0  0  0
  141.2730   79.0120  220.1860 C   0  0  0  0  0  0  0  0  0  0  0  0
  140.9040   80.3640  220.1710 C   0  0  0  0  0  0  0  0  0  0  0  0
  140.2138   80.7501  220.9355 H   0  0  0  0  0  0  0  0  0  0  0  0
  141.4060   81.2240  219.1930 C   0  0  0  0  0  0  0  0  0  0  0  0
  141.1014   82.2809  219.1820 H   0  0  0  0  0  0  0  0  0  0  0  0
  142.2930   80.7450  218.2300 C   0  0  0  0  0  0  0  0  0  0  0  0
  142.6782   81.4222  217.4535 H   0  0  0  0  0  0  0  0  0  0  0  0
  142.6940   79.4060  218.2490 C   0  0  0  0  0  0  0  0  0  0  0  0
  143.4018   79.0381  217.4916 H   0  0  0  0  0  0  0  0  0  0  0  0
  142.2000   78.5240  219.2290 C   0  0  0  0  0  0  0  0  0  0  0  0
  142.6830   77.1220  219.2550 C   0  0  0  0  0  0  0  0  0  0  0  0
  143.2640   76.6420  218.2440 O   0  0  0  0  0  0  0  0  0  0  0  0
  142.5130   76.3160  220.4330 N   0  0  0  0  0  0  0  0  0  0  0  0
  142.2650   76.7860  221.3310 H   0  0  0  0  0  0  0  0  0  0  0  0
  142.7650   74.9020  220.4580 C   0  0  0  0  0  0  0  0  0  0  0  0
  143.8160   74.3640  219.6950 C   0  0  0  0  0  0  0  0  0  0  0  0
  144.4998   75.0383  219.1586 H   0  0  0  0  0  0  0  0  0  0  0  0
  144.0010   72.9820  219.6110 C   0  0  0  0  0  0  0  0  0  0  0  0
  144.8353   72.5754  219.0205 H   0  0  0  0  0  0  0  0  0  0  0  0
  143.1240   72.1090  220.2790 C   0  0  0  0  0  0  0  0  0  0  0  0
  143.2600   70.7150  220.2180 O   0  0  0  0  0  0  0  0  0  0  0  0
  144.1440   70.0290  219.3370 C   0  0  0  0  0  0  0  0  0  0  0  0
  144.8784   69.4591  219.9250 H   0  0  0  0  0  0  0  0  0  0  0  0
  143.5675   69.3395  218.7028 H   0  0  0  0  0  0  0  0  0  0  0  0
  144.6688   70.7586  218.7028 H   0  0  0  0  0  0  0  0  0  0  0  0
  142.0720   72.6430  221.0320 C   0  0  0  0  0  0  0  0  0  0  0  0
  141.3729   71.9643  221.5425 H   0  0  0  0  0  0  0  0  0  0  0  0
  141.8950   74.0280  221.1460 C   0  0  0  0  0  0  0  0  0  0  0  0
  140.8460   74.4950  221.9480 O   0  0  0  0  0  0  0  0  0  0  0  0
  139.5600   73.8820  221.9820 C   0  0  0  0  0  0  0  0  0  0  0  0
  139.2514   73.7349  223.0275 H   0  0  0  0  0  0  0  0  0  0  0  0
  138.8315   74.5297  221.4723 H   0  0  0  0  0  0  0  0  0  0  0  0
  139.6044   72.9082  221.4723 H   0  0  0  0  0  0  0  0  0  0  0  0
  140.6970   79.4870  223.2820 C   0  0  0  0  0  0  0  0  0  0  0  0
  140.0230   79.2508  224.1186 H   0  0  0  0  0  0  0  0  0  0  0  0
  140.2521   80.2433  222.6186 H   0  0  0  0  0  0  0  0  0  0  0  0
  142.0070   80.0550  223.8440 C   0  0  0  0  0  0  0  0  0  0  0  0
  142.3280   79.4313  224.6913 H   0  0  0  0  0  0  0  0  0  0  0  0
  141.8164   81.0921  224.1571 H   0  0  0  0  0  0  0  0  0  0  0  0
  143.1240   80.0800  222.8020 C   0  0  0  0  0  0  0  0  0  0  0  0
  144.0992   80.1018  223.3104 H   0  0  0  0  0  0  0  0  0  0  0  0
  143.0586   79.1802  222.1727 H   0  0  0  0  0  0  0  0  0  0  0  0
  143.0184   80.9760  222.1727 H   0  0  0  0  0  0  0  0  0  0  0  0
  1  2  1  0
  2  3  1  0
  3  4  2  0
  4  5  1  0
  5  6  2  0
  6  7  1  0
  6  8  1  0
  8  9  1  0
  8 10  2  0
 10 11  1  0
 10 12  1  0
 12 13  1  0
 12 14  2  0
 14 15  1  0
 15 16  2  0
 15 17  1  0
 17 18  1  0
 17 19  1  0
 19 20  2  0
 20 21  1  0
 20 22  1  0
 22 23  1  0
 22 24  2  0
 24 25  1  0
 25 26  1  0
 26 27  1  0
 26 28  1  0
 26 29  1  0
 24 30  1  0
 30 31  1  0
 30 32  2  0
 32 33  1  0
 33 34  1  0
 34 35  1  0
 34 36  1  0
 34 37  1  0
  3 38  1  0
 38 39  1  0
 38 40  1  0
 38 41  1  0
 41 42  1  0
 41 43  1  0
 41 44  1  0
 44 45  1  0
 44 46  1  0
 44 47  1  0
 14  5  1  0
 32 19  1  0
M  END
>  <UniqueID>  (72) 
12

>  <SMILES>  (72) 
CCC/C(O)=N\c1ccccc1C(=O)Nc1ccc(OC)cc1OC

>  <Energy>  (72) 
61.29818353579485

>  <Genealogy>  (72) 
CCCC(O)=Nc1ccccc1C(=O)Nc1ccc(OC)cc1OC (tautomer)
CCC/C(O)=N\c1ccccc1C(=O)Nc1ccc(OC)cc1OC (cis-trans isomerization)
CCC/C(O)=N\c1ccccc1C(=O)Nc1ccc(OC)cc1OC (3D coordinates assigned)
CCC/C(O)=N\c1ccccc1C(=O)Nc1ccc(OC)cc1OC (optimized conformer: 61.29818353579485 kcal/mol)

>  <smiles>  (72) 
CCCC(=O)Nc1ccccc1C(=O)Nc1ccc(OC)cc1OC

>  <score_type>  (72) 
oracle

>  <origin>  (72) 
autodockgpu

>  <m_score__min__energy>  (72) 
-5.2000000000000002

>  <m_primary>  (72) 
energy

>  <meeko>  (72) 
{"free_energy": -5.01, "intermolecular_energy": -7.7, "internal_energy": -3.24, "cluster_size": 10, "cluster_id": 2, "rank_in_cluster": 10}

>  <energy>  (72) 
-5.08

>  <cluster_rmsd>  (72) 
0.24

>  <rmsd>  (72) 
270.28

>  <cluster>  (72) 
2

$$$$
XACSTBCXFQXDPE-SGJRTRLANA-N
     RDKit          3D

 47 48  0  0  0  0  0  0  0  0999 V2000
  143.0450   77.8900  219.7250 H   0  0  0  0  0  0  0  0  0  0  0  0
  142.1220   78.2290  219.9670 O   0  0  0  0  0  0  0  0  0  0  0  0
  141.8390   78.6900  221.2510 C   0  0  0  0  0  0  0  0  0  0  0  0
  141.4290   77.8400  222.1510 N   0  0  0  0  0  0  0  0  0  0  0  0
  140.0680   77.4480  222.3810 C   0  0  0  0  0  0  0  0  0  0  0  0
  139.1590   78.4170  222.8260 C   0  0  0  0  0  0  0  0  0  0  0  0
  139.4936   79.4554  222.9667 H   0  0  0  0  0  0  0  0  0  0  0  0
  137.8330   78.0750  223.0920 C   0  0  0  0  0  0  0  0  0  0  0  0
  137.1299   78.8402  223.4527 H   0  0  0  0  0  0  0  0  0  0  0  0
  137.3980   76.7640  222.9010 C   0  0  0  0  0  0  0  0  0  0  0  0
  136.3544   76.4944  223.1208 H   0  0  0  0  0  0  0  0  0  0  0  0
  138.2850   75.7920  222.4310 C   0  0  0  0  0  0  0  0  0  0  0  0
  137.9322   74.7617  222.2760 H   0  0  0  0  0  0  0  0  0  0  0  0
  139.6260   76.1190  222.1540 C   0  0  0  0  0  0  0  0  0  0  0  0
  140.5300   75.0790  221.6070 C   0  0  0  0  0  0  0  0  0  0  0  0
  140.3160   73.8640  221.8690 O   0  0  0  0  0  0  0  0  0  0  0  0
  141.6340   75.4450  220.7620 N   0  0  0  0  0  0  0  0  0  0  0  0
  141.6550   76.4050  220.3530 H   0  0  0  0  0  0  0  0  0  0  0  0
  142.6620   74.5220  220.3710 C   0  0  0  0  0  0  0  0  0  0  0  0
  142.6860   73.2280  220.9190 C   0  0  0  0  0  0  0  0  0  0  0  0
  141.8639   72.8971  221.5707 H   0  0  0  0  0  0  0  0  0  0  0  0
  143.7440   72.3580  220.6440 C   0  0  0  0  0  0  0  0  0  0  0  0
  143.7439   71.3433  221.0688 H   0  0  0  0  0  0  0  0  0  0  0  0
  144.8090   72.7750  219.8260 C   0  0  0  0  0  0  0  0  0  0  0  0
  145.8990   71.9440  219.5290 O   0  0  0  0  0  0  0  0  0  0  0  0
  145.7890   70.6360  218.9770 C   0  0  0  0  0  0  0  0  0  0  0  0
  145.7270   69.8986  219.7909 H   0  0  0  0  0  0  0  0  0  0  0  0
  144.8825   70.5748  218.3569 H   0  0  0  0  0  0  0  0  0  0  0  0
  146.6725   70.4242  218.3569 H   0  0  0  0  0  0  0  0  0  0  0  0
  144.7900   74.0660  219.2870 C   0  0  0  0  0  0  0  0  0  0  0  0
  145.6286   74.4032  218.6601 H   0  0  0  0  0  0  0  0  0  0  0  0
  143.7200   74.9360  219.5330 C   0  0  0  0  0  0  0  0  0  0  0  0
  143.7460   76.2000  218.9300 O   0  0  0  0  0  0  0  0  0  0  0  0
  143.2910   76.4380  217.6010 C   0  0  0  0  0  0  0  0  0  0  0  0
  142.3167   76.9476  217.6328 H   0  0  0  0  0  0  0  0  0  0  0  0
  144.0188   77.0709  217.0721 H   0  0  0  0  0  0  0  0  0  0  0  0
  143.1862   75.4792  217.0721 H   0  0  0  0  0  0  0  0  0  0  0  0
  141.9870   80.1700  221.5210 C   0  0  0  0  0  0  0  0  0  0  0  0
  140.9897   80.6038  221.6859 H   0  0  0  0  0  0  0  0  0  0  0  0
  142.4779   80.6300  220.6507 H   0  0  0  0  0  0  0  0  0  0  0  0
  142.8560   80.4370  222.7570 C   0  0  0  0  0  0  0  0  0  0  0  0
  143.7391   81.0165  222.4498 H   0  0  0  0  0  0  0  0  0  0  0  0
  143.1417   79.4641  223.1835 H   0  0  0  0  0  0  0  0  0  0  0  0
  142.1070   81.2180  223.8360 C   0  0  0  0  0  0  0  0  0  0  0  0
  142.4341   80.8769  224.8293 H   0  0  0  0  0  0  0  0  0  0  0  0
  142.3221   82.2913  223.7277 H   0  0  0  0  0  0  0  0  0  0  0  0
  141.0256   81.0480  223.7277 H   0  0  0  0  0  0  0  0  0  0  0  0
  1  2  1  0
  2  3  1  0
  3  4  2  0
  4  5  1  0
  5  6  2  0
  6  7  1  0
  6  8  1  0
  8  9  1  0
  8 10  2  0
 10 11  1  0
 10 12  1  0
 12 13  1  0
 12 14  2  0
 14 15  1  0
 15 16  2  0
 15 17  1  0
 17 18  1  0
 17 19  1  0
 19 20  2  0
 20 21  1  0
 20 22  1  0
 22 23  1  0
 22 24  2  0
 24 25  1  0
 25 26  1  0
 26 27  1  0
 26 28  1  0
 26 29  1  0
 24 30  1  0
 30 31  1  0
 30 32  2  0
 32 33  1  0
 33 34  1  0
 34 35  1  0
 34 36  1  0
 34 37  1  0
  3 38  1  0
 38 39  1  0
 38 40  1  0
 38 41  1  0
 41 42  1  0
 41 43  1  0
 41 44  1  0
 44 45  1  0
 44 46  1  0
 44 47  1  0
 14  5  1  0
 32 19  1  0
M  END
>  <UniqueID>  (73) 
12

>  <SMILES>  (73) 
CCC/C(O)=N\c1ccccc1C(=O)Nc1ccc(OC)cc1OC

>  <Energy>  (73) 
61.29818353579485

>  <Genealogy>  (73) 
CCCC(O)=Nc1ccccc1C(=O)Nc1ccc(OC)cc1OC (tautomer)
CCC/C(O)=N\c1ccccc1C(=O)Nc1ccc(OC)cc1OC (cis-trans isomerization)
CCC/C(O)=N\c1ccccc1C(=O)Nc1ccc(OC)cc1OC (3D coordinates assigned)
CCC/C(O)=N\c1ccccc1C(=O)Nc1ccc(OC)cc1OC (optimized conformer: 61.29818353579485 kcal/mol)

>  <smiles>  (73) 
CCCC(=O)Nc1ccccc1C(=O)Nc1ccc(OC)cc1OC

>  <score_type>  (73) 
oracle

>  <origin>  (73) 
autodockgpu

>  <m_score__min__energy>  (73) 
-5.2000000000000002

>  <m_primary>  (73) 
energy

>  <meeko>  (73) 
{"free_energy": -5.2, "intermolecular_energy": -7.88, "internal_energy": -3.17, "cluster_size": 6, "cluster_id": 1, "rank_in_cluster": 1}

>  <energy>  (73) 
-5.08

>  <cluster_rmsd>  (73) 
0.24

>  <rmsd>  (73) 
270.27

>  <cluster>  (73) 
2

$$$$
XACSTBCXFQXDPE-SGJRTRLANA-N
     RDKit          3D

 47 48  0  0  0  0  0  0  0  0999 V2000
  138.9490   73.9120  222.7820 H   0  0  0  0  0  0  0  0  0  0  0  0
  139.9470   73.7550  222.7100 O   0  0  0  0  0  0  0  0  0  0  0  0
  140.4590   72.7320  221.9150 C   0  0  0  0  0  0  0  0  0  0  0  0
  140.9830   73.0330  220.7590 N   0  0  0  0  0  0  0  0  0  0  0  0
  142.3860   73.0960  220.4610 C   0  0  0  0  0  0  0  0  0  0  0  0
  143.0780   71.8960  220.2470 C   0  0  0  0  0  0  0  0  0  0  0  0
  142.5371   70.9390  220.2867 H   0  0  0  0  0  0  0  0  0  0  0  0
  144.4480   71.9070  219.9840 C   0  0  0  0  0  0  0  0  0  0  0  0
  144.9853   70.9598  219.8285 H   0  0  0  0  0  0  0  0  0  0  0  0
  145.1370   73.1180  219.9180 C   0  0  0  0  0  0  0  0  0  0  0  0
  146.2194   73.1237  219.7223 H   0  0  0  0  0  0  0  0  0  0  0  0
  144.4550   74.3240  220.1000 C   0  0  0  0  0  0  0  0  0  0  0  0
  145.0034   75.2754  220.0363 H   0  0  0  0  0  0  0  0  0  0  0  0
  143.0730   74.3320  220.3640 C   0  0  0  0  0  0  0  0  0  0  0  0
  142.3670   75.6300  220.5020 C   0  0  0  0  0  0  0  0  0  0  0  0
  142.6930   76.6000  219.7650 O   0  0  0  0  0  0  0  0  0  0  0  0
  141.3000   75.7800  221.4530 N   0  0  0  0  0  0  0  0  0  0  0  0
  140.8760   74.9230  221.8710 H   0  0  0  0  0  0  0  0  0  0  0  0
  140.7180   77.0510  221.7840 C   0  0  0  0  0  0  0  0  0  0  0  0
  141.4870   78.2230  221.6770 C   0  0  0  0  0  0  0  0  0  0  0  0
  142.4994   78.1731  221.2497 H   0  0  0  0  0  0  0  0  0  0  0  0
  140.9780   79.4500  222.1080 C   0  0  0  0  0  0  0  0  0  0  0  0
  141.5848   80.3617  222.0050 H   0  0  0  0  0  0  0  0  0  0  0  0
  139.6930   79.5240  222.6730 C   0  0  0  0  0  0  0  0  0  0  0  0
  139.1410   80.7300  223.1310 O   0  0  0  0  0  0  0  0  0  0  0  0
  138.1340   80.8250  224.1340 C   0  0  0  0  0  0  0  0  0  0  0  0
  138.6018   80.7809  225.1286 H   0  0  0  0  0  0  0  0  0  0  0  0
  137.5956   81.7779  224.0240 H   0  0  0  0  0  0  0  0  0  0  0  0
  137.4269   79.9896  224.0240 H   0  0  0  0  0  0  0  0  0  0  0  0
  138.9300   78.3570  222.7890 C   0  0  0  0  0  0  0  0  0  0  0  0
  137.9304   78.4069  223.2454 H   0  0  0  0  0  0  0  0  0  0  0  0
  139.4190   77.1260  222.3330 C   0  0  0  0  0  0  0  0  0  0  0  0
  138.5870   76.0050  222.4430 O   0  0  0  0  0  0  0  0  0  0  0  0
  137.1900   76.0950  222.7110 C   0  0  0  0  0  0  0  0  0  0  0  0
  137.0252   76.1056  223.7985 H   0  0  0  0  0  0  0  0  0  0  0  0
  136.7911   77.0207  222.2706 H   0  0  0  0  0  0  0  0  0  0  0  0
  136.6756   75.2281  222.2706 H   0  0  0  0  0  0  0  0  0  0  0  0
  140.3420   71.3140  222.4240 C   0  0  0  0  0  0  0  0  0  0  0  0
  141.3489   70.8770  222.4957 H   0  0  0  0  0  0  0  0  0  0  0  0
  139.7153   70.7478  221.7193 H   0  0  0  0  0  0  0  0  0  0  0  0
  139.6770   71.2590  223.8050 C   0  0  0  0  0  0  0  0  0  0  0  0
  139.0285   70.3716  223.8500 H   0  0  0  0  0  0  0  0  0  0  0  0
  139.1001   72.1862  223.9372 H   0  0  0  0  0  0  0  0  0  0  0  0
  140.6980   71.1790  224.9390 C   0  0  0  0  0  0  0  0  0  0  0  0
  140.1757   71.2199  225.9062 H   0  0  0  0  0  0  0  0  0  0  0  0
  141.2565   70.2343  224.8636 H   0  0  0  0  0  0  0  0  0  0  0  0
  141.3968   72.0251  224.8636 H   0  0  0  0  0  0  0  0  0  0  0  0
  1  2  1  0
  2  3  1  0
  3  4  2  0
  4  5  1  0
  5  6  2  0
  6  7  1  0
  6  8  1  0
  8  9  1  0
  8 10  2  0
 10 11  1  0
 10 12  1  0
 12 13  1  0
 12 14  2  0
 14 15  1  0
 15 16  2  0
 15 17  1  0
 17 18  1  0
 17 19  1  0
 19 20  2  0
 20 21  1  0
 20 22  1  0
 22 23  1  0
 22 24  2  0
 24 25  1  0
 25 26  1  0
 26 27  1  0
 26 28  1  0
 26 29  1  0
 24 30  1  0
 30 31  1  0
 30 32  2  0
 32 33  1  0
 33 34  1  0
 34 35  1  0
 34 36  1  0
 34 37  1  0
  3 38  1  0
 38 39  1  0
 38 40  1  0
 38 41  1  0
 41 42  1  0
 41 43  1  0
 41 44  1  0
 44 45  1  0
 44 46  1  0
 44 47  1  0
 14  5  1  0
 32 19  1  0
M  END
>  <UniqueID>  (74) 
12

>  <SMILES>  (74) 
CCC/C(O)=N\c1ccccc1C(=O)Nc1ccc(OC)cc1OC

>  <Energy>  (74) 
61.29818353579485

>  <Genealogy>  (74) 
CCCC(O)=Nc1ccccc1C(=O)Nc1ccc(OC)cc1OC (tautomer)
CCC/C(O)=N\c1ccccc1C(=O)Nc1ccc(OC)cc1OC (cis-trans isomerization)
CCC/C(O)=N\c1ccccc1C(=O)Nc1ccc(OC)cc1OC (3D coordinates assigned)
CCC/C(O)=N\c1ccccc1C(=O)Nc1ccc(OC)cc1OC (optimized conformer: 61.29818353579485 kcal/mol)

>  <smiles>  (74) 
CCCC(=O)Nc1ccccc1C(=O)Nc1ccc(OC)cc1OC

>  <score_type>  (74) 
oracle

>  <origin>  (74) 
autodockgpu

>  <m_score__min__energy>  (74) 
-5.2000000000000002

>  <m_primary>  (74) 
energy

>  <meeko>  (74) 
{"free_energy": -5.01, "intermolecular_energy": -7.7, "internal_energy": -3.24, "cluster_size": 3, "cluster_id": 3, "rank_in_cluster": 2}

>  <energy>  (74) 
-5.08

>  <cluster_rmsd>  (74) 
0.32

>  <rmsd>  (74) 
270.23

>  <cluster>  (74) 
2

$$$$
XACSTBCXFQXDPE-SGJRTRLANA-N
     RDKit          3D

 47 48  0  0  0  0  0  0  0  0999 V2000
  141.8300   76.4210  222.5820 H   0  0  0  0  0  0  0  0  0  0  0  0
  141.4410   77.1990  223.1000 O   0  0  0  0  0  0  0  0  0  0  0  0
  140.9630   78.3320  222.4460 C   0  0  0  0  0  0  0  0  0  0  0  0
  140.7050   78.2620  221.1690 N   0  0  0  0  0  0  0  0  0  0  0  0
  141.2850   79.0860  220.1470 C   0  0  0  0  0  0  0  0  0  0  0  0
  140.9700   80.4510  220.1300 C   0  0  0  0  0  0  0  0  0  0  0  0
  140.3110   80.8690  220.9053 H   0  0  0  0  0  0  0  0  0  0  0  0
  141.4860   81.2840  219.1370 C   0  0  0  0  0  0  0  0  0  0  0  0
  141.2230   82.3520  219.1244 H   0  0  0  0  0  0  0  0  0  0  0  0
  142.3350   80.7640  218.1600 C   0  0  0  0  0  0  0  0  0  0  0  0
  142.7322   81.4208  217.3721 H   0  0  0  0  0  0  0  0  0  0  0  0
  142.6820   79.4110  218.1800 C   0  0  0  0  0  0  0  0  0  0  0  0
  143.3587   79.0102  217.4110 H   0  0  0  0  0  0  0  0  0  0  0  0
  142.1730   78.5560  219.1760 C   0  0  0  0  0  0  0  0  0  0  0  0
  142.5990   77.1350  219.2020 C   0  0  0  0  0  0  0  0  0  0  0  0
  143.0610   76.6020  218.1560 O   0  0  0  0  0  0  0  0  0  0  0  0
  142.5110   76.3710  220.4160 N   0  0  0  0  0  0  0  0  0  0  0  0
  142.3700   76.8770  221.3190 H   0  0  0  0  0  0  0  0  0  0  0  0
  142.7090   74.9500  220.4640 C   0  0  0  0  0  0  0  0  0  0  0  0
  143.7320   74.3580  219.7030 C   0  0  0  0  0  0  0  0  0  0  0  0
  144.4374   74.9955  219.1498 H   0  0  0  0  0  0  0  0  0  0  0  0
  143.8620   72.9690  219.6420 C   0  0  0  0  0  0  0  0  0  0  0  0
  144.6753   72.5201  219.0529 H   0  0  0  0  0  0  0  0  0  0  0  0
  142.9570   72.1420  220.3310 C   0  0  0  0  0  0  0  0  0  0  0  0
  143.0370   70.7420  220.2930 O   0  0  0  0  0  0  0  0  0  0  0  0
  143.9480   70.0100  219.4790 C   0  0  0  0  0  0  0  0  0  0  0  0
  144.6446   69.4503  220.1204 H   0  0  0  0  0  0  0  0  0  0  0  0
  143.3889   69.3070  218.8439 H   0  0  0  0  0  0  0  0  0  0  0  0
  144.5141   70.7073  218.8439 H   0  0  0  0  0  0  0  0  0  0  0  0
  141.9320   72.7290  221.0810 C   0  0  0  0  0  0  0  0  0  0  0  0
  141.2103   72.0867  221.6069 H   0  0  0  0  0  0  0  0  0  0  0  0
  141.8100   74.1220  221.1730 C   0  0  0  0  0  0  0  0  0  0  0  0
  140.7850   74.6430  221.9730 O   0  0  0  0  0  0  0  0  0  0  0  0
  139.5580   75.1370  221.4430 C   0  0  0  0  0  0  0  0  0  0  0  0
  138.8844   75.4082  222.2693 H   0  0  0  0  0  0  0  0  0  0  0  0
  139.7566   76.0252  220.8253 H   0  0  0  0  0  0  0  0  0  0  0  0
  139.0857   74.3589  220.8253 H   0  0  0  0  0  0  0  0  0  0  0  0
  140.8040   79.6010  223.2520 C   0  0  0  0  0  0  0  0  0  0  0  0
  140.1089   79.4109  224.0831 H   0  0  0  0  0  0  0  0  0  0  0  0
  140.4154   80.3849  222.5852 H   0  0  0  0  0  0  0  0  0  0  0  0
  142.1440   80.0800  223.8240 C   0  0  0  0  0  0  0  0  0  0  0  0
  142.4755   79.3660  224.5924 H   0  0  0  0  0  0  0  0  0  0  0  0
  141.9886   81.0837  224.2464 H   0  0  0  0  0  0  0  0  0  0  0  0
  143.2290   80.1880  222.7540 C   0  0  0  0  0  0  0  0  0  0  0  0
  144.2122   80.2859  223.2374 H   0  0  0  0  0  0  0  0  0  0  0  0
  143.2170   79.2842  222.1271 H   0  0  0  0  0  0  0  0  0  0  0  0
  143.0391   81.0717  222.1271 H   0  0  0  0  0  0  0  0  0  0  0  0
  1  2  1  0
  2  3  1  0
  3  4  2  0
  4  5  1  0
  5  6  2  0
  6  7  1  0
  6  8  1  0
  8  9  1  0
  8 10  2  0
 10 11  1  0
 10 12  1  0
 12 13  1  0
 12 14  2  0
 14 15  1  0
 15 16  2  0
 15 17  1  0
 17 18  1  0
 17 19  1  0
 19 20  2  0
 20 21  1  0
 20 22  1  0
 22 23  1  0
 22 24  2  0
 24 25  1  0
 25 26  1  0
 26 27  1  0
 26 28  1  0
 26 29  1  0
 24 30  1  0
 30 31  1  0
 30 32  2  0
 32 33  1  0
 33 34  1  0
 34 35  1  0
 34 36  1  0
 34 37  1  0
  3 38  1  0
 38 39  1  0
 38 40  1  0
 38 41  1  0
 41 42  1  0
 41 43  1  0
 41 44  1  0
 44 45  1  0
 44 46  1  0
 44 47  1  0
 14  5  1  0
 32 19  1  0
M  END
>  <UniqueID>  (75) 
12

>  <SMILES>  (75) 
CCC/C(O)=N\c1ccccc1C(=O)Nc1ccc(OC)cc1OC

>  <Energy>  (75) 
61.29818353579485

>  <Genealogy>  (75) 
CCCC(O)=Nc1ccccc1C(=O)Nc1ccc(OC)cc1OC (tautomer)
CCC/C(O)=N\c1ccccc1C(=O)Nc1ccc(OC)cc1OC (cis-trans isomerization)
CCC/C(O)=N\c1ccccc1C(=O)Nc1ccc(OC)cc1OC (3D coordinates assigned)
CCC/C(O)=N\c1ccccc1C(=O)Nc1ccc(OC)cc1OC (optimized conformer: 61.29818353579485 kcal/mol)

>  <smiles>  (75) 
CCCC(=O)Nc1ccccc1C(=O)Nc1ccc(OC)cc1OC

>  <score_type>  (75) 
oracle

>  <origin>  (75) 
autodockgpu

>  <m_score__min__energy>  (75) 
-5.2000000000000002

>  <m_primary>  (75) 
energy

>  <meeko>  (75) 
{"free_energy": -5.09, "intermolecular_energy": -7.78, "internal_energy": -3.33, "cluster_size": 10, "cluster_id": 2, "rank_in_cluster": 4}

>  <energy>  (75) 
-5.08

>  <cluster_rmsd>  (75) 
0.3

>  <rmsd>  (75) 
270.23

>  <cluster>  (75) 
2

$$$$
XACSTBCXFQXDPE-SGJRTRLANA-N
     RDKit          3D

 47 48  0  0  0  0  0  0  0  0999 V2000
  143.1510   77.9070  219.9290 H   0  0  0  0  0  0  0  0  0  0  0  0
  142.1910   78.1980  220.0680 O   0  0  0  0  0  0  0  0  0  0  0  0
  141.7440   78.6350  221.3130 C   0  0  0  0  0  0  0  0  0  0  0  0
  141.2900   77.7570  222.1640 N   0  0  0  0  0  0  0  0  0  0  0  0
  139.9260   77.3290  222.2860 C   0  0  0  0  0  0  0  0  0  0  0  0
  139.0100   78.1840  222.9140 C   0  0  0  0  0  0  0  0  0  0  0  0
  139.3418   79.1682  223.2764 H   0  0  0  0  0  0  0  0  0  0  0  0
  137.6800   77.7960  223.0830 C   0  0  0  0  0  0  0  0  0  0  0  0
  136.9717   78.4684  223.5891 H   0  0  0  0  0  0  0  0  0  0  0  0
  137.2480   76.5570  222.6110 C   0  0  0  0  0  0  0  0  0  0  0  0
  136.2018   76.2491  222.7545 H   0  0  0  0  0  0  0  0  0  0  0  0
  138.1420   75.7060  221.9560 C   0  0  0  0  0  0  0  0  0  0  0  0
  137.7917   74.7341  221.5783 H   0  0  0  0  0  0  0  0  0  0  0  0
  139.4870   76.0810  221.7750 C   0  0  0  0  0  0  0  0  0  0  0  0
  140.4000   75.1780  221.0310 C   0  0  0  0  0  0  0  0  0  0  0  0
  139.9300   74.1780  220.4220 O   0  0  0  0  0  0  0  0  0  0  0  0
  141.8100   75.4490  220.9820 N   0  0  0  0  0  0  0  0  0  0  0  0
  142.1500   76.3930  221.2690 H   0  0  0  0  0  0  0  0  0  0  0  0
  142.7700   74.5160  220.4620 C   0  0  0  0  0  0  0  0  0  0  0  0
  142.7960   73.1960  220.9440 C   0  0  0  0  0  0  0  0  0  0  0  0
  142.0202   72.8577  221.6466 H   0  0  0  0  0  0  0  0  0  0  0  0
  143.7970   72.3090  220.5400 C   0  0  0  0  0  0  0  0  0  0  0  0
  143.7973   71.2747  220.9144 H   0  0  0  0  0  0  0  0  0  0  0  0
  144.8040   72.7350  219.6560 C   0  0  0  0  0  0  0  0  0  0  0  0
  145.8370   71.8880  219.2280 O   0  0  0  0  0  0  0  0  0  0  0  0
  145.6820   70.4970  218.9640 C   0  0  0  0  0  0  0  0  0  0  0  0
  145.6208   69.9479  219.9152 H   0  0  0  0  0  0  0  0  0  0  0  0
  144.7601   70.3339  218.3865 H   0  0  0  0  0  0  0  0  0  0  0  0
  146.5454   70.1350  218.3865 H   0  0  0  0  0  0  0  0  0  0  0  0
  144.7850   74.0510  219.1820 C   0  0  0  0  0  0  0  0  0  0  0  0
  145.5801   74.3935  218.5034 H   0  0  0  0  0  0  0  0  0  0  0  0
  143.7690   74.9400  219.5580 C   0  0  0  0  0  0  0  0  0  0  0  0
  143.7880   76.2300  219.0150 O   0  0  0  0  0  0  0  0  0  0  0  0
  143.2480   76.5440  217.7340 C   0  0  0  0  0  0  0  0  0  0  0  0
  142.3032   77.0934  217.8590 H   0  0  0  0  0  0  0  0  0  0  0  0
  143.9635   77.1669  217.1771 H   0  0  0  0  0  0  0  0  0  0  0  0
  143.0605   75.6141  217.1771 H   0  0  0  0  0  0  0  0  0  0  0  0
  141.7740   80.1190  221.5960 C   0  0  0  0  0  0  0  0  0  0  0  0
  140.9563   80.6040  221.0426 H   0  0  0  0  0  0  0  0  0  0  0  0
  142.7517   80.5092  221.2770 H   0  0  0  0  0  0  0  0  0  0  0  0
  141.6060   80.4150  223.0920 C   0  0  0  0  0  0  0  0  0  0  0  0
  141.0294   79.5986  223.5514 H   0  0  0  0  0  0  0  0  0  0  0  0
  141.0845   81.3788  223.1875 H   0  0  0  0  0  0  0  0  0  0  0  0
  142.9470   80.5360  223.8140 C   0  0  0  0  0  0  0  0  0  0  0  0
  142.7807   80.5210  224.9013 H   0  0  0  0  0  0  0  0  0  0  0  0
  143.5936   79.6926  223.5303 H   0  0  0  0  0  0  0  0  0  0  0  0
  143.4322   81.4816  223.5303 H   0  0  0  0  0  0  0  0  0  0  0  0
  1  2  1  0
  2  3  1  0
  3  4  2  0
  4  5  1  0
  5  6  2  0
  6  7  1  0
  6  8  1  0
  8  9  1  0
  8 10  2  0
 10 11  1  0
 10 12  1  0
 12 13  1  0
 12 14  2  0
 14 15  1  0
 15 16  2  0
 15 17  1  0
 17 18  1  0
 17 19  1  0
 19 20  2  0
 20 21  1  0
 20 22  1  0
 22 23  1  0
 22 24  2  0
 24 25  1  0
 25 26  1  0
 26 27  1  0
 26 28  1  0
 26 29  1  0
 24 30  1  0
 30 31  1  0
 30 32  2  0
 32 33  1  0
 33 34  1  0
 34 35  1  0
 34 36  1  0
 34 37  1  0
  3 38  1  0
 38 39  1  0
 38 40  1  0
 38 41  1  0
 41 42  1  0
 41 43  1  0
 41 44  1  0
 44 45  1  0
 44 46  1  0
 44 47  1  0
 14  5  1  0
 32 19  1  0
M  END
>  <UniqueID>  (76) 
12

>  <SMILES>  (76) 
CCC/C(O)=N\c1ccccc1C(=O)Nc1ccc(OC)cc1OC

>  <Energy>  (76) 
61.29818353579485

>  <Genealogy>  (76) 
CCCC(O)=Nc1ccccc1C(=O)Nc1ccc(OC)cc1OC (tautomer)
CCC/C(O)=N\c1ccccc1C(=O)Nc1ccc(OC)cc1OC (cis-trans isomerization)
CCC/C(O)=N\c1ccccc1C(=O)Nc1ccc(OC)cc1OC (3D coordinates assigned)
CCC/C(O)=N\c1ccccc1C(=O)Nc1ccc(OC)cc1OC (optimized conformer: 61.29818353579485 kcal/mol)

>  <smiles>  (76) 
CCCC(=O)Nc1ccccc1C(=O)Nc1ccc(OC)cc1OC

>  <score_type>  (76) 
oracle

>  <origin>  (76) 
autodockgpu

>  <m_score__min__energy>  (76) 
-5.2000000000000002

>  <m_primary>  (76) 
energy

>  <meeko>  (76) 
{"free_energy": -5.02, "intermolecular_energy": -7.71, "internal_energy": -3.26, "cluster_size": 6, "cluster_id": 1, "rank_in_cluster": 6}

>  <energy>  (76) 
-5.01

>  <cluster_rmsd>  (76) 
0.38

>  <rmsd>  (76) 
270.29

>  <cluster>  (76) 
2

$$$$
XACSTBCXFQXDPE-SGJRTRLANA-N
     RDKit          3D

 47 48  0  0  0  0  0  0  0  0999 V2000
  141.8240   76.2810  222.6550 H   0  0  0  0  0  0  0  0  0  0  0  0
  141.2760   77.0060  223.1040 O   0  0  0  0  0  0  0  0  0  0  0  0
  140.9760   78.1940  222.4430 C   0  0  0  0  0  0  0  0  0  0  0  0
  140.6840   78.1540  221.1730 N   0  0  0  0  0  0  0  0  0  0  0  0
  141.2620   78.9770  220.1490 C   0  0  0  0  0  0  0  0  0  0  0  0
  140.9430   80.3410  220.1290 C   0  0  0  0  0  0  0  0  0  0  0  0
  140.2825   80.7586  220.9032 H   0  0  0  0  0  0  0  0  0  0  0  0
  141.4570   81.1740  219.1340 C   0  0  0  0  0  0  0  0  0  0  0  0
  141.1908   82.2412  219.1188 H   0  0  0  0  0  0  0  0  0  0  0  0
  142.3080   80.6540  218.1590 C   0  0  0  0  0  0  0  0  0  0  0  0
  142.7036   81.3098  217.3695 H   0  0  0  0  0  0  0  0  0  0  0  0
  142.6590   79.3020  218.1830 C   0  0  0  0  0  0  0  0  0  0  0  0
  143.3379   78.9017  217.4157 H   0  0  0  0  0  0  0  0  0  0  0  0
  142.1520   78.4470  219.1800 C   0  0  0  0  0  0  0  0  0  0  0  0
  142.5830   77.0280  219.2100 C   0  0  0  0  0  0  0  0  0  0  0  0
  143.0510   76.4950  218.1660 O   0  0  0  0  0  0  0  0  0  0  0  0
  142.4930   76.2660  220.4250 N   0  0  0  0  0  0  0  0  0  0  0  0
  142.3470   76.7730  221.3250 H   0  0  0  0  0  0  0  0  0  0  0  0
  142.6940   74.8450  220.4750 C   0  0  0  0  0  0  0  0  0  0  0  0
  143.7220   74.2560  219.7180 C   0  0  0  0  0  0  0  0  0  0  0  0
  144.4268   74.8952  219.1661 H   0  0  0  0  0  0  0  0  0  0  0  0
  143.8570   72.8660  219.6600 C   0  0  0  0  0  0  0  0  0  0  0  0
  144.6740   72.4185  219.0749 H   0  0  0  0  0  0  0  0  0  0  0  0
  142.9520   72.0380  220.3470 C   0  0  0  0  0  0  0  0  0  0  0  0
  143.0370   70.6380  220.3110 O   0  0  0  0  0  0  0  0  0  0  0  0
  144.0360   69.9100  219.6050 C   0  0  0  0  0  0  0  0  0  0  0  0
  144.7090   69.4196  220.3237 H   0  0  0  0  0  0  0  0  0  0  0  0
  143.5565   69.1481  218.9729 H   0  0  0  0  0  0  0  0  0  0  0  0
  144.6144   70.5998  218.9729 H   0  0  0  0  0  0  0  0  0  0  0  0
  141.9230   72.6230  221.0930 C   0  0  0  0  0  0  0  0  0  0  0  0
  141.2020   71.9792  221.6181 H   0  0  0  0  0  0  0  0  0  0  0  0
  141.7960   74.0150  221.1820 C   0  0  0  0  0  0  0  0  0  0  0  0
  140.7670   74.5340  221.9780 O   0  0  0  0  0  0  0  0  0  0  0  0
  139.5320   75.0040  221.4450 C   0  0  0  0  0  0  0  0  0  0  0  0
  138.8516   75.2629  222.2697 H   0  0  0  0  0  0  0  0  0  0  0  0
  139.7149   75.8954  220.8269 H   0  0  0  0  0  0  0  0  0  0  0  0
  139.0760   74.2165  220.8269 H   0  0  0  0  0  0  0  0  0  0  0  0
  141.0430   79.4810  223.2340 C   0  0  0  0  0  0  0  0  0  0  0  0
  140.5991   79.3131  224.2263 H   0  0  0  0  0  0  0  0  0  0  0  0
  140.4892   80.2533  222.6801 H   0  0  0  0  0  0  0  0  0  0  0  0
  142.4880   79.9630  223.4110 C   0  0  0  0  0  0  0  0  0  0  0  0
  142.9297   80.1282  222.4172 H   0  0  0  0  0  0  0  0  0  0  0  0
  143.0338   79.1892  223.9707 H   0  0  0  0  0  0  0  0  0  0  0  0
  142.5740   81.2640  224.2090 C   0  0  0  0  0  0  0  0  0  0  0  0
  142.5589   81.0358  225.2850 H   0  0  0  0  0  0  0  0  0  0  0  0
  143.5087   81.7869  223.9581 H   0  0  0  0  0  0  0  0  0  0  0  0
  141.7163   81.9054  223.9581 H   0  0  0  0  0  0  0  0  0  0  0  0
  1  2  1  0
  2  3  1  0
  3  4  2  0
  4  5  1  0
  5  6  2  0
  6  7  1  0
  6  8  1  0
  8  9  1  0
  8 10  2  0
 10 11  1  0
 10 12  1  0
 12 13  1  0
 12 14  2  0
 14 15  1  0
 15 16  2  0
 15 17  1  0
 17 18  1  0
 17 19  1  0
 19 20  2  0
 20 21  1  0
 20 22  1  0
 22 23  1  0
 22 24  2  0
 24 25  1  0
 25 26  1  0
 26 27  1  0
 26 28  1  0
 26 29  1  0
 24 30  1  0
 30 31  1  0
 30 32  2  0
 32 33  1  0
 33 34  1  0
 34 35  1  0
 34 36  1  0
 34 37  1  0
  3 38  1  0
 38 39  1  0
 38 40  1  0
 38 41  1  0
 41 42  1  0
 41 43  1  0
 41 44  1  0
 44 45  1  0
 44 46  1  0
 44 47  1  0
 14  5  1  0
 32 19  1  0
M  END
>  <UniqueID>  (77) 
12

>  <SMILES>  (77) 
CCC/C(O)=N\c1ccccc1C(=O)Nc1ccc(OC)cc1OC

>  <Energy>  (77) 
61.29818353579485

>  <Genealogy>  (77) 
CCCC(O)=Nc1ccccc1C(=O)Nc1ccc(OC)cc1OC (tautomer)
CCC/C(O)=N\c1ccccc1C(=O)Nc1ccc(OC)cc1OC (cis-trans isomerization)
CCC/C(O)=N\c1ccccc1C(=O)Nc1ccc(OC)cc1OC (3D coordinates assigned)
CCC/C(O)=N\c1ccccc1C(=O)Nc1ccc(OC)cc1OC (optimized conformer: 61.29818353579485 kcal/mol)

>  <smiles>  (77) 
CCCC(=O)Nc1ccccc1C(=O)Nc1ccc(OC)cc1OC

>  <score_type>  (77) 
oracle

>  <origin>  (77) 
autodockgpu

>  <m_score__min__energy>  (77) 
-5.2000000000000002

>  <m_primary>  (77) 
energy

>  <meeko>  (77) 
{"free_energy": -5.17, "intermolecular_energy": -7.85, "internal_energy": -3.19, "cluster_size": 10, "cluster_id": 2, "rank_in_cluster": 3}

>  <energy>  (77) 
-5.02

>  <cluster_rmsd>  (77) 
0.0

>  <rmsd>  (77) 
270.22

>  <cluster>  (77) 
3

$$$$
XACSTBCXFQXDPE-SGJRTRLANA-N
     RDKit          3D

 47 48  0  0  0  0  0  0  0  0999 V2000
  143.0590   77.9120  219.7570 H   0  0  0  0  0  0  0  0  0  0  0  0
  142.1310   78.2490  219.9810 O   0  0  0  0  0  0  0  0  0  0  0  0
  141.8230   78.7150  221.2570 C   0  0  0  0  0  0  0  0  0  0  0  0
  141.4130   77.8640  222.1580 N   0  0  0  0  0  0  0  0  0  0  0  0
  140.0520   77.4710  222.3870 C   0  0  0  0  0  0  0  0  0  0  0  0
  139.1420   78.4410  222.8290 C   0  0  0  0  0  0  0  0  0  0  0  0
  139.4756   79.4801  222.9672 H   0  0  0  0  0  0  0  0  0  0  0  0
  137.8160   78.0980  223.0950 C   0  0  0  0  0  0  0  0  0  0  0  0
  137.1121   78.8632  223.4542 H   0  0  0  0  0  0  0  0  0  0  0  0
  137.3820   76.7860  222.9060 C   0  0  0  0  0  0  0  0  0  0  0  0
  136.3387   76.5157  223.1259 H   0  0  0  0  0  0  0  0  0  0  0  0
  138.2700   75.8150  222.4380 C   0  0  0  0  0  0  0  0  0  0  0  0
  137.9180   74.7844  222.2835 H   0  0  0  0  0  0  0  0  0  0  0  0
  139.6110   76.1420  222.1620 C   0  0  0  0  0  0  0  0  0  0  0  0
  140.5170   75.1020  221.6180 C   0  0  0  0  0  0  0  0  0  0  0  0
  140.3050   73.8870  221.8840 O   0  0  0  0  0  0  0  0  0  0  0  0
  141.6200   75.4670  220.7720 N   0  0  0  0  0  0  0  0  0  0  0  0
  141.6390   76.4260  220.3590 H   0  0  0  0  0  0  0  0  0  0  0  0
  142.6490   74.5440  220.3820 C   0  0  0  0  0  0  0  0  0  0  0  0
  142.6710   73.2490  220.9280 C   0  0  0  0  0  0  0  0  0  0  0  0
  141.8463   72.9171  221.5759 H   0  0  0  0  0  0  0  0  0  0  0  0
  143.7300   72.3790  220.6560 C   0  0  0  0  0  0  0  0  0  0  0  0
  143.7282   71.3636  221.0790 H   0  0  0  0  0  0  0  0  0  0  0  0
  144.7980   72.7980  219.8430 C   0  0  0  0  0  0  0  0  0  0  0  0
  145.8900   71.9670  219.5480 O   0  0  0  0  0  0  0  0  0  0  0  0
  145.7810   70.6580  218.9980 C   0  0  0  0  0  0  0  0  0  0  0  0
  145.7197   69.9218  219.8130 H   0  0  0  0  0  0  0  0  0  0  0  0
  144.8745   70.5951  218.3781 H   0  0  0  0  0  0  0  0  0  0  0  0
  146.6646   70.4460  218.3781 H   0  0  0  0  0  0  0  0  0  0  0  0
  144.7820   74.0900  219.3060 C   0  0  0  0  0  0  0  0  0  0  0  0
  145.6235   74.4279  218.6833 H   0  0  0  0  0  0  0  0  0  0  0  0
  143.7110   74.9600  219.5490 C   0  0  0  0  0  0  0  0  0  0  0  0
  143.7390   76.2250  218.9490 O   0  0  0  0  0  0  0  0  0  0  0  0
  143.2730   76.4680  217.6240 C   0  0  0  0  0  0  0  0  0  0  0  0
  142.2983   76.9763  217.6655 H   0  0  0  0  0  0  0  0  0  0  0  0
  143.9958   77.1040  217.0920 H   0  0  0  0  0  0  0  0  0  0  0  0
  143.1652   75.5113  217.0920 H   0  0  0  0  0  0  0  0  0  0  0  0
  141.9450   80.1980  221.5190 C   0  0  0  0  0  0  0  0  0  0  0  0
  140.9381   80.6206  221.6513 H   0  0  0  0  0  0  0  0  0  0  0  0
  142.4556   80.6570  220.6596 H   0  0  0  0  0  0  0  0  0  0  0  0
  142.7740   80.4860  222.7770 C   0  0  0  0  0  0  0  0  0  0  0  0
  143.6377   81.1069  222.4966 H   0  0  0  0  0  0  0  0  0  0  0  0
  143.0917   79.5207  223.1979 H   0  0  0  0  0  0  0  0  0  0  0  0
  141.9690   81.2200  223.8490 C   0  0  0  0  0  0  0  0  0  0  0  0
  142.3134   80.9060  224.8454 H   0  0  0  0  0  0  0  0  0  0  0  0
  142.1123   82.3048  223.7366 H   0  0  0  0  0  0  0  0  0  0  0  0
  140.9020   80.9775  223.7366 H   0  0  0  0  0  0  0  0  0  0  0  0
  1  2  1  0
  2  3  1  0
  3  4  2  0
  4  5  1  0
  5  6  2  0
  6  7  1  0
  6  8  1  0
  8  9  1  0
  8 10  2  0
 10 11  1  0
 10 12  1  0
 12 13  1  0
 12 14  2  0
 14 15  1  0
 15 16  2  0
 15 17  1  0
 17 18  1  0
 17 19  1  0
 19 20  2  0
 20 21  1  0
 20 22  1  0
 22 23  1  0
 22 24  2  0
 24 25  1  0
 25 26  1  0
 26 27  1  0
 26 28  1  0
 26 29  1  0
 24 30  1  0
 30 31  1  0
 30 32  2  0
 32 33  1  0
 33 34  1  0
 34 35  1  0
 34 36  1  0
 34 37  1  0
  3 38  1  0
 38 39  1  0
 38 40  1  0
 38 41  1  0
 41 42  1  0
 41 43  1  0
 41 44  1  0
 44 45  1  0
 44 46  1  0
 44 47  1  0
 14  5  1  0
 32 19  1  0
M  END
>  <UniqueID>  (78) 
12

>  <SMILES>  (78) 
CCC/C(O)=N\c1ccccc1C(=O)Nc1ccc(OC)cc1OC

>  <Energy>  (78) 
61.29818353579485

>  <Genealogy>  (78) 
CCCC(O)=Nc1ccccc1C(=O)Nc1ccc(OC)cc1OC (tautomer)
CCC/C(O)=N\c1ccccc1C(=O)Nc1ccc(OC)cc1OC (cis-trans isomerization)
CCC/C(O)=N\c1ccccc1C(=O)Nc1ccc(OC)cc1OC (3D coordinates assigned)
CCC/C(O)=N\c1ccccc1C(=O)Nc1ccc(OC)cc1OC (optimized conformer: 61.29818353579485 kcal/mol)

>  <smiles>  (78) 
CCCC(=O)Nc1ccccc1C(=O)Nc1ccc(OC)cc1OC

>  <score_type>  (78) 
oracle

>  <origin>  (78) 
autodockgpu

>  <m_score__min__energy>  (78) 
-5.2000000000000002

>  <m_primary>  (78) 
energy

>  <meeko>  (78) 
{"free_energy": -5.2, "intermolecular_energy": -7.88, "internal_energy": -3.17, "cluster_size": 6, "cluster_id": 1, "rank_in_cluster": 2}

>  <energy>  (78) 
-5.01

>  <cluster_rmsd>  (78) 
0.07

>  <rmsd>  (78) 
270.22

>  <cluster>  (78) 
3

$$$$
XACSTBCXFQXDPE-SGJRTRLANA-N
     RDKit          3D

 47 48  0  0  0  0  0  0  0  0999 V2000
  141.8250   76.3660  222.5710 H   0  0  0  0  0  0  0  0  0  0  0  0
  141.4260   77.1360  223.0940 O   0  0  0  0  0  0  0  0  0  0  0  0
  140.9570   78.2780  222.4490 C   0  0  0  0  0  0  0  0  0  0  0  0
  140.6940   78.2200  221.1730 N   0  0  0  0  0  0  0  0  0  0  0  0
  141.2720   79.0490  220.1550 C   0  0  0  0  0  0  0  0  0  0  0  0
  140.9520   80.4130  220.1420 C   0  0  0  0  0  0  0  0  0  0  0  0
  140.2897   80.8257  220.9173 H   0  0  0  0  0  0  0  0  0  0  0  0
  141.4670   81.2520  219.1530 C   0  0  0  0  0  0  0  0  0  0  0  0
  141.2004   82.3192  219.1443 H   0  0  0  0  0  0  0  0  0  0  0  0
  142.3190   80.7390  218.1760 C   0  0  0  0  0  0  0  0  0  0  0  0
  142.7149   81.4000  217.3909 H   0  0  0  0  0  0  0  0  0  0  0  0
  142.6710   79.3870  218.1920 C   0  0  0  0  0  0  0  0  0  0  0  0
  143.3504   78.9916  217.4226 H   0  0  0  0  0  0  0  0  0  0  0  0
  142.1640   78.5260  219.1840 C   0  0  0  0  0  0  0  0  0  0  0  0
  142.5960   77.1070  219.2060 C   0  0  0  0  0  0  0  0  0  0  0  0
  143.0600   76.5790  218.1580 O   0  0  0  0  0  0  0  0  0  0  0  0
  142.5100   76.3390  220.4170 N   0  0  0  0  0  0  0  0  0  0  0  0
  142.3660   76.8420  221.3210 H   0  0  0  0  0  0  0  0  0  0  0  0
  142.7130   74.9180  220.4610 C   0  0  0  0  0  0  0  0  0  0  0  0
  143.7410   74.3340  219.7010 C   0  0  0  0  0  0  0  0  0  0  0  0
  144.4452   74.9766  219.1522 H   0  0  0  0  0  0  0  0  0  0  0  0
  143.8770   72.9450  219.6360 C   0  0  0  0  0  0  0  0  0  0  0  0
  144.6949   72.5013  219.0493 H   0  0  0  0  0  0  0  0  0  0  0  0
  142.9720   72.1120  220.3180 C   0  0  0  0  0  0  0  0  0  0  0  0
  143.0590   70.7130  220.2750 O   0  0  0  0  0  0  0  0  0  0  0  0
  142.6870   69.9170  219.1540 C   0  0  0  0  0  0  0  0  0  0  0  0
  142.2456   68.9726  219.5052 H   0  0  0  0  0  0  0  0  0  0  0  0
  141.9504   70.4621  218.5455 H   0  0  0  0  0  0  0  0  0  0  0  0
  143.5777   69.7015  218.5455 H   0  0  0  0  0  0  0  0  0  0  0  0
  141.9430   72.6920  221.0670 C   0  0  0  0  0  0  0  0  0  0  0  0
  141.2227   72.0450  221.5891 H   0  0  0  0  0  0  0  0  0  0  0  0
  141.8150   74.0840  221.1630 C   0  0  0  0  0  0  0  0  0  0  0  0
  140.7860   74.5980  221.9620 O   0  0  0  0  0  0  0  0  0  0  0  0
  139.5620   75.0980  221.4290 C   0  0  0  0  0  0  0  0  0  0  0  0
  138.8882   75.3732  222.2538 H   0  0  0  0  0  0  0  0  0  0  0  0
  139.7663   75.9847  220.8110 H   0  0  0  0  0  0  0  0  0  0  0  0
  139.0870   74.3218  220.8110 H   0  0  0  0  0  0  0  0  0  0  0  0
  140.8140   79.5440  223.2640 C   0  0  0  0  0  0  0  0  0  0  0  0
  140.1134   79.3583  224.0915 H   0  0  0  0  0  0  0  0  0  0  0  0
  140.4391   80.3383  222.6018 H   0  0  0  0  0  0  0  0  0  0  0  0
  142.1600   79.9990  223.8440 C   0  0  0  0  0  0  0  0  0  0  0  0
  142.4839   79.2687  224.6002 H   0  0  0  0  0  0  0  0  0  0  0  0
  142.0158   80.9970  224.2835 H   0  0  0  0  0  0  0  0  0  0  0  0
  143.2460   80.1130  222.7750 C   0  0  0  0  0  0  0  0  0  0  0  0
  144.2281   80.2161  223.2596 H   0  0  0  0  0  0  0  0  0  0  0  0
  143.2396   79.2092  222.1479 H   0  0  0  0  0  0  0  0  0  0  0  0
  143.0521   80.9957  222.1479 H   0  0  0  0  0  0  0  0  0  0  0  0
  1  2  1  0
  2  3  1  0
  3  4  2  0
  4  5  1  0
  5  6  2  0
  6  7  1  0
  6  8  1  0
  8  9  1  0
  8 10  2  0
 10 11  1  0
 10 12  1  0
 12 13  1  0
 12 14  2  0
 14 15  1  0
 15 16  2  0
 15 17  1  0
 17 18  1  0
 17 19  1  0
 19 20  2  0
 20 21  1  0
 20 22  1  0
 22 23  1  0
 22 24  2  0
 24 25  1  0
 25 26  1  0
 26 27  1  0
 26 28  1  0
 26 29  1  0
 24 30  1  0
 30 31  1  0
 30 32  2  0
 32 33  1  0
 33 34  1  0
 34 35  1  0
 34 36  1  0
 34 37  1  0
  3 38  1  0
 38 39  1  0
 38 40  1  0
 38 41  1  0
 41 42  1  0
 41 43  1  0
 41 44  1  0
 44 45  1  0
 44 46  1  0
 44 47  1  0
 14  5  1  0
 32 19  1  0
M  END
>  <UniqueID>  (79) 
12

>  <SMILES>  (79) 
CCC/C(O)=N\c1ccccc1C(=O)Nc1ccc(OC)cc1OC

>  <Energy>  (79) 
61.29818353579485

>  <Genealogy>  (79) 
CCCC(O)=Nc1ccccc1C(=O)Nc1ccc(OC)cc1OC (tautomer)
CCC/C(O)=N\c1ccccc1C(=O)Nc1ccc(OC)cc1OC (cis-trans isomerization)
CCC/C(O)=N\c1ccccc1C(=O)Nc1ccc(OC)cc1OC (3D coordinates assigned)
CCC/C(O)=N\c1ccccc1C(=O)Nc1ccc(OC)cc1OC (optimized conformer: 61.29818353579485 kcal/mol)

>  <smiles>  (79) 
CCCC(=O)Nc1ccccc1C(=O)Nc1ccc(OC)cc1OC

>  <score_type>  (79) 
oracle

>  <origin>  (79) 
autodockgpu

>  <m_score__min__energy>  (79) 
-5.2000000000000002

>  <m_primary>  (79) 
energy

>  <meeko>  (79) 
{"free_energy": -5.08, "intermolecular_energy": -7.76, "internal_energy": -3.33, "cluster_size": 10, "cluster_id": 2, "rank_in_cluster": 8}

>  <energy>  (79) 
-5.0

>  <cluster_rmsd>  (79) 
0.06

>  <rmsd>  (79) 
270.22

>  <cluster>  (79) 
3

$$$$
XACSTBCXFQXDPE-SGJRTRLANA-N
     RDKit          3D

 47 48  0  0  0  0  0  0  0  0999 V2000
  143.1580   77.8610  219.9060 H   0  0  0  0  0  0  0  0  0  0  0  0
  142.1910   78.1080  220.0790 O   0  0  0  0  0  0  0  0  0  0  0  0
  141.7750   78.5530  221.3310 C   0  0  0  0  0  0  0  0  0  0  0  0
  141.3110   77.6850  222.1870 N   0  0  0  0  0  0  0  0  0  0  0  0
  139.9460   77.2540  222.2940 C   0  0  0  0  0  0  0  0  0  0  0  0
  139.0270   78.0950  222.9350 C   0  0  0  0  0  0  0  0  0  0  0  0
  139.3569   79.0713  223.3198 H   0  0  0  0  0  0  0  0  0  0  0  0
  137.6970   77.7040  223.0890 C   0  0  0  0  0  0  0  0  0  0  0  0
  136.9863   78.3658  223.6055 H   0  0  0  0  0  0  0  0  0  0  0  0
  137.2670   76.4750  222.5890 C   0  0  0  0  0  0  0  0  0  0  0  0
  136.2200   76.1642  222.7206 H   0  0  0  0  0  0  0  0  0  0  0  0
  138.1650   75.6380  221.9210 C   0  0  0  0  0  0  0  0  0  0  0  0
  137.8172   74.6738  221.5220 H   0  0  0  0  0  0  0  0  0  0  0  0
  139.5100   76.0170  221.7540 C   0  0  0  0  0  0  0  0  0  0  0  0
  140.4270   75.1300  220.9960 C   0  0  0  0  0  0  0  0  0  0  0  0
  139.9580   74.1560  220.3460 O   0  0  0  0  0  0  0  0  0  0  0  0
  141.8400   75.3890  220.9790 N   0  0  0  0  0  0  0  0  0  0  0  0
  142.1840   76.3200  221.3020 H   0  0  0  0  0  0  0  0  0  0  0  0
  142.8000   74.4640  220.4440 C   0  0  0  0  0  0  0  0  0  0  0  0
  142.8320   73.1390  220.9110 C   0  0  0  0  0  0  0  0  0  0  0  0
  142.0605   72.7904  221.6134 H   0  0  0  0  0  0  0  0  0  0  0  0
  143.8340   72.2600  220.4920 C   0  0  0  0  0  0  0  0  0  0  0  0
  143.8394   71.2217  220.8552 H   0  0  0  0  0  0  0  0  0  0  0  0
  144.8350   72.6980  219.6080 C   0  0  0  0  0  0  0  0  0  0  0  0
  145.8680   71.8580  219.1660 O   0  0  0  0  0  0  0  0  0  0  0  0
  145.7310   70.4570  218.9490 C   0  0  0  0  0  0  0  0  0  0  0  0
  145.6804   69.9391  219.9181 H   0  0  0  0  0  0  0  0  0  0  0  0
  144.8095   70.2624  218.3807 H   0  0  0  0  0  0  0  0  0  0  0  0
  146.5973   70.0876  218.3807 H   0  0  0  0  0  0  0  0  0  0  0  0
  144.8100   74.0190  219.1480 C   0  0  0  0  0  0  0  0  0  0  0  0
  145.6006   74.3710  218.4690 H   0  0  0  0  0  0  0  0  0  0  0  0
  143.7930   74.9010  219.5390 C   0  0  0  0  0  0  0  0  0  0  0  0
  143.8060   76.1970  219.0110 O   0  0  0  0  0  0  0  0  0  0  0  0
  143.3000   76.5160  217.7170 C   0  0  0  0  0  0  0  0  0  0  0  0
  142.3735   77.1001  217.8193 H   0  0  0  0  0  0  0  0  0  0  0  0
  144.0470   77.1068  217.1666 H   0  0  0  0  0  0  0  0  0  0  0  0
  143.0890   75.5873  217.1666 H   0  0  0  0  0  0  0  0  0  0  0  0
  141.8490   80.0350  221.6170 C   0  0  0  0  0  0  0  0  0  0  0  0
  141.0730   80.5502  221.0319 H   0  0  0  0  0  0  0  0  0  0  0  0
  142.8526   80.3885  221.3380 H   0  0  0  0  0  0  0  0  0  0  0  0
  141.6320   80.3370  223.1060 C   0  0  0  0  0  0  0  0  0  0  0  0
  141.0765   79.5025  223.5588 H   0  0  0  0  0  0  0  0  0  0  0  0
  141.0709   81.2803  223.1794 H   0  0  0  0  0  0  0  0  0  0  0  0
  142.9490   80.5170  223.8600 C   0  0  0  0  0  0  0  0  0  0  0  0
  142.7580   80.4909  224.9430 H   0  0  0  0  0  0  0  0  0  0  0  0
  143.6401   79.7050  223.5899 H   0  0  0  0  0  0  0  0  0  0  0  0
  143.3969   81.4847  223.5899 H   0  0  0  0  0  0  0  0  0  0  0  0
  1  2  1  0
  2  3  1  0
  3  4  2  0
  4  5  1  0
  5  6  2  0
  6  7  1  0
  6  8  1  0
  8  9  1  0
  8 10  2  0
 10 11  1  0
 10 12  1  0
 12 13  1  0
 12 14  2  0
 14 15  1  0
 15 16  2  0
 15 17  1  0
 17 18  1  0
 17 19  1  0
 19 20  2  0
 20 21  1  0
 20 22  1  0
 22 23  1  0
 22 24  2  0
 24 25  1  0
 25 26  1  0
 26 27  1  0
 26 28  1  0
 26 29  1  0
 24 30  1  0
 30 31  1  0
 30 32  2  0
 32 33  1  0
 33 34  1  0
 34 35  1  0
 34 36  1  0
 34 37  1  0
  3 38  1  0
 38 39  1  0
 38 40  1  0
 38 41  1  0
 41 42  1  0
 41 43  1  0
 41 44  1  0
 44 45  1  0
 44 46  1  0
 44 47  1  0
 14  5  1  0
 32 19  1  0
M  END
>  <UniqueID>  (80) 
12

>  <SMILES>  (80) 
CCC/C(O)=N\c1ccccc1C(=O)Nc1ccc(OC)cc1OC

>  <Energy>  (80) 
61.29818353579485

>  <Genealogy>  (80) 
CCCC(O)=Nc1ccccc1C(=O)Nc1ccc(OC)cc1OC (tautomer)
CCC/C(O)=N\c1ccccc1C(=O)Nc1ccc(OC)cc1OC (cis-trans isomerization)
CCC/C(O)=N\c1ccccc1C(=O)Nc1ccc(OC)cc1OC (3D coordinates assigned)
CCC/C(O)=N\c1ccccc1C(=O)Nc1ccc(OC)cc1OC (optimized conformer: 61.29818353579485 kcal/mol)

>  <smiles>  (80) 
CCCC(=O)Nc1ccccc1C(=O)Nc1ccc(OC)cc1OC

>  <score_type>  (80) 
oracle

>  <origin>  (80) 
autodockgpu

>  <m_score__min__energy>  (80) 
-5.2000000000000002

>  <m_primary>  (80) 
energy

>  <meeko>  (80) 
{"free_energy": -5.03, "intermolecular_energy": -7.72, "internal_energy": -3.25, "cluster_size": 6, "cluster_id": 1, "rank_in_cluster": 4}

>  <energy>  (80) 
-4.9

>  <cluster_rmsd>  (80) 
0.0

>  <rmsd>  (80) 
270.45

>  <cluster>  (80) 
4

$$$$
