
     RDKit          3D

 55 58  0  0  0  0  0  0  0  0999 V2000
  137.0180   76.7580  221.4510 O   0  0  0  0  0  0  0  0  0  0  0  0
  138.2060   76.7180  221.8340 C   0  0  0  0  0  0  0  0  0  0  0  0
  138.9220   75.4900  221.7930 N   0  0  0  0  0  0  0  0  0  0  0  0
  138.2780   74.2860  221.3050 C   0  0  0  0  0  0  0  0  0  0  0  0
  138.9730   73.1070  221.8820 C   0  0  0  0  0  0  0  0  0  0  0  0
  140.0500   73.2430  222.5420 O   0  0  0  0  0  0  0  0  0  0  0  0
  138.3960   71.8010  221.6740 N   0  0  0  0  0  0  0  0  0  0  0  0
  138.7690   70.8450  220.6310 C   0  0  0  0  0  0  0  0  0  0  0  0
  137.6140   69.8930  220.6130 C   0  0  0  0  0  0  0  0  0  0  0  0
  136.5240   70.4770  221.4750 C   0  0  0  0  0  0  0  0  0  0  0  0
  137.3370   71.2440  222.4940 C   0  0  1  0  0  0  0  0  0  0  0  0
  137.8840   70.2580  223.4810 C   0  0  0  0  0  0  0  0  0  0  0  0
  137.1030   69.3820  223.9270 O   0  0  0  0  0  0  0  0  0  0  0  0
  139.2440   70.3470  223.8750 N   0  0  0  0  0  0  0  0  0  0  0  0
  139.8800   69.4600  224.8150 C   0  0  0  0  0  0  0  0  0  0  0  0
  140.4000   70.1590  226.0270 C   0  0  0  0  0  0  0  0  0  0  0  0
  140.6210   69.4350  227.2030 C   0  0  0  0  0  0  0  0  0  0  0  0
  141.0960   70.0550  228.3350 C   0  0  0  0  0  0  0  0  0  0  0  0
  141.3760   71.4060  228.3640 C   0  0  0  0  0  0  0  0  0  0  0  0
  141.1550   72.1130  227.2010 C   0  0  0  0  0  0  0  0  0  0  0  0
  140.6800   71.4990  226.0650 C   0  0  0  0  0  0  0  0  0  0  0  0
  138.9180   77.9090  222.3420 C   0  0  0  0  0  0  0  0  0  0  0  0
  138.2050   79.0180  222.7640 C   0  0  0  0  0  0  0  0  0  0  0  0
  138.8170   80.1600  223.2490 C   0  0  0  0  0  0  0  0  0  0  0  0
  140.2020   80.1500  223.2970 C   0  0  0  0  0  0  0  0  0  0  0  0
  140.8700   81.2740  223.7780 C   0  0  0  0  0  0  0  0  0  0  0  0
  142.2460   81.2500  223.8190 C   0  0  0  0  0  0  0  0  0  0  0  0
  142.9170   82.3320  224.2830 F   0  0  0  0  0  0  0  0  0  0  0  0
  142.9500   80.1400  223.3980 C   0  0  0  0  0  0  0  0  0  0  0  0
  142.3090   79.0220  222.9210 C   0  0  0  0  0  0  0  0  0  0  0  0
  140.9300   79.0390  222.8760 C   0  0  0  0  0  0  0  0  0  0  0  0
  140.2700   77.9440  222.4070 N   0  0  0  0  0  0  0  0  0  0  0  0
  139.9210   75.4360  222.1130 H   0  0  0  0  0  0  0  0  0  0  0  0
  137.2219   74.2804  221.6127 H   0  0  0  0  0  0  0  0  0  0  0  0
  138.3305   74.2517  220.2068 H   0  0  0  0  0  0  0  0  0  0  0  0
  138.8826   71.3462  219.6584 H   0  0  0  0  0  0  0  0  0  0  0  0
  139.7330   70.3511  220.8224 H   0  0  0  0  0  0  0  0  0  0  0  0
  137.2493   69.7661  219.5830 H   0  0  0  0  0  0  0  0  0  0  0  0
  137.9209   68.9083  220.9953 H   0  0  0  0  0  0  0  0  0  0  0  0
  135.8673   71.1445  220.8978 H   0  0  0  0  0  0  0  0  0  0  0  0
  135.8424   69.7308  221.9093 H   0  0  0  0  0  0  0  0  0  0  0  0
  136.7902   72.0101  223.0632 H   0  0  0  0  0  0  0  0  0  0  0  0
  139.8090   71.1270  223.4320 H   0  0  0  0  0  0  0  0  0  0  0  0
  139.1461   68.7057  225.1349 H   0  0  0  0  0  0  0  0  0  0  0  0
  140.7429   69.0080  224.3041 H   0  0  0  0  0  0  0  0  0  0  0  0
  140.4121   68.3552  227.2228 H   0  0  0  0  0  0  0  0  0  0  0  0
  141.2574   69.4566  229.2438 H   0  0  0  0  0  0  0  0  0  0  0  0
  141.7575   71.8957  229.2721 H   0  0  0  0  0  0  0  0  0  0  0  0
  141.3633   73.1929  227.1809 H   0  0  0  0  0  0  0  0  0  0  0  0
  140.5203   72.1029  225.1596 H   0  0  0  0  0  0  0  0  0  0  0  0
  137.1066   78.9900  222.7116 H   0  0  0  0  0  0  0  0  0  0  0  0
  138.2337   81.0320  223.5798 H   0  0  0  0  0  0  0  0  0  0  0  0
  140.3116   82.1591  224.1168 H   0  0  0  0  0  0  0  0  0  0  0  0
  144.0489   80.1505  223.4454 H   0  0  0  0  0  0  0  0  0  0  0  0
  142.8770   78.1417  222.5858 H   0  0  0  0  0  0  0  0  0  0  0  0
  1  2  2  0
  2  3  1  0
  3  4  1  0
  4  5  1  0
  5  6  2  0
  5  7  1  0
  7  8  1  0
  8  9  1  0
  9 10  1  0
 10 11  1  0
 11 12  1  0
 12 13  2  0
 12 14  1  0
 14 15  1  0
 15 16  1  0
 16 17  2  0
 17 18  1  0
 18 19  2  0
 19 20  1  0
 20 21  2  0
  2 22  1  0
 22 23  2  0
 23 24  1  0
 24 25  2  0
 25 26  1  0
 26 27  2  0
 27 28  1  0
 27 29  1  0
 29 30  2  0
 30 31  1  0
 31 32  2  0
 11  7  1  0
 21 16  1  0
 32 22  1  0
 31 25  1  0
  3 33  1  0
  4 34  1  0
  4 35  1  0
  8 36  1  0
  8 37  1  0
  9 38  1  0
  9 39  1  0
 10 40  1  0
 10 41  1  0
 11 42  1  1
 14 43  1  0
 15 44  1  0
 15 45  1  0
 17 46  1  0
 18 47  1  0
 19 48  1  0
 20 49  1  0
 21 50  1  0
 23 51  1  0
 24 52  1  0
 26 53  1  0
 29 54  1  0
 30 55  1  0
M  END
>  <smiles>  (1) 
O=C(NCC(=O)N1CCC[C@H]1C(=O)NCc1ccccc1)c1ccc2cc(F)ccc2n1

>  <score_type>  (1) 
oracle

>  <origin>  (1) 
autodockgpu

>  <m_score__min__energy>  (1) 
-8.7899999999999991

>  <m_primary>  (1) 
energy

>  <meeko>  (1) 
{"free_energy": -7.86, "intermolecular_energy": -9.95, "internal_energy": -2.84, "cluster_size": 5, "cluster_id": 4, "rank_in_cluster": 5}

>  <energy>  (1) 
-8.79

>  <cluster_rmsd>  (1) 
0.0

>  <rmsd>  (1) 
271.26

>  <cluster>  (1) 
1

$$$$

     RDKit          3D

 55 58  0  0  0  0  0  0  0  0999 V2000
  137.5320   70.1120  221.6450 O   0  0  0  0  0  0  0  0  0  0  0  0
  138.0550   70.8460  222.5090 C   0  0  0  0  0  0  0  0  0  0  0  0
  138.0530   72.2580  222.3350 N   0  0  0  0  0  0  0  0  0  0  0  0
  137.4420   72.8460  221.1580 C   0  0  0  0  0  0  0  0  0  0  0  0
  136.3510   73.7540  221.5930 C   0  0  0  0  0  0  0  0  0  0  0  0
  135.1370   73.3790  221.5620 O   0  0  0  0  0  0  0  0  0  0  0  0
  136.7000   75.0780  222.0500 N   0  0  0  0  0  0  0  0  0  0  0  0
  136.2020   75.7370  223.2580 C   0  0  0  0  0  0  0  0  0  0  0  0
  136.5350   77.1780  223.0210 C   0  0  0  0  0  0  0  0  0  0  0  0
  136.9910   77.3140  221.5910 C   0  0  0  0  0  0  0  0  0  0  0  0
  137.6180   75.9590  221.3530 C   0  0  1  0  0  0  0  0  0  0  0  0
  138.9660   75.9550  222.0070 C   0  0  0  0  0  0  0  0  0  0  0  0
  139.3880   74.8670  222.4720 O   0  0  0  0  0  0  0  0  0  0  0  0
  139.7080   77.1620  222.0820 N   0  0  0  0  0  0  0  0  0  0  0  0
  141.0100   77.2810  222.6870 C   0  0  0  0  0  0  0  0  0  0  0  0
  141.3530   78.6810  223.0770 C   0  0  0  0  0  0  0  0  0  0  0  0
  140.3370   79.5640  223.4550 C   0  0  0  0  0  0  0  0  0  0  0  0
  140.6250   80.8590  223.8160 C   0  0  0  0  0  0  0  0  0  0  0  0
  141.9170   81.3460  223.8220 C   0  0  0  0  0  0  0  0  0  0  0  0
  142.9130   80.4690  223.4480 C   0  0  0  0  0  0  0  0  0  0  0  0
  142.6320   79.1720  223.0860 C   0  0  0  0  0  0  0  0  0  0  0  0
  138.6930   70.3090  223.7290 C   0  0  0  0  0  0  0  0  0  0  0  0
  138.6720   68.9480  223.9820 C   0  0  0  0  0  0  0  0  0  0  0  0
  139.2530   68.3880  225.1060 C   0  0  0  0  0  0  0  0  0  0  0  0
  139.8690   69.2620  225.9880 C   0  0  0  0  0  0  0  0  0  0  0  0
  140.4700   68.7510  227.1360 C   0  0  0  0  0  0  0  0  0  0  0  0
  141.0780   69.6310  228.0030 C   0  0  0  0  0  0  0  0  0  0  0  0
  141.6690   69.1570  229.1260 F   0  0  0  0  0  0  0  0  0  0  0  0
  141.0940   70.9860  227.7440 C   0  0  0  0  0  0  0  0  0  0  0  0
  140.5070   71.5090  226.6170 C   0  0  0  0  0  0  0  0  0  0  0  0
  139.8950   70.6330  225.7430 C   0  0  0  0  0  0  0  0  0  0  0  0
  139.3060   71.1250  224.6180 N   0  0  0  0  0  0  0  0  0  0  0  0
  138.4890   72.8920  223.0490 H   0  0  0  0  0  0  0  0  0  0  0  0
  138.1958   73.4159  220.5949 H   0  0  0  0  0  0  0  0  0  0  0  0
  137.0361   72.0546  220.5107 H   0  0  0  0  0  0  0  0  0  0  0  0
  135.1165   75.5952  223.3662 H   0  0  0  0  0  0  0  0  0  0  0  0
  136.6448   75.3373  224.1822 H   0  0  0  0  0  0  0  0  0  0  0  0
  135.6446   77.8011  223.1911 H   0  0  0  0  0  0  0  0  0  0  0  0
  137.3256   77.5090  223.7105 H   0  0  0  0  0  0  0  0  0  0  0  0
  136.1433   77.4908  220.9126 H   0  0  0  0  0  0  0  0  0  0  0  0
  137.6676   78.1625  221.4115 H   0  0  0  0  0  0  0  0  0  0  0  0
  137.7629   75.6782  220.2994 H   0  0  0  0  0  0  0  0  0  0  0  0
  139.2520   78.0180  221.6550 H   0  0  0  0  0  0  0  0  0  0  0  0
  141.0353   76.6511  223.5884 H   0  0  0  0  0  0  0  0  0  0  0  0
  141.7487   76.9607  221.9374 H   0  0  0  0  0  0  0  0  0  0  0  0
  139.2929   79.2179  223.4637 H   0  0  0  0  0  0  0  0  0  0  0  0
  139.8016   81.5270  224.1088 H   0  0  0  0  0  0  0  0  0  0  0  0
  142.1409   82.3834  224.1112 H   0  0  0  0  0  0  0  0  0  0  0  0
  143.9572   80.8147  223.4389 H   0  0  0  0  0  0  0  0  0  0  0  0
  143.4597   78.5086  222.7948 H   0  0  0  0  0  0  0  0  0  0  0  0
  138.1731   68.2848  223.2600 H   0  0  0  0  0  0  0  0  0  0  0  0
  139.2273   67.3039  225.2903 H   0  0  0  0  0  0  0  0  0  0  0  0
  140.4591   67.6710  227.3448 H   0  0  0  0  0  0  0  0  0  0  0  0
  141.5880   71.6633  228.4561 H   0  0  0  0  0  0  0  0  0  0  0  0
  140.5242   72.5907  226.4177 H   0  0  0  0  0  0  0  0  0  0  0  0
  1  2  2  0
  2  3  1  0
  3  4  1  0
  4  5  1  0
  5  6  2  0
  5  7  1  0
  7  8  1  0
  8  9  1  0
  9 10  1  0
 10 11  1  0
 11 12  1  0
 12 13  2  0
 12 14  1  0
 14 15  1  0
 15 16  1  0
 16 17  2  0
 17 18  1  0
 18 19  2  0
 19 20  1  0
 20 21  2  0
  2 22  1  0
 22 23  2  0
 23 24  1  0
 24 25  2  0
 25 26  1  0
 26 27  2  0
 27 28  1  0
 27 29  1  0
 29 30  2  0
 30 31  1  0
 31 32  2  0
 11  7  1  0
 21 16  1  0
 32 22  1  0
 31 25  1  0
  3 33  1  0
  4 34  1  0
  4 35  1  0
  8 36  1  0
  8 37  1  0
  9 38  1  0
  9 39  1  0
 10 40  1  0
 10 41  1  0
 11 42  1  6
 14 43  1  0
 15 44  1  0
 15 45  1  0
 17 46  1  0
 18 47  1  0
 19 48  1  0
 20 49  1  0
 21 50  1  0
 23 51  1  0
 24 52  1  0
 26 53  1  0
 29 54  1  0
 30 55  1  0
M  END
>  <smiles>  (2) 
O=C(NCC(=O)N1CCC[C@H]1C(=O)NCc1ccccc1)c1ccc2cc(F)ccc2n1

>  <score_type>  (2) 
oracle

>  <origin>  (2) 
autodockgpu

>  <m_score__min__energy>  (2) 
-8.7899999999999991

>  <m_primary>  (2) 
energy

>  <meeko>  (2) 
{"free_energy": -8.44, "intermolecular_energy": -10.52, "internal_energy": -2.44, "cluster_size": 8, "cluster_id": 2, "rank_in_cluster": 1}

>  <energy>  (2) 
-8.75

>  <cluster_rmsd>  (2) 
0.07

>  <rmsd>  (2) 
271.26

>  <cluster>  (2) 
1

$$$$

     RDKit          3D

 55 58  0  0  0  0  0  0  0  0999 V2000
  138.0850   70.6100  221.7850 O   0  0  0  0  0  0  0  0  0  0  0  0
  138.7080   71.1200  222.7400 C   0  0  0  0  0  0  0  0  0  0  0  0
  139.0540   72.4990  222.7030 N   0  0  0  0  0  0  0  0  0  0  0  0
  138.6830   73.3140  221.5630 C   0  0  0  0  0  0  0  0  0  0  0  0
  138.8540   74.7440  221.9250 C   0  0  0  0  0  0  0  0  0  0  0  0
  139.9610   75.1750  222.3770 O   0  0  0  0  0  0  0  0  0  0  0  0
  137.7320   75.6340  221.7530 N   0  0  0  0  0  0  0  0  0  0  0  0
  136.4500   75.5600  222.4560 C   0  0  0  0  0  0  0  0  0  0  0  0
  135.5510   76.4140  221.6170 C   0  0  0  0  0  0  0  0  0  0  0  0
  136.2890   76.7450  220.3450 C   0  0  0  0  0  0  0  0  0  0  0  0
  137.7210   76.7550  220.8310 C   0  0  1  0  0  0  0  0  0  0  0  0
  137.9520   78.0460  221.5540 C   0  0  0  0  0  0  0  0  0  0  0  0
  137.4120   79.0810  221.0890 O   0  0  0  0  0  0  0  0  0  0  0  0
  138.7610   78.0590  222.7190 N   0  0  0  0  0  0  0  0  0  0  0  0
  139.0540   79.2370  223.4940 C   0  0  0  0  0  0  0  0  0  0  0  0
  140.4860   79.6530  223.4160 C   0  0  0  0  0  0  0  0  0  0  0  0
  140.8590   80.9360  223.8300 C   0  0  0  0  0  0  0  0  0  0  0  0
  142.1700   81.3450  223.7660 C   0  0  0  0  0  0  0  0  0  0  0  0
  143.1710   80.5180  223.2960 C   0  0  0  0  0  0  0  0  0  0  0  0
  142.7960   79.2550  222.8900 C   0  0  0  0  0  0  0  0  0  0  0  0
  141.4860   78.8390  222.9510 C   0  0  0  0  0  0  0  0  0  0  0  0
  139.1140   70.3430  223.9300 C   0  0  0  0  0  0  0  0  0  0  0  0
  138.8900   68.9780  223.9780 C   0  0  0  0  0  0  0  0  0  0  0  0
  139.2500   68.2000  225.0650 C   0  0  0  0  0  0  0  0  0  0  0  0
  139.8560   68.8550  226.1250 C   0  0  0  0  0  0  0  0  0  0  0  0
  140.2380   68.1200  227.2450 C   0  0  0  0  0  0  0  0  0  0  0  0
  140.8390   68.7850  228.2900 C   0  0  0  0  0  0  0  0  0  0  0  0
  141.2190   68.0900  229.3890 F   0  0  0  0  0  0  0  0  0  0  0  0
  141.0590   70.1460  228.2340 C   0  0  0  0  0  0  0  0  0  0  0  0
  140.6880   70.8880  227.1390 C   0  0  0  0  0  0  0  0  0  0  0  0
  140.0860   70.2300  226.0860 C   0  0  0  0  0  0  0  0  0  0  0  0
  139.7090   70.9420  224.9880 N   0  0  0  0  0  0  0  0  0  0  0  0
  139.5790   72.9460  223.4960 H   0  0  0  0  0  0  0  0  0  0  0  0
  139.3288   73.0690  220.7069 H   0  0  0  0  0  0  0  0  0  0  0  0
  137.6359   73.1194  221.2878 H   0  0  0  0  0  0  0  0  0  0  0  0
  136.0828   74.5240  222.4990 H   0  0  0  0  0  0  0  0  0  0  0  0
  136.5112   75.8951  223.5019 H   0  0  0  0  0  0  0  0  0  0  0  0
  134.6264   75.8665  221.3820 H   0  0  0  0  0  0  0  0  0  0  0  0
  135.2805   77.3340  222.1559 H   0  0  0  0  0  0  0  0  0  0  0  0
  136.1300   75.9759  219.5748 H   0  0  0  0  0  0  0  0  0  0  0  0
  135.9676   77.6822  219.8672 H   0  0  0  0  0  0  0  0  0  0  0  0
  138.4910   76.6735  220.0497 H   0  0  0  0  0  0  0  0  0  0  0  0
  139.1640   77.1260  223.0180 H   0  0  0  0  0  0  0  0  0  0  0  0
  138.4295   80.0632  223.1234 H   0  0  0  0  0  0  0  0  0  0  0  0
  138.8409   78.9967  224.5461 H   0  0  0  0  0  0  0  0  0  0  0  0
  140.0931   81.6270  224.2119 H   0  0  0  0  0  0  0  0  0  0  0  0
  142.4292   82.3609  224.0990 H   0  0  0  0  0  0  0  0  0  0  0  0
  144.2182   80.8512  223.2478 H   0  0  0  0  0  0  0  0  0  0  0  0
  143.5619   78.5638  222.5084 H   0  0  0  0  0  0  0  0  0  0  0  0
  141.2334   77.8220  222.6164 H   0  0  0  0  0  0  0  0  0  0  0  0
  138.4065   68.4918  223.1179 H   0  0  0  0  0  0  0  0  0  0  0  0
  139.0642   67.1160  225.0862 H   0  0  0  0  0  0  0  0  0  0  0  0
  140.0638   67.0350  227.2933 H   0  0  0  0  0  0  0  0  0  0  0  0
  141.5422   70.6481  229.0851 H   0  0  0  0  0  0  0  0  0  0  0  0
  140.8653   71.9730  227.1027 H   0  0  0  0  0  0  0  0  0  0  0  0
  1  2  2  0
  2  3  1  0
  3  4  1  0
  4  5  1  0
  5  6  2  0
  5  7  1  0
  7  8  1  0
  8  9  1  0
  9 10  1  0
 10 11  1  0
 11 12  1  0
 12 13  2  0
 12 14  1  0
 14 15  1  0
 15 16  1  0
 16 17  2  0
 17 18  1  0
 18 19  2  0
 19 20  1  0
 20 21  2  0
  2 22  1  0
 22 23  2  0
 23 24  1  0
 24 25  2  0
 25 26  1  0
 26 27  2  0
 27 28  1  0
 27 29  1  0
 29 30  2  0
 30 31  1  0
 31 32  2  0
 11  7  1  0
 21 16  1  0
 32 22  1  0
 31 25  1  0
  3 33  1  0
  4 34  1  0
  4 35  1  0
  8 36  1  0
  8 37  1  0
  9 38  1  0
  9 39  1  0
 10 40  1  0
 10 41  1  0
 11 42  1  6
 14 43  1  0
 15 44  1  0
 15 45  1  0
 17 46  1  0
 18 47  1  0
 19 48  1  0
 20 49  1  0
 21 50  1  0
 23 51  1  0
 24 52  1  0
 26 53  1  0
 29 54  1  0
 30 55  1  0
M  END
>  <smiles>  (3) 
O=C(NCC(=O)N1CCC[C@H]1C(=O)NCc1ccccc1)c1ccc2cc(F)ccc2n1

>  <score_type>  (3) 
oracle

>  <origin>  (3) 
autodockgpu

>  <m_score__min__energy>  (3) 
-8.7899999999999991

>  <m_primary>  (3) 
energy

>  <meeko>  (3) 
{"free_energy": -8.33, "intermolecular_energy": -10.42, "internal_energy": -2.69, "cluster_size": 8, "cluster_id": 2, "rank_in_cluster": 4}

>  <energy>  (3) 
-8.6

>  <cluster_rmsd>  (3) 
1.61

>  <rmsd>  (3) 
271.3

>  <cluster>  (3) 
1

$$$$

     RDKit          3D

 55 58  0  0  0  0  0  0  0  0999 V2000
  140.3400   74.2810  222.3290 O   0  0  0  0  0  0  0  0  0  0  0  0
  139.5650   75.1970  221.9840 C   0  0  0  0  0  0  0  0  0  0  0  0
  138.4030   74.8930  221.2230 N   0  0  0  0  0  0  0  0  0  0  0  0
  138.1140   73.5210  220.8490 C   0  0  0  0  0  0  0  0  0  0  0  0
  136.8730   73.0910  221.5420 C   0  0  0  0  0  0  0  0  0  0  0  0
  135.8850   73.8810  221.6620 O   0  0  0  0  0  0  0  0  0  0  0  0
  136.8150   71.7530  222.0790 N   0  0  0  0  0  0  0  0  0  0  0  0
  136.6940   70.5140  221.3080 C   0  0  0  0  0  0  0  0  0  0  0  0
  136.2620   69.5150  222.3360 C   0  0  0  0  0  0  0  0  0  0  0  0
  135.9250   70.2700  223.5960 C   0  0  0  0  0  0  0  0  0  0  0  0
  136.8700   71.4460  223.4950 C   0  0  1  0  0  0  0  0  0  0  0  0
  138.2360   70.9730  223.8900 C   0  0  0  0  0  0  0  0  0  0  0  0
  138.3440   69.8000  224.3280 O   0  0  0  0  0  0  0  0  0  0  0  0
  139.3430   71.8500  223.7600 N   0  0  0  0  0  0  0  0  0  0  0  0
  140.6980   71.5080  224.1070 C   0  0  0  0  0  0  0  0  0  0  0  0
  140.8470   71.0530  225.5220 C   0  0  0  0  0  0  0  0  0  0  0  0
  140.8830   69.6840  225.8100 C   0  0  0  0  0  0  0  0  0  0  0  0
  141.0160   69.2390  227.1030 C   0  0  0  0  0  0  0  0  0  0  0  0
  141.1210   70.1100  228.1690 C   0  0  0  0  0  0  0  0  0  0  0  0
  141.0850   71.4570  227.8770 C   0  0  0  0  0  0  0  0  0  0  0  0
  140.9520   71.9100  226.5850 C   0  0  0  0  0  0  0  0  0  0  0  0
  139.8020   76.6140  222.3320 C   0  0  0  0  0  0  0  0  0  0  0  0
  138.7490   77.4150  222.7390 C   0  0  0  0  0  0  0  0  0  0  0  0
  138.9120   78.7470  223.0780 C   0  0  0  0  0  0  0  0  0  0  0  0
  140.1970   79.2570  222.9930 C   0  0  0  0  0  0  0  0  0  0  0  0
  140.4170   80.5930  223.3230 C   0  0  0  0  0  0  0  0  0  0  0  0
  141.6990   81.0860  223.2330 C   0  0  0  0  0  0  0  0  0  0  0  0
  141.9370   82.3820  223.5500 F   0  0  0  0  0  0  0  0  0  0  0  0
  142.7430   80.2810  222.8270 C   0  0  0  0  0  0  0  0  0  0  0  0
  142.5460   78.9620  222.4970 C   0  0  0  0  0  0  0  0  0  0  0  0
  141.2640   78.4590  222.5850 C   0  0  0  0  0  0  0  0  0  0  0  0
  141.0410   77.1550  222.2630 N   0  0  0  0  0  0  0  0  0  0  0  0
  137.7400   75.6500  220.9210 H   0  0  0  0  0  0  0  0  0  0  0  0
  137.9716   73.4561  219.7602 H   0  0  0  0  0  0  0  0  0  0  0  0
  138.9510   72.8688  221.1390 H   0  0  0  0  0  0  0  0  0  0  0  0
  135.9394   70.6151  220.5141 H   0  0  0  0  0  0  0  0  0  0  0  0
  137.6251   70.2314  220.7950 H   0  0  0  0  0  0  0  0  0  0  0  0
  135.3767   68.9687  221.9786 H   0  0  0  0  0  0  0  0  0  0  0  0
  137.0642   68.7868  222.5263 H   0  0  0  0  0  0  0  0  0  0  0  0
  134.8745   70.5963  223.6017 H   0  0  0  0  0  0  0  0  0  0  0  0
  136.0343   69.6808  224.5184 H   0  0  0  0  0  0  0  0  0  0  0  0
  136.6260   72.3111  224.1291 H   0  0  0  0  0  0  0  0  0  0  0  0
  139.1310   72.8150  223.3780 H   0  0  0  0  0  0  0  0  0  0  0  0
  141.0353   70.6990  223.4424 H   0  0  0  0  0  0  0  0  0  0  0  0
  141.3044   72.4184  223.9912 H   0  0  0  0  0  0  0  0  0  0  0  0
  140.8038   68.9546  224.9904 H   0  0  0  0  0  0  0  0  0  0  0  0
  141.0396   68.1561  227.2947 H   0  0  0  0  0  0  0  0  0  0  0  0
  141.2282   69.7468  229.2017 H   0  0  0  0  0  0  0  0  0  0  0  0
  141.1645   72.1865  228.6964 H   0  0  0  0  0  0  0  0  0  0  0  0
  140.9293   72.9941  226.4000 H   0  0  0  0  0  0  0  0  0  0  0  0
  137.7423   76.9753  222.7953 H   0  0  0  0  0  0  0  0  0  0  0  0
  138.0636   79.3694  223.3988 H   0  0  0  0  0  0  0  0  0  0  0  0
  139.5867   81.2376  223.6473 H   0  0  0  0  0  0  0  0  0  0  0  0
  143.7563   80.7048  222.7661 H   0  0  0  0  0  0  0  0  0  0  0  0
  143.3837   78.3270  222.1729 H   0  0  0  0  0  0  0  0  0  0  0  0
  1  2  2  0
  2  3  1  0
  3  4  1  0
  4  5  1  0
  5  6  2  0
  5  7  1  0
  7  8  1  0
  8  9  1  0
  9 10  1  0
 10 11  1  0
 11 12  1  0
 12 13  2  0
 12 14  1  0
 14 15  1  0
 15 16  1  0
 16 17  2  0
 17 18  1  0
 18 19  2  0
 19 20  1  0
 20 21  2  0
  2 22  1  0
 22 23  2  0
 23 24  1  0
 24 25  2  0
 25 26  1  0
 26 27  2  0
 27 28  1  0
 27 29  1  0
 29 30  2  0
 30 31  1  0
 31 32  2  0
 11  7  1  0
 21 16  1  0
 32 22  1  0
 31 25  1  0
  3 33  1  0
  4 34  1  0
  4 35  1  0
  8 36  1  0
  8 37  1  0
  9 38  1  0
  9 39  1  0
 10 40  1  0
 10 41  1  0
 11 42  1  1
 14 43  1  0
 15 44  1  0
 15 45  1  0
 17 46  1  0
 18 47  1  0
 19 48  1  0
 20 49  1  0
 21 50  1  0
 23 51  1  0
 24 52  1  0
 26 53  1  0
 29 54  1  0
 30 55  1  0
M  END
>  <smiles>  (4) 
O=C(NCC(=O)N1CCC[C@H]1C(=O)NCc1ccccc1)c1ccc2cc(F)ccc2n1

>  <score_type>  (4) 
oracle

>  <origin>  (4) 
autodockgpu

>  <m_score__min__energy>  (4) 
-8.7899999999999991

>  <m_primary>  (4) 
energy

>  <meeko>  (4) 
{"free_energy": -8.26, "intermolecular_energy": -10.35, "internal_energy": -2.54, "cluster_size": 5, "cluster_id": 4, "rank_in_cluster": 3}

>  <energy>  (4) 
-8.34

>  <cluster_rmsd>  (4) 
0.6

>  <rmsd>  (4) 
271.14

>  <cluster>  (4) 
1

$$$$

     RDKit          3D

 55 58  0  0  0  0  0  0  0  0999 V2000
  137.5570   69.9570  222.1150 O   0  0  0  0  0  0  0  0  0  0  0  0
  138.2090   70.7340  222.8420 C   0  0  0  0  0  0  0  0  0  0  0  0
  138.3010   72.1120  222.5030 N   0  0  0  0  0  0  0  0  0  0  0  0
  137.6370   72.6170  221.3160 C   0  0  0  0  0  0  0  0  0  0  0  0
  136.5200   73.5010  221.7360 C   0  0  0  0  0  0  0  0  0  0  0  0
  135.3220   73.0770  221.7500 O   0  0  0  0  0  0  0  0  0  0  0  0
  136.8260   74.8550  222.1280 N   0  0  0  0  0  0  0  0  0  0  0  0
  136.3290   75.5480  223.3170 C   0  0  0  0  0  0  0  0  0  0  0  0
  136.5990   76.9880  223.0110 C   0  0  0  0  0  0  0  0  0  0  0  0
  137.0180   77.0780  221.5660 C   0  0  0  0  0  0  0  0  0  0  0  0
  137.6930   75.7390  221.3720 C   0  0  1  0  0  0  0  0  0  0  0  0
  139.0540   75.8170  221.9940 C   0  0  0  0  0  0  0  0  0  0  0  0
  139.5640   74.7510  222.4200 O   0  0  0  0  0  0  0  0  0  0  0  0
  139.7100   77.0720  222.0830 N   0  0  0  0  0  0  0  0  0  0  0  0
  141.0140   77.2700  222.6600 C   0  0  0  0  0  0  0  0  0  0  0  0
  141.2750   78.6860  223.0570 C   0  0  0  0  0  0  0  0  0  0  0  0
  142.5890   79.1650  223.0910 C   0  0  0  0  0  0  0  0  0  0  0  0
  142.8570   80.4630  223.4560 C   0  0  0  0  0  0  0  0  0  0  0  0
  141.8540   81.3470  223.8020 C   0  0  0  0  0  0  0  0  0  0  0  0
  140.5620   80.8670  223.7660 C   0  0  0  0  0  0  0  0  0  0  0  0
  140.2870   79.5690  223.4020 C   0  0  0  0  0  0  0  0  0  0  0  0
  138.9080   70.2820  224.0640 C   0  0  0  0  0  0  0  0  0  0  0  0
  138.9660   68.9340  224.3720 C   0  0  0  0  0  0  0  0  0  0  0  0
  139.6060   68.4530  225.5010 C   0  0  0  0  0  0  0  0  0  0  0  0
  140.2000   69.3940  226.3270 C   0  0  0  0  0  0  0  0  0  0  0  0
  140.8590   68.9640  227.4770 C   0  0  0  0  0  0  0  0  0  0  0  0
  141.4430   69.9100  228.2880 C   0  0  0  0  0  0  0  0  0  0  0  0
  142.0890   69.5150  229.4120 F   0  0  0  0  0  0  0  0  0  0  0  0
  141.3810   71.2520  227.9740 C   0  0  0  0  0  0  0  0  0  0  0  0
  140.7360   71.6950  226.8440 C   0  0  0  0  0  0  0  0  0  0  0  0
  140.1470   70.7530  226.0250 C   0  0  0  0  0  0  0  0  0  0  0  0
  139.5020   71.1660  224.9000 N   0  0  0  0  0  0  0  0  0  0  0  0
  138.8460   72.7820  223.1010 H   0  0  0  0  0  0  0  0  0  0  0  0
  138.3524   73.1885  220.7063 H   0  0  0  0  0  0  0  0  0  0  0  0
  137.2481   71.7792  220.7186 H   0  0  0  0  0  0  0  0  0  0  0  0
  135.2526   75.3694  223.4566 H   0  0  0  0  0  0  0  0  0  0  0  0
  136.8079   75.2073  224.2468 H   0  0  0  0  0  0  0  0  0  0  0  0
  135.6885   77.5831  223.1749 H   0  0  0  0  0  0  0  0  0  0  0  0
  137.3903   77.3797  223.6670 H   0  0  0  0  0  0  0  0  0  0  0  0
  136.1494   77.1917  220.9007 H   0  0  0  0  0  0  0  0  0  0  0  0
  137.6564   77.9432  221.3341 H   0  0  0  0  0  0  0  0  0  0  0  0
  137.8261   75.4172  220.3286 H   0  0  0  0  0  0  0  0  0  0  0  0
  139.1830   77.9030  221.6900 H   0  0  0  0  0  0  0  0  0  0  0  0
  141.1004   76.6350  223.5541 H   0  0  0  0  0  0  0  0  0  0  0  0
  141.7545   77.0053  221.8909 H   0  0  0  0  0  0  0  0  0  0  0  0
  143.4184   78.4944  222.8222 H   0  0  0  0  0  0  0  0  0  0  0  0
  143.9014   80.8078  223.4729 H   0  0  0  0  0  0  0  0  0  0  0  0
  142.0753   82.3846  224.0925 H   0  0  0  0  0  0  0  0  0  0  0  0
  139.7321   81.5372  224.0345 H   0  0  0  0  0  0  0  0  0  0  0  0
  139.2406   79.2300  223.3877 H   0  0  0  0  0  0  0  0  0  0  0  0
  138.4841   68.2160  223.6922 H   0  0  0  0  0  0  0  0  0  0  0  0
  139.6414   67.3779  225.7311 H   0  0  0  0  0  0  0  0  0  0  0  0
  140.9111   67.8948  227.7303 H   0  0  0  0  0  0  0  0  0  0  0  0
  141.8582   71.9835  228.6427 H   0  0  0  0  0  0  0  0  0  0  0  0
  140.6906   72.7666  226.6000 H   0  0  0  0  0  0  0  0  0  0  0  0
  1  2  2  0
  2  3  1  0
  3  4  1  0
  4  5  1  0
  5  6  2  0
  5  7  1  0
  7  8  1  0
  8  9  1  0
  9 10  1  0
 10 11  1  0
 11 12  1  0
 12 13  2  0
 12 14  1  0
 14 15  1  0
 15 16  1  0
 16 17  2  0
 17 18  1  0
 18 19  2  0
 19 20  1  0
 20 21  2  0
  2 22  1  0
 22 23  2  0
 23 24  1  0
 24 25  2  0
 25 26  1  0
 26 27  2  0
 27 28  1  0
 27 29  1  0
 29 30  2  0
 30 31  1  0
 31 32  2  0
 11  7  1  0
 21 16  1  0
 32 22  1  0
 31 25  1  0
  3 33  1  0
  4 34  1  0
  4 35  1  0
  8 36  1  0
  8 37  1  0
  9 38  1  0
  9 39  1  0
 10 40  1  0
 10 41  1  0
 11 42  1  6
 14 43  1  0
 15 44  1  0
 15 45  1  0
 17 46  1  0
 18 47  1  0
 19 48  1  0
 20 49  1  0
 21 50  1  0
 23 51  1  0
 24 52  1  0
 26 53  1  0
 29 54  1  0
 30 55  1  0
M  END
>  <smiles>  (5) 
O=C(NCC(=O)N1CCC[C@H]1C(=O)NCc1ccccc1)c1ccc2cc(F)ccc2n1

>  <score_type>  (5) 
oracle

>  <origin>  (5) 
autodockgpu

>  <m_score__min__energy>  (5) 
-8.7899999999999991

>  <m_primary>  (5) 
energy

>  <meeko>  (5) 
{"free_energy": -8.39, "intermolecular_energy": -10.48, "internal_energy": -2.47, "cluster_size": 8, "cluster_id": 2, "rank_in_cluster": 3}

>  <energy>  (5) 
-8.44

>  <cluster_rmsd>  (5) 
0.0

>  <rmsd>  (5) 
271.02

>  <cluster>  (5) 
2

$$$$

     RDKit          3D

 55 58  0  0  0  0  0  0  0  0999 V2000
  140.1620   73.7430  222.3300 O   0  0  0  0  0  0  0  0  0  0  0  0
  140.3500   72.5090  222.2810 C   0  0  0  0  0  0  0  0  0  0  0  0
  140.7460   71.9010  221.0580 N   0  0  0  0  0  0  0  0  0  0  0  0
  140.9360   72.7110  219.8690 C   0  0  0  0  0  0  0  0  0  0  0  0
  142.0400   73.6710  220.1190 C   0  0  0  0  0  0  0  0  0  0  0  0
  142.9840   73.3870  220.9200 O   0  0  0  0  0  0  0  0  0  0  0  0
  142.0160   74.9390  219.4300 N   0  0  0  0  0  0  0  0  0  0  0  0
  141.2810   75.2440  218.2020 C   0  0  0  0  0  0  0  0  0  0  0  0
  141.9280   76.5060  217.7220 C   0  0  0  0  0  0  0  0  0  0  0  0
  143.1580   76.7380  218.5620 C   0  0  0  0  0  0  0  0  0  0  0  0
  142.7380   76.1160  219.8750 C   0  0  1  0  0  0  0  0  0  0  0  0
  141.8210   77.0790  220.5670 C   0  0  0  0  0  0  0  0  0  0  0  0
  141.7620   78.2520  220.1220 O   0  0  0  0  0  0  0  0  0  0  0  0
  141.0660   76.6410  221.6850 N   0  0  0  0  0  0  0  0  0  0  0  0
  140.1560   77.4740  222.4290 C   0  0  0  0  0  0  0  0  0  0  0  0
  140.7470   78.7880  222.8230 C   0  0  0  0  0  0  0  0  0  0  0  0
  142.0070   78.8280  223.4300 C   0  0  0  0  0  0  0  0  0  0  0  0
  142.5710   80.0230  223.8050 C   0  0  0  0  0  0  0  0  0  0  0  0
  141.9310   81.2300  223.6030 C   0  0  0  0  0  0  0  0  0  0  0  0
  140.6900   81.1820  223.0050 C   0  0  0  0  0  0  0  0  0  0  0  0
  140.1180   79.9890  222.6270 C   0  0  0  0  0  0  0  0  0  0  0  0
  140.1740   71.6300  223.4560 C   0  0  0  0  0  0  0  0  0  0  0  0
  139.4860   70.4350  223.3330 C   0  0  0  0  0  0  0  0  0  0  0  0
  139.2910   69.5720  224.3970 C   0  0  0  0  0  0  0  0  0  0  0  0
  139.8220   69.9600  225.6160 C   0  0  0  0  0  0  0  0  0  0  0  0
  139.6550   69.1280  226.7220 C   0  0  0  0  0  0  0  0  0  0  0  0
  140.1880   69.5270  227.9270 C   0  0  0  0  0  0  0  0  0  0  0  0
  140.0380   68.7330  229.0150 F   0  0  0  0  0  0  0  0  0  0  0  0
  140.8730   70.7190  228.0420 C   0  0  0  0  0  0  0  0  0  0  0  0
  141.0480   71.5530  226.9630 C   0  0  0  0  0  0  0  0  0  0  0  0
  140.5160   71.1610  225.7510 C   0  0  0  0  0  0  0  0  0  0  0  0
  140.6760   71.9690  224.6670 N   0  0  0  0  0  0  0  0  0  0  0  0
  140.9080   70.8650  220.9960 H   0  0  0  0  0  0  0  0  0  0  0  0
  141.1937   72.0640  219.0176 H   0  0  0  0  0  0  0  0  0  0  0  0
  140.0101   73.2570  219.6354 H   0  0  0  0  0  0  0  0  0  0  0  0
  141.3943   74.4368  217.4634 H   0  0  0  0  0  0  0  0  0  0  0  0
  140.1976   75.3478  218.3616 H   0  0  0  0  0  0  0  0  0  0  0  0
  142.2107   76.4032  216.6639 H   0  0  0  0  0  0  0  0  0  0  0  0
  141.2334   77.3541  217.8131 H   0  0  0  0  0  0  0  0  0  0  0  0
  144.0372   76.2305  218.1384 H   0  0  0  0  0  0  0  0  0  0  0  0
  143.4605   77.7928  218.6382 H   0  0  0  0  0  0  0  0  0  0  0  0
  143.5533   75.8784  220.5742 H   0  0  0  0  0  0  0  0  0  0  0  0
  141.1970   75.6300  221.9710 H   0  0  0  0  0  0  0  0  0  0  0  0
  139.2679   77.6626  221.8080 H   0  0  0  0  0  0  0  0  0  0  0  0
  139.9065   76.9374  223.3562 H   0  0  0  0  0  0  0  0  0  0  0  0
  142.5531   77.8901  223.6093 H   0  0  0  0  0  0  0  0  0  0  0  0
  143.5628   80.0185  224.2808 H   0  0  0  0  0  0  0  0  0  0  0  0
  142.3893   82.1834  223.9047 H   0  0  0  0  0  0  0  0  0  0  0  0
  140.1439   82.1199  222.8257 H   0  0  0  0  0  0  0  0  0  0  0  0
  139.1254   80.0000  222.1530 H   0  0  0  0  0  0  0  0  0  0  0  0
  139.0776   70.1603  222.3492 H   0  0  0  0  0  0  0  0  0  0  0  0
  138.7421   68.6259  224.2806 H   0  0  0  0  0  0  0  0  0  0  0  0
  139.1107   68.1761  226.6341 H   0  0  0  0  0  0  0  0  0  0  0  0
  141.2883   71.0086  229.0185 H   0  0  0  0  0  0  0  0  0  0  0  0
  141.5946   72.5024  227.0624 H   0  0  0  0  0  0  0  0  0  0  0  0
  1  2  2  0
  2  3  1  0
  3  4  1  0
  4  5  1  0
  5  6  2  0
  5  7  1  0
  7  8  1  0
  8  9  1  0
  9 10  1  0
 10 11  1  0
 11 12  1  0
 12 13  2  0
 12 14  1  0
 14 15  1  0
 15 16  1  0
 16 17  2  0
 17 18  1  0
 18 19  2  0
 19 20  1  0
 20 21  2  0
  2 22  1  0
 22 23  2  0
 23 24  1  0
 24 25  2  0
 25 26  1  0
 26 27  2  0
 27 28  1  0
 27 29  1  0
 29 30  2  0
 30 31  1  0
 31 32  2  0
 11  7  1  0
 21 16  1  0
 32 22  1  0
 31 25  1  0
  3 33  1  0
  4 34  1  0
  4 35  1  0
  8 36  1  0
  8 37  1  0
  9 38  1  0
  9 39  1  0
 10 40  1  0
 10 41  1  0
 11 42  1  1
 14 43  1  0
 15 44  1  0
 15 45  1  0
 17 46  1  0
 18 47  1  0
 19 48  1  0
 20 49  1  0
 21 50  1  0
 23 51  1  0
 24 52  1  0
 26 53  1  0
 29 54  1  0
 30 55  1  0
M  END
>  <smiles>  (6) 
O=C(NCC(=O)N1CCC[C@H]1C(=O)NCc1ccccc1)c1ccc2cc(F)ccc2n1

>  <score_type>  (6) 
oracle

>  <origin>  (6) 
autodockgpu

>  <m_score__min__energy>  (6) 
-8.7899999999999991

>  <m_primary>  (6) 
energy

>  <meeko>  (6) 
{"free_energy": -8.79, "intermolecular_energy": -10.87, "internal_energy": -2.45, "cluster_size": 4, "cluster_id": 1, "rank_in_cluster": 1}

>  <energy>  (6) 
-8.42

>  <cluster_rmsd>  (6) 
1.33

>  <rmsd>  (6) 
271.26

>  <cluster>  (6) 
2

$$$$

     RDKit          3D

 55 58  0  0  0  0  0  0  0  0999 V2000
  138.3020   70.6400  221.6620 O   0  0  0  0  0  0  0  0  0  0  0  0
  138.8520   71.1410  222.6650 C   0  0  0  0  0  0  0  0  0  0  0  0
  139.1620   72.5290  222.6830 N   0  0  0  0  0  0  0  0  0  0  0  0
  138.8390   73.3630  221.5420 C   0  0  0  0  0  0  0  0  0  0  0  0
  138.9470   74.7870  221.9480 C   0  0  0  0  0  0  0  0  0  0  0  0
  140.0540   75.2730  222.3390 O   0  0  0  0  0  0  0  0  0  0  0  0
  137.7620   75.6090  221.8910 N   0  0  0  0  0  0  0  0  0  0  0  0
  136.5610   75.4590  222.7150 C   0  0  0  0  0  0  0  0  0  0  0  0
  135.5360   76.2570  221.9720 C   0  0  0  0  0  0  0  0  0  0  0  0
  136.1250   76.6300  220.6360 C   0  0  0  0  0  0  0  0  0  0  0  0
  137.5940   76.7260  220.9810 C   0  0  1  0  0  0  0  0  0  0  0  0
  137.8170   78.0300  221.6840 C   0  0  0  0  0  0  0  0  0  0  0  0
  137.1400   79.0190  221.3100 O   0  0  0  0  0  0  0  0  0  0  0  0
  138.7710   78.1030  222.7310 N   0  0  0  0  0  0  0  0  0  0  0  0
  139.0720   79.2990  223.4770 C   0  0  0  0  0  0  0  0  0  0  0  0
  140.5120   79.6860  223.4140 C   0  0  0  0  0  0  0  0  0  0  0  0
  140.9040   80.9650  223.8220 C   0  0  0  0  0  0  0  0  0  0  0  0
  142.2240   81.3490  223.7710 C   0  0  0  0  0  0  0  0  0  0  0  0
  143.2150   80.5000  223.3210 C   0  0  0  0  0  0  0  0  0  0  0  0
  142.8200   79.2410  222.9200 C   0  0  0  0  0  0  0  0  0  0  0  0
  141.5020   78.8510  222.9680 C   0  0  0  0  0  0  0  0  0  0  0  0
  139.2060   70.3450  223.8590 C   0  0  0  0  0  0  0  0  0  0  0  0
  138.9210   68.9900  223.9000 C   0  0  0  0  0  0  0  0  0  0  0  0
  139.2300   68.1950  224.9900 C   0  0  0  0  0  0  0  0  0  0  0  0
  139.8480   68.8210  226.0600 C   0  0  0  0  0  0  0  0  0  0  0  0
  140.1810   68.0670  227.1830 C   0  0  0  0  0  0  0  0  0  0  0  0
  140.7950   68.7030  228.2400 C   0  0  0  0  0  0  0  0  0  0  0  0
  141.1280   67.9890  229.3420 F   0  0  0  0  0  0  0  0  0  0  0  0
  141.0750   70.0530  228.1900 C   0  0  0  0  0  0  0  0  0  0  0  0
  140.7550   70.8130  227.0920 C   0  0  0  0  0  0  0  0  0  0  0  0
  140.1390   70.1840  226.0280 C   0  0  0  0  0  0  0  0  0  0  0  0
  139.8110   70.9140  224.9270 N   0  0  0  0  0  0  0  0  0  0  0  0
  139.6250   72.9690  223.5170 H   0  0  0  0  0  0  0  0  0  0  0  0
  139.5429   73.1574  220.7221 H   0  0  0  0  0  0  0  0  0  0  0  0
  137.8167   73.1478  221.1977 H   0  0  0  0  0  0  0  0  0  0  0  0
  136.2620   74.4030  222.7881 H   0  0  0  0  0  0  0  0  0  0  0  0
  136.7036   75.7977  223.7518 H   0  0  0  0  0  0  0  0  0  0  0  0
  134.6268   75.6553  221.8257 H   0  0  0  0  0  0  0  0  0  0  0  0
  135.2657   77.1599  222.5392 H   0  0  0  0  0  0  0  0  0  0  0  0
  135.9379   75.8519  219.8813 H   0  0  0  0  0  0  0  0  0  0  0  0
  135.7032   77.5456  220.1957 H   0  0  0  0  0  0  0  0  0  0  0  0
  138.2880   76.6898  220.1283 H   0  0  0  0  0  0  0  0  0  0  0  0
  139.2830   77.2040  222.9610 H   0  0  0  0  0  0  0  0  0  0  0  0
  138.4701   80.1251  223.0704 H   0  0  0  0  0  0  0  0  0  0  0  0
  138.8350   79.0942  224.5315 H   0  0  0  0  0  0  0  0  0  0  0  0
  140.1466   81.6735  224.1887 H   0  0  0  0  0  0  0  0  0  0  0  0
  142.4979   82.3627  224.0985 H   0  0  0  0  0  0  0  0  0  0  0  0
  144.2690   80.8126  223.2840 H   0  0  0  0  0  0  0  0  0  0  0  0
  143.5769   78.5321  222.5531 H   0  0  0  0  0  0  0  0  0  0  0  0
  141.2344   77.8364  222.6378 H   0  0  0  0  0  0  0  0  0  0  0  0
  138.4294   68.5273  223.0315 H   0  0  0  0  0  0  0  0  0  0  0  0
  138.9965   67.1202  225.0058 H   0  0  0  0  0  0  0  0  0  0  0  0
  139.9593   66.9904  227.2249 H   0  0  0  0  0  0  0  0  0  0  0  0
  141.5661   70.5318  229.0499 H   0  0  0  0  0  0  0  0  0  0  0  0
  140.9822   71.8888  227.0609 H   0  0  0  0  0  0  0  0  0  0  0  0
  1  2  2  0
  2  3  1  0
  3  4  1  0
  4  5  1  0
  5  6  2  0
  5  7  1  0
  7  8  1  0
  8  9  1  0
  9 10  1  0
 10 11  1  0
 11 12  1  0
 12 13  2  0
 12 14  1  0
 14 15  1  0
 15 16  1  0
 16 17  2  0
 17 18  1  0
 18 19  2  0
 19 20  1  0
 20 21  2  0
  2 22  1  0
 22 23  2  0
 23 24  1  0
 24 25  2  0
 25 26  1  0
 26 27  2  0
 27 28  1  0
 27 29  1  0
 29 30  2  0
 30 31  1  0
 31 32  2  0
 11  7  1  0
 21 16  1  0
 32 22  1  0
 31 25  1  0
  3 33  1  0
  4 34  1  0
  4 35  1  0
  8 36  1  0
  8 37  1  0
  9 38  1  0
  9 39  1  0
 10 40  1  0
 10 41  1  0
 11 42  1  6
 14 43  1  0
 15 44  1  0
 15 45  1  0
 17 46  1  0
 18 47  1  0
 19 48  1  0
 20 49  1  0
 21 50  1  0
 23 51  1  0
 24 52  1  0
 26 53  1  0
 29 54  1  0
 30 55  1  0
M  END
>  <smiles>  (7) 
O=C(NCC(=O)N1CCC[C@H]1C(=O)NCc1ccccc1)c1ccc2cc(F)ccc2n1

>  <score_type>  (7) 
oracle

>  <origin>  (7) 
autodockgpu

>  <m_score__min__energy>  (7) 
-8.7899999999999991

>  <m_primary>  (7) 
energy

>  <meeko>  (7) 
{"free_energy": -8.42, "intermolecular_energy": -10.51, "internal_energy": -2.63, "cluster_size": 8, "cluster_id": 2, "rank_in_cluster": 2}

>  <energy>  (7) 
-8.39

>  <cluster_rmsd>  (7) 
0.34

>  <rmsd>  (7) 
271.2

>  <cluster>  (7) 
2

$$$$

     RDKit          3D

 55 58  0  0  0  0  0  0  0  0999 V2000
  137.7240   70.3950  222.1180 O   0  0  0  0  0  0  0  0  0  0  0  0
  138.4820   70.8720  222.9890 C   0  0  0  0  0  0  0  0  0  0  0  0
  138.9060   72.2260  222.8950 N   0  0  0  0  0  0  0  0  0  0  0  0
  138.4580   73.0550  221.7920 C   0  0  0  0  0  0  0  0  0  0  0  0
  139.1950   74.3440  221.8370 C   0  0  0  0  0  0  0  0  0  0  0  0
  140.4480   74.3720  222.0450 O   0  0  0  0  0  0  0  0  0  0  0  0
  138.4540   75.5660  221.6390 N   0  0  0  0  0  0  0  0  0  0  0  0
  137.8040   76.3640  222.6810 C   0  0  0  0  0  0  0  0  0  0  0  0
  136.8640   77.2340  221.9060 C   0  0  0  0  0  0  0  0  0  0  0  0
  136.8420   76.7330  220.4840 C   0  0  0  0  0  0  0  0  0  0  0  0
  138.2440   76.1850  220.3440 C   0  0  1  0  0  0  0  0  0  0  0  0
  139.1730   77.3440  220.1480 C   0  0  0  0  0  0  0  0  0  0  0  0
  138.7200   78.3660  219.5730 O   0  0  0  0  0  0  0  0  0  0  0  0
  140.5120   77.2510  220.6060 N   0  0  0  0  0  0  0  0  0  0  0  0
  141.4930   78.2970  220.4710 C   0  0  0  0  0  0  0  0  0  0  0  0
  141.7800   79.0060  221.7540 C   0  0  0  0  0  0  0  0  0  0  0  0
  141.4840   78.3840  222.9710 C   0  0  0  0  0  0  0  0  0  0  0  0
  141.7340   79.0170  224.1660 C   0  0  0  0  0  0  0  0  0  0  0  0
  142.2850   80.2820  224.2220 C   0  0  0  0  0  0  0  0  0  0  0  0
  142.5730   80.8880  223.0180 C   0  0  0  0  0  0  0  0  0  0  0  0
  142.3250   80.2610  221.8180 C   0  0  0  0  0  0  0  0  0  0  0  0
  138.9730   70.0790  224.1360 C   0  0  0  0  0  0  0  0  0  0  0  0
  138.7940   68.7070  224.1590 C   0  0  0  0  0  0  0  0  0  0  0  0
  139.2330   67.9140  225.2050 C   0  0  0  0  0  0  0  0  0  0  0  0
  139.8710   68.5620  226.2500 C   0  0  0  0  0  0  0  0  0  0  0  0
  140.3330   67.8120  227.3300 C   0  0  0  0  0  0  0  0  0  0  0  0
  140.9650   68.4690  228.3610 C   0  0  0  0  0  0  0  0  0  0  0  0
  141.4230   67.7590  229.4210 F   0  0  0  0  0  0  0  0  0  0  0  0
  141.1390   69.8370  228.3300 C   0  0  0  0  0  0  0  0  0  0  0  0
  140.6910   70.5940  227.2750 C   0  0  0  0  0  0  0  0  0  0  0  0
  140.0560   69.9430  226.2370 C   0  0  0  0  0  0  0  0  0  0  0  0
  139.6020   70.6700  225.1790 N   0  0  0  0  0  0  0  0  0  0  0  0
  139.5440   72.6450  223.6160 H   0  0  0  0  0  0  0  0  0  0  0  0
  138.6615   72.5450  220.8389 H   0  0  0  0  0  0  0  0  0  0  0  0
  137.3765   73.2378  221.8749 H   0  0  0  0  0  0  0  0  0  0  0  0
  137.2566   75.7216  223.3865 H   0  0  0  0  0  0  0  0  0  0  0  0
  138.5157   76.9358  223.2946 H   0  0  0  0  0  0  0  0  0  0  0  0
  135.8549   77.1746  222.3397 H   0  0  0  0  0  0  0  0  0  0  0  0
  137.1937   78.2829  221.9397 H   0  0  0  0  0  0  0  0  0  0  0  0
  136.0859   75.9461  220.3455 H   0  0  0  0  0  0  0  0  0  0  0  0
  136.5803   77.4992  219.7394 H   0  0  0  0  0  0  0  0  0  0  0  0
  138.4033   75.4898  219.5065 H   0  0  0  0  0  0  0  0  0  0  0  0
  140.7820   76.3410  221.0760 H   0  0  0  0  0  0  0  0  0  0  0  0
  142.4286   77.8527  220.1006 H   0  0  0  0  0  0  0  0  0  0  0  0
  141.0827   79.0407  219.7721 H   0  0  0  0  0  0  0  0  0  0  0  0
  141.0454   77.3752  222.9725 H   0  0  0  0  0  0  0  0  0  0  0  0
  141.4877   78.5002  225.1053 H   0  0  0  0  0  0  0  0  0  0  0  0
  142.4845   80.7820  225.1813 H   0  0  0  0  0  0  0  0  0  0  0  0
  143.0115   81.8968  223.0161 H   0  0  0  0  0  0  0  0  0  0  0  0
  142.5720   80.7836  220.8821 H   0  0  0  0  0  0  0  0  0  0  0  0
  138.2822   68.2273  223.3117 H   0  0  0  0  0  0  0  0  0  0  0  0
  139.0829   66.8243  225.2064 H   0  0  0  0  0  0  0  0  0  0  0  0
  140.1958   66.7209  227.3577 H   0  0  0  0  0  0  0  0  0  0  0  0
  141.6482   70.3331  229.1694 H   0  0  0  0  0  0  0  0  0  0  0  0
  140.8338   71.6846  227.2580 H   0  0  0  0  0  0  0  0  0  0  0  0
  1  2  2  0
  2  3  1  0
  3  4  1  0
  4  5  1  0
  5  6  2  0
  5  7  1  0
  7  8  1  0
  8  9  1  0
  9 10  1  0
 10 11  1  0
 11 12  1  0
 12 13  2  0
 12 14  1  0
 14 15  1  0
 15 16  1  0
 16 17  2  0
 17 18  1  0
 18 19  2  0
 19 20  1  0
 20 21  2  0
  2 22  1  0
 22 23  2  0
 23 24  1  0
 24 25  2  0
 25 26  1  0
 26 27  2  0
 27 28  1  0
 27 29  1  0
 29 30  2  0
 30 31  1  0
 31 32  2  0
 11  7  1  0
 21 16  1  0
 32 22  1  0
 31 25  1  0
  3 33  1  0
  4 34  1  0
  4 35  1  0
  8 36  1  0
  8 37  1  0
  9 38  1  0
  9 39  1  0
 10 40  1  0
 10 41  1  0
 11 42  1  6
 14 43  1  0
 15 44  1  0
 15 45  1  0
 17 46  1  0
 18 47  1  0
 19 48  1  0
 20 49  1  0
 21 50  1  0
 23 51  1  0
 24 52  1  0
 26 53  1  0
 29 54  1  0
 30 55  1  0
M  END
>  <smiles>  (8) 
O=C(NCC(=O)N1CCC[C@H]1C(=O)NCc1ccccc1)c1ccc2cc(F)ccc2n1

>  <score_type>  (8) 
oracle

>  <origin>  (8) 
autodockgpu

>  <m_score__min__energy>  (8) 
-8.7899999999999991

>  <m_primary>  (8) 
energy

>  <meeko>  (8) 
{"free_energy": -8.31, "intermolecular_energy": -10.4, "internal_energy": -2.79, "cluster_size": 8, "cluster_id": 2, "rank_in_cluster": 5}

>  <energy>  (8) 
-8.33

>  <cluster_rmsd>  (8) 
1.32

>  <rmsd>  (8) 
271.23

>  <cluster>  (8) 
2

$$$$

     RDKit          3D

 55 58  0  0  0  0  0  0  0  0999 V2000
  140.0030   73.8950  222.2910 O   0  0  0  0  0  0  0  0  0  0  0  0
  139.5750   74.8820  221.6580 C   0  0  0  0  0  0  0  0  0  0  0  0
  138.4330   74.7480  220.8220 N   0  0  0  0  0  0  0  0  0  0  0  0
  137.7610   73.4680  220.7050 C   0  0  0  0  0  0  0  0  0  0  0  0
  136.9640   73.2340  221.9360 C   0  0  0  0  0  0  0  0  0  0  0  0
  136.4350   74.2030  222.5650 O   0  0  0  0  0  0  0  0  0  0  0  0
  136.8050   71.8790  222.4040 N   0  0  0  0  0  0  0  0  0  0  0  0
  136.6070   70.6910  221.5710 C   0  0  0  0  0  0  0  0  0  0  0  0
  136.0930   69.6750  222.5420 C   0  0  0  0  0  0  0  0  0  0  0  0
  135.7920   70.3890  223.8360 C   0  0  0  0  0  0  0  0  0  0  0  0
  136.8190   71.4990  223.8040 C   0  0  1  0  0  0  0  0  0  0  0  0
  138.1430   70.9110  224.1870 C   0  0  0  0  0  0  0  0  0  0  0  0
  138.1440   69.7770  224.7290 O   0  0  0  0  0  0  0  0  0  0  0  0
  139.3310   71.6420  223.9330 N   0  0  0  0  0  0  0  0  0  0  0  0
  140.6570   71.1810  224.2580 C   0  0  0  0  0  0  0  0  0  0  0  0
  140.7980   70.7450  225.6790 C   0  0  0  0  0  0  0  0  0  0  0  0
  140.8460   69.3810  225.9850 C   0  0  0  0  0  0  0  0  0  0  0  0
  140.9720   68.9540  227.2850 C   0  0  0  0  0  0  0  0  0  0  0  0
  141.0570   69.8390  228.3410 C   0  0  0  0  0  0  0  0  0  0  0  0
  141.0080   71.1820  228.0320 C   0  0  0  0  0  0  0  0  0  0  0  0
  140.8820   71.6170  226.7320 C   0  0  0  0  0  0  0  0  0  0  0  0
  140.2140   76.2130  221.7350 C   0  0  0  0  0  0  0  0  0  0  0  0
  141.2160   76.5550  220.8420 C   0  0  0  0  0  0  0  0  0  0  0  0
  141.8490   77.7850  220.8660 C   0  0  0  0  0  0  0  0  0  0  0  0
  141.4320   78.6800  221.8380 C   0  0  0  0  0  0  0  0  0  0  0  0
  142.0360   79.9340  221.9060 C   0  0  0  0  0  0  0  0  0  0  0  0
  141.6110   80.8130  222.8780 C   0  0  0  0  0  0  0  0  0  0  0  0
  142.1840   82.0380  222.9630 F   0  0  0  0  0  0  0  0  0  0  0  0
  140.6120   80.4640  223.7630 C   0  0  0  0  0  0  0  0  0  0  0  0
  140.0050   79.2330  223.7110 C   0  0  0  0  0  0  0  0  0  0  0  0
  140.4240   78.3460  222.7410 C   0  0  0  0  0  0  0  0  0  0  0  0
  139.8390   77.1190  222.6680 N   0  0  0  0  0  0  0  0  0  0  0  0
  138.0590   75.5670  220.2810 H   0  0  0  0  0  0  0  0  0  0  0  0
  137.0952   73.4782  219.8294 H   0  0  0  0  0  0  0  0  0  0  0  0
  138.5029   72.6654  220.5808 H   0  0  0  0  0  0  0  0  0  0  0  0
  135.8716   70.8845  220.7762 H   0  0  0  0  0  0  0  0  0  0  0  0
  137.5229   70.3690  221.0538 H   0  0  0  0  0  0  0  0  0  0  0  0
  135.1768   69.2105  222.1485 H   0  0  0  0  0  0  0  0  0  0  0  0
  136.8398   68.8836  222.7032 H   0  0  0  0  0  0  0  0  0  0  0  0
  134.7671   70.7882  223.8473 H   0  0  0  0  0  0  0  0  0  0  0  0
  135.8467   69.7485  224.7287 H   0  0  0  0  0  0  0  0  0  0  0  0
  136.6279   72.3464  224.4788 H   0  0  0  0  0  0  0  0  0  0  0  0
  139.2080   72.5870  223.4710 H   0  0  0  0  0  0  0  0  0  0  0  0
  140.9005   70.3295  223.6056 H   0  0  0  0  0  0  0  0  0  0  0  0
  141.3428   72.0277  224.1070 H   0  0  0  0  0  0  0  0  0  0  0  0
  140.7820   68.6403  225.1743 H   0  0  0  0  0  0  0  0  0  0  0  0
  141.0062   67.8739  227.4905 H   0  0  0  0  0  0  0  0  0  0  0  0
  141.1589   69.4897  229.3791 H   0  0  0  0  0  0  0  0  0  0  0  0
  141.0710   71.9227  228.8428 H   0  0  0  0  0  0  0  0  0  0  0  0
  140.8477   72.6982  226.5327 H   0  0  0  0  0  0  0  0  0  0  0  0
  141.5207   75.8192  220.0833 H   0  0  0  0  0  0  0  0  0  0  0  0
  142.6436   78.0396  220.1492 H   0  0  0  0  0  0  0  0  0  0  0  0
  142.8323   80.2151  221.2011 H   0  0  0  0  0  0  0  0  0  0  0  0
  140.2943   81.1880  224.5277 H   0  0  0  0  0  0  0  0  0  0  0  0
  139.2094   78.9627  224.4209 H   0  0  0  0  0  0  0  0  0  0  0  0
  1  2  2  0
  2  3  1  0
  3  4  1  0
  4  5  1  0
  5  6  2  0
  5  7  1  0
  7  8  1  0
  8  9  1  0
  9 10  1  0
 10 11  1  0
 11 12  1  0
 12 13  2  0
 12 14  1  0
 14 15  1  0
 15 16  1  0
 16 17  2  0
 17 18  1  0
 18 19  2  0
 19 20  1  0
 20 21  2  0
  2 22  1  0
 22 23  2  0
 23 24  1  0
 24 25  2  0
 25 26  1  0
 26 27  2  0
 27 28  1  0
 27 29  1  0
 29 30  2  0
 30 31  1  0
 31 32  2  0
 11  7  1  0
 21 16  1  0
 32 22  1  0
 31 25  1  0
  3 33  1  0
  4 34  1  0
  4 35  1  0
  8 36  1  0
  8 37  1  0
  9 38  1  0
  9 39  1  0
 10 40  1  0
 10 41  1  0
 11 42  1  1
 14 43  1  0
 15 44  1  0
 15 45  1  0
 17 46  1  0
 18 47  1  0
 19 48  1  0
 20 49  1  0
 21 50  1  0
 23 51  1  0
 24 52  1  0
 26 53  1  0
 29 54  1  0
 30 55  1  0
M  END
>  <smiles>  (9) 
O=C(NCC(=O)N1CCC[C@H]1C(=O)NCc1ccccc1)c1ccc2cc(F)ccc2n1

>  <score_type>  (9) 
oracle

>  <origin>  (9) 
autodockgpu

>  <m_score__min__energy>  (9) 
-8.7899999999999991

>  <m_primary>  (9) 
energy

>  <meeko>  (9) 
{"free_energy": -8.29, "intermolecular_energy": -10.38, "internal_energy": -2.55, "cluster_size": 5, "cluster_id": 4, "rank_in_cluster": 2}

>  <energy>  (9) 
-8.31

>  <cluster_rmsd>  (9) 
1.48

>  <rmsd>  (9) 
271.11

>  <cluster>  (9) 
2

$$$$

     RDKit          3D

 55 58  0  0  0  0  0  0  0  0999 V2000
  141.2580   71.5920  222.0030 O   0  0  0  0  0  0  0  0  0  0  0  0
  140.3800   71.7520  222.8760 C   0  0  0  0  0  0  0  0  0  0  0  0
  139.2240   72.5260  222.5840 N   0  0  0  0  0  0  0  0  0  0  0  0
  139.0610   73.1290  221.2750 C   0  0  0  0  0  0  0  0  0  0  0  0
  139.8980   74.3530  221.2070 C   0  0  0  0  0  0  0  0  0  0  0  0
  139.7520   75.2920  222.0510 O   0  0  0  0  0  0  0  0  0  0  0  0
  140.8820   74.4540  220.1570 N   0  0  0  0  0  0  0  0  0  0  0  0
  140.6440   74.2680  218.7250 C   0  0  0  0  0  0  0  0  0  0  0  0
  142.0210   74.0660  218.1740 C   0  0  0  0  0  0  0  0  0  0  0  0
  142.9630   73.9060  219.3400 C   0  0  0  0  0  0  0  0  0  0  0  0
  142.2820   74.7600  220.3860 C   0  0  1  0  0  0  0  0  0  0  0  0
  142.5760   76.1950  220.0690 C   0  0  0  0  0  0  0  0  0  0  0  0
  143.6750   76.4600  219.5230 O   0  0  0  0  0  0  0  0  0  0  0  0
  141.6200   77.1910  220.3940 N   0  0  0  0  0  0  0  0  0  0  0  0
  141.7920   78.5990  220.1400 C   0  0  0  0  0  0  0  0  0  0  0  0
  141.8530   79.4200  221.3860 C   0  0  0  0  0  0  0  0  0  0  0  0
  141.9010   78.7860  222.6320 C   0  0  0  0  0  0  0  0  0  0  0  0
  141.9540   79.5180  223.7940 C   0  0  0  0  0  0  0  0  0  0  0  0
  141.9650   80.8990  223.7880 C   0  0  0  0  0  0  0  0  0  0  0  0
  141.9180   81.5160  222.5560 C   0  0  0  0  0  0  0  0  0  0  0  0
  141.8640   80.7890  221.3890 C   0  0  0  0  0  0  0  0  0  0  0  0
  140.4870   71.1640  224.2280 C   0  0  0  0  0  0  0  0  0  0  0  0
  141.0590   71.8920  225.2580 C   0  0  0  0  0  0  0  0  0  0  0  0
  141.1850   71.3950  226.5430 C   0  0  0  0  0  0  0  0  0  0  0  0
  140.7070   70.1130  226.7630 C   0  0  0  0  0  0  0  0  0  0  0  0
  140.8090   69.5630  228.0390 C   0  0  0  0  0  0  0  0  0  0  0  0
  140.3290   68.2880  228.2430 C   0  0  0  0  0  0  0  0  0  0  0  0
  140.4180   67.7340  229.4760 F   0  0  0  0  0  0  0  0  0  0  0  0
  139.7610   67.5700  227.2110 C   0  0  0  0  0  0  0  0  0  0  0  0
  139.6520   68.0950  225.9460 C   0  0  0  0  0  0  0  0  0  0  0  0
  140.1300   69.3720  225.7330 C   0  0  0  0  0  0  0  0  0  0  0  0
  140.0340   69.9160  224.4890 N   0  0  0  0  0  0  0  0  0  0  0  0
  138.4750   72.6740  223.3060 H   0  0  0  0  0  0  0  0  0  0  0  0
  139.3802   72.4188  220.4980 H   0  0  0  0  0  0  0  0  0  0  0  0
  138.0046   73.3879  221.1106 H   0  0  0  0  0  0  0  0  0  0  0  0
  140.0122   73.3865  218.5412 H   0  0  0  0  0  0  0  0  0  0  0  0
  140.1133   75.1130  218.2621 H   0  0  0  0  0  0  0  0  0  0  0  0
  142.0446   73.1627  217.5467 H   0  0  0  0  0  0  0  0  0  0  0  0
  142.3176   74.9252  217.5545 H   0  0  0  0  0  0  0  0  0  0  0  0
  143.0336   72.8560  219.6602 H   0  0  0  0  0  0  0  0  0  0  0  0
  144.0017   74.1975  219.1250 H   0  0  0  0  0  0  0  0  0  0  0  0
  142.5939   74.5817  221.4257 H   0  0  0  0  0  0  0  0  0  0  0  0
  140.7270   76.8510  220.8530 H   0  0  0  0  0  0  0  0  0  0  0  0
  142.7290   78.7413  219.5817 H   0  0  0  0  0  0  0  0  0  0  0  0
  140.9146   78.9371  219.5692 H   0  0  0  0  0  0  0  0  0  0  0  0
  141.8963   77.6872  222.6824 H   0  0  0  0  0  0  0  0  0  0  0  0
  141.9887   78.9882  224.7574 H   0  0  0  0  0  0  0  0  0  0  0  0
  142.0091   81.4790  224.7216 H   0  0  0  0  0  0  0  0  0  0  0  0
  141.9238   82.6148  222.5048 H   0  0  0  0  0  0  0  0  0  0  0  0
  141.8286   81.3244  220.4287 H   0  0  0  0  0  0  0  0  0  0  0  0
  141.4280   72.9063  225.0458 H   0  0  0  0  0  0  0  0  0  0  0  0
  141.6416   71.9876  227.3494 H   0  0  0  0  0  0  0  0  0  0  0  0
  141.2619   70.1331  228.8636 H   0  0  0  0  0  0  0  0  0  0  0  0
  139.3868   66.5540  227.4053 H   0  0  0  0  0  0  0  0  0  0  0  0
  139.1979   67.5156  225.1286 H   0  0  0  0  0  0  0  0  0  0  0  0
  1  2  2  0
  2  3  1  0
  3  4  1  0
  4  5  1  0
  5  6  2  0
  5  7  1  0
  7  8  1  0
  8  9  1  0
  9 10  1  0
 10 11  1  0
 11 12  1  0
 12 13  2  0
 12 14  1  0
 14 15  1  0
 15 16  1  0
 16 17  2  0
 17 18  1  0
 18 19  2  0
 19 20  1  0
 20 21  2  0
  2 22  1  0
 22 23  2  0
 23 24  1  0
 24 25  2  0
 25 26  1  0
 26 27  2  0
 27 28  1  0
 27 29  1  0
 29 30  2  0
 30 31  1  0
 31 32  2  0
 11  7  1  0
 21 16  1  0
 32 22  1  0
 31 25  1  0
  3 33  1  0
  4 34  1  0
  4 35  1  0
  8 36  1  0
  8 37  1  0
  9 38  1  0
  9 39  1  0
 10 40  1  0
 10 41  1  0
 11 42  1  1
 14 43  1  0
 15 44  1  0
 15 45  1  0
 17 46  1  0
 18 47  1  0
 19 48  1  0
 20 49  1  0
 21 50  1  0
 23 51  1  0
 24 52  1  0
 26 53  1  0
 29 54  1  0
 30 55  1  0
M  END
>  <smiles>  (10) 
O=C(NCC(=O)N1CCC[C@H]1C(=O)NCc1ccccc1)c1ccc2cc(F)ccc2n1

>  <score_type>  (10) 
oracle

>  <origin>  (10) 
autodockgpu

>  <m_score__min__energy>  (10) 
-8.7899999999999991

>  <m_primary>  (10) 
energy

>  <meeko>  (10) 
{"free_energy": -8.6, "intermolecular_energy": -10.69, "internal_energy": -2.41, "cluster_size": 4, "cluster_id": 1, "rank_in_cluster": 3}

>  <energy>  (10) 
-8.12

>  <cluster_rmsd>  (10) 
1.56

>  <rmsd>  (10) 
270.97

>  <cluster>  (10) 
2

$$$$

     RDKit          3D

 55 58  0  0  0  0  0  0  0  0999 V2000
  137.7850   70.3850  222.0190 O   0  0  0  0  0  0  0  0  0  0  0  0
  138.5220   70.8850  222.8950 C   0  0  0  0  0  0  0  0  0  0  0  0
  138.9310   72.2430  222.7860 N   0  0  0  0  0  0  0  0  0  0  0  0
  138.4930   73.0490  221.6620 C   0  0  0  0  0  0  0  0  0  0  0  0
  139.1820   74.3630  221.7220 C   0  0  0  0  0  0  0  0  0  0  0  0
  140.2960   74.4890  222.3190 O   0  0  0  0  0  0  0  0  0  0  0  0
  138.5550   75.4960  221.0860 N   0  0  0  0  0  0  0  0  0  0  0  0
  137.6660   76.4670  221.7270 C   0  0  0  0  0  0  0  0  0  0  0  0
  136.9970   77.1340  220.5660 C   0  0  0  0  0  0  0  0  0  0  0  0
  137.3500   76.3550  219.3240 C   0  0  0  0  0  0  0  0  0  0  0  0
  138.7230   75.8340  219.6860 C   0  0  1  0  0  0  0  0  0  0  0  0
  139.7000   76.9580  219.5180 C   0  0  0  0  0  0  0  0  0  0  0  0
  139.4920   77.7800  218.5920 O   0  0  0  0  0  0  0  0  0  0  0  0
  140.8100   77.0530  220.3960 N   0  0  0  0  0  0  0  0  0  0  0  0
  141.8130   78.0850  220.3310 C   0  0  0  0  0  0  0  0  0  0  0  0
  141.8240   78.9730  221.5310 C   0  0  0  0  0  0  0  0  0  0  0  0
  141.4570   78.4580  222.7790 C   0  0  0  0  0  0  0  0  0  0  0  0
  141.4550   79.2540  223.8990 C   0  0  0  0  0  0  0  0  0  0  0  0
  141.8140   80.5870  223.8490 C   0  0  0  0  0  0  0  0  0  0  0  0
  142.1750   81.0880  222.6160 C   0  0  0  0  0  0  0  0  0  0  0  0
  142.1780   80.2960  221.4900 C   0  0  0  0  0  0  0  0  0  0  0  0
  139.0010   70.1180  224.0640 C   0  0  0  0  0  0  0  0  0  0  0  0
  138.8350   68.7440  224.1090 C   0  0  0  0  0  0  0  0  0  0  0  0
  139.2640   67.9750  225.1760 C   0  0  0  0  0  0  0  0  0  0  0  0
  139.8790   68.6470  226.2190 C   0  0  0  0  0  0  0  0  0  0  0  0
  140.3300   67.9200  227.3190 C   0  0  0  0  0  0  0  0  0  0  0  0
  140.9390   68.6020  228.3490 C   0  0  0  0  0  0  0  0  0  0  0  0
  141.3870   67.9150  229.4280 F   0  0  0  0  0  0  0  0  0  0  0  0
  141.1010   69.9710  228.2960 C   0  0  0  0  0  0  0  0  0  0  0  0
  140.6630   70.7050  227.2200 C   0  0  0  0  0  0  0  0  0  0  0  0
  140.0510   70.0300  226.1840 C   0  0  0  0  0  0  0  0  0  0  0  0
  139.6080   70.7330  225.1060 N   0  0  0  0  0  0  0  0  0  0  0  0
  139.5510   72.6810  223.5120 H   0  0  0  0  0  0  0  0  0  0  0  0
  138.7471   72.5404  220.7203 H   0  0  0  0  0  0  0  0  0  0  0  0
  137.4036   73.1944  221.7067 H   0  0  0  0  0  0  0  0  0  0  0  0
  136.9299   75.9633  222.3708 H   0  0  0  0  0  0  0  0  0  0  0  0
  138.1975   77.1722  222.3829 H   0  0  0  0  0  0  0  0  0  0  0  0
  135.9066   77.1337  220.7111 H   0  0  0  0  0  0  0  0  0  0  0  0
  137.3333   78.1774  220.4749 H   0  0  0  0  0  0  0  0  0  0  0  0
  136.6403   75.5332  219.1480 H   0  0  0  0  0  0  0  0  0  0  0  0
  137.3208   76.9456  218.3965 H   0  0  0  0  0  0  0  0  0  0  0  0
  139.0877   74.9890  219.0836 H   0  0  0  0  0  0  0  0  0  0  0  0
  140.8830   76.3030  221.1410 H   0  0  0  0  0  0  0  0  0  0  0  0
  142.7999   77.6077  220.2406 H   0  0  0  0  0  0  0  0  0  0  0  0
  141.5766   78.7153  219.4610 H   0  0  0  0  0  0  0  0  0  0  0  0
  141.1659   77.4007  222.8648 H   0  0  0  0  0  0  0  0  0  0  0  0
  141.1588   78.8169  224.8640 H   0  0  0  0  0  0  0  0  0  0  0  0
  141.8120   81.2186  224.7496 H   0  0  0  0  0  0  0  0  0  0  0  0
  142.4674   82.1450  222.5302 H   0  0  0  0  0  0  0  0  0  0  0  0
  142.4737   80.7390  220.5276 H   0  0  0  0  0  0  0  0  0  0  0  0
  138.3422   68.2438  223.2623 H   0  0  0  0  0  0  0  0  0  0  0  0
  139.1236   66.8842  225.1949 H   0  0  0  0  0  0  0  0  0  0  0  0
  140.2027   66.8283  227.3636 H   0  0  0  0  0  0  0  0  0  0  0  0
  141.5921   70.4869  229.1343 H   0  0  0  0  0  0  0  0  0  0  0  0
  140.7961   71.7964  227.1858 H   0  0  0  0  0  0  0  0  0  0  0  0
  1  2  2  0
  2  3  1  0
  3  4  1  0
  4  5  1  0
  5  6  2  0
  5  7  1  0
  7  8  1  0
  8  9  1  0
  9 10  1  0
 10 11  1  0
 11 12  1  0
 12 13  2  0
 12 14  1  0
 14 15  1  0
 15 16  1  0
 16 17  2  0
 17 18  1  0
 18 19  2  0
 19 20  1  0
 20 21  2  0
  2 22  1  0
 22 23  2  0
 23 24  1  0
 24 25  2  0
 25 26  1  0
 26 27  2  0
 27 28  1  0
 27 29  1  0
 29 30  2  0
 30 31  1  0
 31 32  2  0
 11  7  1  0
 21 16  1  0
 32 22  1  0
 31 25  1  0
  3 33  1  0
  4 34  1  0
  4 35  1  0
  8 36  1  0
  8 37  1  0
  9 38  1  0
  9 39  1  0
 10 40  1  0
 10 41  1  0
 11 42  1  6
 14 43  1  0
 15 44  1  0
 15 45  1  0
 17 46  1  0
 18 47  1  0
 19 48  1  0
 20 49  1  0
 21 50  1  0
 23 51  1  0
 24 52  1  0
 26 53  1  0
 29 54  1  0
 30 55  1  0
M  END
>  <smiles>  (11) 
O=C(NCC(=O)N1CCC[C@H]1C(=O)NCc1ccccc1)c1ccc2cc(F)ccc2n1

>  <score_type>  (11) 
oracle

>  <origin>  (11) 
autodockgpu

>  <m_score__min__energy>  (11) 
-8.7899999999999991

>  <m_primary>  (11) 
energy

>  <meeko>  (11) 
{"free_energy": -8.09, "intermolecular_energy": -10.18, "internal_energy": -2.97, "cluster_size": 8, "cluster_id": 2, "rank_in_cluster": 7}

>  <energy>  (11) 
-8.09

>  <cluster_rmsd>  (11) 
1.6

>  <rmsd>  (11) 
270.91

>  <cluster>  (11) 
2

$$$$

     RDKit          3D

 55 58  0  0  0  0  0  0  0  0999 V2000
  138.5000   75.3200  221.6880 O   0  0  0  0  0  0  0  0  0  0  0  0
  139.6780   75.7190  221.7960 C   0  0  0  0  0  0  0  0  0  0  0  0
  140.7510   74.8720  221.4030 N   0  0  0  0  0  0  0  0  0  0  0  0
  140.4800   73.5490  220.8750 C   0  0  0  0  0  0  0  0  0  0  0  0
  141.6470   72.6750  221.1600 C   0  0  0  0  0  0  0  0  0  0  0  0
  141.5360   71.6650  221.9220 O   0  0  0  0  0  0  0  0  0  0  0  0
  142.9140   73.0020  220.5510 N   0  0  0  0  0  0  0  0  0  0  0  0
  143.6780   72.1560  219.6330 C   0  0  0  0  0  0  0  0  0  0  0  0
  145.0420   72.7730  219.6580 C   0  0  0  0  0  0  0  0  0  0  0  0
  145.0630   73.7940  220.7660 C   0  0  0  0  0  0  0  0  0  0  0  0
  143.6210   74.2490  220.7730 C   0  0  1  0  0  0  0  0  0  0  0  0
  143.4300   75.1870  219.6210 C   0  0  0  0  0  0  0  0  0  0  0  0
  143.7350   74.7750  218.4740 O   0  0  0  0  0  0  0  0  0  0  0  0
  142.9200   76.4900  219.8590 N   0  0  0  0  0  0  0  0  0  0  0  0
  142.6970   77.4770  218.8340 C   0  0  0  0  0  0  0  0  0  0  0  0
  141.7210   78.5330  219.2350 C   0  0  0  0  0  0  0  0  0  0  0  0
  142.1800   79.8170  219.5490 C   0  0  0  0  0  0  0  0  0  0  0  0
  141.3030   80.8070  219.9240 C   0  0  0  0  0  0  0  0  0  0  0  0
  139.9430   80.5860  220.0090 C   0  0  0  0  0  0  0  0  0  0  0  0
  139.4990   79.3180  219.6980 C   0  0  0  0  0  0  0  0  0  0  0  0
  140.3710   78.3220  219.3220 C   0  0  0  0  0  0  0  0  0  0  0  0
  140.0200   77.0560  222.3260 C   0  0  0  0  0  0  0  0  0  0  0  0
  139.0240   77.8850  222.8130 C   0  0  0  0  0  0  0  0  0  0  0  0
  139.2840   79.1450  223.3210 C   0  0  0  0  0  0  0  0  0  0  0  0
  140.6080   79.5530  223.3240 C   0  0  0  0  0  0  0  0  0  0  0  0
  140.9270   80.8130  223.8250 C   0  0  0  0  0  0  0  0  0  0  0  0
  142.2470   81.2050  223.8200 C   0  0  0  0  0  0  0  0  0  0  0  0
  142.5800   82.4270  224.3030 F   0  0  0  0  0  0  0  0  0  0  0  0
  143.2330   80.3730  223.3330 C   0  0  0  0  0  0  0  0  0  0  0  0
  142.9390   79.1260  222.8350 C   0  0  0  0  0  0  0  0  0  0  0  0
  141.6180   78.7260  222.8360 C   0  0  0  0  0  0  0  0  0  0  0  0
  141.3000   77.4950  222.3480 N   0  0  0  0  0  0  0  0  0  0  0  0
  141.7490   75.1890  221.4880 H   0  0  0  0  0  0  0  0  0  0  0  0
  139.5813   73.1353  221.3559 H   0  0  0  0  0  0  0  0  0  0  0  0
  140.3101   73.6058  219.7897 H   0  0  0  0  0  0  0  0  0  0  0  0
  143.7088   71.1153  219.9881 H   0  0  0  0  0  0  0  0  0  0  0  0
  143.2427   72.1100  218.6238 H   0  0  0  0  0  0  0  0  0  0  0  0
  145.8000   71.9987  219.8477 H   0  0  0  0  0  0  0  0  0  0  0  0
  145.2675   73.2483  218.6920 H   0  0  0  0  0  0  0  0  0  0  0  0
  145.3473   73.3403  221.7269 H   0  0  0  0  0  0  0  0  0  0  0  0
  145.7917   74.6048  220.6192 H   0  0  0  0  0  0  0  0  0  0  0  0
  143.2890   74.7728  221.6815 H   0  0  0  0  0  0  0  0  0  0  0  0
  142.6970   76.7270  220.8670 H   0  0  0  0  0  0  0  0  0  0  0  0
  143.6571   77.9597  218.5990 H   0  0  0  0  0  0  0  0  0  0  0  0
  142.2729   76.9540  217.9642 H   0  0  0  0  0  0  0  0  0  0  0  0
  143.2564   80.0371  219.4951 H   0  0  0  0  0  0  0  0  0  0  0  0
  141.6969   81.8057  220.1636 H   0  0  0  0  0  0  0  0  0  0  0  0
  139.2471   81.3828  220.3103 H   0  0  0  0  0  0  0  0  0  0  0  0
  138.4227   79.0975  219.7517 H   0  0  0  0  0  0  0  0  0  0  0  0
  139.9710   77.3253  219.0840 H   0  0  0  0  0  0  0  0  0  0  0  0
  137.9839   77.5273  222.7953 H   0  0  0  0  0  0  0  0  0  0  0  0
  138.4798   79.7907  223.7035 H   0  0  0  0  0  0  0  0  0  0  0  0
  140.1432   81.4789  224.2152 H   0  0  0  0  0  0  0  0  0  0  0  0
  144.2784   80.7150  223.3433 H   0  0  0  0  0  0  0  0  0  0  0  0
  143.7311   78.4680  222.4481 H   0  0  0  0  0  0  0  0  0  0  0  0
  1  2  2  0
  2  3  1  0
  3  4  1  0
  4  5  1  0
  5  6  2  0
  5  7  1  0
  7  8  1  0
  8  9  1  0
  9 10  1  0
 10 11  1  0
 11 12  1  0
 12 13  2  0
 12 14  1  0
 14 15  1  0
 15 16  1  0
 16 17  2  0
 17 18  1  0
 18 19  2  0
 19 20  1  0
 20 21  2  0
  2 22  1  0
 22 23  2  0
 23 24  1  0
 24 25  2  0
 25 26  1  0
 26 27  2  0
 27 28  1  0
 27 29  1  0
 29 30  2  0
 30 31  1  0
 31 32  2  0
 11  7  1  0
 21 16  1  0
 32 22  1  0
 31 25  1  0
  3 33  1  0
  4 34  1  0
  4 35  1  0
  8 36  1  0
  8 37  1  0
  9 38  1  0
  9 39  1  0
 10 40  1  0
 10 41  1  0
 11 42  1  1
 14 43  1  0
 15 44  1  0
 15 45  1  0
 17 46  1  0
 18 47  1  0
 19 48  1  0
 20 49  1  0
 21 50  1  0
 23 51  1  0
 24 52  1  0
 26 53  1  0
 29 54  1  0
 30 55  1  0
M  END
>  <smiles>  (12) 
O=C(NCC(=O)N1CCC[C@H]1C(=O)NCc1ccccc1)c1ccc2cc(F)ccc2n1

>  <score_type>  (12) 
oracle

>  <origin>  (12) 
autodockgpu

>  <m_score__min__energy>  (12) 
-8.7899999999999991

>  <m_primary>  (12) 
energy

>  <meeko>  (12) 
{"free_energy": -6.8, "intermolecular_energy": -8.89, "internal_energy": -3.99, "cluster_size": 1, "cluster_id": 6, "rank_in_cluster": 1}

>  <energy>  (12) 
-8.05

>  <cluster_rmsd>  (12) 
1.6

>  <rmsd>  (12) 
270.93

>  <cluster>  (12) 
2

$$$$

     RDKit          3D

 55 58  0  0  0  0  0  0  0  0999 V2000
  140.1310   73.7130  222.3460 O   0  0  0  0  0  0  0  0  0  0  0  0
  140.3430   72.4830  222.2940 C   0  0  0  0  0  0  0  0  0  0  0  0
  140.7430   71.8840  221.0680 N   0  0  0  0  0  0  0  0  0  0  0  0
  140.9090   72.6980  219.8790 C   0  0  0  0  0  0  0  0  0  0  0  0
  142.0120   73.6640  220.1130 C   0  0  0  0  0  0  0  0  0  0  0  0
  142.9730   73.3810  220.8930 O   0  0  0  0  0  0  0  0  0  0  0  0
  141.9640   74.9370  219.4350 N   0  0  0  0  0  0  0  0  0  0  0  0
  141.1870   75.2520  218.2350 C   0  0  0  0  0  0  0  0  0  0  0  0
  141.8190   76.5160  217.7420 C   0  0  0  0  0  0  0  0  0  0  0  0
  143.0780   76.7410  218.5400 C   0  0  0  0  0  0  0  0  0  0  0  0
  142.7040   76.1100  219.8620 C   0  0  1  0  0  0  0  0  0  0  0  0
  141.8140   77.0690  220.5930 C   0  0  0  0  0  0  0  0  0  0  0  0
  141.7860   78.2600  220.1950 O   0  0  0  0  0  0  0  0  0  0  0  0
  141.0460   76.6080  221.6930 N   0  0  0  0  0  0  0  0  0  0  0  0
  140.1590   77.4350  222.4700 C   0  0  0  0  0  0  0  0  0  0  0  0
  140.7510   78.7580  222.8300 C   0  0  0  0  0  0  0  0  0  0  0  0
  141.9730   78.8100  223.5090 C   0  0  0  0  0  0  0  0  0  0  0  0
  142.5370   80.0150  223.8550 C   0  0  0  0  0  0  0  0  0  0  0  0
  141.9330   81.2190  223.5530 C   0  0  0  0  0  0  0  0  0  0  0  0
  140.7280   81.1590  222.8840 C   0  0  0  0  0  0  0  0  0  0  0  0
  140.1570   79.9570  222.5350 C   0  0  0  0  0  0  0  0  0  0  0  0
  140.1920   71.6000  223.4700 C   0  0  0  0  0  0  0  0  0  0  0  0
  139.5140   70.3990  223.3530 C   0  0  0  0  0  0  0  0  0  0  0  0
  139.3430   69.5320  224.4180 C   0  0  0  0  0  0  0  0  0  0  0  0
  139.8880   69.9220  225.6310 C   0  0  0  0  0  0  0  0  0  0  0  0
  139.7450   69.0860  226.7370 C   0  0  0  0  0  0  0  0  0  0  0  0
  140.2920   69.4870  227.9350 C   0  0  0  0  0  0  0  0  0  0  0  0
  140.1650   68.6900  229.0230 F   0  0  0  0  0  0  0  0  0  0  0  0
  140.9660   70.6850  228.0420 C   0  0  0  0  0  0  0  0  0  0  0  0
  141.1180   71.5230  226.9640 C   0  0  0  0  0  0  0  0  0  0  0  0
  140.5730   71.1290  225.7590 C   0  0  0  0  0  0  0  0  0  0  0  0
  140.7090   71.9400  224.6740 N   0  0  0  0  0  0  0  0  0  0  0  0
  140.9250   70.8520  221.0040 H   0  0  0  0  0  0  0  0  0  0  0  0
  141.1562   72.0547  219.0216 H   0  0  0  0  0  0  0  0  0  0  0  0
  139.9763   73.2396  219.6626 H   0  0  0  0  0  0  0  0  0  0  0  0
  141.2732   74.4499  217.4872 H   0  0  0  0  0  0  0  0  0  0  0  0
  140.1100   75.3563  218.4329 H   0  0  0  0  0  0  0  0  0  0  0  0
  142.0645   76.4202  216.6740 H   0  0  0  0  0  0  0  0  0  0  0  0
  141.1293   77.3642  217.8636 H   0  0  0  0  0  0  0  0  0  0  0  0
  143.9413   76.2359  218.0821 H   0  0  0  0  0  0  0  0  0  0  0  0
  143.3840   77.7950  218.6132 H   0  0  0  0  0  0  0  0  0  0  0  0
  143.5436   75.8660  220.5295 H   0  0  0  0  0  0  0  0  0  0  0  0
  141.1490   75.5820  221.9380 H   0  0  0  0  0  0  0  0  0  0  0  0
  139.2429   77.6092  221.8865 H   0  0  0  0  0  0  0  0  0  0  0  0
  139.9554   76.9017  223.4103 H   0  0  0  0  0  0  0  0  0  0  0  0
  142.4894   77.8743  223.7695 H   0  0  0  0  0  0  0  0  0  0  0  0
  143.4988   80.0200  224.3887 H   0  0  0  0  0  0  0  0  0  0  0  0
  142.3903   82.1797  223.8322 H   0  0  0  0  0  0  0  0  0  0  0  0
  140.2114   82.0945  222.6234 H   0  0  0  0  0  0  0  0  0  0  0  0
  139.1942   79.9585  222.0029 H   0  0  0  0  0  0  0  0  0  0  0  0
  139.0944   70.1227  222.3745 H   0  0  0  0  0  0  0  0  0  0  0  0
  138.8016   68.5809  224.3072 H   0  0  0  0  0  0  0  0  0  0  0  0
  139.2083   68.1294  226.6547 H   0  0  0  0  0  0  0  0  0  0  0  0
  141.3920   70.9767  229.0133 H   0  0  0  0  0  0  0  0  0  0  0  0
  141.6568   72.4774  227.0584 H   0  0  0  0  0  0  0  0  0  0  0  0
  1  2  2  0
  2  3  1  0
  3  4  1  0
  4  5  1  0
  5  6  2  0
  5  7  1  0
  7  8  1  0
  8  9  1  0
  9 10  1  0
 10 11  1  0
 11 12  1  0
 12 13  2  0
 12 14  1  0
 14 15  1  0
 15 16  1  0
 16 17  2  0
 17 18  1  0
 18 19  2  0
 19 20  1  0
 20 21  2  0
  2 22  1  0
 22 23  2  0
 23 24  1  0
 24 25  2  0
 25 26  1  0
 26 27  2  0
 27 28  1  0
 27 29  1  0
 29 30  2  0
 30 31  1  0
 31 32  2  0
 11  7  1  0
 21 16  1  0
 32 22  1  0
 31 25  1  0
  3 33  1  0
  4 34  1  0
  4 35  1  0
  8 36  1  0
  8 37  1  0
  9 38  1  0
  9 39  1  0
 10 40  1  0
 10 41  1  0
 11 42  1  1
 14 43  1  0
 15 44  1  0
 15 45  1  0
 17 46  1  0
 18 47  1  0
 19 48  1  0
 20 49  1  0
 21 50  1  0
 23 51  1  0
 24 52  1  0
 26 53  1  0
 29 54  1  0
 30 55  1  0
M  END
>  <smiles>  (13) 
O=C(NCC(=O)N1CCC[C@H]1C(=O)NCc1ccccc1)c1ccc2cc(F)ccc2n1

>  <score_type>  (13) 
oracle

>  <origin>  (13) 
autodockgpu

>  <m_score__min__energy>  (13) 
-8.7899999999999991

>  <m_primary>  (13) 
energy

>  <meeko>  (13) 
{"free_energy": -8.75, "intermolecular_energy": -10.84, "internal_energy": -2.47, "cluster_size": 4, "cluster_id": 1, "rank_in_cluster": 2}

>  <energy>  (13) 
-8.42

>  <cluster_rmsd>  (13) 
0.0

>  <rmsd>  (13) 
270.51

>  <cluster>  (13) 
3

$$$$

     RDKit          3D

 55 58  0  0  0  0  0  0  0  0999 V2000
  139.5620   74.2340  222.3600 O   0  0  0  0  0  0  0  0  0  0  0  0
  138.8540   75.2170  222.0580 C   0  0  0  0  0  0  0  0  0  0  0  0
  137.6370   75.0220  221.3500 N   0  0  0  0  0  0  0  0  0  0  0  0
  137.2150   73.6850  220.9790 C   0  0  0  0  0  0  0  0  0  0  0  0
  136.5460   73.0570  222.1460 C   0  0  0  0  0  0  0  0  0  0  0  0
  135.8880   73.7570  222.9770 O   0  0  0  0  0  0  0  0  0  0  0  0
  136.6630   71.6290  222.3170 N   0  0  0  0  0  0  0  0  0  0  0  0
  136.7820   70.6350  221.2490 C   0  0  0  0  0  0  0  0  0  0  0  0
  136.4480   69.3500  221.9410 C   0  0  0  0  0  0  0  0  0  0  0  0
  135.9200   69.6910  223.3110 C   0  0  0  0  0  0  0  0  0  0  0  0
  136.6770   70.9660  223.6070 C   0  0  1  0  0  0  0  0  0  0  0  0
  138.0730   70.5910  224.0030 C   0  0  0  0  0  0  0  0  0  0  0  0
  138.2560   69.4450  224.4830 O   0  0  0  0  0  0  0  0  0  0  0  0
  139.1230   71.5280  223.8270 N   0  0  0  0  0  0  0  0  0  0  0  0
  140.5000   71.2810  224.1710 C   0  0  0  0  0  0  0  0  0  0  0  0
  140.6940   70.9200  225.6070 C   0  0  0  0  0  0  0  0  0  0  0  0
  140.7880   69.5740  225.9760 C   0  0  0  0  0  0  0  0  0  0  0  0
  140.9630   69.2140  227.2910 C   0  0  0  0  0  0  0  0  0  0  0  0
  141.0540   70.1520  228.3000 C   0  0  0  0  0  0  0  0  0  0  0  0
  140.9600   71.4770  227.9280 C   0  0  0  0  0  0  0  0  0  0  0  0
  140.7850   71.8440  226.6140 C   0  0  0  0  0  0  0  0  0  0  0  0
  139.2290   76.6040  222.4080 C   0  0  0  0  0  0  0  0  0  0  0  0
  138.2510   77.5200  222.7570 C   0  0  0  0  0  0  0  0  0  0  0  0
  138.5420   78.8300  223.0940 C   0  0  0  0  0  0  0  0  0  0  0  0
  139.8780   79.1970  223.0670 C   0  0  0  0  0  0  0  0  0  0  0  0
  140.2270   80.5050  223.3980 C   0  0  0  0  0  0  0  0  0  0  0  0
  141.5580   80.8540  223.3660 C   0  0  0  0  0  0  0  0  0  0  0  0
  141.9200   82.1210  223.6840 F   0  0  0  0  0  0  0  0  0  0  0  0
  142.5260   79.9360  223.0170 C   0  0  0  0  0  0  0  0  0  0  0  0
  142.2020   78.6420  222.6880 C   0  0  0  0  0  0  0  0  0  0  0  0
  140.8700   78.2820  222.7170 C   0  0  0  0  0  0  0  0  0  0  0  0
  140.5210   77.0060  222.3950 N   0  0  0  0  0  0  0  0  0  0  0  0
  137.0280   75.8370  221.0860 H   0  0  0  0  0  0  0  0  0  0  0  0
  136.5123   73.7395  220.1344 H   0  0  0  0  0  0  0  0  0  0  0  0
  138.0875   73.0858  220.6795 H   0  0  0  0  0  0  0  0  0  0  0  0
  136.0705   70.8420  220.4360 H   0  0  0  0  0  0  0  0  0  0  0  0
  137.7752   70.6256  220.7763 H   0  0  0  0  0  0  0  0  0  0  0  0
  135.6824   68.8047  221.3695 H   0  0  0  0  0  0  0  0  0  0  0  0
  137.3404   68.7117  222.0199 H   0  0  0  0  0  0  0  0  0  0  0  0
  134.8335   69.8618  223.2935 H   0  0  0  0  0  0  0  0  0  0  0  0
  136.0605   68.8977  224.0599 H   0  0  0  0  0  0  0  0  0  0  0  0
  136.2637   71.5905  224.4127 H   0  0  0  0  0  0  0  0  0  0  0  0
  138.8500   72.4640  223.4120 H   0  0  0  0  0  0  0  0  0  0  0  0
  140.8722   70.4532  223.5495 H   0  0  0  0  0  0  0  0  0  0  0  0
  141.0533   72.2147  223.9920 H   0  0  0  0  0  0  0  0  0  0  0  0
  140.7210   68.7935  225.2038 H   0  0  0  0  0  0  0  0  0  0  0  0
  141.0326   68.1465  227.5471 H   0  0  0  0  0  0  0  0  0  0  0  0
  141.1947   69.8569  229.3503 H   0  0  0  0  0  0  0  0  0  0  0  0
  141.0265   72.2579  228.6998 H   0  0  0  0  0  0  0  0  0  0  0  0
  140.7160   72.9130  226.3640 H   0  0  0  0  0  0  0  0  0  0  0  0
  137.2007   77.1931  222.7667 H   0  0  0  0  0  0  0  0  0  0  0  0
  137.7523   79.5445  223.3696 H   0  0  0  0  0  0  0  0  0  0  0  0
  139.4580   81.2401  223.6778 H   0  0  0  0  0  0  0  0  0  0  0  0
  143.5811   80.2467  223.0017 H   0  0  0  0  0  0  0  0  0  0  0  0
  142.9799   77.9156  222.4102 H   0  0  0  0  0  0  0  0  0  0  0  0
  1  2  2  0
  2  3  1  0
  3  4  1  0
  4  5  1  0
  5  6  2  0
  5  7  1  0
  7  8  1  0
  8  9  1  0
  9 10  1  0
 10 11  1  0
 11 12  1  0
 12 13  2  0
 12 14  1  0
 14 15  1  0
 15 16  1  0
 16 17  2  0
 17 18  1  0
 18 19  2  0
 19 20  1  0
 20 21  2  0
  2 22  1  0
 22 23  2  0
 23 24  1  0
 24 25  2  0
 25 26  1  0
 26 27  2  0
 27 28  1  0
 27 29  1  0
 29 30  2  0
 30 31  1  0
 31 32  2  0
 11  7  1  0
 21 16  1  0
 32 22  1  0
 31 25  1  0
  3 33  1  0
  4 34  1  0
  4 35  1  0
  8 36  1  0
  8 37  1  0
  9 38  1  0
  9 39  1  0
 10 40  1  0
 10 41  1  0
 11 42  1  1
 14 43  1  0
 15 44  1  0
 15 45  1  0
 17 46  1  0
 18 47  1  0
 19 48  1  0
 20 49  1  0
 21 50  1  0
 23 51  1  0
 24 52  1  0
 26 53  1  0
 29 54  1  0
 30 55  1  0
M  END
>  <smiles>  (14) 
O=C(NCC(=O)N1CCC[C@H]1C(=O)NCc1ccccc1)c1ccc2cc(F)ccc2n1

>  <score_type>  (14) 
oracle

>  <origin>  (14) 
autodockgpu

>  <m_score__min__energy>  (14) 
-8.7899999999999991

>  <m_primary>  (14) 
energy

>  <meeko>  (14) 
{"free_energy": -8.33, "intermolecular_energy": -10.42, "internal_energy": -2.52, "cluster_size": 5, "cluster_id": 4, "rank_in_cluster": 1}

>  <energy>  (14) 
-8.33

>  <cluster_rmsd>  (14) 
0.0

>  <rmsd>  (14) 
270.88

>  <cluster>  (14) 
4

$$$$

     RDKit          3D

 55 58  0  0  0  0  0  0  0  0999 V2000
  133.7310   70.0560  226.8270 O   0  0  0  0  0  0  0  0  0  0  0  0
  133.2730   70.9480  226.0830 C   0  0  0  0  0  0  0  0  0  0  0  0
  133.1290   70.7030  224.6890 N   0  0  0  0  0  0  0  0  0  0  0  0
  133.5120   69.4200  224.1310 C   0  0  0  0  0  0  0  0  0  0  0  0
  134.9070   69.1210  224.5400 C   0  0  0  0  0  0  0  0  0  0  0  0
  135.1610   68.1810  225.3570 O   0  0  0  0  0  0  0  0  0  0  0  0
  135.9710   69.9250  223.9900 N   0  0  0  0  0  0  0  0  0  0  0  0
  136.1600   71.3640  224.1840 C   0  0  0  0  0  0  0  0  0  0  0  0
  137.1150   71.7330  223.0910 C   0  0  0  0  0  0  0  0  0  0  0  0
  137.2450   70.5430  222.1750 C   0  0  0  0  0  0  0  0  0  0  0  0
  137.0270   69.4020  223.1440 C   0  0  1  0  0  0  0  0  0  0  0  0
  138.2940   69.2120  223.9210 C   0  0  0  0  0  0  0  0  0  0  0  0
  139.3810   69.4020  223.3230 O   0  0  0  0  0  0  0  0  0  0  0  0
  138.2240   68.8270  225.2850 N   0  0  0  0  0  0  0  0  0  0  0  0
  139.3700   68.6130  226.1300 C   0  0  0  0  0  0  0  0  0  0  0  0
  140.0120   69.8810  226.5870 C   0  0  0  0  0  0  0  0  0  0  0  0
  139.8250   70.3180  227.9030 C   0  0  0  0  0  0  0  0  0  0  0  0
  140.4010   71.4840  228.3480 C   0  0  0  0  0  0  0  0  0  0  0  0
  141.1840   72.2710  227.5270 C   0  0  0  0  0  0  0  0  0  0  0  0
  141.3640   71.8350  226.2320 C   0  0  0  0  0  0  0  0  0  0  0  0
  140.7900   70.6690  225.7800 C   0  0  0  0  0  0  0  0  0  0  0  0
  132.8640   72.2750  226.5900 C   0  0  0  0  0  0  0  0  0  0  0  0
  131.7380   72.3980  227.3850 C   0  0  0  0  0  0  0  0  0  0  0  0
  131.3080   73.6130  227.8890 C   0  0  0  0  0  0  0  0  0  0  0  0
  132.0660   74.7250  227.5590 C   0  0  0  0  0  0  0  0  0  0  0  0
  131.6790   75.9740  228.0400 C   0  0  0  0  0  0  0  0  0  0  0  0
  132.4420   77.0700  227.7030 C   0  0  0  0  0  0  0  0  0  0  0  0
  132.0840   78.2950  228.1600 F   0  0  0  0  0  0  0  0  0  0  0  0
  133.5630   76.9390  226.9100 C   0  0  0  0  0  0  0  0  0  0  0  0
  133.9610   75.7160  226.4270 C   0  0  0  0  0  0  0  0  0  0  0  0
  133.2020   74.6120  226.7590 C   0  0  0  0  0  0  0  0  0  0  0  0
  133.5750   73.3880  226.2930 N   0  0  0  0  0  0  0  0  0  0  0  0
  132.7460   71.4410  224.0470 H   0  0  0  0  0  0  0  0  0  0  0  0
  132.8392   68.6361  224.5091 H   0  0  0  0  0  0  0  0  0  0  0  0
  133.4417   69.4523  223.0337 H   0  0  0  0  0  0  0  0  0  0  0  0
  135.2084   71.9051  224.0760 H   0  0  0  0  0  0  0  0  0  0  0  0
  136.5323   71.6193  225.1871 H   0  0  0  0  0  0  0  0  0  0  0  0
  136.7275   72.5966  222.5306 H   0  0  0  0  0  0  0  0  0  0  0  0
  138.0947   72.0049  223.5109 H   0  0  0  0  0  0  0  0  0  0  0  0
  136.4776   70.5550  221.3870 H   0  0  0  0  0  0  0  0  0  0  0  0
  138.1985   70.4956  221.6285 H   0  0  0  0  0  0  0  0  0  0  0  0
  136.7702   68.4328  222.6916 H   0  0  0  0  0  0  0  0  0  0  0  0
  137.2510   68.6950  225.6840 H   0  0  0  0  0  0  0  0  0  0  0  0
  139.0494   68.0450  227.0158 H   0  0  0  0  0  0  0  0  0  0  0  0
  140.1161   68.0663  225.5347 H   0  0  0  0  0  0  0  0  0  0  0  0
  139.2087   69.7204  228.5908 H   0  0  0  0  0  0  0  0  0  0  0  0
  140.2333   71.7993  229.3884 H   0  0  0  0  0  0  0  0  0  0  0  0
  141.6428   73.2027  227.8896 H   0  0  0  0  0  0  0  0  0  0  0  0
  141.9804   72.4326  225.5443 H   0  0  0  0  0  0  0  0  0  0  0  0
  140.9610   70.3598  224.7383 H   0  0  0  0  0  0  0  0  0  0  0  0
  131.1612   71.4930  227.6262 H   0  0  0  0  0  0  0  0  0  0  0  0
  130.4101   73.6920  228.5195 H   0  0  0  0  0  0  0  0  0  0  0  0
  130.7861   76.0821  228.6733 H   0  0  0  0  0  0  0  0  0  0  0  0
  134.1514   77.8338  226.6587 H   0  0  0  0  0  0  0  0  0  0  0  0
  134.8565   75.6196  225.7955 H   0  0  0  0  0  0  0  0  0  0  0  0
  1  2  2  0
  2  3  1  0
  3  4  1  0
  4  5  1  0
  5  6  2  0
  5  7  1  0
  7  8  1  0
  8  9  1  0
  9 10  1  0
 10 11  1  0
 11 12  1  0
 12 13  2  0
 12 14  1  0
 14 15  1  0
 15 16  1  0
 16 17  2  0
 17 18  1  0
 18 19  2  0
 19 20  1  0
 20 21  2  0
  2 22  1  0
 22 23  2  0
 23 24  1  0
 24 25  2  0
 25 26  1  0
 26 27  2  0
 27 28  1  0
 27 29  1  0
 29 30  2  0
 30 31  1  0
 31 32  2  0
 11  7  1  0
 21 16  1  0
 32 22  1  0
 31 25  1  0
  3 33  1  0
  4 34  1  0
  4 35  1  0
  8 36  1  0
  8 37  1  0
  9 38  1  0
  9 39  1  0
 10 40  1  0
 10 41  1  0
 11 42  1  6
 14 43  1  0
 15 44  1  0
 15 45  1  0
 17 46  1  0
 18 47  1  0
 19 48  1  0
 20 49  1  0
 21 50  1  0
 23 51  1  0
 24 52  1  0
 26 53  1  0
 29 54  1  0
 30 55  1  0
M  END
>  <smiles>  (15) 
O=C(NCC(=O)N1CCC[C@H]1C(=O)NCc1ccccc1)c1ccc2cc(F)ccc2n1

>  <score_type>  (15) 
oracle

>  <origin>  (15) 
autodockgpu

>  <m_score__min__energy>  (15) 
-8.7899999999999991

>  <m_primary>  (15) 
energy

>  <meeko>  (15) 
{"free_energy": -8.42, "intermolecular_energy": -10.51, "internal_energy": -2.54, "cluster_size": 1, "cluster_id": 3, "rank_in_cluster": 1}

>  <energy>  (15) 
-8.29

>  <cluster_rmsd>  (15) 
0.86

>  <rmsd>  (15) 
270.86

>  <cluster>  (15) 
4

$$$$

     RDKit          3D

 55 58  0  0  0  0  0  0  0  0999 V2000
  138.0970   70.5970  221.6330 O   0  0  0  0  0  0  0  0  0  0  0  0
  138.0730   71.0150  222.8100 C   0  0  0  0  0  0  0  0  0  0  0  0
  137.4310   72.2480  223.1110 N   0  0  0  0  0  0  0  0  0  0  0  0
  136.8040   73.0200  222.0550 C   0  0  0  0  0  0  0  0  0  0  0  0
  137.7170   74.1250  221.6670 C   0  0  0  0  0  0  0  0  0  0  0  0
  137.3490   75.3370  221.7550 O   0  0  0  0  0  0  0  0  0  0  0  0
  139.0350   73.7880  221.1850 N   0  0  0  0  0  0  0  0  0  0  0  0
  139.3520   73.1340  219.9150 C   0  0  0  0  0  0  0  0  0  0  0  0
  140.7580   72.6600  220.1180 C   0  0  0  0  0  0  0  0  0  0  0  0
  141.1010   72.8510  221.5730 C   0  0  0  0  0  0  0  0  0  0  0  0
  140.2580   74.0590  221.9160 C   0  0  1  0  0  0  0  0  0  0  0  0
  140.9510   75.2720  221.3730 C   0  0  0  0  0  0  0  0  0  0  0  0
  142.1710   75.1720  221.0940 O   0  0  0  0  0  0  0  0  0  0  0  0
  140.2180   76.4730  221.1970 N   0  0  0  0  0  0  0  0  0  0  0  0
  140.7750   77.7000  220.6870 C   0  0  0  0  0  0  0  0  0  0  0  0
  141.3590   78.5700  221.7500 C   0  0  0  0  0  0  0  0  0  0  0  0
  141.2340   78.2020  223.0940 C   0  0  0  0  0  0  0  0  0  0  0  0
  141.7590   78.9870  224.0920 C   0  0  0  0  0  0  0  0  0  0  0  0
  142.4300   80.1630  223.8210 C   0  0  0  0  0  0  0  0  0  0  0  0
  142.5490   80.5190  222.4940 C   0  0  0  0  0  0  0  0  0  0  0  0
  142.0250   79.7380  221.4890 C   0  0  0  0  0  0  0  0  0  0  0  0
  138.6930   70.2750  223.9290 C   0  0  0  0  0  0  0  0  0  0  0  0
  138.6520   68.8910  223.9540 C   0  0  0  0  0  0  0  0  0  0  0  0
  139.2160   68.1460  224.9750 C   0  0  0  0  0  0  0  0  0  0  0  0
  139.8360   68.8550  225.9920 C   0  0  0  0  0  0  0  0  0  0  0  0
  140.4210   68.1540  227.0450 C   0  0  0  0  0  0  0  0  0  0  0  0
  141.0330   68.8710  228.0480 C   0  0  0  0  0  0  0  0  0  0  0  0
  141.6080   68.2100  229.0820 F   0  0  0  0  0  0  0  0  0  0  0  0
  141.0690   70.2500  228.0150 C   0  0  0  0  0  0  0  0  0  0  0  0
  140.4990   70.9580  226.9860 C   0  0  0  0  0  0  0  0  0  0  0  0
  139.8830   70.2480  225.9760 C   0  0  0  0  0  0  0  0  0  0  0  0
  139.3100   70.9250  224.9430 N   0  0  0  0  0  0  0  0  0  0  0  0
  137.4020   72.6160  224.0940 H   0  0  0  0  0  0  0  0  0  0  0  0
  136.6154   72.3731  221.1855 H   0  0  0  0  0  0  0  0  0  0  0  0
  135.8470   73.4311  222.4088 H   0  0  0  0  0  0  0  0  0  0  0  0
  138.6738   72.2888  219.7261 H   0  0  0  0  0  0  0  0  0  0  0  0
  139.2417   73.8001  219.0466 H   0  0  0  0  0  0  0  0  0  0  0  0
  140.8366   71.5957  219.8512 H   0  0  0  0  0  0  0  0  0  0  0  0
  141.4517   73.2285  219.4811 H   0  0  0  0  0  0  0  0  0  0  0  0
  140.8139   71.9752  222.1734 H   0  0  0  0  0  0  0  0  0  0  0  0
  142.1755   72.9786  221.7711 H   0  0  0  0  0  0  0  0  0  0  0  0
  140.0848   74.2319  222.9884 H   0  0  0  0  0  0  0  0  0  0  0  0
  139.1940   76.4400  221.4670 H   0  0  0  0  0  0  0  0  0  0  0  0
  141.5671   77.4506  219.9657 H   0  0  0  0  0  0  0  0  0  0  0  0
  139.9524   78.2624  220.2212 H   0  0  0  0  0  0  0  0  0  0  0  0
  140.7083   77.2717  223.3552 H   0  0  0  0  0  0  0  0  0  0  0  0
  141.6412   78.6690  225.1384 H   0  0  0  0  0  0  0  0  0  0  0  0
  142.8494   80.7859  224.6248 H   0  0  0  0  0  0  0  0  0  0  0  0
  143.0751   81.4490  222.2325 H   0  0  0  0  0  0  0  0  0  0  0  0
  142.1447   80.0617  220.4446 H   0  0  0  0  0  0  0  0  0  0  0  0
  138.1511   68.3626  223.1294 H   0  0  0  0  0  0  0  0  0  0  0  0
  139.1744   67.0468  224.9792 H   0  0  0  0  0  0  0  0  0  0  0  0
  140.3943   67.0547  227.0738 H   0  0  0  0  0  0  0  0  0  0  0  0
  141.5657   70.7944  228.8317 H   0  0  0  0  0  0  0  0  0  0  0  0
  140.5324   72.0573  226.9674 H   0  0  0  0  0  0  0  0  0  0  0  0
  1  2  2  0
  2  3  1  0
  3  4  1  0
  4  5  1  0
  5  6  2  0
  5  7  1  0
  7  8  1  0
  8  9  1  0
  9 10  1  0
 10 11  1  0
 11 12  1  0
 12 13  2  0
 12 14  1  0
 14 15  1  0
 15 16  1  0
 16 17  2  0
 17 18  1  0
 18 19  2  0
 19 20  1  0
 20 21  2  0
  2 22  1  0
 22 23  2  0
 23 24  1  0
 24 25  2  0
 25 26  1  0
 26 27  2  0
 27 28  1  0
 27 29  1  0
 29 30  2  0
 30 31  1  0
 31 32  2  0
 11  7  1  0
 21 16  1  0
 32 22  1  0
 31 25  1  0
  3 33  1  0
  4 34  1  0
  4 35  1  0
  8 36  1  0
  8 37  1  0
  9 38  1  0
  9 39  1  0
 10 40  1  0
 10 41  1  0
 11 42  1  1
 14 43  1  0
 15 44  1  0
 15 45  1  0
 17 46  1  0
 18 47  1  0
 19 48  1  0
 20 49  1  0
 21 50  1  0
 23 51  1  0
 24 52  1  0
 26 53  1  0
 29 54  1  0
 30 55  1  0
M  END
>  <smiles>  (16) 
O=C(NCC(=O)N1CCC[C@H]1C(=O)NCc1ccccc1)c1ccc2cc(F)ccc2n1

>  <score_type>  (16) 
oracle

>  <origin>  (16) 
autodockgpu

>  <m_score__min__energy>  (16) 
-8.7899999999999991

>  <m_primary>  (16) 
energy

>  <meeko>  (16) 
{"free_energy": -8.05, "intermolecular_energy": -10.14, "internal_energy": -2.8, "cluster_size": 8, "cluster_id": 2, "rank_in_cluster": 8}

>  <energy>  (16) 
-8.26

>  <cluster_rmsd>  (16) 
0.53

>  <rmsd>  (16) 
270.95

>  <cluster>  (16) 
4

$$$$

     RDKit          3D

 55 58  0  0  0  0  0  0  0  0999 V2000
  137.6230   70.3680  222.1880 O   0  0  0  0  0  0  0  0  0  0  0  0
  138.4180   70.8480  223.0220 C   0  0  0  0  0  0  0  0  0  0  0  0
  138.8520   72.1960  222.8930 N   0  0  0  0  0  0  0  0  0  0  0  0
  138.3700   73.0150  221.7980 C   0  0  0  0  0  0  0  0  0  0  0  0
  139.1370   74.2870  221.7820 C   0  0  0  0  0  0  0  0  0  0  0  0
  140.3250   74.3380  222.2300 O   0  0  0  0  0  0  0  0  0  0  0  0
  138.5000   75.4650  221.2460 N   0  0  0  0  0  0  0  0  0  0  0  0
  137.6310   76.3890  221.9770 C   0  0  0  0  0  0  0  0  0  0  0  0
  136.9380   77.1420  220.8840 C   0  0  0  0  0  0  0  0  0  0  0  0
  137.2580   76.4560  219.5810 C   0  0  0  0  0  0  0  0  0  0  0  0
  138.6370   75.9050  219.8700 C   0  0  1  0  0  0  0  0  0  0  0  0
  139.6140   77.0350  219.7630 C   0  0  0  0  0  0  0  0  0  0  0  0
  139.3000   78.0140  219.0410 O   0  0  0  0  0  0  0  0  0  0  0  0
  140.8440   76.9630  220.4670 N   0  0  0  0  0  0  0  0  0  0  0  0
  141.8590   77.9840  220.4390 C   0  0  0  0  0  0  0  0  0  0  0  0
  141.8200   78.8890  221.6260 C   0  0  0  0  0  0  0  0  0  0  0  0
  142.1950   80.2290  221.4890 C   0  0  0  0  0  0  0  0  0  0  0  0
  142.1710   81.0820  222.5670 C   0  0  0  0  0  0  0  0  0  0  0  0
  141.7800   80.6620  223.8230 C   0  0  0  0  0  0  0  0  0  0  0  0
  141.4130   79.3390  223.9500 C   0  0  0  0  0  0  0  0  0  0  0  0
  141.4340   78.4800  222.8750 C   0  0  0  0  0  0  0  0  0  0  0  0
  138.9450   70.0650  224.1610 C   0  0  0  0  0  0  0  0  0  0  0  0
  138.8120   68.6870  224.1770 C   0  0  0  0  0  0  0  0  0  0  0  0
  139.2860   67.9040  225.2150 C   0  0  0  0  0  0  0  0  0  0  0  0
  139.9120   68.5670  226.2580 C   0  0  0  0  0  0  0  0  0  0  0  0
  140.4080   67.8260  227.3290 C   0  0  0  0  0  0  0  0  0  0  0  0
  141.0270   68.4990  228.3590 C   0  0  0  0  0  0  0  0  0  0  0  0
  141.5180   67.7990  229.4100 F   0  0  0  0  0  0  0  0  0  0  0  0
  141.1560   69.8720  228.3340 C   0  0  0  0  0  0  0  0  0  0  0  0
  140.6730   70.6200  227.2880 C   0  0  0  0  0  0  0  0  0  0  0  0
  140.0510   69.9540  226.2510 C   0  0  0  0  0  0  0  0  0  0  0  0
  139.5640   70.6710  225.2010 N   0  0  0  0  0  0  0  0  0  0  0  0
  139.5220   72.6170  223.5840 H   0  0  0  0  0  0  0  0  0  0  0  0
  138.5151   72.4832  220.8461 H   0  0  0  0  0  0  0  0  0  0  0  0
  137.2983   73.2249  221.9301 H   0  0  0  0  0  0  0  0  0  0  0  0
  136.9076   75.8417  222.5993 H   0  0  0  0  0  0  0  0  0  0  0  0
  138.1812   77.0425  222.6700 H   0  0  0  0  0  0  0  0  0  0  0  0
  135.8513   77.1343  221.0545 H   0  0  0  0  0  0  0  0  0  0  0  0
  137.2770   78.1882  220.8620 H   0  0  0  0  0  0  0  0  0  0  0  0
  136.5403   75.6517  219.3620 H   0  0  0  0  0  0  0  0  0  0  0  0
  137.2100   77.1139  218.7007 H   0  0  0  0  0  0  0  0  0  0  0  0
  138.9834   75.1059  219.1981 H   0  0  0  0  0  0  0  0  0  0  0  0
  141.0010   76.0900  221.0460 H   0  0  0  0  0  0  0  0  0  0  0  0
  142.8442   77.4959  220.4044 H   0  0  0  0  0  0  0  0  0  0  0  0
  141.6721   78.6046  219.5502 H   0  0  0  0  0  0  0  0  0  0  0  0
  142.5134   80.6057  220.5058 H   0  0  0  0  0  0  0  0  0  0  0  0
  142.4723   82.1303  222.4247 H   0  0  0  0  0  0  0  0  0  0  0  0
  141.7622   81.3500  224.6811 H   0  0  0  0  0  0  0  0  0  0  0  0
  141.0961   78.9614  224.9333 H   0  0  0  0  0  0  0  0  0  0  0  0
  141.1315   77.4329  223.0233 H   0  0  0  0  0  0  0  0  0  0  0  0
  138.3096   68.1950  223.3311 H   0  0  0  0  0  0  0  0  0  0  0  0
  139.1714   66.8100  225.2121 H   0  0  0  0  0  0  0  0  0  0  0  0
  140.3076   66.7308  227.3512 H   0  0  0  0  0  0  0  0  0  0  0  0
  141.6573   70.3798  229.1711 H   0  0  0  0  0  0  0  0  0  0  0  0
  140.7785   71.7149  227.2770 H   0  0  0  0  0  0  0  0  0  0  0  0
  1  2  2  0
  2  3  1  0
  3  4  1  0
  4  5  1  0
  5  6  2  0
  5  7  1  0
  7  8  1  0
  8  9  1  0
  9 10  1  0
 10 11  1  0
 11 12  1  0
 12 13  2  0
 12 14  1  0
 14 15  1  0
 15 16  1  0
 16 17  2  0
 17 18  1  0
 18 19  2  0
 19 20  1  0
 20 21  2  0
  2 22  1  0
 22 23  2  0
 23 24  1  0
 24 25  2  0
 25 26  1  0
 26 27  2  0
 27 28  1  0
 27 29  1  0
 29 30  2  0
 30 31  1  0
 31 32  2  0
 11  7  1  0
 21 16  1  0
 32 22  1  0
 31 25  1  0
  3 33  1  0
  4 34  1  0
  4 35  1  0
  8 36  1  0
  8 37  1  0
  9 38  1  0
  9 39  1  0
 10 40  1  0
 10 41  1  0
 11 42  1  6
 14 43  1  0
 15 44  1  0
 15 45  1  0
 17 46  1  0
 18 47  1  0
 19 48  1  0
 20 49  1  0
 21 50  1  0
 23 51  1  0
 24 52  1  0
 26 53  1  0
 29 54  1  0
 30 55  1  0
M  END
>  <smiles>  (17) 
O=C(NCC(=O)N1CCC[C@H]1C(=O)NCc1ccccc1)c1ccc2cc(F)ccc2n1

>  <score_type>  (17) 
oracle

>  <origin>  (17) 
autodockgpu

>  <m_score__min__energy>  (17) 
-8.7899999999999991

>  <m_primary>  (17) 
energy

>  <meeko>  (17) 
{"free_energy": -8.12, "intermolecular_energy": -10.2, "internal_energy": -2.93, "cluster_size": 8, "cluster_id": 2, "rank_in_cluster": 6}

>  <energy>  (17) 
-8.22

>  <cluster_rmsd>  (17) 
1.38

>  <rmsd>  (17) 
271.25

>  <cluster>  (17) 
4

$$$$

     RDKit          3D

 55 58  0  0  0  0  0  0  0  0999 V2000
  137.8770   75.5450  222.3430 O   0  0  0  0  0  0  0  0  0  0  0  0
  138.9600   76.0350  221.9610 C   0  0  0  0  0  0  0  0  0  0  0  0
  139.7580   75.3370  221.0120 N   0  0  0  0  0  0  0  0  0  0  0  0
  139.3150   74.0600  220.4860 C   0  0  0  0  0  0  0  0  0  0  0  0
  139.4660   73.0310  221.5460 C   0  0  0  0  0  0  0  0  0  0  0  0
  140.4400   73.0700  222.3600 O   0  0  0  0  0  0  0  0  0  0  0  0
  138.4790   71.9820  221.6290 N   0  0  0  0  0  0  0  0  0  0  0  0
  138.3170   70.8680  220.6930 C   0  0  0  0  0  0  0  0  0  0  0  0
  136.9420   70.3620  221.0010 C   0  0  0  0  0  0  0  0  0  0  0  0
  136.2860   71.3520  221.9300 C   0  0  0  0  0  0  0  0  0  0  0  0
  137.4840   71.8870  222.6810 C   0  0  1  0  0  0  0  0  0  0  0  0
  137.8800   70.8660  223.7030 C   0  0  0  0  0  0  0  0  0  0  0  0
  136.9670   70.3410  224.3890 O   0  0  0  0  0  0  0  0  0  0  0  0
  139.2490   70.5310  223.8620 N   0  0  0  0  0  0  0  0  0  0  0  0
  139.7470   69.5690  224.8110 C   0  0  0  0  0  0  0  0  0  0  0  0
  140.3050   70.1930  226.0470 C   0  0  0  0  0  0  0  0  0  0  0  0
  140.6840   71.5390  226.0340 C   0  0  0  0  0  0  0  0  0  0  0  0
  141.2030   72.1370  227.1580 C   0  0  0  0  0  0  0  0  0  0  0  0
  141.3730   71.4460  228.3410 C   0  0  0  0  0  0  0  0  0  0  0  0
  140.9970   70.1190  228.3460 C   0  0  0  0  0  0  0  0  0  0  0  0
  140.4770   69.5140  227.2250 C   0  0  0  0  0  0  0  0  0  0  0  0
  139.4660   77.3310  222.4590 C   0  0  0  0  0  0  0  0  0  0  0  0
  138.5820   78.2910  222.9210 C   0  0  0  0  0  0  0  0  0  0  0  0
  138.9970   79.5210  223.3980 C   0  0  0  0  0  0  0  0  0  0  0  0
  140.3620   79.7600  223.3960 C   0  0  0  0  0  0  0  0  0  0  0  0
  140.8360   80.9830  223.8670 C   0  0  0  0  0  0  0  0  0  0  0  0
  142.1940   81.2060  223.8590 C   0  0  0  0  0  0  0  0  0  0  0  0
  142.6770   82.3880  224.3120 F   0  0  0  0  0  0  0  0  0  0  0  0
  143.0690   80.2440  223.3970 C   0  0  0  0  0  0  0  0  0  0  0  0
  142.6220   79.0320  222.9290 C   0  0  0  0  0  0  0  0  0  0  0  0
  141.2610   78.8000  222.9340 C   0  0  0  0  0  0  0  0  0  0  0  0
  140.7910   77.6080  222.4750 N   0  0  0  0  0  0  0  0  0  0  0  0
  140.6720   75.7320  220.6800 H   0  0  0  0  0  0  0  0  0  0  0  0
  138.2592   74.1296  220.1852 H   0  0  0  0  0  0  0  0  0  0  0  0
  139.9190   73.7859  219.6084 H   0  0  0  0  0  0  0  0  0  0  0  0
  138.3860   71.2145  219.6513 H   0  0  0  0  0  0  0  0  0  0  0  0
  139.0949   70.0976  220.7995 H   0  0  0  0  0  0  0  0  0  0  0  0
  136.3581   70.2756  220.0728 H   0  0  0  0  0  0  0  0  0  0  0  0
  136.9935   69.3688  221.4710 H   0  0  0  0  0  0  0  0  0  0  0  0
  135.7711   72.1482  221.3724 H   0  0  0  0  0  0  0  0  0  0  0  0
  135.5057   70.9193  222.5734 H   0  0  0  0  0  0  0  0  0  0  0  0
  137.3294   72.8388  223.2103 H   0  0  0  0  0  0  0  0  0  0  0  0
  139.9300   71.0380  223.2280 H   0  0  0  0  0  0  0  0  0  0  0  0
  138.9206   68.9026  225.0989 H   0  0  0  0  0  0  0  0  0  0  0  0
  140.5680   69.0240  224.3221 H   0  0  0  0  0  0  0  0  0  0  0  0
  140.5653   72.1273  225.1121 H   0  0  0  0  0  0  0  0  0  0  0  0
  141.4914   73.1976  227.1133 H   0  0  0  0  0  0  0  0  0  0  0  0
  141.7885   71.9306  229.2368 H   0  0  0  0  0  0  0  0  0  0  0  0
  141.1156   69.5306  229.2678 H   0  0  0  0  0  0  0  0  0  0  0  0
  140.1906   68.4531  227.2758 H   0  0  0  0  0  0  0  0  0  0  0  0
  137.5053   78.0662  222.9082 H   0  0  0  0  0  0  0  0  0  0  0  0
  138.2796   80.2719  223.7607 H   0  0  0  0  0  0  0  0  0  0  0  0
  140.1413   81.7517  224.2364 H   0  0  0  0  0  0  0  0  0  0  0  0
  144.1491   80.4523  223.4036 H   0  0  0  0  0  0  0  0  0  0  0  0
  143.3261   78.2707  222.5620 H   0  0  0  0  0  0  0  0  0  0  0  0
  1  2  2  0
  2  3  1  0
  3  4  1  0
  4  5  1  0
  5  6  2  0
  5  7  1  0
  7  8  1  0
  8  9  1  0
  9 10  1  0
 10 11  1  0
 11 12  1  0
 12 13  2  0
 12 14  1  0
 14 15  1  0
 15 16  1  0
 16 17  2  0
 17 18  1  0
 18 19  2  0
 19 20  1  0
 20 21  2  0
  2 22  1  0
 22 23  2  0
 23 24  1  0
 24 25  2  0
 25 26  1  0
 26 27  2  0
 27 28  1  0
 27 29  1  0
 29 30  2  0
 30 31  1  0
 31 32  2  0
 11  7  1  0
 21 16  1  0
 32 22  1  0
 31 25  1  0
  3 33  1  0
  4 34  1  0
  4 35  1  0
  8 36  1  0
  8 37  1  0
  9 38  1  0
  9 39  1  0
 10 40  1  0
 10 41  1  0
 11 42  1  1
 14 43  1  0
 15 44  1  0
 15 45  1  0
 17 46  1  0
 18 47  1  0
 19 48  1  0
 20 49  1  0
 21 50  1  0
 23 51  1  0
 24 52  1  0
 26 53  1  0
 29 54  1  0
 30 55  1  0
M  END
>  <smiles>  (18) 
O=C(NCC(=O)N1CCC[C@H]1C(=O)NCc1ccccc1)c1ccc2cc(F)ccc2n1

>  <score_type>  (18) 
oracle

>  <origin>  (18) 
autodockgpu

>  <m_score__min__energy>  (18) 
-8.7899999999999991

>  <m_primary>  (18) 
energy

>  <meeko>  (18) 
{"free_energy": -8.22, "intermolecular_energy": -10.3, "internal_energy": -2.56, "cluster_size": 5, "cluster_id": 4, "rank_in_cluster": 4}

>  <energy>  (18) 
-7.86

>  <cluster_rmsd>  (18) 
1.39

>  <rmsd>  (18) 
271.19

>  <cluster>  (18) 
4

$$$$

     RDKit          3D

 55 58  0  0  0  0  0  0  0  0999 V2000
  139.9320   73.7130  222.6540 O   0  0  0  0  0  0  0  0  0  0  0  0
  140.0920   72.4840  222.5010 C   0  0  0  0  0  0  0  0  0  0  0  0
  140.2920   71.9520  221.1970 N   0  0  0  0  0  0  0  0  0  0  0  0
  140.3120   72.8330  220.0460 C   0  0  0  0  0  0  0  0  0  0  0  0
  141.7240   73.1590  219.7210 C   0  0  0  0  0  0  0  0  0  0  0  0
  142.6400   72.2870  219.8450 O   0  0  0  0  0  0  0  0  0  0  0  0
  142.0330   74.4920  219.2630 N   0  0  0  0  0  0  0  0  0  0  0  0
  141.6850   75.0640  217.9610 C   0  0  0  0  0  0  0  0  0  0  0  0
  142.5830   76.2580  217.8630 C   0  0  0  0  0  0  0  0  0  0  0  0
  143.5710   76.1830  218.9990 C   0  0  0  0  0  0  0  0  0  0  0  0
  142.7520   75.4730  220.0530 C   0  0  1  0  0  0  0  0  0  0  0  0
  141.8110   76.4730  220.6540 C   0  0  0  0  0  0  0  0  0  0  0  0
  141.8900   77.6620  220.2580 O   0  0  0  0  0  0  0  0  0  0  0  0
  140.8790   76.0500  221.6360 N   0  0  0  0  0  0  0  0  0  0  0  0
  139.9290   76.9180  222.2840 C   0  0  0  0  0  0  0  0  0  0  0  0
  140.5130   78.2280  222.6990 C   0  0  0  0  0  0  0  0  0  0  0  0
  139.8800   79.4180  222.3280 C   0  0  0  0  0  0  0  0  0  0  0  0
  140.4000   80.6370  222.6940 C   0  0  0  0  0  0  0  0  0  0  0  0
  141.5570   80.7450  223.4390 C   0  0  0  0  0  0  0  0  0  0  0  0
  142.1750   79.5670  223.8010 C   0  0  0  0  0  0  0  0  0  0  0  0
  141.6610   78.3430  223.4370 C   0  0  0  0  0  0  0  0  0  0  0  0
  140.0820   71.5340  223.6340 C   0  0  0  0  0  0  0  0  0  0  0  0
  139.5690   70.2590  223.4660 C   0  0  0  0  0  0  0  0  0  0  0  0
  139.5340   69.3280  224.4890 C   0  0  0  0  0  0  0  0  0  0  0  0
  140.0430   69.7300  225.7130 C   0  0  0  0  0  0  0  0  0  0  0  0
  140.0330   68.8310  226.7780 C   0  0  0  0  0  0  0  0  0  0  0  0
  140.5420   69.2450  227.9880 C   0  0  0  0  0  0  0  0  0  0  0  0
  140.5420   68.3870  229.0370 F   0  0  0  0  0  0  0  0  0  0  0  0
  141.0520   70.5170  228.1470 C   0  0  0  0  0  0  0  0  0  0  0  0
  141.0710   71.4170  227.1090 C   0  0  0  0  0  0  0  0  0  0  0  0
  140.5620   71.0110  225.8920 C   0  0  0  0  0  0  0  0  0  0  0  0
  140.5690   71.8830  224.8470 N   0  0  0  0  0  0  0  0  0  0  0  0
  140.4270   70.9210  221.0480 H   0  0  0  0  0  0  0  0  0  0  0  0
  139.8408   72.3316  219.1878 H   0  0  0  0  0  0  0  0  0  0  0  0
  139.7562   73.7554  220.2701 H   0  0  0  0  0  0  0  0  0  0  0  0
  141.8877   74.3499  217.1492 H   0  0  0  0  0  0  0  0  0  0  0  0
  140.6183   75.3171  217.8714 H   0  0  0  0  0  0  0  0  0  0  0  0
  143.1166   76.2475  216.9011 H   0  0  0  0  0  0  0  0  0  0  0  0
  141.9968   77.1868  217.9230 H   0  0  0  0  0  0  0  0  0  0  0  0
  144.4619   75.6009  218.7208 H   0  0  0  0  0  0  0  0  0  0  0  0
  143.9688   77.1580  219.3169 H   0  0  0  0  0  0  0  0  0  0  0  0
  143.3227   75.0214  220.8778 H   0  0  0  0  0  0  0  0  0  0  0  0
  140.9030   75.0220  221.8920 H   0  0  0  0  0  0  0  0  0  0  0  0
  139.1000   77.1105  221.5870 H   0  0  0  0  0  0  0  0  0  0  0  0
  139.5920   76.4074  223.1982 H   0  0  0  0  0  0  0  0  0  0  0  0
  138.9540   79.3785  221.7356 H   0  0  0  0  0  0  0  0  0  0  0  0
  139.8781   81.5542  222.3837 H   0  0  0  0  0  0  0  0  0  0  0  0
  141.9662   81.7238  223.7298 H   0  0  0  0  0  0  0  0  0  0  0  0
  143.1003   79.6061  224.3945 H   0  0  0  0  0  0  0  0  0  0  0  0
  142.1884   77.4293  223.7484 H   0  0  0  0  0  0  0  0  0  0  0  0
  139.1734   69.9748  222.4797 H   0  0  0  0  0  0  0  0  0  0  0  0
  139.1226   68.3191  224.3379 H   0  0  0  0  0  0  0  0  0  0  0  0
  139.6283   67.8156  226.6546 H   0  0  0  0  0  0  0  0  0  0  0  0
  141.4523   70.8173  229.1266 H   0  0  0  0  0  0  0  0  0  0  0  0
  141.4792   72.4296  227.2437 H   0  0  0  0  0  0  0  0  0  0  0  0
  1  2  2  0
  2  3  1  0
  3  4  1  0
  4  5  1  0
  5  6  2  0
  5  7  1  0
  7  8  1  0
  8  9  1  0
  9 10  1  0
 10 11  1  0
 11 12  1  0
 12 13  2  0
 12 14  1  0
 14 15  1  0
 15 16  1  0
 16 17  2  0
 17 18  1  0
 18 19  2  0
 19 20  1  0
 20 21  2  0
  2 22  1  0
 22 23  2  0
 23 24  1  0
 24 25  2  0
 25 26  1  0
 26 27  2  0
 27 28  1  0
 27 29  1  0
 29 30  2  0
 30 31  1  0
 31 32  2  0
 11  7  1  0
 21 16  1  0
 32 22  1  0
 31 25  1  0
  3 33  1  0
  4 34  1  0
  4 35  1  0
  8 36  1  0
  8 37  1  0
  9 38  1  0
  9 39  1  0
 10 40  1  0
 10 41  1  0
 11 42  1  1
 14 43  1  0
 15 44  1  0
 15 45  1  0
 17 46  1  0
 18 47  1  0
 19 48  1  0
 20 49  1  0
 21 50  1  0
 23 51  1  0
 24 52  1  0
 26 53  1  0
 29 54  1  0
 30 55  1  0
M  END
>  <smiles>  (19) 
O=C(NCC(=O)N1CCC[C@H]1C(=O)NCc1ccccc1)c1ccc2cc(F)ccc2n1

>  <score_type>  (19) 
oracle

>  <origin>  (19) 
autodockgpu

>  <m_score__min__energy>  (19) 
-8.7899999999999991

>  <m_primary>  (19) 
energy

>  <meeko>  (19) 
{"free_energy": -8.34, "intermolecular_energy": -10.42, "internal_energy": -2.48, "cluster_size": 4, "cluster_id": 1, "rank_in_cluster": 4}

>  <energy>  (19) 
-7.29

>  <cluster_rmsd>  (19) 
0.0

>  <rmsd>  (19) 
270.37

>  <cluster>  (19) 
5

$$$$

     RDKit          3D

 55 58  0  0  0  0  0  0  0  0999 V2000
  138.0050   70.9970  221.5960 O   0  0  0  0  0  0  0  0  0  0  0  0
  138.6200   71.7050  222.4200 C   0  0  0  0  0  0  0  0  0  0  0  0
  138.7000   73.1110  222.2250 N   0  0  0  0  0  0  0  0  0  0  0  0
  138.0680   73.7250  221.0730 C   0  0  0  0  0  0  0  0  0  0  0  0
  138.0990   75.2000  221.2420 C   0  0  0  0  0  0  0  0  0  0  0  0
  137.0230   75.8720  221.3100 O   0  0  0  0  0  0  0  0  0  0  0  0
  139.3830   75.8530  221.3280 N   0  0  0  0  0  0  0  0  0  0  0  0
  139.7950   76.8250  222.3420 C   0  0  0  0  0  0  0  0  0  0  0  0
  141.0000   77.4680  221.7280 C   0  0  0  0  0  0  0  0  0  0  0  0
  141.0830   77.0090  220.2950 C   0  0  0  0  0  0  0  0  0  0  0  0
  140.4680   75.6310  220.3910 C   0  0  1  0  0  0  0  0  0  0  0  0
  141.4960   74.7090  220.9710 C   0  0  0  0  0  0  0  0  0  0  0  0
  141.1740   74.0330  221.9800 O   0  0  0  0  0  0  0  0  0  0  0  0
  142.7800   74.6310  220.3730 N   0  0  0  0  0  0  0  0  0  0  0  0
  143.8470   73.7840  220.8410 C   0  0  0  0  0  0  0  0  0  0  0  0
  143.7630   72.3870  220.3230 C   0  0  0  0  0  0  0  0  0  0  0  0
  142.5570   71.6840  220.4190 C   0  0  0  0  0  0  0  0  0  0  0  0
  142.4540   70.3950  219.9520 C   0  0  0  0  0  0  0  0  0  0  0  0
  143.5210   69.7390  219.3720 C   0  0  0  0  0  0  0  0  0  0  0  0
  144.7060   70.4390  219.2820 C   0  0  0  0  0  0  0  0  0  0  0  0
  144.8170   71.7290  219.7470 C   0  0  0  0  0  0  0  0  0  0  0  0
  139.2850   71.1410  223.6130 C   0  0  0  0  0  0  0  0  0  0  0  0
  140.3280   71.8240  224.2150 C   0  0  0  0  0  0  0  0  0  0  0  0
  140.9870   71.3450  225.3340 C   0  0  0  0  0  0  0  0  0  0  0  0
  140.5530   70.1300  225.8380 C   0  0  0  0  0  0  0  0  0  0  0  0
  141.1820   69.6020  226.9640 C   0  0  0  0  0  0  0  0  0  0  0  0
  140.7400   68.3930  227.4530 C   0  0  0  0  0  0  0  0  0  0  0  0
  141.3360   67.8610  228.5480 F   0  0  0  0  0  0  0  0  0  0  0  0
  139.7000   67.7190  226.8480 C   0  0  0  0  0  0  0  0  0  0  0  0
  139.0670   68.2240  225.7370 C   0  0  0  0  0  0  0  0  0  0  0  0
  139.5040   69.4340  225.2400 C   0  0  0  0  0  0  0  0  0  0  0  0
  138.8940   69.9570  224.1400 N   0  0  0  0  0  0  0  0  0  0  0  0
  139.2140   73.7240  222.9060 H   0  0  0  0  0  0  0  0  0  0  0  0
  138.6130   73.4457  220.1592 H   0  0  0  0  0  0  0  0  0  0  0  0
  137.0271   73.3795  220.9884 H   0  0  0  0  0  0  0  0  0  0  0  0
  139.0022   77.5655  222.5241 H   0  0  0  0  0  0  0  0  0  0  0  0
  140.0013   76.3671  223.3207 H   0  0  0  0  0  0  0  0  0  0  0  0
  140.9008   78.5629  221.7657 H   0  0  0  0  0  0  0  0  0  0  0  0
  141.9101   77.1848  222.2770 H   0  0  0  0  0  0  0  0  0  0  0  0
  140.5029   77.6636  219.6279 H   0  0  0  0  0  0  0  0  0  0  0  0
  142.0998   77.0210  219.8756 H   0  0  0  0  0  0  0  0  0  0  0  0
  140.1299   75.1913  219.4411 H   0  0  0  0  0  0  0  0  0  0  0  0
  142.9390   75.2470  219.5250 H   0  0  0  0  0  0  0  0  0  0  0  0
  144.8047   74.2188  220.5187 H   0  0  0  0  0  0  0  0  0  0  0  0
  143.7635   73.7305  221.9365 H   0  0  0  0  0  0  0  0  0  0  0  0
  141.6805   72.1686  220.8738 H   0  0  0  0  0  0  0  0  0  0  0  0
  141.4915   69.8703  220.0434 H   0  0  0  0  0  0  0  0  0  0  0  0
  143.4306   68.7079  218.9996 H   0  0  0  0  0  0  0  0  0  0  0  0
  145.5829   69.9545  218.8278 H   0  0  0  0  0  0  0  0  0  0  0  0
  145.7823   72.2481  219.6532 H   0  0  0  0  0  0  0  0  0  0  0  0
  140.6458   72.7861  223.7868 H   0  0  0  0  0  0  0  0  0  0  0  0
  141.8139   71.9013  225.7997 H   0  0  0  0  0  0  0  0  0  0  0  0
  142.0108   70.1376  227.4500 H   0  0  0  0  0  0  0  0  0  0  0  0
  139.3695   66.7557  227.2637 H   0  0  0  0  0  0  0  0  0  0  0  0
  138.2384   67.6803  225.2597 H   0  0  0  0  0  0  0  0  0  0  0  0
  1  2  2  0
  2  3  1  0
  3  4  1  0
  4  5  1  0
  5  6  2  0
  5  7  1  0
  7  8  1  0
  8  9  1  0
  9 10  1  0
 10 11  1  0
 11 12  1  0
 12 13  2  0
 12 14  1  0
 14 15  1  0
 15 16  1  0
 16 17  2  0
 17 18  1  0
 18 19  2  0
 19 20  1  0
 20 21  2  0
  2 22  1  0
 22 23  2  0
 23 24  1  0
 24 25  2  0
 25 26  1  0
 26 27  2  0
 27 28  1  0
 27 29  1  0
 29 30  2  0
 30 31  1  0
 31 32  2  0
 11  7  1  0
 21 16  1  0
 32 22  1  0
 31 25  1  0
  3 33  1  0
  4 34  1  0
  4 35  1  0
  8 36  1  0
  8 37  1  0
  9 38  1  0
  9 39  1  0
 10 40  1  0
 10 41  1  0
 11 42  1  6
 14 43  1  0
 15 44  1  0
 15 45  1  0
 17 46  1  0
 18 47  1  0
 19 48  1  0
 20 49  1  0
 21 50  1  0
 23 51  1  0
 24 52  1  0
 26 53  1  0
 29 54  1  0
 30 55  1  0
M  END
>  <smiles>  (20) 
O=C(NCC(=O)N1CCC[C@H]1C(=O)NCc1ccccc1)c1ccc2cc(F)ccc2n1

>  <score_type>  (20) 
oracle

>  <origin>  (20) 
autodockgpu

>  <m_score__min__energy>  (20) 
-8.7899999999999991

>  <m_primary>  (20) 
energy

>  <meeko>  (20) 
{"free_energy": -7.29, "intermolecular_energy": -9.38, "internal_energy": -2.67, "cluster_size": 1, "cluster_id": 5, "rank_in_cluster": 1}

>  <energy>  (20) 
-6.8

>  <cluster_rmsd>  (20) 
0.0

>  <rmsd>  (20) 
271.11

>  <cluster>  (20) 
6

$$$$
