GJSDZOHBAHKEKD-XMMPIXPANA-N
     RDKit          3D

 54 58  0  0  0  0  0  0  0  0999 V2000
  138.6280   82.6180  218.0520 O   0  0  0  0  0  0  0  0  0  0  0  0
  138.8240   81.4260  218.9460 S   0  0  0  0  0  0  0  0  0  0  0  0
  138.6160   80.1890  218.1180 O   0  0  0  0  0  0  0  0  0  0  0  0
  137.5760   81.4950  220.2400 C   0  0  0  0  0  0  0  0  0  0  0  0
  137.9740   80.7080  221.4630 C   0  0  0  0  0  0  0  0  0  0  0  0
  138.1510   81.3470  222.7020 C   0  0  0  0  0  0  0  0  0  0  0  0
  138.5570   80.6160  223.8220 C   0  0  0  0  0  0  0  0  0  0  0  0
  138.7940   79.2430  223.7150 C   0  0  0  0  0  0  0  0  0  0  0  0
  138.6380   78.5860  222.4800 C   0  0  0  0  0  0  0  0  0  0  0  0
  138.8580   77.0970  222.3730 C   0  0  0  0  0  0  0  0  0  0  0  0
  137.9910   76.4160  223.2130 F   0  0  0  0  0  0  0  0  0  0  0  0
  138.6330   76.6920  221.0670 F   0  0  0  0  0  0  0  0  0  0  0  0
  140.1580   76.7660  222.7320 F   0  0  0  0  0  0  0  0  0  0  0  0
  138.1930   79.3210  221.3660 C   0  0  0  0  0  0  0  0  0  0  0  0
  140.4710   81.4330  219.5470 N   0  0  0  0  0  0  0  0  0  0  0  0
  140.9020   82.7290  220.1110 C   0  0  0  0  0  0  0  0  0  0  0  0
  140.8140   82.7720  221.6320 C   0  0  0  0  0  0  0  0  0  0  0  0
  141.5600   81.6210  222.2290 C   0  0  0  0  0  0  0  0  0  0  0  0
  142.1590   81.7570  223.4920 C   0  0  0  0  0  0  0  0  0  0  0  0
  142.7880   80.6650  224.0970 C   0  0  0  0  0  0  0  0  0  0  0  0
  142.8020   79.4250  223.4580 C   0  0  0  0  0  0  0  0  0  0  0  0
  142.1940   79.2770  222.2090 C   0  0  0  0  0  0  0  0  0  0  0  0
  141.5900   80.3780  221.5660 C   0  0  0  0  0  0  0  0  0  0  0  0
  140.8640   80.1800  220.2420 C   0  0  2  0  0  0  0  0  0  0  0  0
  141.6740   79.3430  219.2840 C   0  0  0  0  0  0  0  0  0  0  0  0
  142.3650   79.8220  218.1710 C   0  0  0  0  0  0  0  0  0  0  0  0
  143.0480   78.8200  217.5700 N   0  0  0  0  0  0  0  0  0  0  0  0
  142.8010   77.7140  218.2960 C   0  0  0  0  0  0  0  0  0  0  0  0
  143.3050   76.4310  218.0760 C   0  0  0  0  0  0  0  0  0  0  0  0
  142.9310   75.4110  218.9740 C   0  0  0  0  0  0  0  0  0  0  0  0
  142.0640   75.6920  220.0550 C   0  0  0  0  0  0  0  0  0  0  0  0
  141.5680   76.9950  220.2510 C   0  0  0  0  0  0  0  0  0  0  0  0
  141.9660   77.9900  219.3510 C   0  0  0  0  0  0  0  0  0  0  0  0
  137.4245   82.5454  220.5294 H   0  0  0  0  0  0  0  0  0  0  0  0
  136.6526   81.0506  219.8403 H   0  0  0  0  0  0  0  0  0  0  0  0
  137.9691   82.4282  222.7909 H   0  0  0  0  0  0  0  0  0  0  0  0
  138.6902   81.1224  224.7894 H   0  0  0  0  0  0  0  0  0  0  0  0
  139.1047   78.6716  224.6021 H   0  0  0  0  0  0  0  0  0  0  0  0
  138.0145   78.8068  220.4101 H   0  0  0  0  0  0  0  0  0  0  0  0
  141.9454   82.9114  219.8144 H   0  0  0  0  0  0  0  0  0  0  0  0
  140.2243   83.5016  219.7189 H   0  0  0  0  0  0  0  0  0  0  0  0
  141.2509   83.7143  221.9941 H   0  0  0  0  0  0  0  0  0  0  0  0
  139.7574   82.7066  221.9308 H   0  0  0  0  0  0  0  0  0  0  0  0
  142.1331   82.7281  224.0080 H   0  0  0  0  0  0  0  0  0  0  0  0
  143.2722   80.7835  225.0776 H   0  0  0  0  0  0  0  0  0  0  0  0
  143.2915   78.5644  223.9373 H   0  0  0  0  0  0  0  0  0  0  0  0
  142.1861   78.2910  221.7214 H   0  0  0  0  0  0  0  0  0  0  0  0
  139.9373   79.6626  220.5309 H   0  0  0  0  0  0  0  0  0  0  0  0
  142.3561   80.8676  217.8296 H   0  0  0  0  0  0  0  0  0  0  0  0
  143.6520   78.8980  216.7210 H   0  0  0  0  0  0  0  0  0  0  0  0
  143.9736   76.2224  217.2278 H   0  0  0  0  0  0  0  0  0  0  0  0
  143.3159   74.3902  218.8330 H   0  0  0  0  0  0  0  0  0  0  0  0
  141.7752   74.8874  220.7473 H   0  0  0  0  0  0  0  0  0  0  0  0
  140.8888   77.2238  221.0855 H   0  0  0  0  0  0  0  0  0  0  0  0
  1  2  2  0
  2  3  2  0
  2  4  1  0
  4  5  1  0
  5  6  2  0
  6  7  1  0
  7  8  2  0
  8  9  1  0
  9 10  1  0
 10 11  1  0
 10 12  1  0
 10 13  1  0
  9 14  2  0
  2 15  1  0
 15 16  1  0
 16 17  1  0
 17 18  1  0
 18 19  2  0
 19 20  1  0
 20 21  2  0
 21 22  1  0
 22 23  2  0
 23 24  1  0
 24 25  1  0
 25 26  2  0
 26 27  1  0
 27 28  1  0
 28 29  2  0
 29 30  1  0
 30 31  2  0
 31 32  1  0
 32 33  2  0
 14  5  1  0
 24 15  1  0
 33 25  1  0
 23 18  1  0
 33 28  1  0
  4 34  1  0
  4 35  1  0
  6 36  1  0
  7 37  1  0
  8 38  1  0
 14 39  1  0
 16 40  1  0
 16 41  1  0
 17 42  1  0
 17 43  1  0
 19 44  1  0
 20 45  1  0
 21 46  1  0
 22 47  1  0
 24 48  1  1
 26 49  1  0
 27 50  1  0
 29 51  1  0
 30 52  1  0
 31 53  1  0
 32 54  1  0
M  END
>  <UniqueID>  (1) 
201

>  <SMILES>  (1) 
O=S(=O)(Cc1cccc(C(F)(F)F)c1)N1CCc2ccccc2[C@@H]1c1c[nH]c2ccccc12

>  <Energy>  (1) 
90.1711342313889

>  <Genealogy>  (1) 
O=S(=O)(Cc1cccc(C(F)(F)F)c1)N1CCc2ccccc2[C@@H]1c1c[nH]c2ccccc12 (3D coordinates assigned)
O=S(=O)(Cc1cccc(C(F)(F)F)c1)N1CCc2ccccc2[C@@H]1c1c[nH]c2ccccc12 (nonaromatic ring conformer: 90.1711342313889 kcal/mol)

>  <smiles>  (1) 
O=S(=O)(Cc1cccc(C(F)(F)F)c1)N1CCc2ccccc2[C@@H]1c1c[nH]c2ccccc12

>  <score_type>  (1) 
oracle

>  <origin>  (1) 
autodockgpu

>  <m_score__min__energy>  (1) 
-8.0600000000000005

>  <m_primary>  (1) 
energy

>  <meeko>  (1) 
{"free_energy": -6.87, "intermolecular_energy": -8.36, "internal_energy": -3.12, "cluster_size": 3, "cluster_id": 2, "rank_in_cluster": 3}

>  <energy>  (1) 
-8.06

>  <cluster_rmsd>  (1) 
0.0

>  <rmsd>  (1) 
270.35

>  <cluster>  (1) 
1

$$$$
GJSDZOHBAHKEKD-XMMPIXPANA-N
     RDKit          3D

 54 58  0  0  0  0  0  0  0  0999 V2000
  138.4150   77.5100  218.9050 O   0  0  0  0  0  0  0  0  0  0  0  0
  138.1200   76.9580  220.2710 S   0  0  0  0  0  0  0  0  0  0  0  0
  137.3880   75.6580  220.0950 O   0  0  0  0  0  0  0  0  0  0  0  0
  137.0550   78.1320  221.1230 C   0  0  0  0  0  0  0  0  0  0  0  0
  137.8400   79.2060  221.8330 C   0  0  0  0  0  0  0  0  0  0  0  0
  138.0170   79.1630  223.2270 C   0  0  0  0  0  0  0  0  0  0  0  0
  138.7130   80.1820  223.8820 C   0  0  0  0  0  0  0  0  0  0  0  0
  139.2350   81.2550  223.1540 C   0  0  0  0  0  0  0  0  0  0  0  0
  139.0550   81.3260  221.7600 C   0  0  0  0  0  0  0  0  0  0  0  0
  139.6500   82.4660  220.9700 C   0  0  0  0  0  0  0  0  0  0  0  0
  140.7870   82.9500  221.5970 F   0  0  0  0  0  0  0  0  0  0  0  0
  139.9880   82.0190  219.7020 F   0  0  0  0  0  0  0  0  0  0  0  0
  138.7420   83.5090  220.8550 F   0  0  0  0  0  0  0  0  0  0  0  0
  138.3850   80.2780  221.1030 C   0  0  0  0  0  0  0  0  0  0  0  0
  139.6350   76.6460  221.0950 N   0  0  0  0  0  0  0  0  0  0  0  0
  139.5930   75.4950  222.0210 C   0  0  0  0  0  0  0  0  0  0  0  0
  140.1690   74.2230  221.4120 C   0  0  0  0  0  0  0  0  0  0  0  0
  141.5480   74.4750  220.8890 C   0  0  0  0  0  0  0  0  0  0  0  0
  142.4910   73.4340  220.8780 C   0  0  0  0  0  0  0  0  0  0  0  0
  143.7560   73.6330  220.3170 C   0  0  0  0  0  0  0  0  0  0  0  0
  144.0790   74.8620  219.7410 C   0  0  0  0  0  0  0  0  0  0  0  0
  143.1400   75.8960  219.7320 C   0  0  0  0  0  0  0  0  0  0  0  0
  141.8730   75.7260  220.3300 C   0  0  0  0  0  0  0  0  0  0  0  0
  140.8360   76.8370  220.2410 C   0  0  2  0  0  0  0  0  0  0  0  0
  141.4340   78.1830  220.5630 C   0  0  0  0  0  0  0  0  0  0  0  0
  141.7600   79.1720  219.6350 C   0  0  0  0  0  0  0  0  0  0  0  0
  142.2060   80.2840  220.2620 N   0  0  0  0  0  0  0  0  0  0  0  0
  142.1590   80.0120  221.5800 C   0  0  0  0  0  0  0  0  0  0  0  0
  142.5030   80.8650  222.6290 C   0  0  0  0  0  0  0  0  0  0  0  0
  142.3610   80.3820  223.9460 C   0  0  0  0  0  0  0  0  0  0  0  0
  141.8920   79.0700  224.1810 C   0  0  0  0  0  0  0  0  0  0  0  0
  141.5550   78.2300  223.1020 C   0  0  0  0  0  0  0  0  0  0  0  0
  141.6940   78.7400  221.8060 C   0  0  0  0  0  0  0  0  0  0  0  0
  136.3917   78.6076  220.3856 H   0  0  0  0  0  0  0  0  0  0  0  0
  136.4815   77.5778  221.8806 H   0  0  0  0  0  0  0  0  0  0  0  0
  137.6053   78.3226  223.8051 H   0  0  0  0  0  0  0  0  0  0  0  0
  138.8504   80.1398  224.9726 H   0  0  0  0  0  0  0  0  0  0  0  0
  139.7903   82.0494  223.6742 H   0  0  0  0  0  0  0  0  0  0  0  0
  138.2862   80.2969  220.0076 H   0  0  0  0  0  0  0  0  0  0  0  0
  140.1731   75.7472  222.9209 H   0  0  0  0  0  0  0  0  0  0  0  0
  138.5365   75.2992  222.2566 H   0  0  0  0  0  0  0  0  0  0  0  0
  140.2109   73.4388  222.1822 H   0  0  0  0  0  0  0  0  0  0  0  0
  139.5247   73.9012  220.5806 H   0  0  0  0  0  0  0  0  0  0  0  0
  142.2328   72.4572  221.3130 H   0  0  0  0  0  0  0  0  0  0  0  0
  144.4970   72.8202  220.3297 H   0  0  0  0  0  0  0  0  0  0  0  0
  145.0723   75.0165  219.2943 H   0  0  0  0  0  0  0  0  0  0  0  0
  143.3910   76.8540  219.2532 H   0  0  0  0  0  0  0  0  0  0  0  0
  140.5025   76.7944  219.1936 H   0  0  0  0  0  0  0  0  0  0  0  0
  141.6672   79.0626  218.5444 H   0  0  0  0  0  0  0  0  0  0  0  0
  142.5130   81.1760  219.8110 H   0  0  0  0  0  0  0  0  0  0  0  0
  142.8734   81.8824  222.4347 H   0  0  0  0  0  0  0  0  0  0  0  0
  142.6171   81.0310  224.7964 H   0  0  0  0  0  0  0  0  0  0  0  0
  141.7895   78.7026  225.2127 H   0  0  0  0  0  0  0  0  0  0  0  0
  141.1938   77.2051  223.2725 H   0  0  0  0  0  0  0  0  0  0  0  0
  1  2  2  0
  2  3  2  0
  2  4  1  0
  4  5  1  0
  5  6  2  0
  6  7  1  0
  7  8  2  0
  8  9  1  0
  9 10  1  0
 10 11  1  0
 10 12  1  0
 10 13  1  0
  9 14  2  0
  2 15  1  0
 15 16  1  0
 16 17  1  0
 17 18  1  0
 18 19  2  0
 19 20  1  0
 20 21  2  0
 21 22  1  0
 22 23  2  0
 23 24  1  0
 24 25  1  0
 25 26  2  0
 26 27  1  0
 27 28  1  0
 28 29  2  0
 29 30  1  0
 30 31  2  0
 31 32  1  0
 32 33  2  0
 14  5  1  0
 24 15  1  0
 33 25  1  0
 23 18  1  0
 33 28  1  0
  4 34  1  0
  4 35  1  0
  6 36  1  0
  7 37  1  0
  8 38  1  0
 14 39  1  0
 16 40  1  0
 16 41  1  0
 17 42  1  0
 17 43  1  0
 19 44  1  0
 20 45  1  0
 21 46  1  0
 22 47  1  0
 24 48  1  6
 26 49  1  0
 27 50  1  0
 29 51  1  0
 30 52  1  0
 31 53  1  0
 32 54  1  0
M  END
>  <UniqueID>  (2) 
201

>  <SMILES>  (2) 
O=S(=O)(Cc1cccc(C(F)(F)F)c1)N1CCc2ccccc2[C@@H]1c1c[nH]c2ccccc12

>  <Energy>  (2) 
90.1711342313889

>  <Genealogy>  (2) 
O=S(=O)(Cc1cccc(C(F)(F)F)c1)N1CCc2ccccc2[C@@H]1c1c[nH]c2ccccc12 (3D coordinates assigned)
O=S(=O)(Cc1cccc(C(F)(F)F)c1)N1CCc2ccccc2[C@@H]1c1c[nH]c2ccccc12 (nonaromatic ring conformer: 90.1711342313889 kcal/mol)

>  <smiles>  (2) 
O=S(=O)(Cc1cccc(C(F)(F)F)c1)N1CCc2ccccc2[C@@H]1c1c[nH]c2ccccc12

>  <score_type>  (2) 
oracle

>  <origin>  (2) 
autodockgpu

>  <m_score__min__energy>  (2) 
-8.0600000000000005

>  <m_primary>  (2) 
energy

>  <meeko>  (2) 
{"free_energy": -6.67, "intermolecular_energy": -8.17, "internal_energy": -3.37, "cluster_size": 16, "cluster_id": 3, "rank_in_cluster": 10}

>  <energy>  (2) 
-6.91

>  <cluster_rmsd>  (2) 
0.0

>  <rmsd>  (2) 
270.82

>  <cluster>  (2) 
2

$$$$
GJSDZOHBAHKEKD-XMMPIXPANA-N
     RDKit          3D

 54 58  0  0  0  0  0  0  0  0999 V2000
  138.4080   77.5570  218.8740 O   0  0  0  0  0  0  0  0  0  0  0  0
  138.1140   76.9860  220.2320 S   0  0  0  0  0  0  0  0  0  0  0  0
  137.3950   75.6800  220.0370 O   0  0  0  0  0  0  0  0  0  0  0  0
  137.0340   78.1390  221.0920 C   0  0  0  0  0  0  0  0  0  0  0  0
  137.8030   79.2260  221.7990 C   0  0  0  0  0  0  0  0  0  0  0  0
  137.9770   79.1940  223.1940 C   0  0  0  0  0  0  0  0  0  0  0  0
  138.6590   80.2250  223.8440 C   0  0  0  0  0  0  0  0  0  0  0  0
  139.1710   81.2990  223.1110 C   0  0  0  0  0  0  0  0  0  0  0  0
  138.9950   81.3600  221.7160 C   0  0  0  0  0  0  0  0  0  0  0  0
  139.5800   82.5010  220.9210 C   0  0  0  0  0  0  0  0  0  0  0  0
  138.6490   83.5180  220.7740 F   0  0  0  0  0  0  0  0  0  0  0  0
  140.6920   82.9990  221.5830 F   0  0  0  0  0  0  0  0  0  0  0  0
  139.9580   82.0750  219.6560 F   0  0  0  0  0  0  0  0  0  0  0  0
  138.3400   80.2990  221.0630 C   0  0  0  0  0  0  0  0  0  0  0  0
  139.6280   76.6790  221.0590 N   0  0  0  0  0  0  0  0  0  0  0  0
  139.5910   75.5240  221.9800 C   0  0  0  0  0  0  0  0  0  0  0  0
  140.1760   74.2580  221.3670 C   0  0  0  0  0  0  0  0  0  0  0  0
  141.5550   74.5200  220.8490 C   0  0  0  0  0  0  0  0  0  0  0  0
  142.5040   73.4850  220.8360 C   0  0  0  0  0  0  0  0  0  0  0  0
  143.7690   73.6930  220.2790 C   0  0  0  0  0  0  0  0  0  0  0  0
  144.0860   74.9270  219.7090 C   0  0  0  0  0  0  0  0  0  0  0  0
  143.1410   75.9560  219.7010 C   0  0  0  0  0  0  0  0  0  0  0  0
  141.8740   75.7750  220.2950 C   0  0  0  0  0  0  0  0  0  0  0  0
  140.8310   76.8810  220.2090 C   0  0  2  0  0  0  0  0  0  0  0  0
  141.4200   78.2290  220.5380 C   0  0  0  0  0  0  0  0  0  0  0  0
  141.7520   79.2200  219.6140 C   0  0  0  0  0  0  0  0  0  0  0  0
  142.1860   80.3330  220.2460 N   0  0  0  0  0  0  0  0  0  0  0  0
  142.1260   80.0600  221.5630 C   0  0  0  0  0  0  0  0  0  0  0  0
  142.4550   80.9140  222.6170 C   0  0  0  0  0  0  0  0  0  0  0  0
  142.3010   80.4300  223.9320 C   0  0  0  0  0  0  0  0  0  0  0  0
  141.8340   79.1160  224.1610 C   0  0  0  0  0  0  0  0  0  0  0  0
  141.5120   78.2750  223.0780 C   0  0  0  0  0  0  0  0  0  0  0  0
  141.6640   78.7860  221.7840 C   0  0  0  0  0  0  0  0  0  0  0  0
  136.3577   78.6036  220.3593 H   0  0  0  0  0  0  0  0  0  0  0  0
  136.4757   77.5732  221.8524 H   0  0  0  0  0  0  0  0  0  0  0  0
  137.5738   78.3524  223.7764 H   0  0  0  0  0  0  0  0  0  0  0  0
  138.7934   80.1916  224.9352 H   0  0  0  0  0  0  0  0  0  0  0  0
  139.7156   82.1027  223.6282 H   0  0  0  0  0  0  0  0  0  0  0  0
  138.2469   80.3084  219.9670 H   0  0  0  0  0  0  0  0  0  0  0  0
  140.1676   75.7759  222.8822 H   0  0  0  0  0  0  0  0  0  0  0  0
  138.5352   75.3208  222.2124 H   0  0  0  0  0  0  0  0  0  0  0  0
  140.2201   73.4706  222.1339 H   0  0  0  0  0  0  0  0  0  0  0  0
  139.5358   73.9363  220.5323 H   0  0  0  0  0  0  0  0  0  0  0  0
  142.2504   72.5051  221.2666 H   0  0  0  0  0  0  0  0  0  0  0  0
  144.5146   72.8843  220.2899 H   0  0  0  0  0  0  0  0  0  0  0  0
  145.0797   75.0893  219.2661 H   0  0  0  0  0  0  0  0  0  0  0  0
  143.3873   76.9174  219.2266 H   0  0  0  0  0  0  0  0  0  0  0  0
  140.5007   76.8413  219.1605 H   0  0  0  0  0  0  0  0  0  0  0  0
  141.6717   79.1107  218.5224 H   0  0  0  0  0  0  0  0  0  0  0  0
  142.4950   81.2260  219.7990 H   0  0  0  0  0  0  0  0  0  0  0  0
  142.8230   81.9331  222.4273 H   0  0  0  0  0  0  0  0  0  0  0  0
  142.5459   81.0793  224.7854 H   0  0  0  0  0  0  0  0  0  0  0  0
  141.7213   78.7477  225.1914 H   0  0  0  0  0  0  0  0  0  0  0  0
  141.1523   77.2488  223.2441 H   0  0  0  0  0  0  0  0  0  0  0  0
  1  2  2  0
  2  3  2  0
  2  4  1  0
  4  5  1  0
  5  6  2  0
  6  7  1  0
  7  8  2  0
  8  9  1  0
  9 10  1  0
 10 11  1  0
 10 12  1  0
 10 13  1  0
  9 14  2  0
  2 15  1  0
 15 16  1  0
 16 17  1  0
 17 18  1  0
 18 19  2  0
 19 20  1  0
 20 21  2  0
 21 22  1  0
 22 23  2  0
 23 24  1  0
 24 25  1  0
 25 26  2  0
 26 27  1  0
 27 28  1  0
 28 29  2  0
 29 30  1  0
 30 31  2  0
 31 32  1  0
 32 33  2  0
 14  5  1  0
 24 15  1  0
 33 25  1  0
 23 18  1  0
 33 28  1  0
  4 34  1  0
  4 35  1  0
  6 36  1  0
  7 37  1  0
  8 38  1  0
 14 39  1  0
 16 40  1  0
 16 41  1  0
 17 42  1  0
 17 43  1  0
 19 44  1  0
 20 45  1  0
 21 46  1  0
 22 47  1  0
 24 48  1  6
 26 49  1  0
 27 50  1  0
 29 51  1  0
 30 52  1  0
 31 53  1  0
 32 54  1  0
M  END
>  <UniqueID>  (3) 
201

>  <SMILES>  (3) 
O=S(=O)(Cc1cccc(C(F)(F)F)c1)N1CCc2ccccc2[C@@H]1c1c[nH]c2ccccc12

>  <Energy>  (3) 
90.1711342313889

>  <Genealogy>  (3) 
O=S(=O)(Cc1cccc(C(F)(F)F)c1)N1CCc2ccccc2[C@@H]1c1c[nH]c2ccccc12 (3D coordinates assigned)
O=S(=O)(Cc1cccc(C(F)(F)F)c1)N1CCc2ccccc2[C@@H]1c1c[nH]c2ccccc12 (nonaromatic ring conformer: 90.1711342313889 kcal/mol)

>  <smiles>  (3) 
O=S(=O)(Cc1cccc(C(F)(F)F)c1)N1CCc2ccccc2[C@@H]1c1c[nH]c2ccccc12

>  <score_type>  (3) 
oracle

>  <origin>  (3) 
autodockgpu

>  <m_score__min__energy>  (3) 
-8.0600000000000005

>  <m_primary>  (3) 
energy

>  <meeko>  (3) 
{"free_energy": -6.68, "intermolecular_energy": -8.17, "internal_energy": -3.38, "cluster_size": 16, "cluster_id": 3, "rank_in_cluster": 9}

>  <energy>  (3) 
-6.9

>  <cluster_rmsd>  (3) 
0.05

>  <rmsd>  (3) 
270.82

>  <cluster>  (3) 
2

$$$$
GJSDZOHBAHKEKD-XMMPIXPANA-N
     RDKit          3D

 54 58  0  0  0  0  0  0  0  0999 V2000
  138.4290   77.5160  218.8310 O   0  0  0  0  0  0  0  0  0  0  0  0
  138.1160   76.9950  220.2050 S   0  0  0  0  0  0  0  0  0  0  0  0
  137.3700   75.6990  220.0470 O   0  0  0  0  0  0  0  0  0  0  0  0
  137.0570   78.1980  221.0220 C   0  0  0  0  0  0  0  0  0  0  0  0
  137.8470   79.2470  221.7620 C   0  0  0  0  0  0  0  0  0  0  0  0
  138.0340   79.1590  223.1530 C   0  0  0  0  0  0  0  0  0  0  0  0
  138.7360   80.1560  223.8350 C   0  0  0  0  0  0  0  0  0  0  0  0
  139.2540   81.2510  223.1390 C   0  0  0  0  0  0  0  0  0  0  0  0
  139.0650   81.3670  221.7490 C   0  0  0  0  0  0  0  0  0  0  0  0
  139.6560   82.5320  220.9920 C   0  0  0  0  0  0  0  0  0  0  0  0
  140.7880   83.0050  221.6360 F   0  0  0  0  0  0  0  0  0  0  0  0
  140.0020   82.1200  219.7140 F   0  0  0  0  0  0  0  0  0  0  0  0
  138.7420   83.5720  220.9010 F   0  0  0  0  0  0  0  0  0  0  0  0
  138.3890   80.3410  221.0630 C   0  0  0  0  0  0  0  0  0  0  0  0
  139.6190   76.6820  221.0490 N   0  0  0  0  0  0  0  0  0  0  0  0
  139.5650   75.5280  221.9710 C   0  0  0  0  0  0  0  0  0  0  0  0
  140.1510   74.2580  221.3660 C   0  0  0  0  0  0  0  0  0  0  0  0
  141.5370   74.5130  220.8630 C   0  0  0  0  0  0  0  0  0  0  0  0
  142.4810   73.4730  220.8630 C   0  0  0  0  0  0  0  0  0  0  0  0
  143.7530   73.6740  220.3200 C   0  0  0  0  0  0  0  0  0  0  0  0
  144.0830   74.9050  219.7520 C   0  0  0  0  0  0  0  0  0  0  0  0
  143.1430   75.9390  219.7330 C   0  0  0  0  0  0  0  0  0  0  0  0
  141.8690   75.7660  220.3120 C   0  0  0  0  0  0  0  0  0  0  0  0
  140.8320   76.8760  220.2130 C   0  0  2  0  0  0  0  0  0  0  0  0
  141.4240   78.2220  220.5470 C   0  0  0  0  0  0  0  0  0  0  0  0
  141.7550   79.2170  219.6270 C   0  0  0  0  0  0  0  0  0  0  0  0
  142.1930   80.3260  220.2640 N   0  0  0  0  0  0  0  0  0  0  0  0
  142.1360   80.0470  221.5800 C   0  0  0  0  0  0  0  0  0  0  0  0
  142.4690   80.8940  222.6370 C   0  0  0  0  0  0  0  0  0  0  0  0
  142.3180   80.4040  223.9500 C   0  0  0  0  0  0  0  0  0  0  0  0
  141.8500   79.0900  224.1730 C   0  0  0  0  0  0  0  0  0  0  0  0
  141.5240   78.2540  223.0870 C   0  0  0  0  0  0  0  0  0  0  0  0
  141.6720   78.7720  221.7960 C   0  0  0  0  0  0  0  0  0  0  0  0
  136.4343   78.6942  220.2630 H   0  0  0  0  0  0  0  0  0  0  0  0
  136.4414   77.6595  221.7576 H   0  0  0  0  0  0  0  0  0  0  0  0
  137.6255   78.3009  223.7069 H   0  0  0  0  0  0  0  0  0  0  0  0
  138.8812   80.0786  224.9226 H   0  0  0  0  0  0  0  0  0  0  0  0
  139.8134   82.0278  223.6809 H   0  0  0  0  0  0  0  0  0  0  0  0
  138.2833   80.3949  219.9694 H   0  0  0  0  0  0  0  0  0  0  0  0
  140.1321   75.7779  222.8798 H   0  0  0  0  0  0  0  0  0  0  0  0
  138.5055   75.3305  222.1911 H   0  0  0  0  0  0  0  0  0  0  0  0
  140.1830   73.4715  222.1343 H   0  0  0  0  0  0  0  0  0  0  0  0
  139.5186   73.9381  220.5247 H   0  0  0  0  0  0  0  0  0  0  0  0
  142.2178   72.4952  221.2926 H   0  0  0  0  0  0  0  0  0  0  0  0
  144.4942   72.8615  220.3404 H   0  0  0  0  0  0  0  0  0  0  0  0
  145.0822   75.0615  219.3195 H   0  0  0  0  0  0  0  0  0  0  0  0
  143.3999   76.8988  219.2610 H   0  0  0  0  0  0  0  0  0  0  0  0
  140.5130   76.8352  219.1610 H   0  0  0  0  0  0  0  0  0  0  0  0
  141.6713   79.1136  218.5351 H   0  0  0  0  0  0  0  0  0  0  0  0
  142.5010   81.2210  219.8210 H   0  0  0  0  0  0  0  0  0  0  0  0
  142.8382   81.9134  222.4515 H   0  0  0  0  0  0  0  0  0  0  0  0
  142.5661   81.0487  224.8061 H   0  0  0  0  0  0  0  0  0  0  0  0
  141.7394   78.7169  225.2019 H   0  0  0  0  0  0  0  0  0  0  0  0
  141.1647   77.2270  223.2489 H   0  0  0  0  0  0  0  0  0  0  0  0
  1  2  2  0
  2  3  2  0
  2  4  1  0
  4  5  1  0
  5  6  2  0
  6  7  1  0
  7  8  2  0
  8  9  1  0
  9 10  1  0
 10 11  1  0
 10 12  1  0
 10 13  1  0
  9 14  2  0
  2 15  1  0
 15 16  1  0
 16 17  1  0
 17 18  1  0
 18 19  2  0
 19 20  1  0
 20 21  2  0
 21 22  1  0
 22 23  2  0
 23 24  1  0
 24 25  1  0
 25 26  2  0
 26 27  1  0
 27 28  1  0
 28 29  2  0
 29 30  1  0
 30 31  2  0
 31 32  1  0
 32 33  2  0
 14  5  1  0
 24 15  1  0
 33 25  1  0
 23 18  1  0
 33 28  1  0
  4 34  1  0
  4 35  1  0
  6 36  1  0
  7 37  1  0
  8 38  1  0
 14 39  1  0
 16 40  1  0
 16 41  1  0
 17 42  1  0
 17 43  1  0
 19 44  1  0
 20 45  1  0
 21 46  1  0
 22 47  1  0
 24 48  1  6
 26 49  1  0
 27 50  1  0
 29 51  1  0
 30 52  1  0
 31 53  1  0
 32 54  1  0
M  END
>  <UniqueID>  (4) 
201

>  <SMILES>  (4) 
O=S(=O)(Cc1cccc(C(F)(F)F)c1)N1CCc2ccccc2[C@@H]1c1c[nH]c2ccccc12

>  <Energy>  (4) 
90.1711342313889

>  <Genealogy>  (4) 
O=S(=O)(Cc1cccc(C(F)(F)F)c1)N1CCc2ccccc2[C@@H]1c1c[nH]c2ccccc12 (3D coordinates assigned)
O=S(=O)(Cc1cccc(C(F)(F)F)c1)N1CCc2ccccc2[C@@H]1c1c[nH]c2ccccc12 (nonaromatic ring conformer: 90.1711342313889 kcal/mol)

>  <smiles>  (4) 
O=S(=O)(Cc1cccc(C(F)(F)F)c1)N1CCc2ccccc2[C@@H]1c1c[nH]c2ccccc12

>  <score_type>  (4) 
oracle

>  <origin>  (4) 
autodockgpu

>  <m_score__min__energy>  (4) 
-8.0600000000000005

>  <m_primary>  (4) 
energy

>  <meeko>  (4) 
{"free_energy": -6.72, "intermolecular_energy": -8.22, "internal_energy": -3.34, "cluster_size": 16, "cluster_id": 3, "rank_in_cluster": 1}

>  <energy>  (4) 
-6.87

>  <cluster_rmsd>  (4) 
0.08

>  <rmsd>  (4) 
270.83

>  <cluster>  (4) 
2

$$$$
GJSDZOHBAHKEKD-XMMPIXPANA-N
     RDKit          3D

 54 58  0  0  0  0  0  0  0  0999 V2000
  138.4200   77.5640  218.8420 O   0  0  0  0  0  0  0  0  0  0  0  0
  138.1090   76.9990  220.2000 S   0  0  0  0  0  0  0  0  0  0  0  0
  137.3860   75.6960  220.0020 O   0  0  0  0  0  0  0  0  0  0  0  0
  137.0270   78.1600  221.0460 C   0  0  0  0  0  0  0  0  0  0  0  0
  137.7960   79.2270  221.7840 C   0  0  0  0  0  0  0  0  0  0  0  0
  137.9580   79.1600  223.1790 C   0  0  0  0  0  0  0  0  0  0  0  0
  138.6400   80.1730  223.8590 C   0  0  0  0  0  0  0  0  0  0  0  0
  139.1620   81.2620  223.1550 C   0  0  0  0  0  0  0  0  0  0  0  0
  138.9980   81.3560  221.7610 C   0  0  0  0  0  0  0  0  0  0  0  0
  139.5940   82.5130  220.9970 C   0  0  0  0  0  0  0  0  0  0  0  0
  139.9620   82.1160  219.7220 F   0  0  0  0  0  0  0  0  0  0  0  0
  138.6570   83.5310  220.9010 F   0  0  0  0  0  0  0  0  0  0  0  0
  140.7230   82.9970  221.6430 F   0  0  0  0  0  0  0  0  0  0  0  0
  138.3430   80.3140  221.0780 C   0  0  0  0  0  0  0  0  0  0  0  0
  139.6140   76.6870  221.0420 N   0  0  0  0  0  0  0  0  0  0  0  0
  139.5670   75.5260  221.9540 C   0  0  0  0  0  0  0  0  0  0  0  0
  140.1600   74.2650  221.3390 C   0  0  0  0  0  0  0  0  0  0  0  0
  141.5450   74.5320  220.8390 C   0  0  0  0  0  0  0  0  0  0  0  0
  142.4960   73.4980  220.8300 C   0  0  0  0  0  0  0  0  0  0  0  0
  143.7670   73.7120  220.2890 C   0  0  0  0  0  0  0  0  0  0  0  0
  144.0890   74.9490  219.7320 C   0  0  0  0  0  0  0  0  0  0  0  0
  143.1440   75.9780  219.7220 C   0  0  0  0  0  0  0  0  0  0  0  0
  141.8700   75.7910  220.2990 C   0  0  0  0  0  0  0  0  0  0  0  0
  140.8260   76.8970  220.2080 C   0  0  2  0  0  0  0  0  0  0  0  0
  141.4100   78.2430  220.5550 C   0  0  0  0  0  0  0  0  0  0  0  0
  141.7380   79.2470  219.6430 C   0  0  0  0  0  0  0  0  0  0  0  0
  142.1680   80.3540  220.2900 N   0  0  0  0  0  0  0  0  0  0  0  0
  142.1090   80.0640  221.6030 C   0  0  0  0  0  0  0  0  0  0  0  0
  142.4350   80.9050  222.6680 C   0  0  0  0  0  0  0  0  0  0  0  0
  142.2830   80.4040  223.9760 C   0  0  0  0  0  0  0  0  0  0  0  0
  141.8220   79.0850  224.1890 C   0  0  0  0  0  0  0  0  0  0  0  0
  141.5030   78.2560  223.0950 C   0  0  0  0  0  0  0  0  0  0  0  0
  141.6520   78.7850  221.8080 C   0  0  0  0  0  0  0  0  0  0  0  0
  136.3766   78.6435  220.3022 H   0  0  0  0  0  0  0  0  0  0  0  0
  136.4411   77.5953  221.7862 H   0  0  0  0  0  0  0  0  0  0  0  0
  137.5462   78.3066  223.7377 H   0  0  0  0  0  0  0  0  0  0  0  0
  138.7662   80.1131  224.9501 H   0  0  0  0  0  0  0  0  0  0  0  0
  139.7051   82.0515  223.6951 H   0  0  0  0  0  0  0  0  0  0  0  0
  138.2580   80.3500  219.9819 H   0  0  0  0  0  0  0  0  0  0  0  0
  140.1328   75.7719  222.8647 H   0  0  0  0  0  0  0  0  0  0  0  0
  138.5087   75.3205  222.1726 H   0  0  0  0  0  0  0  0  0  0  0  0
  140.1959   73.4722  222.1007 H   0  0  0  0  0  0  0  0  0  0  0  0
  139.5299   73.9486  220.4947 H   0  0  0  0  0  0  0  0  0  0  0  0
  142.2391   72.5147  221.2509 H   0  0  0  0  0  0  0  0  0  0  0  0
  144.5135   72.9042  220.3027 H   0  0  0  0  0  0  0  0  0  0  0  0
  145.0871   75.1147  219.3004 H   0  0  0  0  0  0  0  0  0  0  0  0
  143.3957   76.9438  219.2596 H   0  0  0  0  0  0  0  0  0  0  0  0
  140.5081   76.8654  219.1554 H   0  0  0  0  0  0  0  0  0  0  0  0
  141.6580   79.1513  218.5501 H   0  0  0  0  0  0  0  0  0  0  0  0
  142.4730   81.2540  219.8540 H   0  0  0  0  0  0  0  0  0  0  0  0
  142.7995   81.9278  222.4916 H   0  0  0  0  0  0  0  0  0  0  0  0
  142.5248   81.0438  224.8375 H   0  0  0  0  0  0  0  0  0  0  0  0
  141.7116   78.7033  225.2147 H   0  0  0  0  0  0  0  0  0  0  0  0
  141.1482   77.2260  223.2478 H   0  0  0  0  0  0  0  0  0  0  0  0
  1  2  2  0
  2  3  2  0
  2  4  1  0
  4  5  1  0
  5  6  2  0
  6  7  1  0
  7  8  2  0
  8  9  1  0
  9 10  1  0
 10 11  1  0
 10 12  1  0
 10 13  1  0
  9 14  2  0
  2 15  1  0
 15 16  1  0
 16 17  1  0
 17 18  1  0
 18 19  2  0
 19 20  1  0
 20 21  2  0
 21 22  1  0
 22 23  2  0
 23 24  1  0
 24 25  1  0
 25 26  2  0
 26 27  1  0
 27 28  1  0
 28 29  2  0
 29 30  1  0
 30 31  2  0
 31 32  1  0
 32 33  2  0
 14  5  1  0
 24 15  1  0
 33 25  1  0
 23 18  1  0
 33 28  1  0
  4 34  1  0
  4 35  1  0
  6 36  1  0
  7 37  1  0
  8 38  1  0
 14 39  1  0
 16 40  1  0
 16 41  1  0
 17 42  1  0
 17 43  1  0
 19 44  1  0
 20 45  1  0
 21 46  1  0
 22 47  1  0
 24 48  1  6
 26 49  1  0
 27 50  1  0
 29 51  1  0
 30 52  1  0
 31 53  1  0
 32 54  1  0
M  END
>  <UniqueID>  (5) 
201

>  <SMILES>  (5) 
O=S(=O)(Cc1cccc(C(F)(F)F)c1)N1CCc2ccccc2[C@@H]1c1c[nH]c2ccccc12

>  <Energy>  (5) 
90.1711342313889

>  <Genealogy>  (5) 
O=S(=O)(Cc1cccc(C(F)(F)F)c1)N1CCc2ccccc2[C@@H]1c1c[nH]c2ccccc12 (3D coordinates assigned)
O=S(=O)(Cc1cccc(C(F)(F)F)c1)N1CCc2ccccc2[C@@H]1c1c[nH]c2ccccc12 (nonaromatic ring conformer: 90.1711342313889 kcal/mol)

>  <smiles>  (5) 
O=S(=O)(Cc1cccc(C(F)(F)F)c1)N1CCc2ccccc2[C@@H]1c1c[nH]c2ccccc12

>  <score_type>  (5) 
oracle

>  <origin>  (5) 
autodockgpu

>  <m_score__min__energy>  (5) 
-8.0600000000000005

>  <m_primary>  (5) 
energy

>  <meeko>  (5) 
{"free_energy": -6.7, "intermolecular_energy": -8.19, "internal_energy": -3.37, "cluster_size": 16, "cluster_id": 3, "rank_in_cluster": 3}

>  <energy>  (5) 
-6.72

>  <cluster_rmsd>  (5) 
0.0

>  <rmsd>  (5) 
270.92

>  <cluster>  (5) 
3

$$$$
GJSDZOHBAHKEKD-XMMPIXPANA-N
     RDKit          3D

 54 58  0  0  0  0  0  0  0  0999 V2000
  138.3970   77.5520  218.8360 O   0  0  0  0  0  0  0  0  0  0  0  0
  138.0880   77.0120  220.2040 S   0  0  0  0  0  0  0  0  0  0  0  0
  137.3540   75.7110  220.0310 O   0  0  0  0  0  0  0  0  0  0  0  0
  137.0180   78.1950  221.0350 C   0  0  0  0  0  0  0  0  0  0  0  0
  137.7980   79.2550  221.7710 C   0  0  0  0  0  0  0  0  0  0  0  0
  137.9790   79.1780  223.1630 C   0  0  0  0  0  0  0  0  0  0  0  0
  138.6710   80.1850  223.8410 C   0  0  0  0  0  0  0  0  0  0  0  0
  139.1860   81.2780  223.1390 C   0  0  0  0  0  0  0  0  0  0  0  0
  139.0020   81.3820  221.7470 C   0  0  0  0  0  0  0  0  0  0  0  0
  139.5900   82.5450  220.9850 C   0  0  0  0  0  0  0  0  0  0  0  0
  140.7200   83.0260  221.6270 F   0  0  0  0  0  0  0  0  0  0  0  0
  139.9380   82.1280  219.7090 F   0  0  0  0  0  0  0  0  0  0  0  0
  138.6720   83.5820  220.8880 F   0  0  0  0  0  0  0  0  0  0  0  0
  138.3370   80.3470  221.0660 C   0  0  0  0  0  0  0  0  0  0  0  0
  139.5940   76.7030  221.0450 N   0  0  0  0  0  0  0  0  0  0  0  0
  139.5450   75.5490  221.9670 C   0  0  0  0  0  0  0  0  0  0  0  0
  140.1340   74.2810  221.3610 C   0  0  0  0  0  0  0  0  0  0  0  0
  141.5180   74.5400  220.8560 C   0  0  0  0  0  0  0  0  0  0  0  0
  142.4650   73.5030  220.8530 C   0  0  0  0  0  0  0  0  0  0  0  0
  143.7350   73.7080  220.3080 C   0  0  0  0  0  0  0  0  0  0  0  0
  144.0610   74.9400  219.7390 C   0  0  0  0  0  0  0  0  0  0  0  0
  143.1180   75.9710  219.7220 C   0  0  0  0  0  0  0  0  0  0  0  0
  141.8450   75.7930  220.3040 C   0  0  0  0  0  0  0  0  0  0  0  0
  140.8050   76.9010  220.2060 C   0  0  2  0  0  0  0  0  0  0  0  0
  141.3930   78.2490  220.5400 C   0  0  0  0  0  0  0  0  0  0  0  0
  141.7130   79.2470  219.6190 C   0  0  0  0  0  0  0  0  0  0  0  0
  142.1510   80.3570  220.2560 N   0  0  0  0  0  0  0  0  0  0  0  0
  142.1050   80.0740  221.5710 C   0  0  0  0  0  0  0  0  0  0  0  0
  142.4430   80.9210  222.6280 C   0  0  0  0  0  0  0  0  0  0  0  0
  142.3040   80.4270  223.9400 C   0  0  0  0  0  0  0  0  0  0  0  0
  141.8430   79.1100  224.1640 C   0  0  0  0  0  0  0  0  0  0  0  0
  141.5130   78.2750  223.0780 C   0  0  0  0  0  0  0  0  0  0  0  0
  141.6490   78.7970  221.7870 C   0  0  0  0  0  0  0  0  0  0  0  0
  136.3800   78.6832  220.2837 H   0  0  0  0  0  0  0  0  0  0  0  0
  136.4187   77.6442  221.7749 H   0  0  0  0  0  0  0  0  0  0  0  0
  137.5740   78.3210  223.7211 H   0  0  0  0  0  0  0  0  0  0  0  0
  138.8107   80.1171  224.9300 H   0  0  0  0  0  0  0  0  0  0  0  0
  139.7386   82.0621  223.6773 H   0  0  0  0  0  0  0  0  0  0  0  0
  138.2372   80.3914  219.9714 H   0  0  0  0  0  0  0  0  0  0  0  0
  140.1127   75.8007  222.8749 H   0  0  0  0  0  0  0  0  0  0  0  0
  138.4865   75.3482  222.1889 H   0  0  0  0  0  0  0  0  0  0  0  0
  140.1695   73.4945  222.1292 H   0  0  0  0  0  0  0  0  0  0  0  0
  139.5013   73.9594  220.5206 H   0  0  0  0  0  0  0  0  0  0  0  0
  142.2054   72.5240  221.2821 H   0  0  0  0  0  0  0  0  0  0  0  0
  144.4786   72.8977  220.3274 H   0  0  0  0  0  0  0  0  0  0  0  0
  145.0589   75.0992  219.3045 H   0  0  0  0  0  0  0  0  0  0  0  0
  143.3708   76.9318  219.2498 H   0  0  0  0  0  0  0  0  0  0  0  0
  140.4856   76.8602  219.1542 H   0  0  0  0  0  0  0  0  0  0  0  0
  141.6218   79.1454  218.5275 H   0  0  0  0  0  0  0  0  0  0  0  0
  142.4530   81.2540  219.8120 H   0  0  0  0  0  0  0  0  0  0  0  0
  142.8066   81.9424  222.4422 H   0  0  0  0  0  0  0  0  0  0  0  0
  142.5560   81.0706  224.7957 H   0  0  0  0  0  0  0  0  0  0  0  0
  141.7411   78.7343  225.1928 H   0  0  0  0  0  0  0  0  0  0  0  0
  141.1598   77.2459  223.2400 H   0  0  0  0  0  0  0  0  0  0  0  0
  1  2  2  0
  2  3  2  0
  2  4  1  0
  4  5  1  0
  5  6  2  0
  6  7  1  0
  7  8  2  0
  8  9  1  0
  9 10  1  0
 10 11  1  0
 10 12  1  0
 10 13  1  0
  9 14  2  0
  2 15  1  0
 15 16  1  0
 16 17  1  0
 17 18  1  0
 18 19  2  0
 19 20  1  0
 20 21  2  0
 21 22  1  0
 22 23  2  0
 23 24  1  0
 24 25  1  0
 25 26  2  0
 26 27  1  0
 27 28  1  0
 28 29  2  0
 29 30  1  0
 30 31  2  0
 31 32  1  0
 32 33  2  0
 14  5  1  0
 24 15  1  0
 33 25  1  0
 23 18  1  0
 33 28  1  0
  4 34  1  0
  4 35  1  0
  6 36  1  0
  7 37  1  0
  8 38  1  0
 14 39  1  0
 16 40  1  0
 16 41  1  0
 17 42  1  0
 17 43  1  0
 19 44  1  0
 20 45  1  0
 21 46  1  0
 22 47  1  0
 24 48  1  6
 26 49  1  0
 27 50  1  0
 29 51  1  0
 30 52  1  0
 31 53  1  0
 32 54  1  0
M  END
>  <UniqueID>  (6) 
201

>  <SMILES>  (6) 
O=S(=O)(Cc1cccc(C(F)(F)F)c1)N1CCc2ccccc2[C@@H]1c1c[nH]c2ccccc12

>  <Energy>  (6) 
90.1711342313889

>  <Genealogy>  (6) 
O=S(=O)(Cc1cccc(C(F)(F)F)c1)N1CCc2ccccc2[C@@H]1c1c[nH]c2ccccc12 (3D coordinates assigned)
O=S(=O)(Cc1cccc(C(F)(F)F)c1)N1CCc2ccccc2[C@@H]1c1c[nH]c2ccccc12 (nonaromatic ring conformer: 90.1711342313889 kcal/mol)

>  <smiles>  (6) 
O=S(=O)(Cc1cccc(C(F)(F)F)c1)N1CCc2ccccc2[C@@H]1c1c[nH]c2ccccc12

>  <score_type>  (6) 
oracle

>  <origin>  (6) 
autodockgpu

>  <m_score__min__energy>  (6) 
-8.0600000000000005

>  <m_primary>  (6) 
energy

>  <meeko>  (6) 
{"free_energy": -6.68, "intermolecular_energy": -8.18, "internal_energy": -3.37, "cluster_size": 16, "cluster_id": 3, "rank_in_cluster": 8}

>  <energy>  (6) 
-6.7

>  <cluster_rmsd>  (6) 
0.02

>  <rmsd>  (6) 
270.92

>  <cluster>  (6) 
3

$$$$
GJSDZOHBAHKEKD-XMMPIXPANA-N
     RDKit          3D

 54 58  0  0  0  0  0  0  0  0999 V2000
  138.0770   76.1090  219.0240 O   0  0  0  0  0  0  0  0  0  0  0  0
  138.0990   76.8700  220.3190 S   0  0  0  0  0  0  0  0  0  0  0  0
  136.9900   76.3400  221.1840 O   0  0  0  0  0  0  0  0  0  0  0  0
  137.7900   78.6030  219.9470 C   0  0  0  0  0  0  0  0  0  0  0  0
  138.2590   79.5180  221.0500 C   0  0  0  0  0  0  0  0  0  0  0  0
  138.1560   79.1310  222.3970 C   0  0  0  0  0  0  0  0  0  0  0  0
  138.5580   80.0010  223.4140 C   0  0  0  0  0  0  0  0  0  0  0  0
  139.0630   81.2650  223.0970 C   0  0  0  0  0  0  0  0  0  0  0  0
  139.1590   81.6790  221.7550 C   0  0  0  0  0  0  0  0  0  0  0  0
  139.7380   83.0300  221.4120 C   0  0  0  0  0  0  0  0  0  0  0  0
  139.7950   83.1990  220.0380 F   0  0  0  0  0  0  0  0  0  0  0  0
  138.9390   84.0230  221.9570 F   0  0  0  0  0  0  0  0  0  0  0  0
  141.0240   83.1550  221.9180 F   0  0  0  0  0  0  0  0  0  0  0  0
  138.7870   80.7830  220.7360 C   0  0  0  0  0  0  0  0  0  0  0  0
  139.6300   76.5780  221.1220 N   0  0  0  0  0  0  0  0  0  0  0  0
  139.6180   75.4220  222.0420 C   0  0  0  0  0  0  0  0  0  0  0  0
  140.2070   74.1620  221.4190 C   0  0  0  0  0  0  0  0  0  0  0  0
  141.5740   74.4390  220.8790 C   0  0  0  0  0  0  0  0  0  0  0  0
  142.5340   73.4140  220.8500 C   0  0  0  0  0  0  0  0  0  0  0  0
  143.7880   73.6360  220.2740 C   0  0  0  0  0  0  0  0  0  0  0  0
  144.0830   74.8730  219.7000 C   0  0  0  0  0  0  0  0  0  0  0  0
  143.1280   75.8920  219.7090 C   0  0  0  0  0  0  0  0  0  0  0  0
  141.8720   75.6980  220.3220 C   0  0  0  0  0  0  0  0  0  0  0  0
  140.8160   76.7930  220.2530 C   0  0  2  0  0  0  0  0  0  0  0  0
  141.3960   78.1470  220.5750 C   0  0  0  0  0  0  0  0  0  0  0  0
  141.7140   79.1370  219.6450 C   0  0  0  0  0  0  0  0  0  0  0  0
  142.1440   80.2560  220.2720 N   0  0  0  0  0  0  0  0  0  0  0  0
  142.0950   79.9870  221.5900 C   0  0  0  0  0  0  0  0  0  0  0  0
  142.4240   80.8460  222.6390 C   0  0  0  0  0  0  0  0  0  0  0  0
  142.2830   80.3650  223.9560 C   0  0  0  0  0  0  0  0  0  0  0  0
  141.8280   79.0480  224.1920 C   0  0  0  0  0  0  0  0  0  0  0  0
  141.5060   78.2000  223.1140 C   0  0  0  0  0  0  0  0  0  0  0  0
  141.6440   78.7090  221.8180 C   0  0  0  0  0  0  0  0  0  0  0  0
  138.3206   78.8658  219.0199 H   0  0  0  0  0  0  0  0  0  0  0  0
  136.7033   78.7353  219.8395 H   0  0  0  0  0  0  0  0  0  0  0  0
  137.7569   78.1382  222.6521 H   0  0  0  0  0  0  0  0  0  0  0  0
  138.4768   79.6904  224.4661 H   0  0  0  0  0  0  0  0  0  0  0  0
  139.3877   81.9410  223.9017 H   0  0  0  0  0  0  0  0  0  0  0  0
  138.9105   81.0750  219.6827 H   0  0  0  0  0  0  0  0  0  0  0  0
  140.2051   75.6789  222.9361 H   0  0  0  0  0  0  0  0  0  0  0  0
  138.5678   75.2080  222.2894 H   0  0  0  0  0  0  0  0  0  0  0  0
  140.2722   73.3751  222.1849 H   0  0  0  0  0  0  0  0  0  0  0  0
  139.5569   73.8334  220.5947 H   0  0  0  0  0  0  0  0  0  0  0  0
  142.2975   72.4309  221.2831 H   0  0  0  0  0  0  0  0  0  0  0  0
  144.5424   72.8354  220.2732 H   0  0  0  0  0  0  0  0  0  0  0  0
  145.0674   75.0456  219.2405 H   0  0  0  0  0  0  0  0  0  0  0  0
  143.3576   76.8567  219.2329 H   0  0  0  0  0  0  0  0  0  0  0  0
  140.4698   76.7506  219.2098 H   0  0  0  0  0  0  0  0  0  0  0  0
  141.6273   79.0236  218.5543 H   0  0  0  0  0  0  0  0  0  0  0  0
  142.4430   81.1500  219.8200 H   0  0  0  0  0  0  0  0  0  0  0  0
  142.7825   81.8675  222.4440 H   0  0  0  0  0  0  0  0  0  0  0  0
  142.5287   81.0188  224.8058 H   0  0  0  0  0  0  0  0  0  0  0  0
  141.7246   78.6825  225.2243 H   0  0  0  0  0  0  0  0  0  0  0  0
  141.1573   77.1709  223.2857 H   0  0  0  0  0  0  0  0  0  0  0  0
  1  2  2  0
  2  3  2  0
  2  4  1  0
  4  5  1  0
  5  6  2  0
  6  7  1  0
  7  8  2  0
  8  9  1  0
  9 10  1  0
 10 11  1  0
 10 12  1  0
 10 13  1  0
  9 14  2  0
  2 15  1  0
 15 16  1  0
 16 17  1  0
 17 18  1  0
 18 19  2  0
 19 20  1  0
 20 21  2  0
 21 22  1  0
 22 23  2  0
 23 24  1  0
 24 25  1  0
 25 26  2  0
 26 27  1  0
 27 28  1  0
 28 29  2  0
 29 30  1  0
 30 31  2  0
 31 32  1  0
 32 33  2  0
 14  5  1  0
 24 15  1  0
 33 25  1  0
 23 18  1  0
 33 28  1  0
  4 34  1  0
  4 35  1  0
  6 36  1  0
  7 37  1  0
  8 38  1  0
 14 39  1  0
 16 40  1  0
 16 41  1  0
 17 42  1  0
 17 43  1  0
 19 44  1  0
 20 45  1  0
 21 46  1  0
 22 47  1  0
 24 48  1  6
 26 49  1  0
 27 50  1  0
 29 51  1  0
 30 52  1  0
 31 53  1  0
 32 54  1  0
M  END
>  <UniqueID>  (7) 
201

>  <SMILES>  (7) 
O=S(=O)(Cc1cccc(C(F)(F)F)c1)N1CCc2ccccc2[C@@H]1c1c[nH]c2ccccc12

>  <Energy>  (7) 
90.1711342313889

>  <Genealogy>  (7) 
O=S(=O)(Cc1cccc(C(F)(F)F)c1)N1CCc2ccccc2[C@@H]1c1c[nH]c2ccccc12 (3D coordinates assigned)
O=S(=O)(Cc1cccc(C(F)(F)F)c1)N1CCc2ccccc2[C@@H]1c1c[nH]c2ccccc12 (nonaromatic ring conformer: 90.1711342313889 kcal/mol)

>  <smiles>  (7) 
O=S(=O)(Cc1cccc(C(F)(F)F)c1)N1CCc2ccccc2[C@@H]1c1c[nH]c2ccccc12

>  <score_type>  (7) 
oracle

>  <origin>  (7) 
autodockgpu

>  <m_score__min__energy>  (7) 
-8.0600000000000005

>  <m_primary>  (7) 
energy

>  <meeko>  (7) 
{"free_energy": -6.61, "intermolecular_energy": -8.1, "internal_energy": -3.32, "cluster_size": 16, "cluster_id": 3, "rank_in_cluster": 16}

>  <energy>  (7) 
-6.7

>  <cluster_rmsd>  (7) 
0.05

>  <rmsd>  (7) 
270.91

>  <cluster>  (7) 
3

$$$$
GJSDZOHBAHKEKD-XMMPIXPANA-N
     RDKit          3D

 54 58  0  0  0  0  0  0  0  0999 V2000
  138.3990   77.5440  218.9500 O   0  0  0  0  0  0  0  0  0  0  0  0
  138.1150   76.9640  220.3070 S   0  0  0  0  0  0  0  0  0  0  0  0
  137.3920   75.6610  220.1080 O   0  0  0  0  0  0  0  0  0  0  0  0
  137.0440   78.1130  221.1840 C   0  0  0  0  0  0  0  0  0  0  0  0
  137.8210   79.1970  221.8880 C   0  0  0  0  0  0  0  0  0  0  0  0
  138.0000   79.1620  223.2820 C   0  0  0  0  0  0  0  0  0  0  0  0
  138.6890   80.1900  223.9310 C   0  0  0  0  0  0  0  0  0  0  0  0
  139.2030   81.2630  223.1970 C   0  0  0  0  0  0  0  0  0  0  0  0
  139.0210   81.3250  221.8030 C   0  0  0  0  0  0  0  0  0  0  0  0
  139.6070   82.4650  221.0060 C   0  0  0  0  0  0  0  0  0  0  0  0
  139.9550   82.0410  219.7340 F   0  0  0  0  0  0  0  0  0  0  0  0
  138.6700   83.4820  220.9030 F   0  0  0  0  0  0  0  0  0  0  0  0
  140.7460   82.9610  221.6240 F   0  0  0  0  0  0  0  0  0  0  0  0
  138.3580   80.2680  221.1520 C   0  0  0  0  0  0  0  0  0  0  0  0
  139.6360   76.6490  221.1190 N   0  0  0  0  0  0  0  0  0  0  0  0
  139.6010   75.4920  222.0360 C   0  0  0  0  0  0  0  0  0  0  0  0
  140.1760   74.2250  221.4150 C   0  0  0  0  0  0  0  0  0  0  0  0
  141.5510   74.4840  220.8840 C   0  0  0  0  0  0  0  0  0  0  0  0
  142.4960   73.4450  220.8600 C   0  0  0  0  0  0  0  0  0  0  0  0
  143.7570   73.6500  220.2920 C   0  0  0  0  0  0  0  0  0  0  0  0
  144.0740   74.8830  219.7230 C   0  0  0  0  0  0  0  0  0  0  0  0
  143.1330   75.9170  219.7280 C   0  0  0  0  0  0  0  0  0  0  0  0
  141.8710   75.7390  220.3320 C   0  0  0  0  0  0  0  0  0  0  0  0
  140.8310   76.8490  220.2590 C   0  0  2  0  0  0  0  0  0  0  0  0
  141.4280   78.1940  220.5870 C   0  0  0  0  0  0  0  0  0  0  0  0
  141.7570   79.1850  219.6620 C   0  0  0  0  0  0  0  0  0  0  0  0
  142.2010   80.2950  220.2950 N   0  0  0  0  0  0  0  0  0  0  0  0
  142.1500   80.0190  221.6110 C   0  0  0  0  0  0  0  0  0  0  0  0
  142.4920   80.8680  222.6650 C   0  0  0  0  0  0  0  0  0  0  0  0
  142.3470   80.3820  223.9790 C   0  0  0  0  0  0  0  0  0  0  0  0
  141.8760   79.0690  224.2080 C   0  0  0  0  0  0  0  0  0  0  0  0
  141.5420   78.2320  223.1260 C   0  0  0  0  0  0  0  0  0  0  0  0
  141.6850   78.7460  221.8320 C   0  0  0  0  0  0  0  0  0  0  0  0
  136.3599   78.5810  220.4608 H   0  0  0  0  0  0  0  0  0  0  0  0
  136.4937   77.5437  221.9476 H   0  0  0  0  0  0  0  0  0  0  0  0
  137.5957   78.3212  223.8647 H   0  0  0  0  0  0  0  0  0  0  0  0
  138.8272   80.1548  225.0217 H   0  0  0  0  0  0  0  0  0  0  0  0
  139.7533   82.0640  223.7124 H   0  0  0  0  0  0  0  0  0  0  0  0
  138.2589   80.2798  220.0565 H   0  0  0  0  0  0  0  0  0  0  0  0
  140.1854   75.7387  222.9347 H   0  0  0  0  0  0  0  0  0  0  0  0
  138.5460   75.2926  222.2754 H   0  0  0  0  0  0  0  0  0  0  0  0
  140.2252   73.4361  222.1800 H   0  0  0  0  0  0  0  0  0  0  0  0
  139.5267   73.9066  220.5861 H   0  0  0  0  0  0  0  0  0  0  0  0
  142.2426   72.4649  221.2904 H   0  0  0  0  0  0  0  0  0  0  0  0
  144.4994   72.8383  220.2940 H   0  0  0  0  0  0  0  0  0  0  0  0
  145.0639   75.0420  219.2705 H   0  0  0  0  0  0  0  0  0  0  0  0
  143.3795   76.8795  219.2559 H   0  0  0  0  0  0  0  0  0  0  0  0
  140.4909   76.8136  219.2135 H   0  0  0  0  0  0  0  0  0  0  0  0
  141.6679   79.0787  218.5708 H   0  0  0  0  0  0  0  0  0  0  0  0
  142.5100   81.1880  219.8470 H   0  0  0  0  0  0  0  0  0  0  0  0
  142.8635   81.8858  222.4751 H   0  0  0  0  0  0  0  0  0  0  0  0
  142.6018   81.0280  224.8321 H   0  0  0  0  0  0  0  0  0  0  0  0
  141.7697   78.6986  225.2383 H   0  0  0  0  0  0  0  0  0  0  0  0
  141.1802   77.2066  223.2925 H   0  0  0  0  0  0  0  0  0  0  0  0
  1  2  2  0
  2  3  2  0
  2  4  1  0
  4  5  1  0
  5  6  2  0
  6  7  1  0
  7  8  2  0
  8  9  1  0
  9 10  1  0
 10 11  1  0
 10 12  1  0
 10 13  1  0
  9 14  2  0
  2 15  1  0
 15 16  1  0
 16 17  1  0
 17 18  1  0
 18 19  2  0
 19 20  1  0
 20 21  2  0
 21 22  1  0
 22 23  2  0
 23 24  1  0
 24 25  1  0
 25 26  2  0
 26 27  1  0
 27 28  1  0
 28 29  2  0
 29 30  1  0
 30 31  2  0
 31 32  1  0
 32 33  2  0
 14  5  1  0
 24 15  1  0
 33 25  1  0
 23 18  1  0
 33 28  1  0
  4 34  1  0
  4 35  1  0
  6 36  1  0
  7 37  1  0
  8 38  1  0
 14 39  1  0
 16 40  1  0
 16 41  1  0
 17 42  1  0
 17 43  1  0
 19 44  1  0
 20 45  1  0
 21 46  1  0
 22 47  1  0
 24 48  1  6
 26 49  1  0
 27 50  1  0
 29 51  1  0
 30 52  1  0
 31 53  1  0
 32 54  1  0
M  END
>  <UniqueID>  (8) 
201

>  <SMILES>  (8) 
O=S(=O)(Cc1cccc(C(F)(F)F)c1)N1CCc2ccccc2[C@@H]1c1c[nH]c2ccccc12

>  <Energy>  (8) 
90.1711342313889

>  <Genealogy>  (8) 
O=S(=O)(Cc1cccc(C(F)(F)F)c1)N1CCc2ccccc2[C@@H]1c1c[nH]c2ccccc12 (3D coordinates assigned)
O=S(=O)(Cc1cccc(C(F)(F)F)c1)N1CCc2ccccc2[C@@H]1c1c[nH]c2ccccc12 (nonaromatic ring conformer: 90.1711342313889 kcal/mol)

>  <smiles>  (8) 
O=S(=O)(Cc1cccc(C(F)(F)F)c1)N1CCc2ccccc2[C@@H]1c1c[nH]c2ccccc12

>  <score_type>  (8) 
oracle

>  <origin>  (8) 
autodockgpu

>  <m_score__min__energy>  (8) 
-8.0600000000000005

>  <m_primary>  (8) 
energy

>  <meeko>  (8) 
{"free_energy": -6.69, "intermolecular_energy": -8.18, "internal_energy": -3.38, "cluster_size": 16, "cluster_id": 3, "rank_in_cluster": 6}

>  <energy>  (8) 
-6.69

>  <cluster_rmsd>  (8) 
0.04

>  <rmsd>  (8) 
270.93

>  <cluster>  (8) 
3

$$$$
GJSDZOHBAHKEKD-XMMPIXPANA-N
     RDKit          3D

 54 58  0  0  0  0  0  0  0  0999 V2000
  138.4180   77.5460  218.8240 O   0  0  0  0  0  0  0  0  0  0  0  0
  138.0970   77.0280  220.1970 S   0  0  0  0  0  0  0  0  0  0  0  0
  137.3450   75.7360  220.0380 O   0  0  0  0  0  0  0  0  0  0  0  0
  137.0410   78.2370  221.0100 C   0  0  0  0  0  0  0  0  0  0  0  0
  137.8340   79.2770  221.7590 C   0  0  0  0  0  0  0  0  0  0  0  0
  138.0230   79.1730  223.1490 C   0  0  0  0  0  0  0  0  0  0  0  0
  138.7270   80.1620  223.8410 C   0  0  0  0  0  0  0  0  0  0  0  0
  139.2450   81.2640  223.1560 C   0  0  0  0  0  0  0  0  0  0  0  0
  139.0540   81.3960  221.7680 C   0  0  0  0  0  0  0  0  0  0  0  0
  139.6450   82.5680  221.0230 C   0  0  0  0  0  0  0  0  0  0  0  0
  139.9910   82.1990  219.7330 F   0  0  0  0  0  0  0  0  0  0  0  0
  138.7120   83.5930  220.9650 F   0  0  0  0  0  0  0  0  0  0  0  0
  140.7860   83.0300  221.6630 F   0  0  0  0  0  0  0  0  0  0  0  0
  138.3760   80.3780  221.0720 C   0  0  0  0  0  0  0  0  0  0  0  0
  139.5960   76.7080  221.0480 N   0  0  0  0  0  0  0  0  0  0  0  0
  139.5330   75.5530  221.9670 C   0  0  0  0  0  0  0  0  0  0  0  0
  140.1170   74.2820  221.3630 C   0  0  0  0  0  0  0  0  0  0  0  0
  141.5060   74.5330  220.8670 C   0  0  0  0  0  0  0  0  0  0  0  0
  142.4470   73.4890  220.8690 C   0  0  0  0  0  0  0  0  0  0  0  0
  143.7220   73.6870  220.3320 C   0  0  0  0  0  0  0  0  0  0  0  0
  144.0590   74.9170  219.7670 C   0  0  0  0  0  0  0  0  0  0  0  0
  143.1230   75.9550  219.7450 C   0  0  0  0  0  0  0  0  0  0  0  0
  141.8450   75.7850  220.3190 C   0  0  0  0  0  0  0  0  0  0  0  0
  140.8130   76.8990  220.2170 C   0  0  2  0  0  0  0  0  0  0  0  0
  141.4080   78.2430  220.5560 C   0  0  0  0  0  0  0  0  0  0  0  0
  141.7280   79.2450  219.6400 C   0  0  0  0  0  0  0  0  0  0  0  0
  142.1730   80.3490  220.2820 N   0  0  0  0  0  0  0  0  0  0  0  0
  142.1310   80.0590  221.5960 C   0  0  0  0  0  0  0  0  0  0  0  0
  142.4770   80.8980  222.6560 C   0  0  0  0  0  0  0  0  0  0  0  0
  142.3410   80.3960  223.9660 C   0  0  0  0  0  0  0  0  0  0  0  0
  141.8760   79.0800  224.1840 C   0  0  0  0  0  0  0  0  0  0  0  0
  141.5370   78.2530  223.0940 C   0  0  0  0  0  0  0  0  0  0  0  0
  141.6700   78.7820  221.8060 C   0  0  0  0  0  0  0  0  0  0  0  0
  136.4280   78.7405  220.2480 H   0  0  0  0  0  0  0  0  0  0  0  0
  136.4153   77.7012  221.7390 H   0  0  0  0  0  0  0  0  0  0  0  0
  137.6147   78.3090  223.6938 H   0  0  0  0  0  0  0  0  0  0  0  0
  138.8737   80.0727  224.9275 H   0  0  0  0  0  0  0  0  0  0  0  0
  139.8062   82.0341  223.7056 H   0  0  0  0  0  0  0  0  0  0  0  0
  138.2689   80.4441  219.9792 H   0  0  0  0  0  0  0  0  0  0  0  0
  140.0964   75.7991  222.8791 H   0  0  0  0  0  0  0  0  0  0  0  0
  138.4716   75.3592  222.1811 H   0  0  0  0  0  0  0  0  0  0  0  0
  140.1426   73.4942  222.1303 H   0  0  0  0  0  0  0  0  0  0  0  0
  139.4874   73.9654  220.5184 H   0  0  0  0  0  0  0  0  0  0  0  0
  142.1786   72.5112  221.2954 H   0  0  0  0  0  0  0  0  0  0  0  0
  144.4605   72.8721  220.3549 H   0  0  0  0  0  0  0  0  0  0  0  0
  145.0607   75.0701  219.3390 H   0  0  0  0  0  0  0  0  0  0  0  0
  143.3853   76.9145  219.2753 H   0  0  0  0  0  0  0  0  0  0  0  0
  140.4991   76.8612  219.1634 H   0  0  0  0  0  0  0  0  0  0  0  0
  141.6319   79.1505  218.5483 H   0  0  0  0  0  0  0  0  0  0  0  0
  142.4760   81.2480  219.8420 H   0  0  0  0  0  0  0  0  0  0  0  0
  142.8443   81.9189  222.4749 H   0  0  0  0  0  0  0  0  0  0  0  0
  142.5987   81.0334  224.8246 H   0  0  0  0  0  0  0  0  0  0  0  0
  141.7778   78.6982  225.2109 H   0  0  0  0  0  0  0  0  0  0  0  0
  141.1794   77.2247  223.2512 H   0  0  0  0  0  0  0  0  0  0  0  0
  1  2  2  0
  2  3  2  0
  2  4  1  0
  4  5  1  0
  5  6  2  0
  6  7  1  0
  7  8  2  0
  8  9  1  0
  9 10  1  0
 10 11  1  0
 10 12  1  0
 10 13  1  0
  9 14  2  0
  2 15  1  0
 15 16  1  0
 16 17  1  0
 17 18  1  0
 18 19  2  0
 19 20  1  0
 20 21  2  0
 21 22  1  0
 22 23  2  0
 23 24  1  0
 24 25  1  0
 25 26  2  0
 26 27  1  0
 27 28  1  0
 28 29  2  0
 29 30  1  0
 30 31  2  0
 31 32  1  0
 32 33  2  0
 14  5  1  0
 24 15  1  0
 33 25  1  0
 23 18  1  0
 33 28  1  0
  4 34  1  0
  4 35  1  0
  6 36  1  0
  7 37  1  0
  8 38  1  0
 14 39  1  0
 16 40  1  0
 16 41  1  0
 17 42  1  0
 17 43  1  0
 19 44  1  0
 20 45  1  0
 21 46  1  0
 22 47  1  0
 24 48  1  6
 26 49  1  0
 27 50  1  0
 29 51  1  0
 30 52  1  0
 31 53  1  0
 32 54  1  0
M  END
>  <UniqueID>  (9) 
201

>  <SMILES>  (9) 
O=S(=O)(Cc1cccc(C(F)(F)F)c1)N1CCc2ccccc2[C@@H]1c1c[nH]c2ccccc12

>  <Energy>  (9) 
90.1711342313889

>  <Genealogy>  (9) 
O=S(=O)(Cc1cccc(C(F)(F)F)c1)N1CCc2ccccc2[C@@H]1c1c[nH]c2ccccc12 (3D coordinates assigned)
O=S(=O)(Cc1cccc(C(F)(F)F)c1)N1CCc2ccccc2[C@@H]1c1c[nH]c2ccccc12 (nonaromatic ring conformer: 90.1711342313889 kcal/mol)

>  <smiles>  (9) 
O=S(=O)(Cc1cccc(C(F)(F)F)c1)N1CCc2ccccc2[C@@H]1c1c[nH]c2ccccc12

>  <score_type>  (9) 
oracle

>  <origin>  (9) 
autodockgpu

>  <m_score__min__energy>  (9) 
-8.0600000000000005

>  <m_primary>  (9) 
energy

>  <meeko>  (9) 
{"free_energy": -6.69, "intermolecular_energy": -8.19, "internal_energy": -3.37, "cluster_size": 16, "cluster_id": 3, "rank_in_cluster": 4}

>  <energy>  (9) 
-6.69

>  <cluster_rmsd>  (9) 
0.1

>  <rmsd>  (9) 
270.95

>  <cluster>  (9) 
3

$$$$
GJSDZOHBAHKEKD-XMMPIXPANA-N
     RDKit          3D

 54 58  0  0  0  0  0  0  0  0999 V2000
  138.3760   77.5550  218.9870 O   0  0  0  0  0  0  0  0  0  0  0  0
  138.1070   76.9360  220.3300 S   0  0  0  0  0  0  0  0  0  0  0  0
  137.4060   75.6260  220.1020 O   0  0  0  0  0  0  0  0  0  0  0  0
  137.0200   78.0440  221.2400 C   0  0  0  0  0  0  0  0  0  0  0  0
  137.7770   79.1530  221.9270 C   0  0  0  0  0  0  0  0  0  0  0  0
  137.9350   79.1560  223.3240 C   0  0  0  0  0  0  0  0  0  0  0  0
  138.6050   80.2070  223.9550 C   0  0  0  0  0  0  0  0  0  0  0  0
  139.1210   81.2650  223.2010 C   0  0  0  0  0  0  0  0  0  0  0  0
  138.9610   81.2880  221.8030 C   0  0  0  0  0  0  0  0  0  0  0  0
  139.5500   82.4120  220.9860 C   0  0  0  0  0  0  0  0  0  0  0  0
  140.6930   82.9070  221.5930 F   0  0  0  0  0  0  0  0  0  0  0  0
  139.8770   81.9390  219.7240 F   0  0  0  0  0  0  0  0  0  0  0  0
  138.6410   83.4540  220.8570 F   0  0  0  0  0  0  0  0  0  0  0  0
  138.3170   80.2090  221.1700 C   0  0  0  0  0  0  0  0  0  0  0  0
  139.6360   76.6270  221.1280 N   0  0  0  0  0  0  0  0  0  0  0  0
  139.6160   75.4670  222.0430 C   0  0  0  0  0  0  0  0  0  0  0  0
  140.1920   74.2050  221.4130 C   0  0  0  0  0  0  0  0  0  0  0  0
  141.5610   74.4720  220.8720 C   0  0  0  0  0  0  0  0  0  0  0  0
  142.5110   73.4380  220.8370 C   0  0  0  0  0  0  0  0  0  0  0  0
  143.7660   73.6510  220.2590 C   0  0  0  0  0  0  0  0  0  0  0  0
  144.0710   74.8880  219.6900 C   0  0  0  0  0  0  0  0  0  0  0  0
  143.1250   75.9160  219.7060 C   0  0  0  0  0  0  0  0  0  0  0  0
  141.8690   75.7300  220.3210 C   0  0  0  0  0  0  0  0  0  0  0  0
  140.8230   76.8350  220.2590 C   0  0  2  0  0  0  0  0  0  0  0  0
  141.4160   78.1830  220.5850 C   0  0  0  0  0  0  0  0  0  0  0  0
  141.7470   79.1720  219.6590 C   0  0  0  0  0  0  0  0  0  0  0  0
  142.1860   80.2840  220.2900 N   0  0  0  0  0  0  0  0  0  0  0  0
  142.1290   80.0120  221.6070 C   0  0  0  0  0  0  0  0  0  0  0  0
  142.4640   80.8660  222.6590 C   0  0  0  0  0  0  0  0  0  0  0  0
  142.3140   80.3830  223.9740 C   0  0  0  0  0  0  0  0  0  0  0  0
  141.8450   79.0700  224.2060 C   0  0  0  0  0  0  0  0  0  0  0  0
  141.5180   78.2290  223.1240 C   0  0  0  0  0  0  0  0  0  0  0  0
  141.6650   78.7390  221.8300 C   0  0  0  0  0  0  0  0  0  0  0  0
  136.3005   78.4895  220.5373 H   0  0  0  0  0  0  0  0  0  0  0  0
  136.5111   77.4534  222.0160 H   0  0  0  0  0  0  0  0  0  0  0  0
  137.5293   78.3272  223.9228 H   0  0  0  0  0  0  0  0  0  0  0  0
  138.7268   80.2020  225.0482 H   0  0  0  0  0  0  0  0  0  0  0  0
  139.6554   82.0847  223.7035 H   0  0  0  0  0  0  0  0  0  0  0  0
  138.2349   80.1908  220.0732 H   0  0  0  0  0  0  0  0  0  0  0  0
  140.2076   75.7146  222.9367 H   0  0  0  0  0  0  0  0  0  0  0  0
  138.5646   75.2612  222.2922 H   0  0  0  0  0  0  0  0  0  0  0  0
  140.2510   73.4137  222.1748 H   0  0  0  0  0  0  0  0  0  0  0  0
  139.5376   73.8865  220.5882 H   0  0  0  0  0  0  0  0  0  0  0  0
  142.2662   72.4554  221.2667 H   0  0  0  0  0  0  0  0  0  0  0  0
  144.5129   72.8435  220.2528 H   0  0  0  0  0  0  0  0  0  0  0  0
  145.0559   75.0537  219.2290 H   0  0  0  0  0  0  0  0  0  0  0  0
  143.3621   76.8809  219.2339 H   0  0  0  0  0  0  0  0  0  0  0  0
  140.4747   76.8002  219.2162 H   0  0  0  0  0  0  0  0  0  0  0  0
  141.6626   79.0625  218.5677 H   0  0  0  0  0  0  0  0  0  0  0  0
  142.4950   81.1770  219.8410 H   0  0  0  0  0  0  0  0  0  0  0  0
  142.8336   81.8842  222.4674 H   0  0  0  0  0  0  0  0  0  0  0  0
  142.5636   81.0323  224.8261 H   0  0  0  0  0  0  0  0  0  0  0  0
  141.7347   78.7028  225.2370 H   0  0  0  0  0  0  0  0  0  0  0  0
  141.1583   77.2031  223.2917 H   0  0  0  0  0  0  0  0  0  0  0  0
  1  2  2  0
  2  3  2  0
  2  4  1  0
  4  5  1  0
  5  6  2  0
  6  7  1  0
  7  8  2  0
  8  9  1  0
  9 10  1  0
 10 11  1  0
 10 12  1  0
 10 13  1  0
  9 14  2  0
  2 15  1  0
 15 16  1  0
 16 17  1  0
 17 18  1  0
 18 19  2  0
 19 20  1  0
 20 21  2  0
 21 22  1  0
 22 23  2  0
 23 24  1  0
 24 25  1  0
 25 26  2  0
 26 27  1  0
 27 28  1  0
 28 29  2  0
 29 30  1  0
 30 31  2  0
 31 32  1  0
 32 33  2  0
 14  5  1  0
 24 15  1  0
 33 25  1  0
 23 18  1  0
 33 28  1  0
  4 34  1  0
  4 35  1  0
  6 36  1  0
  7 37  1  0
  8 38  1  0
 14 39  1  0
 16 40  1  0
 16 41  1  0
 17 42  1  0
 17 43  1  0
 19 44  1  0
 20 45  1  0
 21 46  1  0
 22 47  1  0
 24 48  1  6
 26 49  1  0
 27 50  1  0
 29 51  1  0
 30 52  1  0
 31 53  1  0
 32 54  1  0
M  END
>  <UniqueID>  (10) 
201

>  <SMILES>  (10) 
O=S(=O)(Cc1cccc(C(F)(F)F)c1)N1CCc2ccccc2[C@@H]1c1c[nH]c2ccccc12

>  <Energy>  (10) 
90.1711342313889

>  <Genealogy>  (10) 
O=S(=O)(Cc1cccc(C(F)(F)F)c1)N1CCc2ccccc2[C@@H]1c1c[nH]c2ccccc12 (3D coordinates assigned)
O=S(=O)(Cc1cccc(C(F)(F)F)c1)N1CCc2ccccc2[C@@H]1c1c[nH]c2ccccc12 (nonaromatic ring conformer: 90.1711342313889 kcal/mol)

>  <smiles>  (10) 
O=S(=O)(Cc1cccc(C(F)(F)F)c1)N1CCc2ccccc2[C@@H]1c1c[nH]c2ccccc12

>  <score_type>  (10) 
oracle

>  <origin>  (10) 
autodockgpu

>  <m_score__min__energy>  (10) 
-8.0600000000000005

>  <m_primary>  (10) 
energy

>  <meeko>  (10) 
{"free_energy": -6.67, "intermolecular_energy": -8.16, "internal_energy": -3.39, "cluster_size": 16, "cluster_id": 3, "rank_in_cluster": 13}

>  <energy>  (10) 
-6.69

>  <cluster_rmsd>  (10) 
0.08

>  <rmsd>  (10) 
270.94

>  <cluster>  (10) 
3

$$$$
GJSDZOHBAHKEKD-XMMPIXPANA-N
     RDKit          3D

 54 58  0  0  0  0  0  0  0  0999 V2000
  138.4190   77.6030  218.8200 O   0  0  0  0  0  0  0  0  0  0  0  0
  138.0940   77.0350  220.1720 S   0  0  0  0  0  0  0  0  0  0  0  0
  137.3710   75.7330  219.9640 O   0  0  0  0  0  0  0  0  0  0  0  0
  137.0050   78.1950  221.0110 C   0  0  0  0  0  0  0  0  0  0  0  0
  137.7680   79.2540  221.7660 C   0  0  0  0  0  0  0  0  0  0  0  0
  137.9260   79.1680  223.1600 C   0  0  0  0  0  0  0  0  0  0  0  0
  138.6030   80.1730  223.8570 C   0  0  0  0  0  0  0  0  0  0  0  0
  139.1230   81.2740  223.1710 C   0  0  0  0  0  0  0  0  0  0  0  0
  138.9620   81.3870  221.7770 C   0  0  0  0  0  0  0  0  0  0  0  0
  139.5550   82.5580  221.0320 C   0  0  0  0  0  0  0  0  0  0  0  0
  140.6910   83.0200  221.6790 F   0  0  0  0  0  0  0  0  0  0  0  0
  139.8970   82.1600  219.7480 F   0  0  0  0  0  0  0  0  0  0  0  0
  138.6450   83.6030  220.9550 F   0  0  0  0  0  0  0  0  0  0  0  0
  138.3120   80.3540  221.0780 C   0  0  0  0  0  0  0  0  0  0  0  0
  139.5900   76.7190  221.0290 N   0  0  0  0  0  0  0  0  0  0  0  0
  139.5300   75.5580  221.9420 C   0  0  0  0  0  0  0  0  0  0  0  0
  140.1240   74.2940  221.3330 C   0  0  0  0  0  0  0  0  0  0  0  0
  141.5150   74.5560  220.8460 C   0  0  0  0  0  0  0  0  0  0  0  0
  142.4620   73.5190  220.8470 C   0  0  0  0  0  0  0  0  0  0  0  0
  143.7390   73.7270  220.3190 C   0  0  0  0  0  0  0  0  0  0  0  0
  144.0710   74.9630  219.7630 C   0  0  0  0  0  0  0  0  0  0  0  0
  143.1290   75.9950  219.7430 C   0  0  0  0  0  0  0  0  0  0  0  0
  141.8490   75.8140  220.3080 C   0  0  0  0  0  0  0  0  0  0  0  0
  140.8100   76.9230  220.2070 C   0  0  2  0  0  0  0  0  0  0  0  0
  141.3960   78.2670  220.5570 C   0  0  0  0  0  0  0  0  0  0  0  0
  141.7210   79.2750  219.6490 C   0  0  0  0  0  0  0  0  0  0  0  0
  142.1540   80.3790  220.2990 N   0  0  0  0  0  0  0  0  0  0  0  0
  142.0990   80.0830  221.6120 C   0  0  0  0  0  0  0  0  0  0  0  0
  142.4280   80.9190  222.6790 C   0  0  0  0  0  0  0  0  0  0  0  0
  142.2800   80.4130  223.9850 C   0  0  0  0  0  0  0  0  0  0  0  0
  141.8190   79.0930  224.1930 C   0  0  0  0  0  0  0  0  0  0  0  0
  141.4960   78.2690  223.0970 C   0  0  0  0  0  0  0  0  0  0  0  0
  141.6420   78.8030  221.8120 C   0  0  0  0  0  0  0  0  0  0  0  0
  136.3665   78.6858  220.2617 H   0  0  0  0  0  0  0  0  0  0  0  0
  136.4070   77.6279  221.7395 H   0  0  0  0  0  0  0  0  0  0  0  0
  137.5149   78.3056  223.7052 H   0  0  0  0  0  0  0  0  0  0  0  0
  138.7267   80.0971  224.9474 H   0  0  0  0  0  0  0  0  0  0  0  0
  139.6617   82.0576  223.7240 H   0  0  0  0  0  0  0  0  0  0  0  0
  138.2281   80.4067  219.9825 H   0  0  0  0  0  0  0  0  0  0  0  0
  140.0883   75.8023  222.8578 H   0  0  0  0  0  0  0  0  0  0  0  0
  138.4690   75.3568  222.1511 H   0  0  0  0  0  0  0  0  0  0  0  0
  140.1497   73.5014  222.0953 H   0  0  0  0  0  0  0  0  0  0  0  0
  139.5007   73.9793  220.4830 H   0  0  0  0  0  0  0  0  0  0  0  0
  142.1970   72.5370  221.2660 H   0  0  0  0  0  0  0  0  0  0  0  0
  144.4824   72.9165  220.3417 H   0  0  0  0  0  0  0  0  0  0  0  0
  145.0737   75.1249  219.3407 H   0  0  0  0  0  0  0  0  0  0  0  0
  143.3884   76.9593  219.2816 H   0  0  0  0  0  0  0  0  0  0  0  0
  140.5010   76.8907  219.1518 H   0  0  0  0  0  0  0  0  0  0  0  0
  141.6367   79.1844  218.5560 H   0  0  0  0  0  0  0  0  0  0  0  0
  142.4580   81.2800  219.8660 H   0  0  0  0  0  0  0  0  0  0  0  0
  142.7920   81.9425  222.5057 H   0  0  0  0  0  0  0  0  0  0  0  0
  142.5247   81.0489  224.8485 H   0  0  0  0  0  0  0  0  0  0  0  0
  141.7118   78.7067  225.2173 H   0  0  0  0  0  0  0  0  0  0  0  0
  141.1404   77.2389  223.2466 H   0  0  0  0  0  0  0  0  0  0  0  0
  1  2  2  0
  2  3  2  0
  2  4  1  0
  4  5  1  0
  5  6  2  0
  6  7  1  0
  7  8  2  0
  8  9  1  0
  9 10  1  0
 10 11  1  0
 10 12  1  0
 10 13  1  0
  9 14  2  0
  2 15  1  0
 15 16  1  0
 16 17  1  0
 17 18  1  0
 18 19  2  0
 19 20  1  0
 20 21  2  0
 21 22  1  0
 22 23  2  0
 23 24  1  0
 24 25  1  0
 25 26  2  0
 26 27  1  0
 27 28  1  0
 28 29  2  0
 29 30  1  0
 30 31  2  0
 31 32  1  0
 32 33  2  0
 14  5  1  0
 24 15  1  0
 33 25  1  0
 23 18  1  0
 33 28  1  0
  4 34  1  0
  4 35  1  0
  6 36  1  0
  7 37  1  0
  8 38  1  0
 14 39  1  0
 16 40  1  0
 16 41  1  0
 17 42  1  0
 17 43  1  0
 19 44  1  0
 20 45  1  0
 21 46  1  0
 22 47  1  0
 24 48  1  6
 26 49  1  0
 27 50  1  0
 29 51  1  0
 30 52  1  0
 31 53  1  0
 32 54  1  0
M  END
>  <UniqueID>  (11) 
201

>  <SMILES>  (11) 
O=S(=O)(Cc1cccc(C(F)(F)F)c1)N1CCc2ccccc2[C@@H]1c1c[nH]c2ccccc12

>  <Energy>  (11) 
90.1711342313889

>  <Genealogy>  (11) 
O=S(=O)(Cc1cccc(C(F)(F)F)c1)N1CCc2ccccc2[C@@H]1c1c[nH]c2ccccc12 (3D coordinates assigned)
O=S(=O)(Cc1cccc(C(F)(F)F)c1)N1CCc2ccccc2[C@@H]1c1c[nH]c2ccccc12 (nonaromatic ring conformer: 90.1711342313889 kcal/mol)

>  <smiles>  (11) 
O=S(=O)(Cc1cccc(C(F)(F)F)c1)N1CCc2ccccc2[C@@H]1c1c[nH]c2ccccc12

>  <score_type>  (11) 
oracle

>  <origin>  (11) 
autodockgpu

>  <m_score__min__energy>  (11) 
-8.0600000000000005

>  <m_primary>  (11) 
energy

>  <meeko>  (11) 
{"free_energy": -6.67, "intermolecular_energy": -8.17, "internal_energy": -3.39, "cluster_size": 16, "cluster_id": 3, "rank_in_cluster": 12}

>  <energy>  (11) 
-6.68

>  <cluster_rmsd>  (11) 
0.08

>  <rmsd>  (11) 
270.92

>  <cluster>  (11) 
3

$$$$
GJSDZOHBAHKEKD-XMMPIXPANA-N
     RDKit          3D

 54 58  0  0  0  0  0  0  0  0999 V2000
  138.4820   82.6390  218.1980 O   0  0  0  0  0  0  0  0  0  0  0  0
  138.7380   81.4070  219.0200 S   0  0  0  0  0  0  0  0  0  0  0  0
  138.5540   80.2110  218.1280 O   0  0  0  0  0  0  0  0  0  0  0  0
  137.5170   81.3610  220.3400 C   0  0  0  0  0  0  0  0  0  0  0  0
  137.9860   80.5570  221.5260 C   0  0  0  0  0  0  0  0  0  0  0  0
  138.2470   81.1810  222.7590 C   0  0  0  0  0  0  0  0  0  0  0  0
  138.7180   80.4330  223.8420 C   0  0  0  0  0  0  0  0  0  0  0  0
  138.9350   79.0600  223.7050 C   0  0  0  0  0  0  0  0  0  0  0  0
  138.6940   78.4180  222.4760 C   0  0  0  0  0  0  0  0  0  0  0  0
  138.8950   76.9280  222.3390 C   0  0  0  0  0  0  0  0  0  0  0  0
  137.9890   76.2420  223.1320 F   0  0  0  0  0  0  0  0  0  0  0  0
  138.7070   76.5600  221.0160 F   0  0  0  0  0  0  0  0  0  0  0  0
  140.1760   76.5680  222.7330 F   0  0  0  0  0  0  0  0  0  0  0  0
  138.1860   79.1700  221.4010 C   0  0  0  0  0  0  0  0  0  0  0  0
  140.3960   81.4390  219.5870 N   0  0  0  0  0  0  0  0  0  0  0  0
  140.8190   82.7410  220.1430 C   0  0  0  0  0  0  0  0  0  0  0  0
  140.7610   82.7820  221.6650 C   0  0  0  0  0  0  0  0  0  0  0  0
  141.5370   81.6420  222.2460 C   0  0  0  0  0  0  0  0  0  0  0  0
  142.1590   81.7870  223.4970 C   0  0  0  0  0  0  0  0  0  0  0  0
  142.8160   80.7050  224.0890 C   0  0  0  0  0  0  0  0  0  0  0  0
  142.8360   79.4660  223.4490 C   0  0  0  0  0  0  0  0  0  0  0  0
  142.2050   79.3090  222.2120 C   0  0  0  0  0  0  0  0  0  0  0  0
  141.5720   80.4010  221.5830 C   0  0  0  0  0  0  0  0  0  0  0  0
  140.8220   80.1920  220.2740 C   0  0  2  0  0  0  0  0  0  0  0  0
  141.6250   79.3680  219.2980 C   0  0  0  0  0  0  0  0  0  0  0  0
  142.2690   79.8530  218.1600 C   0  0  0  0  0  0  0  0  0  0  0  0
  142.9600   78.8650  217.5480 N   0  0  0  0  0  0  0  0  0  0  0  0
  142.7650   77.7590  218.2920 C   0  0  0  0  0  0  0  0  0  0  0  0
  143.2970   76.4890  218.0680 C   0  0  0  0  0  0  0  0  0  0  0  0
  142.9790   75.4680  218.9860 C   0  0  0  0  0  0  0  0  0  0  0  0
  142.1380   75.7360  220.0900 C   0  0  0  0  0  0  0  0  0  0  0  0
  141.6120   77.0270  220.2900 C   0  0  0  0  0  0  0  0  0  0  0  0
  141.9560   78.0230  219.3690 C   0  0  0  0  0  0  0  0  0  0  0  0
  137.3130   82.3906  220.6691 H   0  0  0  0  0  0  0  0  0  0  0  0
  136.6112   80.8788  219.9437 H   0  0  0  0  0  0  0  0  0  0  0  0
  138.0798   82.2624  222.8717 H   0  0  0  0  0  0  0  0  0  0  0  0
  138.9182   80.9268  224.8043 H   0  0  0  0  0  0  0  0  0  0  0  0
  139.2970   78.4761  224.5641 H   0  0  0  0  0  0  0  0  0  0  0  0
  137.9426   78.6683  220.4528 H   0  0  0  0  0  0  0  0  0  0  0  0
  141.8534   82.9389  219.8256 H   0  0  0  0  0  0  0  0  0  0  0  0
  140.1222   83.5037  219.7652 H   0  0  0  0  0  0  0  0  0  0  0  0
  141.1905   83.7308  222.0189 H   0  0  0  0  0  0  0  0  0  0  0  0
  139.7118   82.7002  221.9851 H   0  0  0  0  0  0  0  0  0  0  0  0
  142.1288   82.7577  224.0136 H   0  0  0  0  0  0  0  0  0  0  0  0
  143.3175   80.8305  225.0600 H   0  0  0  0  0  0  0  0  0  0  0  0
  143.3482   78.6128  223.9177 H   0  0  0  0  0  0  0  0  0  0  0  0
  142.2020   78.3233  221.7238 H   0  0  0  0  0  0  0  0  0  0  0  0
  139.9099   79.6603  220.5826 H   0  0  0  0  0  0  0  0  0  0  0  0
  142.2214   80.8944  217.8091 H   0  0  0  0  0  0  0  0  0  0  0  0
  143.5350   78.9500  216.6800 H   0  0  0  0  0  0  0  0  0  0  0  0
  143.9448   76.2906  217.2014 H   0  0  0  0  0  0  0  0  0  0  0  0
  143.3876   74.4568  218.8425 H   0  0  0  0  0  0  0  0  0  0  0  0
  141.8926   74.9306  220.7979 H   0  0  0  0  0  0  0  0  0  0  0  0
  140.9521   77.2454  221.1425 H   0  0  0  0  0  0  0  0  0  0  0  0
  1  2  2  0
  2  3  2  0
  2  4  1  0
  4  5  1  0
  5  6  2  0
  6  7  1  0
  7  8  2  0
  8  9  1  0
  9 10  1  0
 10 11  1  0
 10 12  1  0
 10 13  1  0
  9 14  2  0
  2 15  1  0
 15 16  1  0
 16 17  1  0
 17 18  1  0
 18 19  2  0
 19 20  1  0
 20 21  2  0
 21 22  1  0
 22 23  2  0
 23 24  1  0
 24 25  1  0
 25 26  2  0
 26 27  1  0
 27 28  1  0
 28 29  2  0
 29 30  1  0
 30 31  2  0
 31 32  1  0
 32 33  2  0
 14  5  1  0
 24 15  1  0
 33 25  1  0
 23 18  1  0
 33 28  1  0
  4 34  1  0
  4 35  1  0
  6 36  1  0
  7 37  1  0
  8 38  1  0
 14 39  1  0
 16 40  1  0
 16 41  1  0
 17 42  1  0
 17 43  1  0
 19 44  1  0
 20 45  1  0
 21 46  1  0
 22 47  1  0
 24 48  1  1
 26 49  1  0
 27 50  1  0
 29 51  1  0
 30 52  1  0
 31 53  1  0
 32 54  1  0
M  END
>  <UniqueID>  (12) 
201

>  <SMILES>  (12) 
O=S(=O)(Cc1cccc(C(F)(F)F)c1)N1CCc2ccccc2[C@@H]1c1c[nH]c2ccccc12

>  <Energy>  (12) 
90.1711342313889

>  <Genealogy>  (12) 
O=S(=O)(Cc1cccc(C(F)(F)F)c1)N1CCc2ccccc2[C@@H]1c1c[nH]c2ccccc12 (3D coordinates assigned)
O=S(=O)(Cc1cccc(C(F)(F)F)c1)N1CCc2ccccc2[C@@H]1c1c[nH]c2ccccc12 (nonaromatic ring conformer: 90.1711342313889 kcal/mol)

>  <smiles>  (12) 
O=S(=O)(Cc1cccc(C(F)(F)F)c1)N1CCc2ccccc2[C@@H]1c1c[nH]c2ccccc12

>  <score_type>  (12) 
oracle

>  <origin>  (12) 
autodockgpu

>  <m_score__min__energy>  (12) 
-8.0600000000000005

>  <m_primary>  (12) 
energy

>  <meeko>  (12) 
{"free_energy": -6.9, "intermolecular_energy": -8.39, "internal_energy": -3.08, "cluster_size": 3, "cluster_id": 2, "rank_in_cluster": 2}

>  <energy>  (12) 
-6.68

>  <cluster_rmsd>  (12) 
0.05

>  <rmsd>  (12) 
270.9

>  <cluster>  (12) 
3

$$$$
GJSDZOHBAHKEKD-XMMPIXPANA-N
     RDKit          3D

 54 58  0  0  0  0  0  0  0  0999 V2000
  134.6390   68.0900  224.9110 O   0  0  0  0  0  0  0  0  0  0  0  0
  135.3730   69.3900  224.7350 S   0  0  0  0  0  0  0  0  0  0  0  0
  135.5480   70.0080  226.0940 O   0  0  0  0  0  0  0  0  0  0  0  0
  134.3520   70.4660  223.7170 C   0  0  0  0  0  0  0  0  0  0  0  0
  134.7540   71.9150  223.8340 C   0  0  0  0  0  0  0  0  0  0  0  0
  135.7370   72.4580  222.9890 C   0  0  0  0  0  0  0  0  0  0  0  0
  136.1300   73.7920  223.1300 C   0  0  0  0  0  0  0  0  0  0  0  0
  135.5490   74.5940  224.1160 C   0  0  0  0  0  0  0  0  0  0  0  0
  134.5740   74.0650  224.9830 C   0  0  0  0  0  0  0  0  0  0  0  0
  133.9220   74.9420  226.0240 C   0  0  0  0  0  0  0  0  0  0  0  0
  133.1030   75.8840  225.4220 F   0  0  0  0  0  0  0  0  0  0  0  0
  133.1570   74.1550  226.8730 F   0  0  0  0  0  0  0  0  0  0  0  0
  134.8800   75.6140  226.7700 F   0  0  0  0  0  0  0  0  0  0  0  0
  134.1570   72.7330  224.8120 C   0  0  0  0  0  0  0  0  0  0  0  0
  136.9550   69.0590  224.0560 N   0  0  0  0  0  0  0  0  0  0  0  0
  136.9320   68.6840  222.6270 C   0  0  0  0  0  0  0  0  0  0  0  0
  137.2640   69.8490  221.7030 C   0  0  0  0  0  0  0  0  0  0  0  0
  138.5640   70.4740  222.1010 C   0  0  0  0  0  0  0  0  0  0  0  0
  139.3740   71.0790  221.1260 C   0  0  0  0  0  0  0  0  0  0  0  0
  140.5500   71.7380  221.4940 C   0  0  0  0  0  0  0  0  0  0  0  0
  140.9110   71.8210  222.8390 C   0  0  0  0  0  0  0  0  0  0  0  0
  140.1010   71.2380  223.8170 C   0  0  0  0  0  0  0  0  0  0  0  0
  138.9320   70.5340  223.4580 C   0  0  0  0  0  0  0  0  0  0  0  0
  138.0220   69.9730  224.5420 C   0  0  2  0  0  0  0  0  0  0  0  0
  138.8060   69.2550  225.6110 C   0  0  0  0  0  0  0  0  0  0  0  0
  138.8860   67.8710  225.7700 C   0  0  0  0  0  0  0  0  0  0  0  0
  139.7310   67.5580  226.7790 N   0  0  0  0  0  0  0  0  0  0  0  0
  140.1920   68.7290  227.2550 C   0  0  0  0  0  0  0  0  0  0  0  0
  141.1100   68.9160  228.2900 C   0  0  0  0  0  0  0  0  0  0  0  0
  141.4730   70.2360  228.6210 C   0  0  0  0  0  0  0  0  0  0  0  0
  140.9110   71.3290  227.9230 C   0  0  0  0  0  0  0  0  0  0  0  0
  139.9840   71.1120  226.8850 C   0  0  0  0  0  0  0  0  0  0  0  0
  139.6520   69.7900  226.5700 C   0  0  0  0  0  0  0  0  0  0  0  0
  134.4493   70.1556  222.6662 H   0  0  0  0  0  0  0  0  0  0  0  0
  133.3135   70.3754  224.0681 H   0  0  0  0  0  0  0  0  0  0  0  0
  136.1993   71.8302  222.2130 H   0  0  0  0  0  0  0  0  0  0  0  0
  136.8981   74.2113  222.4636 H   0  0  0  0  0  0  0  0  0  0  0  0
  135.8555   75.6457  224.2154 H   0  0  0  0  0  0  0  0  0  0  0  0
  133.3570   72.3265  225.4482 H   0  0  0  0  0  0  0  0  0  0  0  0
  137.6689   67.8842  222.4621 H   0  0  0  0  0  0  0  0  0  0  0  0
  135.9100   68.3544  222.3886 H   0  0  0  0  0  0  0  0  0  0  0  0
  137.3396   69.4817  220.6689 H   0  0  0  0  0  0  0  0  0  0  0  0
  136.4668   70.6033  221.7779 H   0  0  0  0  0  0  0  0  0  0  0  0
  139.0810   71.0338  220.0667 H   0  0  0  0  0  0  0  0  0  0  0  0
  141.1909   72.1912  220.7234 H   0  0  0  0  0  0  0  0  0  0  0  0
  141.8333   72.3454  223.1296 H   0  0  0  0  0  0  0  0  0  0  0  0
  140.3775   71.3288  224.8778 H   0  0  0  0  0  0  0  0  0  0  0  0
  137.5272   70.8667  224.9500 H   0  0  0  0  0  0  0  0  0  0  0  0
  138.3386   67.1372  225.1602 H   0  0  0  0  0  0  0  0  0  0  0  0
  139.9800   66.5980  227.1100 H   0  0  0  0  0  0  0  0  0  0  0  0
  141.5369   68.0584  228.8306 H   0  0  0  0  0  0  0  0  0  0  0  0
  142.1984   70.4174  229.4278 H   0  0  0  0  0  0  0  0  0  0  0  0
  141.1994   72.3558  228.1922 H   0  0  0  0  0  0  0  0  0  0  0  0
  139.5353   71.9552  226.3394 H   0  0  0  0  0  0  0  0  0  0  0  0
  1  2  2  0
  2  3  2  0
  2  4  1  0
  4  5  1  0
  5  6  2  0
  6  7  1  0
  7  8  2  0
  8  9  1  0
  9 10  1  0
 10 11  1  0
 10 12  1  0
 10 13  1  0
  9 14  2  0
  2 15  1  0
 15 16  1  0
 16 17  1  0
 17 18  1  0
 18 19  2  0
 19 20  1  0
 20 21  2  0
 21 22  1  0
 22 23  2  0
 23 24  1  0
 24 25  1  0
 25 26  2  0
 26 27  1  0
 27 28  1  0
 28 29  2  0
 29 30  1  0
 30 31  2  0
 31 32  1  0
 32 33  2  0
 14  5  1  0
 24 15  1  0
 33 25  1  0
 23 18  1  0
 33 28  1  0
  4 34  1  0
  4 35  1  0
  6 36  1  0
  7 37  1  0
  8 38  1  0
 14 39  1  0
 16 40  1  0
 16 41  1  0
 17 42  1  0
 17 43  1  0
 19 44  1  0
 20 45  1  0
 21 46  1  0
 22 47  1  0
 24 48  1  1
 26 49  1  0
 27 50  1  0
 29 51  1  0
 30 52  1  0
 31 53  1  0
 32 54  1  0
M  END
>  <UniqueID>  (13) 
201

>  <SMILES>  (13) 
O=S(=O)(Cc1cccc(C(F)(F)F)c1)N1CCc2ccccc2[C@@H]1c1c[nH]c2ccccc12

>  <Energy>  (13) 
90.1711342313889

>  <Genealogy>  (13) 
O=S(=O)(Cc1cccc(C(F)(F)F)c1)N1CCc2ccccc2[C@@H]1c1c[nH]c2ccccc12 (3D coordinates assigned)
O=S(=O)(Cc1cccc(C(F)(F)F)c1)N1CCc2ccccc2[C@@H]1c1c[nH]c2ccccc12 (nonaromatic ring conformer: 90.1711342313889 kcal/mol)

>  <smiles>  (13) 
O=S(=O)(Cc1cccc(C(F)(F)F)c1)N1CCc2ccccc2[C@@H]1c1c[nH]c2ccccc12

>  <score_type>  (13) 
oracle

>  <origin>  (13) 
autodockgpu

>  <m_score__min__energy>  (13) 
-8.0600000000000005

>  <m_primary>  (13) 
energy

>  <meeko>  (13) 
{"free_energy": -8.06, "intermolecular_energy": -9.55, "internal_energy": -2.2, "cluster_size": 1, "cluster_id": 1, "rank_in_cluster": 1}

>  <energy>  (13) 
-6.68

>  <cluster_rmsd>  (13) 
0.06

>  <rmsd>  (13) 
270.9

>  <cluster>  (13) 
3

$$$$
GJSDZOHBAHKEKD-XMMPIXPANA-N
     RDKit          3D

 54 58  0  0  0  0  0  0  0  0999 V2000
  138.3970   77.5640  218.8340 O   0  0  0  0  0  0  0  0  0  0  0  0
  138.0860   77.0100  220.1950 S   0  0  0  0  0  0  0  0  0  0  0  0
  137.3620   75.7060  220.0080 O   0  0  0  0  0  0  0  0  0  0  0  0
  137.0050   78.1790  221.0330 C   0  0  0  0  0  0  0  0  0  0  0  0
  137.7750   79.2490  221.7640 C   0  0  0  0  0  0  0  0  0  0  0  0
  137.9450   79.1870  223.1580 C   0  0  0  0  0  0  0  0  0  0  0  0
  138.6280   80.2040  223.8320 C   0  0  0  0  0  0  0  0  0  0  0  0
  139.1450   81.2910  223.1230 C   0  0  0  0  0  0  0  0  0  0  0  0
  138.9730   81.3800  221.7290 C   0  0  0  0  0  0  0  0  0  0  0  0
  139.5630   82.5370  220.9590 C   0  0  0  0  0  0  0  0  0  0  0  0
  138.6390   83.5630  220.8400 F   0  0  0  0  0  0  0  0  0  0  0  0
  140.6810   83.0100  221.6280 F   0  0  0  0  0  0  0  0  0  0  0  0
  139.9340   82.1380  219.6830 F   0  0  0  0  0  0  0  0  0  0  0  0
  138.3170   80.3360  221.0520 C   0  0  0  0  0  0  0  0  0  0  0  0
  139.5910   76.7040  221.0400 N   0  0  0  0  0  0  0  0  0  0  0  0
  139.5430   75.5490  221.9610 C   0  0  0  0  0  0  0  0  0  0  0  0
  140.1350   74.2820  221.3550 C   0  0  0  0  0  0  0  0  0  0  0  0
  141.5200   74.5440  220.8530 C   0  0  0  0  0  0  0  0  0  0  0  0
  142.4690   73.5090  220.8520 C   0  0  0  0  0  0  0  0  0  0  0  0
  143.7400   73.7170  220.3090 C   0  0  0  0  0  0  0  0  0  0  0  0
  144.0640   74.9500  219.7420 C   0  0  0  0  0  0  0  0  0  0  0  0
  143.1190   75.9790  219.7230 C   0  0  0  0  0  0  0  0  0  0  0  0
  141.8460   75.7990  220.3030 C   0  0  0  0  0  0  0  0  0  0  0  0
  140.8030   76.9040  220.2040 C   0  0  2  0  0  0  0  0  0  0  0  0
  141.3890   78.2530  220.5390 C   0  0  0  0  0  0  0  0  0  0  0  0
  141.7060   79.2540  219.6200 C   0  0  0  0  0  0  0  0  0  0  0  0
  142.1410   80.3630  220.2590 N   0  0  0  0  0  0  0  0  0  0  0  0
  142.0960   80.0780  221.5740 C   0  0  0  0  0  0  0  0  0  0  0  0
  142.4320   80.9240  222.6320 C   0  0  0  0  0  0  0  0  0  0  0  0
  142.2940   80.4270  223.9430 C   0  0  0  0  0  0  0  0  0  0  0  0
  141.8370   79.1090  224.1650 C   0  0  0  0  0  0  0  0  0  0  0  0
  141.5080   78.2760  223.0780 C   0  0  0  0  0  0  0  0  0  0  0  0
  141.6430   78.7990  221.7880 C   0  0  0  0  0  0  0  0  0  0  0  0
  136.3559   78.6586  220.2856 H   0  0  0  0  0  0  0  0  0  0  0  0
  136.4177   77.6202  221.7765 H   0  0  0  0  0  0  0  0  0  0  0  0
  137.5387   78.3341  223.7214 H   0  0  0  0  0  0  0  0  0  0  0  0
  138.7585   80.1480  224.9228 H   0  0  0  0  0  0  0  0  0  0  0  0
  139.6902   82.0827  223.6578 H   0  0  0  0  0  0  0  0  0  0  0  0
  138.2266   80.3691  219.9562 H   0  0  0  0  0  0  0  0  0  0  0  0
  140.1092   75.8010  222.8698 H   0  0  0  0  0  0  0  0  0  0  0  0
  138.4845   75.3462  222.1811 H   0  0  0  0  0  0  0  0  0  0  0  0
  140.1702   73.4949  222.1226 H   0  0  0  0  0  0  0  0  0  0  0  0
  139.5045   73.9598  220.5132 H   0  0  0  0  0  0  0  0  0  0  0  0
  142.2108   72.5295  221.2808 H   0  0  0  0  0  0  0  0  0  0  0  0
  144.4853   72.9082  220.3287 H   0  0  0  0  0  0  0  0  0  0  0  0
  145.0627   75.1118  219.3103 H   0  0  0  0  0  0  0  0  0  0  0  0
  143.3706   76.9400  219.2506 H   0  0  0  0  0  0  0  0  0  0  0  0
  140.4839   76.8619  219.1521 H   0  0  0  0  0  0  0  0  0  0  0  0
  141.6147   79.1546  218.5283 H   0  0  0  0  0  0  0  0  0  0  0  0
  142.4400   81.2620  219.8160 H   0  0  0  0  0  0  0  0  0  0  0  0
  142.7932   81.9466  222.4480 H   0  0  0  0  0  0  0  0  0  0  0  0
  142.5439   81.0699  224.7999 H   0  0  0  0  0  0  0  0  0  0  0  0
  141.7375   78.7309  225.1932 H   0  0  0  0  0  0  0  0  0  0  0  0
  141.1559   77.2463  223.2387 H   0  0  0  0  0  0  0  0  0  0  0  0
  1  2  2  0
  2  3  2  0
  2  4  1  0
  4  5  1  0
  5  6  2  0
  6  7  1  0
  7  8  2  0
  8  9  1  0
  9 10  1  0
 10 11  1  0
 10 12  1  0
 10 13  1  0
  9 14  2  0
  2 15  1  0
 15 16  1  0
 16 17  1  0
 17 18  1  0
 18 19  2  0
 19 20  1  0
 20 21  2  0
 21 22  1  0
 22 23  2  0
 23 24  1  0
 24 25  1  0
 25 26  2  0
 26 27  1  0
 27 28  1  0
 28 29  2  0
 29 30  1  0
 30 31  2  0
 31 32  1  0
 32 33  2  0
 14  5  1  0
 24 15  1  0
 33 25  1  0
 23 18  1  0
 33 28  1  0
  4 34  1  0
  4 35  1  0
  6 36  1  0
  7 37  1  0
  8 38  1  0
 14 39  1  0
 16 40  1  0
 16 41  1  0
 17 42  1  0
 17 43  1  0
 19 44  1  0
 20 45  1  0
 21 46  1  0
 22 47  1  0
 24 48  1  6
 26 49  1  0
 27 50  1  0
 29 51  1  0
 30 52  1  0
 31 53  1  0
 32 54  1  0
M  END
>  <UniqueID>  (14) 
201

>  <SMILES>  (14) 
O=S(=O)(Cc1cccc(C(F)(F)F)c1)N1CCc2ccccc2[C@@H]1c1c[nH]c2ccccc12

>  <Energy>  (14) 
90.1711342313889

>  <Genealogy>  (14) 
O=S(=O)(Cc1cccc(C(F)(F)F)c1)N1CCc2ccccc2[C@@H]1c1c[nH]c2ccccc12 (3D coordinates assigned)
O=S(=O)(Cc1cccc(C(F)(F)F)c1)N1CCc2ccccc2[C@@H]1c1c[nH]c2ccccc12 (nonaromatic ring conformer: 90.1711342313889 kcal/mol)

>  <smiles>  (14) 
O=S(=O)(Cc1cccc(C(F)(F)F)c1)N1CCc2ccccc2[C@@H]1c1c[nH]c2ccccc12

>  <score_type>  (14) 
oracle

>  <origin>  (14) 
autodockgpu

>  <m_score__min__energy>  (14) 
-8.0600000000000005

>  <m_primary>  (14) 
energy

>  <meeko>  (14) 
{"free_energy": -6.66, "intermolecular_energy": -8.15, "internal_energy": -3.39, "cluster_size": 16, "cluster_id": 3, "rank_in_cluster": 15}

>  <energy>  (14) 
-6.67

>  <cluster_rmsd>  (14) 
0.06

>  <rmsd>  (14) 
270.93

>  <cluster>  (14) 
3

$$$$
GJSDZOHBAHKEKD-XMMPIXPANA-N
     RDKit          3D

 54 58  0  0  0  0  0  0  0  0999 V2000
  138.3910   77.5960  218.9320 O   0  0  0  0  0  0  0  0  0  0  0  0
  138.1050   76.9920  220.2780 S   0  0  0  0  0  0  0  0  0  0  0  0
  137.3990   75.6840  220.0550 O   0  0  0  0  0  0  0  0  0  0  0  0
  137.0150   78.1150  221.1660 C   0  0  0  0  0  0  0  0  0  0  0  0
  137.7730   79.2150  221.8660 C   0  0  0  0  0  0  0  0  0  0  0  0
  137.9340   79.2000  223.2620 C   0  0  0  0  0  0  0  0  0  0  0  0
  138.6050   80.2430  223.9060 C   0  0  0  0  0  0  0  0  0  0  0  0
  139.1190   81.3100  223.1650 C   0  0  0  0  0  0  0  0  0  0  0  0
  138.9550   81.3530  221.7680 C   0  0  0  0  0  0  0  0  0  0  0  0
  139.5410   82.4880  220.9640 C   0  0  0  0  0  0  0  0  0  0  0  0
  138.6230   83.5180  220.8370 F   0  0  0  0  0  0  0  0  0  0  0  0
  140.6730   82.9670  221.6050 F   0  0  0  0  0  0  0  0  0  0  0  0
  139.8890   82.0590  219.6910 F   0  0  0  0  0  0  0  0  0  0  0  0
  138.3110   80.2810  221.1220 C   0  0  0  0  0  0  0  0  0  0  0  0
  139.6240   76.6820  221.0950 N   0  0  0  0  0  0  0  0  0  0  0  0
  139.5920   75.5230  222.0090 C   0  0  0  0  0  0  0  0  0  0  0  0
  140.1750   74.2600  221.3870 C   0  0  0  0  0  0  0  0  0  0  0  0
  141.5510   74.5260  220.8630 C   0  0  0  0  0  0  0  0  0  0  0  0
  142.5010   73.4920  220.8390 C   0  0  0  0  0  0  0  0  0  0  0  0
  143.7620   73.7040  220.2770 C   0  0  0  0  0  0  0  0  0  0  0  0
  144.0750   74.9400  219.7110 C   0  0  0  0  0  0  0  0  0  0  0  0
  143.1300   75.9690  219.7140 C   0  0  0  0  0  0  0  0  0  0  0  0
  141.8660   75.7840  220.3140 C   0  0  0  0  0  0  0  0  0  0  0  0
  140.8220   76.8890  220.2390 C   0  0  2  0  0  0  0  0  0  0  0  0
  141.4120   78.2360  220.5720 C   0  0  0  0  0  0  0  0  0  0  0  0
  141.7460   79.2280  219.6500 C   0  0  0  0  0  0  0  0  0  0  0  0
  142.1810   80.3400  220.2860 N   0  0  0  0  0  0  0  0  0  0  0  0
  142.1180   80.0640  221.6030 C   0  0  0  0  0  0  0  0  0  0  0  0
  142.4470   80.9150  222.6590 C   0  0  0  0  0  0  0  0  0  0  0  0
  142.2900   80.4290  223.9720 C   0  0  0  0  0  0  0  0  0  0  0  0
  141.8210   79.1150  224.1980 C   0  0  0  0  0  0  0  0  0  0  0  0
  141.5000   78.2760  223.1120 C   0  0  0  0  0  0  0  0  0  0  0  0
  141.6540   78.7900  221.8200 C   0  0  0  0  0  0  0  0  0  0  0  0
  136.3147   78.5688  220.4492 H   0  0  0  0  0  0  0  0  0  0  0  0
  136.4838   77.5320  221.9328 H   0  0  0  0  0  0  0  0  0  0  0  0
  137.5299   78.3632  223.8506 H   0  0  0  0  0  0  0  0  0  0  0  0
  138.7287   80.2238  224.9989 H   0  0  0  0  0  0  0  0  0  0  0  0
  139.6557   82.1222  223.6771 H   0  0  0  0  0  0  0  0  0  0  0  0
  138.2276   80.2767  220.0252 H   0  0  0  0  0  0  0  0  0  0  0  0
  140.1725   75.7706  222.9099 H   0  0  0  0  0  0  0  0  0  0  0  0
  138.5373   75.3179  222.2447 H   0  0  0  0  0  0  0  0  0  0  0  0
  140.2240   73.4692  222.1500 H   0  0  0  0  0  0  0  0  0  0  0  0
  139.5307   73.9413  220.5543 H   0  0  0  0  0  0  0  0  0  0  0  0
  142.2506   72.5094  221.2653 H   0  0  0  0  0  0  0  0  0  0  0  0
  144.5085   72.8961  220.2807 H   0  0  0  0  0  0  0  0  0  0  0  0
  145.0658   75.1044  219.2624 H   0  0  0  0  0  0  0  0  0  0  0  0
  143.3736   76.9332  219.2439 H   0  0  0  0  0  0  0  0  0  0  0  0
  140.4860   76.8542  219.1922 H   0  0  0  0  0  0  0  0  0  0  0  0
  141.6668   79.1210  218.5581 H   0  0  0  0  0  0  0  0  0  0  0  0
  142.4910   81.2340  219.8410 H   0  0  0  0  0  0  0  0  0  0  0  0
  142.8175   81.9337  222.4720 H   0  0  0  0  0  0  0  0  0  0  0  0
  142.5341   81.0766  224.8270 H   0  0  0  0  0  0  0  0  0  0  0  0
  141.7059   78.7450  225.2275 H   0  0  0  0  0  0  0  0  0  0  0  0
  141.1398   77.2495  223.2751 H   0  0  0  0  0  0  0  0  0  0  0  0
  1  2  2  0
  2  3  2  0
  2  4  1  0
  4  5  1  0
  5  6  2  0
  6  7  1  0
  7  8  2  0
  8  9  1  0
  9 10  1  0
 10 11  1  0
 10 12  1  0
 10 13  1  0
  9 14  2  0
  2 15  1  0
 15 16  1  0
 16 17  1  0
 17 18  1  0
 18 19  2  0
 19 20  1  0
 20 21  2  0
 21 22  1  0
 22 23  2  0
 23 24  1  0
 24 25  1  0
 25 26  2  0
 26 27  1  0
 27 28  1  0
 28 29  2  0
 29 30  1  0
 30 31  2  0
 31 32  1  0
 32 33  2  0
 14  5  1  0
 24 15  1  0
 33 25  1  0
 23 18  1  0
 33 28  1  0
  4 34  1  0
  4 35  1  0
  6 36  1  0
  7 37  1  0
  8 38  1  0
 14 39  1  0
 16 40  1  0
 16 41  1  0
 17 42  1  0
 17 43  1  0
 19 44  1  0
 20 45  1  0
 21 46  1  0
 22 47  1  0
 24 48  1  6
 26 49  1  0
 27 50  1  0
 29 51  1  0
 30 52  1  0
 31 53  1  0
 32 54  1  0
M  END
>  <UniqueID>  (15) 
201

>  <SMILES>  (15) 
O=S(=O)(Cc1cccc(C(F)(F)F)c1)N1CCc2ccccc2[C@@H]1c1c[nH]c2ccccc12

>  <Energy>  (15) 
90.1711342313889

>  <Genealogy>  (15) 
O=S(=O)(Cc1cccc(C(F)(F)F)c1)N1CCc2ccccc2[C@@H]1c1c[nH]c2ccccc12 (3D coordinates assigned)
O=S(=O)(Cc1cccc(C(F)(F)F)c1)N1CCc2ccccc2[C@@H]1c1c[nH]c2ccccc12 (nonaromatic ring conformer: 90.1711342313889 kcal/mol)

>  <smiles>  (15) 
O=S(=O)(Cc1cccc(C(F)(F)F)c1)N1CCc2ccccc2[C@@H]1c1c[nH]c2ccccc12

>  <score_type>  (15) 
oracle

>  <origin>  (15) 
autodockgpu

>  <m_score__min__energy>  (15) 
-8.0600000000000005

>  <m_primary>  (15) 
energy

>  <meeko>  (15) 
{"free_energy": -6.67, "intermolecular_energy": -8.17, "internal_energy": -3.39, "cluster_size": 16, "cluster_id": 3, "rank_in_cluster": 11}

>  <energy>  (15) 
-6.67

>  <cluster_rmsd>  (15) 
0.09

>  <rmsd>  (15) 
270.92

>  <cluster>  (15) 
3

$$$$
GJSDZOHBAHKEKD-XMMPIXPANA-N
     RDKit          3D

 54 58  0  0  0  0  0  0  0  0999 V2000
  138.3830   77.5500  218.9340 O   0  0  0  0  0  0  0  0  0  0  0  0
  138.1030   76.9800  220.2960 S   0  0  0  0  0  0  0  0  0  0  0  0
  137.3830   75.6740  220.1090 O   0  0  0  0  0  0  0  0  0  0  0  0
  137.0310   78.1330  221.1660 C   0  0  0  0  0  0  0  0  0  0  0  0
  137.8060   79.2290  221.8530 C   0  0  0  0  0  0  0  0  0  0  0  0
  137.9880   79.2150  223.2470 C   0  0  0  0  0  0  0  0  0  0  0  0
  138.6760   80.2550  223.8790 C   0  0  0  0  0  0  0  0  0  0  0  0
  139.1840   81.3180  223.1280 C   0  0  0  0  0  0  0  0  0  0  0  0
  138.9990   81.3600  221.7330 C   0  0  0  0  0  0  0  0  0  0  0  0
  139.5790   82.4900  220.9190 C   0  0  0  0  0  0  0  0  0  0  0  0
  138.6530   83.5110  220.7750 F   0  0  0  0  0  0  0  0  0  0  0  0
  140.7040   82.9870  221.5600 F   0  0  0  0  0  0  0  0  0  0  0  0
  139.9370   82.0490  219.6530 F   0  0  0  0  0  0  0  0  0  0  0  0
  138.3380   80.2910  221.1000 C   0  0  0  0  0  0  0  0  0  0  0  0
  139.6260   76.6750  221.1070 N   0  0  0  0  0  0  0  0  0  0  0  0
  139.5990   75.5190  222.0270 C   0  0  0  0  0  0  0  0  0  0  0  0
  140.1800   74.2540  221.4070 C   0  0  0  0  0  0  0  0  0  0  0  0
  141.5540   74.5190  220.8760 C   0  0  0  0  0  0  0  0  0  0  0  0
  142.5050   73.4860  220.8520 C   0  0  0  0  0  0  0  0  0  0  0  0
  143.7630   73.6960  220.2830 C   0  0  0  0  0  0  0  0  0  0  0  0
  144.0730   74.9310  219.7110 C   0  0  0  0  0  0  0  0  0  0  0  0
  143.1260   75.9590  219.7150 C   0  0  0  0  0  0  0  0  0  0  0  0
  141.8660   75.7750  220.3210 C   0  0  0  0  0  0  0  0  0  0  0  0
  140.8200   76.8790  220.2460 C   0  0  2  0  0  0  0  0  0  0  0  0
  141.4100   78.2280  220.5710 C   0  0  0  0  0  0  0  0  0  0  0  0
  141.7400   79.2160  219.6430 C   0  0  0  0  0  0  0  0  0  0  0  0
  142.1760   80.3310  220.2730 N   0  0  0  0  0  0  0  0  0  0  0  0
  142.1190   80.0610  221.5900 C   0  0  0  0  0  0  0  0  0  0  0  0
  142.4510   80.9170  222.6410 C   0  0  0  0  0  0  0  0  0  0  0  0
  142.2990   80.4360  223.9570 C   0  0  0  0  0  0  0  0  0  0  0  0
  141.8330   79.1230  224.1900 C   0  0  0  0  0  0  0  0  0  0  0  0
  141.5080   78.2790  223.1100 C   0  0  0  0  0  0  0  0  0  0  0  0
  141.6570   78.7870  221.8150 C   0  0  0  0  0  0  0  0  0  0  0  0
  136.3402   78.5891  220.4415 H   0  0  0  0  0  0  0  0  0  0  0  0
  136.4883   77.5695  221.9393 H   0  0  0  0  0  0  0  0  0  0  0  0
  137.5872   78.3819  223.8431 H   0  0  0  0  0  0  0  0  0  0  0  0
  138.8176   80.2364  224.9697 H   0  0  0  0  0  0  0  0  0  0  0  0
  139.7327   82.1282  223.6305 H   0  0  0  0  0  0  0  0  0  0  0  0
  138.2364   80.2860  220.0047 H   0  0  0  0  0  0  0  0  0  0  0  0
  140.1837   75.7707  222.9241 H   0  0  0  0  0  0  0  0  0  0  0  0
  138.5457   75.3143  222.2690 H   0  0  0  0  0  0  0  0  0  0  0  0
  140.2327   73.4659  222.1726 H   0  0  0  0  0  0  0  0  0  0  0  0
  139.5323   73.9319  220.5783 H   0  0  0  0  0  0  0  0  0  0  0  0
  142.2575   72.5052  221.2841 H   0  0  0  0  0  0  0  0  0  0  0  0
  144.5096   72.8882  220.2856 H   0  0  0  0  0  0  0  0  0  0  0  0
  145.0617   75.0950  219.2575 H   0  0  0  0  0  0  0  0  0  0  0  0
  143.3661   76.9218  219.2404 H   0  0  0  0  0  0  0  0  0  0  0  0
  140.4797   76.8389  219.2007 H   0  0  0  0  0  0  0  0  0  0  0  0
  141.6573   79.1041  218.5518 H   0  0  0  0  0  0  0  0  0  0  0  0
  142.4840   81.2230  219.8230 H   0  0  0  0  0  0  0  0  0  0  0  0
  142.8198   81.9353  222.4483 H   0  0  0  0  0  0  0  0  0  0  0  0
  142.5449   81.0875  224.8085 H   0  0  0  0  0  0  0  0  0  0  0  0
  141.7232   78.7572  225.2216 H   0  0  0  0  0  0  0  0  0  0  0  0
  141.1485   77.2533  223.2794 H   0  0  0  0  0  0  0  0  0  0  0  0
  1  2  2  0
  2  3  2  0
  2  4  1  0
  4  5  1  0
  5  6  2  0
  6  7  1  0
  7  8  2  0
  8  9  1  0
  9 10  1  0
 10 11  1  0
 10 12  1  0
 10 13  1  0
  9 14  2  0
  2 15  1  0
 15 16  1  0
 16 17  1  0
 17 18  1  0
 18 19  2  0
 19 20  1  0
 20 21  2  0
 21 22  1  0
 22 23  2  0
 23 24  1  0
 24 25  1  0
 25 26  2  0
 26 27  1  0
 27 28  1  0
 28 29  2  0
 29 30  1  0
 30 31  2  0
 31 32  1  0
 32 33  2  0
 14  5  1  0
 24 15  1  0
 33 25  1  0
 23 18  1  0
 33 28  1  0
  4 34  1  0
  4 35  1  0
  6 36  1  0
  7 37  1  0
  8 38  1  0
 14 39  1  0
 16 40  1  0
 16 41  1  0
 17 42  1  0
 17 43  1  0
 19 44  1  0
 20 45  1  0
 21 46  1  0
 22 47  1  0
 24 48  1  6
 26 49  1  0
 27 50  1  0
 29 51  1  0
 30 52  1  0
 31 53  1  0
 32 54  1  0
M  END
>  <UniqueID>  (16) 
201

>  <SMILES>  (16) 
O=S(=O)(Cc1cccc(C(F)(F)F)c1)N1CCc2ccccc2[C@@H]1c1c[nH]c2ccccc12

>  <Energy>  (16) 
90.1711342313889

>  <Genealogy>  (16) 
O=S(=O)(Cc1cccc(C(F)(F)F)c1)N1CCc2ccccc2[C@@H]1c1c[nH]c2ccccc12 (3D coordinates assigned)
O=S(=O)(Cc1cccc(C(F)(F)F)c1)N1CCc2ccccc2[C@@H]1c1c[nH]c2ccccc12 (nonaromatic ring conformer: 90.1711342313889 kcal/mol)

>  <smiles>  (16) 
O=S(=O)(Cc1cccc(C(F)(F)F)c1)N1CCc2ccccc2[C@@H]1c1c[nH]c2ccccc12

>  <score_type>  (16) 
oracle

>  <origin>  (16) 
autodockgpu

>  <m_score__min__energy>  (16) 
-8.0600000000000005

>  <m_primary>  (16) 
energy

>  <meeko>  (16) 
{"free_energy": -6.68, "intermolecular_energy": -8.18, "internal_energy": -3.37, "cluster_size": 16, "cluster_id": 3, "rank_in_cluster": 7}

>  <energy>  (16) 
-6.67

>  <cluster_rmsd>  (16) 
0.08

>  <rmsd>  (16) 
270.91

>  <cluster>  (16) 
3

$$$$
GJSDZOHBAHKEKD-XMMPIXPANA-N
     RDKit          3D

 54 58  0  0  0  0  0  0  0  0999 V2000
  138.4160   77.5850  218.8650 O   0  0  0  0  0  0  0  0  0  0  0  0
  138.1170   77.0120  220.2220 S   0  0  0  0  0  0  0  0  0  0  0  0
  137.3980   75.7070  220.0220 O   0  0  0  0  0  0  0  0  0  0  0  0
  137.0340   78.1650  221.0790 C   0  0  0  0  0  0  0  0  0  0  0  0
  137.8010   79.2470  221.7950 C   0  0  0  0  0  0  0  0  0  0  0  0
  137.9770   79.2010  223.1890 C   0  0  0  0  0  0  0  0  0  0  0  0
  138.6580   80.2290  223.8480 C   0  0  0  0  0  0  0  0  0  0  0  0
  139.1650   81.3120  223.1250 C   0  0  0  0  0  0  0  0  0  0  0  0
  138.9850   81.3850  221.7310 C   0  0  0  0  0  0  0  0  0  0  0  0
  139.5640   82.5370  220.9460 C   0  0  0  0  0  0  0  0  0  0  0  0
  138.6360   83.5590  220.8260 F   0  0  0  0  0  0  0  0  0  0  0  0
  140.6860   83.0210  221.6020 F   0  0  0  0  0  0  0  0  0  0  0  0
  139.9270   82.1280  219.6700 F   0  0  0  0  0  0  0  0  0  0  0  0
  138.3320   80.3290  221.0690 C   0  0  0  0  0  0  0  0  0  0  0  0
  139.6280   76.7040  221.0540 N   0  0  0  0  0  0  0  0  0  0  0  0
  139.5870   75.5470  221.9720 C   0  0  0  0  0  0  0  0  0  0  0  0
  140.1750   74.2830  221.3590 C   0  0  0  0  0  0  0  0  0  0  0  0
  141.5560   74.5470  220.8460 C   0  0  0  0  0  0  0  0  0  0  0  0
  142.5060   73.5120  220.8350 C   0  0  0  0  0  0  0  0  0  0  0  0
  143.7720   73.7210  220.2830 C   0  0  0  0  0  0  0  0  0  0  0  0
  144.0910   74.9560  219.7170 C   0  0  0  0  0  0  0  0  0  0  0  0
  143.1460   75.9850  219.7080 C   0  0  0  0  0  0  0  0  0  0  0  0
  141.8770   75.8020  220.2970 C   0  0  0  0  0  0  0  0  0  0  0  0
  140.8330   76.9080  220.2090 C   0  0  2  0  0  0  0  0  0  0  0  0
  141.4210   78.2560  220.5430 C   0  0  0  0  0  0  0  0  0  0  0  0
  141.7520   79.2500  219.6220 C   0  0  0  0  0  0  0  0  0  0  0  0
  142.1850   80.3620  220.2600 N   0  0  0  0  0  0  0  0  0  0  0  0
  142.1250   80.0840  221.5760 C   0  0  0  0  0  0  0  0  0  0  0  0
  142.4530   80.9340  222.6330 C   0  0  0  0  0  0  0  0  0  0  0  0
  142.2990   80.4450  223.9450 C   0  0  0  0  0  0  0  0  0  0  0  0
  141.8340   79.1290  224.1690 C   0  0  0  0  0  0  0  0  0  0  0  0
  141.5130   78.2920  223.0830 C   0  0  0  0  0  0  0  0  0  0  0  0
  141.6640   78.8080  221.7920 C   0  0  0  0  0  0  0  0  0  0  0  0
  136.3640   78.6341  220.3434 H   0  0  0  0  0  0  0  0  0  0  0  0
  136.4689   77.5980  221.8335 H   0  0  0  0  0  0  0  0  0  0  0  0
  137.5772   78.3526  223.7637 H   0  0  0  0  0  0  0  0  0  0  0  0
  138.7951   80.1851  224.9386 H   0  0  0  0  0  0  0  0  0  0  0  0
  139.7082   82.1125  223.6486 H   0  0  0  0  0  0  0  0  0  0  0  0
  138.2357   80.3495  219.9734 H   0  0  0  0  0  0  0  0  0  0  0  0
  140.1593   75.7970  222.8775 H   0  0  0  0  0  0  0  0  0  0  0  0
  138.5302   75.3430  222.1990 H   0  0  0  0  0  0  0  0  0  0  0  0
  140.2172   73.4943  222.1247 H   0  0  0  0  0  0  0  0  0  0  0  0
  139.5380   73.9623  220.5215 H   0  0  0  0  0  0  0  0  0  0  0  0
  142.2514   72.5314  221.2636 H   0  0  0  0  0  0  0  0  0  0  0  0
  144.5174   72.9122  220.2945 H   0  0  0  0  0  0  0  0  0  0  0  0
  145.0863   75.1193  219.2780 H   0  0  0  0  0  0  0  0  0  0  0  0
  143.3938   76.9476  219.2369 H   0  0  0  0  0  0  0  0  0  0  0  0
  140.5060   76.8702  219.1594 H   0  0  0  0  0  0  0  0  0  0  0  0
  141.6722   79.1446  218.5300 H   0  0  0  0  0  0  0  0  0  0  0  0
  142.4930   81.2570  219.8160 H   0  0  0  0  0  0  0  0  0  0  0  0
  142.8204   81.9541  222.4474 H   0  0  0  0  0  0  0  0  0  0  0  0
  142.5422   81.0916  224.8010 H   0  0  0  0  0  0  0  0  0  0  0  0
  141.7222   78.7565  225.1980 H   0  0  0  0  0  0  0  0  0  0  0  0
  141.1548   77.2647  223.2450 H   0  0  0  0  0  0  0  0  0  0  0  0
  1  2  2  0
  2  3  2  0
  2  4  1  0
  4  5  1  0
  5  6  2  0
  6  7  1  0
  7  8  2  0
  8  9  1  0
  9 10  1  0
 10 11  1  0
 10 12  1  0
 10 13  1  0
  9 14  2  0
  2 15  1  0
 15 16  1  0
 16 17  1  0
 17 18  1  0
 18 19  2  0
 19 20  1  0
 20 21  2  0
 21 22  1  0
 22 23  2  0
 23 24  1  0
 24 25  1  0
 25 26  2  0
 26 27  1  0
 27 28  1  0
 28 29  2  0
 29 30  1  0
 30 31  2  0
 31 32  1  0
 32 33  2  0
 14  5  1  0
 24 15  1  0
 33 25  1  0
 23 18  1  0
 33 28  1  0
  4 34  1  0
  4 35  1  0
  6 36  1  0
  7 37  1  0
  8 38  1  0
 14 39  1  0
 16 40  1  0
 16 41  1  0
 17 42  1  0
 17 43  1  0
 19 44  1  0
 20 45  1  0
 21 46  1  0
 22 47  1  0
 24 48  1  6
 26 49  1  0
 27 50  1  0
 29 51  1  0
 30 52  1  0
 31 53  1  0
 32 54  1  0
M  END
>  <UniqueID>  (17) 
201

>  <SMILES>  (17) 
O=S(=O)(Cc1cccc(C(F)(F)F)c1)N1CCc2ccccc2[C@@H]1c1c[nH]c2ccccc12

>  <Energy>  (17) 
90.1711342313889

>  <Genealogy>  (17) 
O=S(=O)(Cc1cccc(C(F)(F)F)c1)N1CCc2ccccc2[C@@H]1c1c[nH]c2ccccc12 (3D coordinates assigned)
O=S(=O)(Cc1cccc(C(F)(F)F)c1)N1CCc2ccccc2[C@@H]1c1c[nH]c2ccccc12 (nonaromatic ring conformer: 90.1711342313889 kcal/mol)

>  <smiles>  (17) 
O=S(=O)(Cc1cccc(C(F)(F)F)c1)N1CCc2ccccc2[C@@H]1c1c[nH]c2ccccc12

>  <score_type>  (17) 
oracle

>  <origin>  (17) 
autodockgpu

>  <m_score__min__energy>  (17) 
-8.0600000000000005

>  <m_primary>  (17) 
energy

>  <meeko>  (17) 
{"free_energy": -6.67, "intermolecular_energy": -8.16, "internal_energy": -3.38, "cluster_size": 16, "cluster_id": 3, "rank_in_cluster": 14}

>  <energy>  (17) 
-6.67

>  <cluster_rmsd>  (17) 
0.12

>  <rmsd>  (17) 
270.93

>  <cluster>  (17) 
3

$$$$
GJSDZOHBAHKEKD-XMMPIXPANA-N
     RDKit          3D

 54 58  0  0  0  0  0  0  0  0999 V2000
  138.4270   77.5030  218.8310 O   0  0  0  0  0  0  0  0  0  0  0  0
  138.1110   76.9880  220.2070 S   0  0  0  0  0  0  0  0  0  0  0  0
  137.3600   75.6950  220.0540 O   0  0  0  0  0  0  0  0  0  0  0  0
  137.0570   78.1980  221.0200 C   0  0  0  0  0  0  0  0  0  0  0  0
  137.8510   79.2460  221.7580 C   0  0  0  0  0  0  0  0  0  0  0  0
  138.0450   79.1540  223.1470 C   0  0  0  0  0  0  0  0  0  0  0  0
  138.7500   80.1500  223.8280 C   0  0  0  0  0  0  0  0  0  0  0  0
  139.2650   81.2470  223.1320 C   0  0  0  0  0  0  0  0  0  0  0  0
  139.0680   81.3660  221.7430 C   0  0  0  0  0  0  0  0  0  0  0  0
  139.6560   82.5320  220.9860 C   0  0  0  0  0  0  0  0  0  0  0  0
  138.7290   83.5560  220.8750 F   0  0  0  0  0  0  0  0  0  0  0  0
  140.7710   83.0030  221.6620 F   0  0  0  0  0  0  0  0  0  0  0  0
  140.0310   82.1470  219.7060 F   0  0  0  0  0  0  0  0  0  0  0  0
  138.3900   80.3410  221.0580 C   0  0  0  0  0  0  0  0  0  0  0  0
  139.6140   76.6730  221.0530 N   0  0  0  0  0  0  0  0  0  0  0  0
  139.5580   75.5170  221.9710 C   0  0  0  0  0  0  0  0  0  0  0  0
  140.1440   74.2480  221.3640 C   0  0  0  0  0  0  0  0  0  0  0  0
  141.5310   74.5040  220.8640 C   0  0  0  0  0  0  0  0  0  0  0  0
  142.4760   73.4640  220.8610 C   0  0  0  0  0  0  0  0  0  0  0  0
  143.7480   73.6670  220.3210 C   0  0  0  0  0  0  0  0  0  0  0  0
  144.0790   74.9000  219.7570 C   0  0  0  0  0  0  0  0  0  0  0  0
  143.1390   75.9340  219.7390 C   0  0  0  0  0  0  0  0  0  0  0  0
  141.8640   75.7580  220.3170 C   0  0  0  0  0  0  0  0  0  0  0  0
  140.8270   76.8690  220.2180 C   0  0  2  0  0  0  0  0  0  0  0  0
  141.4190   78.2140  220.5570 C   0  0  0  0  0  0  0  0  0  0  0  0
  141.7400   79.2160  219.6410 C   0  0  0  0  0  0  0  0  0  0  0  0
  142.1810   80.3220  220.2830 N   0  0  0  0  0  0  0  0  0  0  0  0
  142.1350   80.0330  221.5970 C   0  0  0  0  0  0  0  0  0  0  0  0
  142.4760   80.8750  222.6570 C   0  0  0  0  0  0  0  0  0  0  0  0
  142.3360   80.3750  223.9670 C   0  0  0  0  0  0  0  0  0  0  0  0
  141.8730   79.0580  224.1860 C   0  0  0  0  0  0  0  0  0  0  0  0
  141.5400   78.2290  223.0960 C   0  0  0  0  0  0  0  0  0  0  0  0
  141.6760   78.7560  221.8070 C   0  0  0  0  0  0  0  0  0  0  0  0
  136.4371   78.6948  220.2592 H   0  0  0  0  0  0  0  0  0  0  0  0
  136.4388   77.6641  221.7567 H   0  0  0  0  0  0  0  0  0  0  0  0
  137.6400   78.2940  223.7006 H   0  0  0  0  0  0  0  0  0  0  0  0
  138.9000   80.0703  224.9148 H   0  0  0  0  0  0  0  0  0  0  0  0
  139.8277   82.0222  223.6727 H   0  0  0  0  0  0  0  0  0  0  0  0
  138.2803   80.3962  219.9649 H   0  0  0  0  0  0  0  0  0  0  0  0
  140.1238   75.7642  222.8814 H   0  0  0  0  0  0  0  0  0  0  0  0
  138.4979   75.3195  222.1884 H   0  0  0  0  0  0  0  0  0  0  0  0
  140.1743   73.4596  222.1305 H   0  0  0  0  0  0  0  0  0  0  0  0
  139.5128   73.9300  220.5211 H   0  0  0  0  0  0  0  0  0  0  0  0
  142.2124   72.4844  221.2864 H   0  0  0  0  0  0  0  0  0  0  0  0
  144.4894   72.8546  220.3402 H   0  0  0  0  0  0  0  0  0  0  0  0
  145.0791   75.0578  219.3270 H   0  0  0  0  0  0  0  0  0  0  0  0
  143.3958   76.8950  219.2694 H   0  0  0  0  0  0  0  0  0  0  0  0
  140.5095   76.8314  219.1655 H   0  0  0  0  0  0  0  0  0  0  0  0
  141.6474   79.1201  218.5491 H   0  0  0  0  0  0  0  0  0  0  0  0
  142.4840   81.2210  219.8430 H   0  0  0  0  0  0  0  0  0  0  0  0
  142.8423   81.8962  222.4754 H   0  0  0  0  0  0  0  0  0  0  0  0
  142.5890   81.0146  224.8254 H   0  0  0  0  0  0  0  0  0  0  0  0
  141.7719   78.6776  225.2132 H   0  0  0  0  0  0  0  0  0  0  0  0
  141.1844   77.2001  223.2536 H   0  0  0  0  0  0  0  0  0  0  0  0
  1  2  2  0
  2  3  2  0
  2  4  1  0
  4  5  1  0
  5  6  2  0
  6  7  1  0
  7  8  2  0
  8  9  1  0
  9 10  1  0
 10 11  1  0
 10 12  1  0
 10 13  1  0
  9 14  2  0
  2 15  1  0
 15 16  1  0
 16 17  1  0
 17 18  1  0
 18 19  2  0
 19 20  1  0
 20 21  2  0
 21 22  1  0
 22 23  2  0
 23 24  1  0
 24 25  1  0
 25 26  2  0
 26 27  1  0
 27 28  1  0
 28 29  2  0
 29 30  1  0
 30 31  2  0
 31 32  1  0
 32 33  2  0
 14  5  1  0
 24 15  1  0
 33 25  1  0
 23 18  1  0
 33 28  1  0
  4 34  1  0
  4 35  1  0
  6 36  1  0
  7 37  1  0
  8 38  1  0
 14 39  1  0
 16 40  1  0
 16 41  1  0
 17 42  1  0
 17 43  1  0
 19 44  1  0
 20 45  1  0
 21 46  1  0
 22 47  1  0
 24 48  1  6
 26 49  1  0
 27 50  1  0
 29 51  1  0
 30 52  1  0
 31 53  1  0
 32 54  1  0
M  END
>  <UniqueID>  (18) 
201

>  <SMILES>  (18) 
O=S(=O)(Cc1cccc(C(F)(F)F)c1)N1CCc2ccccc2[C@@H]1c1c[nH]c2ccccc12

>  <Energy>  (18) 
90.1711342313889

>  <Genealogy>  (18) 
O=S(=O)(Cc1cccc(C(F)(F)F)c1)N1CCc2ccccc2[C@@H]1c1c[nH]c2ccccc12 (3D coordinates assigned)
O=S(=O)(Cc1cccc(C(F)(F)F)c1)N1CCc2ccccc2[C@@H]1c1c[nH]c2ccccc12 (nonaromatic ring conformer: 90.1711342313889 kcal/mol)

>  <smiles>  (18) 
O=S(=O)(Cc1cccc(C(F)(F)F)c1)N1CCc2ccccc2[C@@H]1c1c[nH]c2ccccc12

>  <score_type>  (18) 
oracle

>  <origin>  (18) 
autodockgpu

>  <m_score__min__energy>  (18) 
-8.0600000000000005

>  <m_primary>  (18) 
energy

>  <meeko>  (18) 
{"free_energy": -6.7, "intermolecular_energy": -8.19, "internal_energy": -3.35, "cluster_size": 16, "cluster_id": 3, "rank_in_cluster": 2}

>  <energy>  (18) 
-6.67

>  <cluster_rmsd>  (18) 
0.06

>  <rmsd>  (18) 
270.91

>  <cluster>  (18) 
3

$$$$
GJSDZOHBAHKEKD-XMMPIXPANA-N
     RDKit          3D

 54 58  0  0  0  0  0  0  0  0999 V2000
  138.5570   82.6530  218.1460 O   0  0  0  0  0  0  0  0  0  0  0  0
  138.7850   81.4290  218.9880 S   0  0  0  0  0  0  0  0  0  0  0  0
  138.5880   80.2240  218.1110 O   0  0  0  0  0  0  0  0  0  0  0  0
  137.5510   81.4230  220.2970 C   0  0  0  0  0  0  0  0  0  0  0  0
  137.9930   80.6230  221.4960 C   0  0  0  0  0  0  0  0  0  0  0  0
  138.2300   81.2510  222.7310 C   0  0  0  0  0  0  0  0  0  0  0  0
  138.6760   80.5070  223.8270 C   0  0  0  0  0  0  0  0  0  0  0  0
  138.8920   79.1320  223.7010 C   0  0  0  0  0  0  0  0  0  0  0  0
  138.6750   78.4860  222.4700 C   0  0  0  0  0  0  0  0  0  0  0  0
  138.8740   76.9950  222.3440 C   0  0  0  0  0  0  0  0  0  0  0  0
  137.9790   76.3160  223.1560 F   0  0  0  0  0  0  0  0  0  0  0  0
  138.6670   76.6140  221.0270 F   0  0  0  0  0  0  0  0  0  0  0  0
  140.1600   76.6380  222.7230 F   0  0  0  0  0  0  0  0  0  0  0  0
  138.1910   79.2350  221.3810 C   0  0  0  0  0  0  0  0  0  0  0  0
  140.4380   81.4400  219.5690 N   0  0  0  0  0  0  0  0  0  0  0  0
  140.8710   82.7360  220.1320 C   0  0  0  0  0  0  0  0  0  0  0  0
  140.8000   82.7760  221.6530 C   0  0  0  0  0  0  0  0  0  0  0  0
  141.5570   81.6260  222.2390 C   0  0  0  0  0  0  0  0  0  0  0  0
  142.1700   81.7610  223.4960 C   0  0  0  0  0  0  0  0  0  0  0  0
  142.8100   80.6710  224.0910 C   0  0  0  0  0  0  0  0  0  0  0  0
  142.8210   79.4320  223.4490 C   0  0  0  0  0  0  0  0  0  0  0  0
  142.1990   79.2850  222.2060 C   0  0  0  0  0  0  0  0  0  0  0  0
  141.5840   80.3850  221.5730 C   0  0  0  0  0  0  0  0  0  0  0  0
  140.8430   80.1870  220.2570 C   0  0  2  0  0  0  0  0  0  0  0  0
  141.6450   79.3560  219.2880 C   0  0  0  0  0  0  0  0  0  0  0  0
  142.2990   79.8340  218.1530 C   0  0  0  0  0  0  0  0  0  0  0  0
  142.9850   78.8400  217.5460 N   0  0  0  0  0  0  0  0  0  0  0  0
  142.7780   77.7370  218.2890 C   0  0  0  0  0  0  0  0  0  0  0  0
  143.3010   76.4620  218.0700 C   0  0  0  0  0  0  0  0  0  0  0  0
  142.9690   75.4450  218.9880 C   0  0  0  0  0  0  0  0  0  0  0  0
  142.1250   75.7210  220.0870 C   0  0  0  0  0  0  0  0  0  0  0  0
  141.6080   77.0170  220.2820 C   0  0  0  0  0  0  0  0  0  0  0  0
  141.9640   78.0090  219.3620 C   0  0  0  0  0  0  0  0  0  0  0  0
  137.3651   82.4602  220.6127 H   0  0  0  0  0  0  0  0  0  0  0  0
  136.6390   80.9551  219.8977 H   0  0  0  0  0  0  0  0  0  0  0  0
  138.0636   82.3333  222.8355 H   0  0  0  0  0  0  0  0  0  0  0  0
  138.8574   81.0049  224.7909 H   0  0  0  0  0  0  0  0  0  0  0  0
  139.2340   78.5509  224.5701 H   0  0  0  0  0  0  0  0  0  0  0  0
  137.9653   78.7298  220.4303 H   0  0  0  0  0  0  0  0  0  0  0  0
  141.9105   82.9224  219.8243 H   0  0  0  0  0  0  0  0  0  0  0  0
  140.1859   83.5070  219.7496 H   0  0  0  0  0  0  0  0  0  0  0  0
  141.2378   83.7191  222.0120 H   0  0  0  0  0  0  0  0  0  0  0  0
  139.7471   82.7067  221.9638 H   0  0  0  0  0  0  0  0  0  0  0  0
  142.1459   82.7307  224.0147 H   0  0  0  0  0  0  0  0  0  0  0  0
  143.3054   80.7894  225.0659 H   0  0  0  0  0  0  0  0  0  0  0  0
  143.3187   78.5719  223.9207 H   0  0  0  0  0  0  0  0  0  0  0  0
  142.1891   78.3002  221.7159 H   0  0  0  0  0  0  0  0  0  0  0  0
  139.9217   79.6656  220.5558 H   0  0  0  0  0  0  0  0  0  0  0  0
  142.2618   80.8753  217.8006 H   0  0  0  0  0  0  0  0  0  0  0  0
  143.5670   78.9190  216.6800 H   0  0  0  0  0  0  0  0  0  0  0  0
  143.9523   76.2568  217.2076 H   0  0  0  0  0  0  0  0  0  0  0  0
  143.3695   74.4302  218.8478 H   0  0  0  0  0  0  0  0  0  0  0  0
  141.8699   74.9187  220.7950 H   0  0  0  0  0  0  0  0  0  0  0  0
  140.9454   77.2418  221.1308 H   0  0  0  0  0  0  0  0  0  0  0  0
  1  2  2  0
  2  3  2  0
  2  4  1  0
  4  5  1  0
  5  6  2  0
  6  7  1  0
  7  8  2  0
  8  9  1  0
  9 10  1  0
 10 11  1  0
 10 12  1  0
 10 13  1  0
  9 14  2  0
  2 15  1  0
 15 16  1  0
 16 17  1  0
 17 18  1  0
 18 19  2  0
 19 20  1  0
 20 21  2  0
 21 22  1  0
 22 23  2  0
 23 24  1  0
 24 25  1  0
 25 26  2  0
 26 27  1  0
 27 28  1  0
 28 29  2  0
 29 30  1  0
 30 31  2  0
 31 32  1  0
 32 33  2  0
 14  5  1  0
 24 15  1  0
 33 25  1  0
 23 18  1  0
 33 28  1  0
  4 34  1  0
  4 35  1  0
  6 36  1  0
  7 37  1  0
  8 38  1  0
 14 39  1  0
 16 40  1  0
 16 41  1  0
 17 42  1  0
 17 43  1  0
 19 44  1  0
 20 45  1  0
 21 46  1  0
 22 47  1  0
 24 48  1  1
 26 49  1  0
 27 50  1  0
 29 51  1  0
 30 52  1  0
 31 53  1  0
 32 54  1  0
M  END
>  <UniqueID>  (19) 
201

>  <SMILES>  (19) 
O=S(=O)(Cc1cccc(C(F)(F)F)c1)N1CCc2ccccc2[C@@H]1c1c[nH]c2ccccc12

>  <Energy>  (19) 
90.1711342313889

>  <Genealogy>  (19) 
O=S(=O)(Cc1cccc(C(F)(F)F)c1)N1CCc2ccccc2[C@@H]1c1c[nH]c2ccccc12 (3D coordinates assigned)
O=S(=O)(Cc1cccc(C(F)(F)F)c1)N1CCc2ccccc2[C@@H]1c1c[nH]c2ccccc12 (nonaromatic ring conformer: 90.1711342313889 kcal/mol)

>  <smiles>  (19) 
O=S(=O)(Cc1cccc(C(F)(F)F)c1)N1CCc2ccccc2[C@@H]1c1c[nH]c2ccccc12

>  <score_type>  (19) 
oracle

>  <origin>  (19) 
autodockgpu

>  <m_score__min__energy>  (19) 
-8.0600000000000005

>  <m_primary>  (19) 
energy

>  <meeko>  (19) 
{"free_energy": -6.91, "intermolecular_energy": -8.4, "internal_energy": -3.07, "cluster_size": 3, "cluster_id": 2, "rank_in_cluster": 1}

>  <energy>  (19) 
-6.66

>  <cluster_rmsd>  (19) 
0.07

>  <rmsd>  (19) 
270.89

>  <cluster>  (19) 
3

$$$$
GJSDZOHBAHKEKD-XMMPIXPANA-N
     RDKit          3D

 54 58  0  0  0  0  0  0  0  0999 V2000
  138.3780   77.5360  218.9830 O   0  0  0  0  0  0  0  0  0  0  0  0
  138.1080   76.9530  220.3410 S   0  0  0  0  0  0  0  0  0  0  0  0
  137.3940   75.6450  220.1470 O   0  0  0  0  0  0  0  0  0  0  0  0
  137.0360   78.0930  221.2280 C   0  0  0  0  0  0  0  0  0  0  0  0
  137.8100   79.1880  221.9170 C   0  0  0  0  0  0  0  0  0  0  0  0
  137.9890   79.1730  223.3120 C   0  0  0  0  0  0  0  0  0  0  0  0
  138.6750   80.2120  223.9460 C   0  0  0  0  0  0  0  0  0  0  0  0
  139.1850   81.2760  223.1980 C   0  0  0  0  0  0  0  0  0  0  0  0
  139.0030   81.3190  221.8030 C   0  0  0  0  0  0  0  0  0  0  0  0
  139.5860   82.4500  220.9910 C   0  0  0  0  0  0  0  0  0  0  0  0
  140.7220   82.9540  221.6040 F   0  0  0  0  0  0  0  0  0  0  0  0
  139.9230   81.9830  219.7290 F   0  0  0  0  0  0  0  0  0  0  0  0
  138.6690   83.4840  220.8610 F   0  0  0  0  0  0  0  0  0  0  0  0
  138.3440   80.2510  221.1660 C   0  0  0  0  0  0  0  0  0  0  0  0
  139.6380   76.6480  221.1420 N   0  0  0  0  0  0  0  0  0  0  0  0
  139.6180   75.4920  222.0610 C   0  0  0  0  0  0  0  0  0  0  0  0
  140.1940   74.2270  221.4370 C   0  0  0  0  0  0  0  0  0  0  0  0
  141.5640   74.4930  220.8950 C   0  0  0  0  0  0  0  0  0  0  0  0
  142.5140   73.4590  220.8650 C   0  0  0  0  0  0  0  0  0  0  0  0
  143.7690   73.6700  220.2870 C   0  0  0  0  0  0  0  0  0  0  0  0
  144.0740   74.9050  219.7130 C   0  0  0  0  0  0  0  0  0  0  0  0
  143.1270   75.9320  219.7230 C   0  0  0  0  0  0  0  0  0  0  0  0
  141.8710   75.7480  220.3380 C   0  0  0  0  0  0  0  0  0  0  0  0
  140.8250   76.8520  220.2710 C   0  0  2  0  0  0  0  0  0  0  0  0
  141.4170   78.2020  220.5920 C   0  0  0  0  0  0  0  0  0  0  0  0
  141.7430   79.1890  219.6620 C   0  0  0  0  0  0  0  0  0  0  0  0
  142.1830   80.3040  220.2890 N   0  0  0  0  0  0  0  0  0  0  0  0
  142.1320   80.0350  221.6070 C   0  0  0  0  0  0  0  0  0  0  0  0
  142.4690   80.8920  222.6550 C   0  0  0  0  0  0  0  0  0  0  0  0
  142.3250   80.4120  223.9730 C   0  0  0  0  0  0  0  0  0  0  0  0
  141.8590   79.0990  224.2090 C   0  0  0  0  0  0  0  0  0  0  0  0
  141.5280   78.2550  223.1310 C   0  0  0  0  0  0  0  0  0  0  0  0
  141.6700   78.7620  221.8350 C   0  0  0  0  0  0  0  0  0  0  0  0
  136.3369   78.5505  220.5124 H   0  0  0  0  0  0  0  0  0  0  0  0
  136.5025   77.5206  222.0011 H   0  0  0  0  0  0  0  0  0  0  0  0
  137.5870   78.3394  223.9066 H   0  0  0  0  0  0  0  0  0  0  0  0
  138.8139   80.1922  225.0370 H   0  0  0  0  0  0  0  0  0  0  0  0
  139.7325   82.0856  223.7027 H   0  0  0  0  0  0  0  0  0  0  0  0
  138.2455   80.2474  220.0704 H   0  0  0  0  0  0  0  0  0  0  0  0
  140.2094   75.7434  222.9538 H   0  0  0  0  0  0  0  0  0  0  0  0
  138.5663   75.2872  222.3102 H   0  0  0  0  0  0  0  0  0  0  0  0
  140.2531   73.4392  222.2024 H   0  0  0  0  0  0  0  0  0  0  0  0
  139.5398   73.9039  220.6138 H   0  0  0  0  0  0  0  0  0  0  0  0
  142.2692   72.4782  221.2986 H   0  0  0  0  0  0  0  0  0  0  0  0
  144.5162   72.8627  220.2845 H   0  0  0  0  0  0  0  0  0  0  0  0
  145.0595   75.0697  219.2530 H   0  0  0  0  0  0  0  0  0  0  0  0
  143.3634   76.8946  219.2461 H   0  0  0  0  0  0  0  0  0  0  0  0
  140.4774   76.8119  219.2281 H   0  0  0  0  0  0  0  0  0  0  0  0
  141.6547   79.0765  218.5713 H   0  0  0  0  0  0  0  0  0  0  0  0
  142.4890   81.1950  219.8360 H   0  0  0  0  0  0  0  0  0  0  0  0
  142.8356   81.9105  222.4592 H   0  0  0  0  0  0  0  0  0  0  0  0
  142.5770   81.0636  224.8227 H   0  0  0  0  0  0  0  0  0  0  0  0
  141.7541   78.7337  225.2412 H   0  0  0  0  0  0  0  0  0  0  0  0
  141.1691   77.2295  223.3028 H   0  0  0  0  0  0  0  0  0  0  0  0
  1  2  2  0
  2  3  2  0
  2  4  1  0
  4  5  1  0
  5  6  2  0
  6  7  1  0
  7  8  2  0
  8  9  1  0
  9 10  1  0
 10 11  1  0
 10 12  1  0
 10 13  1  0
  9 14  2  0
  2 15  1  0
 15 16  1  0
 16 17  1  0
 17 18  1  0
 18 19  2  0
 19 20  1  0
 20 21  2  0
 21 22  1  0
 22 23  2  0
 23 24  1  0
 24 25  1  0
 25 26  2  0
 26 27  1  0
 27 28  1  0
 28 29  2  0
 29 30  1  0
 30 31  2  0
 31 32  1  0
 32 33  2  0
 14  5  1  0
 24 15  1  0
 33 25  1  0
 23 18  1  0
 33 28  1  0
  4 34  1  0
  4 35  1  0
  6 36  1  0
  7 37  1  0
  8 38  1  0
 14 39  1  0
 16 40  1  0
 16 41  1  0
 17 42  1  0
 17 43  1  0
 19 44  1  0
 20 45  1  0
 21 46  1  0
 22 47  1  0
 24 48  1  6
 26 49  1  0
 27 50  1  0
 29 51  1  0
 30 52  1  0
 31 53  1  0
 32 54  1  0
M  END
>  <UniqueID>  (20) 
201

>  <SMILES>  (20) 
O=S(=O)(Cc1cccc(C(F)(F)F)c1)N1CCc2ccccc2[C@@H]1c1c[nH]c2ccccc12

>  <Energy>  (20) 
90.1711342313889

>  <Genealogy>  (20) 
O=S(=O)(Cc1cccc(C(F)(F)F)c1)N1CCc2ccccc2[C@@H]1c1c[nH]c2ccccc12 (3D coordinates assigned)
O=S(=O)(Cc1cccc(C(F)(F)F)c1)N1CCc2ccccc2[C@@H]1c1c[nH]c2ccccc12 (nonaromatic ring conformer: 90.1711342313889 kcal/mol)

>  <smiles>  (20) 
O=S(=O)(Cc1cccc(C(F)(F)F)c1)N1CCc2ccccc2[C@@H]1c1c[nH]c2ccccc12

>  <score_type>  (20) 
oracle

>  <origin>  (20) 
autodockgpu

>  <m_score__min__energy>  (20) 
-8.0600000000000005

>  <m_primary>  (20) 
energy

>  <meeko>  (20) 
{"free_energy": -6.69, "intermolecular_energy": -8.18, "internal_energy": -3.37, "cluster_size": 16, "cluster_id": 3, "rank_in_cluster": 5}

>  <energy>  (20) 
-6.61

>  <cluster_rmsd>  (20) 
0.57

>  <rmsd>  (20) 
270.95

>  <cluster>  (20) 
3

$$$$
GJSDZOHBAHKEKD-XMMPIXPANA-N
     RDKit          3D

 54 58  0  0  0  0  0  0  0  0999 V2000
  138.6280   82.6180  218.0520 O   0  0  0  0  0  0  0  0  0  0  0  0
  138.8240   81.4260  218.9460 S   0  0  0  0  0  0  0  0  0  0  0  0
  138.6160   80.1890  218.1180 O   0  0  0  0  0  0  0  0  0  0  0  0
  137.5760   81.4950  220.2400 C   0  0  0  0  0  0  0  0  0  0  0  0
  137.9740   80.7080  221.4630 C   0  0  0  0  0  0  0  0  0  0  0  0
  138.1510   81.3470  222.7020 C   0  0  0  0  0  0  0  0  0  0  0  0
  138.5570   80.6160  223.8220 C   0  0  0  0  0  0  0  0  0  0  0  0
  138.7940   79.2430  223.7150 C   0  0  0  0  0  0  0  0  0  0  0  0
  138.6380   78.5860  222.4800 C   0  0  0  0  0  0  0  0  0  0  0  0
  138.8580   77.0970  222.3730 C   0  0  0  0  0  0  0  0  0  0  0  0
  137.9910   76.4160  223.2130 F   0  0  0  0  0  0  0  0  0  0  0  0
  138.6330   76.6920  221.0670 F   0  0  0  0  0  0  0  0  0  0  0  0
  140.1580   76.7660  222.7320 F   0  0  0  0  0  0  0  0  0  0  0  0
  138.1930   79.3210  221.3660 C   0  0  0  0  0  0  0  0  0  0  0  0
  140.4710   81.4330  219.5470 N   0  0  0  0  0  0  0  0  0  0  0  0
  140.9020   82.7290  220.1110 C   0  0  0  0  0  0  0  0  0  0  0  0
  140.8140   82.7720  221.6320 C   0  0  0  0  0  0  0  0  0  0  0  0
  141.5600   81.6210  222.2290 C   0  0  0  0  0  0  0  0  0  0  0  0
  142.1590   81.7570  223.4920 C   0  0  0  0  0  0  0  0  0  0  0  0
  142.7880   80.6650  224.0970 C   0  0  0  0  0  0  0  0  0  0  0  0
  142.8020   79.4250  223.4580 C   0  0  0  0  0  0  0  0  0  0  0  0
  142.1940   79.2770  222.2090 C   0  0  0  0  0  0  0  0  0  0  0  0
  141.5900   80.3780  221.5660 C   0  0  0  0  0  0  0  0  0  0  0  0
  140.8640   80.1800  220.2420 C   0  0  2  0  0  0  0  0  0  0  0  0
  141.6740   79.3430  219.2840 C   0  0  0  0  0  0  0  0  0  0  0  0
  142.3650   79.8220  218.1710 C   0  0  0  0  0  0  0  0  0  0  0  0
  143.0480   78.8200  217.5700 N   0  0  0  0  0  0  0  0  0  0  0  0
  142.8010   77.7140  218.2960 C   0  0  0  0  0  0  0  0  0  0  0  0
  143.3050   76.4310  218.0760 C   0  0  0  0  0  0  0  0  0  0  0  0
  142.9310   75.4110  218.9740 C   0  0  0  0  0  0  0  0  0  0  0  0
  142.0640   75.6920  220.0550 C   0  0  0  0  0  0  0  0  0  0  0  0
  141.5680   76.9950  220.2510 C   0  0  0  0  0  0  0  0  0  0  0  0
  141.9660   77.9900  219.3510 C   0  0  0  0  0  0  0  0  0  0  0  0
  137.4245   82.5454  220.5294 H   0  0  0  0  0  0  0  0  0  0  0  0
  136.6526   81.0506  219.8403 H   0  0  0  0  0  0  0  0  0  0  0  0
  137.9691   82.4282  222.7909 H   0  0  0  0  0  0  0  0  0  0  0  0
  138.6902   81.1224  224.7894 H   0  0  0  0  0  0  0  0  0  0  0  0
  139.1047   78.6716  224.6021 H   0  0  0  0  0  0  0  0  0  0  0  0
  138.0145   78.8068  220.4101 H   0  0  0  0  0  0  0  0  0  0  0  0
  141.9454   82.9114  219.8144 H   0  0  0  0  0  0  0  0  0  0  0  0
  140.2243   83.5016  219.7189 H   0  0  0  0  0  0  0  0  0  0  0  0
  141.2509   83.7143  221.9941 H   0  0  0  0  0  0  0  0  0  0  0  0
  139.7574   82.7066  221.9308 H   0  0  0  0  0  0  0  0  0  0  0  0
  142.1331   82.7281  224.0080 H   0  0  0  0  0  0  0  0  0  0  0  0
  143.2722   80.7835  225.0776 H   0  0  0  0  0  0  0  0  0  0  0  0
  143.2915   78.5644  223.9373 H   0  0  0  0  0  0  0  0  0  0  0  0
  142.1861   78.2910  221.7214 H   0  0  0  0  0  0  0  0  0  0  0  0
  139.9373   79.6626  220.5309 H   0  0  0  0  0  0  0  0  0  0  0  0
  142.3561   80.8676  217.8296 H   0  0  0  0  0  0  0  0  0  0  0  0
  143.6520   78.8980  216.7210 H   0  0  0  0  0  0  0  0  0  0  0  0
  143.9736   76.2224  217.2278 H   0  0  0  0  0  0  0  0  0  0  0  0
  143.3159   74.3902  218.8330 H   0  0  0  0  0  0  0  0  0  0  0  0
  141.7752   74.8874  220.7473 H   0  0  0  0  0  0  0  0  0  0  0  0
  140.8888   77.2238  221.0855 H   0  0  0  0  0  0  0  0  0  0  0  0
  1  2  2  0
  2  3  2  0
  2  4  1  0
  4  5  1  0
  5  6  2  0
  6  7  1  0
  7  8  2  0
  8  9  1  0
  9 10  1  0
 10 11  1  0
 10 12  1  0
 10 13  1  0
  9 14  2  0
  2 15  1  0
 15 16  1  0
 16 17  1  0
 17 18  1  0
 18 19  2  0
 19 20  1  0
 20 21  2  0
 21 22  1  0
 22 23  2  0
 23 24  1  0
 24 25  1  0
 25 26  2  0
 26 27  1  0
 27 28  1  0
 28 29  2  0
 29 30  1  0
 30 31  2  0
 31 32  1  0
 32 33  2  0
 14  5  1  0
 24 15  1  0
 33 25  1  0
 23 18  1  0
 33 28  1  0
  4 34  1  0
  4 35  1  0
  6 36  1  0
  7 37  1  0
  8 38  1  0
 14 39  1  0
 16 40  1  0
 16 41  1  0
 17 42  1  0
 17 43  1  0
 19 44  1  0
 20 45  1  0
 21 46  1  0
 22 47  1  0
 24 48  1  1
 26 49  1  0
 27 50  1  0
 29 51  1  0
 30 52  1  0
 31 53  1  0
 32 54  1  0
M  END
>  <UniqueID>  (21) 
202

>  <SMILES>  (21) 
O=S(=O)(Cc1cccc(C(F)(F)F)c1)N1CCc2ccccc2[C@@H]1c1c[nH]c2ccccc12

>  <Energy>  (21) 
96.66385639821564

>  <Genealogy>  (21) 
O=S(=O)(Cc1cccc(C(F)(F)F)c1)N1CCc2ccccc2[C@@H]1c1c[nH]c2ccccc12 (3D coordinates assigned)
O=S(=O)(Cc1cccc(C(F)(F)F)c1)N1CCc2ccccc2[C@@H]1c1c[nH]c2ccccc12 (nonaromatic ring conformer: 96.66385639821564 kcal/mol)

>  <smiles>  (21) 
O=S(=O)(Cc1cccc(C(F)(F)F)c1)N1CCc2ccccc2[C@@H]1c1c[nH]c2ccccc12

>  <score_type>  (21) 
oracle

>  <origin>  (21) 
autodockgpu

>  <m_score__min__energy>  (21) 
-8.0600000000000005

>  <m_primary>  (21) 
energy

>  <meeko>  (21) 
{"free_energy": -6.87, "intermolecular_energy": -8.36, "internal_energy": -3.12, "cluster_size": 3, "cluster_id": 2, "rank_in_cluster": 3}

>  <energy>  (21) 
-8.06

>  <cluster_rmsd>  (21) 
0.0

>  <rmsd>  (21) 
270.35

>  <cluster>  (21) 
1

$$$$
GJSDZOHBAHKEKD-XMMPIXPANA-N
     RDKit          3D

 54 58  0  0  0  0  0  0  0  0999 V2000
  138.4150   77.5100  218.9050 O   0  0  0  0  0  0  0  0  0  0  0  0
  138.1200   76.9580  220.2710 S   0  0  0  0  0  0  0  0  0  0  0  0
  137.3880   75.6580  220.0950 O   0  0  0  0  0  0  0  0  0  0  0  0
  137.0550   78.1320  221.1230 C   0  0  0  0  0  0  0  0  0  0  0  0
  137.8400   79.2060  221.8330 C   0  0  0  0  0  0  0  0  0  0  0  0
  138.0170   79.1630  223.2270 C   0  0  0  0  0  0  0  0  0  0  0  0
  138.7130   80.1820  223.8820 C   0  0  0  0  0  0  0  0  0  0  0  0
  139.2350   81.2550  223.1540 C   0  0  0  0  0  0  0  0  0  0  0  0
  139.0550   81.3260  221.7600 C   0  0  0  0  0  0  0  0  0  0  0  0
  139.6500   82.4660  220.9700 C   0  0  0  0  0  0  0  0  0  0  0  0
  140.7870   82.9500  221.5970 F   0  0  0  0  0  0  0  0  0  0  0  0
  139.9880   82.0190  219.7020 F   0  0  0  0  0  0  0  0  0  0  0  0
  138.7420   83.5090  220.8550 F   0  0  0  0  0  0  0  0  0  0  0  0
  138.3850   80.2780  221.1030 C   0  0  0  0  0  0  0  0  0  0  0  0
  139.6350   76.6460  221.0950 N   0  0  0  0  0  0  0  0  0  0  0  0
  139.5930   75.4950  222.0210 C   0  0  0  0  0  0  0  0  0  0  0  0
  140.1690   74.2230  221.4120 C   0  0  0  0  0  0  0  0  0  0  0  0
  141.5480   74.4750  220.8890 C   0  0  0  0  0  0  0  0  0  0  0  0
  142.4910   73.4340  220.8780 C   0  0  0  0  0  0  0  0  0  0  0  0
  143.7560   73.6330  220.3170 C   0  0  0  0  0  0  0  0  0  0  0  0
  144.0790   74.8620  219.7410 C   0  0  0  0  0  0  0  0  0  0  0  0
  143.1400   75.8960  219.7320 C   0  0  0  0  0  0  0  0  0  0  0  0
  141.8730   75.7260  220.3300 C   0  0  0  0  0  0  0  0  0  0  0  0
  140.8360   76.8370  220.2410 C   0  0  2  0  0  0  0  0  0  0  0  0
  141.4340   78.1830  220.5630 C   0  0  0  0  0  0  0  0  0  0  0  0
  141.7600   79.1720  219.6350 C   0  0  0  0  0  0  0  0  0  0  0  0
  142.2060   80.2840  220.2620 N   0  0  0  0  0  0  0  0  0  0  0  0
  142.1590   80.0120  221.5800 C   0  0  0  0  0  0  0  0  0  0  0  0
  142.5030   80.8650  222.6290 C   0  0  0  0  0  0  0  0  0  0  0  0
  142.3610   80.3820  223.9460 C   0  0  0  0  0  0  0  0  0  0  0  0
  141.8920   79.0700  224.1810 C   0  0  0  0  0  0  0  0  0  0  0  0
  141.5550   78.2300  223.1020 C   0  0  0  0  0  0  0  0  0  0  0  0
  141.6940   78.7400  221.8060 C   0  0  0  0  0  0  0  0  0  0  0  0
  136.3917   78.6076  220.3856 H   0  0  0  0  0  0  0  0  0  0  0  0
  136.4815   77.5778  221.8806 H   0  0  0  0  0  0  0  0  0  0  0  0
  137.6053   78.3226  223.8051 H   0  0  0  0  0  0  0  0  0  0  0  0
  138.8504   80.1398  224.9726 H   0  0  0  0  0  0  0  0  0  0  0  0
  139.7903   82.0494  223.6742 H   0  0  0  0  0  0  0  0  0  0  0  0
  138.2862   80.2969  220.0076 H   0  0  0  0  0  0  0  0  0  0  0  0
  140.1731   75.7472  222.9209 H   0  0  0  0  0  0  0  0  0  0  0  0
  138.5365   75.2992  222.2566 H   0  0  0  0  0  0  0  0  0  0  0  0
  140.2109   73.4388  222.1822 H   0  0  0  0  0  0  0  0  0  0  0  0
  139.5247   73.9012  220.5806 H   0  0  0  0  0  0  0  0  0  0  0  0
  142.2328   72.4572  221.3130 H   0  0  0  0  0  0  0  0  0  0  0  0
  144.4970   72.8202  220.3297 H   0  0  0  0  0  0  0  0  0  0  0  0
  145.0723   75.0165  219.2943 H   0  0  0  0  0  0  0  0  0  0  0  0
  143.3910   76.8540  219.2532 H   0  0  0  0  0  0  0  0  0  0  0  0
  140.5025   76.7944  219.1936 H   0  0  0  0  0  0  0  0  0  0  0  0
  141.6672   79.0626  218.5444 H   0  0  0  0  0  0  0  0  0  0  0  0
  142.5130   81.1760  219.8110 H   0  0  0  0  0  0  0  0  0  0  0  0
  142.8734   81.8824  222.4347 H   0  0  0  0  0  0  0  0  0  0  0  0
  142.6171   81.0310  224.7964 H   0  0  0  0  0  0  0  0  0  0  0  0
  141.7895   78.7026  225.2127 H   0  0  0  0  0  0  0  0  0  0  0  0
  141.1938   77.2051  223.2725 H   0  0  0  0  0  0  0  0  0  0  0  0
  1  2  2  0
  2  3  2  0
  2  4  1  0
  4  5  1  0
  5  6  2  0
  6  7  1  0
  7  8  2  0
  8  9  1  0
  9 10  1  0
 10 11  1  0
 10 12  1  0
 10 13  1  0
  9 14  2  0
  2 15  1  0
 15 16  1  0
 16 17  1  0
 17 18  1  0
 18 19  2  0
 19 20  1  0
 20 21  2  0
 21 22  1  0
 22 23  2  0
 23 24  1  0
 24 25  1  0
 25 26  2  0
 26 27  1  0
 27 28  1  0
 28 29  2  0
 29 30  1  0
 30 31  2  0
 31 32  1  0
 32 33  2  0
 14  5  1  0
 24 15  1  0
 33 25  1  0
 23 18  1  0
 33 28  1  0
  4 34  1  0
  4 35  1  0
  6 36  1  0
  7 37  1  0
  8 38  1  0
 14 39  1  0
 16 40  1  0
 16 41  1  0
 17 42  1  0
 17 43  1  0
 19 44  1  0
 20 45  1  0
 21 46  1  0
 22 47  1  0
 24 48  1  6
 26 49  1  0
 27 50  1  0
 29 51  1  0
 30 52  1  0
 31 53  1  0
 32 54  1  0
M  END
>  <UniqueID>  (22) 
202

>  <SMILES>  (22) 
O=S(=O)(Cc1cccc(C(F)(F)F)c1)N1CCc2ccccc2[C@@H]1c1c[nH]c2ccccc12

>  <Energy>  (22) 
96.66385639821564

>  <Genealogy>  (22) 
O=S(=O)(Cc1cccc(C(F)(F)F)c1)N1CCc2ccccc2[C@@H]1c1c[nH]c2ccccc12 (3D coordinates assigned)
O=S(=O)(Cc1cccc(C(F)(F)F)c1)N1CCc2ccccc2[C@@H]1c1c[nH]c2ccccc12 (nonaromatic ring conformer: 96.66385639821564 kcal/mol)

>  <smiles>  (22) 
O=S(=O)(Cc1cccc(C(F)(F)F)c1)N1CCc2ccccc2[C@@H]1c1c[nH]c2ccccc12

>  <score_type>  (22) 
oracle

>  <origin>  (22) 
autodockgpu

>  <m_score__min__energy>  (22) 
-8.0600000000000005

>  <m_primary>  (22) 
energy

>  <meeko>  (22) 
{"free_energy": -6.67, "intermolecular_energy": -8.17, "internal_energy": -3.37, "cluster_size": 16, "cluster_id": 3, "rank_in_cluster": 10}

>  <energy>  (22) 
-6.91

>  <cluster_rmsd>  (22) 
0.0

>  <rmsd>  (22) 
270.82

>  <cluster>  (22) 
2

$$$$
GJSDZOHBAHKEKD-XMMPIXPANA-N
     RDKit          3D

 54 58  0  0  0  0  0  0  0  0999 V2000
  138.4080   77.5570  218.8740 O   0  0  0  0  0  0  0  0  0  0  0  0
  138.1140   76.9860  220.2320 S   0  0  0  0  0  0  0  0  0  0  0  0
  137.3950   75.6800  220.0370 O   0  0  0  0  0  0  0  0  0  0  0  0
  137.0340   78.1390  221.0920 C   0  0  0  0  0  0  0  0  0  0  0  0
  137.8030   79.2260  221.7990 C   0  0  0  0  0  0  0  0  0  0  0  0
  137.9770   79.1940  223.1940 C   0  0  0  0  0  0  0  0  0  0  0  0
  138.6590   80.2250  223.8440 C   0  0  0  0  0  0  0  0  0  0  0  0
  139.1710   81.2990  223.1110 C   0  0  0  0  0  0  0  0  0  0  0  0
  138.9950   81.3600  221.7160 C   0  0  0  0  0  0  0  0  0  0  0  0
  139.5800   82.5010  220.9210 C   0  0  0  0  0  0  0  0  0  0  0  0
  138.6490   83.5180  220.7740 F   0  0  0  0  0  0  0  0  0  0  0  0
  140.6920   82.9990  221.5830 F   0  0  0  0  0  0  0  0  0  0  0  0
  139.9580   82.0750  219.6560 F   0  0  0  0  0  0  0  0  0  0  0  0
  138.3400   80.2990  221.0630 C   0  0  0  0  0  0  0  0  0  0  0  0
  139.6280   76.6790  221.0590 N   0  0  0  0  0  0  0  0  0  0  0  0
  139.5910   75.5240  221.9800 C   0  0  0  0  0  0  0  0  0  0  0  0
  140.1760   74.2580  221.3670 C   0  0  0  0  0  0  0  0  0  0  0  0
  141.5550   74.5200  220.8490 C   0  0  0  0  0  0  0  0  0  0  0  0
  142.5040   73.4850  220.8360 C   0  0  0  0  0  0  0  0  0  0  0  0
  143.7690   73.6930  220.2790 C   0  0  0  0  0  0  0  0  0  0  0  0
  144.0860   74.9270  219.7090 C   0  0  0  0  0  0  0  0  0  0  0  0
  143.1410   75.9560  219.7010 C   0  0  0  0  0  0  0  0  0  0  0  0
  141.8740   75.7750  220.2950 C   0  0  0  0  0  0  0  0  0  0  0  0
  140.8310   76.8810  220.2090 C   0  0  2  0  0  0  0  0  0  0  0  0
  141.4200   78.2290  220.5380 C   0  0  0  0  0  0  0  0  0  0  0  0
  141.7520   79.2200  219.6140 C   0  0  0  0  0  0  0  0  0  0  0  0
  142.1860   80.3330  220.2460 N   0  0  0  0  0  0  0  0  0  0  0  0
  142.1260   80.0600  221.5630 C   0  0  0  0  0  0  0  0  0  0  0  0
  142.4550   80.9140  222.6170 C   0  0  0  0  0  0  0  0  0  0  0  0
  142.3010   80.4300  223.9320 C   0  0  0  0  0  0  0  0  0  0  0  0
  141.8340   79.1160  224.1610 C   0  0  0  0  0  0  0  0  0  0  0  0
  141.5120   78.2750  223.0780 C   0  0  0  0  0  0  0  0  0  0  0  0
  141.6640   78.7860  221.7840 C   0  0  0  0  0  0  0  0  0  0  0  0
  136.3577   78.6036  220.3593 H   0  0  0  0  0  0  0  0  0  0  0  0
  136.4757   77.5732  221.8524 H   0  0  0  0  0  0  0  0  0  0  0  0
  137.5738   78.3524  223.7764 H   0  0  0  0  0  0  0  0  0  0  0  0
  138.7934   80.1916  224.9352 H   0  0  0  0  0  0  0  0  0  0  0  0
  139.7156   82.1027  223.6282 H   0  0  0  0  0  0  0  0  0  0  0  0
  138.2469   80.3084  219.9670 H   0  0  0  0  0  0  0  0  0  0  0  0
  140.1676   75.7759  222.8822 H   0  0  0  0  0  0  0  0  0  0  0  0
  138.5352   75.3208  222.2124 H   0  0  0  0  0  0  0  0  0  0  0  0
  140.2201   73.4706  222.1339 H   0  0  0  0  0  0  0  0  0  0  0  0
  139.5358   73.9363  220.5323 H   0  0  0  0  0  0  0  0  0  0  0  0
  142.2504   72.5051  221.2666 H   0  0  0  0  0  0  0  0  0  0  0  0
  144.5146   72.8843  220.2899 H   0  0  0  0  0  0  0  0  0  0  0  0
  145.0797   75.0893  219.2661 H   0  0  0  0  0  0  0  0  0  0  0  0
  143.3873   76.9174  219.2266 H   0  0  0  0  0  0  0  0  0  0  0  0
  140.5007   76.8413  219.1605 H   0  0  0  0  0  0  0  0  0  0  0  0
  141.6717   79.1107  218.5224 H   0  0  0  0  0  0  0  0  0  0  0  0
  142.4950   81.2260  219.7990 H   0  0  0  0  0  0  0  0  0  0  0  0
  142.8230   81.9331  222.4273 H   0  0  0  0  0  0  0  0  0  0  0  0
  142.5459   81.0793  224.7854 H   0  0  0  0  0  0  0  0  0  0  0  0
  141.7213   78.7477  225.1914 H   0  0  0  0  0  0  0  0  0  0  0  0
  141.1523   77.2488  223.2441 H   0  0  0  0  0  0  0  0  0  0  0  0
  1  2  2  0
  2  3  2  0
  2  4  1  0
  4  5  1  0
  5  6  2  0
  6  7  1  0
  7  8  2  0
  8  9  1  0
  9 10  1  0
 10 11  1  0
 10 12  1  0
 10 13  1  0
  9 14  2  0
  2 15  1  0
 15 16  1  0
 16 17  1  0
 17 18  1  0
 18 19  2  0
 19 20  1  0
 20 21  2  0
 21 22  1  0
 22 23  2  0
 23 24  1  0
 24 25  1  0
 25 26  2  0
 26 27  1  0
 27 28  1  0
 28 29  2  0
 29 30  1  0
 30 31  2  0
 31 32  1  0
 32 33  2  0
 14  5  1  0
 24 15  1  0
 33 25  1  0
 23 18  1  0
 33 28  1  0
  4 34  1  0
  4 35  1  0
  6 36  1  0
  7 37  1  0
  8 38  1  0
 14 39  1  0
 16 40  1  0
 16 41  1  0
 17 42  1  0
 17 43  1  0
 19 44  1  0
 20 45  1  0
 21 46  1  0
 22 47  1  0
 24 48  1  6
 26 49  1  0
 27 50  1  0
 29 51  1  0
 30 52  1  0
 31 53  1  0
 32 54  1  0
M  END
>  <UniqueID>  (23) 
202

>  <SMILES>  (23) 
O=S(=O)(Cc1cccc(C(F)(F)F)c1)N1CCc2ccccc2[C@@H]1c1c[nH]c2ccccc12

>  <Energy>  (23) 
96.66385639821564

>  <Genealogy>  (23) 
O=S(=O)(Cc1cccc(C(F)(F)F)c1)N1CCc2ccccc2[C@@H]1c1c[nH]c2ccccc12 (3D coordinates assigned)
O=S(=O)(Cc1cccc(C(F)(F)F)c1)N1CCc2ccccc2[C@@H]1c1c[nH]c2ccccc12 (nonaromatic ring conformer: 96.66385639821564 kcal/mol)

>  <smiles>  (23) 
O=S(=O)(Cc1cccc(C(F)(F)F)c1)N1CCc2ccccc2[C@@H]1c1c[nH]c2ccccc12

>  <score_type>  (23) 
oracle

>  <origin>  (23) 
autodockgpu

>  <m_score__min__energy>  (23) 
-8.0600000000000005

>  <m_primary>  (23) 
energy

>  <meeko>  (23) 
{"free_energy": -6.68, "intermolecular_energy": -8.17, "internal_energy": -3.38, "cluster_size": 16, "cluster_id": 3, "rank_in_cluster": 9}

>  <energy>  (23) 
-6.9

>  <cluster_rmsd>  (23) 
0.05

>  <rmsd>  (23) 
270.82

>  <cluster>  (23) 
2

$$$$
GJSDZOHBAHKEKD-XMMPIXPANA-N
     RDKit          3D

 54 58  0  0  0  0  0  0  0  0999 V2000
  138.4290   77.5160  218.8310 O   0  0  0  0  0  0  0  0  0  0  0  0
  138.1160   76.9950  220.2050 S   0  0  0  0  0  0  0  0  0  0  0  0
  137.3700   75.6990  220.0470 O   0  0  0  0  0  0  0  0  0  0  0  0
  137.0570   78.1980  221.0220 C   0  0  0  0  0  0  0  0  0  0  0  0
  137.8470   79.2470  221.7620 C   0  0  0  0  0  0  0  0  0  0  0  0
  138.0340   79.1590  223.1530 C   0  0  0  0  0  0  0  0  0  0  0  0
  138.7360   80.1560  223.8350 C   0  0  0  0  0  0  0  0  0  0  0  0
  139.2540   81.2510  223.1390 C   0  0  0  0  0  0  0  0  0  0  0  0
  139.0650   81.3670  221.7490 C   0  0  0  0  0  0  0  0  0  0  0  0
  139.6560   82.5320  220.9920 C   0  0  0  0  0  0  0  0  0  0  0  0
  140.7880   83.0050  221.6360 F   0  0  0  0  0  0  0  0  0  0  0  0
  140.0020   82.1200  219.7140 F   0  0  0  0  0  0  0  0  0  0  0  0
  138.7420   83.5720  220.9010 F   0  0  0  0  0  0  0  0  0  0  0  0
  138.3890   80.3410  221.0630 C   0  0  0  0  0  0  0  0  0  0  0  0
  139.6190   76.6820  221.0490 N   0  0  0  0  0  0  0  0  0  0  0  0
  139.5650   75.5280  221.9710 C   0  0  0  0  0  0  0  0  0  0  0  0
  140.1510   74.2580  221.3660 C   0  0  0  0  0  0  0  0  0  0  0  0
  141.5370   74.5130  220.8630 C   0  0  0  0  0  0  0  0  0  0  0  0
  142.4810   73.4730  220.8630 C   0  0  0  0  0  0  0  0  0  0  0  0
  143.7530   73.6740  220.3200 C   0  0  0  0  0  0  0  0  0  0  0  0
  144.0830   74.9050  219.7520 C   0  0  0  0  0  0  0  0  0  0  0  0
  143.1430   75.9390  219.7330 C   0  0  0  0  0  0  0  0  0  0  0  0
  141.8690   75.7660  220.3120 C   0  0  0  0  0  0  0  0  0  0  0  0
  140.8320   76.8760  220.2130 C   0  0  2  0  0  0  0  0  0  0  0  0
  141.4240   78.2220  220.5470 C   0  0  0  0  0  0  0  0  0  0  0  0
  141.7550   79.2170  219.6270 C   0  0  0  0  0  0  0  0  0  0  0  0
  142.1930   80.3260  220.2640 N   0  0  0  0  0  0  0  0  0  0  0  0
  142.1360   80.0470  221.5800 C   0  0  0  0  0  0  0  0  0  0  0  0
  142.4690   80.8940  222.6370 C   0  0  0  0  0  0  0  0  0  0  0  0
  142.3180   80.4040  223.9500 C   0  0  0  0  0  0  0  0  0  0  0  0
  141.8500   79.0900  224.1730 C   0  0  0  0  0  0  0  0  0  0  0  0
  141.5240   78.2540  223.0870 C   0  0  0  0  0  0  0  0  0  0  0  0
  141.6720   78.7720  221.7960 C   0  0  0  0  0  0  0  0  0  0  0  0
  136.4343   78.6942  220.2630 H   0  0  0  0  0  0  0  0  0  0  0  0
  136.4414   77.6595  221.7576 H   0  0  0  0  0  0  0  0  0  0  0  0
  137.6255   78.3009  223.7069 H   0  0  0  0  0  0  0  0  0  0  0  0
  138.8812   80.0786  224.9226 H   0  0  0  0  0  0  0  0  0  0  0  0
  139.8134   82.0278  223.6809 H   0  0  0  0  0  0  0  0  0  0  0  0
  138.2833   80.3949  219.9694 H   0  0  0  0  0  0  0  0  0  0  0  0
  140.1321   75.7779  222.8798 H   0  0  0  0  0  0  0  0  0  0  0  0
  138.5055   75.3305  222.1911 H   0  0  0  0  0  0  0  0  0  0  0  0
  140.1830   73.4715  222.1343 H   0  0  0  0  0  0  0  0  0  0  0  0
  139.5186   73.9381  220.5247 H   0  0  0  0  0  0  0  0  0  0  0  0
  142.2178   72.4952  221.2926 H   0  0  0  0  0  0  0  0  0  0  0  0
  144.4942   72.8615  220.3404 H   0  0  0  0  0  0  0  0  0  0  0  0
  145.0822   75.0615  219.3195 H   0  0  0  0  0  0  0  0  0  0  0  0
  143.3999   76.8988  219.2610 H   0  0  0  0  0  0  0  0  0  0  0  0
  140.5130   76.8352  219.1610 H   0  0  0  0  0  0  0  0  0  0  0  0
  141.6713   79.1136  218.5351 H   0  0  0  0  0  0  0  0  0  0  0  0
  142.5010   81.2210  219.8210 H   0  0  0  0  0  0  0  0  0  0  0  0
  142.8382   81.9134  222.4515 H   0  0  0  0  0  0  0  0  0  0  0  0
  142.5661   81.0487  224.8061 H   0  0  0  0  0  0  0  0  0  0  0  0
  141.7394   78.7169  225.2019 H   0  0  0  0  0  0  0  0  0  0  0  0
  141.1647   77.2270  223.2489 H   0  0  0  0  0  0  0  0  0  0  0  0
  1  2  2  0
  2  3  2  0
  2  4  1  0
  4  5  1  0
  5  6  2  0
  6  7  1  0
  7  8  2  0
  8  9  1  0
  9 10  1  0
 10 11  1  0
 10 12  1  0
 10 13  1  0
  9 14  2  0
  2 15  1  0
 15 16  1  0
 16 17  1  0
 17 18  1  0
 18 19  2  0
 19 20  1  0
 20 21  2  0
 21 22  1  0
 22 23  2  0
 23 24  1  0
 24 25  1  0
 25 26  2  0
 26 27  1  0
 27 28  1  0
 28 29  2  0
 29 30  1  0
 30 31  2  0
 31 32  1  0
 32 33  2  0
 14  5  1  0
 24 15  1  0
 33 25  1  0
 23 18  1  0
 33 28  1  0
  4 34  1  0
  4 35  1  0
  6 36  1  0
  7 37  1  0
  8 38  1  0
 14 39  1  0
 16 40  1  0
 16 41  1  0
 17 42  1  0
 17 43  1  0
 19 44  1  0
 20 45  1  0
 21 46  1  0
 22 47  1  0
 24 48  1  6
 26 49  1  0
 27 50  1  0
 29 51  1  0
 30 52  1  0
 31 53  1  0
 32 54  1  0
M  END
>  <UniqueID>  (24) 
202

>  <SMILES>  (24) 
O=S(=O)(Cc1cccc(C(F)(F)F)c1)N1CCc2ccccc2[C@@H]1c1c[nH]c2ccccc12

>  <Energy>  (24) 
96.66385639821564

>  <Genealogy>  (24) 
O=S(=O)(Cc1cccc(C(F)(F)F)c1)N1CCc2ccccc2[C@@H]1c1c[nH]c2ccccc12 (3D coordinates assigned)
O=S(=O)(Cc1cccc(C(F)(F)F)c1)N1CCc2ccccc2[C@@H]1c1c[nH]c2ccccc12 (nonaromatic ring conformer: 96.66385639821564 kcal/mol)

>  <smiles>  (24) 
O=S(=O)(Cc1cccc(C(F)(F)F)c1)N1CCc2ccccc2[C@@H]1c1c[nH]c2ccccc12

>  <score_type>  (24) 
oracle

>  <origin>  (24) 
autodockgpu

>  <m_score__min__energy>  (24) 
-8.0600000000000005

>  <m_primary>  (24) 
energy

>  <meeko>  (24) 
{"free_energy": -6.72, "intermolecular_energy": -8.22, "internal_energy": -3.34, "cluster_size": 16, "cluster_id": 3, "rank_in_cluster": 1}

>  <energy>  (24) 
-6.87

>  <cluster_rmsd>  (24) 
0.08

>  <rmsd>  (24) 
270.83

>  <cluster>  (24) 
2

$$$$
GJSDZOHBAHKEKD-XMMPIXPANA-N
     RDKit          3D

 54 58  0  0  0  0  0  0  0  0999 V2000
  138.4200   77.5640  218.8420 O   0  0  0  0  0  0  0  0  0  0  0  0
  138.1090   76.9990  220.2000 S   0  0  0  0  0  0  0  0  0  0  0  0
  137.3860   75.6960  220.0020 O   0  0  0  0  0  0  0  0  0  0  0  0
  137.0270   78.1600  221.0460 C   0  0  0  0  0  0  0  0  0  0  0  0
  137.7960   79.2270  221.7840 C   0  0  0  0  0  0  0  0  0  0  0  0
  137.9580   79.1600  223.1790 C   0  0  0  0  0  0  0  0  0  0  0  0
  138.6400   80.1730  223.8590 C   0  0  0  0  0  0  0  0  0  0  0  0
  139.1620   81.2620  223.1550 C   0  0  0  0  0  0  0  0  0  0  0  0
  138.9980   81.3560  221.7610 C   0  0  0  0  0  0  0  0  0  0  0  0
  139.5940   82.5130  220.9970 C   0  0  0  0  0  0  0  0  0  0  0  0
  139.9620   82.1160  219.7220 F   0  0  0  0  0  0  0  0  0  0  0  0
  138.6570   83.5310  220.9010 F   0  0  0  0  0  0  0  0  0  0  0  0
  140.7230   82.9970  221.6430 F   0  0  0  0  0  0  0  0  0  0  0  0
  138.3430   80.3140  221.0780 C   0  0  0  0  0  0  0  0  0  0  0  0
  139.6140   76.6870  221.0420 N   0  0  0  0  0  0  0  0  0  0  0  0
  139.5670   75.5260  221.9540 C   0  0  0  0  0  0  0  0  0  0  0  0
  140.1600   74.2650  221.3390 C   0  0  0  0  0  0  0  0  0  0  0  0
  141.5450   74.5320  220.8390 C   0  0  0  0  0  0  0  0  0  0  0  0
  142.4960   73.4980  220.8300 C   0  0  0  0  0  0  0  0  0  0  0  0
  143.7670   73.7120  220.2890 C   0  0  0  0  0  0  0  0  0  0  0  0
  144.0890   74.9490  219.7320 C   0  0  0  0  0  0  0  0  0  0  0  0
  143.1440   75.9780  219.7220 C   0  0  0  0  0  0  0  0  0  0  0  0
  141.8700   75.7910  220.2990 C   0  0  0  0  0  0  0  0  0  0  0  0
  140.8260   76.8970  220.2080 C   0  0  2  0  0  0  0  0  0  0  0  0
  141.4100   78.2430  220.5550 C   0  0  0  0  0  0  0  0  0  0  0  0
  141.7380   79.2470  219.6430 C   0  0  0  0  0  0  0  0  0  0  0  0
  142.1680   80.3540  220.2900 N   0  0  0  0  0  0  0  0  0  0  0  0
  142.1090   80.0640  221.6030 C   0  0  0  0  0  0  0  0  0  0  0  0
  142.4350   80.9050  222.6680 C   0  0  0  0  0  0  0  0  0  0  0  0
  142.2830   80.4040  223.9760 C   0  0  0  0  0  0  0  0  0  0  0  0
  141.8220   79.0850  224.1890 C   0  0  0  0  0  0  0  0  0  0  0  0
  141.5030   78.2560  223.0950 C   0  0  0  0  0  0  0  0  0  0  0  0
  141.6520   78.7850  221.8080 C   0  0  0  0  0  0  0  0  0  0  0  0
  136.3766   78.6435  220.3022 H   0  0  0  0  0  0  0  0  0  0  0  0
  136.4411   77.5953  221.7862 H   0  0  0  0  0  0  0  0  0  0  0  0
  137.5462   78.3066  223.7377 H   0  0  0  0  0  0  0  0  0  0  0  0
  138.7662   80.1131  224.9501 H   0  0  0  0  0  0  0  0  0  0  0  0
  139.7051   82.0515  223.6951 H   0  0  0  0  0  0  0  0  0  0  0  0
  138.2580   80.3500  219.9819 H   0  0  0  0  0  0  0  0  0  0  0  0
  140.1328   75.7719  222.8647 H   0  0  0  0  0  0  0  0  0  0  0  0
  138.5087   75.3205  222.1726 H   0  0  0  0  0  0  0  0  0  0  0  0
  140.1959   73.4722  222.1007 H   0  0  0  0  0  0  0  0  0  0  0  0
  139.5299   73.9486  220.4947 H   0  0  0  0  0  0  0  0  0  0  0  0
  142.2391   72.5147  221.2509 H   0  0  0  0  0  0  0  0  0  0  0  0
  144.5135   72.9042  220.3027 H   0  0  0  0  0  0  0  0  0  0  0  0
  145.0871   75.1147  219.3004 H   0  0  0  0  0  0  0  0  0  0  0  0
  143.3957   76.9438  219.2596 H   0  0  0  0  0  0  0  0  0  0  0  0
  140.5081   76.8654  219.1554 H   0  0  0  0  0  0  0  0  0  0  0  0
  141.6580   79.1513  218.5501 H   0  0  0  0  0  0  0  0  0  0  0  0
  142.4730   81.2540  219.8540 H   0  0  0  0  0  0  0  0  0  0  0  0
  142.7995   81.9278  222.4916 H   0  0  0  0  0  0  0  0  0  0  0  0
  142.5248   81.0438  224.8375 H   0  0  0  0  0  0  0  0  0  0  0  0
  141.7116   78.7033  225.2147 H   0  0  0  0  0  0  0  0  0  0  0  0
  141.1482   77.2260  223.2478 H   0  0  0  0  0  0  0  0  0  0  0  0
  1  2  2  0
  2  3  2  0
  2  4  1  0
  4  5  1  0
  5  6  2  0
  6  7  1  0
  7  8  2  0
  8  9  1  0
  9 10  1  0
 10 11  1  0
 10 12  1  0
 10 13  1  0
  9 14  2  0
  2 15  1  0
 15 16  1  0
 16 17  1  0
 17 18  1  0
 18 19  2  0
 19 20  1  0
 20 21  2  0
 21 22  1  0
 22 23  2  0
 23 24  1  0
 24 25  1  0
 25 26  2  0
 26 27  1  0
 27 28  1  0
 28 29  2  0
 29 30  1  0
 30 31  2  0
 31 32  1  0
 32 33  2  0
 14  5  1  0
 24 15  1  0
 33 25  1  0
 23 18  1  0
 33 28  1  0
  4 34  1  0
  4 35  1  0
  6 36  1  0
  7 37  1  0
  8 38  1  0
 14 39  1  0
 16 40  1  0
 16 41  1  0
 17 42  1  0
 17 43  1  0
 19 44  1  0
 20 45  1  0
 21 46  1  0
 22 47  1  0
 24 48  1  6
 26 49  1  0
 27 50  1  0
 29 51  1  0
 30 52  1  0
 31 53  1  0
 32 54  1  0
M  END
>  <UniqueID>  (25) 
202

>  <SMILES>  (25) 
O=S(=O)(Cc1cccc(C(F)(F)F)c1)N1CCc2ccccc2[C@@H]1c1c[nH]c2ccccc12

>  <Energy>  (25) 
96.66385639821564

>  <Genealogy>  (25) 
O=S(=O)(Cc1cccc(C(F)(F)F)c1)N1CCc2ccccc2[C@@H]1c1c[nH]c2ccccc12 (3D coordinates assigned)
O=S(=O)(Cc1cccc(C(F)(F)F)c1)N1CCc2ccccc2[C@@H]1c1c[nH]c2ccccc12 (nonaromatic ring conformer: 96.66385639821564 kcal/mol)

>  <smiles>  (25) 
O=S(=O)(Cc1cccc(C(F)(F)F)c1)N1CCc2ccccc2[C@@H]1c1c[nH]c2ccccc12

>  <score_type>  (25) 
oracle

>  <origin>  (25) 
autodockgpu

>  <m_score__min__energy>  (25) 
-8.0600000000000005

>  <m_primary>  (25) 
energy

>  <meeko>  (25) 
{"free_energy": -6.7, "intermolecular_energy": -8.19, "internal_energy": -3.37, "cluster_size": 16, "cluster_id": 3, "rank_in_cluster": 3}

>  <energy>  (25) 
-6.72

>  <cluster_rmsd>  (25) 
0.0

>  <rmsd>  (25) 
270.92

>  <cluster>  (25) 
3

$$$$
GJSDZOHBAHKEKD-XMMPIXPANA-N
     RDKit          3D

 54 58  0  0  0  0  0  0  0  0999 V2000
  138.3970   77.5520  218.8360 O   0  0  0  0  0  0  0  0  0  0  0  0
  138.0880   77.0120  220.2040 S   0  0  0  0  0  0  0  0  0  0  0  0
  137.3540   75.7110  220.0310 O   0  0  0  0  0  0  0  0  0  0  0  0
  137.0180   78.1950  221.0350 C   0  0  0  0  0  0  0  0  0  0  0  0
  137.7980   79.2550  221.7710 C   0  0  0  0  0  0  0  0  0  0  0  0
  137.9790   79.1780  223.1630 C   0  0  0  0  0  0  0  0  0  0  0  0
  138.6710   80.1850  223.8410 C   0  0  0  0  0  0  0  0  0  0  0  0
  139.1860   81.2780  223.1390 C   0  0  0  0  0  0  0  0  0  0  0  0
  139.0020   81.3820  221.7470 C   0  0  0  0  0  0  0  0  0  0  0  0
  139.5900   82.5450  220.9850 C   0  0  0  0  0  0  0  0  0  0  0  0
  140.7200   83.0260  221.6270 F   0  0  0  0  0  0  0  0  0  0  0  0
  139.9380   82.1280  219.7090 F   0  0  0  0  0  0  0  0  0  0  0  0
  138.6720   83.5820  220.8880 F   0  0  0  0  0  0  0  0  0  0  0  0
  138.3370   80.3470  221.0660 C   0  0  0  0  0  0  0  0  0  0  0  0
  139.5940   76.7030  221.0450 N   0  0  0  0  0  0  0  0  0  0  0  0
  139.5450   75.5490  221.9670 C   0  0  0  0  0  0  0  0  0  0  0  0
  140.1340   74.2810  221.3610 C   0  0  0  0  0  0  0  0  0  0  0  0
  141.5180   74.5400  220.8560 C   0  0  0  0  0  0  0  0  0  0  0  0
  142.4650   73.5030  220.8530 C   0  0  0  0  0  0  0  0  0  0  0  0
  143.7350   73.7080  220.3080 C   0  0  0  0  0  0  0  0  0  0  0  0
  144.0610   74.9400  219.7390 C   0  0  0  0  0  0  0  0  0  0  0  0
  143.1180   75.9710  219.7220 C   0  0  0  0  0  0  0  0  0  0  0  0
  141.8450   75.7930  220.3040 C   0  0  0  0  0  0  0  0  0  0  0  0
  140.8050   76.9010  220.2060 C   0  0  2  0  0  0  0  0  0  0  0  0
  141.3930   78.2490  220.5400 C   0  0  0  0  0  0  0  0  0  0  0  0
  141.7130   79.2470  219.6190 C   0  0  0  0  0  0  0  0  0  0  0  0
  142.1510   80.3570  220.2560 N   0  0  0  0  0  0  0  0  0  0  0  0
  142.1050   80.0740  221.5710 C   0  0  0  0  0  0  0  0  0  0  0  0
  142.4430   80.9210  222.6280 C   0  0  0  0  0  0  0  0  0  0  0  0
  142.3040   80.4270  223.9400 C   0  0  0  0  0  0  0  0  0  0  0  0
  141.8430   79.1100  224.1640 C   0  0  0  0  0  0  0  0  0  0  0  0
  141.5130   78.2750  223.0780 C   0  0  0  0  0  0  0  0  0  0  0  0
  141.6490   78.7970  221.7870 C   0  0  0  0  0  0  0  0  0  0  0  0
  136.3800   78.6832  220.2837 H   0  0  0  0  0  0  0  0  0  0  0  0
  136.4187   77.6442  221.7749 H   0  0  0  0  0  0  0  0  0  0  0  0
  137.5740   78.3210  223.7211 H   0  0  0  0  0  0  0  0  0  0  0  0
  138.8107   80.1171  224.9300 H   0  0  0  0  0  0  0  0  0  0  0  0
  139.7386   82.0621  223.6773 H   0  0  0  0  0  0  0  0  0  0  0  0
  138.2372   80.3914  219.9714 H   0  0  0  0  0  0  0  0  0  0  0  0
  140.1127   75.8007  222.8749 H   0  0  0  0  0  0  0  0  0  0  0  0
  138.4865   75.3482  222.1889 H   0  0  0  0  0  0  0  0  0  0  0  0
  140.1695   73.4945  222.1292 H   0  0  0  0  0  0  0  0  0  0  0  0
  139.5013   73.9594  220.5206 H   0  0  0  0  0  0  0  0  0  0  0  0
  142.2054   72.5240  221.2821 H   0  0  0  0  0  0  0  0  0  0  0  0
  144.4786   72.8977  220.3274 H   0  0  0  0  0  0  0  0  0  0  0  0
  145.0589   75.0992  219.3045 H   0  0  0  0  0  0  0  0  0  0  0  0
  143.3708   76.9318  219.2498 H   0  0  0  0  0  0  0  0  0  0  0  0
  140.4856   76.8602  219.1542 H   0  0  0  0  0  0  0  0  0  0  0  0
  141.6218   79.1454  218.5275 H   0  0  0  0  0  0  0  0  0  0  0  0
  142.4530   81.2540  219.8120 H   0  0  0  0  0  0  0  0  0  0  0  0
  142.8066   81.9424  222.4422 H   0  0  0  0  0  0  0  0  0  0  0  0
  142.5560   81.0706  224.7957 H   0  0  0  0  0  0  0  0  0  0  0  0
  141.7411   78.7343  225.1928 H   0  0  0  0  0  0  0  0  0  0  0  0
  141.1598   77.2459  223.2400 H   0  0  0  0  0  0  0  0  0  0  0  0
  1  2  2  0
  2  3  2  0
  2  4  1  0
  4  5  1  0
  5  6  2  0
  6  7  1  0
  7  8  2  0
  8  9  1  0
  9 10  1  0
 10 11  1  0
 10 12  1  0
 10 13  1  0
  9 14  2  0
  2 15  1  0
 15 16  1  0
 16 17  1  0
 17 18  1  0
 18 19  2  0
 19 20  1  0
 20 21  2  0
 21 22  1  0
 22 23  2  0
 23 24  1  0
 24 25  1  0
 25 26  2  0
 26 27  1  0
 27 28  1  0
 28 29  2  0
 29 30  1  0
 30 31  2  0
 31 32  1  0
 32 33  2  0
 14  5  1  0
 24 15  1  0
 33 25  1  0
 23 18  1  0
 33 28  1  0
  4 34  1  0
  4 35  1  0
  6 36  1  0
  7 37  1  0
  8 38  1  0
 14 39  1  0
 16 40  1  0
 16 41  1  0
 17 42  1  0
 17 43  1  0
 19 44  1  0
 20 45  1  0
 21 46  1  0
 22 47  1  0
 24 48  1  6
 26 49  1  0
 27 50  1  0
 29 51  1  0
 30 52  1  0
 31 53  1  0
 32 54  1  0
M  END
>  <UniqueID>  (26) 
202

>  <SMILES>  (26) 
O=S(=O)(Cc1cccc(C(F)(F)F)c1)N1CCc2ccccc2[C@@H]1c1c[nH]c2ccccc12

>  <Energy>  (26) 
96.66385639821564

>  <Genealogy>  (26) 
O=S(=O)(Cc1cccc(C(F)(F)F)c1)N1CCc2ccccc2[C@@H]1c1c[nH]c2ccccc12 (3D coordinates assigned)
O=S(=O)(Cc1cccc(C(F)(F)F)c1)N1CCc2ccccc2[C@@H]1c1c[nH]c2ccccc12 (nonaromatic ring conformer: 96.66385639821564 kcal/mol)

>  <smiles>  (26) 
O=S(=O)(Cc1cccc(C(F)(F)F)c1)N1CCc2ccccc2[C@@H]1c1c[nH]c2ccccc12

>  <score_type>  (26) 
oracle

>  <origin>  (26) 
autodockgpu

>  <m_score__min__energy>  (26) 
-8.0600000000000005

>  <m_primary>  (26) 
energy

>  <meeko>  (26) 
{"free_energy": -6.68, "intermolecular_energy": -8.18, "internal_energy": -3.37, "cluster_size": 16, "cluster_id": 3, "rank_in_cluster": 8}

>  <energy>  (26) 
-6.7

>  <cluster_rmsd>  (26) 
0.02

>  <rmsd>  (26) 
270.92

>  <cluster>  (26) 
3

$$$$
GJSDZOHBAHKEKD-XMMPIXPANA-N
     RDKit          3D

 54 58  0  0  0  0  0  0  0  0999 V2000
  138.0770   76.1090  219.0240 O   0  0  0  0  0  0  0  0  0  0  0  0
  138.0990   76.8700  220.3190 S   0  0  0  0  0  0  0  0  0  0  0  0
  136.9900   76.3400  221.1840 O   0  0  0  0  0  0  0  0  0  0  0  0
  137.7900   78.6030  219.9470 C   0  0  0  0  0  0  0  0  0  0  0  0
  138.2590   79.5180  221.0500 C   0  0  0  0  0  0  0  0  0  0  0  0
  138.1560   79.1310  222.3970 C   0  0  0  0  0  0  0  0  0  0  0  0
  138.5580   80.0010  223.4140 C   0  0  0  0  0  0  0  0  0  0  0  0
  139.0630   81.2650  223.0970 C   0  0  0  0  0  0  0  0  0  0  0  0
  139.1590   81.6790  221.7550 C   0  0  0  0  0  0  0  0  0  0  0  0
  139.7380   83.0300  221.4120 C   0  0  0  0  0  0  0  0  0  0  0  0
  139.7950   83.1990  220.0380 F   0  0  0  0  0  0  0  0  0  0  0  0
  138.9390   84.0230  221.9570 F   0  0  0  0  0  0  0  0  0  0  0  0
  141.0240   83.1550  221.9180 F   0  0  0  0  0  0  0  0  0  0  0  0
  138.7870   80.7830  220.7360 C   0  0  0  0  0  0  0  0  0  0  0  0
  139.6300   76.5780  221.1220 N   0  0  0  0  0  0  0  0  0  0  0  0
  139.6180   75.4220  222.0420 C   0  0  0  0  0  0  0  0  0  0  0  0
  140.2070   74.1620  221.4190 C   0  0  0  0  0  0  0  0  0  0  0  0
  141.5740   74.4390  220.8790 C   0  0  0  0  0  0  0  0  0  0  0  0
  142.5340   73.4140  220.8500 C   0  0  0  0  0  0  0  0  0  0  0  0
  143.7880   73.6360  220.2740 C   0  0  0  0  0  0  0  0  0  0  0  0
  144.0830   74.8730  219.7000 C   0  0  0  0  0  0  0  0  0  0  0  0
  143.1280   75.8920  219.7090 C   0  0  0  0  0  0  0  0  0  0  0  0
  141.8720   75.6980  220.3220 C   0  0  0  0  0  0  0  0  0  0  0  0
  140.8160   76.7930  220.2530 C   0  0  2  0  0  0  0  0  0  0  0  0
  141.3960   78.1470  220.5750 C   0  0  0  0  0  0  0  0  0  0  0  0
  141.7140   79.1370  219.6450 C   0  0  0  0  0  0  0  0  0  0  0  0
  142.1440   80.2560  220.2720 N   0  0  0  0  0  0  0  0  0  0  0  0
  142.0950   79.9870  221.5900 C   0  0  0  0  0  0  0  0  0  0  0  0
  142.4240   80.8460  222.6390 C   0  0  0  0  0  0  0  0  0  0  0  0
  142.2830   80.3650  223.9560 C   0  0  0  0  0  0  0  0  0  0  0  0
  141.8280   79.0480  224.1920 C   0  0  0  0  0  0  0  0  0  0  0  0
  141.5060   78.2000  223.1140 C   0  0  0  0  0  0  0  0  0  0  0  0
  141.6440   78.7090  221.8180 C   0  0  0  0  0  0  0  0  0  0  0  0
  138.3206   78.8658  219.0199 H   0  0  0  0  0  0  0  0  0  0  0  0
  136.7033   78.7353  219.8395 H   0  0  0  0  0  0  0  0  0  0  0  0
  137.7569   78.1382  222.6521 H   0  0  0  0  0  0  0  0  0  0  0  0
  138.4768   79.6904  224.4661 H   0  0  0  0  0  0  0  0  0  0  0  0
  139.3877   81.9410  223.9017 H   0  0  0  0  0  0  0  0  0  0  0  0
  138.9105   81.0750  219.6827 H   0  0  0  0  0  0  0  0  0  0  0  0
  140.2051   75.6789  222.9361 H   0  0  0  0  0  0  0  0  0  0  0  0
  138.5678   75.2080  222.2894 H   0  0  0  0  0  0  0  0  0  0  0  0
  140.2722   73.3751  222.1849 H   0  0  0  0  0  0  0  0  0  0  0  0
  139.5569   73.8334  220.5947 H   0  0  0  0  0  0  0  0  0  0  0  0
  142.2975   72.4309  221.2831 H   0  0  0  0  0  0  0  0  0  0  0  0
  144.5424   72.8354  220.2732 H   0  0  0  0  0  0  0  0  0  0  0  0
  145.0674   75.0456  219.2405 H   0  0  0  0  0  0  0  0  0  0  0  0
  143.3576   76.8567  219.2329 H   0  0  0  0  0  0  0  0  0  0  0  0
  140.4698   76.7506  219.2098 H   0  0  0  0  0  0  0  0  0  0  0  0
  141.6273   79.0236  218.5543 H   0  0  0  0  0  0  0  0  0  0  0  0
  142.4430   81.1500  219.8200 H   0  0  0  0  0  0  0  0  0  0  0  0
  142.7825   81.8675  222.4440 H   0  0  0  0  0  0  0  0  0  0  0  0
  142.5287   81.0188  224.8058 H   0  0  0  0  0  0  0  0  0  0  0  0
  141.7246   78.6825  225.2243 H   0  0  0  0  0  0  0  0  0  0  0  0
  141.1573   77.1709  223.2857 H   0  0  0  0  0  0  0  0  0  0  0  0
  1  2  2  0
  2  3  2  0
  2  4  1  0
  4  5  1  0
  5  6  2  0
  6  7  1  0
  7  8  2  0
  8  9  1  0
  9 10  1  0
 10 11  1  0
 10 12  1  0
 10 13  1  0
  9 14  2  0
  2 15  1  0
 15 16  1  0
 16 17  1  0
 17 18  1  0
 18 19  2  0
 19 20  1  0
 20 21  2  0
 21 22  1  0
 22 23  2  0
 23 24  1  0
 24 25  1  0
 25 26  2  0
 26 27  1  0
 27 28  1  0
 28 29  2  0
 29 30  1  0
 30 31  2  0
 31 32  1  0
 32 33  2  0
 14  5  1  0
 24 15  1  0
 33 25  1  0
 23 18  1  0
 33 28  1  0
  4 34  1  0
  4 35  1  0
  6 36  1  0
  7 37  1  0
  8 38  1  0
 14 39  1  0
 16 40  1  0
 16 41  1  0
 17 42  1  0
 17 43  1  0
 19 44  1  0
 20 45  1  0
 21 46  1  0
 22 47  1  0
 24 48  1  6
 26 49  1  0
 27 50  1  0
 29 51  1  0
 30 52  1  0
 31 53  1  0
 32 54  1  0
M  END
>  <UniqueID>  (27) 
202

>  <SMILES>  (27) 
O=S(=O)(Cc1cccc(C(F)(F)F)c1)N1CCc2ccccc2[C@@H]1c1c[nH]c2ccccc12

>  <Energy>  (27) 
96.66385639821564

>  <Genealogy>  (27) 
O=S(=O)(Cc1cccc(C(F)(F)F)c1)N1CCc2ccccc2[C@@H]1c1c[nH]c2ccccc12 (3D coordinates assigned)
O=S(=O)(Cc1cccc(C(F)(F)F)c1)N1CCc2ccccc2[C@@H]1c1c[nH]c2ccccc12 (nonaromatic ring conformer: 96.66385639821564 kcal/mol)

>  <smiles>  (27) 
O=S(=O)(Cc1cccc(C(F)(F)F)c1)N1CCc2ccccc2[C@@H]1c1c[nH]c2ccccc12

>  <score_type>  (27) 
oracle

>  <origin>  (27) 
autodockgpu

>  <m_score__min__energy>  (27) 
-8.0600000000000005

>  <m_primary>  (27) 
energy

>  <meeko>  (27) 
{"free_energy": -6.61, "intermolecular_energy": -8.1, "internal_energy": -3.32, "cluster_size": 16, "cluster_id": 3, "rank_in_cluster": 16}

>  <energy>  (27) 
-6.7

>  <cluster_rmsd>  (27) 
0.05

>  <rmsd>  (27) 
270.91

>  <cluster>  (27) 
3

$$$$
GJSDZOHBAHKEKD-XMMPIXPANA-N
     RDKit          3D

 54 58  0  0  0  0  0  0  0  0999 V2000
  138.3990   77.5440  218.9500 O   0  0  0  0  0  0  0  0  0  0  0  0
  138.1150   76.9640  220.3070 S   0  0  0  0  0  0  0  0  0  0  0  0
  137.3920   75.6610  220.1080 O   0  0  0  0  0  0  0  0  0  0  0  0
  137.0440   78.1130  221.1840 C   0  0  0  0  0  0  0  0  0  0  0  0
  137.8210   79.1970  221.8880 C   0  0  0  0  0  0  0  0  0  0  0  0
  138.0000   79.1620  223.2820 C   0  0  0  0  0  0  0  0  0  0  0  0
  138.6890   80.1900  223.9310 C   0  0  0  0  0  0  0  0  0  0  0  0
  139.2030   81.2630  223.1970 C   0  0  0  0  0  0  0  0  0  0  0  0
  139.0210   81.3250  221.8030 C   0  0  0  0  0  0  0  0  0  0  0  0
  139.6070   82.4650  221.0060 C   0  0  0  0  0  0  0  0  0  0  0  0
  139.9550   82.0410  219.7340 F   0  0  0  0  0  0  0  0  0  0  0  0
  138.6700   83.4820  220.9030 F   0  0  0  0  0  0  0  0  0  0  0  0
  140.7460   82.9610  221.6240 F   0  0  0  0  0  0  0  0  0  0  0  0
  138.3580   80.2680  221.1520 C   0  0  0  0  0  0  0  0  0  0  0  0
  139.6360   76.6490  221.1190 N   0  0  0  0  0  0  0  0  0  0  0  0
  139.6010   75.4920  222.0360 C   0  0  0  0  0  0  0  0  0  0  0  0
  140.1760   74.2250  221.4150 C   0  0  0  0  0  0  0  0  0  0  0  0
  141.5510   74.4840  220.8840 C   0  0  0  0  0  0  0  0  0  0  0  0
  142.4960   73.4450  220.8600 C   0  0  0  0  0  0  0  0  0  0  0  0
  143.7570   73.6500  220.2920 C   0  0  0  0  0  0  0  0  0  0  0  0
  144.0740   74.8830  219.7230 C   0  0  0  0  0  0  0  0  0  0  0  0
  143.1330   75.9170  219.7280 C   0  0  0  0  0  0  0  0  0  0  0  0
  141.8710   75.7390  220.3320 C   0  0  0  0  0  0  0  0  0  0  0  0
  140.8310   76.8490  220.2590 C   0  0  2  0  0  0  0  0  0  0  0  0
  141.4280   78.1940  220.5870 C   0  0  0  0  0  0  0  0  0  0  0  0
  141.7570   79.1850  219.6620 C   0  0  0  0  0  0  0  0  0  0  0  0
  142.2010   80.2950  220.2950 N   0  0  0  0  0  0  0  0  0  0  0  0
  142.1500   80.0190  221.6110 C   0  0  0  0  0  0  0  0  0  0  0  0
  142.4920   80.8680  222.6650 C   0  0  0  0  0  0  0  0  0  0  0  0
  142.3470   80.3820  223.9790 C   0  0  0  0  0  0  0  0  0  0  0  0
  141.8760   79.0690  224.2080 C   0  0  0  0  0  0  0  0  0  0  0  0
  141.5420   78.2320  223.1260 C   0  0  0  0  0  0  0  0  0  0  0  0
  141.6850   78.7460  221.8320 C   0  0  0  0  0  0  0  0  0  0  0  0
  136.3599   78.5810  220.4608 H   0  0  0  0  0  0  0  0  0  0  0  0
  136.4937   77.5437  221.9476 H   0  0  0  0  0  0  0  0  0  0  0  0
  137.5957   78.3212  223.8647 H   0  0  0  0  0  0  0  0  0  0  0  0
  138.8272   80.1548  225.0217 H   0  0  0  0  0  0  0  0  0  0  0  0
  139.7533   82.0640  223.7124 H   0  0  0  0  0  0  0  0  0  0  0  0
  138.2589   80.2798  220.0565 H   0  0  0  0  0  0  0  0  0  0  0  0
  140.1854   75.7387  222.9347 H   0  0  0  0  0  0  0  0  0  0  0  0
  138.5460   75.2926  222.2754 H   0  0  0  0  0  0  0  0  0  0  0  0
  140.2252   73.4361  222.1800 H   0  0  0  0  0  0  0  0  0  0  0  0
  139.5267   73.9066  220.5861 H   0  0  0  0  0  0  0  0  0  0  0  0
  142.2426   72.4649  221.2904 H   0  0  0  0  0  0  0  0  0  0  0  0
  144.4994   72.8383  220.2940 H   0  0  0  0  0  0  0  0  0  0  0  0
  145.0639   75.0420  219.2705 H   0  0  0  0  0  0  0  0  0  0  0  0
  143.3795   76.8795  219.2559 H   0  0  0  0  0  0  0  0  0  0  0  0
  140.4909   76.8136  219.2135 H   0  0  0  0  0  0  0  0  0  0  0  0
  141.6679   79.0787  218.5708 H   0  0  0  0  0  0  0  0  0  0  0  0
  142.5100   81.1880  219.8470 H   0  0  0  0  0  0  0  0  0  0  0  0
  142.8635   81.8858  222.4751 H   0  0  0  0  0  0  0  0  0  0  0  0
  142.6018   81.0280  224.8321 H   0  0  0  0  0  0  0  0  0  0  0  0
  141.7697   78.6986  225.2383 H   0  0  0  0  0  0  0  0  0  0  0  0
  141.1802   77.2066  223.2925 H   0  0  0  0  0  0  0  0  0  0  0  0
  1  2  2  0
  2  3  2  0
  2  4  1  0
  4  5  1  0
  5  6  2  0
  6  7  1  0
  7  8  2  0
  8  9  1  0
  9 10  1  0
 10 11  1  0
 10 12  1  0
 10 13  1  0
  9 14  2  0
  2 15  1  0
 15 16  1  0
 16 17  1  0
 17 18  1  0
 18 19  2  0
 19 20  1  0
 20 21  2  0
 21 22  1  0
 22 23  2  0
 23 24  1  0
 24 25  1  0
 25 26  2  0
 26 27  1  0
 27 28  1  0
 28 29  2  0
 29 30  1  0
 30 31  2  0
 31 32  1  0
 32 33  2  0
 14  5  1  0
 24 15  1  0
 33 25  1  0
 23 18  1  0
 33 28  1  0
  4 34  1  0
  4 35  1  0
  6 36  1  0
  7 37  1  0
  8 38  1  0
 14 39  1  0
 16 40  1  0
 16 41  1  0
 17 42  1  0
 17 43  1  0
 19 44  1  0
 20 45  1  0
 21 46  1  0
 22 47  1  0
 24 48  1  6
 26 49  1  0
 27 50  1  0
 29 51  1  0
 30 52  1  0
 31 53  1  0
 32 54  1  0
M  END
>  <UniqueID>  (28) 
202

>  <SMILES>  (28) 
O=S(=O)(Cc1cccc(C(F)(F)F)c1)N1CCc2ccccc2[C@@H]1c1c[nH]c2ccccc12

>  <Energy>  (28) 
96.66385639821564

>  <Genealogy>  (28) 
O=S(=O)(Cc1cccc(C(F)(F)F)c1)N1CCc2ccccc2[C@@H]1c1c[nH]c2ccccc12 (3D coordinates assigned)
O=S(=O)(Cc1cccc(C(F)(F)F)c1)N1CCc2ccccc2[C@@H]1c1c[nH]c2ccccc12 (nonaromatic ring conformer: 96.66385639821564 kcal/mol)

>  <smiles>  (28) 
O=S(=O)(Cc1cccc(C(F)(F)F)c1)N1CCc2ccccc2[C@@H]1c1c[nH]c2ccccc12

>  <score_type>  (28) 
oracle

>  <origin>  (28) 
autodockgpu

>  <m_score__min__energy>  (28) 
-8.0600000000000005

>  <m_primary>  (28) 
energy

>  <meeko>  (28) 
{"free_energy": -6.69, "intermolecular_energy": -8.18, "internal_energy": -3.38, "cluster_size": 16, "cluster_id": 3, "rank_in_cluster": 6}

>  <energy>  (28) 
-6.69

>  <cluster_rmsd>  (28) 
0.04

>  <rmsd>  (28) 
270.93

>  <cluster>  (28) 
3

$$$$
GJSDZOHBAHKEKD-XMMPIXPANA-N
     RDKit          3D

 54 58  0  0  0  0  0  0  0  0999 V2000
  138.4180   77.5460  218.8240 O   0  0  0  0  0  0  0  0  0  0  0  0
  138.0970   77.0280  220.1970 S   0  0  0  0  0  0  0  0  0  0  0  0
  137.3450   75.7360  220.0380 O   0  0  0  0  0  0  0  0  0  0  0  0
  137.0410   78.2370  221.0100 C   0  0  0  0  0  0  0  0  0  0  0  0
  137.8340   79.2770  221.7590 C   0  0  0  0  0  0  0  0  0  0  0  0
  138.0230   79.1730  223.1490 C   0  0  0  0  0  0  0  0  0  0  0  0
  138.7270   80.1620  223.8410 C   0  0  0  0  0  0  0  0  0  0  0  0
  139.2450   81.2640  223.1560 C   0  0  0  0  0  0  0  0  0  0  0  0
  139.0540   81.3960  221.7680 C   0  0  0  0  0  0  0  0  0  0  0  0
  139.6450   82.5680  221.0230 C   0  0  0  0  0  0  0  0  0  0  0  0
  139.9910   82.1990  219.7330 F   0  0  0  0  0  0  0  0  0  0  0  0
  138.7120   83.5930  220.9650 F   0  0  0  0  0  0  0  0  0  0  0  0
  140.7860   83.0300  221.6630 F   0  0  0  0  0  0  0  0  0  0  0  0
  138.3760   80.3780  221.0720 C   0  0  0  0  0  0  0  0  0  0  0  0
  139.5960   76.7080  221.0480 N   0  0  0  0  0  0  0  0  0  0  0  0
  139.5330   75.5530  221.9670 C   0  0  0  0  0  0  0  0  0  0  0  0
  140.1170   74.2820  221.3630 C   0  0  0  0  0  0  0  0  0  0  0  0
  141.5060   74.5330  220.8670 C   0  0  0  0  0  0  0  0  0  0  0  0
  142.4470   73.4890  220.8690 C   0  0  0  0  0  0  0  0  0  0  0  0
  143.7220   73.6870  220.3320 C   0  0  0  0  0  0  0  0  0  0  0  0
  144.0590   74.9170  219.7670 C   0  0  0  0  0  0  0  0  0  0  0  0
  143.1230   75.9550  219.7450 C   0  0  0  0  0  0  0  0  0  0  0  0
  141.8450   75.7850  220.3190 C   0  0  0  0  0  0  0  0  0  0  0  0
  140.8130   76.8990  220.2170 C   0  0  2  0  0  0  0  0  0  0  0  0
  141.4080   78.2430  220.5560 C   0  0  0  0  0  0  0  0  0  0  0  0
  141.7280   79.2450  219.6400 C   0  0  0  0  0  0  0  0  0  0  0  0
  142.1730   80.3490  220.2820 N   0  0  0  0  0  0  0  0  0  0  0  0
  142.1310   80.0590  221.5960 C   0  0  0  0  0  0  0  0  0  0  0  0
  142.4770   80.8980  222.6560 C   0  0  0  0  0  0  0  0  0  0  0  0
  142.3410   80.3960  223.9660 C   0  0  0  0  0  0  0  0  0  0  0  0
  141.8760   79.0800  224.1840 C   0  0  0  0  0  0  0  0  0  0  0  0
  141.5370   78.2530  223.0940 C   0  0  0  0  0  0  0  0  0  0  0  0
  141.6700   78.7820  221.8060 C   0  0  0  0  0  0  0  0  0  0  0  0
  136.4280   78.7405  220.2480 H   0  0  0  0  0  0  0  0  0  0  0  0
  136.4153   77.7012  221.7390 H   0  0  0  0  0  0  0  0  0  0  0  0
  137.6147   78.3090  223.6938 H   0  0  0  0  0  0  0  0  0  0  0  0
  138.8737   80.0727  224.9275 H   0  0  0  0  0  0  0  0  0  0  0  0
  139.8062   82.0341  223.7056 H   0  0  0  0  0  0  0  0  0  0  0  0
  138.2689   80.4441  219.9792 H   0  0  0  0  0  0  0  0  0  0  0  0
  140.0964   75.7991  222.8791 H   0  0  0  0  0  0  0  0  0  0  0  0
  138.4716   75.3592  222.1811 H   0  0  0  0  0  0  0  0  0  0  0  0
  140.1426   73.4942  222.1303 H   0  0  0  0  0  0  0  0  0  0  0  0
  139.4874   73.9654  220.5184 H   0  0  0  0  0  0  0  0  0  0  0  0
  142.1786   72.5112  221.2954 H   0  0  0  0  0  0  0  0  0  0  0  0
  144.4605   72.8721  220.3549 H   0  0  0  0  0  0  0  0  0  0  0  0
  145.0607   75.0701  219.3390 H   0  0  0  0  0  0  0  0  0  0  0  0
  143.3853   76.9145  219.2753 H   0  0  0  0  0  0  0  0  0  0  0  0
  140.4991   76.8612  219.1634 H   0  0  0  0  0  0  0  0  0  0  0  0
  141.6319   79.1505  218.5483 H   0  0  0  0  0  0  0  0  0  0  0  0
  142.4760   81.2480  219.8420 H   0  0  0  0  0  0  0  0  0  0  0  0
  142.8443   81.9189  222.4749 H   0  0  0  0  0  0  0  0  0  0  0  0
  142.5987   81.0334  224.8246 H   0  0  0  0  0  0  0  0  0  0  0  0
  141.7778   78.6982  225.2109 H   0  0  0  0  0  0  0  0  0  0  0  0
  141.1794   77.2247  223.2512 H   0  0  0  0  0  0  0  0  0  0  0  0
  1  2  2  0
  2  3  2  0
  2  4  1  0
  4  5  1  0
  5  6  2  0
  6  7  1  0
  7  8  2  0
  8  9  1  0
  9 10  1  0
 10 11  1  0
 10 12  1  0
 10 13  1  0
  9 14  2  0
  2 15  1  0
 15 16  1  0
 16 17  1  0
 17 18  1  0
 18 19  2  0
 19 20  1  0
 20 21  2  0
 21 22  1  0
 22 23  2  0
 23 24  1  0
 24 25  1  0
 25 26  2  0
 26 27  1  0
 27 28  1  0
 28 29  2  0
 29 30  1  0
 30 31  2  0
 31 32  1  0
 32 33  2  0
 14  5  1  0
 24 15  1  0
 33 25  1  0
 23 18  1  0
 33 28  1  0
  4 34  1  0
  4 35  1  0
  6 36  1  0
  7 37  1  0
  8 38  1  0
 14 39  1  0
 16 40  1  0
 16 41  1  0
 17 42  1  0
 17 43  1  0
 19 44  1  0
 20 45  1  0
 21 46  1  0
 22 47  1  0
 24 48  1  6
 26 49  1  0
 27 50  1  0
 29 51  1  0
 30 52  1  0
 31 53  1  0
 32 54  1  0
M  END
>  <UniqueID>  (29) 
202

>  <SMILES>  (29) 
O=S(=O)(Cc1cccc(C(F)(F)F)c1)N1CCc2ccccc2[C@@H]1c1c[nH]c2ccccc12

>  <Energy>  (29) 
96.66385639821564

>  <Genealogy>  (29) 
O=S(=O)(Cc1cccc(C(F)(F)F)c1)N1CCc2ccccc2[C@@H]1c1c[nH]c2ccccc12 (3D coordinates assigned)
O=S(=O)(Cc1cccc(C(F)(F)F)c1)N1CCc2ccccc2[C@@H]1c1c[nH]c2ccccc12 (nonaromatic ring conformer: 96.66385639821564 kcal/mol)

>  <smiles>  (29) 
O=S(=O)(Cc1cccc(C(F)(F)F)c1)N1CCc2ccccc2[C@@H]1c1c[nH]c2ccccc12

>  <score_type>  (29) 
oracle

>  <origin>  (29) 
autodockgpu

>  <m_score__min__energy>  (29) 
-8.0600000000000005

>  <m_primary>  (29) 
energy

>  <meeko>  (29) 
{"free_energy": -6.69, "intermolecular_energy": -8.19, "internal_energy": -3.37, "cluster_size": 16, "cluster_id": 3, "rank_in_cluster": 4}

>  <energy>  (29) 
-6.69

>  <cluster_rmsd>  (29) 
0.1

>  <rmsd>  (29) 
270.95

>  <cluster>  (29) 
3

$$$$
GJSDZOHBAHKEKD-XMMPIXPANA-N
     RDKit          3D

 54 58  0  0  0  0  0  0  0  0999 V2000
  138.3760   77.5550  218.9870 O   0  0  0  0  0  0  0  0  0  0  0  0
  138.1070   76.9360  220.3300 S   0  0  0  0  0  0  0  0  0  0  0  0
  137.4060   75.6260  220.1020 O   0  0  0  0  0  0  0  0  0  0  0  0
  137.0200   78.0440  221.2400 C   0  0  0  0  0  0  0  0  0  0  0  0
  137.7770   79.1530  221.9270 C   0  0  0  0  0  0  0  0  0  0  0  0
  137.9350   79.1560  223.3240 C   0  0  0  0  0  0  0  0  0  0  0  0
  138.6050   80.2070  223.9550 C   0  0  0  0  0  0  0  0  0  0  0  0
  139.1210   81.2650  223.2010 C   0  0  0  0  0  0  0  0  0  0  0  0
  138.9610   81.2880  221.8030 C   0  0  0  0  0  0  0  0  0  0  0  0
  139.5500   82.4120  220.9860 C   0  0  0  0  0  0  0  0  0  0  0  0
  140.6930   82.9070  221.5930 F   0  0  0  0  0  0  0  0  0  0  0  0
  139.8770   81.9390  219.7240 F   0  0  0  0  0  0  0  0  0  0  0  0
  138.6410   83.4540  220.8570 F   0  0  0  0  0  0  0  0  0  0  0  0
  138.3170   80.2090  221.1700 C   0  0  0  0  0  0  0  0  0  0  0  0
  139.6360   76.6270  221.1280 N   0  0  0  0  0  0  0  0  0  0  0  0
  139.6160   75.4670  222.0430 C   0  0  0  0  0  0  0  0  0  0  0  0
  140.1920   74.2050  221.4130 C   0  0  0  0  0  0  0  0  0  0  0  0
  141.5610   74.4720  220.8720 C   0  0  0  0  0  0  0  0  0  0  0  0
  142.5110   73.4380  220.8370 C   0  0  0  0  0  0  0  0  0  0  0  0
  143.7660   73.6510  220.2590 C   0  0  0  0  0  0  0  0  0  0  0  0
  144.0710   74.8880  219.6900 C   0  0  0  0  0  0  0  0  0  0  0  0
  143.1250   75.9160  219.7060 C   0  0  0  0  0  0  0  0  0  0  0  0
  141.8690   75.7300  220.3210 C   0  0  0  0  0  0  0  0  0  0  0  0
  140.8230   76.8350  220.2590 C   0  0  2  0  0  0  0  0  0  0  0  0
  141.4160   78.1830  220.5850 C   0  0  0  0  0  0  0  0  0  0  0  0
  141.7470   79.1720  219.6590 C   0  0  0  0  0  0  0  0  0  0  0  0
  142.1860   80.2840  220.2900 N   0  0  0  0  0  0  0  0  0  0  0  0
  142.1290   80.0120  221.6070 C   0  0  0  0  0  0  0  0  0  0  0  0
  142.4640   80.8660  222.6590 C   0  0  0  0  0  0  0  0  0  0  0  0
  142.3140   80.3830  223.9740 C   0  0  0  0  0  0  0  0  0  0  0  0
  141.8450   79.0700  224.2060 C   0  0  0  0  0  0  0  0  0  0  0  0
  141.5180   78.2290  223.1240 C   0  0  0  0  0  0  0  0  0  0  0  0
  141.6650   78.7390  221.8300 C   0  0  0  0  0  0  0  0  0  0  0  0
  136.3005   78.4895  220.5373 H   0  0  0  0  0  0  0  0  0  0  0  0
  136.5111   77.4534  222.0160 H   0  0  0  0  0  0  0  0  0  0  0  0
  137.5293   78.3272  223.9228 H   0  0  0  0  0  0  0  0  0  0  0  0
  138.7268   80.2020  225.0482 H   0  0  0  0  0  0  0  0  0  0  0  0
  139.6554   82.0847  223.7035 H   0  0  0  0  0  0  0  0  0  0  0  0
  138.2349   80.1908  220.0732 H   0  0  0  0  0  0  0  0  0  0  0  0
  140.2076   75.7146  222.9367 H   0  0  0  0  0  0  0  0  0  0  0  0
  138.5646   75.2612  222.2922 H   0  0  0  0  0  0  0  0  0  0  0  0
  140.2510   73.4137  222.1748 H   0  0  0  0  0  0  0  0  0  0  0  0
  139.5376   73.8865  220.5882 H   0  0  0  0  0  0  0  0  0  0  0  0
  142.2662   72.4554  221.2667 H   0  0  0  0  0  0  0  0  0  0  0  0
  144.5129   72.8435  220.2528 H   0  0  0  0  0  0  0  0  0  0  0  0
  145.0559   75.0537  219.2290 H   0  0  0  0  0  0  0  0  0  0  0  0
  143.3621   76.8809  219.2339 H   0  0  0  0  0  0  0  0  0  0  0  0
  140.4747   76.8002  219.2162 H   0  0  0  0  0  0  0  0  0  0  0  0
  141.6626   79.0625  218.5677 H   0  0  0  0  0  0  0  0  0  0  0  0
  142.4950   81.1770  219.8410 H   0  0  0  0  0  0  0  0  0  0  0  0
  142.8336   81.8842  222.4674 H   0  0  0  0  0  0  0  0  0  0  0  0
  142.5636   81.0323  224.8261 H   0  0  0  0  0  0  0  0  0  0  0  0
  141.7347   78.7028  225.2370 H   0  0  0  0  0  0  0  0  0  0  0  0
  141.1583   77.2031  223.2917 H   0  0  0  0  0  0  0  0  0  0  0  0
  1  2  2  0
  2  3  2  0
  2  4  1  0
  4  5  1  0
  5  6  2  0
  6  7  1  0
  7  8  2  0
  8  9  1  0
  9 10  1  0
 10 11  1  0
 10 12  1  0
 10 13  1  0
  9 14  2  0
  2 15  1  0
 15 16  1  0
 16 17  1  0
 17 18  1  0
 18 19  2  0
 19 20  1  0
 20 21  2  0
 21 22  1  0
 22 23  2  0
 23 24  1  0
 24 25  1  0
 25 26  2  0
 26 27  1  0
 27 28  1  0
 28 29  2  0
 29 30  1  0
 30 31  2  0
 31 32  1  0
 32 33  2  0
 14  5  1  0
 24 15  1  0
 33 25  1  0
 23 18  1  0
 33 28  1  0
  4 34  1  0
  4 35  1  0
  6 36  1  0
  7 37  1  0
  8 38  1  0
 14 39  1  0
 16 40  1  0
 16 41  1  0
 17 42  1  0
 17 43  1  0
 19 44  1  0
 20 45  1  0
 21 46  1  0
 22 47  1  0
 24 48  1  6
 26 49  1  0
 27 50  1  0
 29 51  1  0
 30 52  1  0
 31 53  1  0
 32 54  1  0
M  END
>  <UniqueID>  (30) 
202

>  <SMILES>  (30) 
O=S(=O)(Cc1cccc(C(F)(F)F)c1)N1CCc2ccccc2[C@@H]1c1c[nH]c2ccccc12

>  <Energy>  (30) 
96.66385639821564

>  <Genealogy>  (30) 
O=S(=O)(Cc1cccc(C(F)(F)F)c1)N1CCc2ccccc2[C@@H]1c1c[nH]c2ccccc12 (3D coordinates assigned)
O=S(=O)(Cc1cccc(C(F)(F)F)c1)N1CCc2ccccc2[C@@H]1c1c[nH]c2ccccc12 (nonaromatic ring conformer: 96.66385639821564 kcal/mol)

>  <smiles>  (30) 
O=S(=O)(Cc1cccc(C(F)(F)F)c1)N1CCc2ccccc2[C@@H]1c1c[nH]c2ccccc12

>  <score_type>  (30) 
oracle

>  <origin>  (30) 
autodockgpu

>  <m_score__min__energy>  (30) 
-8.0600000000000005

>  <m_primary>  (30) 
energy

>  <meeko>  (30) 
{"free_energy": -6.67, "intermolecular_energy": -8.16, "internal_energy": -3.39, "cluster_size": 16, "cluster_id": 3, "rank_in_cluster": 13}

>  <energy>  (30) 
-6.69

>  <cluster_rmsd>  (30) 
0.08

>  <rmsd>  (30) 
270.94

>  <cluster>  (30) 
3

$$$$
GJSDZOHBAHKEKD-XMMPIXPANA-N
     RDKit          3D

 54 58  0  0  0  0  0  0  0  0999 V2000
  138.4190   77.6030  218.8200 O   0  0  0  0  0  0  0  0  0  0  0  0
  138.0940   77.0350  220.1720 S   0  0  0  0  0  0  0  0  0  0  0  0
  137.3710   75.7330  219.9640 O   0  0  0  0  0  0  0  0  0  0  0  0
  137.0050   78.1950  221.0110 C   0  0  0  0  0  0  0  0  0  0  0  0
  137.7680   79.2540  221.7660 C   0  0  0  0  0  0  0  0  0  0  0  0
  137.9260   79.1680  223.1600 C   0  0  0  0  0  0  0  0  0  0  0  0
  138.6030   80.1730  223.8570 C   0  0  0  0  0  0  0  0  0  0  0  0
  139.1230   81.2740  223.1710 C   0  0  0  0  0  0  0  0  0  0  0  0
  138.9620   81.3870  221.7770 C   0  0  0  0  0  0  0  0  0  0  0  0
  139.5550   82.5580  221.0320 C   0  0  0  0  0  0  0  0  0  0  0  0
  140.6910   83.0200  221.6790 F   0  0  0  0  0  0  0  0  0  0  0  0
  139.8970   82.1600  219.7480 F   0  0  0  0  0  0  0  0  0  0  0  0
  138.6450   83.6030  220.9550 F   0  0  0  0  0  0  0  0  0  0  0  0
  138.3120   80.3540  221.0780 C   0  0  0  0  0  0  0  0  0  0  0  0
  139.5900   76.7190  221.0290 N   0  0  0  0  0  0  0  0  0  0  0  0
  139.5300   75.5580  221.9420 C   0  0  0  0  0  0  0  0  0  0  0  0
  140.1240   74.2940  221.3330 C   0  0  0  0  0  0  0  0  0  0  0  0
  141.5150   74.5560  220.8460 C   0  0  0  0  0  0  0  0  0  0  0  0
  142.4620   73.5190  220.8470 C   0  0  0  0  0  0  0  0  0  0  0  0
  143.7390   73.7270  220.3190 C   0  0  0  0  0  0  0  0  0  0  0  0
  144.0710   74.9630  219.7630 C   0  0  0  0  0  0  0  0  0  0  0  0
  143.1290   75.9950  219.7430 C   0  0  0  0  0  0  0  0  0  0  0  0
  141.8490   75.8140  220.3080 C   0  0  0  0  0  0  0  0  0  0  0  0
  140.8100   76.9230  220.2070 C   0  0  2  0  0  0  0  0  0  0  0  0
  141.3960   78.2670  220.5570 C   0  0  0  0  0  0  0  0  0  0  0  0
  141.7210   79.2750  219.6490 C   0  0  0  0  0  0  0  0  0  0  0  0
  142.1540   80.3790  220.2990 N   0  0  0  0  0  0  0  0  0  0  0  0
  142.0990   80.0830  221.6120 C   0  0  0  0  0  0  0  0  0  0  0  0
  142.4280   80.9190  222.6790 C   0  0  0  0  0  0  0  0  0  0  0  0
  142.2800   80.4130  223.9850 C   0  0  0  0  0  0  0  0  0  0  0  0
  141.8190   79.0930  224.1930 C   0  0  0  0  0  0  0  0  0  0  0  0
  141.4960   78.2690  223.0970 C   0  0  0  0  0  0  0  0  0  0  0  0
  141.6420   78.8030  221.8120 C   0  0  0  0  0  0  0  0  0  0  0  0
  136.3665   78.6858  220.2617 H   0  0  0  0  0  0  0  0  0  0  0  0
  136.4070   77.6279  221.7395 H   0  0  0  0  0  0  0  0  0  0  0  0
  137.5149   78.3056  223.7052 H   0  0  0  0  0  0  0  0  0  0  0  0
  138.7267   80.0971  224.9474 H   0  0  0  0  0  0  0  0  0  0  0  0
  139.6617   82.0576  223.7240 H   0  0  0  0  0  0  0  0  0  0  0  0
  138.2281   80.4067  219.9825 H   0  0  0  0  0  0  0  0  0  0  0  0
  140.0883   75.8023  222.8578 H   0  0  0  0  0  0  0  0  0  0  0  0
  138.4690   75.3568  222.1511 H   0  0  0  0  0  0  0  0  0  0  0  0
  140.1497   73.5014  222.0953 H   0  0  0  0  0  0  0  0  0  0  0  0
  139.5007   73.9793  220.4830 H   0  0  0  0  0  0  0  0  0  0  0  0
  142.1970   72.5370  221.2660 H   0  0  0  0  0  0  0  0  0  0  0  0
  144.4824   72.9165  220.3417 H   0  0  0  0  0  0  0  0  0  0  0  0
  145.0737   75.1249  219.3407 H   0  0  0  0  0  0  0  0  0  0  0  0
  143.3884   76.9593  219.2816 H   0  0  0  0  0  0  0  0  0  0  0  0
  140.5010   76.8907  219.1518 H   0  0  0  0  0  0  0  0  0  0  0  0
  141.6367   79.1844  218.5560 H   0  0  0  0  0  0  0  0  0  0  0  0
  142.4580   81.2800  219.8660 H   0  0  0  0  0  0  0  0  0  0  0  0
  142.7920   81.9425  222.5057 H   0  0  0  0  0  0  0  0  0  0  0  0
  142.5247   81.0489  224.8485 H   0  0  0  0  0  0  0  0  0  0  0  0
  141.7118   78.7067  225.2173 H   0  0  0  0  0  0  0  0  0  0  0  0
  141.1404   77.2389  223.2466 H   0  0  0  0  0  0  0  0  0  0  0  0
  1  2  2  0
  2  3  2  0
  2  4  1  0
  4  5  1  0
  5  6  2  0
  6  7  1  0
  7  8  2  0
  8  9  1  0
  9 10  1  0
 10 11  1  0
 10 12  1  0
 10 13  1  0
  9 14  2  0
  2 15  1  0
 15 16  1  0
 16 17  1  0
 17 18  1  0
 18 19  2  0
 19 20  1  0
 20 21  2  0
 21 22  1  0
 22 23  2  0
 23 24  1  0
 24 25  1  0
 25 26  2  0
 26 27  1  0
 27 28  1  0
 28 29  2  0
 29 30  1  0
 30 31  2  0
 31 32  1  0
 32 33  2  0
 14  5  1  0
 24 15  1  0
 33 25  1  0
 23 18  1  0
 33 28  1  0
  4 34  1  0
  4 35  1  0
  6 36  1  0
  7 37  1  0
  8 38  1  0
 14 39  1  0
 16 40  1  0
 16 41  1  0
 17 42  1  0
 17 43  1  0
 19 44  1  0
 20 45  1  0
 21 46  1  0
 22 47  1  0
 24 48  1  6
 26 49  1  0
 27 50  1  0
 29 51  1  0
 30 52  1  0
 31 53  1  0
 32 54  1  0
M  END
>  <UniqueID>  (31) 
202

>  <SMILES>  (31) 
O=S(=O)(Cc1cccc(C(F)(F)F)c1)N1CCc2ccccc2[C@@H]1c1c[nH]c2ccccc12

>  <Energy>  (31) 
96.66385639821564

>  <Genealogy>  (31) 
O=S(=O)(Cc1cccc(C(F)(F)F)c1)N1CCc2ccccc2[C@@H]1c1c[nH]c2ccccc12 (3D coordinates assigned)
O=S(=O)(Cc1cccc(C(F)(F)F)c1)N1CCc2ccccc2[C@@H]1c1c[nH]c2ccccc12 (nonaromatic ring conformer: 96.66385639821564 kcal/mol)

>  <smiles>  (31) 
O=S(=O)(Cc1cccc(C(F)(F)F)c1)N1CCc2ccccc2[C@@H]1c1c[nH]c2ccccc12

>  <score_type>  (31) 
oracle

>  <origin>  (31) 
autodockgpu

>  <m_score__min__energy>  (31) 
-8.0600000000000005

>  <m_primary>  (31) 
energy

>  <meeko>  (31) 
{"free_energy": -6.67, "intermolecular_energy": -8.17, "internal_energy": -3.39, "cluster_size": 16, "cluster_id": 3, "rank_in_cluster": 12}

>  <energy>  (31) 
-6.68

>  <cluster_rmsd>  (31) 
0.08

>  <rmsd>  (31) 
270.92

>  <cluster>  (31) 
3

$$$$
GJSDZOHBAHKEKD-XMMPIXPANA-N
     RDKit          3D

 54 58  0  0  0  0  0  0  0  0999 V2000
  138.4820   82.6390  218.1980 O   0  0  0  0  0  0  0  0  0  0  0  0
  138.7380   81.4070  219.0200 S   0  0  0  0  0  0  0  0  0  0  0  0
  138.5540   80.2110  218.1280 O   0  0  0  0  0  0  0  0  0  0  0  0
  137.5170   81.3610  220.3400 C   0  0  0  0  0  0  0  0  0  0  0  0
  137.9860   80.5570  221.5260 C   0  0  0  0  0  0  0  0  0  0  0  0
  138.2470   81.1810  222.7590 C   0  0  0  0  0  0  0  0  0  0  0  0
  138.7180   80.4330  223.8420 C   0  0  0  0  0  0  0  0  0  0  0  0
  138.9350   79.0600  223.7050 C   0  0  0  0  0  0  0  0  0  0  0  0
  138.6940   78.4180  222.4760 C   0  0  0  0  0  0  0  0  0  0  0  0
  138.8950   76.9280  222.3390 C   0  0  0  0  0  0  0  0  0  0  0  0
  137.9890   76.2420  223.1320 F   0  0  0  0  0  0  0  0  0  0  0  0
  138.7070   76.5600  221.0160 F   0  0  0  0  0  0  0  0  0  0  0  0
  140.1760   76.5680  222.7330 F   0  0  0  0  0  0  0  0  0  0  0  0
  138.1860   79.1700  221.4010 C   0  0  0  0  0  0  0  0  0  0  0  0
  140.3960   81.4390  219.5870 N   0  0  0  0  0  0  0  0  0  0  0  0
  140.8190   82.7410  220.1430 C   0  0  0  0  0  0  0  0  0  0  0  0
  140.7610   82.7820  221.6650 C   0  0  0  0  0  0  0  0  0  0  0  0
  141.5370   81.6420  222.2460 C   0  0  0  0  0  0  0  0  0  0  0  0
  142.1590   81.7870  223.4970 C   0  0  0  0  0  0  0  0  0  0  0  0
  142.8160   80.7050  224.0890 C   0  0  0  0  0  0  0  0  0  0  0  0
  142.8360   79.4660  223.4490 C   0  0  0  0  0  0  0  0  0  0  0  0
  142.2050   79.3090  222.2120 C   0  0  0  0  0  0  0  0  0  0  0  0
  141.5720   80.4010  221.5830 C   0  0  0  0  0  0  0  0  0  0  0  0
  140.8220   80.1920  220.2740 C   0  0  2  0  0  0  0  0  0  0  0  0
  141.6250   79.3680  219.2980 C   0  0  0  0  0  0  0  0  0  0  0  0
  142.2690   79.8530  218.1600 C   0  0  0  0  0  0  0  0  0  0  0  0
  142.9600   78.8650  217.5480 N   0  0  0  0  0  0  0  0  0  0  0  0
  142.7650   77.7590  218.2920 C   0  0  0  0  0  0  0  0  0  0  0  0
  143.2970   76.4890  218.0680 C   0  0  0  0  0  0  0  0  0  0  0  0
  142.9790   75.4680  218.9860 C   0  0  0  0  0  0  0  0  0  0  0  0
  142.1380   75.7360  220.0900 C   0  0  0  0  0  0  0  0  0  0  0  0
  141.6120   77.0270  220.2900 C   0  0  0  0  0  0  0  0  0  0  0  0
  141.9560   78.0230  219.3690 C   0  0  0  0  0  0  0  0  0  0  0  0
  137.3130   82.3906  220.6691 H   0  0  0  0  0  0  0  0  0  0  0  0
  136.6112   80.8788  219.9437 H   0  0  0  0  0  0  0  0  0  0  0  0
  138.0798   82.2624  222.8717 H   0  0  0  0  0  0  0  0  0  0  0  0
  138.9182   80.9268  224.8043 H   0  0  0  0  0  0  0  0  0  0  0  0
  139.2970   78.4761  224.5641 H   0  0  0  0  0  0  0  0  0  0  0  0
  137.9426   78.6683  220.4528 H   0  0  0  0  0  0  0  0  0  0  0  0
  141.8534   82.9389  219.8256 H   0  0  0  0  0  0  0  0  0  0  0  0
  140.1222   83.5037  219.7652 H   0  0  0  0  0  0  0  0  0  0  0  0
  141.1905   83.7308  222.0189 H   0  0  0  0  0  0  0  0  0  0  0  0
  139.7118   82.7002  221.9851 H   0  0  0  0  0  0  0  0  0  0  0  0
  142.1288   82.7577  224.0136 H   0  0  0  0  0  0  0  0  0  0  0  0
  143.3175   80.8305  225.0600 H   0  0  0  0  0  0  0  0  0  0  0  0
  143.3482   78.6128  223.9177 H   0  0  0  0  0  0  0  0  0  0  0  0
  142.2020   78.3233  221.7238 H   0  0  0  0  0  0  0  0  0  0  0  0
  139.9099   79.6603  220.5826 H   0  0  0  0  0  0  0  0  0  0  0  0
  142.2214   80.8944  217.8091 H   0  0  0  0  0  0  0  0  0  0  0  0
  143.5350   78.9500  216.6800 H   0  0  0  0  0  0  0  0  0  0  0  0
  143.9448   76.2906  217.2014 H   0  0  0  0  0  0  0  0  0  0  0  0
  143.3876   74.4568  218.8425 H   0  0  0  0  0  0  0  0  0  0  0  0
  141.8926   74.9306  220.7979 H   0  0  0  0  0  0  0  0  0  0  0  0
  140.9521   77.2454  221.1425 H   0  0  0  0  0  0  0  0  0  0  0  0
  1  2  2  0
  2  3  2  0
  2  4  1  0
  4  5  1  0
  5  6  2  0
  6  7  1  0
  7  8  2  0
  8  9  1  0
  9 10  1  0
 10 11  1  0
 10 12  1  0
 10 13  1  0
  9 14  2  0
  2 15  1  0
 15 16  1  0
 16 17  1  0
 17 18  1  0
 18 19  2  0
 19 20  1  0
 20 21  2  0
 21 22  1  0
 22 23  2  0
 23 24  1  0
 24 25  1  0
 25 26  2  0
 26 27  1  0
 27 28  1  0
 28 29  2  0
 29 30  1  0
 30 31  2  0
 31 32  1  0
 32 33  2  0
 14  5  1  0
 24 15  1  0
 33 25  1  0
 23 18  1  0
 33 28  1  0
  4 34  1  0
  4 35  1  0
  6 36  1  0
  7 37  1  0
  8 38  1  0
 14 39  1  0
 16 40  1  0
 16 41  1  0
 17 42  1  0
 17 43  1  0
 19 44  1  0
 20 45  1  0
 21 46  1  0
 22 47  1  0
 24 48  1  1
 26 49  1  0
 27 50  1  0
 29 51  1  0
 30 52  1  0
 31 53  1  0
 32 54  1  0
M  END
>  <UniqueID>  (32) 
202

>  <SMILES>  (32) 
O=S(=O)(Cc1cccc(C(F)(F)F)c1)N1CCc2ccccc2[C@@H]1c1c[nH]c2ccccc12

>  <Energy>  (32) 
96.66385639821564

>  <Genealogy>  (32) 
O=S(=O)(Cc1cccc(C(F)(F)F)c1)N1CCc2ccccc2[C@@H]1c1c[nH]c2ccccc12 (3D coordinates assigned)
O=S(=O)(Cc1cccc(C(F)(F)F)c1)N1CCc2ccccc2[C@@H]1c1c[nH]c2ccccc12 (nonaromatic ring conformer: 96.66385639821564 kcal/mol)

>  <smiles>  (32) 
O=S(=O)(Cc1cccc(C(F)(F)F)c1)N1CCc2ccccc2[C@@H]1c1c[nH]c2ccccc12

>  <score_type>  (32) 
oracle

>  <origin>  (32) 
autodockgpu

>  <m_score__min__energy>  (32) 
-8.0600000000000005

>  <m_primary>  (32) 
energy

>  <meeko>  (32) 
{"free_energy": -6.9, "intermolecular_energy": -8.39, "internal_energy": -3.08, "cluster_size": 3, "cluster_id": 2, "rank_in_cluster": 2}

>  <energy>  (32) 
-6.68

>  <cluster_rmsd>  (32) 
0.05

>  <rmsd>  (32) 
270.9

>  <cluster>  (32) 
3

$$$$
GJSDZOHBAHKEKD-XMMPIXPANA-N
     RDKit          3D

 54 58  0  0  0  0  0  0  0  0999 V2000
  134.6390   68.0900  224.9110 O   0  0  0  0  0  0  0  0  0  0  0  0
  135.3730   69.3900  224.7350 S   0  0  0  0  0  0  0  0  0  0  0  0
  135.5480   70.0080  226.0940 O   0  0  0  0  0  0  0  0  0  0  0  0
  134.3520   70.4660  223.7170 C   0  0  0  0  0  0  0  0  0  0  0  0
  134.7540   71.9150  223.8340 C   0  0  0  0  0  0  0  0  0  0  0  0
  135.7370   72.4580  222.9890 C   0  0  0  0  0  0  0  0  0  0  0  0
  136.1300   73.7920  223.1300 C   0  0  0  0  0  0  0  0  0  0  0  0
  135.5490   74.5940  224.1160 C   0  0  0  0  0  0  0  0  0  0  0  0
  134.5740   74.0650  224.9830 C   0  0  0  0  0  0  0  0  0  0  0  0
  133.9220   74.9420  226.0240 C   0  0  0  0  0  0  0  0  0  0  0  0
  133.1030   75.8840  225.4220 F   0  0  0  0  0  0  0  0  0  0  0  0
  133.1570   74.1550  226.8730 F   0  0  0  0  0  0  0  0  0  0  0  0
  134.8800   75.6140  226.7700 F   0  0  0  0  0  0  0  0  0  0  0  0
  134.1570   72.7330  224.8120 C   0  0  0  0  0  0  0  0  0  0  0  0
  136.9550   69.0590  224.0560 N   0  0  0  0  0  0  0  0  0  0  0  0
  136.9320   68.6840  222.6270 C   0  0  0  0  0  0  0  0  0  0  0  0
  137.2640   69.8490  221.7030 C   0  0  0  0  0  0  0  0  0  0  0  0
  138.5640   70.4740  222.1010 C   0  0  0  0  0  0  0  0  0  0  0  0
  139.3740   71.0790  221.1260 C   0  0  0  0  0  0  0  0  0  0  0  0
  140.5500   71.7380  221.4940 C   0  0  0  0  0  0  0  0  0  0  0  0
  140.9110   71.8210  222.8390 C   0  0  0  0  0  0  0  0  0  0  0  0
  140.1010   71.2380  223.8170 C   0  0  0  0  0  0  0  0  0  0  0  0
  138.9320   70.5340  223.4580 C   0  0  0  0  0  0  0  0  0  0  0  0
  138.0220   69.9730  224.5420 C   0  0  2  0  0  0  0  0  0  0  0  0
  138.8060   69.2550  225.6110 C   0  0  0  0  0  0  0  0  0  0  0  0
  138.8860   67.8710  225.7700 C   0  0  0  0  0  0  0  0  0  0  0  0
  139.7310   67.5580  226.7790 N   0  0  0  0  0  0  0  0  0  0  0  0
  140.1920   68.7290  227.2550 C   0  0  0  0  0  0  0  0  0  0  0  0
  141.1100   68.9160  228.2900 C   0  0  0  0  0  0  0  0  0  0  0  0
  141.4730   70.2360  228.6210 C   0  0  0  0  0  0  0  0  0  0  0  0
  140.9110   71.3290  227.9230 C   0  0  0  0  0  0  0  0  0  0  0  0
  139.9840   71.1120  226.8850 C   0  0  0  0  0  0  0  0  0  0  0  0
  139.6520   69.7900  226.5700 C   0  0  0  0  0  0  0  0  0  0  0  0
  134.4493   70.1556  222.6662 H   0  0  0  0  0  0  0  0  0  0  0  0
  133.3135   70.3754  224.0681 H   0  0  0  0  0  0  0  0  0  0  0  0
  136.1993   71.8302  222.2130 H   0  0  0  0  0  0  0  0  0  0  0  0
  136.8981   74.2113  222.4636 H   0  0  0  0  0  0  0  0  0  0  0  0
  135.8555   75.6457  224.2154 H   0  0  0  0  0  0  0  0  0  0  0  0
  133.3570   72.3265  225.4482 H   0  0  0  0  0  0  0  0  0  0  0  0
  137.6689   67.8842  222.4621 H   0  0  0  0  0  0  0  0  0  0  0  0
  135.9100   68.3544  222.3886 H   0  0  0  0  0  0  0  0  0  0  0  0
  137.3396   69.4817  220.6689 H   0  0  0  0  0  0  0  0  0  0  0  0
  136.4668   70.6033  221.7779 H   0  0  0  0  0  0  0  0  0  0  0  0
  139.0810   71.0338  220.0667 H   0  0  0  0  0  0  0  0  0  0  0  0
  141.1909   72.1912  220.7234 H   0  0  0  0  0  0  0  0  0  0  0  0
  141.8333   72.3454  223.1296 H   0  0  0  0  0  0  0  0  0  0  0  0
  140.3775   71.3288  224.8778 H   0  0  0  0  0  0  0  0  0  0  0  0
  137.5272   70.8667  224.9500 H   0  0  0  0  0  0  0  0  0  0  0  0
  138.3386   67.1372  225.1602 H   0  0  0  0  0  0  0  0  0  0  0  0
  139.9800   66.5980  227.1100 H   0  0  0  0  0  0  0  0  0  0  0  0
  141.5369   68.0584  228.8306 H   0  0  0  0  0  0  0  0  0  0  0  0
  142.1984   70.4174  229.4278 H   0  0  0  0  0  0  0  0  0  0  0  0
  141.1994   72.3558  228.1922 H   0  0  0  0  0  0  0  0  0  0  0  0
  139.5353   71.9552  226.3394 H   0  0  0  0  0  0  0  0  0  0  0  0
  1  2  2  0
  2  3  2  0
  2  4  1  0
  4  5  1  0
  5  6  2  0
  6  7  1  0
  7  8  2  0
  8  9  1  0
  9 10  1  0
 10 11  1  0
 10 12  1  0
 10 13  1  0
  9 14  2  0
  2 15  1  0
 15 16  1  0
 16 17  1  0
 17 18  1  0
 18 19  2  0
 19 20  1  0
 20 21  2  0
 21 22  1  0
 22 23  2  0
 23 24  1  0
 24 25  1  0
 25 26  2  0
 26 27  1  0
 27 28  1  0
 28 29  2  0
 29 30  1  0
 30 31  2  0
 31 32  1  0
 32 33  2  0
 14  5  1  0
 24 15  1  0
 33 25  1  0
 23 18  1  0
 33 28  1  0
  4 34  1  0
  4 35  1  0
  6 36  1  0
  7 37  1  0
  8 38  1  0
 14 39  1  0
 16 40  1  0
 16 41  1  0
 17 42  1  0
 17 43  1  0
 19 44  1  0
 20 45  1  0
 21 46  1  0
 22 47  1  0
 24 48  1  1
 26 49  1  0
 27 50  1  0
 29 51  1  0
 30 52  1  0
 31 53  1  0
 32 54  1  0
M  END
>  <UniqueID>  (33) 
202

>  <SMILES>  (33) 
O=S(=O)(Cc1cccc(C(F)(F)F)c1)N1CCc2ccccc2[C@@H]1c1c[nH]c2ccccc12

>  <Energy>  (33) 
96.66385639821564

>  <Genealogy>  (33) 
O=S(=O)(Cc1cccc(C(F)(F)F)c1)N1CCc2ccccc2[C@@H]1c1c[nH]c2ccccc12 (3D coordinates assigned)
O=S(=O)(Cc1cccc(C(F)(F)F)c1)N1CCc2ccccc2[C@@H]1c1c[nH]c2ccccc12 (nonaromatic ring conformer: 96.66385639821564 kcal/mol)

>  <smiles>  (33) 
O=S(=O)(Cc1cccc(C(F)(F)F)c1)N1CCc2ccccc2[C@@H]1c1c[nH]c2ccccc12

>  <score_type>  (33) 
oracle

>  <origin>  (33) 
autodockgpu

>  <m_score__min__energy>  (33) 
-8.0600000000000005

>  <m_primary>  (33) 
energy

>  <meeko>  (33) 
{"free_energy": -8.06, "intermolecular_energy": -9.55, "internal_energy": -2.2, "cluster_size": 1, "cluster_id": 1, "rank_in_cluster": 1}

>  <energy>  (33) 
-6.68

>  <cluster_rmsd>  (33) 
0.06

>  <rmsd>  (33) 
270.9

>  <cluster>  (33) 
3

$$$$
GJSDZOHBAHKEKD-XMMPIXPANA-N
     RDKit          3D

 54 58  0  0  0  0  0  0  0  0999 V2000
  138.3970   77.5640  218.8340 O   0  0  0  0  0  0  0  0  0  0  0  0
  138.0860   77.0100  220.1950 S   0  0  0  0  0  0  0  0  0  0  0  0
  137.3620   75.7060  220.0080 O   0  0  0  0  0  0  0  0  0  0  0  0
  137.0050   78.1790  221.0330 C   0  0  0  0  0  0  0  0  0  0  0  0
  137.7750   79.2490  221.7640 C   0  0  0  0  0  0  0  0  0  0  0  0
  137.9450   79.1870  223.1580 C   0  0  0  0  0  0  0  0  0  0  0  0
  138.6280   80.2040  223.8320 C   0  0  0  0  0  0  0  0  0  0  0  0
  139.1450   81.2910  223.1230 C   0  0  0  0  0  0  0  0  0  0  0  0
  138.9730   81.3800  221.7290 C   0  0  0  0  0  0  0  0  0  0  0  0
  139.5630   82.5370  220.9590 C   0  0  0  0  0  0  0  0  0  0  0  0
  138.6390   83.5630  220.8400 F   0  0  0  0  0  0  0  0  0  0  0  0
  140.6810   83.0100  221.6280 F   0  0  0  0  0  0  0  0  0  0  0  0
  139.9340   82.1380  219.6830 F   0  0  0  0  0  0  0  0  0  0  0  0
  138.3170   80.3360  221.0520 C   0  0  0  0  0  0  0  0  0  0  0  0
  139.5910   76.7040  221.0400 N   0  0  0  0  0  0  0  0  0  0  0  0
  139.5430   75.5490  221.9610 C   0  0  0  0  0  0  0  0  0  0  0  0
  140.1350   74.2820  221.3550 C   0  0  0  0  0  0  0  0  0  0  0  0
  141.5200   74.5440  220.8530 C   0  0  0  0  0  0  0  0  0  0  0  0
  142.4690   73.5090  220.8520 C   0  0  0  0  0  0  0  0  0  0  0  0
  143.7400   73.7170  220.3090 C   0  0  0  0  0  0  0  0  0  0  0  0
  144.0640   74.9500  219.7420 C   0  0  0  0  0  0  0  0  0  0  0  0
  143.1190   75.9790  219.7230 C   0  0  0  0  0  0  0  0  0  0  0  0
  141.8460   75.7990  220.3030 C   0  0  0  0  0  0  0  0  0  0  0  0
  140.8030   76.9040  220.2040 C   0  0  2  0  0  0  0  0  0  0  0  0
  141.3890   78.2530  220.5390 C   0  0  0  0  0  0  0  0  0  0  0  0
  141.7060   79.2540  219.6200 C   0  0  0  0  0  0  0  0  0  0  0  0
  142.1410   80.3630  220.2590 N   0  0  0  0  0  0  0  0  0  0  0  0
  142.0960   80.0780  221.5740 C   0  0  0  0  0  0  0  0  0  0  0  0
  142.4320   80.9240  222.6320 C   0  0  0  0  0  0  0  0  0  0  0  0
  142.2940   80.4270  223.9430 C   0  0  0  0  0  0  0  0  0  0  0  0
  141.8370   79.1090  224.1650 C   0  0  0  0  0  0  0  0  0  0  0  0
  141.5080   78.2760  223.0780 C   0  0  0  0  0  0  0  0  0  0  0  0
  141.6430   78.7990  221.7880 C   0  0  0  0  0  0  0  0  0  0  0  0
  136.3559   78.6586  220.2856 H   0  0  0  0  0  0  0  0  0  0  0  0
  136.4177   77.6202  221.7765 H   0  0  0  0  0  0  0  0  0  0  0  0
  137.5387   78.3341  223.7214 H   0  0  0  0  0  0  0  0  0  0  0  0
  138.7585   80.1480  224.9228 H   0  0  0  0  0  0  0  0  0  0  0  0
  139.6902   82.0827  223.6578 H   0  0  0  0  0  0  0  0  0  0  0  0
  138.2266   80.3691  219.9562 H   0  0  0  0  0  0  0  0  0  0  0  0
  140.1092   75.8010  222.8698 H   0  0  0  0  0  0  0  0  0  0  0  0
  138.4845   75.3462  222.1811 H   0  0  0  0  0  0  0  0  0  0  0  0
  140.1702   73.4949  222.1226 H   0  0  0  0  0  0  0  0  0  0  0  0
  139.5045   73.9598  220.5132 H   0  0  0  0  0  0  0  0  0  0  0  0
  142.2108   72.5295  221.2808 H   0  0  0  0  0  0  0  0  0  0  0  0
  144.4853   72.9082  220.3287 H   0  0  0  0  0  0  0  0  0  0  0  0
  145.0627   75.1118  219.3103 H   0  0  0  0  0  0  0  0  0  0  0  0
  143.3706   76.9400  219.2506 H   0  0  0  0  0  0  0  0  0  0  0  0
  140.4839   76.8619  219.1521 H   0  0  0  0  0  0  0  0  0  0  0  0
  141.6147   79.1546  218.5283 H   0  0  0  0  0  0  0  0  0  0  0  0
  142.4400   81.2620  219.8160 H   0  0  0  0  0  0  0  0  0  0  0  0
  142.7932   81.9466  222.4480 H   0  0  0  0  0  0  0  0  0  0  0  0
  142.5439   81.0699  224.7999 H   0  0  0  0  0  0  0  0  0  0  0  0
  141.7375   78.7309  225.1932 H   0  0  0  0  0  0  0  0  0  0  0  0
  141.1559   77.2463  223.2387 H   0  0  0  0  0  0  0  0  0  0  0  0
  1  2  2  0
  2  3  2  0
  2  4  1  0
  4  5  1  0
  5  6  2  0
  6  7  1  0
  7  8  2  0
  8  9  1  0
  9 10  1  0
 10 11  1  0
 10 12  1  0
 10 13  1  0
  9 14  2  0
  2 15  1  0
 15 16  1  0
 16 17  1  0
 17 18  1  0
 18 19  2  0
 19 20  1  0
 20 21  2  0
 21 22  1  0
 22 23  2  0
 23 24  1  0
 24 25  1  0
 25 26  2  0
 26 27  1  0
 27 28  1  0
 28 29  2  0
 29 30  1  0
 30 31  2  0
 31 32  1  0
 32 33  2  0
 14  5  1  0
 24 15  1  0
 33 25  1  0
 23 18  1  0
 33 28  1  0
  4 34  1  0
  4 35  1  0
  6 36  1  0
  7 37  1  0
  8 38  1  0
 14 39  1  0
 16 40  1  0
 16 41  1  0
 17 42  1  0
 17 43  1  0
 19 44  1  0
 20 45  1  0
 21 46  1  0
 22 47  1  0
 24 48  1  6
 26 49  1  0
 27 50  1  0
 29 51  1  0
 30 52  1  0
 31 53  1  0
 32 54  1  0
M  END
>  <UniqueID>  (34) 
202

>  <SMILES>  (34) 
O=S(=O)(Cc1cccc(C(F)(F)F)c1)N1CCc2ccccc2[C@@H]1c1c[nH]c2ccccc12

>  <Energy>  (34) 
96.66385639821564

>  <Genealogy>  (34) 
O=S(=O)(Cc1cccc(C(F)(F)F)c1)N1CCc2ccccc2[C@@H]1c1c[nH]c2ccccc12 (3D coordinates assigned)
O=S(=O)(Cc1cccc(C(F)(F)F)c1)N1CCc2ccccc2[C@@H]1c1c[nH]c2ccccc12 (nonaromatic ring conformer: 96.66385639821564 kcal/mol)

>  <smiles>  (34) 
O=S(=O)(Cc1cccc(C(F)(F)F)c1)N1CCc2ccccc2[C@@H]1c1c[nH]c2ccccc12

>  <score_type>  (34) 
oracle

>  <origin>  (34) 
autodockgpu

>  <m_score__min__energy>  (34) 
-8.0600000000000005

>  <m_primary>  (34) 
energy

>  <meeko>  (34) 
{"free_energy": -6.66, "intermolecular_energy": -8.15, "internal_energy": -3.39, "cluster_size": 16, "cluster_id": 3, "rank_in_cluster": 15}

>  <energy>  (34) 
-6.67

>  <cluster_rmsd>  (34) 
0.06

>  <rmsd>  (34) 
270.93

>  <cluster>  (34) 
3

$$$$
GJSDZOHBAHKEKD-XMMPIXPANA-N
     RDKit          3D

 54 58  0  0  0  0  0  0  0  0999 V2000
  138.3910   77.5960  218.9320 O   0  0  0  0  0  0  0  0  0  0  0  0
  138.1050   76.9920  220.2780 S   0  0  0  0  0  0  0  0  0  0  0  0
  137.3990   75.6840  220.0550 O   0  0  0  0  0  0  0  0  0  0  0  0
  137.0150   78.1150  221.1660 C   0  0  0  0  0  0  0  0  0  0  0  0
  137.7730   79.2150  221.8660 C   0  0  0  0  0  0  0  0  0  0  0  0
  137.9340   79.2000  223.2620 C   0  0  0  0  0  0  0  0  0  0  0  0
  138.6050   80.2430  223.9060 C   0  0  0  0  0  0  0  0  0  0  0  0
  139.1190   81.3100  223.1650 C   0  0  0  0  0  0  0  0  0  0  0  0
  138.9550   81.3530  221.7680 C   0  0  0  0  0  0  0  0  0  0  0  0
  139.5410   82.4880  220.9640 C   0  0  0  0  0  0  0  0  0  0  0  0
  138.6230   83.5180  220.8370 F   0  0  0  0  0  0  0  0  0  0  0  0
  140.6730   82.9670  221.6050 F   0  0  0  0  0  0  0  0  0  0  0  0
  139.8890   82.0590  219.6910 F   0  0  0  0  0  0  0  0  0  0  0  0
  138.3110   80.2810  221.1220 C   0  0  0  0  0  0  0  0  0  0  0  0
  139.6240   76.6820  221.0950 N   0  0  0  0  0  0  0  0  0  0  0  0
  139.5920   75.5230  222.0090 C   0  0  0  0  0  0  0  0  0  0  0  0
  140.1750   74.2600  221.3870 C   0  0  0  0  0  0  0  0  0  0  0  0
  141.5510   74.5260  220.8630 C   0  0  0  0  0  0  0  0  0  0  0  0
  142.5010   73.4920  220.8390 C   0  0  0  0  0  0  0  0  0  0  0  0
  143.7620   73.7040  220.2770 C   0  0  0  0  0  0  0  0  0  0  0  0
  144.0750   74.9400  219.7110 C   0  0  0  0  0  0  0  0  0  0  0  0
  143.1300   75.9690  219.7140 C   0  0  0  0  0  0  0  0  0  0  0  0
  141.8660   75.7840  220.3140 C   0  0  0  0  0  0  0  0  0  0  0  0
  140.8220   76.8890  220.2390 C   0  0  2  0  0  0  0  0  0  0  0  0
  141.4120   78.2360  220.5720 C   0  0  0  0  0  0  0  0  0  0  0  0
  141.7460   79.2280  219.6500 C   0  0  0  0  0  0  0  0  0  0  0  0
  142.1810   80.3400  220.2860 N   0  0  0  0  0  0  0  0  0  0  0  0
  142.1180   80.0640  221.6030 C   0  0  0  0  0  0  0  0  0  0  0  0
  142.4470   80.9150  222.6590 C   0  0  0  0  0  0  0  0  0  0  0  0
  142.2900   80.4290  223.9720 C   0  0  0  0  0  0  0  0  0  0  0  0
  141.8210   79.1150  224.1980 C   0  0  0  0  0  0  0  0  0  0  0  0
  141.5000   78.2760  223.1120 C   0  0  0  0  0  0  0  0  0  0  0  0
  141.6540   78.7900  221.8200 C   0  0  0  0  0  0  0  0  0  0  0  0
  136.3147   78.5688  220.4492 H   0  0  0  0  0  0  0  0  0  0  0  0
  136.4838   77.5320  221.9328 H   0  0  0  0  0  0  0  0  0  0  0  0
  137.5299   78.3632  223.8506 H   0  0  0  0  0  0  0  0  0  0  0  0
  138.7287   80.2238  224.9989 H   0  0  0  0  0  0  0  0  0  0  0  0
  139.6557   82.1222  223.6771 H   0  0  0  0  0  0  0  0  0  0  0  0
  138.2276   80.2767  220.0252 H   0  0  0  0  0  0  0  0  0  0  0  0
  140.1725   75.7706  222.9099 H   0  0  0  0  0  0  0  0  0  0  0  0
  138.5373   75.3179  222.2447 H   0  0  0  0  0  0  0  0  0  0  0  0
  140.2240   73.4692  222.1500 H   0  0  0  0  0  0  0  0  0  0  0  0
  139.5307   73.9413  220.5543 H   0  0  0  0  0  0  0  0  0  0  0  0
  142.2506   72.5094  221.2653 H   0  0  0  0  0  0  0  0  0  0  0  0
  144.5085   72.8961  220.2807 H   0  0  0  0  0  0  0  0  0  0  0  0
  145.0658   75.1044  219.2624 H   0  0  0  0  0  0  0  0  0  0  0  0
  143.3736   76.9332  219.2439 H   0  0  0  0  0  0  0  0  0  0  0  0
  140.4860   76.8542  219.1922 H   0  0  0  0  0  0  0  0  0  0  0  0
  141.6668   79.1210  218.5581 H   0  0  0  0  0  0  0  0  0  0  0  0
  142.4910   81.2340  219.8410 H   0  0  0  0  0  0  0  0  0  0  0  0
  142.8175   81.9337  222.4720 H   0  0  0  0  0  0  0  0  0  0  0  0
  142.5341   81.0766  224.8270 H   0  0  0  0  0  0  0  0  0  0  0  0
  141.7059   78.7450  225.2275 H   0  0  0  0  0  0  0  0  0  0  0  0
  141.1398   77.2495  223.2751 H   0  0  0  0  0  0  0  0  0  0  0  0
  1  2  2  0
  2  3  2  0
  2  4  1  0
  4  5  1  0
  5  6  2  0
  6  7  1  0
  7  8  2  0
  8  9  1  0
  9 10  1  0
 10 11  1  0
 10 12  1  0
 10 13  1  0
  9 14  2  0
  2 15  1  0
 15 16  1  0
 16 17  1  0
 17 18  1  0
 18 19  2  0
 19 20  1  0
 20 21  2  0
 21 22  1  0
 22 23  2  0
 23 24  1  0
 24 25  1  0
 25 26  2  0
 26 27  1  0
 27 28  1  0
 28 29  2  0
 29 30  1  0
 30 31  2  0
 31 32  1  0
 32 33  2  0
 14  5  1  0
 24 15  1  0
 33 25  1  0
 23 18  1  0
 33 28  1  0
  4 34  1  0
  4 35  1  0
  6 36  1  0
  7 37  1  0
  8 38  1  0
 14 39  1  0
 16 40  1  0
 16 41  1  0
 17 42  1  0
 17 43  1  0
 19 44  1  0
 20 45  1  0
 21 46  1  0
 22 47  1  0
 24 48  1  6
 26 49  1  0
 27 50  1  0
 29 51  1  0
 30 52  1  0
 31 53  1  0
 32 54  1  0
M  END
>  <UniqueID>  (35) 
202

>  <SMILES>  (35) 
O=S(=O)(Cc1cccc(C(F)(F)F)c1)N1CCc2ccccc2[C@@H]1c1c[nH]c2ccccc12

>  <Energy>  (35) 
96.66385639821564

>  <Genealogy>  (35) 
O=S(=O)(Cc1cccc(C(F)(F)F)c1)N1CCc2ccccc2[C@@H]1c1c[nH]c2ccccc12 (3D coordinates assigned)
O=S(=O)(Cc1cccc(C(F)(F)F)c1)N1CCc2ccccc2[C@@H]1c1c[nH]c2ccccc12 (nonaromatic ring conformer: 96.66385639821564 kcal/mol)

>  <smiles>  (35) 
O=S(=O)(Cc1cccc(C(F)(F)F)c1)N1CCc2ccccc2[C@@H]1c1c[nH]c2ccccc12

>  <score_type>  (35) 
oracle

>  <origin>  (35) 
autodockgpu

>  <m_score__min__energy>  (35) 
-8.0600000000000005

>  <m_primary>  (35) 
energy

>  <meeko>  (35) 
{"free_energy": -6.67, "intermolecular_energy": -8.17, "internal_energy": -3.39, "cluster_size": 16, "cluster_id": 3, "rank_in_cluster": 11}

>  <energy>  (35) 
-6.67

>  <cluster_rmsd>  (35) 
0.09

>  <rmsd>  (35) 
270.92

>  <cluster>  (35) 
3

$$$$
GJSDZOHBAHKEKD-XMMPIXPANA-N
     RDKit          3D

 54 58  0  0  0  0  0  0  0  0999 V2000
  138.3830   77.5500  218.9340 O   0  0  0  0  0  0  0  0  0  0  0  0
  138.1030   76.9800  220.2960 S   0  0  0  0  0  0  0  0  0  0  0  0
  137.3830   75.6740  220.1090 O   0  0  0  0  0  0  0  0  0  0  0  0
  137.0310   78.1330  221.1660 C   0  0  0  0  0  0  0  0  0  0  0  0
  137.8060   79.2290  221.8530 C   0  0  0  0  0  0  0  0  0  0  0  0
  137.9880   79.2150  223.2470 C   0  0  0  0  0  0  0  0  0  0  0  0
  138.6760   80.2550  223.8790 C   0  0  0  0  0  0  0  0  0  0  0  0
  139.1840   81.3180  223.1280 C   0  0  0  0  0  0  0  0  0  0  0  0
  138.9990   81.3600  221.7330 C   0  0  0  0  0  0  0  0  0  0  0  0
  139.5790   82.4900  220.9190 C   0  0  0  0  0  0  0  0  0  0  0  0
  138.6530   83.5110  220.7750 F   0  0  0  0  0  0  0  0  0  0  0  0
  140.7040   82.9870  221.5600 F   0  0  0  0  0  0  0  0  0  0  0  0
  139.9370   82.0490  219.6530 F   0  0  0  0  0  0  0  0  0  0  0  0
  138.3380   80.2910  221.1000 C   0  0  0  0  0  0  0  0  0  0  0  0
  139.6260   76.6750  221.1070 N   0  0  0  0  0  0  0  0  0  0  0  0
  139.5990   75.5190  222.0270 C   0  0  0  0  0  0  0  0  0  0  0  0
  140.1800   74.2540  221.4070 C   0  0  0  0  0  0  0  0  0  0  0  0
  141.5540   74.5190  220.8760 C   0  0  0  0  0  0  0  0  0  0  0  0
  142.5050   73.4860  220.8520 C   0  0  0  0  0  0  0  0  0  0  0  0
  143.7630   73.6960  220.2830 C   0  0  0  0  0  0  0  0  0  0  0  0
  144.0730   74.9310  219.7110 C   0  0  0  0  0  0  0  0  0  0  0  0
  143.1260   75.9590  219.7150 C   0  0  0  0  0  0  0  0  0  0  0  0
  141.8660   75.7750  220.3210 C   0  0  0  0  0  0  0  0  0  0  0  0
  140.8200   76.8790  220.2460 C   0  0  2  0  0  0  0  0  0  0  0  0
  141.4100   78.2280  220.5710 C   0  0  0  0  0  0  0  0  0  0  0  0
  141.7400   79.2160  219.6430 C   0  0  0  0  0  0  0  0  0  0  0  0
  142.1760   80.3310  220.2730 N   0  0  0  0  0  0  0  0  0  0  0  0
  142.1190   80.0610  221.5900 C   0  0  0  0  0  0  0  0  0  0  0  0
  142.4510   80.9170  222.6410 C   0  0  0  0  0  0  0  0  0  0  0  0
  142.2990   80.4360  223.9570 C   0  0  0  0  0  0  0  0  0  0  0  0
  141.8330   79.1230  224.1900 C   0  0  0  0  0  0  0  0  0  0  0  0
  141.5080   78.2790  223.1100 C   0  0  0  0  0  0  0  0  0  0  0  0
  141.6570   78.7870  221.8150 C   0  0  0  0  0  0  0  0  0  0  0  0
  136.3402   78.5891  220.4415 H   0  0  0  0  0  0  0  0  0  0  0  0
  136.4883   77.5695  221.9393 H   0  0  0  0  0  0  0  0  0  0  0  0
  137.5872   78.3819  223.8431 H   0  0  0  0  0  0  0  0  0  0  0  0
  138.8176   80.2364  224.9697 H   0  0  0  0  0  0  0  0  0  0  0  0
  139.7327   82.1282  223.6305 H   0  0  0  0  0  0  0  0  0  0  0  0
  138.2364   80.2860  220.0047 H   0  0  0  0  0  0  0  0  0  0  0  0
  140.1837   75.7707  222.9241 H   0  0  0  0  0  0  0  0  0  0  0  0
  138.5457   75.3143  222.2690 H   0  0  0  0  0  0  0  0  0  0  0  0
  140.2327   73.4659  222.1726 H   0  0  0  0  0  0  0  0  0  0  0  0
  139.5323   73.9319  220.5783 H   0  0  0  0  0  0  0  0  0  0  0  0
  142.2575   72.5052  221.2841 H   0  0  0  0  0  0  0  0  0  0  0  0
  144.5096   72.8882  220.2856 H   0  0  0  0  0  0  0  0  0  0  0  0
  145.0617   75.0950  219.2575 H   0  0  0  0  0  0  0  0  0  0  0  0
  143.3661   76.9218  219.2404 H   0  0  0  0  0  0  0  0  0  0  0  0
  140.4797   76.8389  219.2007 H   0  0  0  0  0  0  0  0  0  0  0  0
  141.6573   79.1041  218.5518 H   0  0  0  0  0  0  0  0  0  0  0  0
  142.4840   81.2230  219.8230 H   0  0  0  0  0  0  0  0  0  0  0  0
  142.8198   81.9353  222.4483 H   0  0  0  0  0  0  0  0  0  0  0  0
  142.5449   81.0875  224.8085 H   0  0  0  0  0  0  0  0  0  0  0  0
  141.7232   78.7572  225.2216 H   0  0  0  0  0  0  0  0  0  0  0  0
  141.1485   77.2533  223.2794 H   0  0  0  0  0  0  0  0  0  0  0  0
  1  2  2  0
  2  3  2  0
  2  4  1  0
  4  5  1  0
  5  6  2  0
  6  7  1  0
  7  8  2  0
  8  9  1  0
  9 10  1  0
 10 11  1  0
 10 12  1  0
 10 13  1  0
  9 14  2  0
  2 15  1  0
 15 16  1  0
 16 17  1  0
 17 18  1  0
 18 19  2  0
 19 20  1  0
 20 21  2  0
 21 22  1  0
 22 23  2  0
 23 24  1  0
 24 25  1  0
 25 26  2  0
 26 27  1  0
 27 28  1  0
 28 29  2  0
 29 30  1  0
 30 31  2  0
 31 32  1  0
 32 33  2  0
 14  5  1  0
 24 15  1  0
 33 25  1  0
 23 18  1  0
 33 28  1  0
  4 34  1  0
  4 35  1  0
  6 36  1  0
  7 37  1  0
  8 38  1  0
 14 39  1  0
 16 40  1  0
 16 41  1  0
 17 42  1  0
 17 43  1  0
 19 44  1  0
 20 45  1  0
 21 46  1  0
 22 47  1  0
 24 48  1  6
 26 49  1  0
 27 50  1  0
 29 51  1  0
 30 52  1  0
 31 53  1  0
 32 54  1  0
M  END
>  <UniqueID>  (36) 
202

>  <SMILES>  (36) 
O=S(=O)(Cc1cccc(C(F)(F)F)c1)N1CCc2ccccc2[C@@H]1c1c[nH]c2ccccc12

>  <Energy>  (36) 
96.66385639821564

>  <Genealogy>  (36) 
O=S(=O)(Cc1cccc(C(F)(F)F)c1)N1CCc2ccccc2[C@@H]1c1c[nH]c2ccccc12 (3D coordinates assigned)
O=S(=O)(Cc1cccc(C(F)(F)F)c1)N1CCc2ccccc2[C@@H]1c1c[nH]c2ccccc12 (nonaromatic ring conformer: 96.66385639821564 kcal/mol)

>  <smiles>  (36) 
O=S(=O)(Cc1cccc(C(F)(F)F)c1)N1CCc2ccccc2[C@@H]1c1c[nH]c2ccccc12

>  <score_type>  (36) 
oracle

>  <origin>  (36) 
autodockgpu

>  <m_score__min__energy>  (36) 
-8.0600000000000005

>  <m_primary>  (36) 
energy

>  <meeko>  (36) 
{"free_energy": -6.68, "intermolecular_energy": -8.18, "internal_energy": -3.37, "cluster_size": 16, "cluster_id": 3, "rank_in_cluster": 7}

>  <energy>  (36) 
-6.67

>  <cluster_rmsd>  (36) 
0.08

>  <rmsd>  (36) 
270.91

>  <cluster>  (36) 
3

$$$$
GJSDZOHBAHKEKD-XMMPIXPANA-N
     RDKit          3D

 54 58  0  0  0  0  0  0  0  0999 V2000
  138.4160   77.5850  218.8650 O   0  0  0  0  0  0  0  0  0  0  0  0
  138.1170   77.0120  220.2220 S   0  0  0  0  0  0  0  0  0  0  0  0
  137.3980   75.7070  220.0220 O   0  0  0  0  0  0  0  0  0  0  0  0
  137.0340   78.1650  221.0790 C   0  0  0  0  0  0  0  0  0  0  0  0
  137.8010   79.2470  221.7950 C   0  0  0  0  0  0  0  0  0  0  0  0
  137.9770   79.2010  223.1890 C   0  0  0  0  0  0  0  0  0  0  0  0
  138.6580   80.2290  223.8480 C   0  0  0  0  0  0  0  0  0  0  0  0
  139.1650   81.3120  223.1250 C   0  0  0  0  0  0  0  0  0  0  0  0
  138.9850   81.3850  221.7310 C   0  0  0  0  0  0  0  0  0  0  0  0
  139.5640   82.5370  220.9460 C   0  0  0  0  0  0  0  0  0  0  0  0
  138.6360   83.5590  220.8260 F   0  0  0  0  0  0  0  0  0  0  0  0
  140.6860   83.0210  221.6020 F   0  0  0  0  0  0  0  0  0  0  0  0
  139.9270   82.1280  219.6700 F   0  0  0  0  0  0  0  0  0  0  0  0
  138.3320   80.3290  221.0690 C   0  0  0  0  0  0  0  0  0  0  0  0
  139.6280   76.7040  221.0540 N   0  0  0  0  0  0  0  0  0  0  0  0
  139.5870   75.5470  221.9720 C   0  0  0  0  0  0  0  0  0  0  0  0
  140.1750   74.2830  221.3590 C   0  0  0  0  0  0  0  0  0  0  0  0
  141.5560   74.5470  220.8460 C   0  0  0  0  0  0  0  0  0  0  0  0
  142.5060   73.5120  220.8350 C   0  0  0  0  0  0  0  0  0  0  0  0
  143.7720   73.7210  220.2830 C   0  0  0  0  0  0  0  0  0  0  0  0
  144.0910   74.9560  219.7170 C   0  0  0  0  0  0  0  0  0  0  0  0
  143.1460   75.9850  219.7080 C   0  0  0  0  0  0  0  0  0  0  0  0
  141.8770   75.8020  220.2970 C   0  0  0  0  0  0  0  0  0  0  0  0
  140.8330   76.9080  220.2090 C   0  0  2  0  0  0  0  0  0  0  0  0
  141.4210   78.2560  220.5430 C   0  0  0  0  0  0  0  0  0  0  0  0
  141.7520   79.2500  219.6220 C   0  0  0  0  0  0  0  0  0  0  0  0
  142.1850   80.3620  220.2600 N   0  0  0  0  0  0  0  0  0  0  0  0
  142.1250   80.0840  221.5760 C   0  0  0  0  0  0  0  0  0  0  0  0
  142.4530   80.9340  222.6330 C   0  0  0  0  0  0  0  0  0  0  0  0
  142.2990   80.4450  223.9450 C   0  0  0  0  0  0  0  0  0  0  0  0
  141.8340   79.1290  224.1690 C   0  0  0  0  0  0  0  0  0  0  0  0
  141.5130   78.2920  223.0830 C   0  0  0  0  0  0  0  0  0  0  0  0
  141.6640   78.8080  221.7920 C   0  0  0  0  0  0  0  0  0  0  0  0
  136.3640   78.6341  220.3434 H   0  0  0  0  0  0  0  0  0  0  0  0
  136.4689   77.5980  221.8335 H   0  0  0  0  0  0  0  0  0  0  0  0
  137.5772   78.3526  223.7637 H   0  0  0  0  0  0  0  0  0  0  0  0
  138.7951   80.1851  224.9386 H   0  0  0  0  0  0  0  0  0  0  0  0
  139.7082   82.1125  223.6486 H   0  0  0  0  0  0  0  0  0  0  0  0
  138.2357   80.3495  219.9734 H   0  0  0  0  0  0  0  0  0  0  0  0
  140.1593   75.7970  222.8775 H   0  0  0  0  0  0  0  0  0  0  0  0
  138.5302   75.3430  222.1990 H   0  0  0  0  0  0  0  0  0  0  0  0
  140.2172   73.4943  222.1247 H   0  0  0  0  0  0  0  0  0  0  0  0
  139.5380   73.9623  220.5215 H   0  0  0  0  0  0  0  0  0  0  0  0
  142.2514   72.5314  221.2636 H   0  0  0  0  0  0  0  0  0  0  0  0
  144.5174   72.9122  220.2945 H   0  0  0  0  0  0  0  0  0  0  0  0
  145.0863   75.1193  219.2780 H   0  0  0  0  0  0  0  0  0  0  0  0
  143.3938   76.9476  219.2369 H   0  0  0  0  0  0  0  0  0  0  0  0
  140.5060   76.8702  219.1594 H   0  0  0  0  0  0  0  0  0  0  0  0
  141.6722   79.1446  218.5300 H   0  0  0  0  0  0  0  0  0  0  0  0
  142.4930   81.2570  219.8160 H   0  0  0  0  0  0  0  0  0  0  0  0
  142.8204   81.9541  222.4474 H   0  0  0  0  0  0  0  0  0  0  0  0
  142.5422   81.0916  224.8010 H   0  0  0  0  0  0  0  0  0  0  0  0
  141.7222   78.7565  225.1980 H   0  0  0  0  0  0  0  0  0  0  0  0
  141.1548   77.2647  223.2450 H   0  0  0  0  0  0  0  0  0  0  0  0
  1  2  2  0
  2  3  2  0
  2  4  1  0
  4  5  1  0
  5  6  2  0
  6  7  1  0
  7  8  2  0
  8  9  1  0
  9 10  1  0
 10 11  1  0
 10 12  1  0
 10 13  1  0
  9 14  2  0
  2 15  1  0
 15 16  1  0
 16 17  1  0
 17 18  1  0
 18 19  2  0
 19 20  1  0
 20 21  2  0
 21 22  1  0
 22 23  2  0
 23 24  1  0
 24 25  1  0
 25 26  2  0
 26 27  1  0
 27 28  1  0
 28 29  2  0
 29 30  1  0
 30 31  2  0
 31 32  1  0
 32 33  2  0
 14  5  1  0
 24 15  1  0
 33 25  1  0
 23 18  1  0
 33 28  1  0
  4 34  1  0
  4 35  1  0
  6 36  1  0
  7 37  1  0
  8 38  1  0
 14 39  1  0
 16 40  1  0
 16 41  1  0
 17 42  1  0
 17 43  1  0
 19 44  1  0
 20 45  1  0
 21 46  1  0
 22 47  1  0
 24 48  1  6
 26 49  1  0
 27 50  1  0
 29 51  1  0
 30 52  1  0
 31 53  1  0
 32 54  1  0
M  END
>  <UniqueID>  (37) 
202

>  <SMILES>  (37) 
O=S(=O)(Cc1cccc(C(F)(F)F)c1)N1CCc2ccccc2[C@@H]1c1c[nH]c2ccccc12

>  <Energy>  (37) 
96.66385639821564

>  <Genealogy>  (37) 
O=S(=O)(Cc1cccc(C(F)(F)F)c1)N1CCc2ccccc2[C@@H]1c1c[nH]c2ccccc12 (3D coordinates assigned)
O=S(=O)(Cc1cccc(C(F)(F)F)c1)N1CCc2ccccc2[C@@H]1c1c[nH]c2ccccc12 (nonaromatic ring conformer: 96.66385639821564 kcal/mol)

>  <smiles>  (37) 
O=S(=O)(Cc1cccc(C(F)(F)F)c1)N1CCc2ccccc2[C@@H]1c1c[nH]c2ccccc12

>  <score_type>  (37) 
oracle

>  <origin>  (37) 
autodockgpu

>  <m_score__min__energy>  (37) 
-8.0600000000000005

>  <m_primary>  (37) 
energy

>  <meeko>  (37) 
{"free_energy": -6.67, "intermolecular_energy": -8.16, "internal_energy": -3.38, "cluster_size": 16, "cluster_id": 3, "rank_in_cluster": 14}

>  <energy>  (37) 
-6.67

>  <cluster_rmsd>  (37) 
0.12

>  <rmsd>  (37) 
270.93

>  <cluster>  (37) 
3

$$$$
GJSDZOHBAHKEKD-XMMPIXPANA-N
     RDKit          3D

 54 58  0  0  0  0  0  0  0  0999 V2000
  138.4270   77.5030  218.8310 O   0  0  0  0  0  0  0  0  0  0  0  0
  138.1110   76.9880  220.2070 S   0  0  0  0  0  0  0  0  0  0  0  0
  137.3600   75.6950  220.0540 O   0  0  0  0  0  0  0  0  0  0  0  0
  137.0570   78.1980  221.0200 C   0  0  0  0  0  0  0  0  0  0  0  0
  137.8510   79.2460  221.7580 C   0  0  0  0  0  0  0  0  0  0  0  0
  138.0450   79.1540  223.1470 C   0  0  0  0  0  0  0  0  0  0  0  0
  138.7500   80.1500  223.8280 C   0  0  0  0  0  0  0  0  0  0  0  0
  139.2650   81.2470  223.1320 C   0  0  0  0  0  0  0  0  0  0  0  0
  139.0680   81.3660  221.7430 C   0  0  0  0  0  0  0  0  0  0  0  0
  139.6560   82.5320  220.9860 C   0  0  0  0  0  0  0  0  0  0  0  0
  138.7290   83.5560  220.8750 F   0  0  0  0  0  0  0  0  0  0  0  0
  140.7710   83.0030  221.6620 F   0  0  0  0  0  0  0  0  0  0  0  0
  140.0310   82.1470  219.7060 F   0  0  0  0  0  0  0  0  0  0  0  0
  138.3900   80.3410  221.0580 C   0  0  0  0  0  0  0  0  0  0  0  0
  139.6140   76.6730  221.0530 N   0  0  0  0  0  0  0  0  0  0  0  0
  139.5580   75.5170  221.9710 C   0  0  0  0  0  0  0  0  0  0  0  0
  140.1440   74.2480  221.3640 C   0  0  0  0  0  0  0  0  0  0  0  0
  141.5310   74.5040  220.8640 C   0  0  0  0  0  0  0  0  0  0  0  0
  142.4760   73.4640  220.8610 C   0  0  0  0  0  0  0  0  0  0  0  0
  143.7480   73.6670  220.3210 C   0  0  0  0  0  0  0  0  0  0  0  0
  144.0790   74.9000  219.7570 C   0  0  0  0  0  0  0  0  0  0  0  0
  143.1390   75.9340  219.7390 C   0  0  0  0  0  0  0  0  0  0  0  0
  141.8640   75.7580  220.3170 C   0  0  0  0  0  0  0  0  0  0  0  0
  140.8270   76.8690  220.2180 C   0  0  2  0  0  0  0  0  0  0  0  0
  141.4190   78.2140  220.5570 C   0  0  0  0  0  0  0  0  0  0  0  0
  141.7400   79.2160  219.6410 C   0  0  0  0  0  0  0  0  0  0  0  0
  142.1810   80.3220  220.2830 N   0  0  0  0  0  0  0  0  0  0  0  0
  142.1350   80.0330  221.5970 C   0  0  0  0  0  0  0  0  0  0  0  0
  142.4760   80.8750  222.6570 C   0  0  0  0  0  0  0  0  0  0  0  0
  142.3360   80.3750  223.9670 C   0  0  0  0  0  0  0  0  0  0  0  0
  141.8730   79.0580  224.1860 C   0  0  0  0  0  0  0  0  0  0  0  0
  141.5400   78.2290  223.0960 C   0  0  0  0  0  0  0  0  0  0  0  0
  141.6760   78.7560  221.8070 C   0  0  0  0  0  0  0  0  0  0  0  0
  136.4371   78.6948  220.2592 H   0  0  0  0  0  0  0  0  0  0  0  0
  136.4388   77.6641  221.7567 H   0  0  0  0  0  0  0  0  0  0  0  0
  137.6400   78.2940  223.7006 H   0  0  0  0  0  0  0  0  0  0  0  0
  138.9000   80.0703  224.9148 H   0  0  0  0  0  0  0  0  0  0  0  0
  139.8277   82.0222  223.6727 H   0  0  0  0  0  0  0  0  0  0  0  0
  138.2803   80.3962  219.9649 H   0  0  0  0  0  0  0  0  0  0  0  0
  140.1238   75.7642  222.8814 H   0  0  0  0  0  0  0  0  0  0  0  0
  138.4979   75.3195  222.1884 H   0  0  0  0  0  0  0  0  0  0  0  0
  140.1743   73.4596  222.1305 H   0  0  0  0  0  0  0  0  0  0  0  0
  139.5128   73.9300  220.5211 H   0  0  0  0  0  0  0  0  0  0  0  0
  142.2124   72.4844  221.2864 H   0  0  0  0  0  0  0  0  0  0  0  0
  144.4894   72.8546  220.3402 H   0  0  0  0  0  0  0  0  0  0  0  0
  145.0791   75.0578  219.3270 H   0  0  0  0  0  0  0  0  0  0  0  0
  143.3958   76.8950  219.2694 H   0  0  0  0  0  0  0  0  0  0  0  0
  140.5095   76.8314  219.1655 H   0  0  0  0  0  0  0  0  0  0  0  0
  141.6474   79.1201  218.5491 H   0  0  0  0  0  0  0  0  0  0  0  0
  142.4840   81.2210  219.8430 H   0  0  0  0  0  0  0  0  0  0  0  0
  142.8423   81.8962  222.4754 H   0  0  0  0  0  0  0  0  0  0  0  0
  142.5890   81.0146  224.8254 H   0  0  0  0  0  0  0  0  0  0  0  0
  141.7719   78.6776  225.2132 H   0  0  0  0  0  0  0  0  0  0  0  0
  141.1844   77.2001  223.2536 H   0  0  0  0  0  0  0  0  0  0  0  0
  1  2  2  0
  2  3  2  0
  2  4  1  0
  4  5  1  0
  5  6  2  0
  6  7  1  0
  7  8  2  0
  8  9  1  0
  9 10  1  0
 10 11  1  0
 10 12  1  0
 10 13  1  0
  9 14  2  0
  2 15  1  0
 15 16  1  0
 16 17  1  0
 17 18  1  0
 18 19  2  0
 19 20  1  0
 20 21  2  0
 21 22  1  0
 22 23  2  0
 23 24  1  0
 24 25  1  0
 25 26  2  0
 26 27  1  0
 27 28  1  0
 28 29  2  0
 29 30  1  0
 30 31  2  0
 31 32  1  0
 32 33  2  0
 14  5  1  0
 24 15  1  0
 33 25  1  0
 23 18  1  0
 33 28  1  0
  4 34  1  0
  4 35  1  0
  6 36  1  0
  7 37  1  0
  8 38  1  0
 14 39  1  0
 16 40  1  0
 16 41  1  0
 17 42  1  0
 17 43  1  0
 19 44  1  0
 20 45  1  0
 21 46  1  0
 22 47  1  0
 24 48  1  6
 26 49  1  0
 27 50  1  0
 29 51  1  0
 30 52  1  0
 31 53  1  0
 32 54  1  0
M  END
>  <UniqueID>  (38) 
202

>  <SMILES>  (38) 
O=S(=O)(Cc1cccc(C(F)(F)F)c1)N1CCc2ccccc2[C@@H]1c1c[nH]c2ccccc12

>  <Energy>  (38) 
96.66385639821564

>  <Genealogy>  (38) 
O=S(=O)(Cc1cccc(C(F)(F)F)c1)N1CCc2ccccc2[C@@H]1c1c[nH]c2ccccc12 (3D coordinates assigned)
O=S(=O)(Cc1cccc(C(F)(F)F)c1)N1CCc2ccccc2[C@@H]1c1c[nH]c2ccccc12 (nonaromatic ring conformer: 96.66385639821564 kcal/mol)

>  <smiles>  (38) 
O=S(=O)(Cc1cccc(C(F)(F)F)c1)N1CCc2ccccc2[C@@H]1c1c[nH]c2ccccc12

>  <score_type>  (38) 
oracle

>  <origin>  (38) 
autodockgpu

>  <m_score__min__energy>  (38) 
-8.0600000000000005

>  <m_primary>  (38) 
energy

>  <meeko>  (38) 
{"free_energy": -6.7, "intermolecular_energy": -8.19, "internal_energy": -3.35, "cluster_size": 16, "cluster_id": 3, "rank_in_cluster": 2}

>  <energy>  (38) 
-6.67

>  <cluster_rmsd>  (38) 
0.06

>  <rmsd>  (38) 
270.91

>  <cluster>  (38) 
3

$$$$
GJSDZOHBAHKEKD-XMMPIXPANA-N
     RDKit          3D

 54 58  0  0  0  0  0  0  0  0999 V2000
  138.5570   82.6530  218.1460 O   0  0  0  0  0  0  0  0  0  0  0  0
  138.7850   81.4290  218.9880 S   0  0  0  0  0  0  0  0  0  0  0  0
  138.5880   80.2240  218.1110 O   0  0  0  0  0  0  0  0  0  0  0  0
  137.5510   81.4230  220.2970 C   0  0  0  0  0  0  0  0  0  0  0  0
  137.9930   80.6230  221.4960 C   0  0  0  0  0  0  0  0  0  0  0  0
  138.2300   81.2510  222.7310 C   0  0  0  0  0  0  0  0  0  0  0  0
  138.6760   80.5070  223.8270 C   0  0  0  0  0  0  0  0  0  0  0  0
  138.8920   79.1320  223.7010 C   0  0  0  0  0  0  0  0  0  0  0  0
  138.6750   78.4860  222.4700 C   0  0  0  0  0  0  0  0  0  0  0  0
  138.8740   76.9950  222.3440 C   0  0  0  0  0  0  0  0  0  0  0  0
  137.9790   76.3160  223.1560 F   0  0  0  0  0  0  0  0  0  0  0  0
  138.6670   76.6140  221.0270 F   0  0  0  0  0  0  0  0  0  0  0  0
  140.1600   76.6380  222.7230 F   0  0  0  0  0  0  0  0  0  0  0  0
  138.1910   79.2350  221.3810 C   0  0  0  0  0  0  0  0  0  0  0  0
  140.4380   81.4400  219.5690 N   0  0  0  0  0  0  0  0  0  0  0  0
  140.8710   82.7360  220.1320 C   0  0  0  0  0  0  0  0  0  0  0  0
  140.8000   82.7760  221.6530 C   0  0  0  0  0  0  0  0  0  0  0  0
  141.5570   81.6260  222.2390 C   0  0  0  0  0  0  0  0  0  0  0  0
  142.1700   81.7610  223.4960 C   0  0  0  0  0  0  0  0  0  0  0  0
  142.8100   80.6710  224.0910 C   0  0  0  0  0  0  0  0  0  0  0  0
  142.8210   79.4320  223.4490 C   0  0  0  0  0  0  0  0  0  0  0  0
  142.1990   79.2850  222.2060 C   0  0  0  0  0  0  0  0  0  0  0  0
  141.5840   80.3850  221.5730 C   0  0  0  0  0  0  0  0  0  0  0  0
  140.8430   80.1870  220.2570 C   0  0  2  0  0  0  0  0  0  0  0  0
  141.6450   79.3560  219.2880 C   0  0  0  0  0  0  0  0  0  0  0  0
  142.2990   79.8340  218.1530 C   0  0  0  0  0  0  0  0  0  0  0  0
  142.9850   78.8400  217.5460 N   0  0  0  0  0  0  0  0  0  0  0  0
  142.7780   77.7370  218.2890 C   0  0  0  0  0  0  0  0  0  0  0  0
  143.3010   76.4620  218.0700 C   0  0  0  0  0  0  0  0  0  0  0  0
  142.9690   75.4450  218.9880 C   0  0  0  0  0  0  0  0  0  0  0  0
  142.1250   75.7210  220.0870 C   0  0  0  0  0  0  0  0  0  0  0  0
  141.6080   77.0170  220.2820 C   0  0  0  0  0  0  0  0  0  0  0  0
  141.9640   78.0090  219.3620 C   0  0  0  0  0  0  0  0  0  0  0  0
  137.3651   82.4602  220.6127 H   0  0  0  0  0  0  0  0  0  0  0  0
  136.6390   80.9551  219.8977 H   0  0  0  0  0  0  0  0  0  0  0  0
  138.0636   82.3333  222.8355 H   0  0  0  0  0  0  0  0  0  0  0  0
  138.8574   81.0049  224.7909 H   0  0  0  0  0  0  0  0  0  0  0  0
  139.2340   78.5509  224.5701 H   0  0  0  0  0  0  0  0  0  0  0  0
  137.9653   78.7298  220.4303 H   0  0  0  0  0  0  0  0  0  0  0  0
  141.9105   82.9224  219.8243 H   0  0  0  0  0  0  0  0  0  0  0  0
  140.1859   83.5070  219.7496 H   0  0  0  0  0  0  0  0  0  0  0  0
  141.2378   83.7191  222.0120 H   0  0  0  0  0  0  0  0  0  0  0  0
  139.7471   82.7067  221.9638 H   0  0  0  0  0  0  0  0  0  0  0  0
  142.1459   82.7307  224.0147 H   0  0  0  0  0  0  0  0  0  0  0  0
  143.3054   80.7894  225.0659 H   0  0  0  0  0  0  0  0  0  0  0  0
  143.3187   78.5719  223.9207 H   0  0  0  0  0  0  0  0  0  0  0  0
  142.1891   78.3002  221.7159 H   0  0  0  0  0  0  0  0  0  0  0  0
  139.9217   79.6656  220.5558 H   0  0  0  0  0  0  0  0  0  0  0  0
  142.2618   80.8753  217.8006 H   0  0  0  0  0  0  0  0  0  0  0  0
  143.5670   78.9190  216.6800 H   0  0  0  0  0  0  0  0  0  0  0  0
  143.9523   76.2568  217.2076 H   0  0  0  0  0  0  0  0  0  0  0  0
  143.3695   74.4302  218.8478 H   0  0  0  0  0  0  0  0  0  0  0  0
  141.8699   74.9187  220.7950 H   0  0  0  0  0  0  0  0  0  0  0  0
  140.9454   77.2418  221.1308 H   0  0  0  0  0  0  0  0  0  0  0  0
  1  2  2  0
  2  3  2  0
  2  4  1  0
  4  5  1  0
  5  6  2  0
  6  7  1  0
  7  8  2  0
  8  9  1  0
  9 10  1  0
 10 11  1  0
 10 12  1  0
 10 13  1  0
  9 14  2  0
  2 15  1  0
 15 16  1  0
 16 17  1  0
 17 18  1  0
 18 19  2  0
 19 20  1  0
 20 21  2  0
 21 22  1  0
 22 23  2  0
 23 24  1  0
 24 25  1  0
 25 26  2  0
 26 27  1  0
 27 28  1  0
 28 29  2  0
 29 30  1  0
 30 31  2  0
 31 32  1  0
 32 33  2  0
 14  5  1  0
 24 15  1  0
 33 25  1  0
 23 18  1  0
 33 28  1  0
  4 34  1  0
  4 35  1  0
  6 36  1  0
  7 37  1  0
  8 38  1  0
 14 39  1  0
 16 40  1  0
 16 41  1  0
 17 42  1  0
 17 43  1  0
 19 44  1  0
 20 45  1  0
 21 46  1  0
 22 47  1  0
 24 48  1  1
 26 49  1  0
 27 50  1  0
 29 51  1  0
 30 52  1  0
 31 53  1  0
 32 54  1  0
M  END
>  <UniqueID>  (39) 
202

>  <SMILES>  (39) 
O=S(=O)(Cc1cccc(C(F)(F)F)c1)N1CCc2ccccc2[C@@H]1c1c[nH]c2ccccc12

>  <Energy>  (39) 
96.66385639821564

>  <Genealogy>  (39) 
O=S(=O)(Cc1cccc(C(F)(F)F)c1)N1CCc2ccccc2[C@@H]1c1c[nH]c2ccccc12 (3D coordinates assigned)
O=S(=O)(Cc1cccc(C(F)(F)F)c1)N1CCc2ccccc2[C@@H]1c1c[nH]c2ccccc12 (nonaromatic ring conformer: 96.66385639821564 kcal/mol)

>  <smiles>  (39) 
O=S(=O)(Cc1cccc(C(F)(F)F)c1)N1CCc2ccccc2[C@@H]1c1c[nH]c2ccccc12

>  <score_type>  (39) 
oracle

>  <origin>  (39) 
autodockgpu

>  <m_score__min__energy>  (39) 
-8.0600000000000005

>  <m_primary>  (39) 
energy

>  <meeko>  (39) 
{"free_energy": -6.91, "intermolecular_energy": -8.4, "internal_energy": -3.07, "cluster_size": 3, "cluster_id": 2, "rank_in_cluster": 1}

>  <energy>  (39) 
-6.66

>  <cluster_rmsd>  (39) 
0.07

>  <rmsd>  (39) 
270.89

>  <cluster>  (39) 
3

$$$$
GJSDZOHBAHKEKD-XMMPIXPANA-N
     RDKit          3D

 54 58  0  0  0  0  0  0  0  0999 V2000
  138.3780   77.5360  218.9830 O   0  0  0  0  0  0  0  0  0  0  0  0
  138.1080   76.9530  220.3410 S   0  0  0  0  0  0  0  0  0  0  0  0
  137.3940   75.6450  220.1470 O   0  0  0  0  0  0  0  0  0  0  0  0
  137.0360   78.0930  221.2280 C   0  0  0  0  0  0  0  0  0  0  0  0
  137.8100   79.1880  221.9170 C   0  0  0  0  0  0  0  0  0  0  0  0
  137.9890   79.1730  223.3120 C   0  0  0  0  0  0  0  0  0  0  0  0
  138.6750   80.2120  223.9460 C   0  0  0  0  0  0  0  0  0  0  0  0
  139.1850   81.2760  223.1980 C   0  0  0  0  0  0  0  0  0  0  0  0
  139.0030   81.3190  221.8030 C   0  0  0  0  0  0  0  0  0  0  0  0
  139.5860   82.4500  220.9910 C   0  0  0  0  0  0  0  0  0  0  0  0
  140.7220   82.9540  221.6040 F   0  0  0  0  0  0  0  0  0  0  0  0
  139.9230   81.9830  219.7290 F   0  0  0  0  0  0  0  0  0  0  0  0
  138.6690   83.4840  220.8610 F   0  0  0  0  0  0  0  0  0  0  0  0
  138.3440   80.2510  221.1660 C   0  0  0  0  0  0  0  0  0  0  0  0
  139.6380   76.6480  221.1420 N   0  0  0  0  0  0  0  0  0  0  0  0
  139.6180   75.4920  222.0610 C   0  0  0  0  0  0  0  0  0  0  0  0
  140.1940   74.2270  221.4370 C   0  0  0  0  0  0  0  0  0  0  0  0
  141.5640   74.4930  220.8950 C   0  0  0  0  0  0  0  0  0  0  0  0
  142.5140   73.4590  220.8650 C   0  0  0  0  0  0  0  0  0  0  0  0
  143.7690   73.6700  220.2870 C   0  0  0  0  0  0  0  0  0  0  0  0
  144.0740   74.9050  219.7130 C   0  0  0  0  0  0  0  0  0  0  0  0
  143.1270   75.9320  219.7230 C   0  0  0  0  0  0  0  0  0  0  0  0
  141.8710   75.7480  220.3380 C   0  0  0  0  0  0  0  0  0  0  0  0
  140.8250   76.8520  220.2710 C   0  0  2  0  0  0  0  0  0  0  0  0
  141.4170   78.2020  220.5920 C   0  0  0  0  0  0  0  0  0  0  0  0
  141.7430   79.1890  219.6620 C   0  0  0  0  0  0  0  0  0  0  0  0
  142.1830   80.3040  220.2890 N   0  0  0  0  0  0  0  0  0  0  0  0
  142.1320   80.0350  221.6070 C   0  0  0  0  0  0  0  0  0  0  0  0
  142.4690   80.8920  222.6550 C   0  0  0  0  0  0  0  0  0  0  0  0
  142.3250   80.4120  223.9730 C   0  0  0  0  0  0  0  0  0  0  0  0
  141.8590   79.0990  224.2090 C   0  0  0  0  0  0  0  0  0  0  0  0
  141.5280   78.2550  223.1310 C   0  0  0  0  0  0  0  0  0  0  0  0
  141.6700   78.7620  221.8350 C   0  0  0  0  0  0  0  0  0  0  0  0
  136.3369   78.5505  220.5124 H   0  0  0  0  0  0  0  0  0  0  0  0
  136.5025   77.5206  222.0011 H   0  0  0  0  0  0  0  0  0  0  0  0
  137.5870   78.3394  223.9066 H   0  0  0  0  0  0  0  0  0  0  0  0
  138.8139   80.1922  225.0370 H   0  0  0  0  0  0  0  0  0  0  0  0
  139.7325   82.0856  223.7027 H   0  0  0  0  0  0  0  0  0  0  0  0
  138.2455   80.2474  220.0704 H   0  0  0  0  0  0  0  0  0  0  0  0
  140.2094   75.7434  222.9538 H   0  0  0  0  0  0  0  0  0  0  0  0
  138.5663   75.2872  222.3102 H   0  0  0  0  0  0  0  0  0  0  0  0
  140.2531   73.4392  222.2024 H   0  0  0  0  0  0  0  0  0  0  0  0
  139.5398   73.9039  220.6138 H   0  0  0  0  0  0  0  0  0  0  0  0
  142.2692   72.4782  221.2986 H   0  0  0  0  0  0  0  0  0  0  0  0
  144.5162   72.8627  220.2845 H   0  0  0  0  0  0  0  0  0  0  0  0
  145.0595   75.0697  219.2530 H   0  0  0  0  0  0  0  0  0  0  0  0
  143.3634   76.8946  219.2461 H   0  0  0  0  0  0  0  0  0  0  0  0
  140.4774   76.8119  219.2281 H   0  0  0  0  0  0  0  0  0  0  0  0
  141.6547   79.0765  218.5713 H   0  0  0  0  0  0  0  0  0  0  0  0
  142.4890   81.1950  219.8360 H   0  0  0  0  0  0  0  0  0  0  0  0
  142.8356   81.9105  222.4592 H   0  0  0  0  0  0  0  0  0  0  0  0
  142.5770   81.0636  224.8227 H   0  0  0  0  0  0  0  0  0  0  0  0
  141.7541   78.7337  225.2412 H   0  0  0  0  0  0  0  0  0  0  0  0
  141.1691   77.2295  223.3028 H   0  0  0  0  0  0  0  0  0  0  0  0
  1  2  2  0
  2  3  2  0
  2  4  1  0
  4  5  1  0
  5  6  2  0
  6  7  1  0
  7  8  2  0
  8  9  1  0
  9 10  1  0
 10 11  1  0
 10 12  1  0
 10 13  1  0
  9 14  2  0
  2 15  1  0
 15 16  1  0
 16 17  1  0
 17 18  1  0
 18 19  2  0
 19 20  1  0
 20 21  2  0
 21 22  1  0
 22 23  2  0
 23 24  1  0
 24 25  1  0
 25 26  2  0
 26 27  1  0
 27 28  1  0
 28 29  2  0
 29 30  1  0
 30 31  2  0
 31 32  1  0
 32 33  2  0
 14  5  1  0
 24 15  1  0
 33 25  1  0
 23 18  1  0
 33 28  1  0
  4 34  1  0
  4 35  1  0
  6 36  1  0
  7 37  1  0
  8 38  1  0
 14 39  1  0
 16 40  1  0
 16 41  1  0
 17 42  1  0
 17 43  1  0
 19 44  1  0
 20 45  1  0
 21 46  1  0
 22 47  1  0
 24 48  1  6
 26 49  1  0
 27 50  1  0
 29 51  1  0
 30 52  1  0
 31 53  1  0
 32 54  1  0
M  END
>  <UniqueID>  (40) 
202

>  <SMILES>  (40) 
O=S(=O)(Cc1cccc(C(F)(F)F)c1)N1CCc2ccccc2[C@@H]1c1c[nH]c2ccccc12

>  <Energy>  (40) 
96.66385639821564

>  <Genealogy>  (40) 
O=S(=O)(Cc1cccc(C(F)(F)F)c1)N1CCc2ccccc2[C@@H]1c1c[nH]c2ccccc12 (3D coordinates assigned)
O=S(=O)(Cc1cccc(C(F)(F)F)c1)N1CCc2ccccc2[C@@H]1c1c[nH]c2ccccc12 (nonaromatic ring conformer: 96.66385639821564 kcal/mol)

>  <smiles>  (40) 
O=S(=O)(Cc1cccc(C(F)(F)F)c1)N1CCc2ccccc2[C@@H]1c1c[nH]c2ccccc12

>  <score_type>  (40) 
oracle

>  <origin>  (40) 
autodockgpu

>  <m_score__min__energy>  (40) 
-8.0600000000000005

>  <m_primary>  (40) 
energy

>  <meeko>  (40) 
{"free_energy": -6.69, "intermolecular_energy": -8.18, "internal_energy": -3.37, "cluster_size": 16, "cluster_id": 3, "rank_in_cluster": 5}

>  <energy>  (40) 
-6.61

>  <cluster_rmsd>  (40) 
0.57

>  <rmsd>  (40) 
270.95

>  <cluster>  (40) 
3

$$$$
GJSDZOHBAHKEKD-XMMPIXPANA-N
     RDKit          3D

 54 58  0  0  0  0  0  0  0  0999 V2000
  138.6280   82.6180  218.0520 O   0  0  0  0  0  0  0  0  0  0  0  0
  138.8240   81.4260  218.9460 S   0  0  0  0  0  0  0  0  0  0  0  0
  138.6160   80.1890  218.1180 O   0  0  0  0  0  0  0  0  0  0  0  0
  137.5760   81.4950  220.2400 C   0  0  0  0  0  0  0  0  0  0  0  0
  137.9740   80.7080  221.4630 C   0  0  0  0  0  0  0  0  0  0  0  0
  138.1510   81.3470  222.7020 C   0  0  0  0  0  0  0  0  0  0  0  0
  138.5570   80.6160  223.8220 C   0  0  0  0  0  0  0  0  0  0  0  0
  138.7940   79.2430  223.7150 C   0  0  0  0  0  0  0  0  0  0  0  0
  138.6380   78.5860  222.4800 C   0  0  0  0  0  0  0  0  0  0  0  0
  138.8580   77.0970  222.3730 C   0  0  0  0  0  0  0  0  0  0  0  0
  137.9910   76.4160  223.2130 F   0  0  0  0  0  0  0  0  0  0  0  0
  138.6330   76.6920  221.0670 F   0  0  0  0  0  0  0  0  0  0  0  0
  140.1580   76.7660  222.7320 F   0  0  0  0  0  0  0  0  0  0  0  0
  138.1930   79.3210  221.3660 C   0  0  0  0  0  0  0  0  0  0  0  0
  140.4710   81.4330  219.5470 N   0  0  0  0  0  0  0  0  0  0  0  0
  140.9020   82.7290  220.1110 C   0  0  0  0  0  0  0  0  0  0  0  0
  140.8140   82.7720  221.6320 C   0  0  0  0  0  0  0  0  0  0  0  0
  141.5600   81.6210  222.2290 C   0  0  0  0  0  0  0  0  0  0  0  0
  142.1590   81.7570  223.4920 C   0  0  0  0  0  0  0  0  0  0  0  0
  142.7880   80.6650  224.0970 C   0  0  0  0  0  0  0  0  0  0  0  0
  142.8020   79.4250  223.4580 C   0  0  0  0  0  0  0  0  0  0  0  0
  142.1940   79.2770  222.2090 C   0  0  0  0  0  0  0  0  0  0  0  0
  141.5900   80.3780  221.5660 C   0  0  0  0  0  0  0  0  0  0  0  0
  140.8640   80.1800  220.2420 C   0  0  2  0  0  0  0  0  0  0  0  0
  141.6740   79.3430  219.2840 C   0  0  0  0  0  0  0  0  0  0  0  0
  142.3650   79.8220  218.1710 C   0  0  0  0  0  0  0  0  0  0  0  0
  143.0480   78.8200  217.5700 N   0  0  0  0  0  0  0  0  0  0  0  0
  142.8010   77.7140  218.2960 C   0  0  0  0  0  0  0  0  0  0  0  0
  143.3050   76.4310  218.0760 C   0  0  0  0  0  0  0  0  0  0  0  0
  142.9310   75.4110  218.9740 C   0  0  0  0  0  0  0  0  0  0  0  0
  142.0640   75.6920  220.0550 C   0  0  0  0  0  0  0  0  0  0  0  0
  141.5680   76.9950  220.2510 C   0  0  0  0  0  0  0  0  0  0  0  0
  141.9660   77.9900  219.3510 C   0  0  0  0  0  0  0  0  0  0  0  0
  137.4245   82.5454  220.5294 H   0  0  0  0  0  0  0  0  0  0  0  0
  136.6526   81.0506  219.8403 H   0  0  0  0  0  0  0  0  0  0  0  0
  137.9691   82.4282  222.7909 H   0  0  0  0  0  0  0  0  0  0  0  0
  138.6902   81.1224  224.7894 H   0  0  0  0  0  0  0  0  0  0  0  0
  139.1047   78.6716  224.6021 H   0  0  0  0  0  0  0  0  0  0  0  0
  138.0145   78.8068  220.4101 H   0  0  0  0  0  0  0  0  0  0  0  0
  141.9454   82.9114  219.8144 H   0  0  0  0  0  0  0  0  0  0  0  0
  140.2243   83.5016  219.7189 H   0  0  0  0  0  0  0  0  0  0  0  0
  141.2509   83.7143  221.9941 H   0  0  0  0  0  0  0  0  0  0  0  0
  139.7574   82.7066  221.9308 H   0  0  0  0  0  0  0  0  0  0  0  0
  142.1331   82.7281  224.0080 H   0  0  0  0  0  0  0  0  0  0  0  0
  143.2722   80.7835  225.0776 H   0  0  0  0  0  0  0  0  0  0  0  0
  143.2915   78.5644  223.9373 H   0  0  0  0  0  0  0  0  0  0  0  0
  142.1861   78.2910  221.7214 H   0  0  0  0  0  0  0  0  0  0  0  0
  139.9373   79.6626  220.5309 H   0  0  0  0  0  0  0  0  0  0  0  0
  142.3561   80.8676  217.8296 H   0  0  0  0  0  0  0  0  0  0  0  0
  143.6520   78.8980  216.7210 H   0  0  0  0  0  0  0  0  0  0  0  0
  143.9736   76.2224  217.2278 H   0  0  0  0  0  0  0  0  0  0  0  0
  143.3159   74.3902  218.8330 H   0  0  0  0  0  0  0  0  0  0  0  0
  141.7752   74.8874  220.7473 H   0  0  0  0  0  0  0  0  0  0  0  0
  140.8888   77.2238  221.0855 H   0  0  0  0  0  0  0  0  0  0  0  0
  1  2  2  0
  2  3  2  0
  2  4  1  0
  4  5  1  0
  5  6  2  0
  6  7  1  0
  7  8  2  0
  8  9  1  0
  9 10  1  0
 10 11  1  0
 10 12  1  0
 10 13  1  0
  9 14  2  0
  2 15  1  0
 15 16  1  0
 16 17  1  0
 17 18  1  0
 18 19  2  0
 19 20  1  0
 20 21  2  0
 21 22  1  0
 22 23  2  0
 23 24  1  0
 24 25  1  0
 25 26  2  0
 26 27  1  0
 27 28  1  0
 28 29  2  0
 29 30  1  0
 30 31  2  0
 31 32  1  0
 32 33  2  0
 14  5  1  0
 24 15  1  0
 33 25  1  0
 23 18  1  0
 33 28  1  0
  4 34  1  0
  4 35  1  0
  6 36  1  0
  7 37  1  0
  8 38  1  0
 14 39  1  0
 16 40  1  0
 16 41  1  0
 17 42  1  0
 17 43  1  0
 19 44  1  0
 20 45  1  0
 21 46  1  0
 22 47  1  0
 24 48  1  1
 26 49  1  0
 27 50  1  0
 29 51  1  0
 30 52  1  0
 31 53  1  0
 32 54  1  0
M  END
>  <UniqueID>  (41) 
203

>  <SMILES>  (41) 
O=S(=O)(Cc1cccc(C(F)(F)F)c1)N1CCc2ccccc2[C@@H]1c1c[nH]c2ccccc12

>  <Energy>  (41) 
96.75575672887283

>  <Genealogy>  (41) 
O=S(=O)(Cc1cccc(C(F)(F)F)c1)N1CCc2ccccc2[C@@H]1c1c[nH]c2ccccc12 (3D coordinates assigned)
O=S(=O)(Cc1cccc(C(F)(F)F)c1)N1CCc2ccccc2[C@@H]1c1c[nH]c2ccccc12 (nonaromatic ring conformer: 96.75575672887283 kcal/mol)

>  <smiles>  (41) 
O=S(=O)(Cc1cccc(C(F)(F)F)c1)N1CCc2ccccc2[C@@H]1c1c[nH]c2ccccc12

>  <score_type>  (41) 
oracle

>  <origin>  (41) 
autodockgpu

>  <m_score__min__energy>  (41) 
-8.0600000000000005

>  <m_primary>  (41) 
energy

>  <meeko>  (41) 
{"free_energy": -6.87, "intermolecular_energy": -8.36, "internal_energy": -3.12, "cluster_size": 3, "cluster_id": 2, "rank_in_cluster": 3}

>  <energy>  (41) 
-8.06

>  <cluster_rmsd>  (41) 
0.0

>  <rmsd>  (41) 
270.35

>  <cluster>  (41) 
1

$$$$
GJSDZOHBAHKEKD-XMMPIXPANA-N
     RDKit          3D

 54 58  0  0  0  0  0  0  0  0999 V2000
  138.4150   77.5100  218.9050 O   0  0  0  0  0  0  0  0  0  0  0  0
  138.1200   76.9580  220.2710 S   0  0  0  0  0  0  0  0  0  0  0  0
  137.3880   75.6580  220.0950 O   0  0  0  0  0  0  0  0  0  0  0  0
  137.0550   78.1320  221.1230 C   0  0  0  0  0  0  0  0  0  0  0  0
  137.8400   79.2060  221.8330 C   0  0  0  0  0  0  0  0  0  0  0  0
  138.0170   79.1630  223.2270 C   0  0  0  0  0  0  0  0  0  0  0  0
  138.7130   80.1820  223.8820 C   0  0  0  0  0  0  0  0  0  0  0  0
  139.2350   81.2550  223.1540 C   0  0  0  0  0  0  0  0  0  0  0  0
  139.0550   81.3260  221.7600 C   0  0  0  0  0  0  0  0  0  0  0  0
  139.6500   82.4660  220.9700 C   0  0  0  0  0  0  0  0  0  0  0  0
  140.7870   82.9500  221.5970 F   0  0  0  0  0  0  0  0  0  0  0  0
  139.9880   82.0190  219.7020 F   0  0  0  0  0  0  0  0  0  0  0  0
  138.7420   83.5090  220.8550 F   0  0  0  0  0  0  0  0  0  0  0  0
  138.3850   80.2780  221.1030 C   0  0  0  0  0  0  0  0  0  0  0  0
  139.6350   76.6460  221.0950 N   0  0  0  0  0  0  0  0  0  0  0  0
  139.5930   75.4950  222.0210 C   0  0  0  0  0  0  0  0  0  0  0  0
  140.1690   74.2230  221.4120 C   0  0  0  0  0  0  0  0  0  0  0  0
  141.5480   74.4750  220.8890 C   0  0  0  0  0  0  0  0  0  0  0  0
  142.4910   73.4340  220.8780 C   0  0  0  0  0  0  0  0  0  0  0  0
  143.7560   73.6330  220.3170 C   0  0  0  0  0  0  0  0  0  0  0  0
  144.0790   74.8620  219.7410 C   0  0  0  0  0  0  0  0  0  0  0  0
  143.1400   75.8960  219.7320 C   0  0  0  0  0  0  0  0  0  0  0  0
  141.8730   75.7260  220.3300 C   0  0  0  0  0  0  0  0  0  0  0  0
  140.8360   76.8370  220.2410 C   0  0  2  0  0  0  0  0  0  0  0  0
  141.4340   78.1830  220.5630 C   0  0  0  0  0  0  0  0  0  0  0  0
  141.7600   79.1720  219.6350 C   0  0  0  0  0  0  0  0  0  0  0  0
  142.2060   80.2840  220.2620 N   0  0  0  0  0  0  0  0  0  0  0  0
  142.1590   80.0120  221.5800 C   0  0  0  0  0  0  0  0  0  0  0  0
  142.5030   80.8650  222.6290 C   0  0  0  0  0  0  0  0  0  0  0  0
  142.3610   80.3820  223.9460 C   0  0  0  0  0  0  0  0  0  0  0  0
  141.8920   79.0700  224.1810 C   0  0  0  0  0  0  0  0  0  0  0  0
  141.5550   78.2300  223.1020 C   0  0  0  0  0  0  0  0  0  0  0  0
  141.6940   78.7400  221.8060 C   0  0  0  0  0  0  0  0  0  0  0  0
  136.3917   78.6076  220.3856 H   0  0  0  0  0  0  0  0  0  0  0  0
  136.4815   77.5778  221.8806 H   0  0  0  0  0  0  0  0  0  0  0  0
  137.6053   78.3226  223.8051 H   0  0  0  0  0  0  0  0  0  0  0  0
  138.8504   80.1398  224.9726 H   0  0  0  0  0  0  0  0  0  0  0  0
  139.7903   82.0494  223.6742 H   0  0  0  0  0  0  0  0  0  0  0  0
  138.2862   80.2969  220.0076 H   0  0  0  0  0  0  0  0  0  0  0  0
  140.1731   75.7472  222.9209 H   0  0  0  0  0  0  0  0  0  0  0  0
  138.5365   75.2992  222.2566 H   0  0  0  0  0  0  0  0  0  0  0  0
  140.2109   73.4388  222.1822 H   0  0  0  0  0  0  0  0  0  0  0  0
  139.5247   73.9012  220.5806 H   0  0  0  0  0  0  0  0  0  0  0  0
  142.2328   72.4572  221.3130 H   0  0  0  0  0  0  0  0  0  0  0  0
  144.4970   72.8202  220.3297 H   0  0  0  0  0  0  0  0  0  0  0  0
  145.0723   75.0165  219.2943 H   0  0  0  0  0  0  0  0  0  0  0  0
  143.3910   76.8540  219.2532 H   0  0  0  0  0  0  0  0  0  0  0  0
  140.5025   76.7944  219.1936 H   0  0  0  0  0  0  0  0  0  0  0  0
  141.6672   79.0626  218.5444 H   0  0  0  0  0  0  0  0  0  0  0  0
  142.5130   81.1760  219.8110 H   0  0  0  0  0  0  0  0  0  0  0  0
  142.8734   81.8824  222.4347 H   0  0  0  0  0  0  0  0  0  0  0  0
  142.6171   81.0310  224.7964 H   0  0  0  0  0  0  0  0  0  0  0  0
  141.7895   78.7026  225.2127 H   0  0  0  0  0  0  0  0  0  0  0  0
  141.1938   77.2051  223.2725 H   0  0  0  0  0  0  0  0  0  0  0  0
  1  2  2  0
  2  3  2  0
  2  4  1  0
  4  5  1  0
  5  6  2  0
  6  7  1  0
  7  8  2  0
  8  9  1  0
  9 10  1  0
 10 11  1  0
 10 12  1  0
 10 13  1  0
  9 14  2  0
  2 15  1  0
 15 16  1  0
 16 17  1  0
 17 18  1  0
 18 19  2  0
 19 20  1  0
 20 21  2  0
 21 22  1  0
 22 23  2  0
 23 24  1  0
 24 25  1  0
 25 26  2  0
 26 27  1  0
 27 28  1  0
 28 29  2  0
 29 30  1  0
 30 31  2  0
 31 32  1  0
 32 33  2  0
 14  5  1  0
 24 15  1  0
 33 25  1  0
 23 18  1  0
 33 28  1  0
  4 34  1  0
  4 35  1  0
  6 36  1  0
  7 37  1  0
  8 38  1  0
 14 39  1  0
 16 40  1  0
 16 41  1  0
 17 42  1  0
 17 43  1  0
 19 44  1  0
 20 45  1  0
 21 46  1  0
 22 47  1  0
 24 48  1  6
 26 49  1  0
 27 50  1  0
 29 51  1  0
 30 52  1  0
 31 53  1  0
 32 54  1  0
M  END
>  <UniqueID>  (42) 
203

>  <SMILES>  (42) 
O=S(=O)(Cc1cccc(C(F)(F)F)c1)N1CCc2ccccc2[C@@H]1c1c[nH]c2ccccc12

>  <Energy>  (42) 
96.75575672887283

>  <Genealogy>  (42) 
O=S(=O)(Cc1cccc(C(F)(F)F)c1)N1CCc2ccccc2[C@@H]1c1c[nH]c2ccccc12 (3D coordinates assigned)
O=S(=O)(Cc1cccc(C(F)(F)F)c1)N1CCc2ccccc2[C@@H]1c1c[nH]c2ccccc12 (nonaromatic ring conformer: 96.75575672887283 kcal/mol)

>  <smiles>  (42) 
O=S(=O)(Cc1cccc(C(F)(F)F)c1)N1CCc2ccccc2[C@@H]1c1c[nH]c2ccccc12

>  <score_type>  (42) 
oracle

>  <origin>  (42) 
autodockgpu

>  <m_score__min__energy>  (42) 
-8.0600000000000005

>  <m_primary>  (42) 
energy

>  <meeko>  (42) 
{"free_energy": -6.67, "intermolecular_energy": -8.17, "internal_energy": -3.37, "cluster_size": 16, "cluster_id": 3, "rank_in_cluster": 10}

>  <energy>  (42) 
-6.91

>  <cluster_rmsd>  (42) 
0.0

>  <rmsd>  (42) 
270.82

>  <cluster>  (42) 
2

$$$$
GJSDZOHBAHKEKD-XMMPIXPANA-N
     RDKit          3D

 54 58  0  0  0  0  0  0  0  0999 V2000
  138.4080   77.5570  218.8740 O   0  0  0  0  0  0  0  0  0  0  0  0
  138.1140   76.9860  220.2320 S   0  0  0  0  0  0  0  0  0  0  0  0
  137.3950   75.6800  220.0370 O   0  0  0  0  0  0  0  0  0  0  0  0
  137.0340   78.1390  221.0920 C   0  0  0  0  0  0  0  0  0  0  0  0
  137.8030   79.2260  221.7990 C   0  0  0  0  0  0  0  0  0  0  0  0
  137.9770   79.1940  223.1940 C   0  0  0  0  0  0  0  0  0  0  0  0
  138.6590   80.2250  223.8440 C   0  0  0  0  0  0  0  0  0  0  0  0
  139.1710   81.2990  223.1110 C   0  0  0  0  0  0  0  0  0  0  0  0
  138.9950   81.3600  221.7160 C   0  0  0  0  0  0  0  0  0  0  0  0
  139.5800   82.5010  220.9210 C   0  0  0  0  0  0  0  0  0  0  0  0
  138.6490   83.5180  220.7740 F   0  0  0  0  0  0  0  0  0  0  0  0
  140.6920   82.9990  221.5830 F   0  0  0  0  0  0  0  0  0  0  0  0
  139.9580   82.0750  219.6560 F   0  0  0  0  0  0  0  0  0  0  0  0
  138.3400   80.2990  221.0630 C   0  0  0  0  0  0  0  0  0  0  0  0
  139.6280   76.6790  221.0590 N   0  0  0  0  0  0  0  0  0  0  0  0
  139.5910   75.5240  221.9800 C   0  0  0  0  0  0  0  0  0  0  0  0
  140.1760   74.2580  221.3670 C   0  0  0  0  0  0  0  0  0  0  0  0
  141.5550   74.5200  220.8490 C   0  0  0  0  0  0  0  0  0  0  0  0
  142.5040   73.4850  220.8360 C   0  0  0  0  0  0  0  0  0  0  0  0
  143.7690   73.6930  220.2790 C   0  0  0  0  0  0  0  0  0  0  0  0
  144.0860   74.9270  219.7090 C   0  0  0  0  0  0  0  0  0  0  0  0
  143.1410   75.9560  219.7010 C   0  0  0  0  0  0  0  0  0  0  0  0
  141.8740   75.7750  220.2950 C   0  0  0  0  0  0  0  0  0  0  0  0
  140.8310   76.8810  220.2090 C   0  0  2  0  0  0  0  0  0  0  0  0
  141.4200   78.2290  220.5380 C   0  0  0  0  0  0  0  0  0  0  0  0
  141.7520   79.2200  219.6140 C   0  0  0  0  0  0  0  0  0  0  0  0
  142.1860   80.3330  220.2460 N   0  0  0  0  0  0  0  0  0  0  0  0
  142.1260   80.0600  221.5630 C   0  0  0  0  0  0  0  0  0  0  0  0
  142.4550   80.9140  222.6170 C   0  0  0  0  0  0  0  0  0  0  0  0
  142.3010   80.4300  223.9320 C   0  0  0  0  0  0  0  0  0  0  0  0
  141.8340   79.1160  224.1610 C   0  0  0  0  0  0  0  0  0  0  0  0
  141.5120   78.2750  223.0780 C   0  0  0  0  0  0  0  0  0  0  0  0
  141.6640   78.7860  221.7840 C   0  0  0  0  0  0  0  0  0  0  0  0
  136.3577   78.6036  220.3593 H   0  0  0  0  0  0  0  0  0  0  0  0
  136.4757   77.5732  221.8524 H   0  0  0  0  0  0  0  0  0  0  0  0
  137.5738   78.3524  223.7764 H   0  0  0  0  0  0  0  0  0  0  0  0
  138.7934   80.1916  224.9352 H   0  0  0  0  0  0  0  0  0  0  0  0
  139.7156   82.1027  223.6282 H   0  0  0  0  0  0  0  0  0  0  0  0
  138.2469   80.3084  219.9670 H   0  0  0  0  0  0  0  0  0  0  0  0
  140.1676   75.7759  222.8822 H   0  0  0  0  0  0  0  0  0  0  0  0
  138.5352   75.3208  222.2124 H   0  0  0  0  0  0  0  0  0  0  0  0
  140.2201   73.4706  222.1339 H   0  0  0  0  0  0  0  0  0  0  0  0
  139.5358   73.9363  220.5323 H   0  0  0  0  0  0  0  0  0  0  0  0
  142.2504   72.5051  221.2666 H   0  0  0  0  0  0  0  0  0  0  0  0
  144.5146   72.8843  220.2899 H   0  0  0  0  0  0  0  0  0  0  0  0
  145.0797   75.0893  219.2661 H   0  0  0  0  0  0  0  0  0  0  0  0
  143.3873   76.9174  219.2266 H   0  0  0  0  0  0  0  0  0  0  0  0
  140.5007   76.8413  219.1605 H   0  0  0  0  0  0  0  0  0  0  0  0
  141.6717   79.1107  218.5224 H   0  0  0  0  0  0  0  0  0  0  0  0
  142.4950   81.2260  219.7990 H   0  0  0  0  0  0  0  0  0  0  0  0
  142.8230   81.9331  222.4273 H   0  0  0  0  0  0  0  0  0  0  0  0
  142.5459   81.0793  224.7854 H   0  0  0  0  0  0  0  0  0  0  0  0
  141.7213   78.7477  225.1914 H   0  0  0  0  0  0  0  0  0  0  0  0
  141.1523   77.2488  223.2441 H   0  0  0  0  0  0  0  0  0  0  0  0
  1  2  2  0
  2  3  2  0
  2  4  1  0
  4  5  1  0
  5  6  2  0
  6  7  1  0
  7  8  2  0
  8  9  1  0
  9 10  1  0
 10 11  1  0
 10 12  1  0
 10 13  1  0
  9 14  2  0
  2 15  1  0
 15 16  1  0
 16 17  1  0
 17 18  1  0
 18 19  2  0
 19 20  1  0
 20 21  2  0
 21 22  1  0
 22 23  2  0
 23 24  1  0
 24 25  1  0
 25 26  2  0
 26 27  1  0
 27 28  1  0
 28 29  2  0
 29 30  1  0
 30 31  2  0
 31 32  1  0
 32 33  2  0
 14  5  1  0
 24 15  1  0
 33 25  1  0
 23 18  1  0
 33 28  1  0
  4 34  1  0
  4 35  1  0
  6 36  1  0
  7 37  1  0
  8 38  1  0
 14 39  1  0
 16 40  1  0
 16 41  1  0
 17 42  1  0
 17 43  1  0
 19 44  1  0
 20 45  1  0
 21 46  1  0
 22 47  1  0
 24 48  1  6
 26 49  1  0
 27 50  1  0
 29 51  1  0
 30 52  1  0
 31 53  1  0
 32 54  1  0
M  END
>  <UniqueID>  (43) 
203

>  <SMILES>  (43) 
O=S(=O)(Cc1cccc(C(F)(F)F)c1)N1CCc2ccccc2[C@@H]1c1c[nH]c2ccccc12

>  <Energy>  (43) 
96.75575672887283

>  <Genealogy>  (43) 
O=S(=O)(Cc1cccc(C(F)(F)F)c1)N1CCc2ccccc2[C@@H]1c1c[nH]c2ccccc12 (3D coordinates assigned)
O=S(=O)(Cc1cccc(C(F)(F)F)c1)N1CCc2ccccc2[C@@H]1c1c[nH]c2ccccc12 (nonaromatic ring conformer: 96.75575672887283 kcal/mol)

>  <smiles>  (43) 
O=S(=O)(Cc1cccc(C(F)(F)F)c1)N1CCc2ccccc2[C@@H]1c1c[nH]c2ccccc12

>  <score_type>  (43) 
oracle

>  <origin>  (43) 
autodockgpu

>  <m_score__min__energy>  (43) 
-8.0600000000000005

>  <m_primary>  (43) 
energy

>  <meeko>  (43) 
{"free_energy": -6.68, "intermolecular_energy": -8.17, "internal_energy": -3.38, "cluster_size": 16, "cluster_id": 3, "rank_in_cluster": 9}

>  <energy>  (43) 
-6.9

>  <cluster_rmsd>  (43) 
0.05

>  <rmsd>  (43) 
270.82

>  <cluster>  (43) 
2

$$$$
GJSDZOHBAHKEKD-XMMPIXPANA-N
     RDKit          3D

 54 58  0  0  0  0  0  0  0  0999 V2000
  138.4290   77.5160  218.8310 O   0  0  0  0  0  0  0  0  0  0  0  0
  138.1160   76.9950  220.2050 S   0  0  0  0  0  0  0  0  0  0  0  0
  137.3700   75.6990  220.0470 O   0  0  0  0  0  0  0  0  0  0  0  0
  137.0570   78.1980  221.0220 C   0  0  0  0  0  0  0  0  0  0  0  0
  137.8470   79.2470  221.7620 C   0  0  0  0  0  0  0  0  0  0  0  0
  138.0340   79.1590  223.1530 C   0  0  0  0  0  0  0  0  0  0  0  0
  138.7360   80.1560  223.8350 C   0  0  0  0  0  0  0  0  0  0  0  0
  139.2540   81.2510  223.1390 C   0  0  0  0  0  0  0  0  0  0  0  0
  139.0650   81.3670  221.7490 C   0  0  0  0  0  0  0  0  0  0  0  0
  139.6560   82.5320  220.9920 C   0  0  0  0  0  0  0  0  0  0  0  0
  140.7880   83.0050  221.6360 F   0  0  0  0  0  0  0  0  0  0  0  0
  140.0020   82.1200  219.7140 F   0  0  0  0  0  0  0  0  0  0  0  0
  138.7420   83.5720  220.9010 F   0  0  0  0  0  0  0  0  0  0  0  0
  138.3890   80.3410  221.0630 C   0  0  0  0  0  0  0  0  0  0  0  0
  139.6190   76.6820  221.0490 N   0  0  0  0  0  0  0  0  0  0  0  0
  139.5650   75.5280  221.9710 C   0  0  0  0  0  0  0  0  0  0  0  0
  140.1510   74.2580  221.3660 C   0  0  0  0  0  0  0  0  0  0  0  0
  141.5370   74.5130  220.8630 C   0  0  0  0  0  0  0  0  0  0  0  0
  142.4810   73.4730  220.8630 C   0  0  0  0  0  0  0  0  0  0  0  0
  143.7530   73.6740  220.3200 C   0  0  0  0  0  0  0  0  0  0  0  0
  144.0830   74.9050  219.7520 C   0  0  0  0  0  0  0  0  0  0  0  0
  143.1430   75.9390  219.7330 C   0  0  0  0  0  0  0  0  0  0  0  0
  141.8690   75.7660  220.3120 C   0  0  0  0  0  0  0  0  0  0  0  0
  140.8320   76.8760  220.2130 C   0  0  2  0  0  0  0  0  0  0  0  0
  141.4240   78.2220  220.5470 C   0  0  0  0  0  0  0  0  0  0  0  0
  141.7550   79.2170  219.6270 C   0  0  0  0  0  0  0  0  0  0  0  0
  142.1930   80.3260  220.2640 N   0  0  0  0  0  0  0  0  0  0  0  0
  142.1360   80.0470  221.5800 C   0  0  0  0  0  0  0  0  0  0  0  0
  142.4690   80.8940  222.6370 C   0  0  0  0  0  0  0  0  0  0  0  0
  142.3180   80.4040  223.9500 C   0  0  0  0  0  0  0  0  0  0  0  0
  141.8500   79.0900  224.1730 C   0  0  0  0  0  0  0  0  0  0  0  0
  141.5240   78.2540  223.0870 C   0  0  0  0  0  0  0  0  0  0  0  0
  141.6720   78.7720  221.7960 C   0  0  0  0  0  0  0  0  0  0  0  0
  136.4343   78.6942  220.2630 H   0  0  0  0  0  0  0  0  0  0  0  0
  136.4414   77.6595  221.7576 H   0  0  0  0  0  0  0  0  0  0  0  0
  137.6255   78.3009  223.7069 H   0  0  0  0  0  0  0  0  0  0  0  0
  138.8812   80.0786  224.9226 H   0  0  0  0  0  0  0  0  0  0  0  0
  139.8134   82.0278  223.6809 H   0  0  0  0  0  0  0  0  0  0  0  0
  138.2833   80.3949  219.9694 H   0  0  0  0  0  0  0  0  0  0  0  0
  140.1321   75.7779  222.8798 H   0  0  0  0  0  0  0  0  0  0  0  0
  138.5055   75.3305  222.1911 H   0  0  0  0  0  0  0  0  0  0  0  0
  140.1830   73.4715  222.1343 H   0  0  0  0  0  0  0  0  0  0  0  0
  139.5186   73.9381  220.5247 H   0  0  0  0  0  0  0  0  0  0  0  0
  142.2178   72.4952  221.2926 H   0  0  0  0  0  0  0  0  0  0  0  0
  144.4942   72.8615  220.3404 H   0  0  0  0  0  0  0  0  0  0  0  0
  145.0822   75.0615  219.3195 H   0  0  0  0  0  0  0  0  0  0  0  0
  143.3999   76.8988  219.2610 H   0  0  0  0  0  0  0  0  0  0  0  0
  140.5130   76.8352  219.1610 H   0  0  0  0  0  0  0  0  0  0  0  0
  141.6713   79.1136  218.5351 H   0  0  0  0  0  0  0  0  0  0  0  0
  142.5010   81.2210  219.8210 H   0  0  0  0  0  0  0  0  0  0  0  0
  142.8382   81.9134  222.4515 H   0  0  0  0  0  0  0  0  0  0  0  0
  142.5661   81.0487  224.8061 H   0  0  0  0  0  0  0  0  0  0  0  0
  141.7394   78.7169  225.2019 H   0  0  0  0  0  0  0  0  0  0  0  0
  141.1647   77.2270  223.2489 H   0  0  0  0  0  0  0  0  0  0  0  0
  1  2  2  0
  2  3  2  0
  2  4  1  0
  4  5  1  0
  5  6  2  0
  6  7  1  0
  7  8  2  0
  8  9  1  0
  9 10  1  0
 10 11  1  0
 10 12  1  0
 10 13  1  0
  9 14  2  0
  2 15  1  0
 15 16  1  0
 16 17  1  0
 17 18  1  0
 18 19  2  0
 19 20  1  0
 20 21  2  0
 21 22  1  0
 22 23  2  0
 23 24  1  0
 24 25  1  0
 25 26  2  0
 26 27  1  0
 27 28  1  0
 28 29  2  0
 29 30  1  0
 30 31  2  0
 31 32  1  0
 32 33  2  0
 14  5  1  0
 24 15  1  0
 33 25  1  0
 23 18  1  0
 33 28  1  0
  4 34  1  0
  4 35  1  0
  6 36  1  0
  7 37  1  0
  8 38  1  0
 14 39  1  0
 16 40  1  0
 16 41  1  0
 17 42  1  0
 17 43  1  0
 19 44  1  0
 20 45  1  0
 21 46  1  0
 22 47  1  0
 24 48  1  6
 26 49  1  0
 27 50  1  0
 29 51  1  0
 30 52  1  0
 31 53  1  0
 32 54  1  0
M  END
>  <UniqueID>  (44) 
203

>  <SMILES>  (44) 
O=S(=O)(Cc1cccc(C(F)(F)F)c1)N1CCc2ccccc2[C@@H]1c1c[nH]c2ccccc12

>  <Energy>  (44) 
96.75575672887283

>  <Genealogy>  (44) 
O=S(=O)(Cc1cccc(C(F)(F)F)c1)N1CCc2ccccc2[C@@H]1c1c[nH]c2ccccc12 (3D coordinates assigned)
O=S(=O)(Cc1cccc(C(F)(F)F)c1)N1CCc2ccccc2[C@@H]1c1c[nH]c2ccccc12 (nonaromatic ring conformer: 96.75575672887283 kcal/mol)

>  <smiles>  (44) 
O=S(=O)(Cc1cccc(C(F)(F)F)c1)N1CCc2ccccc2[C@@H]1c1c[nH]c2ccccc12

>  <score_type>  (44) 
oracle

>  <origin>  (44) 
autodockgpu

>  <m_score__min__energy>  (44) 
-8.0600000000000005

>  <m_primary>  (44) 
energy

>  <meeko>  (44) 
{"free_energy": -6.72, "intermolecular_energy": -8.22, "internal_energy": -3.34, "cluster_size": 16, "cluster_id": 3, "rank_in_cluster": 1}

>  <energy>  (44) 
-6.87

>  <cluster_rmsd>  (44) 
0.08

>  <rmsd>  (44) 
270.83

>  <cluster>  (44) 
2

$$$$
GJSDZOHBAHKEKD-XMMPIXPANA-N
     RDKit          3D

 54 58  0  0  0  0  0  0  0  0999 V2000
  138.4200   77.5640  218.8420 O   0  0  0  0  0  0  0  0  0  0  0  0
  138.1090   76.9990  220.2000 S   0  0  0  0  0  0  0  0  0  0  0  0
  137.3860   75.6960  220.0020 O   0  0  0  0  0  0  0  0  0  0  0  0
  137.0270   78.1600  221.0460 C   0  0  0  0  0  0  0  0  0  0  0  0
  137.7960   79.2270  221.7840 C   0  0  0  0  0  0  0  0  0  0  0  0
  137.9580   79.1600  223.1790 C   0  0  0  0  0  0  0  0  0  0  0  0
  138.6400   80.1730  223.8590 C   0  0  0  0  0  0  0  0  0  0  0  0
  139.1620   81.2620  223.1550 C   0  0  0  0  0  0  0  0  0  0  0  0
  138.9980   81.3560  221.7610 C   0  0  0  0  0  0  0  0  0  0  0  0
  139.5940   82.5130  220.9970 C   0  0  0  0  0  0  0  0  0  0  0  0
  139.9620   82.1160  219.7220 F   0  0  0  0  0  0  0  0  0  0  0  0
  138.6570   83.5310  220.9010 F   0  0  0  0  0  0  0  0  0  0  0  0
  140.7230   82.9970  221.6430 F   0  0  0  0  0  0  0  0  0  0  0  0
  138.3430   80.3140  221.0780 C   0  0  0  0  0  0  0  0  0  0  0  0
  139.6140   76.6870  221.0420 N   0  0  0  0  0  0  0  0  0  0  0  0
  139.5670   75.5260  221.9540 C   0  0  0  0  0  0  0  0  0  0  0  0
  140.1600   74.2650  221.3390 C   0  0  0  0  0  0  0  0  0  0  0  0
  141.5450   74.5320  220.8390 C   0  0  0  0  0  0  0  0  0  0  0  0
  142.4960   73.4980  220.8300 C   0  0  0  0  0  0  0  0  0  0  0  0
  143.7670   73.7120  220.2890 C   0  0  0  0  0  0  0  0  0  0  0  0
  144.0890   74.9490  219.7320 C   0  0  0  0  0  0  0  0  0  0  0  0
  143.1440   75.9780  219.7220 C   0  0  0  0  0  0  0  0  0  0  0  0
  141.8700   75.7910  220.2990 C   0  0  0  0  0  0  0  0  0  0  0  0
  140.8260   76.8970  220.2080 C   0  0  2  0  0  0  0  0  0  0  0  0
  141.4100   78.2430  220.5550 C   0  0  0  0  0  0  0  0  0  0  0  0
  141.7380   79.2470  219.6430 C   0  0  0  0  0  0  0  0  0  0  0  0
  142.1680   80.3540  220.2900 N   0  0  0  0  0  0  0  0  0  0  0  0
  142.1090   80.0640  221.6030 C   0  0  0  0  0  0  0  0  0  0  0  0
  142.4350   80.9050  222.6680 C   0  0  0  0  0  0  0  0  0  0  0  0
  142.2830   80.4040  223.9760 C   0  0  0  0  0  0  0  0  0  0  0  0
  141.8220   79.0850  224.1890 C   0  0  0  0  0  0  0  0  0  0  0  0
  141.5030   78.2560  223.0950 C   0  0  0  0  0  0  0  0  0  0  0  0
  141.6520   78.7850  221.8080 C   0  0  0  0  0  0  0  0  0  0  0  0
  136.3766   78.6435  220.3022 H   0  0  0  0  0  0  0  0  0  0  0  0
  136.4411   77.5953  221.7862 H   0  0  0  0  0  0  0  0  0  0  0  0
  137.5462   78.3066  223.7377 H   0  0  0  0  0  0  0  0  0  0  0  0
  138.7662   80.1131  224.9501 H   0  0  0  0  0  0  0  0  0  0  0  0
  139.7051   82.0515  223.6951 H   0  0  0  0  0  0  0  0  0  0  0  0
  138.2580   80.3500  219.9819 H   0  0  0  0  0  0  0  0  0  0  0  0
  140.1328   75.7719  222.8647 H   0  0  0  0  0  0  0  0  0  0  0  0
  138.5087   75.3205  222.1726 H   0  0  0  0  0  0  0  0  0  0  0  0
  140.1959   73.4722  222.1007 H   0  0  0  0  0  0  0  0  0  0  0  0
  139.5299   73.9486  220.4947 H   0  0  0  0  0  0  0  0  0  0  0  0
  142.2391   72.5147  221.2509 H   0  0  0  0  0  0  0  0  0  0  0  0
  144.5135   72.9042  220.3027 H   0  0  0  0  0  0  0  0  0  0  0  0
  145.0871   75.1147  219.3004 H   0  0  0  0  0  0  0  0  0  0  0  0
  143.3957   76.9438  219.2596 H   0  0  0  0  0  0  0  0  0  0  0  0
  140.5081   76.8654  219.1554 H   0  0  0  0  0  0  0  0  0  0  0  0
  141.6580   79.1513  218.5501 H   0  0  0  0  0  0  0  0  0  0  0  0
  142.4730   81.2540  219.8540 H   0  0  0  0  0  0  0  0  0  0  0  0
  142.7995   81.9278  222.4916 H   0  0  0  0  0  0  0  0  0  0  0  0
  142.5248   81.0438  224.8375 H   0  0  0  0  0  0  0  0  0  0  0  0
  141.7116   78.7033  225.2147 H   0  0  0  0  0  0  0  0  0  0  0  0
  141.1482   77.2260  223.2478 H   0  0  0  0  0  0  0  0  0  0  0  0
  1  2  2  0
  2  3  2  0
  2  4  1  0
  4  5  1  0
  5  6  2  0
  6  7  1  0
  7  8  2  0
  8  9  1  0
  9 10  1  0
 10 11  1  0
 10 12  1  0
 10 13  1  0
  9 14  2  0
  2 15  1  0
 15 16  1  0
 16 17  1  0
 17 18  1  0
 18 19  2  0
 19 20  1  0
 20 21  2  0
 21 22  1  0
 22 23  2  0
 23 24  1  0
 24 25  1  0
 25 26  2  0
 26 27  1  0
 27 28  1  0
 28 29  2  0
 29 30  1  0
 30 31  2  0
 31 32  1  0
 32 33  2  0
 14  5  1  0
 24 15  1  0
 33 25  1  0
 23 18  1  0
 33 28  1  0
  4 34  1  0
  4 35  1  0
  6 36  1  0
  7 37  1  0
  8 38  1  0
 14 39  1  0
 16 40  1  0
 16 41  1  0
 17 42  1  0
 17 43  1  0
 19 44  1  0
 20 45  1  0
 21 46  1  0
 22 47  1  0
 24 48  1  6
 26 49  1  0
 27 50  1  0
 29 51  1  0
 30 52  1  0
 31 53  1  0
 32 54  1  0
M  END
>  <UniqueID>  (45) 
203

>  <SMILES>  (45) 
O=S(=O)(Cc1cccc(C(F)(F)F)c1)N1CCc2ccccc2[C@@H]1c1c[nH]c2ccccc12

>  <Energy>  (45) 
96.75575672887283

>  <Genealogy>  (45) 
O=S(=O)(Cc1cccc(C(F)(F)F)c1)N1CCc2ccccc2[C@@H]1c1c[nH]c2ccccc12 (3D coordinates assigned)
O=S(=O)(Cc1cccc(C(F)(F)F)c1)N1CCc2ccccc2[C@@H]1c1c[nH]c2ccccc12 (nonaromatic ring conformer: 96.75575672887283 kcal/mol)

>  <smiles>  (45) 
O=S(=O)(Cc1cccc(C(F)(F)F)c1)N1CCc2ccccc2[C@@H]1c1c[nH]c2ccccc12

>  <score_type>  (45) 
oracle

>  <origin>  (45) 
autodockgpu

>  <m_score__min__energy>  (45) 
-8.0600000000000005

>  <m_primary>  (45) 
energy

>  <meeko>  (45) 
{"free_energy": -6.7, "intermolecular_energy": -8.19, "internal_energy": -3.37, "cluster_size": 16, "cluster_id": 3, "rank_in_cluster": 3}

>  <energy>  (45) 
-6.72

>  <cluster_rmsd>  (45) 
0.0

>  <rmsd>  (45) 
270.92

>  <cluster>  (45) 
3

$$$$
GJSDZOHBAHKEKD-XMMPIXPANA-N
     RDKit          3D

 54 58  0  0  0  0  0  0  0  0999 V2000
  138.3970   77.5520  218.8360 O   0  0  0  0  0  0  0  0  0  0  0  0
  138.0880   77.0120  220.2040 S   0  0  0  0  0  0  0  0  0  0  0  0
  137.3540   75.7110  220.0310 O   0  0  0  0  0  0  0  0  0  0  0  0
  137.0180   78.1950  221.0350 C   0  0  0  0  0  0  0  0  0  0  0  0
  137.7980   79.2550  221.7710 C   0  0  0  0  0  0  0  0  0  0  0  0
  137.9790   79.1780  223.1630 C   0  0  0  0  0  0  0  0  0  0  0  0
  138.6710   80.1850  223.8410 C   0  0  0  0  0  0  0  0  0  0  0  0
  139.1860   81.2780  223.1390 C   0  0  0  0  0  0  0  0  0  0  0  0
  139.0020   81.3820  221.7470 C   0  0  0  0  0  0  0  0  0  0  0  0
  139.5900   82.5450  220.9850 C   0  0  0  0  0  0  0  0  0  0  0  0
  140.7200   83.0260  221.6270 F   0  0  0  0  0  0  0  0  0  0  0  0
  139.9380   82.1280  219.7090 F   0  0  0  0  0  0  0  0  0  0  0  0
  138.6720   83.5820  220.8880 F   0  0  0  0  0  0  0  0  0  0  0  0
  138.3370   80.3470  221.0660 C   0  0  0  0  0  0  0  0  0  0  0  0
  139.5940   76.7030  221.0450 N   0  0  0  0  0  0  0  0  0  0  0  0
  139.5450   75.5490  221.9670 C   0  0  0  0  0  0  0  0  0  0  0  0
  140.1340   74.2810  221.3610 C   0  0  0  0  0  0  0  0  0  0  0  0
  141.5180   74.5400  220.8560 C   0  0  0  0  0  0  0  0  0  0  0  0
  142.4650   73.5030  220.8530 C   0  0  0  0  0  0  0  0  0  0  0  0
  143.7350   73.7080  220.3080 C   0  0  0  0  0  0  0  0  0  0  0  0
  144.0610   74.9400  219.7390 C   0  0  0  0  0  0  0  0  0  0  0  0
  143.1180   75.9710  219.7220 C   0  0  0  0  0  0  0  0  0  0  0  0
  141.8450   75.7930  220.3040 C   0  0  0  0  0  0  0  0  0  0  0  0
  140.8050   76.9010  220.2060 C   0  0  2  0  0  0  0  0  0  0  0  0
  141.3930   78.2490  220.5400 C   0  0  0  0  0  0  0  0  0  0  0  0
  141.7130   79.2470  219.6190 C   0  0  0  0  0  0  0  0  0  0  0  0
  142.1510   80.3570  220.2560 N   0  0  0  0  0  0  0  0  0  0  0  0
  142.1050   80.0740  221.5710 C   0  0  0  0  0  0  0  0  0  0  0  0
  142.4430   80.9210  222.6280 C   0  0  0  0  0  0  0  0  0  0  0  0
  142.3040   80.4270  223.9400 C   0  0  0  0  0  0  0  0  0  0  0  0
  141.8430   79.1100  224.1640 C   0  0  0  0  0  0  0  0  0  0  0  0
  141.5130   78.2750  223.0780 C   0  0  0  0  0  0  0  0  0  0  0  0
  141.6490   78.7970  221.7870 C   0  0  0  0  0  0  0  0  0  0  0  0
  136.3800   78.6832  220.2837 H   0  0  0  0  0  0  0  0  0  0  0  0
  136.4187   77.6442  221.7749 H   0  0  0  0  0  0  0  0  0  0  0  0
  137.5740   78.3210  223.7211 H   0  0  0  0  0  0  0  0  0  0  0  0
  138.8107   80.1171  224.9300 H   0  0  0  0  0  0  0  0  0  0  0  0
  139.7386   82.0621  223.6773 H   0  0  0  0  0  0  0  0  0  0  0  0
  138.2372   80.3914  219.9714 H   0  0  0  0  0  0  0  0  0  0  0  0
  140.1127   75.8007  222.8749 H   0  0  0  0  0  0  0  0  0  0  0  0
  138.4865   75.3482  222.1889 H   0  0  0  0  0  0  0  0  0  0  0  0
  140.1695   73.4945  222.1292 H   0  0  0  0  0  0  0  0  0  0  0  0
  139.5013   73.9594  220.5206 H   0  0  0  0  0  0  0  0  0  0  0  0
  142.2054   72.5240  221.2821 H   0  0  0  0  0  0  0  0  0  0  0  0
  144.4786   72.8977  220.3274 H   0  0  0  0  0  0  0  0  0  0  0  0
  145.0589   75.0992  219.3045 H   0  0  0  0  0  0  0  0  0  0  0  0
  143.3708   76.9318  219.2498 H   0  0  0  0  0  0  0  0  0  0  0  0
  140.4856   76.8602  219.1542 H   0  0  0  0  0  0  0  0  0  0  0  0
  141.6218   79.1454  218.5275 H   0  0  0  0  0  0  0  0  0  0  0  0
  142.4530   81.2540  219.8120 H   0  0  0  0  0  0  0  0  0  0  0  0
  142.8066   81.9424  222.4422 H   0  0  0  0  0  0  0  0  0  0  0  0
  142.5560   81.0706  224.7957 H   0  0  0  0  0  0  0  0  0  0  0  0
  141.7411   78.7343  225.1928 H   0  0  0  0  0  0  0  0  0  0  0  0
  141.1598   77.2459  223.2400 H   0  0  0  0  0  0  0  0  0  0  0  0
  1  2  2  0
  2  3  2  0
  2  4  1  0
  4  5  1  0
  5  6  2  0
  6  7  1  0
  7  8  2  0
  8  9  1  0
  9 10  1  0
 10 11  1  0
 10 12  1  0
 10 13  1  0
  9 14  2  0
  2 15  1  0
 15 16  1  0
 16 17  1  0
 17 18  1  0
 18 19  2  0
 19 20  1  0
 20 21  2  0
 21 22  1  0
 22 23  2  0
 23 24  1  0
 24 25  1  0
 25 26  2  0
 26 27  1  0
 27 28  1  0
 28 29  2  0
 29 30  1  0
 30 31  2  0
 31 32  1  0
 32 33  2  0
 14  5  1  0
 24 15  1  0
 33 25  1  0
 23 18  1  0
 33 28  1  0
  4 34  1  0
  4 35  1  0
  6 36  1  0
  7 37  1  0
  8 38  1  0
 14 39  1  0
 16 40  1  0
 16 41  1  0
 17 42  1  0
 17 43  1  0
 19 44  1  0
 20 45  1  0
 21 46  1  0
 22 47  1  0
 24 48  1  6
 26 49  1  0
 27 50  1  0
 29 51  1  0
 30 52  1  0
 31 53  1  0
 32 54  1  0
M  END
>  <UniqueID>  (46) 
203

>  <SMILES>  (46) 
O=S(=O)(Cc1cccc(C(F)(F)F)c1)N1CCc2ccccc2[C@@H]1c1c[nH]c2ccccc12

>  <Energy>  (46) 
96.75575672887283

>  <Genealogy>  (46) 
O=S(=O)(Cc1cccc(C(F)(F)F)c1)N1CCc2ccccc2[C@@H]1c1c[nH]c2ccccc12 (3D coordinates assigned)
O=S(=O)(Cc1cccc(C(F)(F)F)c1)N1CCc2ccccc2[C@@H]1c1c[nH]c2ccccc12 (nonaromatic ring conformer: 96.75575672887283 kcal/mol)

>  <smiles>  (46) 
O=S(=O)(Cc1cccc(C(F)(F)F)c1)N1CCc2ccccc2[C@@H]1c1c[nH]c2ccccc12

>  <score_type>  (46) 
oracle

>  <origin>  (46) 
autodockgpu

>  <m_score__min__energy>  (46) 
-8.0600000000000005

>  <m_primary>  (46) 
energy

>  <meeko>  (46) 
{"free_energy": -6.68, "intermolecular_energy": -8.18, "internal_energy": -3.37, "cluster_size": 16, "cluster_id": 3, "rank_in_cluster": 8}

>  <energy>  (46) 
-6.7

>  <cluster_rmsd>  (46) 
0.02

>  <rmsd>  (46) 
270.92

>  <cluster>  (46) 
3

$$$$
GJSDZOHBAHKEKD-XMMPIXPANA-N
     RDKit          3D

 54 58  0  0  0  0  0  0  0  0999 V2000
  138.0770   76.1090  219.0240 O   0  0  0  0  0  0  0  0  0  0  0  0
  138.0990   76.8700  220.3190 S   0  0  0  0  0  0  0  0  0  0  0  0
  136.9900   76.3400  221.1840 O   0  0  0  0  0  0  0  0  0  0  0  0
  137.7900   78.6030  219.9470 C   0  0  0  0  0  0  0  0  0  0  0  0
  138.2590   79.5180  221.0500 C   0  0  0  0  0  0  0  0  0  0  0  0
  138.1560   79.1310  222.3970 C   0  0  0  0  0  0  0  0  0  0  0  0
  138.5580   80.0010  223.4140 C   0  0  0  0  0  0  0  0  0  0  0  0
  139.0630   81.2650  223.0970 C   0  0  0  0  0  0  0  0  0  0  0  0
  139.1590   81.6790  221.7550 C   0  0  0  0  0  0  0  0  0  0  0  0
  139.7380   83.0300  221.4120 C   0  0  0  0  0  0  0  0  0  0  0  0
  139.7950   83.1990  220.0380 F   0  0  0  0  0  0  0  0  0  0  0  0
  138.9390   84.0230  221.9570 F   0  0  0  0  0  0  0  0  0  0  0  0
  141.0240   83.1550  221.9180 F   0  0  0  0  0  0  0  0  0  0  0  0
  138.7870   80.7830  220.7360 C   0  0  0  0  0  0  0  0  0  0  0  0
  139.6300   76.5780  221.1220 N   0  0  0  0  0  0  0  0  0  0  0  0
  139.6180   75.4220  222.0420 C   0  0  0  0  0  0  0  0  0  0  0  0
  140.2070   74.1620  221.4190 C   0  0  0  0  0  0  0  0  0  0  0  0
  141.5740   74.4390  220.8790 C   0  0  0  0  0  0  0  0  0  0  0  0
  142.5340   73.4140  220.8500 C   0  0  0  0  0  0  0  0  0  0  0  0
  143.7880   73.6360  220.2740 C   0  0  0  0  0  0  0  0  0  0  0  0
  144.0830   74.8730  219.7000 C   0  0  0  0  0  0  0  0  0  0  0  0
  143.1280   75.8920  219.7090 C   0  0  0  0  0  0  0  0  0  0  0  0
  141.8720   75.6980  220.3220 C   0  0  0  0  0  0  0  0  0  0  0  0
  140.8160   76.7930  220.2530 C   0  0  2  0  0  0  0  0  0  0  0  0
  141.3960   78.1470  220.5750 C   0  0  0  0  0  0  0  0  0  0  0  0
  141.7140   79.1370  219.6450 C   0  0  0  0  0  0  0  0  0  0  0  0
  142.1440   80.2560  220.2720 N   0  0  0  0  0  0  0  0  0  0  0  0
  142.0950   79.9870  221.5900 C   0  0  0  0  0  0  0  0  0  0  0  0
  142.4240   80.8460  222.6390 C   0  0  0  0  0  0  0  0  0  0  0  0
  142.2830   80.3650  223.9560 C   0  0  0  0  0  0  0  0  0  0  0  0
  141.8280   79.0480  224.1920 C   0  0  0  0  0  0  0  0  0  0  0  0
  141.5060   78.2000  223.1140 C   0  0  0  0  0  0  0  0  0  0  0  0
  141.6440   78.7090  221.8180 C   0  0  0  0  0  0  0  0  0  0  0  0
  138.3206   78.8658  219.0199 H   0  0  0  0  0  0  0  0  0  0  0  0
  136.7033   78.7353  219.8395 H   0  0  0  0  0  0  0  0  0  0  0  0
  137.7569   78.1382  222.6521 H   0  0  0  0  0  0  0  0  0  0  0  0
  138.4768   79.6904  224.4661 H   0  0  0  0  0  0  0  0  0  0  0  0
  139.3877   81.9410  223.9017 H   0  0  0  0  0  0  0  0  0  0  0  0
  138.9105   81.0750  219.6827 H   0  0  0  0  0  0  0  0  0  0  0  0
  140.2051   75.6789  222.9361 H   0  0  0  0  0  0  0  0  0  0  0  0
  138.5678   75.2080  222.2894 H   0  0  0  0  0  0  0  0  0  0  0  0
  140.2722   73.3751  222.1849 H   0  0  0  0  0  0  0  0  0  0  0  0
  139.5569   73.8334  220.5947 H   0  0  0  0  0  0  0  0  0  0  0  0
  142.2975   72.4309  221.2831 H   0  0  0  0  0  0  0  0  0  0  0  0
  144.5424   72.8354  220.2732 H   0  0  0  0  0  0  0  0  0  0  0  0
  145.0674   75.0456  219.2405 H   0  0  0  0  0  0  0  0  0  0  0  0
  143.3576   76.8567  219.2329 H   0  0  0  0  0  0  0  0  0  0  0  0
  140.4698   76.7506  219.2098 H   0  0  0  0  0  0  0  0  0  0  0  0
  141.6273   79.0236  218.5543 H   0  0  0  0  0  0  0  0  0  0  0  0
  142.4430   81.1500  219.8200 H   0  0  0  0  0  0  0  0  0  0  0  0
  142.7825   81.8675  222.4440 H   0  0  0  0  0  0  0  0  0  0  0  0
  142.5287   81.0188  224.8058 H   0  0  0  0  0  0  0  0  0  0  0  0
  141.7246   78.6825  225.2243 H   0  0  0  0  0  0  0  0  0  0  0  0
  141.1573   77.1709  223.2857 H   0  0  0  0  0  0  0  0  0  0  0  0
  1  2  2  0
  2  3  2  0
  2  4  1  0
  4  5  1  0
  5  6  2  0
  6  7  1  0
  7  8  2  0
  8  9  1  0
  9 10  1  0
 10 11  1  0
 10 12  1  0
 10 13  1  0
  9 14  2  0
  2 15  1  0
 15 16  1  0
 16 17  1  0
 17 18  1  0
 18 19  2  0
 19 20  1  0
 20 21  2  0
 21 22  1  0
 22 23  2  0
 23 24  1  0
 24 25  1  0
 25 26  2  0
 26 27  1  0
 27 28  1  0
 28 29  2  0
 29 30  1  0
 30 31  2  0
 31 32  1  0
 32 33  2  0
 14  5  1  0
 24 15  1  0
 33 25  1  0
 23 18  1  0
 33 28  1  0
  4 34  1  0
  4 35  1  0
  6 36  1  0
  7 37  1  0
  8 38  1  0
 14 39  1  0
 16 40  1  0
 16 41  1  0
 17 42  1  0
 17 43  1  0
 19 44  1  0
 20 45  1  0
 21 46  1  0
 22 47  1  0
 24 48  1  6
 26 49  1  0
 27 50  1  0
 29 51  1  0
 30 52  1  0
 31 53  1  0
 32 54  1  0
M  END
>  <UniqueID>  (47) 
203

>  <SMILES>  (47) 
O=S(=O)(Cc1cccc(C(F)(F)F)c1)N1CCc2ccccc2[C@@H]1c1c[nH]c2ccccc12

>  <Energy>  (47) 
96.75575672887283

>  <Genealogy>  (47) 
O=S(=O)(Cc1cccc(C(F)(F)F)c1)N1CCc2ccccc2[C@@H]1c1c[nH]c2ccccc12 (3D coordinates assigned)
O=S(=O)(Cc1cccc(C(F)(F)F)c1)N1CCc2ccccc2[C@@H]1c1c[nH]c2ccccc12 (nonaromatic ring conformer: 96.75575672887283 kcal/mol)

>  <smiles>  (47) 
O=S(=O)(Cc1cccc(C(F)(F)F)c1)N1CCc2ccccc2[C@@H]1c1c[nH]c2ccccc12

>  <score_type>  (47) 
oracle

>  <origin>  (47) 
autodockgpu

>  <m_score__min__energy>  (47) 
-8.0600000000000005

>  <m_primary>  (47) 
energy

>  <meeko>  (47) 
{"free_energy": -6.61, "intermolecular_energy": -8.1, "internal_energy": -3.32, "cluster_size": 16, "cluster_id": 3, "rank_in_cluster": 16}

>  <energy>  (47) 
-6.7

>  <cluster_rmsd>  (47) 
0.05

>  <rmsd>  (47) 
270.91

>  <cluster>  (47) 
3

$$$$
GJSDZOHBAHKEKD-XMMPIXPANA-N
     RDKit          3D

 54 58  0  0  0  0  0  0  0  0999 V2000
  138.3990   77.5440  218.9500 O   0  0  0  0  0  0  0  0  0  0  0  0
  138.1150   76.9640  220.3070 S   0  0  0  0  0  0  0  0  0  0  0  0
  137.3920   75.6610  220.1080 O   0  0  0  0  0  0  0  0  0  0  0  0
  137.0440   78.1130  221.1840 C   0  0  0  0  0  0  0  0  0  0  0  0
  137.8210   79.1970  221.8880 C   0  0  0  0  0  0  0  0  0  0  0  0
  138.0000   79.1620  223.2820 C   0  0  0  0  0  0  0  0  0  0  0  0
  138.6890   80.1900  223.9310 C   0  0  0  0  0  0  0  0  0  0  0  0
  139.2030   81.2630  223.1970 C   0  0  0  0  0  0  0  0  0  0  0  0
  139.0210   81.3250  221.8030 C   0  0  0  0  0  0  0  0  0  0  0  0
  139.6070   82.4650  221.0060 C   0  0  0  0  0  0  0  0  0  0  0  0
  139.9550   82.0410  219.7340 F   0  0  0  0  0  0  0  0  0  0  0  0
  138.6700   83.4820  220.9030 F   0  0  0  0  0  0  0  0  0  0  0  0
  140.7460   82.9610  221.6240 F   0  0  0  0  0  0  0  0  0  0  0  0
  138.3580   80.2680  221.1520 C   0  0  0  0  0  0  0  0  0  0  0  0
  139.6360   76.6490  221.1190 N   0  0  0  0  0  0  0  0  0  0  0  0
  139.6010   75.4920  222.0360 C   0  0  0  0  0  0  0  0  0  0  0  0
  140.1760   74.2250  221.4150 C   0  0  0  0  0  0  0  0  0  0  0  0
  141.5510   74.4840  220.8840 C   0  0  0  0  0  0  0  0  0  0  0  0
  142.4960   73.4450  220.8600 C   0  0  0  0  0  0  0  0  0  0  0  0
  143.7570   73.6500  220.2920 C   0  0  0  0  0  0  0  0  0  0  0  0
  144.0740   74.8830  219.7230 C   0  0  0  0  0  0  0  0  0  0  0  0
  143.1330   75.9170  219.7280 C   0  0  0  0  0  0  0  0  0  0  0  0
  141.8710   75.7390  220.3320 C   0  0  0  0  0  0  0  0  0  0  0  0
  140.8310   76.8490  220.2590 C   0  0  2  0  0  0  0  0  0  0  0  0
  141.4280   78.1940  220.5870 C   0  0  0  0  0  0  0  0  0  0  0  0
  141.7570   79.1850  219.6620 C   0  0  0  0  0  0  0  0  0  0  0  0
  142.2010   80.2950  220.2950 N   0  0  0  0  0  0  0  0  0  0  0  0
  142.1500   80.0190  221.6110 C   0  0  0  0  0  0  0  0  0  0  0  0
  142.4920   80.8680  222.6650 C   0  0  0  0  0  0  0  0  0  0  0  0
  142.3470   80.3820  223.9790 C   0  0  0  0  0  0  0  0  0  0  0  0
  141.8760   79.0690  224.2080 C   0  0  0  0  0  0  0  0  0  0  0  0
  141.5420   78.2320  223.1260 C   0  0  0  0  0  0  0  0  0  0  0  0
  141.6850   78.7460  221.8320 C   0  0  0  0  0  0  0  0  0  0  0  0
  136.3599   78.5810  220.4608 H   0  0  0  0  0  0  0  0  0  0  0  0
  136.4937   77.5437  221.9476 H   0  0  0  0  0  0  0  0  0  0  0  0
  137.5957   78.3212  223.8647 H   0  0  0  0  0  0  0  0  0  0  0  0
  138.8272   80.1548  225.0217 H   0  0  0  0  0  0  0  0  0  0  0  0
  139.7533   82.0640  223.7124 H   0  0  0  0  0  0  0  0  0  0  0  0
  138.2589   80.2798  220.0565 H   0  0  0  0  0  0  0  0  0  0  0  0
  140.1854   75.7387  222.9347 H   0  0  0  0  0  0  0  0  0  0  0  0
  138.5460   75.2926  222.2754 H   0  0  0  0  0  0  0  0  0  0  0  0
  140.2252   73.4361  222.1800 H   0  0  0  0  0  0  0  0  0  0  0  0
  139.5267   73.9066  220.5861 H   0  0  0  0  0  0  0  0  0  0  0  0
  142.2426   72.4649  221.2904 H   0  0  0  0  0  0  0  0  0  0  0  0
  144.4994   72.8383  220.2940 H   0  0  0  0  0  0  0  0  0  0  0  0
  145.0639   75.0420  219.2705 H   0  0  0  0  0  0  0  0  0  0  0  0
  143.3795   76.8795  219.2559 H   0  0  0  0  0  0  0  0  0  0  0  0
  140.4909   76.8136  219.2135 H   0  0  0  0  0  0  0  0  0  0  0  0
  141.6679   79.0787  218.5708 H   0  0  0  0  0  0  0  0  0  0  0  0
  142.5100   81.1880  219.8470 H   0  0  0  0  0  0  0  0  0  0  0  0
  142.8635   81.8858  222.4751 H   0  0  0  0  0  0  0  0  0  0  0  0
  142.6018   81.0280  224.8321 H   0  0  0  0  0  0  0  0  0  0  0  0
  141.7697   78.6986  225.2383 H   0  0  0  0  0  0  0  0  0  0  0  0
  141.1802   77.2066  223.2925 H   0  0  0  0  0  0  0  0  0  0  0  0
  1  2  2  0
  2  3  2  0
  2  4  1  0
  4  5  1  0
  5  6  2  0
  6  7  1  0
  7  8  2  0
  8  9  1  0
  9 10  1  0
 10 11  1  0
 10 12  1  0
 10 13  1  0
  9 14  2  0
  2 15  1  0
 15 16  1  0
 16 17  1  0
 17 18  1  0
 18 19  2  0
 19 20  1  0
 20 21  2  0
 21 22  1  0
 22 23  2  0
 23 24  1  0
 24 25  1  0
 25 26  2  0
 26 27  1  0
 27 28  1  0
 28 29  2  0
 29 30  1  0
 30 31  2  0
 31 32  1  0
 32 33  2  0
 14  5  1  0
 24 15  1  0
 33 25  1  0
 23 18  1  0
 33 28  1  0
  4 34  1  0
  4 35  1  0
  6 36  1  0
  7 37  1  0
  8 38  1  0
 14 39  1  0
 16 40  1  0
 16 41  1  0
 17 42  1  0
 17 43  1  0
 19 44  1  0
 20 45  1  0
 21 46  1  0
 22 47  1  0
 24 48  1  6
 26 49  1  0
 27 50  1  0
 29 51  1  0
 30 52  1  0
 31 53  1  0
 32 54  1  0
M  END
>  <UniqueID>  (48) 
203

>  <SMILES>  (48) 
O=S(=O)(Cc1cccc(C(F)(F)F)c1)N1CCc2ccccc2[C@@H]1c1c[nH]c2ccccc12

>  <Energy>  (48) 
96.75575672887283

>  <Genealogy>  (48) 
O=S(=O)(Cc1cccc(C(F)(F)F)c1)N1CCc2ccccc2[C@@H]1c1c[nH]c2ccccc12 (3D coordinates assigned)
O=S(=O)(Cc1cccc(C(F)(F)F)c1)N1CCc2ccccc2[C@@H]1c1c[nH]c2ccccc12 (nonaromatic ring conformer: 96.75575672887283 kcal/mol)

>  <smiles>  (48) 
O=S(=O)(Cc1cccc(C(F)(F)F)c1)N1CCc2ccccc2[C@@H]1c1c[nH]c2ccccc12

>  <score_type>  (48) 
oracle

>  <origin>  (48) 
autodockgpu

>  <m_score__min__energy>  (48) 
-8.0600000000000005

>  <m_primary>  (48) 
energy

>  <meeko>  (48) 
{"free_energy": -6.69, "intermolecular_energy": -8.18, "internal_energy": -3.38, "cluster_size": 16, "cluster_id": 3, "rank_in_cluster": 6}

>  <energy>  (48) 
-6.69

>  <cluster_rmsd>  (48) 
0.04

>  <rmsd>  (48) 
270.93

>  <cluster>  (48) 
3

$$$$
GJSDZOHBAHKEKD-XMMPIXPANA-N
     RDKit          3D

 54 58  0  0  0  0  0  0  0  0999 V2000
  138.4180   77.5460  218.8240 O   0  0  0  0  0  0  0  0  0  0  0  0
  138.0970   77.0280  220.1970 S   0  0  0  0  0  0  0  0  0  0  0  0
  137.3450   75.7360  220.0380 O   0  0  0  0  0  0  0  0  0  0  0  0
  137.0410   78.2370  221.0100 C   0  0  0  0  0  0  0  0  0  0  0  0
  137.8340   79.2770  221.7590 C   0  0  0  0  0  0  0  0  0  0  0  0
  138.0230   79.1730  223.1490 C   0  0  0  0  0  0  0  0  0  0  0  0
  138.7270   80.1620  223.8410 C   0  0  0  0  0  0  0  0  0  0  0  0
  139.2450   81.2640  223.1560 C   0  0  0  0  0  0  0  0  0  0  0  0
  139.0540   81.3960  221.7680 C   0  0  0  0  0  0  0  0  0  0  0  0
  139.6450   82.5680  221.0230 C   0  0  0  0  0  0  0  0  0  0  0  0
  139.9910   82.1990  219.7330 F   0  0  0  0  0  0  0  0  0  0  0  0
  138.7120   83.5930  220.9650 F   0  0  0  0  0  0  0  0  0  0  0  0
  140.7860   83.0300  221.6630 F   0  0  0  0  0  0  0  0  0  0  0  0
  138.3760   80.3780  221.0720 C   0  0  0  0  0  0  0  0  0  0  0  0
  139.5960   76.7080  221.0480 N   0  0  0  0  0  0  0  0  0  0  0  0
  139.5330   75.5530  221.9670 C   0  0  0  0  0  0  0  0  0  0  0  0
  140.1170   74.2820  221.3630 C   0  0  0  0  0  0  0  0  0  0  0  0
  141.5060   74.5330  220.8670 C   0  0  0  0  0  0  0  0  0  0  0  0
  142.4470   73.4890  220.8690 C   0  0  0  0  0  0  0  0  0  0  0  0
  143.7220   73.6870  220.3320 C   0  0  0  0  0  0  0  0  0  0  0  0
  144.0590   74.9170  219.7670 C   0  0  0  0  0  0  0  0  0  0  0  0
  143.1230   75.9550  219.7450 C   0  0  0  0  0  0  0  0  0  0  0  0
  141.8450   75.7850  220.3190 C   0  0  0  0  0  0  0  0  0  0  0  0
  140.8130   76.8990  220.2170 C   0  0  2  0  0  0  0  0  0  0  0  0
  141.4080   78.2430  220.5560 C   0  0  0  0  0  0  0  0  0  0  0  0
  141.7280   79.2450  219.6400 C   0  0  0  0  0  0  0  0  0  0  0  0
  142.1730   80.3490  220.2820 N   0  0  0  0  0  0  0  0  0  0  0  0
  142.1310   80.0590  221.5960 C   0  0  0  0  0  0  0  0  0  0  0  0
  142.4770   80.8980  222.6560 C   0  0  0  0  0  0  0  0  0  0  0  0
  142.3410   80.3960  223.9660 C   0  0  0  0  0  0  0  0  0  0  0  0
  141.8760   79.0800  224.1840 C   0  0  0  0  0  0  0  0  0  0  0  0
  141.5370   78.2530  223.0940 C   0  0  0  0  0  0  0  0  0  0  0  0
  141.6700   78.7820  221.8060 C   0  0  0  0  0  0  0  0  0  0  0  0
  136.4280   78.7405  220.2480 H   0  0  0  0  0  0  0  0  0  0  0  0
  136.4153   77.7012  221.7390 H   0  0  0  0  0  0  0  0  0  0  0  0
  137.6147   78.3090  223.6938 H   0  0  0  0  0  0  0  0  0  0  0  0
  138.8737   80.0727  224.9275 H   0  0  0  0  0  0  0  0  0  0  0  0
  139.8062   82.0341  223.7056 H   0  0  0  0  0  0  0  0  0  0  0  0
  138.2689   80.4441  219.9792 H   0  0  0  0  0  0  0  0  0  0  0  0
  140.0964   75.7991  222.8791 H   0  0  0  0  0  0  0  0  0  0  0  0
  138.4716   75.3592  222.1811 H   0  0  0  0  0  0  0  0  0  0  0  0
  140.1426   73.4942  222.1303 H   0  0  0  0  0  0  0  0  0  0  0  0
  139.4874   73.9654  220.5184 H   0  0  0  0  0  0  0  0  0  0  0  0
  142.1786   72.5112  221.2954 H   0  0  0  0  0  0  0  0  0  0  0  0
  144.4605   72.8721  220.3549 H   0  0  0  0  0  0  0  0  0  0  0  0
  145.0607   75.0701  219.3390 H   0  0  0  0  0  0  0  0  0  0  0  0
  143.3853   76.9145  219.2753 H   0  0  0  0  0  0  0  0  0  0  0  0
  140.4991   76.8612  219.1634 H   0  0  0  0  0  0  0  0  0  0  0  0
  141.6319   79.1505  218.5483 H   0  0  0  0  0  0  0  0  0  0  0  0
  142.4760   81.2480  219.8420 H   0  0  0  0  0  0  0  0  0  0  0  0
  142.8443   81.9189  222.4749 H   0  0  0  0  0  0  0  0  0  0  0  0
  142.5987   81.0334  224.8246 H   0  0  0  0  0  0  0  0  0  0  0  0
  141.7778   78.6982  225.2109 H   0  0  0  0  0  0  0  0  0  0  0  0
  141.1794   77.2247  223.2512 H   0  0  0  0  0  0  0  0  0  0  0  0
  1  2  2  0
  2  3  2  0
  2  4  1  0
  4  5  1  0
  5  6  2  0
  6  7  1  0
  7  8  2  0
  8  9  1  0
  9 10  1  0
 10 11  1  0
 10 12  1  0
 10 13  1  0
  9 14  2  0
  2 15  1  0
 15 16  1  0
 16 17  1  0
 17 18  1  0
 18 19  2  0
 19 20  1  0
 20 21  2  0
 21 22  1  0
 22 23  2  0
 23 24  1  0
 24 25  1  0
 25 26  2  0
 26 27  1  0
 27 28  1  0
 28 29  2  0
 29 30  1  0
 30 31  2  0
 31 32  1  0
 32 33  2  0
 14  5  1  0
 24 15  1  0
 33 25  1  0
 23 18  1  0
 33 28  1  0
  4 34  1  0
  4 35  1  0
  6 36  1  0
  7 37  1  0
  8 38  1  0
 14 39  1  0
 16 40  1  0
 16 41  1  0
 17 42  1  0
 17 43  1  0
 19 44  1  0
 20 45  1  0
 21 46  1  0
 22 47  1  0
 24 48  1  6
 26 49  1  0
 27 50  1  0
 29 51  1  0
 30 52  1  0
 31 53  1  0
 32 54  1  0
M  END
>  <UniqueID>  (49) 
203

>  <SMILES>  (49) 
O=S(=O)(Cc1cccc(C(F)(F)F)c1)N1CCc2ccccc2[C@@H]1c1c[nH]c2ccccc12

>  <Energy>  (49) 
96.75575672887283

>  <Genealogy>  (49) 
O=S(=O)(Cc1cccc(C(F)(F)F)c1)N1CCc2ccccc2[C@@H]1c1c[nH]c2ccccc12 (3D coordinates assigned)
O=S(=O)(Cc1cccc(C(F)(F)F)c1)N1CCc2ccccc2[C@@H]1c1c[nH]c2ccccc12 (nonaromatic ring conformer: 96.75575672887283 kcal/mol)

>  <smiles>  (49) 
O=S(=O)(Cc1cccc(C(F)(F)F)c1)N1CCc2ccccc2[C@@H]1c1c[nH]c2ccccc12

>  <score_type>  (49) 
oracle

>  <origin>  (49) 
autodockgpu

>  <m_score__min__energy>  (49) 
-8.0600000000000005

>  <m_primary>  (49) 
energy

>  <meeko>  (49) 
{"free_energy": -6.69, "intermolecular_energy": -8.19, "internal_energy": -3.37, "cluster_size": 16, "cluster_id": 3, "rank_in_cluster": 4}

>  <energy>  (49) 
-6.69

>  <cluster_rmsd>  (49) 
0.1

>  <rmsd>  (49) 
270.95

>  <cluster>  (49) 
3

$$$$
GJSDZOHBAHKEKD-XMMPIXPANA-N
     RDKit          3D

 54 58  0  0  0  0  0  0  0  0999 V2000
  138.3760   77.5550  218.9870 O   0  0  0  0  0  0  0  0  0  0  0  0
  138.1070   76.9360  220.3300 S   0  0  0  0  0  0  0  0  0  0  0  0
  137.4060   75.6260  220.1020 O   0  0  0  0  0  0  0  0  0  0  0  0
  137.0200   78.0440  221.2400 C   0  0  0  0  0  0  0  0  0  0  0  0
  137.7770   79.1530  221.9270 C   0  0  0  0  0  0  0  0  0  0  0  0
  137.9350   79.1560  223.3240 C   0  0  0  0  0  0  0  0  0  0  0  0
  138.6050   80.2070  223.9550 C   0  0  0  0  0  0  0  0  0  0  0  0
  139.1210   81.2650  223.2010 C   0  0  0  0  0  0  0  0  0  0  0  0
  138.9610   81.2880  221.8030 C   0  0  0  0  0  0  0  0  0  0  0  0
  139.5500   82.4120  220.9860 C   0  0  0  0  0  0  0  0  0  0  0  0
  140.6930   82.9070  221.5930 F   0  0  0  0  0  0  0  0  0  0  0  0
  139.8770   81.9390  219.7240 F   0  0  0  0  0  0  0  0  0  0  0  0
  138.6410   83.4540  220.8570 F   0  0  0  0  0  0  0  0  0  0  0  0
  138.3170   80.2090  221.1700 C   0  0  0  0  0  0  0  0  0  0  0  0
  139.6360   76.6270  221.1280 N   0  0  0  0  0  0  0  0  0  0  0  0
  139.6160   75.4670  222.0430 C   0  0  0  0  0  0  0  0  0  0  0  0
  140.1920   74.2050  221.4130 C   0  0  0  0  0  0  0  0  0  0  0  0
  141.5610   74.4720  220.8720 C   0  0  0  0  0  0  0  0  0  0  0  0
  142.5110   73.4380  220.8370 C   0  0  0  0  0  0  0  0  0  0  0  0
  143.7660   73.6510  220.2590 C   0  0  0  0  0  0  0  0  0  0  0  0
  144.0710   74.8880  219.6900 C   0  0  0  0  0  0  0  0  0  0  0  0
  143.1250   75.9160  219.7060 C   0  0  0  0  0  0  0  0  0  0  0  0
  141.8690   75.7300  220.3210 C   0  0  0  0  0  0  0  0  0  0  0  0
  140.8230   76.8350  220.2590 C   0  0  2  0  0  0  0  0  0  0  0  0
  141.4160   78.1830  220.5850 C   0  0  0  0  0  0  0  0  0  0  0  0
  141.7470   79.1720  219.6590 C   0  0  0  0  0  0  0  0  0  0  0  0
  142.1860   80.2840  220.2900 N   0  0  0  0  0  0  0  0  0  0  0  0
  142.1290   80.0120  221.6070 C   0  0  0  0  0  0  0  0  0  0  0  0
  142.4640   80.8660  222.6590 C   0  0  0  0  0  0  0  0  0  0  0  0
  142.3140   80.3830  223.9740 C   0  0  0  0  0  0  0  0  0  0  0  0
  141.8450   79.0700  224.2060 C   0  0  0  0  0  0  0  0  0  0  0  0
  141.5180   78.2290  223.1240 C   0  0  0  0  0  0  0  0  0  0  0  0
  141.6650   78.7390  221.8300 C   0  0  0  0  0  0  0  0  0  0  0  0
  136.3005   78.4895  220.5373 H   0  0  0  0  0  0  0  0  0  0  0  0
  136.5111   77.4534  222.0160 H   0  0  0  0  0  0  0  0  0  0  0  0
  137.5293   78.3272  223.9228 H   0  0  0  0  0  0  0  0  0  0  0  0
  138.7268   80.2020  225.0482 H   0  0  0  0  0  0  0  0  0  0  0  0
  139.6554   82.0847  223.7035 H   0  0  0  0  0  0  0  0  0  0  0  0
  138.2349   80.1908  220.0732 H   0  0  0  0  0  0  0  0  0  0  0  0
  140.2076   75.7146  222.9367 H   0  0  0  0  0  0  0  0  0  0  0  0
  138.5646   75.2612  222.2922 H   0  0  0  0  0  0  0  0  0  0  0  0
  140.2510   73.4137  222.1748 H   0  0  0  0  0  0  0  0  0  0  0  0
  139.5376   73.8865  220.5882 H   0  0  0  0  0  0  0  0  0  0  0  0
  142.2662   72.4554  221.2667 H   0  0  0  0  0  0  0  0  0  0  0  0
  144.5129   72.8435  220.2528 H   0  0  0  0  0  0  0  0  0  0  0  0
  145.0559   75.0537  219.2290 H   0  0  0  0  0  0  0  0  0  0  0  0
  143.3621   76.8809  219.2339 H   0  0  0  0  0  0  0  0  0  0  0  0
  140.4747   76.8002  219.2162 H   0  0  0  0  0  0  0  0  0  0  0  0
  141.6626   79.0625  218.5677 H   0  0  0  0  0  0  0  0  0  0  0  0
  142.4950   81.1770  219.8410 H   0  0  0  0  0  0  0  0  0  0  0  0
  142.8336   81.8842  222.4674 H   0  0  0  0  0  0  0  0  0  0  0  0
  142.5636   81.0323  224.8261 H   0  0  0  0  0  0  0  0  0  0  0  0
  141.7347   78.7028  225.2370 H   0  0  0  0  0  0  0  0  0  0  0  0
  141.1583   77.2031  223.2917 H   0  0  0  0  0  0  0  0  0  0  0  0
  1  2  2  0
  2  3  2  0
  2  4  1  0
  4  5  1  0
  5  6  2  0
  6  7  1  0
  7  8  2  0
  8  9  1  0
  9 10  1  0
 10 11  1  0
 10 12  1  0
 10 13  1  0
  9 14  2  0
  2 15  1  0
 15 16  1  0
 16 17  1  0
 17 18  1  0
 18 19  2  0
 19 20  1  0
 20 21  2  0
 21 22  1  0
 22 23  2  0
 23 24  1  0
 24 25  1  0
 25 26  2  0
 26 27  1  0
 27 28  1  0
 28 29  2  0
 29 30  1  0
 30 31  2  0
 31 32  1  0
 32 33  2  0
 14  5  1  0
 24 15  1  0
 33 25  1  0
 23 18  1  0
 33 28  1  0
  4 34  1  0
  4 35  1  0
  6 36  1  0
  7 37  1  0
  8 38  1  0
 14 39  1  0
 16 40  1  0
 16 41  1  0
 17 42  1  0
 17 43  1  0
 19 44  1  0
 20 45  1  0
 21 46  1  0
 22 47  1  0
 24 48  1  6
 26 49  1  0
 27 50  1  0
 29 51  1  0
 30 52  1  0
 31 53  1  0
 32 54  1  0
M  END
>  <UniqueID>  (50) 
203

>  <SMILES>  (50) 
O=S(=O)(Cc1cccc(C(F)(F)F)c1)N1CCc2ccccc2[C@@H]1c1c[nH]c2ccccc12

>  <Energy>  (50) 
96.75575672887283

>  <Genealogy>  (50) 
O=S(=O)(Cc1cccc(C(F)(F)F)c1)N1CCc2ccccc2[C@@H]1c1c[nH]c2ccccc12 (3D coordinates assigned)
O=S(=O)(Cc1cccc(C(F)(F)F)c1)N1CCc2ccccc2[C@@H]1c1c[nH]c2ccccc12 (nonaromatic ring conformer: 96.75575672887283 kcal/mol)

>  <smiles>  (50) 
O=S(=O)(Cc1cccc(C(F)(F)F)c1)N1CCc2ccccc2[C@@H]1c1c[nH]c2ccccc12

>  <score_type>  (50) 
oracle

>  <origin>  (50) 
autodockgpu

>  <m_score__min__energy>  (50) 
-8.0600000000000005

>  <m_primary>  (50) 
energy

>  <meeko>  (50) 
{"free_energy": -6.67, "intermolecular_energy": -8.16, "internal_energy": -3.39, "cluster_size": 16, "cluster_id": 3, "rank_in_cluster": 13}

>  <energy>  (50) 
-6.69

>  <cluster_rmsd>  (50) 
0.08

>  <rmsd>  (50) 
270.94

>  <cluster>  (50) 
3

$$$$
GJSDZOHBAHKEKD-XMMPIXPANA-N
     RDKit          3D

 54 58  0  0  0  0  0  0  0  0999 V2000
  138.4190   77.6030  218.8200 O   0  0  0  0  0  0  0  0  0  0  0  0
  138.0940   77.0350  220.1720 S   0  0  0  0  0  0  0  0  0  0  0  0
  137.3710   75.7330  219.9640 O   0  0  0  0  0  0  0  0  0  0  0  0
  137.0050   78.1950  221.0110 C   0  0  0  0  0  0  0  0  0  0  0  0
  137.7680   79.2540  221.7660 C   0  0  0  0  0  0  0  0  0  0  0  0
  137.9260   79.1680  223.1600 C   0  0  0  0  0  0  0  0  0  0  0  0
  138.6030   80.1730  223.8570 C   0  0  0  0  0  0  0  0  0  0  0  0
  139.1230   81.2740  223.1710 C   0  0  0  0  0  0  0  0  0  0  0  0
  138.9620   81.3870  221.7770 C   0  0  0  0  0  0  0  0  0  0  0  0
  139.5550   82.5580  221.0320 C   0  0  0  0  0  0  0  0  0  0  0  0
  140.6910   83.0200  221.6790 F   0  0  0  0  0  0  0  0  0  0  0  0
  139.8970   82.1600  219.7480 F   0  0  0  0  0  0  0  0  0  0  0  0
  138.6450   83.6030  220.9550 F   0  0  0  0  0  0  0  0  0  0  0  0
  138.3120   80.3540  221.0780 C   0  0  0  0  0  0  0  0  0  0  0  0
  139.5900   76.7190  221.0290 N   0  0  0  0  0  0  0  0  0  0  0  0
  139.5300   75.5580  221.9420 C   0  0  0  0  0  0  0  0  0  0  0  0
  140.1240   74.2940  221.3330 C   0  0  0  0  0  0  0  0  0  0  0  0
  141.5150   74.5560  220.8460 C   0  0  0  0  0  0  0  0  0  0  0  0
  142.4620   73.5190  220.8470 C   0  0  0  0  0  0  0  0  0  0  0  0
  143.7390   73.7270  220.3190 C   0  0  0  0  0  0  0  0  0  0  0  0
  144.0710   74.9630  219.7630 C   0  0  0  0  0  0  0  0  0  0  0  0
  143.1290   75.9950  219.7430 C   0  0  0  0  0  0  0  0  0  0  0  0
  141.8490   75.8140  220.3080 C   0  0  0  0  0  0  0  0  0  0  0  0
  140.8100   76.9230  220.2070 C   0  0  2  0  0  0  0  0  0  0  0  0
  141.3960   78.2670  220.5570 C   0  0  0  0  0  0  0  0  0  0  0  0
  141.7210   79.2750  219.6490 C   0  0  0  0  0  0  0  0  0  0  0  0
  142.1540   80.3790  220.2990 N   0  0  0  0  0  0  0  0  0  0  0  0
  142.0990   80.0830  221.6120 C   0  0  0  0  0  0  0  0  0  0  0  0
  142.4280   80.9190  222.6790 C   0  0  0  0  0  0  0  0  0  0  0  0
  142.2800   80.4130  223.9850 C   0  0  0  0  0  0  0  0  0  0  0  0
  141.8190   79.0930  224.1930 C   0  0  0  0  0  0  0  0  0  0  0  0
  141.4960   78.2690  223.0970 C   0  0  0  0  0  0  0  0  0  0  0  0
  141.6420   78.8030  221.8120 C   0  0  0  0  0  0  0  0  0  0  0  0
  136.3665   78.6858  220.2617 H   0  0  0  0  0  0  0  0  0  0  0  0
  136.4070   77.6279  221.7395 H   0  0  0  0  0  0  0  0  0  0  0  0
  137.5149   78.3056  223.7052 H   0  0  0  0  0  0  0  0  0  0  0  0
  138.7267   80.0971  224.9474 H   0  0  0  0  0  0  0  0  0  0  0  0
  139.6617   82.0576  223.7240 H   0  0  0  0  0  0  0  0  0  0  0  0
  138.2281   80.4067  219.9825 H   0  0  0  0  0  0  0  0  0  0  0  0
  140.0883   75.8023  222.8578 H   0  0  0  0  0  0  0  0  0  0  0  0
  138.4690   75.3568  222.1511 H   0  0  0  0  0  0  0  0  0  0  0  0
  140.1497   73.5014  222.0953 H   0  0  0  0  0  0  0  0  0  0  0  0
  139.5007   73.9793  220.4830 H   0  0  0  0  0  0  0  0  0  0  0  0
  142.1970   72.5370  221.2660 H   0  0  0  0  0  0  0  0  0  0  0  0
  144.4824   72.9165  220.3417 H   0  0  0  0  0  0  0  0  0  0  0  0
  145.0737   75.1249  219.3407 H   0  0  0  0  0  0  0  0  0  0  0  0
  143.3884   76.9593  219.2816 H   0  0  0  0  0  0  0  0  0  0  0  0
  140.5010   76.8907  219.1518 H   0  0  0  0  0  0  0  0  0  0  0  0
  141.6367   79.1844  218.5560 H   0  0  0  0  0  0  0  0  0  0  0  0
  142.4580   81.2800  219.8660 H   0  0  0  0  0  0  0  0  0  0  0  0
  142.7920   81.9425  222.5057 H   0  0  0  0  0  0  0  0  0  0  0  0
  142.5247   81.0489  224.8485 H   0  0  0  0  0  0  0  0  0  0  0  0
  141.7118   78.7067  225.2173 H   0  0  0  0  0  0  0  0  0  0  0  0
  141.1404   77.2389  223.2466 H   0  0  0  0  0  0  0  0  0  0  0  0
  1  2  2  0
  2  3  2  0
  2  4  1  0
  4  5  1  0
  5  6  2  0
  6  7  1  0
  7  8  2  0
  8  9  1  0
  9 10  1  0
 10 11  1  0
 10 12  1  0
 10 13  1  0
  9 14  2  0
  2 15  1  0
 15 16  1  0
 16 17  1  0
 17 18  1  0
 18 19  2  0
 19 20  1  0
 20 21  2  0
 21 22  1  0
 22 23  2  0
 23 24  1  0
 24 25  1  0
 25 26  2  0
 26 27  1  0
 27 28  1  0
 28 29  2  0
 29 30  1  0
 30 31  2  0
 31 32  1  0
 32 33  2  0
 14  5  1  0
 24 15  1  0
 33 25  1  0
 23 18  1  0
 33 28  1  0
  4 34  1  0
  4 35  1  0
  6 36  1  0
  7 37  1  0
  8 38  1  0
 14 39  1  0
 16 40  1  0
 16 41  1  0
 17 42  1  0
 17 43  1  0
 19 44  1  0
 20 45  1  0
 21 46  1  0
 22 47  1  0
 24 48  1  6
 26 49  1  0
 27 50  1  0
 29 51  1  0
 30 52  1  0
 31 53  1  0
 32 54  1  0
M  END
>  <UniqueID>  (51) 
203

>  <SMILES>  (51) 
O=S(=O)(Cc1cccc(C(F)(F)F)c1)N1CCc2ccccc2[C@@H]1c1c[nH]c2ccccc12

>  <Energy>  (51) 
96.75575672887283

>  <Genealogy>  (51) 
O=S(=O)(Cc1cccc(C(F)(F)F)c1)N1CCc2ccccc2[C@@H]1c1c[nH]c2ccccc12 (3D coordinates assigned)
O=S(=O)(Cc1cccc(C(F)(F)F)c1)N1CCc2ccccc2[C@@H]1c1c[nH]c2ccccc12 (nonaromatic ring conformer: 96.75575672887283 kcal/mol)

>  <smiles>  (51) 
O=S(=O)(Cc1cccc(C(F)(F)F)c1)N1CCc2ccccc2[C@@H]1c1c[nH]c2ccccc12

>  <score_type>  (51) 
oracle

>  <origin>  (51) 
autodockgpu

>  <m_score__min__energy>  (51) 
-8.0600000000000005

>  <m_primary>  (51) 
energy

>  <meeko>  (51) 
{"free_energy": -6.67, "intermolecular_energy": -8.17, "internal_energy": -3.39, "cluster_size": 16, "cluster_id": 3, "rank_in_cluster": 12}

>  <energy>  (51) 
-6.68

>  <cluster_rmsd>  (51) 
0.08

>  <rmsd>  (51) 
270.92

>  <cluster>  (51) 
3

$$$$
GJSDZOHBAHKEKD-XMMPIXPANA-N
     RDKit          3D

 54 58  0  0  0  0  0  0  0  0999 V2000
  138.4820   82.6390  218.1980 O   0  0  0  0  0  0  0  0  0  0  0  0
  138.7380   81.4070  219.0200 S   0  0  0  0  0  0  0  0  0  0  0  0
  138.5540   80.2110  218.1280 O   0  0  0  0  0  0  0  0  0  0  0  0
  137.5170   81.3610  220.3400 C   0  0  0  0  0  0  0  0  0  0  0  0
  137.9860   80.5570  221.5260 C   0  0  0  0  0  0  0  0  0  0  0  0
  138.2470   81.1810  222.7590 C   0  0  0  0  0  0  0  0  0  0  0  0
  138.7180   80.4330  223.8420 C   0  0  0  0  0  0  0  0  0  0  0  0
  138.9350   79.0600  223.7050 C   0  0  0  0  0  0  0  0  0  0  0  0
  138.6940   78.4180  222.4760 C   0  0  0  0  0  0  0  0  0  0  0  0
  138.8950   76.9280  222.3390 C   0  0  0  0  0  0  0  0  0  0  0  0
  137.9890   76.2420  223.1320 F   0  0  0  0  0  0  0  0  0  0  0  0
  138.7070   76.5600  221.0160 F   0  0  0  0  0  0  0  0  0  0  0  0
  140.1760   76.5680  222.7330 F   0  0  0  0  0  0  0  0  0  0  0  0
  138.1860   79.1700  221.4010 C   0  0  0  0  0  0  0  0  0  0  0  0
  140.3960   81.4390  219.5870 N   0  0  0  0  0  0  0  0  0  0  0  0
  140.8190   82.7410  220.1430 C   0  0  0  0  0  0  0  0  0  0  0  0
  140.7610   82.7820  221.6650 C   0  0  0  0  0  0  0  0  0  0  0  0
  141.5370   81.6420  222.2460 C   0  0  0  0  0  0  0  0  0  0  0  0
  142.1590   81.7870  223.4970 C   0  0  0  0  0  0  0  0  0  0  0  0
  142.8160   80.7050  224.0890 C   0  0  0  0  0  0  0  0  0  0  0  0
  142.8360   79.4660  223.4490 C   0  0  0  0  0  0  0  0  0  0  0  0
  142.2050   79.3090  222.2120 C   0  0  0  0  0  0  0  0  0  0  0  0
  141.5720   80.4010  221.5830 C   0  0  0  0  0  0  0  0  0  0  0  0
  140.8220   80.1920  220.2740 C   0  0  2  0  0  0  0  0  0  0  0  0
  141.6250   79.3680  219.2980 C   0  0  0  0  0  0  0  0  0  0  0  0
  142.2690   79.8530  218.1600 C   0  0  0  0  0  0  0  0  0  0  0  0
  142.9600   78.8650  217.5480 N   0  0  0  0  0  0  0  0  0  0  0  0
  142.7650   77.7590  218.2920 C   0  0  0  0  0  0  0  0  0  0  0  0
  143.2970   76.4890  218.0680 C   0  0  0  0  0  0  0  0  0  0  0  0
  142.9790   75.4680  218.9860 C   0  0  0  0  0  0  0  0  0  0  0  0
  142.1380   75.7360  220.0900 C   0  0  0  0  0  0  0  0  0  0  0  0
  141.6120   77.0270  220.2900 C   0  0  0  0  0  0  0  0  0  0  0  0
  141.9560   78.0230  219.3690 C   0  0  0  0  0  0  0  0  0  0  0  0
  137.3130   82.3906  220.6691 H   0  0  0  0  0  0  0  0  0  0  0  0
  136.6112   80.8788  219.9437 H   0  0  0  0  0  0  0  0  0  0  0  0
  138.0798   82.2624  222.8717 H   0  0  0  0  0  0  0  0  0  0  0  0
  138.9182   80.9268  224.8043 H   0  0  0  0  0  0  0  0  0  0  0  0
  139.2970   78.4761  224.5641 H   0  0  0  0  0  0  0  0  0  0  0  0
  137.9426   78.6683  220.4528 H   0  0  0  0  0  0  0  0  0  0  0  0
  141.8534   82.9389  219.8256 H   0  0  0  0  0  0  0  0  0  0  0  0
  140.1222   83.5037  219.7652 H   0  0  0  0  0  0  0  0  0  0  0  0
  141.1905   83.7308  222.0189 H   0  0  0  0  0  0  0  0  0  0  0  0
  139.7118   82.7002  221.9851 H   0  0  0  0  0  0  0  0  0  0  0  0
  142.1288   82.7577  224.0136 H   0  0  0  0  0  0  0  0  0  0  0  0
  143.3175   80.8305  225.0600 H   0  0  0  0  0  0  0  0  0  0  0  0
  143.3482   78.6128  223.9177 H   0  0  0  0  0  0  0  0  0  0  0  0
  142.2020   78.3233  221.7238 H   0  0  0  0  0  0  0  0  0  0  0  0
  139.9099   79.6603  220.5826 H   0  0  0  0  0  0  0  0  0  0  0  0
  142.2214   80.8944  217.8091 H   0  0  0  0  0  0  0  0  0  0  0  0
  143.5350   78.9500  216.6800 H   0  0  0  0  0  0  0  0  0  0  0  0
  143.9448   76.2906  217.2014 H   0  0  0  0  0  0  0  0  0  0  0  0
  143.3876   74.4568  218.8425 H   0  0  0  0  0  0  0  0  0  0  0  0
  141.8926   74.9306  220.7979 H   0  0  0  0  0  0  0  0  0  0  0  0
  140.9521   77.2454  221.1425 H   0  0  0  0  0  0  0  0  0  0  0  0
  1  2  2  0
  2  3  2  0
  2  4  1  0
  4  5  1  0
  5  6  2  0
  6  7  1  0
  7  8  2  0
  8  9  1  0
  9 10  1  0
 10 11  1  0
 10 12  1  0
 10 13  1  0
  9 14  2  0
  2 15  1  0
 15 16  1  0
 16 17  1  0
 17 18  1  0
 18 19  2  0
 19 20  1  0
 20 21  2  0
 21 22  1  0
 22 23  2  0
 23 24  1  0
 24 25  1  0
 25 26  2  0
 26 27  1  0
 27 28  1  0
 28 29  2  0
 29 30  1  0
 30 31  2  0
 31 32  1  0
 32 33  2  0
 14  5  1  0
 24 15  1  0
 33 25  1  0
 23 18  1  0
 33 28  1  0
  4 34  1  0
  4 35  1  0
  6 36  1  0
  7 37  1  0
  8 38  1  0
 14 39  1  0
 16 40  1  0
 16 41  1  0
 17 42  1  0
 17 43  1  0
 19 44  1  0
 20 45  1  0
 21 46  1  0
 22 47  1  0
 24 48  1  1
 26 49  1  0
 27 50  1  0
 29 51  1  0
 30 52  1  0
 31 53  1  0
 32 54  1  0
M  END
>  <UniqueID>  (52) 
203

>  <SMILES>  (52) 
O=S(=O)(Cc1cccc(C(F)(F)F)c1)N1CCc2ccccc2[C@@H]1c1c[nH]c2ccccc12

>  <Energy>  (52) 
96.75575672887283

>  <Genealogy>  (52) 
O=S(=O)(Cc1cccc(C(F)(F)F)c1)N1CCc2ccccc2[C@@H]1c1c[nH]c2ccccc12 (3D coordinates assigned)
O=S(=O)(Cc1cccc(C(F)(F)F)c1)N1CCc2ccccc2[C@@H]1c1c[nH]c2ccccc12 (nonaromatic ring conformer: 96.75575672887283 kcal/mol)

>  <smiles>  (52) 
O=S(=O)(Cc1cccc(C(F)(F)F)c1)N1CCc2ccccc2[C@@H]1c1c[nH]c2ccccc12

>  <score_type>  (52) 
oracle

>  <origin>  (52) 
autodockgpu

>  <m_score__min__energy>  (52) 
-8.0600000000000005

>  <m_primary>  (52) 
energy

>  <meeko>  (52) 
{"free_energy": -6.9, "intermolecular_energy": -8.39, "internal_energy": -3.08, "cluster_size": 3, "cluster_id": 2, "rank_in_cluster": 2}

>  <energy>  (52) 
-6.68

>  <cluster_rmsd>  (52) 
0.05

>  <rmsd>  (52) 
270.9

>  <cluster>  (52) 
3

$$$$
GJSDZOHBAHKEKD-XMMPIXPANA-N
     RDKit          3D

 54 58  0  0  0  0  0  0  0  0999 V2000
  134.6390   68.0900  224.9110 O   0  0  0  0  0  0  0  0  0  0  0  0
  135.3730   69.3900  224.7350 S   0  0  0  0  0  0  0  0  0  0  0  0
  135.5480   70.0080  226.0940 O   0  0  0  0  0  0  0  0  0  0  0  0
  134.3520   70.4660  223.7170 C   0  0  0  0  0  0  0  0  0  0  0  0
  134.7540   71.9150  223.8340 C   0  0  0  0  0  0  0  0  0  0  0  0
  135.7370   72.4580  222.9890 C   0  0  0  0  0  0  0  0  0  0  0  0
  136.1300   73.7920  223.1300 C   0  0  0  0  0  0  0  0  0  0  0  0
  135.5490   74.5940  224.1160 C   0  0  0  0  0  0  0  0  0  0  0  0
  134.5740   74.0650  224.9830 C   0  0  0  0  0  0  0  0  0  0  0  0
  133.9220   74.9420  226.0240 C   0  0  0  0  0  0  0  0  0  0  0  0
  133.1030   75.8840  225.4220 F   0  0  0  0  0  0  0  0  0  0  0  0
  133.1570   74.1550  226.8730 F   0  0  0  0  0  0  0  0  0  0  0  0
  134.8800   75.6140  226.7700 F   0  0  0  0  0  0  0  0  0  0  0  0
  134.1570   72.7330  224.8120 C   0  0  0  0  0  0  0  0  0  0  0  0
  136.9550   69.0590  224.0560 N   0  0  0  0  0  0  0  0  0  0  0  0
  136.9320   68.6840  222.6270 C   0  0  0  0  0  0  0  0  0  0  0  0
  137.2640   69.8490  221.7030 C   0  0  0  0  0  0  0  0  0  0  0  0
  138.5640   70.4740  222.1010 C   0  0  0  0  0  0  0  0  0  0  0  0
  139.3740   71.0790  221.1260 C   0  0  0  0  0  0  0  0  0  0  0  0
  140.5500   71.7380  221.4940 C   0  0  0  0  0  0  0  0  0  0  0  0
  140.9110   71.8210  222.8390 C   0  0  0  0  0  0  0  0  0  0  0  0
  140.1010   71.2380  223.8170 C   0  0  0  0  0  0  0  0  0  0  0  0
  138.9320   70.5340  223.4580 C   0  0  0  0  0  0  0  0  0  0  0  0
  138.0220   69.9730  224.5420 C   0  0  2  0  0  0  0  0  0  0  0  0
  138.8060   69.2550  225.6110 C   0  0  0  0  0  0  0  0  0  0  0  0
  138.8860   67.8710  225.7700 C   0  0  0  0  0  0  0  0  0  0  0  0
  139.7310   67.5580  226.7790 N   0  0  0  0  0  0  0  0  0  0  0  0
  140.1920   68.7290  227.2550 C   0  0  0  0  0  0  0  0  0  0  0  0
  141.1100   68.9160  228.2900 C   0  0  0  0  0  0  0  0  0  0  0  0
  141.4730   70.2360  228.6210 C   0  0  0  0  0  0  0  0  0  0  0  0
  140.9110   71.3290  227.9230 C   0  0  0  0  0  0  0  0  0  0  0  0
  139.9840   71.1120  226.8850 C   0  0  0  0  0  0  0  0  0  0  0  0
  139.6520   69.7900  226.5700 C   0  0  0  0  0  0  0  0  0  0  0  0
  134.4493   70.1556  222.6662 H   0  0  0  0  0  0  0  0  0  0  0  0
  133.3135   70.3754  224.0681 H   0  0  0  0  0  0  0  0  0  0  0  0
  136.1993   71.8302  222.2130 H   0  0  0  0  0  0  0  0  0  0  0  0
  136.8981   74.2113  222.4636 H   0  0  0  0  0  0  0  0  0  0  0  0
  135.8555   75.6457  224.2154 H   0  0  0  0  0  0  0  0  0  0  0  0
  133.3570   72.3265  225.4482 H   0  0  0  0  0  0  0  0  0  0  0  0
  137.6689   67.8842  222.4621 H   0  0  0  0  0  0  0  0  0  0  0  0
  135.9100   68.3544  222.3886 H   0  0  0  0  0  0  0  0  0  0  0  0
  137.3396   69.4817  220.6689 H   0  0  0  0  0  0  0  0  0  0  0  0
  136.4668   70.6033  221.7779 H   0  0  0  0  0  0  0  0  0  0  0  0
  139.0810   71.0338  220.0667 H   0  0  0  0  0  0  0  0  0  0  0  0
  141.1909   72.1912  220.7234 H   0  0  0  0  0  0  0  0  0  0  0  0
  141.8333   72.3454  223.1296 H   0  0  0  0  0  0  0  0  0  0  0  0
  140.3775   71.3288  224.8778 H   0  0  0  0  0  0  0  0  0  0  0  0
  137.5272   70.8667  224.9500 H   0  0  0  0  0  0  0  0  0  0  0  0
  138.3386   67.1372  225.1602 H   0  0  0  0  0  0  0  0  0  0  0  0
  139.9800   66.5980  227.1100 H   0  0  0  0  0  0  0  0  0  0  0  0
  141.5369   68.0584  228.8306 H   0  0  0  0  0  0  0  0  0  0  0  0
  142.1984   70.4174  229.4278 H   0  0  0  0  0  0  0  0  0  0  0  0
  141.1994   72.3558  228.1922 H   0  0  0  0  0  0  0  0  0  0  0  0
  139.5353   71.9552  226.3394 H   0  0  0  0  0  0  0  0  0  0  0  0
  1  2  2  0
  2  3  2  0
  2  4  1  0
  4  5  1  0
  5  6  2  0
  6  7  1  0
  7  8  2  0
  8  9  1  0
  9 10  1  0
 10 11  1  0
 10 12  1  0
 10 13  1  0
  9 14  2  0
  2 15  1  0
 15 16  1  0
 16 17  1  0
 17 18  1  0
 18 19  2  0
 19 20  1  0
 20 21  2  0
 21 22  1  0
 22 23  2  0
 23 24  1  0
 24 25  1  0
 25 26  2  0
 26 27  1  0
 27 28  1  0
 28 29  2  0
 29 30  1  0
 30 31  2  0
 31 32  1  0
 32 33  2  0
 14  5  1  0
 24 15  1  0
 33 25  1  0
 23 18  1  0
 33 28  1  0
  4 34  1  0
  4 35  1  0
  6 36  1  0
  7 37  1  0
  8 38  1  0
 14 39  1  0
 16 40  1  0
 16 41  1  0
 17 42  1  0
 17 43  1  0
 19 44  1  0
 20 45  1  0
 21 46  1  0
 22 47  1  0
 24 48  1  1
 26 49  1  0
 27 50  1  0
 29 51  1  0
 30 52  1  0
 31 53  1  0
 32 54  1  0
M  END
>  <UniqueID>  (53) 
203

>  <SMILES>  (53) 
O=S(=O)(Cc1cccc(C(F)(F)F)c1)N1CCc2ccccc2[C@@H]1c1c[nH]c2ccccc12

>  <Energy>  (53) 
96.75575672887283

>  <Genealogy>  (53) 
O=S(=O)(Cc1cccc(C(F)(F)F)c1)N1CCc2ccccc2[C@@H]1c1c[nH]c2ccccc12 (3D coordinates assigned)
O=S(=O)(Cc1cccc(C(F)(F)F)c1)N1CCc2ccccc2[C@@H]1c1c[nH]c2ccccc12 (nonaromatic ring conformer: 96.75575672887283 kcal/mol)

>  <smiles>  (53) 
O=S(=O)(Cc1cccc(C(F)(F)F)c1)N1CCc2ccccc2[C@@H]1c1c[nH]c2ccccc12

>  <score_type>  (53) 
oracle

>  <origin>  (53) 
autodockgpu

>  <m_score__min__energy>  (53) 
-8.0600000000000005

>  <m_primary>  (53) 
energy

>  <meeko>  (53) 
{"free_energy": -8.06, "intermolecular_energy": -9.55, "internal_energy": -2.2, "cluster_size": 1, "cluster_id": 1, "rank_in_cluster": 1}

>  <energy>  (53) 
-6.68

>  <cluster_rmsd>  (53) 
0.06

>  <rmsd>  (53) 
270.9

>  <cluster>  (53) 
3

$$$$
GJSDZOHBAHKEKD-XMMPIXPANA-N
     RDKit          3D

 54 58  0  0  0  0  0  0  0  0999 V2000
  138.3970   77.5640  218.8340 O   0  0  0  0  0  0  0  0  0  0  0  0
  138.0860   77.0100  220.1950 S   0  0  0  0  0  0  0  0  0  0  0  0
  137.3620   75.7060  220.0080 O   0  0  0  0  0  0  0  0  0  0  0  0
  137.0050   78.1790  221.0330 C   0  0  0  0  0  0  0  0  0  0  0  0
  137.7750   79.2490  221.7640 C   0  0  0  0  0  0  0  0  0  0  0  0
  137.9450   79.1870  223.1580 C   0  0  0  0  0  0  0  0  0  0  0  0
  138.6280   80.2040  223.8320 C   0  0  0  0  0  0  0  0  0  0  0  0
  139.1450   81.2910  223.1230 C   0  0  0  0  0  0  0  0  0  0  0  0
  138.9730   81.3800  221.7290 C   0  0  0  0  0  0  0  0  0  0  0  0
  139.5630   82.5370  220.9590 C   0  0  0  0  0  0  0  0  0  0  0  0
  138.6390   83.5630  220.8400 F   0  0  0  0  0  0  0  0  0  0  0  0
  140.6810   83.0100  221.6280 F   0  0  0  0  0  0  0  0  0  0  0  0
  139.9340   82.1380  219.6830 F   0  0  0  0  0  0  0  0  0  0  0  0
  138.3170   80.3360  221.0520 C   0  0  0  0  0  0  0  0  0  0  0  0
  139.5910   76.7040  221.0400 N   0  0  0  0  0  0  0  0  0  0  0  0
  139.5430   75.5490  221.9610 C   0  0  0  0  0  0  0  0  0  0  0  0
  140.1350   74.2820  221.3550 C   0  0  0  0  0  0  0  0  0  0  0  0
  141.5200   74.5440  220.8530 C   0  0  0  0  0  0  0  0  0  0  0  0
  142.4690   73.5090  220.8520 C   0  0  0  0  0  0  0  0  0  0  0  0
  143.7400   73.7170  220.3090 C   0  0  0  0  0  0  0  0  0  0  0  0
  144.0640   74.9500  219.7420 C   0  0  0  0  0  0  0  0  0  0  0  0
  143.1190   75.9790  219.7230 C   0  0  0  0  0  0  0  0  0  0  0  0
  141.8460   75.7990  220.3030 C   0  0  0  0  0  0  0  0  0  0  0  0
  140.8030   76.9040  220.2040 C   0  0  2  0  0  0  0  0  0  0  0  0
  141.3890   78.2530  220.5390 C   0  0  0  0  0  0  0  0  0  0  0  0
  141.7060   79.2540  219.6200 C   0  0  0  0  0  0  0  0  0  0  0  0
  142.1410   80.3630  220.2590 N   0  0  0  0  0  0  0  0  0  0  0  0
  142.0960   80.0780  221.5740 C   0  0  0  0  0  0  0  0  0  0  0  0
  142.4320   80.9240  222.6320 C   0  0  0  0  0  0  0  0  0  0  0  0
  142.2940   80.4270  223.9430 C   0  0  0  0  0  0  0  0  0  0  0  0
  141.8370   79.1090  224.1650 C   0  0  0  0  0  0  0  0  0  0  0  0
  141.5080   78.2760  223.0780 C   0  0  0  0  0  0  0  0  0  0  0  0
  141.6430   78.7990  221.7880 C   0  0  0  0  0  0  0  0  0  0  0  0
  136.3559   78.6586  220.2856 H   0  0  0  0  0  0  0  0  0  0  0  0
  136.4177   77.6202  221.7765 H   0  0  0  0  0  0  0  0  0  0  0  0
  137.5387   78.3341  223.7214 H   0  0  0  0  0  0  0  0  0  0  0  0
  138.7585   80.1480  224.9228 H   0  0  0  0  0  0  0  0  0  0  0  0
  139.6902   82.0827  223.6578 H   0  0  0  0  0  0  0  0  0  0  0  0
  138.2266   80.3691  219.9562 H   0  0  0  0  0  0  0  0  0  0  0  0
  140.1092   75.8010  222.8698 H   0  0  0  0  0  0  0  0  0  0  0  0
  138.4845   75.3462  222.1811 H   0  0  0  0  0  0  0  0  0  0  0  0
  140.1702   73.4949  222.1226 H   0  0  0  0  0  0  0  0  0  0  0  0
  139.5045   73.9598  220.5132 H   0  0  0  0  0  0  0  0  0  0  0  0
  142.2108   72.5295  221.2808 H   0  0  0  0  0  0  0  0  0  0  0  0
  144.4853   72.9082  220.3287 H   0  0  0  0  0  0  0  0  0  0  0  0
  145.0627   75.1118  219.3103 H   0  0  0  0  0  0  0  0  0  0  0  0
  143.3706   76.9400  219.2506 H   0  0  0  0  0  0  0  0  0  0  0  0
  140.4839   76.8619  219.1521 H   0  0  0  0  0  0  0  0  0  0  0  0
  141.6147   79.1546  218.5283 H   0  0  0  0  0  0  0  0  0  0  0  0
  142.4400   81.2620  219.8160 H   0  0  0  0  0  0  0  0  0  0  0  0
  142.7932   81.9466  222.4480 H   0  0  0  0  0  0  0  0  0  0  0  0
  142.5439   81.0699  224.7999 H   0  0  0  0  0  0  0  0  0  0  0  0
  141.7375   78.7309  225.1932 H   0  0  0  0  0  0  0  0  0  0  0  0
  141.1559   77.2463  223.2387 H   0  0  0  0  0  0  0  0  0  0  0  0
  1  2  2  0
  2  3  2  0
  2  4  1  0
  4  5  1  0
  5  6  2  0
  6  7  1  0
  7  8  2  0
  8  9  1  0
  9 10  1  0
 10 11  1  0
 10 12  1  0
 10 13  1  0
  9 14  2  0
  2 15  1  0
 15 16  1  0
 16 17  1  0
 17 18  1  0
 18 19  2  0
 19 20  1  0
 20 21  2  0
 21 22  1  0
 22 23  2  0
 23 24  1  0
 24 25  1  0
 25 26  2  0
 26 27  1  0
 27 28  1  0
 28 29  2  0
 29 30  1  0
 30 31  2  0
 31 32  1  0
 32 33  2  0
 14  5  1  0
 24 15  1  0
 33 25  1  0
 23 18  1  0
 33 28  1  0
  4 34  1  0
  4 35  1  0
  6 36  1  0
  7 37  1  0
  8 38  1  0
 14 39  1  0
 16 40  1  0
 16 41  1  0
 17 42  1  0
 17 43  1  0
 19 44  1  0
 20 45  1  0
 21 46  1  0
 22 47  1  0
 24 48  1  6
 26 49  1  0
 27 50  1  0
 29 51  1  0
 30 52  1  0
 31 53  1  0
 32 54  1  0
M  END
>  <UniqueID>  (54) 
203

>  <SMILES>  (54) 
O=S(=O)(Cc1cccc(C(F)(F)F)c1)N1CCc2ccccc2[C@@H]1c1c[nH]c2ccccc12

>  <Energy>  (54) 
96.75575672887283

>  <Genealogy>  (54) 
O=S(=O)(Cc1cccc(C(F)(F)F)c1)N1CCc2ccccc2[C@@H]1c1c[nH]c2ccccc12 (3D coordinates assigned)
O=S(=O)(Cc1cccc(C(F)(F)F)c1)N1CCc2ccccc2[C@@H]1c1c[nH]c2ccccc12 (nonaromatic ring conformer: 96.75575672887283 kcal/mol)

>  <smiles>  (54) 
O=S(=O)(Cc1cccc(C(F)(F)F)c1)N1CCc2ccccc2[C@@H]1c1c[nH]c2ccccc12

>  <score_type>  (54) 
oracle

>  <origin>  (54) 
autodockgpu

>  <m_score__min__energy>  (54) 
-8.0600000000000005

>  <m_primary>  (54) 
energy

>  <meeko>  (54) 
{"free_energy": -6.66, "intermolecular_energy": -8.15, "internal_energy": -3.39, "cluster_size": 16, "cluster_id": 3, "rank_in_cluster": 15}

>  <energy>  (54) 
-6.67

>  <cluster_rmsd>  (54) 
0.06

>  <rmsd>  (54) 
270.93

>  <cluster>  (54) 
3

$$$$
GJSDZOHBAHKEKD-XMMPIXPANA-N
     RDKit          3D

 54 58  0  0  0  0  0  0  0  0999 V2000
  138.3910   77.5960  218.9320 O   0  0  0  0  0  0  0  0  0  0  0  0
  138.1050   76.9920  220.2780 S   0  0  0  0  0  0  0  0  0  0  0  0
  137.3990   75.6840  220.0550 O   0  0  0  0  0  0  0  0  0  0  0  0
  137.0150   78.1150  221.1660 C   0  0  0  0  0  0  0  0  0  0  0  0
  137.7730   79.2150  221.8660 C   0  0  0  0  0  0  0  0  0  0  0  0
  137.9340   79.2000  223.2620 C   0  0  0  0  0  0  0  0  0  0  0  0
  138.6050   80.2430  223.9060 C   0  0  0  0  0  0  0  0  0  0  0  0
  139.1190   81.3100  223.1650 C   0  0  0  0  0  0  0  0  0  0  0  0
  138.9550   81.3530  221.7680 C   0  0  0  0  0  0  0  0  0  0  0  0
  139.5410   82.4880  220.9640 C   0  0  0  0  0  0  0  0  0  0  0  0
  138.6230   83.5180  220.8370 F   0  0  0  0  0  0  0  0  0  0  0  0
  140.6730   82.9670  221.6050 F   0  0  0  0  0  0  0  0  0  0  0  0
  139.8890   82.0590  219.6910 F   0  0  0  0  0  0  0  0  0  0  0  0
  138.3110   80.2810  221.1220 C   0  0  0  0  0  0  0  0  0  0  0  0
  139.6240   76.6820  221.0950 N   0  0  0  0  0  0  0  0  0  0  0  0
  139.5920   75.5230  222.0090 C   0  0  0  0  0  0  0  0  0  0  0  0
  140.1750   74.2600  221.3870 C   0  0  0  0  0  0  0  0  0  0  0  0
  141.5510   74.5260  220.8630 C   0  0  0  0  0  0  0  0  0  0  0  0
  142.5010   73.4920  220.8390 C   0  0  0  0  0  0  0  0  0  0  0  0
  143.7620   73.7040  220.2770 C   0  0  0  0  0  0  0  0  0  0  0  0
  144.0750   74.9400  219.7110 C   0  0  0  0  0  0  0  0  0  0  0  0
  143.1300   75.9690  219.7140 C   0  0  0  0  0  0  0  0  0  0  0  0
  141.8660   75.7840  220.3140 C   0  0  0  0  0  0  0  0  0  0  0  0
  140.8220   76.8890  220.2390 C   0  0  2  0  0  0  0  0  0  0  0  0
  141.4120   78.2360  220.5720 C   0  0  0  0  0  0  0  0  0  0  0  0
  141.7460   79.2280  219.6500 C   0  0  0  0  0  0  0  0  0  0  0  0
  142.1810   80.3400  220.2860 N   0  0  0  0  0  0  0  0  0  0  0  0
  142.1180   80.0640  221.6030 C   0  0  0  0  0  0  0  0  0  0  0  0
  142.4470   80.9150  222.6590 C   0  0  0  0  0  0  0  0  0  0  0  0
  142.2900   80.4290  223.9720 C   0  0  0  0  0  0  0  0  0  0  0  0
  141.8210   79.1150  224.1980 C   0  0  0  0  0  0  0  0  0  0  0  0
  141.5000   78.2760  223.1120 C   0  0  0  0  0  0  0  0  0  0  0  0
  141.6540   78.7900  221.8200 C   0  0  0  0  0  0  0  0  0  0  0  0
  136.3147   78.5688  220.4492 H   0  0  0  0  0  0  0  0  0  0  0  0
  136.4838   77.5320  221.9328 H   0  0  0  0  0  0  0  0  0  0  0  0
  137.5299   78.3632  223.8506 H   0  0  0  0  0  0  0  0  0  0  0  0
  138.7287   80.2238  224.9989 H   0  0  0  0  0  0  0  0  0  0  0  0
  139.6557   82.1222  223.6771 H   0  0  0  0  0  0  0  0  0  0  0  0
  138.2276   80.2767  220.0252 H   0  0  0  0  0  0  0  0  0  0  0  0
  140.1725   75.7706  222.9099 H   0  0  0  0  0  0  0  0  0  0  0  0
  138.5373   75.3179  222.2447 H   0  0  0  0  0  0  0  0  0  0  0  0
  140.2240   73.4692  222.1500 H   0  0  0  0  0  0  0  0  0  0  0  0
  139.5307   73.9413  220.5543 H   0  0  0  0  0  0  0  0  0  0  0  0
  142.2506   72.5094  221.2653 H   0  0  0  0  0  0  0  0  0  0  0  0
  144.5085   72.8961  220.2807 H   0  0  0  0  0  0  0  0  0  0  0  0
  145.0658   75.1044  219.2624 H   0  0  0  0  0  0  0  0  0  0  0  0
  143.3736   76.9332  219.2439 H   0  0  0  0  0  0  0  0  0  0  0  0
  140.4860   76.8542  219.1922 H   0  0  0  0  0  0  0  0  0  0  0  0
  141.6668   79.1210  218.5581 H   0  0  0  0  0  0  0  0  0  0  0  0
  142.4910   81.2340  219.8410 H   0  0  0  0  0  0  0  0  0  0  0  0
  142.8175   81.9337  222.4720 H   0  0  0  0  0  0  0  0  0  0  0  0
  142.5341   81.0766  224.8270 H   0  0  0  0  0  0  0  0  0  0  0  0
  141.7059   78.7450  225.2275 H   0  0  0  0  0  0  0  0  0  0  0  0
  141.1398   77.2495  223.2751 H   0  0  0  0  0  0  0  0  0  0  0  0
  1  2  2  0
  2  3  2  0
  2  4  1  0
  4  5  1  0
  5  6  2  0
  6  7  1  0
  7  8  2  0
  8  9  1  0
  9 10  1  0
 10 11  1  0
 10 12  1  0
 10 13  1  0
  9 14  2  0
  2 15  1  0
 15 16  1  0
 16 17  1  0
 17 18  1  0
 18 19  2  0
 19 20  1  0
 20 21  2  0
 21 22  1  0
 22 23  2  0
 23 24  1  0
 24 25  1  0
 25 26  2  0
 26 27  1  0
 27 28  1  0
 28 29  2  0
 29 30  1  0
 30 31  2  0
 31 32  1  0
 32 33  2  0
 14  5  1  0
 24 15  1  0
 33 25  1  0
 23 18  1  0
 33 28  1  0
  4 34  1  0
  4 35  1  0
  6 36  1  0
  7 37  1  0
  8 38  1  0
 14 39  1  0
 16 40  1  0
 16 41  1  0
 17 42  1  0
 17 43  1  0
 19 44  1  0
 20 45  1  0
 21 46  1  0
 22 47  1  0
 24 48  1  6
 26 49  1  0
 27 50  1  0
 29 51  1  0
 30 52  1  0
 31 53  1  0
 32 54  1  0
M  END
>  <UniqueID>  (55) 
203

>  <SMILES>  (55) 
O=S(=O)(Cc1cccc(C(F)(F)F)c1)N1CCc2ccccc2[C@@H]1c1c[nH]c2ccccc12

>  <Energy>  (55) 
96.75575672887283

>  <Genealogy>  (55) 
O=S(=O)(Cc1cccc(C(F)(F)F)c1)N1CCc2ccccc2[C@@H]1c1c[nH]c2ccccc12 (3D coordinates assigned)
O=S(=O)(Cc1cccc(C(F)(F)F)c1)N1CCc2ccccc2[C@@H]1c1c[nH]c2ccccc12 (nonaromatic ring conformer: 96.75575672887283 kcal/mol)

>  <smiles>  (55) 
O=S(=O)(Cc1cccc(C(F)(F)F)c1)N1CCc2ccccc2[C@@H]1c1c[nH]c2ccccc12

>  <score_type>  (55) 
oracle

>  <origin>  (55) 
autodockgpu

>  <m_score__min__energy>  (55) 
-8.0600000000000005

>  <m_primary>  (55) 
energy

>  <meeko>  (55) 
{"free_energy": -6.67, "intermolecular_energy": -8.17, "internal_energy": -3.39, "cluster_size": 16, "cluster_id": 3, "rank_in_cluster": 11}

>  <energy>  (55) 
-6.67

>  <cluster_rmsd>  (55) 
0.09

>  <rmsd>  (55) 
270.92

>  <cluster>  (55) 
3

$$$$
GJSDZOHBAHKEKD-XMMPIXPANA-N
     RDKit          3D

 54 58  0  0  0  0  0  0  0  0999 V2000
  138.3830   77.5500  218.9340 O   0  0  0  0  0  0  0  0  0  0  0  0
  138.1030   76.9800  220.2960 S   0  0  0  0  0  0  0  0  0  0  0  0
  137.3830   75.6740  220.1090 O   0  0  0  0  0  0  0  0  0  0  0  0
  137.0310   78.1330  221.1660 C   0  0  0  0  0  0  0  0  0  0  0  0
  137.8060   79.2290  221.8530 C   0  0  0  0  0  0  0  0  0  0  0  0
  137.9880   79.2150  223.2470 C   0  0  0  0  0  0  0  0  0  0  0  0
  138.6760   80.2550  223.8790 C   0  0  0  0  0  0  0  0  0  0  0  0
  139.1840   81.3180  223.1280 C   0  0  0  0  0  0  0  0  0  0  0  0
  138.9990   81.3600  221.7330 C   0  0  0  0  0  0  0  0  0  0  0  0
  139.5790   82.4900  220.9190 C   0  0  0  0  0  0  0  0  0  0  0  0
  138.6530   83.5110  220.7750 F   0  0  0  0  0  0  0  0  0  0  0  0
  140.7040   82.9870  221.5600 F   0  0  0  0  0  0  0  0  0  0  0  0
  139.9370   82.0490  219.6530 F   0  0  0  0  0  0  0  0  0  0  0  0
  138.3380   80.2910  221.1000 C   0  0  0  0  0  0  0  0  0  0  0  0
  139.6260   76.6750  221.1070 N   0  0  0  0  0  0  0  0  0  0  0  0
  139.5990   75.5190  222.0270 C   0  0  0  0  0  0  0  0  0  0  0  0
  140.1800   74.2540  221.4070 C   0  0  0  0  0  0  0  0  0  0  0  0
  141.5540   74.5190  220.8760 C   0  0  0  0  0  0  0  0  0  0  0  0
  142.5050   73.4860  220.8520 C   0  0  0  0  0  0  0  0  0  0  0  0
  143.7630   73.6960  220.2830 C   0  0  0  0  0  0  0  0  0  0  0  0
  144.0730   74.9310  219.7110 C   0  0  0  0  0  0  0  0  0  0  0  0
  143.1260   75.9590  219.7150 C   0  0  0  0  0  0  0  0  0  0  0  0
  141.8660   75.7750  220.3210 C   0  0  0  0  0  0  0  0  0  0  0  0
  140.8200   76.8790  220.2460 C   0  0  2  0  0  0  0  0  0  0  0  0
  141.4100   78.2280  220.5710 C   0  0  0  0  0  0  0  0  0  0  0  0
  141.7400   79.2160  219.6430 C   0  0  0  0  0  0  0  0  0  0  0  0
  142.1760   80.3310  220.2730 N   0  0  0  0  0  0  0  0  0  0  0  0
  142.1190   80.0610  221.5900 C   0  0  0  0  0  0  0  0  0  0  0  0
  142.4510   80.9170  222.6410 C   0  0  0  0  0  0  0  0  0  0  0  0
  142.2990   80.4360  223.9570 C   0  0  0  0  0  0  0  0  0  0  0  0
  141.8330   79.1230  224.1900 C   0  0  0  0  0  0  0  0  0  0  0  0
  141.5080   78.2790  223.1100 C   0  0  0  0  0  0  0  0  0  0  0  0
  141.6570   78.7870  221.8150 C   0  0  0  0  0  0  0  0  0  0  0  0
  136.3402   78.5891  220.4415 H   0  0  0  0  0  0  0  0  0  0  0  0
  136.4883   77.5695  221.9393 H   0  0  0  0  0  0  0  0  0  0  0  0
  137.5872   78.3819  223.8431 H   0  0  0  0  0  0  0  0  0  0  0  0
  138.8176   80.2364  224.9697 H   0  0  0  0  0  0  0  0  0  0  0  0
  139.7327   82.1282  223.6305 H   0  0  0  0  0  0  0  0  0  0  0  0
  138.2364   80.2860  220.0047 H   0  0  0  0  0  0  0  0  0  0  0  0
  140.1837   75.7707  222.9241 H   0  0  0  0  0  0  0  0  0  0  0  0
  138.5457   75.3143  222.2690 H   0  0  0  0  0  0  0  0  0  0  0  0
  140.2327   73.4659  222.1726 H   0  0  0  0  0  0  0  0  0  0  0  0
  139.5323   73.9319  220.5783 H   0  0  0  0  0  0  0  0  0  0  0  0
  142.2575   72.5052  221.2841 H   0  0  0  0  0  0  0  0  0  0  0  0
  144.5096   72.8882  220.2856 H   0  0  0  0  0  0  0  0  0  0  0  0
  145.0617   75.0950  219.2575 H   0  0  0  0  0  0  0  0  0  0  0  0
  143.3661   76.9218  219.2404 H   0  0  0  0  0  0  0  0  0  0  0  0
  140.4797   76.8389  219.2007 H   0  0  0  0  0  0  0  0  0  0  0  0
  141.6573   79.1041  218.5518 H   0  0  0  0  0  0  0  0  0  0  0  0
  142.4840   81.2230  219.8230 H   0  0  0  0  0  0  0  0  0  0  0  0
  142.8198   81.9353  222.4483 H   0  0  0  0  0  0  0  0  0  0  0  0
  142.5449   81.0875  224.8085 H   0  0  0  0  0  0  0  0  0  0  0  0
  141.7232   78.7572  225.2216 H   0  0  0  0  0  0  0  0  0  0  0  0
  141.1485   77.2533  223.2794 H   0  0  0  0  0  0  0  0  0  0  0  0
  1  2  2  0
  2  3  2  0
  2  4  1  0
  4  5  1  0
  5  6  2  0
  6  7  1  0
  7  8  2  0
  8  9  1  0
  9 10  1  0
 10 11  1  0
 10 12  1  0
 10 13  1  0
  9 14  2  0
  2 15  1  0
 15 16  1  0
 16 17  1  0
 17 18  1  0
 18 19  2  0
 19 20  1  0
 20 21  2  0
 21 22  1  0
 22 23  2  0
 23 24  1  0
 24 25  1  0
 25 26  2  0
 26 27  1  0
 27 28  1  0
 28 29  2  0
 29 30  1  0
 30 31  2  0
 31 32  1  0
 32 33  2  0
 14  5  1  0
 24 15  1  0
 33 25  1  0
 23 18  1  0
 33 28  1  0
  4 34  1  0
  4 35  1  0
  6 36  1  0
  7 37  1  0
  8 38  1  0
 14 39  1  0
 16 40  1  0
 16 41  1  0
 17 42  1  0
 17 43  1  0
 19 44  1  0
 20 45  1  0
 21 46  1  0
 22 47  1  0
 24 48  1  6
 26 49  1  0
 27 50  1  0
 29 51  1  0
 30 52  1  0
 31 53  1  0
 32 54  1  0
M  END
>  <UniqueID>  (56) 
203

>  <SMILES>  (56) 
O=S(=O)(Cc1cccc(C(F)(F)F)c1)N1CCc2ccccc2[C@@H]1c1c[nH]c2ccccc12

>  <Energy>  (56) 
96.75575672887283

>  <Genealogy>  (56) 
O=S(=O)(Cc1cccc(C(F)(F)F)c1)N1CCc2ccccc2[C@@H]1c1c[nH]c2ccccc12 (3D coordinates assigned)
O=S(=O)(Cc1cccc(C(F)(F)F)c1)N1CCc2ccccc2[C@@H]1c1c[nH]c2ccccc12 (nonaromatic ring conformer: 96.75575672887283 kcal/mol)

>  <smiles>  (56) 
O=S(=O)(Cc1cccc(C(F)(F)F)c1)N1CCc2ccccc2[C@@H]1c1c[nH]c2ccccc12

>  <score_type>  (56) 
oracle

>  <origin>  (56) 
autodockgpu

>  <m_score__min__energy>  (56) 
-8.0600000000000005

>  <m_primary>  (56) 
energy

>  <meeko>  (56) 
{"free_energy": -6.68, "intermolecular_energy": -8.18, "internal_energy": -3.37, "cluster_size": 16, "cluster_id": 3, "rank_in_cluster": 7}

>  <energy>  (56) 
-6.67

>  <cluster_rmsd>  (56) 
0.08

>  <rmsd>  (56) 
270.91

>  <cluster>  (56) 
3

$$$$
GJSDZOHBAHKEKD-XMMPIXPANA-N
     RDKit          3D

 54 58  0  0  0  0  0  0  0  0999 V2000
  138.4160   77.5850  218.8650 O   0  0  0  0  0  0  0  0  0  0  0  0
  138.1170   77.0120  220.2220 S   0  0  0  0  0  0  0  0  0  0  0  0
  137.3980   75.7070  220.0220 O   0  0  0  0  0  0  0  0  0  0  0  0
  137.0340   78.1650  221.0790 C   0  0  0  0  0  0  0  0  0  0  0  0
  137.8010   79.2470  221.7950 C   0  0  0  0  0  0  0  0  0  0  0  0
  137.9770   79.2010  223.1890 C   0  0  0  0  0  0  0  0  0  0  0  0
  138.6580   80.2290  223.8480 C   0  0  0  0  0  0  0  0  0  0  0  0
  139.1650   81.3120  223.1250 C   0  0  0  0  0  0  0  0  0  0  0  0
  138.9850   81.3850  221.7310 C   0  0  0  0  0  0  0  0  0  0  0  0
  139.5640   82.5370  220.9460 C   0  0  0  0  0  0  0  0  0  0  0  0
  138.6360   83.5590  220.8260 F   0  0  0  0  0  0  0  0  0  0  0  0
  140.6860   83.0210  221.6020 F   0  0  0  0  0  0  0  0  0  0  0  0
  139.9270   82.1280  219.6700 F   0  0  0  0  0  0  0  0  0  0  0  0
  138.3320   80.3290  221.0690 C   0  0  0  0  0  0  0  0  0  0  0  0
  139.6280   76.7040  221.0540 N   0  0  0  0  0  0  0  0  0  0  0  0
  139.5870   75.5470  221.9720 C   0  0  0  0  0  0  0  0  0  0  0  0
  140.1750   74.2830  221.3590 C   0  0  0  0  0  0  0  0  0  0  0  0
  141.5560   74.5470  220.8460 C   0  0  0  0  0  0  0  0  0  0  0  0
  142.5060   73.5120  220.8350 C   0  0  0  0  0  0  0  0  0  0  0  0
  143.7720   73.7210  220.2830 C   0  0  0  0  0  0  0  0  0  0  0  0
  144.0910   74.9560  219.7170 C   0  0  0  0  0  0  0  0  0  0  0  0
  143.1460   75.9850  219.7080 C   0  0  0  0  0  0  0  0  0  0  0  0
  141.8770   75.8020  220.2970 C   0  0  0  0  0  0  0  0  0  0  0  0
  140.8330   76.9080  220.2090 C   0  0  2  0  0  0  0  0  0  0  0  0
  141.4210   78.2560  220.5430 C   0  0  0  0  0  0  0  0  0  0  0  0
  141.7520   79.2500  219.6220 C   0  0  0  0  0  0  0  0  0  0  0  0
  142.1850   80.3620  220.2600 N   0  0  0  0  0  0  0  0  0  0  0  0
  142.1250   80.0840  221.5760 C   0  0  0  0  0  0  0  0  0  0  0  0
  142.4530   80.9340  222.6330 C   0  0  0  0  0  0  0  0  0  0  0  0
  142.2990   80.4450  223.9450 C   0  0  0  0  0  0  0  0  0  0  0  0
  141.8340   79.1290  224.1690 C   0  0  0  0  0  0  0  0  0  0  0  0
  141.5130   78.2920  223.0830 C   0  0  0  0  0  0  0  0  0  0  0  0
  141.6640   78.8080  221.7920 C   0  0  0  0  0  0  0  0  0  0  0  0
  136.3640   78.6341  220.3434 H   0  0  0  0  0  0  0  0  0  0  0  0
  136.4689   77.5980  221.8335 H   0  0  0  0  0  0  0  0  0  0  0  0
  137.5772   78.3526  223.7637 H   0  0  0  0  0  0  0  0  0  0  0  0
  138.7951   80.1851  224.9386 H   0  0  0  0  0  0  0  0  0  0  0  0
  139.7082   82.1125  223.6486 H   0  0  0  0  0  0  0  0  0  0  0  0
  138.2357   80.3495  219.9734 H   0  0  0  0  0  0  0  0  0  0  0  0
  140.1593   75.7970  222.8775 H   0  0  0  0  0  0  0  0  0  0  0  0
  138.5302   75.3430  222.1990 H   0  0  0  0  0  0  0  0  0  0  0  0
  140.2172   73.4943  222.1247 H   0  0  0  0  0  0  0  0  0  0  0  0
  139.5380   73.9623  220.5215 H   0  0  0  0  0  0  0  0  0  0  0  0
  142.2514   72.5314  221.2636 H   0  0  0  0  0  0  0  0  0  0  0  0
  144.5174   72.9122  220.2945 H   0  0  0  0  0  0  0  0  0  0  0  0
  145.0863   75.1193  219.2780 H   0  0  0  0  0  0  0  0  0  0  0  0
  143.3938   76.9476  219.2369 H   0  0  0  0  0  0  0  0  0  0  0  0
  140.5060   76.8702  219.1594 H   0  0  0  0  0  0  0  0  0  0  0  0
  141.6722   79.1446  218.5300 H   0  0  0  0  0  0  0  0  0  0  0  0
  142.4930   81.2570  219.8160 H   0  0  0  0  0  0  0  0  0  0  0  0
  142.8204   81.9541  222.4474 H   0  0  0  0  0  0  0  0  0  0  0  0
  142.5422   81.0916  224.8010 H   0  0  0  0  0  0  0  0  0  0  0  0
  141.7222   78.7565  225.1980 H   0  0  0  0  0  0  0  0  0  0  0  0
  141.1548   77.2647  223.2450 H   0  0  0  0  0  0  0  0  0  0  0  0
  1  2  2  0
  2  3  2  0
  2  4  1  0
  4  5  1  0
  5  6  2  0
  6  7  1  0
  7  8  2  0
  8  9  1  0
  9 10  1  0
 10 11  1  0
 10 12  1  0
 10 13  1  0
  9 14  2  0
  2 15  1  0
 15 16  1  0
 16 17  1  0
 17 18  1  0
 18 19  2  0
 19 20  1  0
 20 21  2  0
 21 22  1  0
 22 23  2  0
 23 24  1  0
 24 25  1  0
 25 26  2  0
 26 27  1  0
 27 28  1  0
 28 29  2  0
 29 30  1  0
 30 31  2  0
 31 32  1  0
 32 33  2  0
 14  5  1  0
 24 15  1  0
 33 25  1  0
 23 18  1  0
 33 28  1  0
  4 34  1  0
  4 35  1  0
  6 36  1  0
  7 37  1  0
  8 38  1  0
 14 39  1  0
 16 40  1  0
 16 41  1  0
 17 42  1  0
 17 43  1  0
 19 44  1  0
 20 45  1  0
 21 46  1  0
 22 47  1  0
 24 48  1  6
 26 49  1  0
 27 50  1  0
 29 51  1  0
 30 52  1  0
 31 53  1  0
 32 54  1  0
M  END
>  <UniqueID>  (57) 
203

>  <SMILES>  (57) 
O=S(=O)(Cc1cccc(C(F)(F)F)c1)N1CCc2ccccc2[C@@H]1c1c[nH]c2ccccc12

>  <Energy>  (57) 
96.75575672887283

>  <Genealogy>  (57) 
O=S(=O)(Cc1cccc(C(F)(F)F)c1)N1CCc2ccccc2[C@@H]1c1c[nH]c2ccccc12 (3D coordinates assigned)
O=S(=O)(Cc1cccc(C(F)(F)F)c1)N1CCc2ccccc2[C@@H]1c1c[nH]c2ccccc12 (nonaromatic ring conformer: 96.75575672887283 kcal/mol)

>  <smiles>  (57) 
O=S(=O)(Cc1cccc(C(F)(F)F)c1)N1CCc2ccccc2[C@@H]1c1c[nH]c2ccccc12

>  <score_type>  (57) 
oracle

>  <origin>  (57) 
autodockgpu

>  <m_score__min__energy>  (57) 
-8.0600000000000005

>  <m_primary>  (57) 
energy

>  <meeko>  (57) 
{"free_energy": -6.67, "intermolecular_energy": -8.16, "internal_energy": -3.38, "cluster_size": 16, "cluster_id": 3, "rank_in_cluster": 14}

>  <energy>  (57) 
-6.67

>  <cluster_rmsd>  (57) 
0.12

>  <rmsd>  (57) 
270.93

>  <cluster>  (57) 
3

$$$$
GJSDZOHBAHKEKD-XMMPIXPANA-N
     RDKit          3D

 54 58  0  0  0  0  0  0  0  0999 V2000
  138.4270   77.5030  218.8310 O   0  0  0  0  0  0  0  0  0  0  0  0
  138.1110   76.9880  220.2070 S   0  0  0  0  0  0  0  0  0  0  0  0
  137.3600   75.6950  220.0540 O   0  0  0  0  0  0  0  0  0  0  0  0
  137.0570   78.1980  221.0200 C   0  0  0  0  0  0  0  0  0  0  0  0
  137.8510   79.2460  221.7580 C   0  0  0  0  0  0  0  0  0  0  0  0
  138.0450   79.1540  223.1470 C   0  0  0  0  0  0  0  0  0  0  0  0
  138.7500   80.1500  223.8280 C   0  0  0  0  0  0  0  0  0  0  0  0
  139.2650   81.2470  223.1320 C   0  0  0  0  0  0  0  0  0  0  0  0
  139.0680   81.3660  221.7430 C   0  0  0  0  0  0  0  0  0  0  0  0
  139.6560   82.5320  220.9860 C   0  0  0  0  0  0  0  0  0  0  0  0
  138.7290   83.5560  220.8750 F   0  0  0  0  0  0  0  0  0  0  0  0
  140.7710   83.0030  221.6620 F   0  0  0  0  0  0  0  0  0  0  0  0
  140.0310   82.1470  219.7060 F   0  0  0  0  0  0  0  0  0  0  0  0
  138.3900   80.3410  221.0580 C   0  0  0  0  0  0  0  0  0  0  0  0
  139.6140   76.6730  221.0530 N   0  0  0  0  0  0  0  0  0  0  0  0
  139.5580   75.5170  221.9710 C   0  0  0  0  0  0  0  0  0  0  0  0
  140.1440   74.2480  221.3640 C   0  0  0  0  0  0  0  0  0  0  0  0
  141.5310   74.5040  220.8640 C   0  0  0  0  0  0  0  0  0  0  0  0
  142.4760   73.4640  220.8610 C   0  0  0  0  0  0  0  0  0  0  0  0
  143.7480   73.6670  220.3210 C   0  0  0  0  0  0  0  0  0  0  0  0
  144.0790   74.9000  219.7570 C   0  0  0  0  0  0  0  0  0  0  0  0
  143.1390   75.9340  219.7390 C   0  0  0  0  0  0  0  0  0  0  0  0
  141.8640   75.7580  220.3170 C   0  0  0  0  0  0  0  0  0  0  0  0
  140.8270   76.8690  220.2180 C   0  0  2  0  0  0  0  0  0  0  0  0
  141.4190   78.2140  220.5570 C   0  0  0  0  0  0  0  0  0  0  0  0
  141.7400   79.2160  219.6410 C   0  0  0  0  0  0  0  0  0  0  0  0
  142.1810   80.3220  220.2830 N   0  0  0  0  0  0  0  0  0  0  0  0
  142.1350   80.0330  221.5970 C   0  0  0  0  0  0  0  0  0  0  0  0
  142.4760   80.8750  222.6570 C   0  0  0  0  0  0  0  0  0  0  0  0
  142.3360   80.3750  223.9670 C   0  0  0  0  0  0  0  0  0  0  0  0
  141.8730   79.0580  224.1860 C   0  0  0  0  0  0  0  0  0  0  0  0
  141.5400   78.2290  223.0960 C   0  0  0  0  0  0  0  0  0  0  0  0
  141.6760   78.7560  221.8070 C   0  0  0  0  0  0  0  0  0  0  0  0
  136.4371   78.6948  220.2592 H   0  0  0  0  0  0  0  0  0  0  0  0
  136.4388   77.6641  221.7567 H   0  0  0  0  0  0  0  0  0  0  0  0
  137.6400   78.2940  223.7006 H   0  0  0  0  0  0  0  0  0  0  0  0
  138.9000   80.0703  224.9148 H   0  0  0  0  0  0  0  0  0  0  0  0
  139.8277   82.0222  223.6727 H   0  0  0  0  0  0  0  0  0  0  0  0
  138.2803   80.3962  219.9649 H   0  0  0  0  0  0  0  0  0  0  0  0
  140.1238   75.7642  222.8814 H   0  0  0  0  0  0  0  0  0  0  0  0
  138.4979   75.3195  222.1884 H   0  0  0  0  0  0  0  0  0  0  0  0
  140.1743   73.4596  222.1305 H   0  0  0  0  0  0  0  0  0  0  0  0
  139.5128   73.9300  220.5211 H   0  0  0  0  0  0  0  0  0  0  0  0
  142.2124   72.4844  221.2864 H   0  0  0  0  0  0  0  0  0  0  0  0
  144.4894   72.8546  220.3402 H   0  0  0  0  0  0  0  0  0  0  0  0
  145.0791   75.0578  219.3270 H   0  0  0  0  0  0  0  0  0  0  0  0
  143.3958   76.8950  219.2694 H   0  0  0  0  0  0  0  0  0  0  0  0
  140.5095   76.8314  219.1655 H   0  0  0  0  0  0  0  0  0  0  0  0
  141.6474   79.1201  218.5491 H   0  0  0  0  0  0  0  0  0  0  0  0
  142.4840   81.2210  219.8430 H   0  0  0  0  0  0  0  0  0  0  0  0
  142.8423   81.8962  222.4754 H   0  0  0  0  0  0  0  0  0  0  0  0
  142.5890   81.0146  224.8254 H   0  0  0  0  0  0  0  0  0  0  0  0
  141.7719   78.6776  225.2132 H   0  0  0  0  0  0  0  0  0  0  0  0
  141.1844   77.2001  223.2536 H   0  0  0  0  0  0  0  0  0  0  0  0
  1  2  2  0
  2  3  2  0
  2  4  1  0
  4  5  1  0
  5  6  2  0
  6  7  1  0
  7  8  2  0
  8  9  1  0
  9 10  1  0
 10 11  1  0
 10 12  1  0
 10 13  1  0
  9 14  2  0
  2 15  1  0
 15 16  1  0
 16 17  1  0
 17 18  1  0
 18 19  2  0
 19 20  1  0
 20 21  2  0
 21 22  1  0
 22 23  2  0
 23 24  1  0
 24 25  1  0
 25 26  2  0
 26 27  1  0
 27 28  1  0
 28 29  2  0
 29 30  1  0
 30 31  2  0
 31 32  1  0
 32 33  2  0
 14  5  1  0
 24 15  1  0
 33 25  1  0
 23 18  1  0
 33 28  1  0
  4 34  1  0
  4 35  1  0
  6 36  1  0
  7 37  1  0
  8 38  1  0
 14 39  1  0
 16 40  1  0
 16 41  1  0
 17 42  1  0
 17 43  1  0
 19 44  1  0
 20 45  1  0
 21 46  1  0
 22 47  1  0
 24 48  1  6
 26 49  1  0
 27 50  1  0
 29 51  1  0
 30 52  1  0
 31 53  1  0
 32 54  1  0
M  END
>  <UniqueID>  (58) 
203

>  <SMILES>  (58) 
O=S(=O)(Cc1cccc(C(F)(F)F)c1)N1CCc2ccccc2[C@@H]1c1c[nH]c2ccccc12

>  <Energy>  (58) 
96.75575672887283

>  <Genealogy>  (58) 
O=S(=O)(Cc1cccc(C(F)(F)F)c1)N1CCc2ccccc2[C@@H]1c1c[nH]c2ccccc12 (3D coordinates assigned)
O=S(=O)(Cc1cccc(C(F)(F)F)c1)N1CCc2ccccc2[C@@H]1c1c[nH]c2ccccc12 (nonaromatic ring conformer: 96.75575672887283 kcal/mol)

>  <smiles>  (58) 
O=S(=O)(Cc1cccc(C(F)(F)F)c1)N1CCc2ccccc2[C@@H]1c1c[nH]c2ccccc12

>  <score_type>  (58) 
oracle

>  <origin>  (58) 
autodockgpu

>  <m_score__min__energy>  (58) 
-8.0600000000000005

>  <m_primary>  (58) 
energy

>  <meeko>  (58) 
{"free_energy": -6.7, "intermolecular_energy": -8.19, "internal_energy": -3.35, "cluster_size": 16, "cluster_id": 3, "rank_in_cluster": 2}

>  <energy>  (58) 
-6.67

>  <cluster_rmsd>  (58) 
0.06

>  <rmsd>  (58) 
270.91

>  <cluster>  (58) 
3

$$$$
GJSDZOHBAHKEKD-XMMPIXPANA-N
     RDKit          3D

 54 58  0  0  0  0  0  0  0  0999 V2000
  138.5570   82.6530  218.1460 O   0  0  0  0  0  0  0  0  0  0  0  0
  138.7850   81.4290  218.9880 S   0  0  0  0  0  0  0  0  0  0  0  0
  138.5880   80.2240  218.1110 O   0  0  0  0  0  0  0  0  0  0  0  0
  137.5510   81.4230  220.2970 C   0  0  0  0  0  0  0  0  0  0  0  0
  137.9930   80.6230  221.4960 C   0  0  0  0  0  0  0  0  0  0  0  0
  138.2300   81.2510  222.7310 C   0  0  0  0  0  0  0  0  0  0  0  0
  138.6760   80.5070  223.8270 C   0  0  0  0  0  0  0  0  0  0  0  0
  138.8920   79.1320  223.7010 C   0  0  0  0  0  0  0  0  0  0  0  0
  138.6750   78.4860  222.4700 C   0  0  0  0  0  0  0  0  0  0  0  0
  138.8740   76.9950  222.3440 C   0  0  0  0  0  0  0  0  0  0  0  0
  137.9790   76.3160  223.1560 F   0  0  0  0  0  0  0  0  0  0  0  0
  138.6670   76.6140  221.0270 F   0  0  0  0  0  0  0  0  0  0  0  0
  140.1600   76.6380  222.7230 F   0  0  0  0  0  0  0  0  0  0  0  0
  138.1910   79.2350  221.3810 C   0  0  0  0  0  0  0  0  0  0  0  0
  140.4380   81.4400  219.5690 N   0  0  0  0  0  0  0  0  0  0  0  0
  140.8710   82.7360  220.1320 C   0  0  0  0  0  0  0  0  0  0  0  0
  140.8000   82.7760  221.6530 C   0  0  0  0  0  0  0  0  0  0  0  0
  141.5570   81.6260  222.2390 C   0  0  0  0  0  0  0  0  0  0  0  0
  142.1700   81.7610  223.4960 C   0  0  0  0  0  0  0  0  0  0  0  0
  142.8100   80.6710  224.0910 C   0  0  0  0  0  0  0  0  0  0  0  0
  142.8210   79.4320  223.4490 C   0  0  0  0  0  0  0  0  0  0  0  0
  142.1990   79.2850  222.2060 C   0  0  0  0  0  0  0  0  0  0  0  0
  141.5840   80.3850  221.5730 C   0  0  0  0  0  0  0  0  0  0  0  0
  140.8430   80.1870  220.2570 C   0  0  2  0  0  0  0  0  0  0  0  0
  141.6450   79.3560  219.2880 C   0  0  0  0  0  0  0  0  0  0  0  0
  142.2990   79.8340  218.1530 C   0  0  0  0  0  0  0  0  0  0  0  0
  142.9850   78.8400  217.5460 N   0  0  0  0  0  0  0  0  0  0  0  0
  142.7780   77.7370  218.2890 C   0  0  0  0  0  0  0  0  0  0  0  0
  143.3010   76.4620  218.0700 C   0  0  0  0  0  0  0  0  0  0  0  0
  142.9690   75.4450  218.9880 C   0  0  0  0  0  0  0  0  0  0  0  0
  142.1250   75.7210  220.0870 C   0  0  0  0  0  0  0  0  0  0  0  0
  141.6080   77.0170  220.2820 C   0  0  0  0  0  0  0  0  0  0  0  0
  141.9640   78.0090  219.3620 C   0  0  0  0  0  0  0  0  0  0  0  0
  137.3651   82.4602  220.6127 H   0  0  0  0  0  0  0  0  0  0  0  0
  136.6390   80.9551  219.8977 H   0  0  0  0  0  0  0  0  0  0  0  0
  138.0636   82.3333  222.8355 H   0  0  0  0  0  0  0  0  0  0  0  0
  138.8574   81.0049  224.7909 H   0  0  0  0  0  0  0  0  0  0  0  0
  139.2340   78.5509  224.5701 H   0  0  0  0  0  0  0  0  0  0  0  0
  137.9653   78.7298  220.4303 H   0  0  0  0  0  0  0  0  0  0  0  0
  141.9105   82.9224  219.8243 H   0  0  0  0  0  0  0  0  0  0  0  0
  140.1859   83.5070  219.7496 H   0  0  0  0  0  0  0  0  0  0  0  0
  141.2378   83.7191  222.0120 H   0  0  0  0  0  0  0  0  0  0  0  0
  139.7471   82.7067  221.9638 H   0  0  0  0  0  0  0  0  0  0  0  0
  142.1459   82.7307  224.0147 H   0  0  0  0  0  0  0  0  0  0  0  0
  143.3054   80.7894  225.0659 H   0  0  0  0  0  0  0  0  0  0  0  0
  143.3187   78.5719  223.9207 H   0  0  0  0  0  0  0  0  0  0  0  0
  142.1891   78.3002  221.7159 H   0  0  0  0  0  0  0  0  0  0  0  0
  139.9217   79.6656  220.5558 H   0  0  0  0  0  0  0  0  0  0  0  0
  142.2618   80.8753  217.8006 H   0  0  0  0  0  0  0  0  0  0  0  0
  143.5670   78.9190  216.6800 H   0  0  0  0  0  0  0  0  0  0  0  0
  143.9523   76.2568  217.2076 H   0  0  0  0  0  0  0  0  0  0  0  0
  143.3695   74.4302  218.8478 H   0  0  0  0  0  0  0  0  0  0  0  0
  141.8699   74.9187  220.7950 H   0  0  0  0  0  0  0  0  0  0  0  0
  140.9454   77.2418  221.1308 H   0  0  0  0  0  0  0  0  0  0  0  0
  1  2  2  0
  2  3  2  0
  2  4  1  0
  4  5  1  0
  5  6  2  0
  6  7  1  0
  7  8  2  0
  8  9  1  0
  9 10  1  0
 10 11  1  0
 10 12  1  0
 10 13  1  0
  9 14  2  0
  2 15  1  0
 15 16  1  0
 16 17  1  0
 17 18  1  0
 18 19  2  0
 19 20  1  0
 20 21  2  0
 21 22  1  0
 22 23  2  0
 23 24  1  0
 24 25  1  0
 25 26  2  0
 26 27  1  0
 27 28  1  0
 28 29  2  0
 29 30  1  0
 30 31  2  0
 31 32  1  0
 32 33  2  0
 14  5  1  0
 24 15  1  0
 33 25  1  0
 23 18  1  0
 33 28  1  0
  4 34  1  0
  4 35  1  0
  6 36  1  0
  7 37  1  0
  8 38  1  0
 14 39  1  0
 16 40  1  0
 16 41  1  0
 17 42  1  0
 17 43  1  0
 19 44  1  0
 20 45  1  0
 21 46  1  0
 22 47  1  0
 24 48  1  1
 26 49  1  0
 27 50  1  0
 29 51  1  0
 30 52  1  0
 31 53  1  0
 32 54  1  0
M  END
>  <UniqueID>  (59) 
203

>  <SMILES>  (59) 
O=S(=O)(Cc1cccc(C(F)(F)F)c1)N1CCc2ccccc2[C@@H]1c1c[nH]c2ccccc12

>  <Energy>  (59) 
96.75575672887283

>  <Genealogy>  (59) 
O=S(=O)(Cc1cccc(C(F)(F)F)c1)N1CCc2ccccc2[C@@H]1c1c[nH]c2ccccc12 (3D coordinates assigned)
O=S(=O)(Cc1cccc(C(F)(F)F)c1)N1CCc2ccccc2[C@@H]1c1c[nH]c2ccccc12 (nonaromatic ring conformer: 96.75575672887283 kcal/mol)

>  <smiles>  (59) 
O=S(=O)(Cc1cccc(C(F)(F)F)c1)N1CCc2ccccc2[C@@H]1c1c[nH]c2ccccc12

>  <score_type>  (59) 
oracle

>  <origin>  (59) 
autodockgpu

>  <m_score__min__energy>  (59) 
-8.0600000000000005

>  <m_primary>  (59) 
energy

>  <meeko>  (59) 
{"free_energy": -6.91, "intermolecular_energy": -8.4, "internal_energy": -3.07, "cluster_size": 3, "cluster_id": 2, "rank_in_cluster": 1}

>  <energy>  (59) 
-6.66

>  <cluster_rmsd>  (59) 
0.07

>  <rmsd>  (59) 
270.89

>  <cluster>  (59) 
3

$$$$
GJSDZOHBAHKEKD-XMMPIXPANA-N
     RDKit          3D

 54 58  0  0  0  0  0  0  0  0999 V2000
  138.3780   77.5360  218.9830 O   0  0  0  0  0  0  0  0  0  0  0  0
  138.1080   76.9530  220.3410 S   0  0  0  0  0  0  0  0  0  0  0  0
  137.3940   75.6450  220.1470 O   0  0  0  0  0  0  0  0  0  0  0  0
  137.0360   78.0930  221.2280 C   0  0  0  0  0  0  0  0  0  0  0  0
  137.8100   79.1880  221.9170 C   0  0  0  0  0  0  0  0  0  0  0  0
  137.9890   79.1730  223.3120 C   0  0  0  0  0  0  0  0  0  0  0  0
  138.6750   80.2120  223.9460 C   0  0  0  0  0  0  0  0  0  0  0  0
  139.1850   81.2760  223.1980 C   0  0  0  0  0  0  0  0  0  0  0  0
  139.0030   81.3190  221.8030 C   0  0  0  0  0  0  0  0  0  0  0  0
  139.5860   82.4500  220.9910 C   0  0  0  0  0  0  0  0  0  0  0  0
  140.7220   82.9540  221.6040 F   0  0  0  0  0  0  0  0  0  0  0  0
  139.9230   81.9830  219.7290 F   0  0  0  0  0  0  0  0  0  0  0  0
  138.6690   83.4840  220.8610 F   0  0  0  0  0  0  0  0  0  0  0  0
  138.3440   80.2510  221.1660 C   0  0  0  0  0  0  0  0  0  0  0  0
  139.6380   76.6480  221.1420 N   0  0  0  0  0  0  0  0  0  0  0  0
  139.6180   75.4920  222.0610 C   0  0  0  0  0  0  0  0  0  0  0  0
  140.1940   74.2270  221.4370 C   0  0  0  0  0  0  0  0  0  0  0  0
  141.5640   74.4930  220.8950 C   0  0  0  0  0  0  0  0  0  0  0  0
  142.5140   73.4590  220.8650 C   0  0  0  0  0  0  0  0  0  0  0  0
  143.7690   73.6700  220.2870 C   0  0  0  0  0  0  0  0  0  0  0  0
  144.0740   74.9050  219.7130 C   0  0  0  0  0  0  0  0  0  0  0  0
  143.1270   75.9320  219.7230 C   0  0  0  0  0  0  0  0  0  0  0  0
  141.8710   75.7480  220.3380 C   0  0  0  0  0  0  0  0  0  0  0  0
  140.8250   76.8520  220.2710 C   0  0  2  0  0  0  0  0  0  0  0  0
  141.4170   78.2020  220.5920 C   0  0  0  0  0  0  0  0  0  0  0  0
  141.7430   79.1890  219.6620 C   0  0  0  0  0  0  0  0  0  0  0  0
  142.1830   80.3040  220.2890 N   0  0  0  0  0  0  0  0  0  0  0  0
  142.1320   80.0350  221.6070 C   0  0  0  0  0  0  0  0  0  0  0  0
  142.4690   80.8920  222.6550 C   0  0  0  0  0  0  0  0  0  0  0  0
  142.3250   80.4120  223.9730 C   0  0  0  0  0  0  0  0  0  0  0  0
  141.8590   79.0990  224.2090 C   0  0  0  0  0  0  0  0  0  0  0  0
  141.5280   78.2550  223.1310 C   0  0  0  0  0  0  0  0  0  0  0  0
  141.6700   78.7620  221.8350 C   0  0  0  0  0  0  0  0  0  0  0  0
  136.3369   78.5505  220.5124 H   0  0  0  0  0  0  0  0  0  0  0  0
  136.5025   77.5206  222.0011 H   0  0  0  0  0  0  0  0  0  0  0  0
  137.5870   78.3394  223.9066 H   0  0  0  0  0  0  0  0  0  0  0  0
  138.8139   80.1922  225.0370 H   0  0  0  0  0  0  0  0  0  0  0  0
  139.7325   82.0856  223.7027 H   0  0  0  0  0  0  0  0  0  0  0  0
  138.2455   80.2474  220.0704 H   0  0  0  0  0  0  0  0  0  0  0  0
  140.2094   75.7434  222.9538 H   0  0  0  0  0  0  0  0  0  0  0  0
  138.5663   75.2872  222.3102 H   0  0  0  0  0  0  0  0  0  0  0  0
  140.2531   73.4392  222.2024 H   0  0  0  0  0  0  0  0  0  0  0  0
  139.5398   73.9039  220.6138 H   0  0  0  0  0  0  0  0  0  0  0  0
  142.2692   72.4782  221.2986 H   0  0  0  0  0  0  0  0  0  0  0  0
  144.5162   72.8627  220.2845 H   0  0  0  0  0  0  0  0  0  0  0  0
  145.0595   75.0697  219.2530 H   0  0  0  0  0  0  0  0  0  0  0  0
  143.3634   76.8946  219.2461 H   0  0  0  0  0  0  0  0  0  0  0  0
  140.4774   76.8119  219.2281 H   0  0  0  0  0  0  0  0  0  0  0  0
  141.6547   79.0765  218.5713 H   0  0  0  0  0  0  0  0  0  0  0  0
  142.4890   81.1950  219.8360 H   0  0  0  0  0  0  0  0  0  0  0  0
  142.8356   81.9105  222.4592 H   0  0  0  0  0  0  0  0  0  0  0  0
  142.5770   81.0636  224.8227 H   0  0  0  0  0  0  0  0  0  0  0  0
  141.7541   78.7337  225.2412 H   0  0  0  0  0  0  0  0  0  0  0  0
  141.1691   77.2295  223.3028 H   0  0  0  0  0  0  0  0  0  0  0  0
  1  2  2  0
  2  3  2  0
  2  4  1  0
  4  5  1  0
  5  6  2  0
  6  7  1  0
  7  8  2  0
  8  9  1  0
  9 10  1  0
 10 11  1  0
 10 12  1  0
 10 13  1  0
  9 14  2  0
  2 15  1  0
 15 16  1  0
 16 17  1  0
 17 18  1  0
 18 19  2  0
 19 20  1  0
 20 21  2  0
 21 22  1  0
 22 23  2  0
 23 24  1  0
 24 25  1  0
 25 26  2  0
 26 27  1  0
 27 28  1  0
 28 29  2  0
 29 30  1  0
 30 31  2  0
 31 32  1  0
 32 33  2  0
 14  5  1  0
 24 15  1  0
 33 25  1  0
 23 18  1  0
 33 28  1  0
  4 34  1  0
  4 35  1  0
  6 36  1  0
  7 37  1  0
  8 38  1  0
 14 39  1  0
 16 40  1  0
 16 41  1  0
 17 42  1  0
 17 43  1  0
 19 44  1  0
 20 45  1  0
 21 46  1  0
 22 47  1  0
 24 48  1  6
 26 49  1  0
 27 50  1  0
 29 51  1  0
 30 52  1  0
 31 53  1  0
 32 54  1  0
M  END
>  <UniqueID>  (60) 
203

>  <SMILES>  (60) 
O=S(=O)(Cc1cccc(C(F)(F)F)c1)N1CCc2ccccc2[C@@H]1c1c[nH]c2ccccc12

>  <Energy>  (60) 
96.75575672887283

>  <Genealogy>  (60) 
O=S(=O)(Cc1cccc(C(F)(F)F)c1)N1CCc2ccccc2[C@@H]1c1c[nH]c2ccccc12 (3D coordinates assigned)
O=S(=O)(Cc1cccc(C(F)(F)F)c1)N1CCc2ccccc2[C@@H]1c1c[nH]c2ccccc12 (nonaromatic ring conformer: 96.75575672887283 kcal/mol)

>  <smiles>  (60) 
O=S(=O)(Cc1cccc(C(F)(F)F)c1)N1CCc2ccccc2[C@@H]1c1c[nH]c2ccccc12

>  <score_type>  (60) 
oracle

>  <origin>  (60) 
autodockgpu

>  <m_score__min__energy>  (60) 
-8.0600000000000005

>  <m_primary>  (60) 
energy

>  <meeko>  (60) 
{"free_energy": -6.69, "intermolecular_energy": -8.18, "internal_energy": -3.37, "cluster_size": 16, "cluster_id": 3, "rank_in_cluster": 5}

>  <energy>  (60) 
-6.61

>  <cluster_rmsd>  (60) 
0.57

>  <rmsd>  (60) 
270.95

>  <cluster>  (60) 
3

$$$$
GJSDZOHBAHKEKD-XMMPIXPANA-N
     RDKit          3D

 54 58  0  0  0  0  0  0  0  0999 V2000
  138.6280   82.6180  218.0520 O   0  0  0  0  0  0  0  0  0  0  0  0
  138.8240   81.4260  218.9460 S   0  0  0  0  0  0  0  0  0  0  0  0
  138.6160   80.1890  218.1180 O   0  0  0  0  0  0  0  0  0  0  0  0
  137.5760   81.4950  220.2400 C   0  0  0  0  0  0  0  0  0  0  0  0
  137.9740   80.7080  221.4630 C   0  0  0  0  0  0  0  0  0  0  0  0
  138.1510   81.3470  222.7020 C   0  0  0  0  0  0  0  0  0  0  0  0
  138.5570   80.6160  223.8220 C   0  0  0  0  0  0  0  0  0  0  0  0
  138.7940   79.2430  223.7150 C   0  0  0  0  0  0  0  0  0  0  0  0
  138.6380   78.5860  222.4800 C   0  0  0  0  0  0  0  0  0  0  0  0
  138.8580   77.0970  222.3730 C   0  0  0  0  0  0  0  0  0  0  0  0
  137.9910   76.4160  223.2130 F   0  0  0  0  0  0  0  0  0  0  0  0
  138.6330   76.6920  221.0670 F   0  0  0  0  0  0  0  0  0  0  0  0
  140.1580   76.7660  222.7320 F   0  0  0  0  0  0  0  0  0  0  0  0
  138.1930   79.3210  221.3660 C   0  0  0  0  0  0  0  0  0  0  0  0
  140.4710   81.4330  219.5470 N   0  0  0  0  0  0  0  0  0  0  0  0
  140.9020   82.7290  220.1110 C   0  0  0  0  0  0  0  0  0  0  0  0
  140.8140   82.7720  221.6320 C   0  0  0  0  0  0  0  0  0  0  0  0
  141.5600   81.6210  222.2290 C   0  0  0  0  0  0  0  0  0  0  0  0
  142.1590   81.7570  223.4920 C   0  0  0  0  0  0  0  0  0  0  0  0
  142.7880   80.6650  224.0970 C   0  0  0  0  0  0  0  0  0  0  0  0
  142.8020   79.4250  223.4580 C   0  0  0  0  0  0  0  0  0  0  0  0
  142.1940   79.2770  222.2090 C   0  0  0  0  0  0  0  0  0  0  0  0
  141.5900   80.3780  221.5660 C   0  0  0  0  0  0  0  0  0  0  0  0
  140.8640   80.1800  220.2420 C   0  0  2  0  0  0  0  0  0  0  0  0
  141.6740   79.3430  219.2840 C   0  0  0  0  0  0  0  0  0  0  0  0
  142.3650   79.8220  218.1710 C   0  0  0  0  0  0  0  0  0  0  0  0
  143.0480   78.8200  217.5700 N   0  0  0  0  0  0  0  0  0  0  0  0
  142.8010   77.7140  218.2960 C   0  0  0  0  0  0  0  0  0  0  0  0
  143.3050   76.4310  218.0760 C   0  0  0  0  0  0  0  0  0  0  0  0
  142.9310   75.4110  218.9740 C   0  0  0  0  0  0  0  0  0  0  0  0
  142.0640   75.6920  220.0550 C   0  0  0  0  0  0  0  0  0  0  0  0
  141.5680   76.9950  220.2510 C   0  0  0  0  0  0  0  0  0  0  0  0
  141.9660   77.9900  219.3510 C   0  0  0  0  0  0  0  0  0  0  0  0
  137.4245   82.5454  220.5294 H   0  0  0  0  0  0  0  0  0  0  0  0
  136.6526   81.0506  219.8403 H   0  0  0  0  0  0  0  0  0  0  0  0
  137.9691   82.4282  222.7909 H   0  0  0  0  0  0  0  0  0  0  0  0
  138.6902   81.1224  224.7894 H   0  0  0  0  0  0  0  0  0  0  0  0
  139.1047   78.6716  224.6021 H   0  0  0  0  0  0  0  0  0  0  0  0
  138.0145   78.8068  220.4101 H   0  0  0  0  0  0  0  0  0  0  0  0
  141.9454   82.9114  219.8144 H   0  0  0  0  0  0  0  0  0  0  0  0
  140.2243   83.5016  219.7189 H   0  0  0  0  0  0  0  0  0  0  0  0
  141.2509   83.7143  221.9941 H   0  0  0  0  0  0  0  0  0  0  0  0
  139.7574   82.7066  221.9308 H   0  0  0  0  0  0  0  0  0  0  0  0
  142.1331   82.7281  224.0080 H   0  0  0  0  0  0  0  0  0  0  0  0
  143.2722   80.7835  225.0776 H   0  0  0  0  0  0  0  0  0  0  0  0
  143.2915   78.5644  223.9373 H   0  0  0  0  0  0  0  0  0  0  0  0
  142.1861   78.2910  221.7214 H   0  0  0  0  0  0  0  0  0  0  0  0
  139.9373   79.6626  220.5309 H   0  0  0  0  0  0  0  0  0  0  0  0
  142.3561   80.8676  217.8296 H   0  0  0  0  0  0  0  0  0  0  0  0
  143.6520   78.8980  216.7210 H   0  0  0  0  0  0  0  0  0  0  0  0
  143.9736   76.2224  217.2278 H   0  0  0  0  0  0  0  0  0  0  0  0
  143.3159   74.3902  218.8330 H   0  0  0  0  0  0  0  0  0  0  0  0
  141.7752   74.8874  220.7473 H   0  0  0  0  0  0  0  0  0  0  0  0
  140.8888   77.2238  221.0855 H   0  0  0  0  0  0  0  0  0  0  0  0
  1  2  2  0
  2  3  2  0
  2  4  1  0
  4  5  1  0
  5  6  2  0
  6  7  1  0
  7  8  2  0
  8  9  1  0
  9 10  1  0
 10 11  1  0
 10 12  1  0
 10 13  1  0
  9 14  2  0
  2 15  1  0
 15 16  1  0
 16 17  1  0
 17 18  1  0
 18 19  2  0
 19 20  1  0
 20 21  2  0
 21 22  1  0
 22 23  2  0
 23 24  1  0
 24 25  1  0
 25 26  2  0
 26 27  1  0
 27 28  1  0
 28 29  2  0
 29 30  1  0
 30 31  2  0
 31 32  1  0
 32 33  2  0
 14  5  1  0
 24 15  1  0
 33 25  1  0
 23 18  1  0
 33 28  1  0
  4 34  1  0
  4 35  1  0
  6 36  1  0
  7 37  1  0
  8 38  1  0
 14 39  1  0
 16 40  1  0
 16 41  1  0
 17 42  1  0
 17 43  1  0
 19 44  1  0
 20 45  1  0
 21 46  1  0
 22 47  1  0
 24 48  1  1
 26 49  1  0
 27 50  1  0
 29 51  1  0
 30 52  1  0
 31 53  1  0
 32 54  1  0
M  END
>  <UniqueID>  (61) 
204

>  <SMILES>  (61) 
O=S(=O)(Cc1cccc(C(F)(F)F)c1)N1CCc2ccccc2[C@@H]1c1c[nH]c2ccccc12

>  <Energy>  (61) 
97.73264335478956

>  <Genealogy>  (61) 
O=S(=O)(Cc1cccc(C(F)(F)F)c1)N1CCc2ccccc2[C@@H]1c1c[nH]c2ccccc12 (3D coordinates assigned)
O=S(=O)(Cc1cccc(C(F)(F)F)c1)N1CCc2ccccc2[C@@H]1c1c[nH]c2ccccc12 (nonaromatic ring conformer: 97.73264335478956 kcal/mol)

>  <smiles>  (61) 
O=S(=O)(Cc1cccc(C(F)(F)F)c1)N1CCc2ccccc2[C@@H]1c1c[nH]c2ccccc12

>  <score_type>  (61) 
oracle

>  <origin>  (61) 
autodockgpu

>  <m_score__min__energy>  (61) 
-8.0600000000000005

>  <m_primary>  (61) 
energy

>  <meeko>  (61) 
{"free_energy": -6.87, "intermolecular_energy": -8.36, "internal_energy": -3.12, "cluster_size": 3, "cluster_id": 2, "rank_in_cluster": 3}

>  <energy>  (61) 
-8.06

>  <cluster_rmsd>  (61) 
0.0

>  <rmsd>  (61) 
270.35

>  <cluster>  (61) 
1

$$$$
GJSDZOHBAHKEKD-XMMPIXPANA-N
     RDKit          3D

 54 58  0  0  0  0  0  0  0  0999 V2000
  138.4150   77.5100  218.9050 O   0  0  0  0  0  0  0  0  0  0  0  0
  138.1200   76.9580  220.2710 S   0  0  0  0  0  0  0  0  0  0  0  0
  137.3880   75.6580  220.0950 O   0  0  0  0  0  0  0  0  0  0  0  0
  137.0550   78.1320  221.1230 C   0  0  0  0  0  0  0  0  0  0  0  0
  137.8400   79.2060  221.8330 C   0  0  0  0  0  0  0  0  0  0  0  0
  138.0170   79.1630  223.2270 C   0  0  0  0  0  0  0  0  0  0  0  0
  138.7130   80.1820  223.8820 C   0  0  0  0  0  0  0  0  0  0  0  0
  139.2350   81.2550  223.1540 C   0  0  0  0  0  0  0  0  0  0  0  0
  139.0550   81.3260  221.7600 C   0  0  0  0  0  0  0  0  0  0  0  0
  139.6500   82.4660  220.9700 C   0  0  0  0  0  0  0  0  0  0  0  0
  140.7870   82.9500  221.5970 F   0  0  0  0  0  0  0  0  0  0  0  0
  139.9880   82.0190  219.7020 F   0  0  0  0  0  0  0  0  0  0  0  0
  138.7420   83.5090  220.8550 F   0  0  0  0  0  0  0  0  0  0  0  0
  138.3850   80.2780  221.1030 C   0  0  0  0  0  0  0  0  0  0  0  0
  139.6350   76.6460  221.0950 N   0  0  0  0  0  0  0  0  0  0  0  0
  139.5930   75.4950  222.0210 C   0  0  0  0  0  0  0  0  0  0  0  0
  140.1690   74.2230  221.4120 C   0  0  0  0  0  0  0  0  0  0  0  0
  141.5480   74.4750  220.8890 C   0  0  0  0  0  0  0  0  0  0  0  0
  142.4910   73.4340  220.8780 C   0  0  0  0  0  0  0  0  0  0  0  0
  143.7560   73.6330  220.3170 C   0  0  0  0  0  0  0  0  0  0  0  0
  144.0790   74.8620  219.7410 C   0  0  0  0  0  0  0  0  0  0  0  0
  143.1400   75.8960  219.7320 C   0  0  0  0  0  0  0  0  0  0  0  0
  141.8730   75.7260  220.3300 C   0  0  0  0  0  0  0  0  0  0  0  0
  140.8360   76.8370  220.2410 C   0  0  2  0  0  0  0  0  0  0  0  0
  141.4340   78.1830  220.5630 C   0  0  0  0  0  0  0  0  0  0  0  0
  141.7600   79.1720  219.6350 C   0  0  0  0  0  0  0  0  0  0  0  0
  142.2060   80.2840  220.2620 N   0  0  0  0  0  0  0  0  0  0  0  0
  142.1590   80.0120  221.5800 C   0  0  0  0  0  0  0  0  0  0  0  0
  142.5030   80.8650  222.6290 C   0  0  0  0  0  0  0  0  0  0  0  0
  142.3610   80.3820  223.9460 C   0  0  0  0  0  0  0  0  0  0  0  0
  141.8920   79.0700  224.1810 C   0  0  0  0  0  0  0  0  0  0  0  0
  141.5550   78.2300  223.1020 C   0  0  0  0  0  0  0  0  0  0  0  0
  141.6940   78.7400  221.8060 C   0  0  0  0  0  0  0  0  0  0  0  0
  136.3917   78.6076  220.3856 H   0  0  0  0  0  0  0  0  0  0  0  0
  136.4815   77.5778  221.8806 H   0  0  0  0  0  0  0  0  0  0  0  0
  137.6053   78.3226  223.8051 H   0  0  0  0  0  0  0  0  0  0  0  0
  138.8504   80.1398  224.9726 H   0  0  0  0  0  0  0  0  0  0  0  0
  139.7903   82.0494  223.6742 H   0  0  0  0  0  0  0  0  0  0  0  0
  138.2862   80.2969  220.0076 H   0  0  0  0  0  0  0  0  0  0  0  0
  140.1731   75.7472  222.9209 H   0  0  0  0  0  0  0  0  0  0  0  0
  138.5365   75.2992  222.2566 H   0  0  0  0  0  0  0  0  0  0  0  0
  140.2109   73.4388  222.1822 H   0  0  0  0  0  0  0  0  0  0  0  0
  139.5247   73.9012  220.5806 H   0  0  0  0  0  0  0  0  0  0  0  0
  142.2328   72.4572  221.3130 H   0  0  0  0  0  0  0  0  0  0  0  0
  144.4970   72.8202  220.3297 H   0  0  0  0  0  0  0  0  0  0  0  0
  145.0723   75.0165  219.2943 H   0  0  0  0  0  0  0  0  0  0  0  0
  143.3910   76.8540  219.2532 H   0  0  0  0  0  0  0  0  0  0  0  0
  140.5025   76.7944  219.1936 H   0  0  0  0  0  0  0  0  0  0  0  0
  141.6672   79.0626  218.5444 H   0  0  0  0  0  0  0  0  0  0  0  0
  142.5130   81.1760  219.8110 H   0  0  0  0  0  0  0  0  0  0  0  0
  142.8734   81.8824  222.4347 H   0  0  0  0  0  0  0  0  0  0  0  0
  142.6171   81.0310  224.7964 H   0  0  0  0  0  0  0  0  0  0  0  0
  141.7895   78.7026  225.2127 H   0  0  0  0  0  0  0  0  0  0  0  0
  141.1938   77.2051  223.2725 H   0  0  0  0  0  0  0  0  0  0  0  0
  1  2  2  0
  2  3  2  0
  2  4  1  0
  4  5  1  0
  5  6  2  0
  6  7  1  0
  7  8  2  0
  8  9  1  0
  9 10  1  0
 10 11  1  0
 10 12  1  0
 10 13  1  0
  9 14  2  0
  2 15  1  0
 15 16  1  0
 16 17  1  0
 17 18  1  0
 18 19  2  0
 19 20  1  0
 20 21  2  0
 21 22  1  0
 22 23  2  0
 23 24  1  0
 24 25  1  0
 25 26  2  0
 26 27  1  0
 27 28  1  0
 28 29  2  0
 29 30  1  0
 30 31  2  0
 31 32  1  0
 32 33  2  0
 14  5  1  0
 24 15  1  0
 33 25  1  0
 23 18  1  0
 33 28  1  0
  4 34  1  0
  4 35  1  0
  6 36  1  0
  7 37  1  0
  8 38  1  0
 14 39  1  0
 16 40  1  0
 16 41  1  0
 17 42  1  0
 17 43  1  0
 19 44  1  0
 20 45  1  0
 21 46  1  0
 22 47  1  0
 24 48  1  6
 26 49  1  0
 27 50  1  0
 29 51  1  0
 30 52  1  0
 31 53  1  0
 32 54  1  0
M  END
>  <UniqueID>  (62) 
204

>  <SMILES>  (62) 
O=S(=O)(Cc1cccc(C(F)(F)F)c1)N1CCc2ccccc2[C@@H]1c1c[nH]c2ccccc12

>  <Energy>  (62) 
97.73264335478956

>  <Genealogy>  (62) 
O=S(=O)(Cc1cccc(C(F)(F)F)c1)N1CCc2ccccc2[C@@H]1c1c[nH]c2ccccc12 (3D coordinates assigned)
O=S(=O)(Cc1cccc(C(F)(F)F)c1)N1CCc2ccccc2[C@@H]1c1c[nH]c2ccccc12 (nonaromatic ring conformer: 97.73264335478956 kcal/mol)

>  <smiles>  (62) 
O=S(=O)(Cc1cccc(C(F)(F)F)c1)N1CCc2ccccc2[C@@H]1c1c[nH]c2ccccc12

>  <score_type>  (62) 
oracle

>  <origin>  (62) 
autodockgpu

>  <m_score__min__energy>  (62) 
-8.0600000000000005

>  <m_primary>  (62) 
energy

>  <meeko>  (62) 
{"free_energy": -6.67, "intermolecular_energy": -8.17, "internal_energy": -3.37, "cluster_size": 16, "cluster_id": 3, "rank_in_cluster": 10}

>  <energy>  (62) 
-6.91

>  <cluster_rmsd>  (62) 
0.0

>  <rmsd>  (62) 
270.82

>  <cluster>  (62) 
2

$$$$
GJSDZOHBAHKEKD-XMMPIXPANA-N
     RDKit          3D

 54 58  0  0  0  0  0  0  0  0999 V2000
  138.4080   77.5570  218.8740 O   0  0  0  0  0  0  0  0  0  0  0  0
  138.1140   76.9860  220.2320 S   0  0  0  0  0  0  0  0  0  0  0  0
  137.3950   75.6800  220.0370 O   0  0  0  0  0  0  0  0  0  0  0  0
  137.0340   78.1390  221.0920 C   0  0  0  0  0  0  0  0  0  0  0  0
  137.8030   79.2260  221.7990 C   0  0  0  0  0  0  0  0  0  0  0  0
  137.9770   79.1940  223.1940 C   0  0  0  0  0  0  0  0  0  0  0  0
  138.6590   80.2250  223.8440 C   0  0  0  0  0  0  0  0  0  0  0  0
  139.1710   81.2990  223.1110 C   0  0  0  0  0  0  0  0  0  0  0  0
  138.9950   81.3600  221.7160 C   0  0  0  0  0  0  0  0  0  0  0  0
  139.5800   82.5010  220.9210 C   0  0  0  0  0  0  0  0  0  0  0  0
  138.6490   83.5180  220.7740 F   0  0  0  0  0  0  0  0  0  0  0  0
  140.6920   82.9990  221.5830 F   0  0  0  0  0  0  0  0  0  0  0  0
  139.9580   82.0750  219.6560 F   0  0  0  0  0  0  0  0  0  0  0  0
  138.3400   80.2990  221.0630 C   0  0  0  0  0  0  0  0  0  0  0  0
  139.6280   76.6790  221.0590 N   0  0  0  0  0  0  0  0  0  0  0  0
  139.5910   75.5240  221.9800 C   0  0  0  0  0  0  0  0  0  0  0  0
  140.1760   74.2580  221.3670 C   0  0  0  0  0  0  0  0  0  0  0  0
  141.5550   74.5200  220.8490 C   0  0  0  0  0  0  0  0  0  0  0  0
  142.5040   73.4850  220.8360 C   0  0  0  0  0  0  0  0  0  0  0  0
  143.7690   73.6930  220.2790 C   0  0  0  0  0  0  0  0  0  0  0  0
  144.0860   74.9270  219.7090 C   0  0  0  0  0  0  0  0  0  0  0  0
  143.1410   75.9560  219.7010 C   0  0  0  0  0  0  0  0  0  0  0  0
  141.8740   75.7750  220.2950 C   0  0  0  0  0  0  0  0  0  0  0  0
  140.8310   76.8810  220.2090 C   0  0  2  0  0  0  0  0  0  0  0  0
  141.4200   78.2290  220.5380 C   0  0  0  0  0  0  0  0  0  0  0  0
  141.7520   79.2200  219.6140 C   0  0  0  0  0  0  0  0  0  0  0  0
  142.1860   80.3330  220.2460 N   0  0  0  0  0  0  0  0  0  0  0  0
  142.1260   80.0600  221.5630 C   0  0  0  0  0  0  0  0  0  0  0  0
  142.4550   80.9140  222.6170 C   0  0  0  0  0  0  0  0  0  0  0  0
  142.3010   80.4300  223.9320 C   0  0  0  0  0  0  0  0  0  0  0  0
  141.8340   79.1160  224.1610 C   0  0  0  0  0  0  0  0  0  0  0  0
  141.5120   78.2750  223.0780 C   0  0  0  0  0  0  0  0  0  0  0  0
  141.6640   78.7860  221.7840 C   0  0  0  0  0  0  0  0  0  0  0  0
  136.3577   78.6036  220.3593 H   0  0  0  0  0  0  0  0  0  0  0  0
  136.4757   77.5732  221.8524 H   0  0  0  0  0  0  0  0  0  0  0  0
  137.5738   78.3524  223.7764 H   0  0  0  0  0  0  0  0  0  0  0  0
  138.7934   80.1916  224.9352 H   0  0  0  0  0  0  0  0  0  0  0  0
  139.7156   82.1027  223.6282 H   0  0  0  0  0  0  0  0  0  0  0  0
  138.2469   80.3084  219.9670 H   0  0  0  0  0  0  0  0  0  0  0  0
  140.1676   75.7759  222.8822 H   0  0  0  0  0  0  0  0  0  0  0  0
  138.5352   75.3208  222.2124 H   0  0  0  0  0  0  0  0  0  0  0  0
  140.2201   73.4706  222.1339 H   0  0  0  0  0  0  0  0  0  0  0  0
  139.5358   73.9363  220.5323 H   0  0  0  0  0  0  0  0  0  0  0  0
  142.2504   72.5051  221.2666 H   0  0  0  0  0  0  0  0  0  0  0  0
  144.5146   72.8843  220.2899 H   0  0  0  0  0  0  0  0  0  0  0  0
  145.0797   75.0893  219.2661 H   0  0  0  0  0  0  0  0  0  0  0  0
  143.3873   76.9174  219.2266 H   0  0  0  0  0  0  0  0  0  0  0  0
  140.5007   76.8413  219.1605 H   0  0  0  0  0  0  0  0  0  0  0  0
  141.6717   79.1107  218.5224 H   0  0  0  0  0  0  0  0  0  0  0  0
  142.4950   81.2260  219.7990 H   0  0  0  0  0  0  0  0  0  0  0  0
  142.8230   81.9331  222.4273 H   0  0  0  0  0  0  0  0  0  0  0  0
  142.5459   81.0793  224.7854 H   0  0  0  0  0  0  0  0  0  0  0  0
  141.7213   78.7477  225.1914 H   0  0  0  0  0  0  0  0  0  0  0  0
  141.1523   77.2488  223.2441 H   0  0  0  0  0  0  0  0  0  0  0  0
  1  2  2  0
  2  3  2  0
  2  4  1  0
  4  5  1  0
  5  6  2  0
  6  7  1  0
  7  8  2  0
  8  9  1  0
  9 10  1  0
 10 11  1  0
 10 12  1  0
 10 13  1  0
  9 14  2  0
  2 15  1  0
 15 16  1  0
 16 17  1  0
 17 18  1  0
 18 19  2  0
 19 20  1  0
 20 21  2  0
 21 22  1  0
 22 23  2  0
 23 24  1  0
 24 25  1  0
 25 26  2  0
 26 27  1  0
 27 28  1  0
 28 29  2  0
 29 30  1  0
 30 31  2  0
 31 32  1  0
 32 33  2  0
 14  5  1  0
 24 15  1  0
 33 25  1  0
 23 18  1  0
 33 28  1  0
  4 34  1  0
  4 35  1  0
  6 36  1  0
  7 37  1  0
  8 38  1  0
 14 39  1  0
 16 40  1  0
 16 41  1  0
 17 42  1  0
 17 43  1  0
 19 44  1  0
 20 45  1  0
 21 46  1  0
 22 47  1  0
 24 48  1  6
 26 49  1  0
 27 50  1  0
 29 51  1  0
 30 52  1  0
 31 53  1  0
 32 54  1  0
M  END
>  <UniqueID>  (63) 
204

>  <SMILES>  (63) 
O=S(=O)(Cc1cccc(C(F)(F)F)c1)N1CCc2ccccc2[C@@H]1c1c[nH]c2ccccc12

>  <Energy>  (63) 
97.73264335478956

>  <Genealogy>  (63) 
O=S(=O)(Cc1cccc(C(F)(F)F)c1)N1CCc2ccccc2[C@@H]1c1c[nH]c2ccccc12 (3D coordinates assigned)
O=S(=O)(Cc1cccc(C(F)(F)F)c1)N1CCc2ccccc2[C@@H]1c1c[nH]c2ccccc12 (nonaromatic ring conformer: 97.73264335478956 kcal/mol)

>  <smiles>  (63) 
O=S(=O)(Cc1cccc(C(F)(F)F)c1)N1CCc2ccccc2[C@@H]1c1c[nH]c2ccccc12

>  <score_type>  (63) 
oracle

>  <origin>  (63) 
autodockgpu

>  <m_score__min__energy>  (63) 
-8.0600000000000005

>  <m_primary>  (63) 
energy

>  <meeko>  (63) 
{"free_energy": -6.68, "intermolecular_energy": -8.17, "internal_energy": -3.38, "cluster_size": 16, "cluster_id": 3, "rank_in_cluster": 9}

>  <energy>  (63) 
-6.9

>  <cluster_rmsd>  (63) 
0.05

>  <rmsd>  (63) 
270.82

>  <cluster>  (63) 
2

$$$$
GJSDZOHBAHKEKD-XMMPIXPANA-N
     RDKit          3D

 54 58  0  0  0  0  0  0  0  0999 V2000
  138.4290   77.5160  218.8310 O   0  0  0  0  0  0  0  0  0  0  0  0
  138.1160   76.9950  220.2050 S   0  0  0  0  0  0  0  0  0  0  0  0
  137.3700   75.6990  220.0470 O   0  0  0  0  0  0  0  0  0  0  0  0
  137.0570   78.1980  221.0220 C   0  0  0  0  0  0  0  0  0  0  0  0
  137.8470   79.2470  221.7620 C   0  0  0  0  0  0  0  0  0  0  0  0
  138.0340   79.1590  223.1530 C   0  0  0  0  0  0  0  0  0  0  0  0
  138.7360   80.1560  223.8350 C   0  0  0  0  0  0  0  0  0  0  0  0
  139.2540   81.2510  223.1390 C   0  0  0  0  0  0  0  0  0  0  0  0
  139.0650   81.3670  221.7490 C   0  0  0  0  0  0  0  0  0  0  0  0
  139.6560   82.5320  220.9920 C   0  0  0  0  0  0  0  0  0  0  0  0
  140.7880   83.0050  221.6360 F   0  0  0  0  0  0  0  0  0  0  0  0
  140.0020   82.1200  219.7140 F   0  0  0  0  0  0  0  0  0  0  0  0
  138.7420   83.5720  220.9010 F   0  0  0  0  0  0  0  0  0  0  0  0
  138.3890   80.3410  221.0630 C   0  0  0  0  0  0  0  0  0  0  0  0
  139.6190   76.6820  221.0490 N   0  0  0  0  0  0  0  0  0  0  0  0
  139.5650   75.5280  221.9710 C   0  0  0  0  0  0  0  0  0  0  0  0
  140.1510   74.2580  221.3660 C   0  0  0  0  0  0  0  0  0  0  0  0
  141.5370   74.5130  220.8630 C   0  0  0  0  0  0  0  0  0  0  0  0
  142.4810   73.4730  220.8630 C   0  0  0  0  0  0  0  0  0  0  0  0
  143.7530   73.6740  220.3200 C   0  0  0  0  0  0  0  0  0  0  0  0
  144.0830   74.9050  219.7520 C   0  0  0  0  0  0  0  0  0  0  0  0
  143.1430   75.9390  219.7330 C   0  0  0  0  0  0  0  0  0  0  0  0
  141.8690   75.7660  220.3120 C   0  0  0  0  0  0  0  0  0  0  0  0
  140.8320   76.8760  220.2130 C   0  0  2  0  0  0  0  0  0  0  0  0
  141.4240   78.2220  220.5470 C   0  0  0  0  0  0  0  0  0  0  0  0
  141.7550   79.2170  219.6270 C   0  0  0  0  0  0  0  0  0  0  0  0
  142.1930   80.3260  220.2640 N   0  0  0  0  0  0  0  0  0  0  0  0
  142.1360   80.0470  221.5800 C   0  0  0  0  0  0  0  0  0  0  0  0
  142.4690   80.8940  222.6370 C   0  0  0  0  0  0  0  0  0  0  0  0
  142.3180   80.4040  223.9500 C   0  0  0  0  0  0  0  0  0  0  0  0
  141.8500   79.0900  224.1730 C   0  0  0  0  0  0  0  0  0  0  0  0
  141.5240   78.2540  223.0870 C   0  0  0  0  0  0  0  0  0  0  0  0
  141.6720   78.7720  221.7960 C   0  0  0  0  0  0  0  0  0  0  0  0
  136.4343   78.6942  220.2630 H   0  0  0  0  0  0  0  0  0  0  0  0
  136.4414   77.6595  221.7576 H   0  0  0  0  0  0  0  0  0  0  0  0
  137.6255   78.3009  223.7069 H   0  0  0  0  0  0  0  0  0  0  0  0
  138.8812   80.0786  224.9226 H   0  0  0  0  0  0  0  0  0  0  0  0
  139.8134   82.0278  223.6809 H   0  0  0  0  0  0  0  0  0  0  0  0
  138.2833   80.3949  219.9694 H   0  0  0  0  0  0  0  0  0  0  0  0
  140.1321   75.7779  222.8798 H   0  0  0  0  0  0  0  0  0  0  0  0
  138.5055   75.3305  222.1911 H   0  0  0  0  0  0  0  0  0  0  0  0
  140.1830   73.4715  222.1343 H   0  0  0  0  0  0  0  0  0  0  0  0
  139.5186   73.9381  220.5247 H   0  0  0  0  0  0  0  0  0  0  0  0
  142.2178   72.4952  221.2926 H   0  0  0  0  0  0  0  0  0  0  0  0
  144.4942   72.8615  220.3404 H   0  0  0  0  0  0  0  0  0  0  0  0
  145.0822   75.0615  219.3195 H   0  0  0  0  0  0  0  0  0  0  0  0
  143.3999   76.8988  219.2610 H   0  0  0  0  0  0  0  0  0  0  0  0
  140.5130   76.8352  219.1610 H   0  0  0  0  0  0  0  0  0  0  0  0
  141.6713   79.1136  218.5351 H   0  0  0  0  0  0  0  0  0  0  0  0
  142.5010   81.2210  219.8210 H   0  0  0  0  0  0  0  0  0  0  0  0
  142.8382   81.9134  222.4515 H   0  0  0  0  0  0  0  0  0  0  0  0
  142.5661   81.0487  224.8061 H   0  0  0  0  0  0  0  0  0  0  0  0
  141.7394   78.7169  225.2019 H   0  0  0  0  0  0  0  0  0  0  0  0
  141.1647   77.2270  223.2489 H   0  0  0  0  0  0  0  0  0  0  0  0
  1  2  2  0
  2  3  2  0
  2  4  1  0
  4  5  1  0
  5  6  2  0
  6  7  1  0
  7  8  2  0
  8  9  1  0
  9 10  1  0
 10 11  1  0
 10 12  1  0
 10 13  1  0
  9 14  2  0
  2 15  1  0
 15 16  1  0
 16 17  1  0
 17 18  1  0
 18 19  2  0
 19 20  1  0
 20 21  2  0
 21 22  1  0
 22 23  2  0
 23 24  1  0
 24 25  1  0
 25 26  2  0
 26 27  1  0
 27 28  1  0
 28 29  2  0
 29 30  1  0
 30 31  2  0
 31 32  1  0
 32 33  2  0
 14  5  1  0
 24 15  1  0
 33 25  1  0
 23 18  1  0
 33 28  1  0
  4 34  1  0
  4 35  1  0
  6 36  1  0
  7 37  1  0
  8 38  1  0
 14 39  1  0
 16 40  1  0
 16 41  1  0
 17 42  1  0
 17 43  1  0
 19 44  1  0
 20 45  1  0
 21 46  1  0
 22 47  1  0
 24 48  1  6
 26 49  1  0
 27 50  1  0
 29 51  1  0
 30 52  1  0
 31 53  1  0
 32 54  1  0
M  END
>  <UniqueID>  (64) 
204

>  <SMILES>  (64) 
O=S(=O)(Cc1cccc(C(F)(F)F)c1)N1CCc2ccccc2[C@@H]1c1c[nH]c2ccccc12

>  <Energy>  (64) 
97.73264335478956

>  <Genealogy>  (64) 
O=S(=O)(Cc1cccc(C(F)(F)F)c1)N1CCc2ccccc2[C@@H]1c1c[nH]c2ccccc12 (3D coordinates assigned)
O=S(=O)(Cc1cccc(C(F)(F)F)c1)N1CCc2ccccc2[C@@H]1c1c[nH]c2ccccc12 (nonaromatic ring conformer: 97.73264335478956 kcal/mol)

>  <smiles>  (64) 
O=S(=O)(Cc1cccc(C(F)(F)F)c1)N1CCc2ccccc2[C@@H]1c1c[nH]c2ccccc12

>  <score_type>  (64) 
oracle

>  <origin>  (64) 
autodockgpu

>  <m_score__min__energy>  (64) 
-8.0600000000000005

>  <m_primary>  (64) 
energy

>  <meeko>  (64) 
{"free_energy": -6.72, "intermolecular_energy": -8.22, "internal_energy": -3.34, "cluster_size": 16, "cluster_id": 3, "rank_in_cluster": 1}

>  <energy>  (64) 
-6.87

>  <cluster_rmsd>  (64) 
0.08

>  <rmsd>  (64) 
270.83

>  <cluster>  (64) 
2

$$$$
GJSDZOHBAHKEKD-XMMPIXPANA-N
     RDKit          3D

 54 58  0  0  0  0  0  0  0  0999 V2000
  138.4200   77.5640  218.8420 O   0  0  0  0  0  0  0  0  0  0  0  0
  138.1090   76.9990  220.2000 S   0  0  0  0  0  0  0  0  0  0  0  0
  137.3860   75.6960  220.0020 O   0  0  0  0  0  0  0  0  0  0  0  0
  137.0270   78.1600  221.0460 C   0  0  0  0  0  0  0  0  0  0  0  0
  137.7960   79.2270  221.7840 C   0  0  0  0  0  0  0  0  0  0  0  0
  137.9580   79.1600  223.1790 C   0  0  0  0  0  0  0  0  0  0  0  0
  138.6400   80.1730  223.8590 C   0  0  0  0  0  0  0  0  0  0  0  0
  139.1620   81.2620  223.1550 C   0  0  0  0  0  0  0  0  0  0  0  0
  138.9980   81.3560  221.7610 C   0  0  0  0  0  0  0  0  0  0  0  0
  139.5940   82.5130  220.9970 C   0  0  0  0  0  0  0  0  0  0  0  0
  139.9620   82.1160  219.7220 F   0  0  0  0  0  0  0  0  0  0  0  0
  138.6570   83.5310  220.9010 F   0  0  0  0  0  0  0  0  0  0  0  0
  140.7230   82.9970  221.6430 F   0  0  0  0  0  0  0  0  0  0  0  0
  138.3430   80.3140  221.0780 C   0  0  0  0  0  0  0  0  0  0  0  0
  139.6140   76.6870  221.0420 N   0  0  0  0  0  0  0  0  0  0  0  0
  139.5670   75.5260  221.9540 C   0  0  0  0  0  0  0  0  0  0  0  0
  140.1600   74.2650  221.3390 C   0  0  0  0  0  0  0  0  0  0  0  0
  141.5450   74.5320  220.8390 C   0  0  0  0  0  0  0  0  0  0  0  0
  142.4960   73.4980  220.8300 C   0  0  0  0  0  0  0  0  0  0  0  0
  143.7670   73.7120  220.2890 C   0  0  0  0  0  0  0  0  0  0  0  0
  144.0890   74.9490  219.7320 C   0  0  0  0  0  0  0  0  0  0  0  0
  143.1440   75.9780  219.7220 C   0  0  0  0  0  0  0  0  0  0  0  0
  141.8700   75.7910  220.2990 C   0  0  0  0  0  0  0  0  0  0  0  0
  140.8260   76.8970  220.2080 C   0  0  2  0  0  0  0  0  0  0  0  0
  141.4100   78.2430  220.5550 C   0  0  0  0  0  0  0  0  0  0  0  0
  141.7380   79.2470  219.6430 C   0  0  0  0  0  0  0  0  0  0  0  0
  142.1680   80.3540  220.2900 N   0  0  0  0  0  0  0  0  0  0  0  0
  142.1090   80.0640  221.6030 C   0  0  0  0  0  0  0  0  0  0  0  0
  142.4350   80.9050  222.6680 C   0  0  0  0  0  0  0  0  0  0  0  0
  142.2830   80.4040  223.9760 C   0  0  0  0  0  0  0  0  0  0  0  0
  141.8220   79.0850  224.1890 C   0  0  0  0  0  0  0  0  0  0  0  0
  141.5030   78.2560  223.0950 C   0  0  0  0  0  0  0  0  0  0  0  0
  141.6520   78.7850  221.8080 C   0  0  0  0  0  0  0  0  0  0  0  0
  136.3766   78.6435  220.3022 H   0  0  0  0  0  0  0  0  0  0  0  0
  136.4411   77.5953  221.7862 H   0  0  0  0  0  0  0  0  0  0  0  0
  137.5462   78.3066  223.7377 H   0  0  0  0  0  0  0  0  0  0  0  0
  138.7662   80.1131  224.9501 H   0  0  0  0  0  0  0  0  0  0  0  0
  139.7051   82.0515  223.6951 H   0  0  0  0  0  0  0  0  0  0  0  0
  138.2580   80.3500  219.9819 H   0  0  0  0  0  0  0  0  0  0  0  0
  140.1328   75.7719  222.8647 H   0  0  0  0  0  0  0  0  0  0  0  0
  138.5087   75.3205  222.1726 H   0  0  0  0  0  0  0  0  0  0  0  0
  140.1959   73.4722  222.1007 H   0  0  0  0  0  0  0  0  0  0  0  0
  139.5299   73.9486  220.4947 H   0  0  0  0  0  0  0  0  0  0  0  0
  142.2391   72.5147  221.2509 H   0  0  0  0  0  0  0  0  0  0  0  0
  144.5135   72.9042  220.3027 H   0  0  0  0  0  0  0  0  0  0  0  0
  145.0871   75.1147  219.3004 H   0  0  0  0  0  0  0  0  0  0  0  0
  143.3957   76.9438  219.2596 H   0  0  0  0  0  0  0  0  0  0  0  0
  140.5081   76.8654  219.1554 H   0  0  0  0  0  0  0  0  0  0  0  0
  141.6580   79.1513  218.5501 H   0  0  0  0  0  0  0  0  0  0  0  0
  142.4730   81.2540  219.8540 H   0  0  0  0  0  0  0  0  0  0  0  0
  142.7995   81.9278  222.4916 H   0  0  0  0  0  0  0  0  0  0  0  0
  142.5248   81.0438  224.8375 H   0  0  0  0  0  0  0  0  0  0  0  0
  141.7116   78.7033  225.2147 H   0  0  0  0  0  0  0  0  0  0  0  0
  141.1482   77.2260  223.2478 H   0  0  0  0  0  0  0  0  0  0  0  0
  1  2  2  0
  2  3  2  0
  2  4  1  0
  4  5  1  0
  5  6  2  0
  6  7  1  0
  7  8  2  0
  8  9  1  0
  9 10  1  0
 10 11  1  0
 10 12  1  0
 10 13  1  0
  9 14  2  0
  2 15  1  0
 15 16  1  0
 16 17  1  0
 17 18  1  0
 18 19  2  0
 19 20  1  0
 20 21  2  0
 21 22  1  0
 22 23  2  0
 23 24  1  0
 24 25  1  0
 25 26  2  0
 26 27  1  0
 27 28  1  0
 28 29  2  0
 29 30  1  0
 30 31  2  0
 31 32  1  0
 32 33  2  0
 14  5  1  0
 24 15  1  0
 33 25  1  0
 23 18  1  0
 33 28  1  0
  4 34  1  0
  4 35  1  0
  6 36  1  0
  7 37  1  0
  8 38  1  0
 14 39  1  0
 16 40  1  0
 16 41  1  0
 17 42  1  0
 17 43  1  0
 19 44  1  0
 20 45  1  0
 21 46  1  0
 22 47  1  0
 24 48  1  6
 26 49  1  0
 27 50  1  0
 29 51  1  0
 30 52  1  0
 31 53  1  0
 32 54  1  0
M  END
>  <UniqueID>  (65) 
204

>  <SMILES>  (65) 
O=S(=O)(Cc1cccc(C(F)(F)F)c1)N1CCc2ccccc2[C@@H]1c1c[nH]c2ccccc12

>  <Energy>  (65) 
97.73264335478956

>  <Genealogy>  (65) 
O=S(=O)(Cc1cccc(C(F)(F)F)c1)N1CCc2ccccc2[C@@H]1c1c[nH]c2ccccc12 (3D coordinates assigned)
O=S(=O)(Cc1cccc(C(F)(F)F)c1)N1CCc2ccccc2[C@@H]1c1c[nH]c2ccccc12 (nonaromatic ring conformer: 97.73264335478956 kcal/mol)

>  <smiles>  (65) 
O=S(=O)(Cc1cccc(C(F)(F)F)c1)N1CCc2ccccc2[C@@H]1c1c[nH]c2ccccc12

>  <score_type>  (65) 
oracle

>  <origin>  (65) 
autodockgpu

>  <m_score__min__energy>  (65) 
-8.0600000000000005

>  <m_primary>  (65) 
energy

>  <meeko>  (65) 
{"free_energy": -6.7, "intermolecular_energy": -8.19, "internal_energy": -3.37, "cluster_size": 16, "cluster_id": 3, "rank_in_cluster": 3}

>  <energy>  (65) 
-6.72

>  <cluster_rmsd>  (65) 
0.0

>  <rmsd>  (65) 
270.92

>  <cluster>  (65) 
3

$$$$
GJSDZOHBAHKEKD-XMMPIXPANA-N
     RDKit          3D

 54 58  0  0  0  0  0  0  0  0999 V2000
  138.3970   77.5520  218.8360 O   0  0  0  0  0  0  0  0  0  0  0  0
  138.0880   77.0120  220.2040 S   0  0  0  0  0  0  0  0  0  0  0  0
  137.3540   75.7110  220.0310 O   0  0  0  0  0  0  0  0  0  0  0  0
  137.0180   78.1950  221.0350 C   0  0  0  0  0  0  0  0  0  0  0  0
  137.7980   79.2550  221.7710 C   0  0  0  0  0  0  0  0  0  0  0  0
  137.9790   79.1780  223.1630 C   0  0  0  0  0  0  0  0  0  0  0  0
  138.6710   80.1850  223.8410 C   0  0  0  0  0  0  0  0  0  0  0  0
  139.1860   81.2780  223.1390 C   0  0  0  0  0  0  0  0  0  0  0  0
  139.0020   81.3820  221.7470 C   0  0  0  0  0  0  0  0  0  0  0  0
  139.5900   82.5450  220.9850 C   0  0  0  0  0  0  0  0  0  0  0  0
  140.7200   83.0260  221.6270 F   0  0  0  0  0  0  0  0  0  0  0  0
  139.9380   82.1280  219.7090 F   0  0  0  0  0  0  0  0  0  0  0  0
  138.6720   83.5820  220.8880 F   0  0  0  0  0  0  0  0  0  0  0  0
  138.3370   80.3470  221.0660 C   0  0  0  0  0  0  0  0  0  0  0  0
  139.5940   76.7030  221.0450 N   0  0  0  0  0  0  0  0  0  0  0  0
  139.5450   75.5490  221.9670 C   0  0  0  0  0  0  0  0  0  0  0  0
  140.1340   74.2810  221.3610 C   0  0  0  0  0  0  0  0  0  0  0  0
  141.5180   74.5400  220.8560 C   0  0  0  0  0  0  0  0  0  0  0  0
  142.4650   73.5030  220.8530 C   0  0  0  0  0  0  0  0  0  0  0  0
  143.7350   73.7080  220.3080 C   0  0  0  0  0  0  0  0  0  0  0  0
  144.0610   74.9400  219.7390 C   0  0  0  0  0  0  0  0  0  0  0  0
  143.1180   75.9710  219.7220 C   0  0  0  0  0  0  0  0  0  0  0  0
  141.8450   75.7930  220.3040 C   0  0  0  0  0  0  0  0  0  0  0  0
  140.8050   76.9010  220.2060 C   0  0  2  0  0  0  0  0  0  0  0  0
  141.3930   78.2490  220.5400 C   0  0  0  0  0  0  0  0  0  0  0  0
  141.7130   79.2470  219.6190 C   0  0  0  0  0  0  0  0  0  0  0  0
  142.1510   80.3570  220.2560 N   0  0  0  0  0  0  0  0  0  0  0  0
  142.1050   80.0740  221.5710 C   0  0  0  0  0  0  0  0  0  0  0  0
  142.4430   80.9210  222.6280 C   0  0  0  0  0  0  0  0  0  0  0  0
  142.3040   80.4270  223.9400 C   0  0  0  0  0  0  0  0  0  0  0  0
  141.8430   79.1100  224.1640 C   0  0  0  0  0  0  0  0  0  0  0  0
  141.5130   78.2750  223.0780 C   0  0  0  0  0  0  0  0  0  0  0  0
  141.6490   78.7970  221.7870 C   0  0  0  0  0  0  0  0  0  0  0  0
  136.3800   78.6832  220.2837 H   0  0  0  0  0  0  0  0  0  0  0  0
  136.4187   77.6442  221.7749 H   0  0  0  0  0  0  0  0  0  0  0  0
  137.5740   78.3210  223.7211 H   0  0  0  0  0  0  0  0  0  0  0  0
  138.8107   80.1171  224.9300 H   0  0  0  0  0  0  0  0  0  0  0  0
  139.7386   82.0621  223.6773 H   0  0  0  0  0  0  0  0  0  0  0  0
  138.2372   80.3914  219.9714 H   0  0  0  0  0  0  0  0  0  0  0  0
  140.1127   75.8007  222.8749 H   0  0  0  0  0  0  0  0  0  0  0  0
  138.4865   75.3482  222.1889 H   0  0  0  0  0  0  0  0  0  0  0  0
  140.1695   73.4945  222.1292 H   0  0  0  0  0  0  0  0  0  0  0  0
  139.5013   73.9594  220.5206 H   0  0  0  0  0  0  0  0  0  0  0  0
  142.2054   72.5240  221.2821 H   0  0  0  0  0  0  0  0  0  0  0  0
  144.4786   72.8977  220.3274 H   0  0  0  0  0  0  0  0  0  0  0  0
  145.0589   75.0992  219.3045 H   0  0  0  0  0  0  0  0  0  0  0  0
  143.3708   76.9318  219.2498 H   0  0  0  0  0  0  0  0  0  0  0  0
  140.4856   76.8602  219.1542 H   0  0  0  0  0  0  0  0  0  0  0  0
  141.6218   79.1454  218.5275 H   0  0  0  0  0  0  0  0  0  0  0  0
  142.4530   81.2540  219.8120 H   0  0  0  0  0  0  0  0  0  0  0  0
  142.8066   81.9424  222.4422 H   0  0  0  0  0  0  0  0  0  0  0  0
  142.5560   81.0706  224.7957 H   0  0  0  0  0  0  0  0  0  0  0  0
  141.7411   78.7343  225.1928 H   0  0  0  0  0  0  0  0  0  0  0  0
  141.1598   77.2459  223.2400 H   0  0  0  0  0  0  0  0  0  0  0  0
  1  2  2  0
  2  3  2  0
  2  4  1  0
  4  5  1  0
  5  6  2  0
  6  7  1  0
  7  8  2  0
  8  9  1  0
  9 10  1  0
 10 11  1  0
 10 12  1  0
 10 13  1  0
  9 14  2  0
  2 15  1  0
 15 16  1  0
 16 17  1  0
 17 18  1  0
 18 19  2  0
 19 20  1  0
 20 21  2  0
 21 22  1  0
 22 23  2  0
 23 24  1  0
 24 25  1  0
 25 26  2  0
 26 27  1  0
 27 28  1  0
 28 29  2  0
 29 30  1  0
 30 31  2  0
 31 32  1  0
 32 33  2  0
 14  5  1  0
 24 15  1  0
 33 25  1  0
 23 18  1  0
 33 28  1  0
  4 34  1  0
  4 35  1  0
  6 36  1  0
  7 37  1  0
  8 38  1  0
 14 39  1  0
 16 40  1  0
 16 41  1  0
 17 42  1  0
 17 43  1  0
 19 44  1  0
 20 45  1  0
 21 46  1  0
 22 47  1  0
 24 48  1  6
 26 49  1  0
 27 50  1  0
 29 51  1  0
 30 52  1  0
 31 53  1  0
 32 54  1  0
M  END
>  <UniqueID>  (66) 
204

>  <SMILES>  (66) 
O=S(=O)(Cc1cccc(C(F)(F)F)c1)N1CCc2ccccc2[C@@H]1c1c[nH]c2ccccc12

>  <Energy>  (66) 
97.73264335478956

>  <Genealogy>  (66) 
O=S(=O)(Cc1cccc(C(F)(F)F)c1)N1CCc2ccccc2[C@@H]1c1c[nH]c2ccccc12 (3D coordinates assigned)
O=S(=O)(Cc1cccc(C(F)(F)F)c1)N1CCc2ccccc2[C@@H]1c1c[nH]c2ccccc12 (nonaromatic ring conformer: 97.73264335478956 kcal/mol)

>  <smiles>  (66) 
O=S(=O)(Cc1cccc(C(F)(F)F)c1)N1CCc2ccccc2[C@@H]1c1c[nH]c2ccccc12

>  <score_type>  (66) 
oracle

>  <origin>  (66) 
autodockgpu

>  <m_score__min__energy>  (66) 
-8.0600000000000005

>  <m_primary>  (66) 
energy

>  <meeko>  (66) 
{"free_energy": -6.68, "intermolecular_energy": -8.18, "internal_energy": -3.37, "cluster_size": 16, "cluster_id": 3, "rank_in_cluster": 8}

>  <energy>  (66) 
-6.7

>  <cluster_rmsd>  (66) 
0.02

>  <rmsd>  (66) 
270.92

>  <cluster>  (66) 
3

$$$$
GJSDZOHBAHKEKD-XMMPIXPANA-N
     RDKit          3D

 54 58  0  0  0  0  0  0  0  0999 V2000
  138.0770   76.1090  219.0240 O   0  0  0  0  0  0  0  0  0  0  0  0
  138.0990   76.8700  220.3190 S   0  0  0  0  0  0  0  0  0  0  0  0
  136.9900   76.3400  221.1840 O   0  0  0  0  0  0  0  0  0  0  0  0
  137.7900   78.6030  219.9470 C   0  0  0  0  0  0  0  0  0  0  0  0
  138.2590   79.5180  221.0500 C   0  0  0  0  0  0  0  0  0  0  0  0
  138.1560   79.1310  222.3970 C   0  0  0  0  0  0  0  0  0  0  0  0
  138.5580   80.0010  223.4140 C   0  0  0  0  0  0  0  0  0  0  0  0
  139.0630   81.2650  223.0970 C   0  0  0  0  0  0  0  0  0  0  0  0
  139.1590   81.6790  221.7550 C   0  0  0  0  0  0  0  0  0  0  0  0
  139.7380   83.0300  221.4120 C   0  0  0  0  0  0  0  0  0  0  0  0
  139.7950   83.1990  220.0380 F   0  0  0  0  0  0  0  0  0  0  0  0
  138.9390   84.0230  221.9570 F   0  0  0  0  0  0  0  0  0  0  0  0
  141.0240   83.1550  221.9180 F   0  0  0  0  0  0  0  0  0  0  0  0
  138.7870   80.7830  220.7360 C   0  0  0  0  0  0  0  0  0  0  0  0
  139.6300   76.5780  221.1220 N   0  0  0  0  0  0  0  0  0  0  0  0
  139.6180   75.4220  222.0420 C   0  0  0  0  0  0  0  0  0  0  0  0
  140.2070   74.1620  221.4190 C   0  0  0  0  0  0  0  0  0  0  0  0
  141.5740   74.4390  220.8790 C   0  0  0  0  0  0  0  0  0  0  0  0
  142.5340   73.4140  220.8500 C   0  0  0  0  0  0  0  0  0  0  0  0
  143.7880   73.6360  220.2740 C   0  0  0  0  0  0  0  0  0  0  0  0
  144.0830   74.8730  219.7000 C   0  0  0  0  0  0  0  0  0  0  0  0
  143.1280   75.8920  219.7090 C   0  0  0  0  0  0  0  0  0  0  0  0
  141.8720   75.6980  220.3220 C   0  0  0  0  0  0  0  0  0  0  0  0
  140.8160   76.7930  220.2530 C   0  0  2  0  0  0  0  0  0  0  0  0
  141.3960   78.1470  220.5750 C   0  0  0  0  0  0  0  0  0  0  0  0
  141.7140   79.1370  219.6450 C   0  0  0  0  0  0  0  0  0  0  0  0
  142.1440   80.2560  220.2720 N   0  0  0  0  0  0  0  0  0  0  0  0
  142.0950   79.9870  221.5900 C   0  0  0  0  0  0  0  0  0  0  0  0
  142.4240   80.8460  222.6390 C   0  0  0  0  0  0  0  0  0  0  0  0
  142.2830   80.3650  223.9560 C   0  0  0  0  0  0  0  0  0  0  0  0
  141.8280   79.0480  224.1920 C   0  0  0  0  0  0  0  0  0  0  0  0
  141.5060   78.2000  223.1140 C   0  0  0  0  0  0  0  0  0  0  0  0
  141.6440   78.7090  221.8180 C   0  0  0  0  0  0  0  0  0  0  0  0
  138.3206   78.8658  219.0199 H   0  0  0  0  0  0  0  0  0  0  0  0
  136.7033   78.7353  219.8395 H   0  0  0  0  0  0  0  0  0  0  0  0
  137.7569   78.1382  222.6521 H   0  0  0  0  0  0  0  0  0  0  0  0
  138.4768   79.6904  224.4661 H   0  0  0  0  0  0  0  0  0  0  0  0
  139.3877   81.9410  223.9017 H   0  0  0  0  0  0  0  0  0  0  0  0
  138.9105   81.0750  219.6827 H   0  0  0  0  0  0  0  0  0  0  0  0
  140.2051   75.6789  222.9361 H   0  0  0  0  0  0  0  0  0  0  0  0
  138.5678   75.2080  222.2894 H   0  0  0  0  0  0  0  0  0  0  0  0
  140.2722   73.3751  222.1849 H   0  0  0  0  0  0  0  0  0  0  0  0
  139.5569   73.8334  220.5947 H   0  0  0  0  0  0  0  0  0  0  0  0
  142.2975   72.4309  221.2831 H   0  0  0  0  0  0  0  0  0  0  0  0
  144.5424   72.8354  220.2732 H   0  0  0  0  0  0  0  0  0  0  0  0
  145.0674   75.0456  219.2405 H   0  0  0  0  0  0  0  0  0  0  0  0
  143.3576   76.8567  219.2329 H   0  0  0  0  0  0  0  0  0  0  0  0
  140.4698   76.7506  219.2098 H   0  0  0  0  0  0  0  0  0  0  0  0
  141.6273   79.0236  218.5543 H   0  0  0  0  0  0  0  0  0  0  0  0
  142.4430   81.1500  219.8200 H   0  0  0  0  0  0  0  0  0  0  0  0
  142.7825   81.8675  222.4440 H   0  0  0  0  0  0  0  0  0  0  0  0
  142.5287   81.0188  224.8058 H   0  0  0  0  0  0  0  0  0  0  0  0
  141.7246   78.6825  225.2243 H   0  0  0  0  0  0  0  0  0  0  0  0
  141.1573   77.1709  223.2857 H   0  0  0  0  0  0  0  0  0  0  0  0
  1  2  2  0
  2  3  2  0
  2  4  1  0
  4  5  1  0
  5  6  2  0
  6  7  1  0
  7  8  2  0
  8  9  1  0
  9 10  1  0
 10 11  1  0
 10 12  1  0
 10 13  1  0
  9 14  2  0
  2 15  1  0
 15 16  1  0
 16 17  1  0
 17 18  1  0
 18 19  2  0
 19 20  1  0
 20 21  2  0
 21 22  1  0
 22 23  2  0
 23 24  1  0
 24 25  1  0
 25 26  2  0
 26 27  1  0
 27 28  1  0
 28 29  2  0
 29 30  1  0
 30 31  2  0
 31 32  1  0
 32 33  2  0
 14  5  1  0
 24 15  1  0
 33 25  1  0
 23 18  1  0
 33 28  1  0
  4 34  1  0
  4 35  1  0
  6 36  1  0
  7 37  1  0
  8 38  1  0
 14 39  1  0
 16 40  1  0
 16 41  1  0
 17 42  1  0
 17 43  1  0
 19 44  1  0
 20 45  1  0
 21 46  1  0
 22 47  1  0
 24 48  1  6
 26 49  1  0
 27 50  1  0
 29 51  1  0
 30 52  1  0
 31 53  1  0
 32 54  1  0
M  END
>  <UniqueID>  (67) 
204

>  <SMILES>  (67) 
O=S(=O)(Cc1cccc(C(F)(F)F)c1)N1CCc2ccccc2[C@@H]1c1c[nH]c2ccccc12

>  <Energy>  (67) 
97.73264335478956

>  <Genealogy>  (67) 
O=S(=O)(Cc1cccc(C(F)(F)F)c1)N1CCc2ccccc2[C@@H]1c1c[nH]c2ccccc12 (3D coordinates assigned)
O=S(=O)(Cc1cccc(C(F)(F)F)c1)N1CCc2ccccc2[C@@H]1c1c[nH]c2ccccc12 (nonaromatic ring conformer: 97.73264335478956 kcal/mol)

>  <smiles>  (67) 
O=S(=O)(Cc1cccc(C(F)(F)F)c1)N1CCc2ccccc2[C@@H]1c1c[nH]c2ccccc12

>  <score_type>  (67) 
oracle

>  <origin>  (67) 
autodockgpu

>  <m_score__min__energy>  (67) 
-8.0600000000000005

>  <m_primary>  (67) 
energy

>  <meeko>  (67) 
{"free_energy": -6.61, "intermolecular_energy": -8.1, "internal_energy": -3.32, "cluster_size": 16, "cluster_id": 3, "rank_in_cluster": 16}

>  <energy>  (67) 
-6.7

>  <cluster_rmsd>  (67) 
0.05

>  <rmsd>  (67) 
270.91

>  <cluster>  (67) 
3

$$$$
GJSDZOHBAHKEKD-XMMPIXPANA-N
     RDKit          3D

 54 58  0  0  0  0  0  0  0  0999 V2000
  138.3990   77.5440  218.9500 O   0  0  0  0  0  0  0  0  0  0  0  0
  138.1150   76.9640  220.3070 S   0  0  0  0  0  0  0  0  0  0  0  0
  137.3920   75.6610  220.1080 O   0  0  0  0  0  0  0  0  0  0  0  0
  137.0440   78.1130  221.1840 C   0  0  0  0  0  0  0  0  0  0  0  0
  137.8210   79.1970  221.8880 C   0  0  0  0  0  0  0  0  0  0  0  0
  138.0000   79.1620  223.2820 C   0  0  0  0  0  0  0  0  0  0  0  0
  138.6890   80.1900  223.9310 C   0  0  0  0  0  0  0  0  0  0  0  0
  139.2030   81.2630  223.1970 C   0  0  0  0  0  0  0  0  0  0  0  0
  139.0210   81.3250  221.8030 C   0  0  0  0  0  0  0  0  0  0  0  0
  139.6070   82.4650  221.0060 C   0  0  0  0  0  0  0  0  0  0  0  0
  139.9550   82.0410  219.7340 F   0  0  0  0  0  0  0  0  0  0  0  0
  138.6700   83.4820  220.9030 F   0  0  0  0  0  0  0  0  0  0  0  0
  140.7460   82.9610  221.6240 F   0  0  0  0  0  0  0  0  0  0  0  0
  138.3580   80.2680  221.1520 C   0  0  0  0  0  0  0  0  0  0  0  0
  139.6360   76.6490  221.1190 N   0  0  0  0  0  0  0  0  0  0  0  0
  139.6010   75.4920  222.0360 C   0  0  0  0  0  0  0  0  0  0  0  0
  140.1760   74.2250  221.4150 C   0  0  0  0  0  0  0  0  0  0  0  0
  141.5510   74.4840  220.8840 C   0  0  0  0  0  0  0  0  0  0  0  0
  142.4960   73.4450  220.8600 C   0  0  0  0  0  0  0  0  0  0  0  0
  143.7570   73.6500  220.2920 C   0  0  0  0  0  0  0  0  0  0  0  0
  144.0740   74.8830  219.7230 C   0  0  0  0  0  0  0  0  0  0  0  0
  143.1330   75.9170  219.7280 C   0  0  0  0  0  0  0  0  0  0  0  0
  141.8710   75.7390  220.3320 C   0  0  0  0  0  0  0  0  0  0  0  0
  140.8310   76.8490  220.2590 C   0  0  2  0  0  0  0  0  0  0  0  0
  141.4280   78.1940  220.5870 C   0  0  0  0  0  0  0  0  0  0  0  0
  141.7570   79.1850  219.6620 C   0  0  0  0  0  0  0  0  0  0  0  0
  142.2010   80.2950  220.2950 N   0  0  0  0  0  0  0  0  0  0  0  0
  142.1500   80.0190  221.6110 C   0  0  0  0  0  0  0  0  0  0  0  0
  142.4920   80.8680  222.6650 C   0  0  0  0  0  0  0  0  0  0  0  0
  142.3470   80.3820  223.9790 C   0  0  0  0  0  0  0  0  0  0  0  0
  141.8760   79.0690  224.2080 C   0  0  0  0  0  0  0  0  0  0  0  0
  141.5420   78.2320  223.1260 C   0  0  0  0  0  0  0  0  0  0  0  0
  141.6850   78.7460  221.8320 C   0  0  0  0  0  0  0  0  0  0  0  0
  136.3599   78.5810  220.4608 H   0  0  0  0  0  0  0  0  0  0  0  0
  136.4937   77.5437  221.9476 H   0  0  0  0  0  0  0  0  0  0  0  0
  137.5957   78.3212  223.8647 H   0  0  0  0  0  0  0  0  0  0  0  0
  138.8272   80.1548  225.0217 H   0  0  0  0  0  0  0  0  0  0  0  0
  139.7533   82.0640  223.7124 H   0  0  0  0  0  0  0  0  0  0  0  0
  138.2589   80.2798  220.0565 H   0  0  0  0  0  0  0  0  0  0  0  0
  140.1854   75.7387  222.9347 H   0  0  0  0  0  0  0  0  0  0  0  0
  138.5460   75.2926  222.2754 H   0  0  0  0  0  0  0  0  0  0  0  0
  140.2252   73.4361  222.1800 H   0  0  0  0  0  0  0  0  0  0  0  0
  139.5267   73.9066  220.5861 H   0  0  0  0  0  0  0  0  0  0  0  0
  142.2426   72.4649  221.2904 H   0  0  0  0  0  0  0  0  0  0  0  0
  144.4994   72.8383  220.2940 H   0  0  0  0  0  0  0  0  0  0  0  0
  145.0639   75.0420  219.2705 H   0  0  0  0  0  0  0  0  0  0  0  0
  143.3795   76.8795  219.2559 H   0  0  0  0  0  0  0  0  0  0  0  0
  140.4909   76.8136  219.2135 H   0  0  0  0  0  0  0  0  0  0  0  0
  141.6679   79.0787  218.5708 H   0  0  0  0  0  0  0  0  0  0  0  0
  142.5100   81.1880  219.8470 H   0  0  0  0  0  0  0  0  0  0  0  0
  142.8635   81.8858  222.4751 H   0  0  0  0  0  0  0  0  0  0  0  0
  142.6018   81.0280  224.8321 H   0  0  0  0  0  0  0  0  0  0  0  0
  141.7697   78.6986  225.2383 H   0  0  0  0  0  0  0  0  0  0  0  0
  141.1802   77.2066  223.2925 H   0  0  0  0  0  0  0  0  0  0  0  0
  1  2  2  0
  2  3  2  0
  2  4  1  0
  4  5  1  0
  5  6  2  0
  6  7  1  0
  7  8  2  0
  8  9  1  0
  9 10  1  0
 10 11  1  0
 10 12  1  0
 10 13  1  0
  9 14  2  0
  2 15  1  0
 15 16  1  0
 16 17  1  0
 17 18  1  0
 18 19  2  0
 19 20  1  0
 20 21  2  0
 21 22  1  0
 22 23  2  0
 23 24  1  0
 24 25  1  0
 25 26  2  0
 26 27  1  0
 27 28  1  0
 28 29  2  0
 29 30  1  0
 30 31  2  0
 31 32  1  0
 32 33  2  0
 14  5  1  0
 24 15  1  0
 33 25  1  0
 23 18  1  0
 33 28  1  0
  4 34  1  0
  4 35  1  0
  6 36  1  0
  7 37  1  0
  8 38  1  0
 14 39  1  0
 16 40  1  0
 16 41  1  0
 17 42  1  0
 17 43  1  0
 19 44  1  0
 20 45  1  0
 21 46  1  0
 22 47  1  0
 24 48  1  6
 26 49  1  0
 27 50  1  0
 29 51  1  0
 30 52  1  0
 31 53  1  0
 32 54  1  0
M  END
>  <UniqueID>  (68) 
204

>  <SMILES>  (68) 
O=S(=O)(Cc1cccc(C(F)(F)F)c1)N1CCc2ccccc2[C@@H]1c1c[nH]c2ccccc12

>  <Energy>  (68) 
97.73264335478956

>  <Genealogy>  (68) 
O=S(=O)(Cc1cccc(C(F)(F)F)c1)N1CCc2ccccc2[C@@H]1c1c[nH]c2ccccc12 (3D coordinates assigned)
O=S(=O)(Cc1cccc(C(F)(F)F)c1)N1CCc2ccccc2[C@@H]1c1c[nH]c2ccccc12 (nonaromatic ring conformer: 97.73264335478956 kcal/mol)

>  <smiles>  (68) 
O=S(=O)(Cc1cccc(C(F)(F)F)c1)N1CCc2ccccc2[C@@H]1c1c[nH]c2ccccc12

>  <score_type>  (68) 
oracle

>  <origin>  (68) 
autodockgpu

>  <m_score__min__energy>  (68) 
-8.0600000000000005

>  <m_primary>  (68) 
energy

>  <meeko>  (68) 
{"free_energy": -6.69, "intermolecular_energy": -8.18, "internal_energy": -3.38, "cluster_size": 16, "cluster_id": 3, "rank_in_cluster": 6}

>  <energy>  (68) 
-6.69

>  <cluster_rmsd>  (68) 
0.04

>  <rmsd>  (68) 
270.93

>  <cluster>  (68) 
3

$$$$
GJSDZOHBAHKEKD-XMMPIXPANA-N
     RDKit          3D

 54 58  0  0  0  0  0  0  0  0999 V2000
  138.4180   77.5460  218.8240 O   0  0  0  0  0  0  0  0  0  0  0  0
  138.0970   77.0280  220.1970 S   0  0  0  0  0  0  0  0  0  0  0  0
  137.3450   75.7360  220.0380 O   0  0  0  0  0  0  0  0  0  0  0  0
  137.0410   78.2370  221.0100 C   0  0  0  0  0  0  0  0  0  0  0  0
  137.8340   79.2770  221.7590 C   0  0  0  0  0  0  0  0  0  0  0  0
  138.0230   79.1730  223.1490 C   0  0  0  0  0  0  0  0  0  0  0  0
  138.7270   80.1620  223.8410 C   0  0  0  0  0  0  0  0  0  0  0  0
  139.2450   81.2640  223.1560 C   0  0  0  0  0  0  0  0  0  0  0  0
  139.0540   81.3960  221.7680 C   0  0  0  0  0  0  0  0  0  0  0  0
  139.6450   82.5680  221.0230 C   0  0  0  0  0  0  0  0  0  0  0  0
  139.9910   82.1990  219.7330 F   0  0  0  0  0  0  0  0  0  0  0  0
  138.7120   83.5930  220.9650 F   0  0  0  0  0  0  0  0  0  0  0  0
  140.7860   83.0300  221.6630 F   0  0  0  0  0  0  0  0  0  0  0  0
  138.3760   80.3780  221.0720 C   0  0  0  0  0  0  0  0  0  0  0  0
  139.5960   76.7080  221.0480 N   0  0  0  0  0  0  0  0  0  0  0  0
  139.5330   75.5530  221.9670 C   0  0  0  0  0  0  0  0  0  0  0  0
  140.1170   74.2820  221.3630 C   0  0  0  0  0  0  0  0  0  0  0  0
  141.5060   74.5330  220.8670 C   0  0  0  0  0  0  0  0  0  0  0  0
  142.4470   73.4890  220.8690 C   0  0  0  0  0  0  0  0  0  0  0  0
  143.7220   73.6870  220.3320 C   0  0  0  0  0  0  0  0  0  0  0  0
  144.0590   74.9170  219.7670 C   0  0  0  0  0  0  0  0  0  0  0  0
  143.1230   75.9550  219.7450 C   0  0  0  0  0  0  0  0  0  0  0  0
  141.8450   75.7850  220.3190 C   0  0  0  0  0  0  0  0  0  0  0  0
  140.8130   76.8990  220.2170 C   0  0  2  0  0  0  0  0  0  0  0  0
  141.4080   78.2430  220.5560 C   0  0  0  0  0  0  0  0  0  0  0  0
  141.7280   79.2450  219.6400 C   0  0  0  0  0  0  0  0  0  0  0  0
  142.1730   80.3490  220.2820 N   0  0  0  0  0  0  0  0  0  0  0  0
  142.1310   80.0590  221.5960 C   0  0  0  0  0  0  0  0  0  0  0  0
  142.4770   80.8980  222.6560 C   0  0  0  0  0  0  0  0  0  0  0  0
  142.3410   80.3960  223.9660 C   0  0  0  0  0  0  0  0  0  0  0  0
  141.8760   79.0800  224.1840 C   0  0  0  0  0  0  0  0  0  0  0  0
  141.5370   78.2530  223.0940 C   0  0  0  0  0  0  0  0  0  0  0  0
  141.6700   78.7820  221.8060 C   0  0  0  0  0  0  0  0  0  0  0  0
  136.4280   78.7405  220.2480 H   0  0  0  0  0  0  0  0  0  0  0  0
  136.4153   77.7012  221.7390 H   0  0  0  0  0  0  0  0  0  0  0  0
  137.6147   78.3090  223.6938 H   0  0  0  0  0  0  0  0  0  0  0  0
  138.8737   80.0727  224.9275 H   0  0  0  0  0  0  0  0  0  0  0  0
  139.8062   82.0341  223.7056 H   0  0  0  0  0  0  0  0  0  0  0  0
  138.2689   80.4441  219.9792 H   0  0  0  0  0  0  0  0  0  0  0  0
  140.0964   75.7991  222.8791 H   0  0  0  0  0  0  0  0  0  0  0  0
  138.4716   75.3592  222.1811 H   0  0  0  0  0  0  0  0  0  0  0  0
  140.1426   73.4942  222.1303 H   0  0  0  0  0  0  0  0  0  0  0  0
  139.4874   73.9654  220.5184 H   0  0  0  0  0  0  0  0  0  0  0  0
  142.1786   72.5112  221.2954 H   0  0  0  0  0  0  0  0  0  0  0  0
  144.4605   72.8721  220.3549 H   0  0  0  0  0  0  0  0  0  0  0  0
  145.0607   75.0701  219.3390 H   0  0  0  0  0  0  0  0  0  0  0  0
  143.3853   76.9145  219.2753 H   0  0  0  0  0  0  0  0  0  0  0  0
  140.4991   76.8612  219.1634 H   0  0  0  0  0  0  0  0  0  0  0  0
  141.6319   79.1505  218.5483 H   0  0  0  0  0  0  0  0  0  0  0  0
  142.4760   81.2480  219.8420 H   0  0  0  0  0  0  0  0  0  0  0  0
  142.8443   81.9189  222.4749 H   0  0  0  0  0  0  0  0  0  0  0  0
  142.5987   81.0334  224.8246 H   0  0  0  0  0  0  0  0  0  0  0  0
  141.7778   78.6982  225.2109 H   0  0  0  0  0  0  0  0  0  0  0  0
  141.1794   77.2247  223.2512 H   0  0  0  0  0  0  0  0  0  0  0  0
  1  2  2  0
  2  3  2  0
  2  4  1  0
  4  5  1  0
  5  6  2  0
  6  7  1  0
  7  8  2  0
  8  9  1  0
  9 10  1  0
 10 11  1  0
 10 12  1  0
 10 13  1  0
  9 14  2  0
  2 15  1  0
 15 16  1  0
 16 17  1  0
 17 18  1  0
 18 19  2  0
 19 20  1  0
 20 21  2  0
 21 22  1  0
 22 23  2  0
 23 24  1  0
 24 25  1  0
 25 26  2  0
 26 27  1  0
 27 28  1  0
 28 29  2  0
 29 30  1  0
 30 31  2  0
 31 32  1  0
 32 33  2  0
 14  5  1  0
 24 15  1  0
 33 25  1  0
 23 18  1  0
 33 28  1  0
  4 34  1  0
  4 35  1  0
  6 36  1  0
  7 37  1  0
  8 38  1  0
 14 39  1  0
 16 40  1  0
 16 41  1  0
 17 42  1  0
 17 43  1  0
 19 44  1  0
 20 45  1  0
 21 46  1  0
 22 47  1  0
 24 48  1  6
 26 49  1  0
 27 50  1  0
 29 51  1  0
 30 52  1  0
 31 53  1  0
 32 54  1  0
M  END
>  <UniqueID>  (69) 
204

>  <SMILES>  (69) 
O=S(=O)(Cc1cccc(C(F)(F)F)c1)N1CCc2ccccc2[C@@H]1c1c[nH]c2ccccc12

>  <Energy>  (69) 
97.73264335478956

>  <Genealogy>  (69) 
O=S(=O)(Cc1cccc(C(F)(F)F)c1)N1CCc2ccccc2[C@@H]1c1c[nH]c2ccccc12 (3D coordinates assigned)
O=S(=O)(Cc1cccc(C(F)(F)F)c1)N1CCc2ccccc2[C@@H]1c1c[nH]c2ccccc12 (nonaromatic ring conformer: 97.73264335478956 kcal/mol)

>  <smiles>  (69) 
O=S(=O)(Cc1cccc(C(F)(F)F)c1)N1CCc2ccccc2[C@@H]1c1c[nH]c2ccccc12

>  <score_type>  (69) 
oracle

>  <origin>  (69) 
autodockgpu

>  <m_score__min__energy>  (69) 
-8.0600000000000005

>  <m_primary>  (69) 
energy

>  <meeko>  (69) 
{"free_energy": -6.69, "intermolecular_energy": -8.19, "internal_energy": -3.37, "cluster_size": 16, "cluster_id": 3, "rank_in_cluster": 4}

>  <energy>  (69) 
-6.69

>  <cluster_rmsd>  (69) 
0.1

>  <rmsd>  (69) 
270.95

>  <cluster>  (69) 
3

$$$$
GJSDZOHBAHKEKD-XMMPIXPANA-N
     RDKit          3D

 54 58  0  0  0  0  0  0  0  0999 V2000
  138.3760   77.5550  218.9870 O   0  0  0  0  0  0  0  0  0  0  0  0
  138.1070   76.9360  220.3300 S   0  0  0  0  0  0  0  0  0  0  0  0
  137.4060   75.6260  220.1020 O   0  0  0  0  0  0  0  0  0  0  0  0
  137.0200   78.0440  221.2400 C   0  0  0  0  0  0  0  0  0  0  0  0
  137.7770   79.1530  221.9270 C   0  0  0  0  0  0  0  0  0  0  0  0
  137.9350   79.1560  223.3240 C   0  0  0  0  0  0  0  0  0  0  0  0
  138.6050   80.2070  223.9550 C   0  0  0  0  0  0  0  0  0  0  0  0
  139.1210   81.2650  223.2010 C   0  0  0  0  0  0  0  0  0  0  0  0
  138.9610   81.2880  221.8030 C   0  0  0  0  0  0  0  0  0  0  0  0
  139.5500   82.4120  220.9860 C   0  0  0  0  0  0  0  0  0  0  0  0
  140.6930   82.9070  221.5930 F   0  0  0  0  0  0  0  0  0  0  0  0
  139.8770   81.9390  219.7240 F   0  0  0  0  0  0  0  0  0  0  0  0
  138.6410   83.4540  220.8570 F   0  0  0  0  0  0  0  0  0  0  0  0
  138.3170   80.2090  221.1700 C   0  0  0  0  0  0  0  0  0  0  0  0
  139.6360   76.6270  221.1280 N   0  0  0  0  0  0  0  0  0  0  0  0
  139.6160   75.4670  222.0430 C   0  0  0  0  0  0  0  0  0  0  0  0
  140.1920   74.2050  221.4130 C   0  0  0  0  0  0  0  0  0  0  0  0
  141.5610   74.4720  220.8720 C   0  0  0  0  0  0  0  0  0  0  0  0
  142.5110   73.4380  220.8370 C   0  0  0  0  0  0  0  0  0  0  0  0
  143.7660   73.6510  220.2590 C   0  0  0  0  0  0  0  0  0  0  0  0
  144.0710   74.8880  219.6900 C   0  0  0  0  0  0  0  0  0  0  0  0
  143.1250   75.9160  219.7060 C   0  0  0  0  0  0  0  0  0  0  0  0
  141.8690   75.7300  220.3210 C   0  0  0  0  0  0  0  0  0  0  0  0
  140.8230   76.8350  220.2590 C   0  0  2  0  0  0  0  0  0  0  0  0
  141.4160   78.1830  220.5850 C   0  0  0  0  0  0  0  0  0  0  0  0
  141.7470   79.1720  219.6590 C   0  0  0  0  0  0  0  0  0  0  0  0
  142.1860   80.2840  220.2900 N   0  0  0  0  0  0  0  0  0  0  0  0
  142.1290   80.0120  221.6070 C   0  0  0  0  0  0  0  0  0  0  0  0
  142.4640   80.8660  222.6590 C   0  0  0  0  0  0  0  0  0  0  0  0
  142.3140   80.3830  223.9740 C   0  0  0  0  0  0  0  0  0  0  0  0
  141.8450   79.0700  224.2060 C   0  0  0  0  0  0  0  0  0  0  0  0
  141.5180   78.2290  223.1240 C   0  0  0  0  0  0  0  0  0  0  0  0
  141.6650   78.7390  221.8300 C   0  0  0  0  0  0  0  0  0  0  0  0
  136.3005   78.4895  220.5373 H   0  0  0  0  0  0  0  0  0  0  0  0
  136.5111   77.4534  222.0160 H   0  0  0  0  0  0  0  0  0  0  0  0
  137.5293   78.3272  223.9228 H   0  0  0  0  0  0  0  0  0  0  0  0
  138.7268   80.2020  225.0482 H   0  0  0  0  0  0  0  0  0  0  0  0
  139.6554   82.0847  223.7035 H   0  0  0  0  0  0  0  0  0  0  0  0
  138.2349   80.1908  220.0732 H   0  0  0  0  0  0  0  0  0  0  0  0
  140.2076   75.7146  222.9367 H   0  0  0  0  0  0  0  0  0  0  0  0
  138.5646   75.2612  222.2922 H   0  0  0  0  0  0  0  0  0  0  0  0
  140.2510   73.4137  222.1748 H   0  0  0  0  0  0  0  0  0  0  0  0
  139.5376   73.8865  220.5882 H   0  0  0  0  0  0  0  0  0  0  0  0
  142.2662   72.4554  221.2667 H   0  0  0  0  0  0  0  0  0  0  0  0
  144.5129   72.8435  220.2528 H   0  0  0  0  0  0  0  0  0  0  0  0
  145.0559   75.0537  219.2290 H   0  0  0  0  0  0  0  0  0  0  0  0
  143.3621   76.8809  219.2339 H   0  0  0  0  0  0  0  0  0  0  0  0
  140.4747   76.8002  219.2162 H   0  0  0  0  0  0  0  0  0  0  0  0
  141.6626   79.0625  218.5677 H   0  0  0  0  0  0  0  0  0  0  0  0
  142.4950   81.1770  219.8410 H   0  0  0  0  0  0  0  0  0  0  0  0
  142.8336   81.8842  222.4674 H   0  0  0  0  0  0  0  0  0  0  0  0
  142.5636   81.0323  224.8261 H   0  0  0  0  0  0  0  0  0  0  0  0
  141.7347   78.7028  225.2370 H   0  0  0  0  0  0  0  0  0  0  0  0
  141.1583   77.2031  223.2917 H   0  0  0  0  0  0  0  0  0  0  0  0
  1  2  2  0
  2  3  2  0
  2  4  1  0
  4  5  1  0
  5  6  2  0
  6  7  1  0
  7  8  2  0
  8  9  1  0
  9 10  1  0
 10 11  1  0
 10 12  1  0
 10 13  1  0
  9 14  2  0
  2 15  1  0
 15 16  1  0
 16 17  1  0
 17 18  1  0
 18 19  2  0
 19 20  1  0
 20 21  2  0
 21 22  1  0
 22 23  2  0
 23 24  1  0
 24 25  1  0
 25 26  2  0
 26 27  1  0
 27 28  1  0
 28 29  2  0
 29 30  1  0
 30 31  2  0
 31 32  1  0
 32 33  2  0
 14  5  1  0
 24 15  1  0
 33 25  1  0
 23 18  1  0
 33 28  1  0
  4 34  1  0
  4 35  1  0
  6 36  1  0
  7 37  1  0
  8 38  1  0
 14 39  1  0
 16 40  1  0
 16 41  1  0
 17 42  1  0
 17 43  1  0
 19 44  1  0
 20 45  1  0
 21 46  1  0
 22 47  1  0
 24 48  1  6
 26 49  1  0
 27 50  1  0
 29 51  1  0
 30 52  1  0
 31 53  1  0
 32 54  1  0
M  END
>  <UniqueID>  (70) 
204

>  <SMILES>  (70) 
O=S(=O)(Cc1cccc(C(F)(F)F)c1)N1CCc2ccccc2[C@@H]1c1c[nH]c2ccccc12

>  <Energy>  (70) 
97.73264335478956

>  <Genealogy>  (70) 
O=S(=O)(Cc1cccc(C(F)(F)F)c1)N1CCc2ccccc2[C@@H]1c1c[nH]c2ccccc12 (3D coordinates assigned)
O=S(=O)(Cc1cccc(C(F)(F)F)c1)N1CCc2ccccc2[C@@H]1c1c[nH]c2ccccc12 (nonaromatic ring conformer: 97.73264335478956 kcal/mol)

>  <smiles>  (70) 
O=S(=O)(Cc1cccc(C(F)(F)F)c1)N1CCc2ccccc2[C@@H]1c1c[nH]c2ccccc12

>  <score_type>  (70) 
oracle

>  <origin>  (70) 
autodockgpu

>  <m_score__min__energy>  (70) 
-8.0600000000000005

>  <m_primary>  (70) 
energy

>  <meeko>  (70) 
{"free_energy": -6.67, "intermolecular_energy": -8.16, "internal_energy": -3.39, "cluster_size": 16, "cluster_id": 3, "rank_in_cluster": 13}

>  <energy>  (70) 
-6.69

>  <cluster_rmsd>  (70) 
0.08

>  <rmsd>  (70) 
270.94

>  <cluster>  (70) 
3

$$$$
GJSDZOHBAHKEKD-XMMPIXPANA-N
     RDKit          3D

 54 58  0  0  0  0  0  0  0  0999 V2000
  138.4190   77.6030  218.8200 O   0  0  0  0  0  0  0  0  0  0  0  0
  138.0940   77.0350  220.1720 S   0  0  0  0  0  0  0  0  0  0  0  0
  137.3710   75.7330  219.9640 O   0  0  0  0  0  0  0  0  0  0  0  0
  137.0050   78.1950  221.0110 C   0  0  0  0  0  0  0  0  0  0  0  0
  137.7680   79.2540  221.7660 C   0  0  0  0  0  0  0  0  0  0  0  0
  137.9260   79.1680  223.1600 C   0  0  0  0  0  0  0  0  0  0  0  0
  138.6030   80.1730  223.8570 C   0  0  0  0  0  0  0  0  0  0  0  0
  139.1230   81.2740  223.1710 C   0  0  0  0  0  0  0  0  0  0  0  0
  138.9620   81.3870  221.7770 C   0  0  0  0  0  0  0  0  0  0  0  0
  139.5550   82.5580  221.0320 C   0  0  0  0  0  0  0  0  0  0  0  0
  140.6910   83.0200  221.6790 F   0  0  0  0  0  0  0  0  0  0  0  0
  139.8970   82.1600  219.7480 F   0  0  0  0  0  0  0  0  0  0  0  0
  138.6450   83.6030  220.9550 F   0  0  0  0  0  0  0  0  0  0  0  0
  138.3120   80.3540  221.0780 C   0  0  0  0  0  0  0  0  0  0  0  0
  139.5900   76.7190  221.0290 N   0  0  0  0  0  0  0  0  0  0  0  0
  139.5300   75.5580  221.9420 C   0  0  0  0  0  0  0  0  0  0  0  0
  140.1240   74.2940  221.3330 C   0  0  0  0  0  0  0  0  0  0  0  0
  141.5150   74.5560  220.8460 C   0  0  0  0  0  0  0  0  0  0  0  0
  142.4620   73.5190  220.8470 C   0  0  0  0  0  0  0  0  0  0  0  0
  143.7390   73.7270  220.3190 C   0  0  0  0  0  0  0  0  0  0  0  0
  144.0710   74.9630  219.7630 C   0  0  0  0  0  0  0  0  0  0  0  0
  143.1290   75.9950  219.7430 C   0  0  0  0  0  0  0  0  0  0  0  0
  141.8490   75.8140  220.3080 C   0  0  0  0  0  0  0  0  0  0  0  0
  140.8100   76.9230  220.2070 C   0  0  2  0  0  0  0  0  0  0  0  0
  141.3960   78.2670  220.5570 C   0  0  0  0  0  0  0  0  0  0  0  0
  141.7210   79.2750  219.6490 C   0  0  0  0  0  0  0  0  0  0  0  0
  142.1540   80.3790  220.2990 N   0  0  0  0  0  0  0  0  0  0  0  0
  142.0990   80.0830  221.6120 C   0  0  0  0  0  0  0  0  0  0  0  0
  142.4280   80.9190  222.6790 C   0  0  0  0  0  0  0  0  0  0  0  0
  142.2800   80.4130  223.9850 C   0  0  0  0  0  0  0  0  0  0  0  0
  141.8190   79.0930  224.1930 C   0  0  0  0  0  0  0  0  0  0  0  0
  141.4960   78.2690  223.0970 C   0  0  0  0  0  0  0  0  0  0  0  0
  141.6420   78.8030  221.8120 C   0  0  0  0  0  0  0  0  0  0  0  0
  136.3665   78.6858  220.2617 H   0  0  0  0  0  0  0  0  0  0  0  0
  136.4070   77.6279  221.7395 H   0  0  0  0  0  0  0  0  0  0  0  0
  137.5149   78.3056  223.7052 H   0  0  0  0  0  0  0  0  0  0  0  0
  138.7267   80.0971  224.9474 H   0  0  0  0  0  0  0  0  0  0  0  0
  139.6617   82.0576  223.7240 H   0  0  0  0  0  0  0  0  0  0  0  0
  138.2281   80.4067  219.9825 H   0  0  0  0  0  0  0  0  0  0  0  0
  140.0883   75.8023  222.8578 H   0  0  0  0  0  0  0  0  0  0  0  0
  138.4690   75.3568  222.1511 H   0  0  0  0  0  0  0  0  0  0  0  0
  140.1497   73.5014  222.0953 H   0  0  0  0  0  0  0  0  0  0  0  0
  139.5007   73.9793  220.4830 H   0  0  0  0  0  0  0  0  0  0  0  0
  142.1970   72.5370  221.2660 H   0  0  0  0  0  0  0  0  0  0  0  0
  144.4824   72.9165  220.3417 H   0  0  0  0  0  0  0  0  0  0  0  0
  145.0737   75.1249  219.3407 H   0  0  0  0  0  0  0  0  0  0  0  0
  143.3884   76.9593  219.2816 H   0  0  0  0  0  0  0  0  0  0  0  0
  140.5010   76.8907  219.1518 H   0  0  0  0  0  0  0  0  0  0  0  0
  141.6367   79.1844  218.5560 H   0  0  0  0  0  0  0  0  0  0  0  0
  142.4580   81.2800  219.8660 H   0  0  0  0  0  0  0  0  0  0  0  0
  142.7920   81.9425  222.5057 H   0  0  0  0  0  0  0  0  0  0  0  0
  142.5247   81.0489  224.8485 H   0  0  0  0  0  0  0  0  0  0  0  0
  141.7118   78.7067  225.2173 H   0  0  0  0  0  0  0  0  0  0  0  0
  141.1404   77.2389  223.2466 H   0  0  0  0  0  0  0  0  0  0  0  0
  1  2  2  0
  2  3  2  0
  2  4  1  0
  4  5  1  0
  5  6  2  0
  6  7  1  0
  7  8  2  0
  8  9  1  0
  9 10  1  0
 10 11  1  0
 10 12  1  0
 10 13  1  0
  9 14  2  0
  2 15  1  0
 15 16  1  0
 16 17  1  0
 17 18  1  0
 18 19  2  0
 19 20  1  0
 20 21  2  0
 21 22  1  0
 22 23  2  0
 23 24  1  0
 24 25  1  0
 25 26  2  0
 26 27  1  0
 27 28  1  0
 28 29  2  0
 29 30  1  0
 30 31  2  0
 31 32  1  0
 32 33  2  0
 14  5  1  0
 24 15  1  0
 33 25  1  0
 23 18  1  0
 33 28  1  0
  4 34  1  0
  4 35  1  0
  6 36  1  0
  7 37  1  0
  8 38  1  0
 14 39  1  0
 16 40  1  0
 16 41  1  0
 17 42  1  0
 17 43  1  0
 19 44  1  0
 20 45  1  0
 21 46  1  0
 22 47  1  0
 24 48  1  6
 26 49  1  0
 27 50  1  0
 29 51  1  0
 30 52  1  0
 31 53  1  0
 32 54  1  0
M  END
>  <UniqueID>  (71) 
204

>  <SMILES>  (71) 
O=S(=O)(Cc1cccc(C(F)(F)F)c1)N1CCc2ccccc2[C@@H]1c1c[nH]c2ccccc12

>  <Energy>  (71) 
97.73264335478956

>  <Genealogy>  (71) 
O=S(=O)(Cc1cccc(C(F)(F)F)c1)N1CCc2ccccc2[C@@H]1c1c[nH]c2ccccc12 (3D coordinates assigned)
O=S(=O)(Cc1cccc(C(F)(F)F)c1)N1CCc2ccccc2[C@@H]1c1c[nH]c2ccccc12 (nonaromatic ring conformer: 97.73264335478956 kcal/mol)

>  <smiles>  (71) 
O=S(=O)(Cc1cccc(C(F)(F)F)c1)N1CCc2ccccc2[C@@H]1c1c[nH]c2ccccc12

>  <score_type>  (71) 
oracle

>  <origin>  (71) 
autodockgpu

>  <m_score__min__energy>  (71) 
-8.0600000000000005

>  <m_primary>  (71) 
energy

>  <meeko>  (71) 
{"free_energy": -6.67, "intermolecular_energy": -8.17, "internal_energy": -3.39, "cluster_size": 16, "cluster_id": 3, "rank_in_cluster": 12}

>  <energy>  (71) 
-6.68

>  <cluster_rmsd>  (71) 
0.08

>  <rmsd>  (71) 
270.92

>  <cluster>  (71) 
3

$$$$
GJSDZOHBAHKEKD-XMMPIXPANA-N
     RDKit          3D

 54 58  0  0  0  0  0  0  0  0999 V2000
  138.4820   82.6390  218.1980 O   0  0  0  0  0  0  0  0  0  0  0  0
  138.7380   81.4070  219.0200 S   0  0  0  0  0  0  0  0  0  0  0  0
  138.5540   80.2110  218.1280 O   0  0  0  0  0  0  0  0  0  0  0  0
  137.5170   81.3610  220.3400 C   0  0  0  0  0  0  0  0  0  0  0  0
  137.9860   80.5570  221.5260 C   0  0  0  0  0  0  0  0  0  0  0  0
  138.2470   81.1810  222.7590 C   0  0  0  0  0  0  0  0  0  0  0  0
  138.7180   80.4330  223.8420 C   0  0  0  0  0  0  0  0  0  0  0  0
  138.9350   79.0600  223.7050 C   0  0  0  0  0  0  0  0  0  0  0  0
  138.6940   78.4180  222.4760 C   0  0  0  0  0  0  0  0  0  0  0  0
  138.8950   76.9280  222.3390 C   0  0  0  0  0  0  0  0  0  0  0  0
  137.9890   76.2420  223.1320 F   0  0  0  0  0  0  0  0  0  0  0  0
  138.7070   76.5600  221.0160 F   0  0  0  0  0  0  0  0  0  0  0  0
  140.1760   76.5680  222.7330 F   0  0  0  0  0  0  0  0  0  0  0  0
  138.1860   79.1700  221.4010 C   0  0  0  0  0  0  0  0  0  0  0  0
  140.3960   81.4390  219.5870 N   0  0  0  0  0  0  0  0  0  0  0  0
  140.8190   82.7410  220.1430 C   0  0  0  0  0  0  0  0  0  0  0  0
  140.7610   82.7820  221.6650 C   0  0  0  0  0  0  0  0  0  0  0  0
  141.5370   81.6420  222.2460 C   0  0  0  0  0  0  0  0  0  0  0  0
  142.1590   81.7870  223.4970 C   0  0  0  0  0  0  0  0  0  0  0  0
  142.8160   80.7050  224.0890 C   0  0  0  0  0  0  0  0  0  0  0  0
  142.8360   79.4660  223.4490 C   0  0  0  0  0  0  0  0  0  0  0  0
  142.2050   79.3090  222.2120 C   0  0  0  0  0  0  0  0  0  0  0  0
  141.5720   80.4010  221.5830 C   0  0  0  0  0  0  0  0  0  0  0  0
  140.8220   80.1920  220.2740 C   0  0  2  0  0  0  0  0  0  0  0  0
  141.6250   79.3680  219.2980 C   0  0  0  0  0  0  0  0  0  0  0  0
  142.2690   79.8530  218.1600 C   0  0  0  0  0  0  0  0  0  0  0  0
  142.9600   78.8650  217.5480 N   0  0  0  0  0  0  0  0  0  0  0  0
  142.7650   77.7590  218.2920 C   0  0  0  0  0  0  0  0  0  0  0  0
  143.2970   76.4890  218.0680 C   0  0  0  0  0  0  0  0  0  0  0  0
  142.9790   75.4680  218.9860 C   0  0  0  0  0  0  0  0  0  0  0  0
  142.1380   75.7360  220.0900 C   0  0  0  0  0  0  0  0  0  0  0  0
  141.6120   77.0270  220.2900 C   0  0  0  0  0  0  0  0  0  0  0  0
  141.9560   78.0230  219.3690 C   0  0  0  0  0  0  0  0  0  0  0  0
  137.3130   82.3906  220.6691 H   0  0  0  0  0  0  0  0  0  0  0  0
  136.6112   80.8788  219.9437 H   0  0  0  0  0  0  0  0  0  0  0  0
  138.0798   82.2624  222.8717 H   0  0  0  0  0  0  0  0  0  0  0  0
  138.9182   80.9268  224.8043 H   0  0  0  0  0  0  0  0  0  0  0  0
  139.2970   78.4761  224.5641 H   0  0  0  0  0  0  0  0  0  0  0  0
  137.9426   78.6683  220.4528 H   0  0  0  0  0  0  0  0  0  0  0  0
  141.8534   82.9389  219.8256 H   0  0  0  0  0  0  0  0  0  0  0  0
  140.1222   83.5037  219.7652 H   0  0  0  0  0  0  0  0  0  0  0  0
  141.1905   83.7308  222.0189 H   0  0  0  0  0  0  0  0  0  0  0  0
  139.7118   82.7002  221.9851 H   0  0  0  0  0  0  0  0  0  0  0  0
  142.1288   82.7577  224.0136 H   0  0  0  0  0  0  0  0  0  0  0  0
  143.3175   80.8305  225.0600 H   0  0  0  0  0  0  0  0  0  0  0  0
  143.3482   78.6128  223.9177 H   0  0  0  0  0  0  0  0  0  0  0  0
  142.2020   78.3233  221.7238 H   0  0  0  0  0  0  0  0  0  0  0  0
  139.9099   79.6603  220.5826 H   0  0  0  0  0  0  0  0  0  0  0  0
  142.2214   80.8944  217.8091 H   0  0  0  0  0  0  0  0  0  0  0  0
  143.5350   78.9500  216.6800 H   0  0  0  0  0  0  0  0  0  0  0  0
  143.9448   76.2906  217.2014 H   0  0  0  0  0  0  0  0  0  0  0  0
  143.3876   74.4568  218.8425 H   0  0  0  0  0  0  0  0  0  0  0  0
  141.8926   74.9306  220.7979 H   0  0  0  0  0  0  0  0  0  0  0  0
  140.9521   77.2454  221.1425 H   0  0  0  0  0  0  0  0  0  0  0  0
  1  2  2  0
  2  3  2  0
  2  4  1  0
  4  5  1  0
  5  6  2  0
  6  7  1  0
  7  8  2  0
  8  9  1  0
  9 10  1  0
 10 11  1  0
 10 12  1  0
 10 13  1  0
  9 14  2  0
  2 15  1  0
 15 16  1  0
 16 17  1  0
 17 18  1  0
 18 19  2  0
 19 20  1  0
 20 21  2  0
 21 22  1  0
 22 23  2  0
 23 24  1  0
 24 25  1  0
 25 26  2  0
 26 27  1  0
 27 28  1  0
 28 29  2  0
 29 30  1  0
 30 31  2  0
 31 32  1  0
 32 33  2  0
 14  5  1  0
 24 15  1  0
 33 25  1  0
 23 18  1  0
 33 28  1  0
  4 34  1  0
  4 35  1  0
  6 36  1  0
  7 37  1  0
  8 38  1  0
 14 39  1  0
 16 40  1  0
 16 41  1  0
 17 42  1  0
 17 43  1  0
 19 44  1  0
 20 45  1  0
 21 46  1  0
 22 47  1  0
 24 48  1  1
 26 49  1  0
 27 50  1  0
 29 51  1  0
 30 52  1  0
 31 53  1  0
 32 54  1  0
M  END
>  <UniqueID>  (72) 
204

>  <SMILES>  (72) 
O=S(=O)(Cc1cccc(C(F)(F)F)c1)N1CCc2ccccc2[C@@H]1c1c[nH]c2ccccc12

>  <Energy>  (72) 
97.73264335478956

>  <Genealogy>  (72) 
O=S(=O)(Cc1cccc(C(F)(F)F)c1)N1CCc2ccccc2[C@@H]1c1c[nH]c2ccccc12 (3D coordinates assigned)
O=S(=O)(Cc1cccc(C(F)(F)F)c1)N1CCc2ccccc2[C@@H]1c1c[nH]c2ccccc12 (nonaromatic ring conformer: 97.73264335478956 kcal/mol)

>  <smiles>  (72) 
O=S(=O)(Cc1cccc(C(F)(F)F)c1)N1CCc2ccccc2[C@@H]1c1c[nH]c2ccccc12

>  <score_type>  (72) 
oracle

>  <origin>  (72) 
autodockgpu

>  <m_score__min__energy>  (72) 
-8.0600000000000005

>  <m_primary>  (72) 
energy

>  <meeko>  (72) 
{"free_energy": -6.9, "intermolecular_energy": -8.39, "internal_energy": -3.08, "cluster_size": 3, "cluster_id": 2, "rank_in_cluster": 2}

>  <energy>  (72) 
-6.68

>  <cluster_rmsd>  (72) 
0.05

>  <rmsd>  (72) 
270.9

>  <cluster>  (72) 
3

$$$$
GJSDZOHBAHKEKD-XMMPIXPANA-N
     RDKit          3D

 54 58  0  0  0  0  0  0  0  0999 V2000
  134.6390   68.0900  224.9110 O   0  0  0  0  0  0  0  0  0  0  0  0
  135.3730   69.3900  224.7350 S   0  0  0  0  0  0  0  0  0  0  0  0
  135.5480   70.0080  226.0940 O   0  0  0  0  0  0  0  0  0  0  0  0
  134.3520   70.4660  223.7170 C   0  0  0  0  0  0  0  0  0  0  0  0
  134.7540   71.9150  223.8340 C   0  0  0  0  0  0  0  0  0  0  0  0
  135.7370   72.4580  222.9890 C   0  0  0  0  0  0  0  0  0  0  0  0
  136.1300   73.7920  223.1300 C   0  0  0  0  0  0  0  0  0  0  0  0
  135.5490   74.5940  224.1160 C   0  0  0  0  0  0  0  0  0  0  0  0
  134.5740   74.0650  224.9830 C   0  0  0  0  0  0  0  0  0  0  0  0
  133.9220   74.9420  226.0240 C   0  0  0  0  0  0  0  0  0  0  0  0
  133.1030   75.8840  225.4220 F   0  0  0  0  0  0  0  0  0  0  0  0
  133.1570   74.1550  226.8730 F   0  0  0  0  0  0  0  0  0  0  0  0
  134.8800   75.6140  226.7700 F   0  0  0  0  0  0  0  0  0  0  0  0
  134.1570   72.7330  224.8120 C   0  0  0  0  0  0  0  0  0  0  0  0
  136.9550   69.0590  224.0560 N   0  0  0  0  0  0  0  0  0  0  0  0
  136.9320   68.6840  222.6270 C   0  0  0  0  0  0  0  0  0  0  0  0
  137.2640   69.8490  221.7030 C   0  0  0  0  0  0  0  0  0  0  0  0
  138.5640   70.4740  222.1010 C   0  0  0  0  0  0  0  0  0  0  0  0
  139.3740   71.0790  221.1260 C   0  0  0  0  0  0  0  0  0  0  0  0
  140.5500   71.7380  221.4940 C   0  0  0  0  0  0  0  0  0  0  0  0
  140.9110   71.8210  222.8390 C   0  0  0  0  0  0  0  0  0  0  0  0
  140.1010   71.2380  223.8170 C   0  0  0  0  0  0  0  0  0  0  0  0
  138.9320   70.5340  223.4580 C   0  0  0  0  0  0  0  0  0  0  0  0
  138.0220   69.9730  224.5420 C   0  0  2  0  0  0  0  0  0  0  0  0
  138.8060   69.2550  225.6110 C   0  0  0  0  0  0  0  0  0  0  0  0
  138.8860   67.8710  225.7700 C   0  0  0  0  0  0  0  0  0  0  0  0
  139.7310   67.5580  226.7790 N   0  0  0  0  0  0  0  0  0  0  0  0
  140.1920   68.7290  227.2550 C   0  0  0  0  0  0  0  0  0  0  0  0
  141.1100   68.9160  228.2900 C   0  0  0  0  0  0  0  0  0  0  0  0
  141.4730   70.2360  228.6210 C   0  0  0  0  0  0  0  0  0  0  0  0
  140.9110   71.3290  227.9230 C   0  0  0  0  0  0  0  0  0  0  0  0
  139.9840   71.1120  226.8850 C   0  0  0  0  0  0  0  0  0  0  0  0
  139.6520   69.7900  226.5700 C   0  0  0  0  0  0  0  0  0  0  0  0
  134.4493   70.1556  222.6662 H   0  0  0  0  0  0  0  0  0  0  0  0
  133.3135   70.3754  224.0681 H   0  0  0  0  0  0  0  0  0  0  0  0
  136.1993   71.8302  222.2130 H   0  0  0  0  0  0  0  0  0  0  0  0
  136.8981   74.2113  222.4636 H   0  0  0  0  0  0  0  0  0  0  0  0
  135.8555   75.6457  224.2154 H   0  0  0  0  0  0  0  0  0  0  0  0
  133.3570   72.3265  225.4482 H   0  0  0  0  0  0  0  0  0  0  0  0
  137.6689   67.8842  222.4621 H   0  0  0  0  0  0  0  0  0  0  0  0
  135.9100   68.3544  222.3886 H   0  0  0  0  0  0  0  0  0  0  0  0
  137.3396   69.4817  220.6689 H   0  0  0  0  0  0  0  0  0  0  0  0
  136.4668   70.6033  221.7779 H   0  0  0  0  0  0  0  0  0  0  0  0
  139.0810   71.0338  220.0667 H   0  0  0  0  0  0  0  0  0  0  0  0
  141.1909   72.1912  220.7234 H   0  0  0  0  0  0  0  0  0  0  0  0
  141.8333   72.3454  223.1296 H   0  0  0  0  0  0  0  0  0  0  0  0
  140.3775   71.3288  224.8778 H   0  0  0  0  0  0  0  0  0  0  0  0
  137.5272   70.8667  224.9500 H   0  0  0  0  0  0  0  0  0  0  0  0
  138.3386   67.1372  225.1602 H   0  0  0  0  0  0  0  0  0  0  0  0
  139.9800   66.5980  227.1100 H   0  0  0  0  0  0  0  0  0  0  0  0
  141.5369   68.0584  228.8306 H   0  0  0  0  0  0  0  0  0  0  0  0
  142.1984   70.4174  229.4278 H   0  0  0  0  0  0  0  0  0  0  0  0
  141.1994   72.3558  228.1922 H   0  0  0  0  0  0  0  0  0  0  0  0
  139.5353   71.9552  226.3394 H   0  0  0  0  0  0  0  0  0  0  0  0
  1  2  2  0
  2  3  2  0
  2  4  1  0
  4  5  1  0
  5  6  2  0
  6  7  1  0
  7  8  2  0
  8  9  1  0
  9 10  1  0
 10 11  1  0
 10 12  1  0
 10 13  1  0
  9 14  2  0
  2 15  1  0
 15 16  1  0
 16 17  1  0
 17 18  1  0
 18 19  2  0
 19 20  1  0
 20 21  2  0
 21 22  1  0
 22 23  2  0
 23 24  1  0
 24 25  1  0
 25 26  2  0
 26 27  1  0
 27 28  1  0
 28 29  2  0
 29 30  1  0
 30 31  2  0
 31 32  1  0
 32 33  2  0
 14  5  1  0
 24 15  1  0
 33 25  1  0
 23 18  1  0
 33 28  1  0
  4 34  1  0
  4 35  1  0
  6 36  1  0
  7 37  1  0
  8 38  1  0
 14 39  1  0
 16 40  1  0
 16 41  1  0
 17 42  1  0
 17 43  1  0
 19 44  1  0
 20 45  1  0
 21 46  1  0
 22 47  1  0
 24 48  1  1
 26 49  1  0
 27 50  1  0
 29 51  1  0
 30 52  1  0
 31 53  1  0
 32 54  1  0
M  END
>  <UniqueID>  (73) 
204

>  <SMILES>  (73) 
O=S(=O)(Cc1cccc(C(F)(F)F)c1)N1CCc2ccccc2[C@@H]1c1c[nH]c2ccccc12

>  <Energy>  (73) 
97.73264335478956

>  <Genealogy>  (73) 
O=S(=O)(Cc1cccc(C(F)(F)F)c1)N1CCc2ccccc2[C@@H]1c1c[nH]c2ccccc12 (3D coordinates assigned)
O=S(=O)(Cc1cccc(C(F)(F)F)c1)N1CCc2ccccc2[C@@H]1c1c[nH]c2ccccc12 (nonaromatic ring conformer: 97.73264335478956 kcal/mol)

>  <smiles>  (73) 
O=S(=O)(Cc1cccc(C(F)(F)F)c1)N1CCc2ccccc2[C@@H]1c1c[nH]c2ccccc12

>  <score_type>  (73) 
oracle

>  <origin>  (73) 
autodockgpu

>  <m_score__min__energy>  (73) 
-8.0600000000000005

>  <m_primary>  (73) 
energy

>  <meeko>  (73) 
{"free_energy": -8.06, "intermolecular_energy": -9.55, "internal_energy": -2.2, "cluster_size": 1, "cluster_id": 1, "rank_in_cluster": 1}

>  <energy>  (73) 
-6.68

>  <cluster_rmsd>  (73) 
0.06

>  <rmsd>  (73) 
270.9

>  <cluster>  (73) 
3

$$$$
GJSDZOHBAHKEKD-XMMPIXPANA-N
     RDKit          3D

 54 58  0  0  0  0  0  0  0  0999 V2000
  138.3970   77.5640  218.8340 O   0  0  0  0  0  0  0  0  0  0  0  0
  138.0860   77.0100  220.1950 S   0  0  0  0  0  0  0  0  0  0  0  0
  137.3620   75.7060  220.0080 O   0  0  0  0  0  0  0  0  0  0  0  0
  137.0050   78.1790  221.0330 C   0  0  0  0  0  0  0  0  0  0  0  0
  137.7750   79.2490  221.7640 C   0  0  0  0  0  0  0  0  0  0  0  0
  137.9450   79.1870  223.1580 C   0  0  0  0  0  0  0  0  0  0  0  0
  138.6280   80.2040  223.8320 C   0  0  0  0  0  0  0  0  0  0  0  0
  139.1450   81.2910  223.1230 C   0  0  0  0  0  0  0  0  0  0  0  0
  138.9730   81.3800  221.7290 C   0  0  0  0  0  0  0  0  0  0  0  0
  139.5630   82.5370  220.9590 C   0  0  0  0  0  0  0  0  0  0  0  0
  138.6390   83.5630  220.8400 F   0  0  0  0  0  0  0  0  0  0  0  0
  140.6810   83.0100  221.6280 F   0  0  0  0  0  0  0  0  0  0  0  0
  139.9340   82.1380  219.6830 F   0  0  0  0  0  0  0  0  0  0  0  0
  138.3170   80.3360  221.0520 C   0  0  0  0  0  0  0  0  0  0  0  0
  139.5910   76.7040  221.0400 N   0  0  0  0  0  0  0  0  0  0  0  0
  139.5430   75.5490  221.9610 C   0  0  0  0  0  0  0  0  0  0  0  0
  140.1350   74.2820  221.3550 C   0  0  0  0  0  0  0  0  0  0  0  0
  141.5200   74.5440  220.8530 C   0  0  0  0  0  0  0  0  0  0  0  0
  142.4690   73.5090  220.8520 C   0  0  0  0  0  0  0  0  0  0  0  0
  143.7400   73.7170  220.3090 C   0  0  0  0  0  0  0  0  0  0  0  0
  144.0640   74.9500  219.7420 C   0  0  0  0  0  0  0  0  0  0  0  0
  143.1190   75.9790  219.7230 C   0  0  0  0  0  0  0  0  0  0  0  0
  141.8460   75.7990  220.3030 C   0  0  0  0  0  0  0  0  0  0  0  0
  140.8030   76.9040  220.2040 C   0  0  2  0  0  0  0  0  0  0  0  0
  141.3890   78.2530  220.5390 C   0  0  0  0  0  0  0  0  0  0  0  0
  141.7060   79.2540  219.6200 C   0  0  0  0  0  0  0  0  0  0  0  0
  142.1410   80.3630  220.2590 N   0  0  0  0  0  0  0  0  0  0  0  0
  142.0960   80.0780  221.5740 C   0  0  0  0  0  0  0  0  0  0  0  0
  142.4320   80.9240  222.6320 C   0  0  0  0  0  0  0  0  0  0  0  0
  142.2940   80.4270  223.9430 C   0  0  0  0  0  0  0  0  0  0  0  0
  141.8370   79.1090  224.1650 C   0  0  0  0  0  0  0  0  0  0  0  0
  141.5080   78.2760  223.0780 C   0  0  0  0  0  0  0  0  0  0  0  0
  141.6430   78.7990  221.7880 C   0  0  0  0  0  0  0  0  0  0  0  0
  136.3559   78.6586  220.2856 H   0  0  0  0  0  0  0  0  0  0  0  0
  136.4177   77.6202  221.7765 H   0  0  0  0  0  0  0  0  0  0  0  0
  137.5387   78.3341  223.7214 H   0  0  0  0  0  0  0  0  0  0  0  0
  138.7585   80.1480  224.9228 H   0  0  0  0  0  0  0  0  0  0  0  0
  139.6902   82.0827  223.6578 H   0  0  0  0  0  0  0  0  0  0  0  0
  138.2266   80.3691  219.9562 H   0  0  0  0  0  0  0  0  0  0  0  0
  140.1092   75.8010  222.8698 H   0  0  0  0  0  0  0  0  0  0  0  0
  138.4845   75.3462  222.1811 H   0  0  0  0  0  0  0  0  0  0  0  0
  140.1702   73.4949  222.1226 H   0  0  0  0  0  0  0  0  0  0  0  0
  139.5045   73.9598  220.5132 H   0  0  0  0  0  0  0  0  0  0  0  0
  142.2108   72.5295  221.2808 H   0  0  0  0  0  0  0  0  0  0  0  0
  144.4853   72.9082  220.3287 H   0  0  0  0  0  0  0  0  0  0  0  0
  145.0627   75.1118  219.3103 H   0  0  0  0  0  0  0  0  0  0  0  0
  143.3706   76.9400  219.2506 H   0  0  0  0  0  0  0  0  0  0  0  0
  140.4839   76.8619  219.1521 H   0  0  0  0  0  0  0  0  0  0  0  0
  141.6147   79.1546  218.5283 H   0  0  0  0  0  0  0  0  0  0  0  0
  142.4400   81.2620  219.8160 H   0  0  0  0  0  0  0  0  0  0  0  0
  142.7932   81.9466  222.4480 H   0  0  0  0  0  0  0  0  0  0  0  0
  142.5439   81.0699  224.7999 H   0  0  0  0  0  0  0  0  0  0  0  0
  141.7375   78.7309  225.1932 H   0  0  0  0  0  0  0  0  0  0  0  0
  141.1559   77.2463  223.2387 H   0  0  0  0  0  0  0  0  0  0  0  0
  1  2  2  0
  2  3  2  0
  2  4  1  0
  4  5  1  0
  5  6  2  0
  6  7  1  0
  7  8  2  0
  8  9  1  0
  9 10  1  0
 10 11  1  0
 10 12  1  0
 10 13  1  0
  9 14  2  0
  2 15  1  0
 15 16  1  0
 16 17  1  0
 17 18  1  0
 18 19  2  0
 19 20  1  0
 20 21  2  0
 21 22  1  0
 22 23  2  0
 23 24  1  0
 24 25  1  0
 25 26  2  0
 26 27  1  0
 27 28  1  0
 28 29  2  0
 29 30  1  0
 30 31  2  0
 31 32  1  0
 32 33  2  0
 14  5  1  0
 24 15  1  0
 33 25  1  0
 23 18  1  0
 33 28  1  0
  4 34  1  0
  4 35  1  0
  6 36  1  0
  7 37  1  0
  8 38  1  0
 14 39  1  0
 16 40  1  0
 16 41  1  0
 17 42  1  0
 17 43  1  0
 19 44  1  0
 20 45  1  0
 21 46  1  0
 22 47  1  0
 24 48  1  6
 26 49  1  0
 27 50  1  0
 29 51  1  0
 30 52  1  0
 31 53  1  0
 32 54  1  0
M  END
>  <UniqueID>  (74) 
204

>  <SMILES>  (74) 
O=S(=O)(Cc1cccc(C(F)(F)F)c1)N1CCc2ccccc2[C@@H]1c1c[nH]c2ccccc12

>  <Energy>  (74) 
97.73264335478956

>  <Genealogy>  (74) 
O=S(=O)(Cc1cccc(C(F)(F)F)c1)N1CCc2ccccc2[C@@H]1c1c[nH]c2ccccc12 (3D coordinates assigned)
O=S(=O)(Cc1cccc(C(F)(F)F)c1)N1CCc2ccccc2[C@@H]1c1c[nH]c2ccccc12 (nonaromatic ring conformer: 97.73264335478956 kcal/mol)

>  <smiles>  (74) 
O=S(=O)(Cc1cccc(C(F)(F)F)c1)N1CCc2ccccc2[C@@H]1c1c[nH]c2ccccc12

>  <score_type>  (74) 
oracle

>  <origin>  (74) 
autodockgpu

>  <m_score__min__energy>  (74) 
-8.0600000000000005

>  <m_primary>  (74) 
energy

>  <meeko>  (74) 
{"free_energy": -6.66, "intermolecular_energy": -8.15, "internal_energy": -3.39, "cluster_size": 16, "cluster_id": 3, "rank_in_cluster": 15}

>  <energy>  (74) 
-6.67

>  <cluster_rmsd>  (74) 
0.06

>  <rmsd>  (74) 
270.93

>  <cluster>  (74) 
3

$$$$
GJSDZOHBAHKEKD-XMMPIXPANA-N
     RDKit          3D

 54 58  0  0  0  0  0  0  0  0999 V2000
  138.3910   77.5960  218.9320 O   0  0  0  0  0  0  0  0  0  0  0  0
  138.1050   76.9920  220.2780 S   0  0  0  0  0  0  0  0  0  0  0  0
  137.3990   75.6840  220.0550 O   0  0  0  0  0  0  0  0  0  0  0  0
  137.0150   78.1150  221.1660 C   0  0  0  0  0  0  0  0  0  0  0  0
  137.7730   79.2150  221.8660 C   0  0  0  0  0  0  0  0  0  0  0  0
  137.9340   79.2000  223.2620 C   0  0  0  0  0  0  0  0  0  0  0  0
  138.6050   80.2430  223.9060 C   0  0  0  0  0  0  0  0  0  0  0  0
  139.1190   81.3100  223.1650 C   0  0  0  0  0  0  0  0  0  0  0  0
  138.9550   81.3530  221.7680 C   0  0  0  0  0  0  0  0  0  0  0  0
  139.5410   82.4880  220.9640 C   0  0  0  0  0  0  0  0  0  0  0  0
  138.6230   83.5180  220.8370 F   0  0  0  0  0  0  0  0  0  0  0  0
  140.6730   82.9670  221.6050 F   0  0  0  0  0  0  0  0  0  0  0  0
  139.8890   82.0590  219.6910 F   0  0  0  0  0  0  0  0  0  0  0  0
  138.3110   80.2810  221.1220 C   0  0  0  0  0  0  0  0  0  0  0  0
  139.6240   76.6820  221.0950 N   0  0  0  0  0  0  0  0  0  0  0  0
  139.5920   75.5230  222.0090 C   0  0  0  0  0  0  0  0  0  0  0  0
  140.1750   74.2600  221.3870 C   0  0  0  0  0  0  0  0  0  0  0  0
  141.5510   74.5260  220.8630 C   0  0  0  0  0  0  0  0  0  0  0  0
  142.5010   73.4920  220.8390 C   0  0  0  0  0  0  0  0  0  0  0  0
  143.7620   73.7040  220.2770 C   0  0  0  0  0  0  0  0  0  0  0  0
  144.0750   74.9400  219.7110 C   0  0  0  0  0  0  0  0  0  0  0  0
  143.1300   75.9690  219.7140 C   0  0  0  0  0  0  0  0  0  0  0  0
  141.8660   75.7840  220.3140 C   0  0  0  0  0  0  0  0  0  0  0  0
  140.8220   76.8890  220.2390 C   0  0  2  0  0  0  0  0  0  0  0  0
  141.4120   78.2360  220.5720 C   0  0  0  0  0  0  0  0  0  0  0  0
  141.7460   79.2280  219.6500 C   0  0  0  0  0  0  0  0  0  0  0  0
  142.1810   80.3400  220.2860 N   0  0  0  0  0  0  0  0  0  0  0  0
  142.1180   80.0640  221.6030 C   0  0  0  0  0  0  0  0  0  0  0  0
  142.4470   80.9150  222.6590 C   0  0  0  0  0  0  0  0  0  0  0  0
  142.2900   80.4290  223.9720 C   0  0  0  0  0  0  0  0  0  0  0  0
  141.8210   79.1150  224.1980 C   0  0  0  0  0  0  0  0  0  0  0  0
  141.5000   78.2760  223.1120 C   0  0  0  0  0  0  0  0  0  0  0  0
  141.6540   78.7900  221.8200 C   0  0  0  0  0  0  0  0  0  0  0  0
  136.3147   78.5688  220.4492 H   0  0  0  0  0  0  0  0  0  0  0  0
  136.4838   77.5320  221.9328 H   0  0  0  0  0  0  0  0  0  0  0  0
  137.5299   78.3632  223.8506 H   0  0  0  0  0  0  0  0  0  0  0  0
  138.7287   80.2238  224.9989 H   0  0  0  0  0  0  0  0  0  0  0  0
  139.6557   82.1222  223.6771 H   0  0  0  0  0  0  0  0  0  0  0  0
  138.2276   80.2767  220.0252 H   0  0  0  0  0  0  0  0  0  0  0  0
  140.1725   75.7706  222.9099 H   0  0  0  0  0  0  0  0  0  0  0  0
  138.5373   75.3179  222.2447 H   0  0  0  0  0  0  0  0  0  0  0  0
  140.2240   73.4692  222.1500 H   0  0  0  0  0  0  0  0  0  0  0  0
  139.5307   73.9413  220.5543 H   0  0  0  0  0  0  0  0  0  0  0  0
  142.2506   72.5094  221.2653 H   0  0  0  0  0  0  0  0  0  0  0  0
  144.5085   72.8961  220.2807 H   0  0  0  0  0  0  0  0  0  0  0  0
  145.0658   75.1044  219.2624 H   0  0  0  0  0  0  0  0  0  0  0  0
  143.3736   76.9332  219.2439 H   0  0  0  0  0  0  0  0  0  0  0  0
  140.4860   76.8542  219.1922 H   0  0  0  0  0  0  0  0  0  0  0  0
  141.6668   79.1210  218.5581 H   0  0  0  0  0  0  0  0  0  0  0  0
  142.4910   81.2340  219.8410 H   0  0  0  0  0  0  0  0  0  0  0  0
  142.8175   81.9337  222.4720 H   0  0  0  0  0  0  0  0  0  0  0  0
  142.5341   81.0766  224.8270 H   0  0  0  0  0  0  0  0  0  0  0  0
  141.7059   78.7450  225.2275 H   0  0  0  0  0  0  0  0  0  0  0  0
  141.1398   77.2495  223.2751 H   0  0  0  0  0  0  0  0  0  0  0  0
  1  2  2  0
  2  3  2  0
  2  4  1  0
  4  5  1  0
  5  6  2  0
  6  7  1  0
  7  8  2  0
  8  9  1  0
  9 10  1  0
 10 11  1  0
 10 12  1  0
 10 13  1  0
  9 14  2  0
  2 15  1  0
 15 16  1  0
 16 17  1  0
 17 18  1  0
 18 19  2  0
 19 20  1  0
 20 21  2  0
 21 22  1  0
 22 23  2  0
 23 24  1  0
 24 25  1  0
 25 26  2  0
 26 27  1  0
 27 28  1  0
 28 29  2  0
 29 30  1  0
 30 31  2  0
 31 32  1  0
 32 33  2  0
 14  5  1  0
 24 15  1  0
 33 25  1  0
 23 18  1  0
 33 28  1  0
  4 34  1  0
  4 35  1  0
  6 36  1  0
  7 37  1  0
  8 38  1  0
 14 39  1  0
 16 40  1  0
 16 41  1  0
 17 42  1  0
 17 43  1  0
 19 44  1  0
 20 45  1  0
 21 46  1  0
 22 47  1  0
 24 48  1  6
 26 49  1  0
 27 50  1  0
 29 51  1  0
 30 52  1  0
 31 53  1  0
 32 54  1  0
M  END
>  <UniqueID>  (75) 
204

>  <SMILES>  (75) 
O=S(=O)(Cc1cccc(C(F)(F)F)c1)N1CCc2ccccc2[C@@H]1c1c[nH]c2ccccc12

>  <Energy>  (75) 
97.73264335478956

>  <Genealogy>  (75) 
O=S(=O)(Cc1cccc(C(F)(F)F)c1)N1CCc2ccccc2[C@@H]1c1c[nH]c2ccccc12 (3D coordinates assigned)
O=S(=O)(Cc1cccc(C(F)(F)F)c1)N1CCc2ccccc2[C@@H]1c1c[nH]c2ccccc12 (nonaromatic ring conformer: 97.73264335478956 kcal/mol)

>  <smiles>  (75) 
O=S(=O)(Cc1cccc(C(F)(F)F)c1)N1CCc2ccccc2[C@@H]1c1c[nH]c2ccccc12

>  <score_type>  (75) 
oracle

>  <origin>  (75) 
autodockgpu

>  <m_score__min__energy>  (75) 
-8.0600000000000005

>  <m_primary>  (75) 
energy

>  <meeko>  (75) 
{"free_energy": -6.67, "intermolecular_energy": -8.17, "internal_energy": -3.39, "cluster_size": 16, "cluster_id": 3, "rank_in_cluster": 11}

>  <energy>  (75) 
-6.67

>  <cluster_rmsd>  (75) 
0.09

>  <rmsd>  (75) 
270.92

>  <cluster>  (75) 
3

$$$$
GJSDZOHBAHKEKD-XMMPIXPANA-N
     RDKit          3D

 54 58  0  0  0  0  0  0  0  0999 V2000
  138.3830   77.5500  218.9340 O   0  0  0  0  0  0  0  0  0  0  0  0
  138.1030   76.9800  220.2960 S   0  0  0  0  0  0  0  0  0  0  0  0
  137.3830   75.6740  220.1090 O   0  0  0  0  0  0  0  0  0  0  0  0
  137.0310   78.1330  221.1660 C   0  0  0  0  0  0  0  0  0  0  0  0
  137.8060   79.2290  221.8530 C   0  0  0  0  0  0  0  0  0  0  0  0
  137.9880   79.2150  223.2470 C   0  0  0  0  0  0  0  0  0  0  0  0
  138.6760   80.2550  223.8790 C   0  0  0  0  0  0  0  0  0  0  0  0
  139.1840   81.3180  223.1280 C   0  0  0  0  0  0  0  0  0  0  0  0
  138.9990   81.3600  221.7330 C   0  0  0  0  0  0  0  0  0  0  0  0
  139.5790   82.4900  220.9190 C   0  0  0  0  0  0  0  0  0  0  0  0
  138.6530   83.5110  220.7750 F   0  0  0  0  0  0  0  0  0  0  0  0
  140.7040   82.9870  221.5600 F   0  0  0  0  0  0  0  0  0  0  0  0
  139.9370   82.0490  219.6530 F   0  0  0  0  0  0  0  0  0  0  0  0
  138.3380   80.2910  221.1000 C   0  0  0  0  0  0  0  0  0  0  0  0
  139.6260   76.6750  221.1070 N   0  0  0  0  0  0  0  0  0  0  0  0
  139.5990   75.5190  222.0270 C   0  0  0  0  0  0  0  0  0  0  0  0
  140.1800   74.2540  221.4070 C   0  0  0  0  0  0  0  0  0  0  0  0
  141.5540   74.5190  220.8760 C   0  0  0  0  0  0  0  0  0  0  0  0
  142.5050   73.4860  220.8520 C   0  0  0  0  0  0  0  0  0  0  0  0
  143.7630   73.6960  220.2830 C   0  0  0  0  0  0  0  0  0  0  0  0
  144.0730   74.9310  219.7110 C   0  0  0  0  0  0  0  0  0  0  0  0
  143.1260   75.9590  219.7150 C   0  0  0  0  0  0  0  0  0  0  0  0
  141.8660   75.7750  220.3210 C   0  0  0  0  0  0  0  0  0  0  0  0
  140.8200   76.8790  220.2460 C   0  0  2  0  0  0  0  0  0  0  0  0
  141.4100   78.2280  220.5710 C   0  0  0  0  0  0  0  0  0  0  0  0
  141.7400   79.2160  219.6430 C   0  0  0  0  0  0  0  0  0  0  0  0
  142.1760   80.3310  220.2730 N   0  0  0  0  0  0  0  0  0  0  0  0
  142.1190   80.0610  221.5900 C   0  0  0  0  0  0  0  0  0  0  0  0
  142.4510   80.9170  222.6410 C   0  0  0  0  0  0  0  0  0  0  0  0
  142.2990   80.4360  223.9570 C   0  0  0  0  0  0  0  0  0  0  0  0
  141.8330   79.1230  224.1900 C   0  0  0  0  0  0  0  0  0  0  0  0
  141.5080   78.2790  223.1100 C   0  0  0  0  0  0  0  0  0  0  0  0
  141.6570   78.7870  221.8150 C   0  0  0  0  0  0  0  0  0  0  0  0
  136.3402   78.5891  220.4415 H   0  0  0  0  0  0  0  0  0  0  0  0
  136.4883   77.5695  221.9393 H   0  0  0  0  0  0  0  0  0  0  0  0
  137.5872   78.3819  223.8431 H   0  0  0  0  0  0  0  0  0  0  0  0
  138.8176   80.2364  224.9697 H   0  0  0  0  0  0  0  0  0  0  0  0
  139.7327   82.1282  223.6305 H   0  0  0  0  0  0  0  0  0  0  0  0
  138.2364   80.2860  220.0047 H   0  0  0  0  0  0  0  0  0  0  0  0
  140.1837   75.7707  222.9241 H   0  0  0  0  0  0  0  0  0  0  0  0
  138.5457   75.3143  222.2690 H   0  0  0  0  0  0  0  0  0  0  0  0
  140.2327   73.4659  222.1726 H   0  0  0  0  0  0  0  0  0  0  0  0
  139.5323   73.9319  220.5783 H   0  0  0  0  0  0  0  0  0  0  0  0
  142.2575   72.5052  221.2841 H   0  0  0  0  0  0  0  0  0  0  0  0
  144.5096   72.8882  220.2856 H   0  0  0  0  0  0  0  0  0  0  0  0
  145.0617   75.0950  219.2575 H   0  0  0  0  0  0  0  0  0  0  0  0
  143.3661   76.9218  219.2404 H   0  0  0  0  0  0  0  0  0  0  0  0
  140.4797   76.8389  219.2007 H   0  0  0  0  0  0  0  0  0  0  0  0
  141.6573   79.1041  218.5518 H   0  0  0  0  0  0  0  0  0  0  0  0
  142.4840   81.2230  219.8230 H   0  0  0  0  0  0  0  0  0  0  0  0
  142.8198   81.9353  222.4483 H   0  0  0  0  0  0  0  0  0  0  0  0
  142.5449   81.0875  224.8085 H   0  0  0  0  0  0  0  0  0  0  0  0
  141.7232   78.7572  225.2216 H   0  0  0  0  0  0  0  0  0  0  0  0
  141.1485   77.2533  223.2794 H   0  0  0  0  0  0  0  0  0  0  0  0
  1  2  2  0
  2  3  2  0
  2  4  1  0
  4  5  1  0
  5  6  2  0
  6  7  1  0
  7  8  2  0
  8  9  1  0
  9 10  1  0
 10 11  1  0
 10 12  1  0
 10 13  1  0
  9 14  2  0
  2 15  1  0
 15 16  1  0
 16 17  1  0
 17 18  1  0
 18 19  2  0
 19 20  1  0
 20 21  2  0
 21 22  1  0
 22 23  2  0
 23 24  1  0
 24 25  1  0
 25 26  2  0
 26 27  1  0
 27 28  1  0
 28 29  2  0
 29 30  1  0
 30 31  2  0
 31 32  1  0
 32 33  2  0
 14  5  1  0
 24 15  1  0
 33 25  1  0
 23 18  1  0
 33 28  1  0
  4 34  1  0
  4 35  1  0
  6 36  1  0
  7 37  1  0
  8 38  1  0
 14 39  1  0
 16 40  1  0
 16 41  1  0
 17 42  1  0
 17 43  1  0
 19 44  1  0
 20 45  1  0
 21 46  1  0
 22 47  1  0
 24 48  1  6
 26 49  1  0
 27 50  1  0
 29 51  1  0
 30 52  1  0
 31 53  1  0
 32 54  1  0
M  END
>  <UniqueID>  (76) 
204

>  <SMILES>  (76) 
O=S(=O)(Cc1cccc(C(F)(F)F)c1)N1CCc2ccccc2[C@@H]1c1c[nH]c2ccccc12

>  <Energy>  (76) 
97.73264335478956

>  <Genealogy>  (76) 
O=S(=O)(Cc1cccc(C(F)(F)F)c1)N1CCc2ccccc2[C@@H]1c1c[nH]c2ccccc12 (3D coordinates assigned)
O=S(=O)(Cc1cccc(C(F)(F)F)c1)N1CCc2ccccc2[C@@H]1c1c[nH]c2ccccc12 (nonaromatic ring conformer: 97.73264335478956 kcal/mol)

>  <smiles>  (76) 
O=S(=O)(Cc1cccc(C(F)(F)F)c1)N1CCc2ccccc2[C@@H]1c1c[nH]c2ccccc12

>  <score_type>  (76) 
oracle

>  <origin>  (76) 
autodockgpu

>  <m_score__min__energy>  (76) 
-8.0600000000000005

>  <m_primary>  (76) 
energy

>  <meeko>  (76) 
{"free_energy": -6.68, "intermolecular_energy": -8.18, "internal_energy": -3.37, "cluster_size": 16, "cluster_id": 3, "rank_in_cluster": 7}

>  <energy>  (76) 
-6.67

>  <cluster_rmsd>  (76) 
0.08

>  <rmsd>  (76) 
270.91

>  <cluster>  (76) 
3

$$$$
GJSDZOHBAHKEKD-XMMPIXPANA-N
     RDKit          3D

 54 58  0  0  0  0  0  0  0  0999 V2000
  138.4160   77.5850  218.8650 O   0  0  0  0  0  0  0  0  0  0  0  0
  138.1170   77.0120  220.2220 S   0  0  0  0  0  0  0  0  0  0  0  0
  137.3980   75.7070  220.0220 O   0  0  0  0  0  0  0  0  0  0  0  0
  137.0340   78.1650  221.0790 C   0  0  0  0  0  0  0  0  0  0  0  0
  137.8010   79.2470  221.7950 C   0  0  0  0  0  0  0  0  0  0  0  0
  137.9770   79.2010  223.1890 C   0  0  0  0  0  0  0  0  0  0  0  0
  138.6580   80.2290  223.8480 C   0  0  0  0  0  0  0  0  0  0  0  0
  139.1650   81.3120  223.1250 C   0  0  0  0  0  0  0  0  0  0  0  0
  138.9850   81.3850  221.7310 C   0  0  0  0  0  0  0  0  0  0  0  0
  139.5640   82.5370  220.9460 C   0  0  0  0  0  0  0  0  0  0  0  0
  138.6360   83.5590  220.8260 F   0  0  0  0  0  0  0  0  0  0  0  0
  140.6860   83.0210  221.6020 F   0  0  0  0  0  0  0  0  0  0  0  0
  139.9270   82.1280  219.6700 F   0  0  0  0  0  0  0  0  0  0  0  0
  138.3320   80.3290  221.0690 C   0  0  0  0  0  0  0  0  0  0  0  0
  139.6280   76.7040  221.0540 N   0  0  0  0  0  0  0  0  0  0  0  0
  139.5870   75.5470  221.9720 C   0  0  0  0  0  0  0  0  0  0  0  0
  140.1750   74.2830  221.3590 C   0  0  0  0  0  0  0  0  0  0  0  0
  141.5560   74.5470  220.8460 C   0  0  0  0  0  0  0  0  0  0  0  0
  142.5060   73.5120  220.8350 C   0  0  0  0  0  0  0  0  0  0  0  0
  143.7720   73.7210  220.2830 C   0  0  0  0  0  0  0  0  0  0  0  0
  144.0910   74.9560  219.7170 C   0  0  0  0  0  0  0  0  0  0  0  0
  143.1460   75.9850  219.7080 C   0  0  0  0  0  0  0  0  0  0  0  0
  141.8770   75.8020  220.2970 C   0  0  0  0  0  0  0  0  0  0  0  0
  140.8330   76.9080  220.2090 C   0  0  2  0  0  0  0  0  0  0  0  0
  141.4210   78.2560  220.5430 C   0  0  0  0  0  0  0  0  0  0  0  0
  141.7520   79.2500  219.6220 C   0  0  0  0  0  0  0  0  0  0  0  0
  142.1850   80.3620  220.2600 N   0  0  0  0  0  0  0  0  0  0  0  0
  142.1250   80.0840  221.5760 C   0  0  0  0  0  0  0  0  0  0  0  0
  142.4530   80.9340  222.6330 C   0  0  0  0  0  0  0  0  0  0  0  0
  142.2990   80.4450  223.9450 C   0  0  0  0  0  0  0  0  0  0  0  0
  141.8340   79.1290  224.1690 C   0  0  0  0  0  0  0  0  0  0  0  0
  141.5130   78.2920  223.0830 C   0  0  0  0  0  0  0  0  0  0  0  0
  141.6640   78.8080  221.7920 C   0  0  0  0  0  0  0  0  0  0  0  0
  136.3640   78.6341  220.3434 H   0  0  0  0  0  0  0  0  0  0  0  0
  136.4689   77.5980  221.8335 H   0  0  0  0  0  0  0  0  0  0  0  0
  137.5772   78.3526  223.7637 H   0  0  0  0  0  0  0  0  0  0  0  0
  138.7951   80.1851  224.9386 H   0  0  0  0  0  0  0  0  0  0  0  0
  139.7082   82.1125  223.6486 H   0  0  0  0  0  0  0  0  0  0  0  0
  138.2357   80.3495  219.9734 H   0  0  0  0  0  0  0  0  0  0  0  0
  140.1593   75.7970  222.8775 H   0  0  0  0  0  0  0  0  0  0  0  0
  138.5302   75.3430  222.1990 H   0  0  0  0  0  0  0  0  0  0  0  0
  140.2172   73.4943  222.1247 H   0  0  0  0  0  0  0  0  0  0  0  0
  139.5380   73.9623  220.5215 H   0  0  0  0  0  0  0  0  0  0  0  0
  142.2514   72.5314  221.2636 H   0  0  0  0  0  0  0  0  0  0  0  0
  144.5174   72.9122  220.2945 H   0  0  0  0  0  0  0  0  0  0  0  0
  145.0863   75.1193  219.2780 H   0  0  0  0  0  0  0  0  0  0  0  0
  143.3938   76.9476  219.2369 H   0  0  0  0  0  0  0  0  0  0  0  0
  140.5060   76.8702  219.1594 H   0  0  0  0  0  0  0  0  0  0  0  0
  141.6722   79.1446  218.5300 H   0  0  0  0  0  0  0  0  0  0  0  0
  142.4930   81.2570  219.8160 H   0  0  0  0  0  0  0  0  0  0  0  0
  142.8204   81.9541  222.4474 H   0  0  0  0  0  0  0  0  0  0  0  0
  142.5422   81.0916  224.8010 H   0  0  0  0  0  0  0  0  0  0  0  0
  141.7222   78.7565  225.1980 H   0  0  0  0  0  0  0  0  0  0  0  0
  141.1548   77.2647  223.2450 H   0  0  0  0  0  0  0  0  0  0  0  0
  1  2  2  0
  2  3  2  0
  2  4  1  0
  4  5  1  0
  5  6  2  0
  6  7  1  0
  7  8  2  0
  8  9  1  0
  9 10  1  0
 10 11  1  0
 10 12  1  0
 10 13  1  0
  9 14  2  0
  2 15  1  0
 15 16  1  0
 16 17  1  0
 17 18  1  0
 18 19  2  0
 19 20  1  0
 20 21  2  0
 21 22  1  0
 22 23  2  0
 23 24  1  0
 24 25  1  0
 25 26  2  0
 26 27  1  0
 27 28  1  0
 28 29  2  0
 29 30  1  0
 30 31  2  0
 31 32  1  0
 32 33  2  0
 14  5  1  0
 24 15  1  0
 33 25  1  0
 23 18  1  0
 33 28  1  0
  4 34  1  0
  4 35  1  0
  6 36  1  0
  7 37  1  0
  8 38  1  0
 14 39  1  0
 16 40  1  0
 16 41  1  0
 17 42  1  0
 17 43  1  0
 19 44  1  0
 20 45  1  0
 21 46  1  0
 22 47  1  0
 24 48  1  6
 26 49  1  0
 27 50  1  0
 29 51  1  0
 30 52  1  0
 31 53  1  0
 32 54  1  0
M  END
>  <UniqueID>  (77) 
204

>  <SMILES>  (77) 
O=S(=O)(Cc1cccc(C(F)(F)F)c1)N1CCc2ccccc2[C@@H]1c1c[nH]c2ccccc12

>  <Energy>  (77) 
97.73264335478956

>  <Genealogy>  (77) 
O=S(=O)(Cc1cccc(C(F)(F)F)c1)N1CCc2ccccc2[C@@H]1c1c[nH]c2ccccc12 (3D coordinates assigned)
O=S(=O)(Cc1cccc(C(F)(F)F)c1)N1CCc2ccccc2[C@@H]1c1c[nH]c2ccccc12 (nonaromatic ring conformer: 97.73264335478956 kcal/mol)

>  <smiles>  (77) 
O=S(=O)(Cc1cccc(C(F)(F)F)c1)N1CCc2ccccc2[C@@H]1c1c[nH]c2ccccc12

>  <score_type>  (77) 
oracle

>  <origin>  (77) 
autodockgpu

>  <m_score__min__energy>  (77) 
-8.0600000000000005

>  <m_primary>  (77) 
energy

>  <meeko>  (77) 
{"free_energy": -6.67, "intermolecular_energy": -8.16, "internal_energy": -3.38, "cluster_size": 16, "cluster_id": 3, "rank_in_cluster": 14}

>  <energy>  (77) 
-6.67

>  <cluster_rmsd>  (77) 
0.12

>  <rmsd>  (77) 
270.93

>  <cluster>  (77) 
3

$$$$
GJSDZOHBAHKEKD-XMMPIXPANA-N
     RDKit          3D

 54 58  0  0  0  0  0  0  0  0999 V2000
  138.4270   77.5030  218.8310 O   0  0  0  0  0  0  0  0  0  0  0  0
  138.1110   76.9880  220.2070 S   0  0  0  0  0  0  0  0  0  0  0  0
  137.3600   75.6950  220.0540 O   0  0  0  0  0  0  0  0  0  0  0  0
  137.0570   78.1980  221.0200 C   0  0  0  0  0  0  0  0  0  0  0  0
  137.8510   79.2460  221.7580 C   0  0  0  0  0  0  0  0  0  0  0  0
  138.0450   79.1540  223.1470 C   0  0  0  0  0  0  0  0  0  0  0  0
  138.7500   80.1500  223.8280 C   0  0  0  0  0  0  0  0  0  0  0  0
  139.2650   81.2470  223.1320 C   0  0  0  0  0  0  0  0  0  0  0  0
  139.0680   81.3660  221.7430 C   0  0  0  0  0  0  0  0  0  0  0  0
  139.6560   82.5320  220.9860 C   0  0  0  0  0  0  0  0  0  0  0  0
  138.7290   83.5560  220.8750 F   0  0  0  0  0  0  0  0  0  0  0  0
  140.7710   83.0030  221.6620 F   0  0  0  0  0  0  0  0  0  0  0  0
  140.0310   82.1470  219.7060 F   0  0  0  0  0  0  0  0  0  0  0  0
  138.3900   80.3410  221.0580 C   0  0  0  0  0  0  0  0  0  0  0  0
  139.6140   76.6730  221.0530 N   0  0  0  0  0  0  0  0  0  0  0  0
  139.5580   75.5170  221.9710 C   0  0  0  0  0  0  0  0  0  0  0  0
  140.1440   74.2480  221.3640 C   0  0  0  0  0  0  0  0  0  0  0  0
  141.5310   74.5040  220.8640 C   0  0  0  0  0  0  0  0  0  0  0  0
  142.4760   73.4640  220.8610 C   0  0  0  0  0  0  0  0  0  0  0  0
  143.7480   73.6670  220.3210 C   0  0  0  0  0  0  0  0  0  0  0  0
  144.0790   74.9000  219.7570 C   0  0  0  0  0  0  0  0  0  0  0  0
  143.1390   75.9340  219.7390 C   0  0  0  0  0  0  0  0  0  0  0  0
  141.8640   75.7580  220.3170 C   0  0  0  0  0  0  0  0  0  0  0  0
  140.8270   76.8690  220.2180 C   0  0  2  0  0  0  0  0  0  0  0  0
  141.4190   78.2140  220.5570 C   0  0  0  0  0  0  0  0  0  0  0  0
  141.7400   79.2160  219.6410 C   0  0  0  0  0  0  0  0  0  0  0  0
  142.1810   80.3220  220.2830 N   0  0  0  0  0  0  0  0  0  0  0  0
  142.1350   80.0330  221.5970 C   0  0  0  0  0  0  0  0  0  0  0  0
  142.4760   80.8750  222.6570 C   0  0  0  0  0  0  0  0  0  0  0  0
  142.3360   80.3750  223.9670 C   0  0  0  0  0  0  0  0  0  0  0  0
  141.8730   79.0580  224.1860 C   0  0  0  0  0  0  0  0  0  0  0  0
  141.5400   78.2290  223.0960 C   0  0  0  0  0  0  0  0  0  0  0  0
  141.6760   78.7560  221.8070 C   0  0  0  0  0  0  0  0  0  0  0  0
  136.4371   78.6948  220.2592 H   0  0  0  0  0  0  0  0  0  0  0  0
  136.4388   77.6641  221.7567 H   0  0  0  0  0  0  0  0  0  0  0  0
  137.6400   78.2940  223.7006 H   0  0  0  0  0  0  0  0  0  0  0  0
  138.9000   80.0703  224.9148 H   0  0  0  0  0  0  0  0  0  0  0  0
  139.8277   82.0222  223.6727 H   0  0  0  0  0  0  0  0  0  0  0  0
  138.2803   80.3962  219.9649 H   0  0  0  0  0  0  0  0  0  0  0  0
  140.1238   75.7642  222.8814 H   0  0  0  0  0  0  0  0  0  0  0  0
  138.4979   75.3195  222.1884 H   0  0  0  0  0  0  0  0  0  0  0  0
  140.1743   73.4596  222.1305 H   0  0  0  0  0  0  0  0  0  0  0  0
  139.5128   73.9300  220.5211 H   0  0  0  0  0  0  0  0  0  0  0  0
  142.2124   72.4844  221.2864 H   0  0  0  0  0  0  0  0  0  0  0  0
  144.4894   72.8546  220.3402 H   0  0  0  0  0  0  0  0  0  0  0  0
  145.0791   75.0578  219.3270 H   0  0  0  0  0  0  0  0  0  0  0  0
  143.3958   76.8950  219.2694 H   0  0  0  0  0  0  0  0  0  0  0  0
  140.5095   76.8314  219.1655 H   0  0  0  0  0  0  0  0  0  0  0  0
  141.6474   79.1201  218.5491 H   0  0  0  0  0  0  0  0  0  0  0  0
  142.4840   81.2210  219.8430 H   0  0  0  0  0  0  0  0  0  0  0  0
  142.8423   81.8962  222.4754 H   0  0  0  0  0  0  0  0  0  0  0  0
  142.5890   81.0146  224.8254 H   0  0  0  0  0  0  0  0  0  0  0  0
  141.7719   78.6776  225.2132 H   0  0  0  0  0  0  0  0  0  0  0  0
  141.1844   77.2001  223.2536 H   0  0  0  0  0  0  0  0  0  0  0  0
  1  2  2  0
  2  3  2  0
  2  4  1  0
  4  5  1  0
  5  6  2  0
  6  7  1  0
  7  8  2  0
  8  9  1  0
  9 10  1  0
 10 11  1  0
 10 12  1  0
 10 13  1  0
  9 14  2  0
  2 15  1  0
 15 16  1  0
 16 17  1  0
 17 18  1  0
 18 19  2  0
 19 20  1  0
 20 21  2  0
 21 22  1  0
 22 23  2  0
 23 24  1  0
 24 25  1  0
 25 26  2  0
 26 27  1  0
 27 28  1  0
 28 29  2  0
 29 30  1  0
 30 31  2  0
 31 32  1  0
 32 33  2  0
 14  5  1  0
 24 15  1  0
 33 25  1  0
 23 18  1  0
 33 28  1  0
  4 34  1  0
  4 35  1  0
  6 36  1  0
  7 37  1  0
  8 38  1  0
 14 39  1  0
 16 40  1  0
 16 41  1  0
 17 42  1  0
 17 43  1  0
 19 44  1  0
 20 45  1  0
 21 46  1  0
 22 47  1  0
 24 48  1  6
 26 49  1  0
 27 50  1  0
 29 51  1  0
 30 52  1  0
 31 53  1  0
 32 54  1  0
M  END
>  <UniqueID>  (78) 
204

>  <SMILES>  (78) 
O=S(=O)(Cc1cccc(C(F)(F)F)c1)N1CCc2ccccc2[C@@H]1c1c[nH]c2ccccc12

>  <Energy>  (78) 
97.73264335478956

>  <Genealogy>  (78) 
O=S(=O)(Cc1cccc(C(F)(F)F)c1)N1CCc2ccccc2[C@@H]1c1c[nH]c2ccccc12 (3D coordinates assigned)
O=S(=O)(Cc1cccc(C(F)(F)F)c1)N1CCc2ccccc2[C@@H]1c1c[nH]c2ccccc12 (nonaromatic ring conformer: 97.73264335478956 kcal/mol)

>  <smiles>  (78) 
O=S(=O)(Cc1cccc(C(F)(F)F)c1)N1CCc2ccccc2[C@@H]1c1c[nH]c2ccccc12

>  <score_type>  (78) 
oracle

>  <origin>  (78) 
autodockgpu

>  <m_score__min__energy>  (78) 
-8.0600000000000005

>  <m_primary>  (78) 
energy

>  <meeko>  (78) 
{"free_energy": -6.7, "intermolecular_energy": -8.19, "internal_energy": -3.35, "cluster_size": 16, "cluster_id": 3, "rank_in_cluster": 2}

>  <energy>  (78) 
-6.67

>  <cluster_rmsd>  (78) 
0.06

>  <rmsd>  (78) 
270.91

>  <cluster>  (78) 
3

$$$$
GJSDZOHBAHKEKD-XMMPIXPANA-N
     RDKit          3D

 54 58  0  0  0  0  0  0  0  0999 V2000
  138.5570   82.6530  218.1460 O   0  0  0  0  0  0  0  0  0  0  0  0
  138.7850   81.4290  218.9880 S   0  0  0  0  0  0  0  0  0  0  0  0
  138.5880   80.2240  218.1110 O   0  0  0  0  0  0  0  0  0  0  0  0
  137.5510   81.4230  220.2970 C   0  0  0  0  0  0  0  0  0  0  0  0
  137.9930   80.6230  221.4960 C   0  0  0  0  0  0  0  0  0  0  0  0
  138.2300   81.2510  222.7310 C   0  0  0  0  0  0  0  0  0  0  0  0
  138.6760   80.5070  223.8270 C   0  0  0  0  0  0  0  0  0  0  0  0
  138.8920   79.1320  223.7010 C   0  0  0  0  0  0  0  0  0  0  0  0
  138.6750   78.4860  222.4700 C   0  0  0  0  0  0  0  0  0  0  0  0
  138.8740   76.9950  222.3440 C   0  0  0  0  0  0  0  0  0  0  0  0
  137.9790   76.3160  223.1560 F   0  0  0  0  0  0  0  0  0  0  0  0
  138.6670   76.6140  221.0270 F   0  0  0  0  0  0  0  0  0  0  0  0
  140.1600   76.6380  222.7230 F   0  0  0  0  0  0  0  0  0  0  0  0
  138.1910   79.2350  221.3810 C   0  0  0  0  0  0  0  0  0  0  0  0
  140.4380   81.4400  219.5690 N   0  0  0  0  0  0  0  0  0  0  0  0
  140.8710   82.7360  220.1320 C   0  0  0  0  0  0  0  0  0  0  0  0
  140.8000   82.7760  221.6530 C   0  0  0  0  0  0  0  0  0  0  0  0
  141.5570   81.6260  222.2390 C   0  0  0  0  0  0  0  0  0  0  0  0
  142.1700   81.7610  223.4960 C   0  0  0  0  0  0  0  0  0  0  0  0
  142.8100   80.6710  224.0910 C   0  0  0  0  0  0  0  0  0  0  0  0
  142.8210   79.4320  223.4490 C   0  0  0  0  0  0  0  0  0  0  0  0
  142.1990   79.2850  222.2060 C   0  0  0  0  0  0  0  0  0  0  0  0
  141.5840   80.3850  221.5730 C   0  0  0  0  0  0  0  0  0  0  0  0
  140.8430   80.1870  220.2570 C   0  0  2  0  0  0  0  0  0  0  0  0
  141.6450   79.3560  219.2880 C   0  0  0  0  0  0  0  0  0  0  0  0
  142.2990   79.8340  218.1530 C   0  0  0  0  0  0  0  0  0  0  0  0
  142.9850   78.8400  217.5460 N   0  0  0  0  0  0  0  0  0  0  0  0
  142.7780   77.7370  218.2890 C   0  0  0  0  0  0  0  0  0  0  0  0
  143.3010   76.4620  218.0700 C   0  0  0  0  0  0  0  0  0  0  0  0
  142.9690   75.4450  218.9880 C   0  0  0  0  0  0  0  0  0  0  0  0
  142.1250   75.7210  220.0870 C   0  0  0  0  0  0  0  0  0  0  0  0
  141.6080   77.0170  220.2820 C   0  0  0  0  0  0  0  0  0  0  0  0
  141.9640   78.0090  219.3620 C   0  0  0  0  0  0  0  0  0  0  0  0
  137.3651   82.4602  220.6127 H   0  0  0  0  0  0  0  0  0  0  0  0
  136.6390   80.9551  219.8977 H   0  0  0  0  0  0  0  0  0  0  0  0
  138.0636   82.3333  222.8355 H   0  0  0  0  0  0  0  0  0  0  0  0
  138.8574   81.0049  224.7909 H   0  0  0  0  0  0  0  0  0  0  0  0
  139.2340   78.5509  224.5701 H   0  0  0  0  0  0  0  0  0  0  0  0
  137.9653   78.7298  220.4303 H   0  0  0  0  0  0  0  0  0  0  0  0
  141.9105   82.9224  219.8243 H   0  0  0  0  0  0  0  0  0  0  0  0
  140.1859   83.5070  219.7496 H   0  0  0  0  0  0  0  0  0  0  0  0
  141.2378   83.7191  222.0120 H   0  0  0  0  0  0  0  0  0  0  0  0
  139.7471   82.7067  221.9638 H   0  0  0  0  0  0  0  0  0  0  0  0
  142.1459   82.7307  224.0147 H   0  0  0  0  0  0  0  0  0  0  0  0
  143.3054   80.7894  225.0659 H   0  0  0  0  0  0  0  0  0  0  0  0
  143.3187   78.5719  223.9207 H   0  0  0  0  0  0  0  0  0  0  0  0
  142.1891   78.3002  221.7159 H   0  0  0  0  0  0  0  0  0  0  0  0
  139.9217   79.6656  220.5558 H   0  0  0  0  0  0  0  0  0  0  0  0
  142.2618   80.8753  217.8006 H   0  0  0  0  0  0  0  0  0  0  0  0
  143.5670   78.9190  216.6800 H   0  0  0  0  0  0  0  0  0  0  0  0
  143.9523   76.2568  217.2076 H   0  0  0  0  0  0  0  0  0  0  0  0
  143.3695   74.4302  218.8478 H   0  0  0  0  0  0  0  0  0  0  0  0
  141.8699   74.9187  220.7950 H   0  0  0  0  0  0  0  0  0  0  0  0
  140.9454   77.2418  221.1308 H   0  0  0  0  0  0  0  0  0  0  0  0
  1  2  2  0
  2  3  2  0
  2  4  1  0
  4  5  1  0
  5  6  2  0
  6  7  1  0
  7  8  2  0
  8  9  1  0
  9 10  1  0
 10 11  1  0
 10 12  1  0
 10 13  1  0
  9 14  2  0
  2 15  1  0
 15 16  1  0
 16 17  1  0
 17 18  1  0
 18 19  2  0
 19 20  1  0
 20 21  2  0
 21 22  1  0
 22 23  2  0
 23 24  1  0
 24 25  1  0
 25 26  2  0
 26 27  1  0
 27 28  1  0
 28 29  2  0
 29 30  1  0
 30 31  2  0
 31 32  1  0
 32 33  2  0
 14  5  1  0
 24 15  1  0
 33 25  1  0
 23 18  1  0
 33 28  1  0
  4 34  1  0
  4 35  1  0
  6 36  1  0
  7 37  1  0
  8 38  1  0
 14 39  1  0
 16 40  1  0
 16 41  1  0
 17 42  1  0
 17 43  1  0
 19 44  1  0
 20 45  1  0
 21 46  1  0
 22 47  1  0
 24 48  1  1
 26 49  1  0
 27 50  1  0
 29 51  1  0
 30 52  1  0
 31 53  1  0
 32 54  1  0
M  END
>  <UniqueID>  (79) 
204

>  <SMILES>  (79) 
O=S(=O)(Cc1cccc(C(F)(F)F)c1)N1CCc2ccccc2[C@@H]1c1c[nH]c2ccccc12

>  <Energy>  (79) 
97.73264335478956

>  <Genealogy>  (79) 
O=S(=O)(Cc1cccc(C(F)(F)F)c1)N1CCc2ccccc2[C@@H]1c1c[nH]c2ccccc12 (3D coordinates assigned)
O=S(=O)(Cc1cccc(C(F)(F)F)c1)N1CCc2ccccc2[C@@H]1c1c[nH]c2ccccc12 (nonaromatic ring conformer: 97.73264335478956 kcal/mol)

>  <smiles>  (79) 
O=S(=O)(Cc1cccc(C(F)(F)F)c1)N1CCc2ccccc2[C@@H]1c1c[nH]c2ccccc12

>  <score_type>  (79) 
oracle

>  <origin>  (79) 
autodockgpu

>  <m_score__min__energy>  (79) 
-8.0600000000000005

>  <m_primary>  (79) 
energy

>  <meeko>  (79) 
{"free_energy": -6.91, "intermolecular_energy": -8.4, "internal_energy": -3.07, "cluster_size": 3, "cluster_id": 2, "rank_in_cluster": 1}

>  <energy>  (79) 
-6.66

>  <cluster_rmsd>  (79) 
0.07

>  <rmsd>  (79) 
270.89

>  <cluster>  (79) 
3

$$$$
GJSDZOHBAHKEKD-XMMPIXPANA-N
     RDKit          3D

 54 58  0  0  0  0  0  0  0  0999 V2000
  138.3780   77.5360  218.9830 O   0  0  0  0  0  0  0  0  0  0  0  0
  138.1080   76.9530  220.3410 S   0  0  0  0  0  0  0  0  0  0  0  0
  137.3940   75.6450  220.1470 O   0  0  0  0  0  0  0  0  0  0  0  0
  137.0360   78.0930  221.2280 C   0  0  0  0  0  0  0  0  0  0  0  0
  137.8100   79.1880  221.9170 C   0  0  0  0  0  0  0  0  0  0  0  0
  137.9890   79.1730  223.3120 C   0  0  0  0  0  0  0  0  0  0  0  0
  138.6750   80.2120  223.9460 C   0  0  0  0  0  0  0  0  0  0  0  0
  139.1850   81.2760  223.1980 C   0  0  0  0  0  0  0  0  0  0  0  0
  139.0030   81.3190  221.8030 C   0  0  0  0  0  0  0  0  0  0  0  0
  139.5860   82.4500  220.9910 C   0  0  0  0  0  0  0  0  0  0  0  0
  140.7220   82.9540  221.6040 F   0  0  0  0  0  0  0  0  0  0  0  0
  139.9230   81.9830  219.7290 F   0  0  0  0  0  0  0  0  0  0  0  0
  138.6690   83.4840  220.8610 F   0  0  0  0  0  0  0  0  0  0  0  0
  138.3440   80.2510  221.1660 C   0  0  0  0  0  0  0  0  0  0  0  0
  139.6380   76.6480  221.1420 N   0  0  0  0  0  0  0  0  0  0  0  0
  139.6180   75.4920  222.0610 C   0  0  0  0  0  0  0  0  0  0  0  0
  140.1940   74.2270  221.4370 C   0  0  0  0  0  0  0  0  0  0  0  0
  141.5640   74.4930  220.8950 C   0  0  0  0  0  0  0  0  0  0  0  0
  142.5140   73.4590  220.8650 C   0  0  0  0  0  0  0  0  0  0  0  0
  143.7690   73.6700  220.2870 C   0  0  0  0  0  0  0  0  0  0  0  0
  144.0740   74.9050  219.7130 C   0  0  0  0  0  0  0  0  0  0  0  0
  143.1270   75.9320  219.7230 C   0  0  0  0  0  0  0  0  0  0  0  0
  141.8710   75.7480  220.3380 C   0  0  0  0  0  0  0  0  0  0  0  0
  140.8250   76.8520  220.2710 C   0  0  2  0  0  0  0  0  0  0  0  0
  141.4170   78.2020  220.5920 C   0  0  0  0  0  0  0  0  0  0  0  0
  141.7430   79.1890  219.6620 C   0  0  0  0  0  0  0  0  0  0  0  0
  142.1830   80.3040  220.2890 N   0  0  0  0  0  0  0  0  0  0  0  0
  142.1320   80.0350  221.6070 C   0  0  0  0  0  0  0  0  0  0  0  0
  142.4690   80.8920  222.6550 C   0  0  0  0  0  0  0  0  0  0  0  0
  142.3250   80.4120  223.9730 C   0  0  0  0  0  0  0  0  0  0  0  0
  141.8590   79.0990  224.2090 C   0  0  0  0  0  0  0  0  0  0  0  0
  141.5280   78.2550  223.1310 C   0  0  0  0  0  0  0  0  0  0  0  0
  141.6700   78.7620  221.8350 C   0  0  0  0  0  0  0  0  0  0  0  0
  136.3369   78.5505  220.5124 H   0  0  0  0  0  0  0  0  0  0  0  0
  136.5025   77.5206  222.0011 H   0  0  0  0  0  0  0  0  0  0  0  0
  137.5870   78.3394  223.9066 H   0  0  0  0  0  0  0  0  0  0  0  0
  138.8139   80.1922  225.0370 H   0  0  0  0  0  0  0  0  0  0  0  0
  139.7325   82.0856  223.7027 H   0  0  0  0  0  0  0  0  0  0  0  0
  138.2455   80.2474  220.0704 H   0  0  0  0  0  0  0  0  0  0  0  0
  140.2094   75.7434  222.9538 H   0  0  0  0  0  0  0  0  0  0  0  0
  138.5663   75.2872  222.3102 H   0  0  0  0  0  0  0  0  0  0  0  0
  140.2531   73.4392  222.2024 H   0  0  0  0  0  0  0  0  0  0  0  0
  139.5398   73.9039  220.6138 H   0  0  0  0  0  0  0  0  0  0  0  0
  142.2692   72.4782  221.2986 H   0  0  0  0  0  0  0  0  0  0  0  0
  144.5162   72.8627  220.2845 H   0  0  0  0  0  0  0  0  0  0  0  0
  145.0595   75.0697  219.2530 H   0  0  0  0  0  0  0  0  0  0  0  0
  143.3634   76.8946  219.2461 H   0  0  0  0  0  0  0  0  0  0  0  0
  140.4774   76.8119  219.2281 H   0  0  0  0  0  0  0  0  0  0  0  0
  141.6547   79.0765  218.5713 H   0  0  0  0  0  0  0  0  0  0  0  0
  142.4890   81.1950  219.8360 H   0  0  0  0  0  0  0  0  0  0  0  0
  142.8356   81.9105  222.4592 H   0  0  0  0  0  0  0  0  0  0  0  0
  142.5770   81.0636  224.8227 H   0  0  0  0  0  0  0  0  0  0  0  0
  141.7541   78.7337  225.2412 H   0  0  0  0  0  0  0  0  0  0  0  0
  141.1691   77.2295  223.3028 H   0  0  0  0  0  0  0  0  0  0  0  0
  1  2  2  0
  2  3  2  0
  2  4  1  0
  4  5  1  0
  5  6  2  0
  6  7  1  0
  7  8  2  0
  8  9  1  0
  9 10  1  0
 10 11  1  0
 10 12  1  0
 10 13  1  0
  9 14  2  0
  2 15  1  0
 15 16  1  0
 16 17  1  0
 17 18  1  0
 18 19  2  0
 19 20  1  0
 20 21  2  0
 21 22  1  0
 22 23  2  0
 23 24  1  0
 24 25  1  0
 25 26  2  0
 26 27  1  0
 27 28  1  0
 28 29  2  0
 29 30  1  0
 30 31  2  0
 31 32  1  0
 32 33  2  0
 14  5  1  0
 24 15  1  0
 33 25  1  0
 23 18  1  0
 33 28  1  0
  4 34  1  0
  4 35  1  0
  6 36  1  0
  7 37  1  0
  8 38  1  0
 14 39  1  0
 16 40  1  0
 16 41  1  0
 17 42  1  0
 17 43  1  0
 19 44  1  0
 20 45  1  0
 21 46  1  0
 22 47  1  0
 24 48  1  6
 26 49  1  0
 27 50  1  0
 29 51  1  0
 30 52  1  0
 31 53  1  0
 32 54  1  0
M  END
>  <UniqueID>  (80) 
204

>  <SMILES>  (80) 
O=S(=O)(Cc1cccc(C(F)(F)F)c1)N1CCc2ccccc2[C@@H]1c1c[nH]c2ccccc12

>  <Energy>  (80) 
97.73264335478956

>  <Genealogy>  (80) 
O=S(=O)(Cc1cccc(C(F)(F)F)c1)N1CCc2ccccc2[C@@H]1c1c[nH]c2ccccc12 (3D coordinates assigned)
O=S(=O)(Cc1cccc(C(F)(F)F)c1)N1CCc2ccccc2[C@@H]1c1c[nH]c2ccccc12 (nonaromatic ring conformer: 97.73264335478956 kcal/mol)

>  <smiles>  (80) 
O=S(=O)(Cc1cccc(C(F)(F)F)c1)N1CCc2ccccc2[C@@H]1c1c[nH]c2ccccc12

>  <score_type>  (80) 
oracle

>  <origin>  (80) 
autodockgpu

>  <m_score__min__energy>  (80) 
-8.0600000000000005

>  <m_primary>  (80) 
energy

>  <meeko>  (80) 
{"free_energy": -6.69, "intermolecular_energy": -8.18, "internal_energy": -3.37, "cluster_size": 16, "cluster_id": 3, "rank_in_cluster": 5}

>  <energy>  (80) 
-6.61

>  <cluster_rmsd>  (80) 
0.57

>  <rmsd>  (80) 
270.95

>  <cluster>  (80) 
3

$$$$
