NYPVCQFMQXTFET-ONIAVQPKNA-M
     RDKit          3D

 35 36  0  0  0  0  0  0  0  0999 V2000
  139.2460   75.7630  222.7190 O   0  0  0  0  0  0  0  0  0  0  0  0
  139.8810   75.2040  221.7860 C   0  0  0  0  0  0  0  0  0  0  0  0
  140.5500   73.9610  221.9990 N   0  0  0  0  0  0  0  0  0  0  0  0
  139.8810   72.6720  221.8590 C   0  0  0  0  0  0  0  0  0  0  0  0
  140.6890   71.5750  222.5560 C   0  0  0  0  0  0  0  0  0  0  0  0
  140.3890   71.4950  224.0320 C   0  0  0  0  0  0  0  0  0  0  0  0
  139.7570   70.4660  224.6370 C   0  0  0  0  0  0  0  0  0  0  0  0
  140.2290   69.9750  225.9610 C   0  0  0  0  0  0  0  0  0  0  0  0
  140.6570   70.8740  226.9580 C   0  0  0  0  0  0  0  0  0  0  0  0
  141.0830   70.4000  228.2030 C   0  0  0  0  0  0  0  0  0  0  0  0
  141.0820   69.0280  228.4680 C   0  0  0  0  0  0  0  0  0  0  0  0
  140.6530   68.1290  227.4910 C   0  0  0  0  0  0  0  0  0  0  0  0
  140.2260   68.5960  226.2450 C   0  0  0  0  0  0  0  0  0  0  0  0
  138.5860   69.8000  224.0200 C   0  0  0  0  0  0  0  0  0  0  0  0
  137.2880   70.1950  224.3840 C   0  0  0  0  0  0  0  0  0  0  0  0
  136.1760   69.5540  223.8290 C   0  0  0  0  0  0  0  0  0  0  0  0
  136.3530   68.5060  222.9220 C   0  0  0  0  0  0  0  0  0  0  0  0
  137.6420   68.0920  222.5720 C   0  0  0  0  0  0  0  0  0  0  0  0
  138.7560   68.7310  223.1240 C   0  0  0  0  0  0  0  0  0  0  0  0
  139.9206   75.6794  220.7948 H   0  0  0  0  0  0  0  0  0  0  0  0
  138.8813   72.7308  222.3141 H   0  0  0  0  0  0  0  0  0  0  0  0
  139.7950   72.4281  220.7898 H   0  0  0  0  0  0  0  0  0  0  0  0
  140.4458   70.6075  222.0924 H   0  0  0  0  0  0  0  0  0  0  0  0
  141.7557   71.8178  222.4415 H   0  0  0  0  0  0  0  0  0  0  0  0
  140.7088   72.3375  224.6628 H   0  0  0  0  0  0  0  0  0  0  0  0
  140.6561   71.9553  226.7559 H   0  0  0  0  0  0  0  0  0  0  0  0
  141.4193   71.1082  228.9746 H   0  0  0  0  0  0  0  0  0  0  0  0
  141.4195   68.6567  229.4469 H   0  0  0  0  0  0  0  0  0  0  0  0
  140.6509   67.0495  227.7021 H   0  0  0  0  0  0  0  0  0  0  0  0
  139.8853   67.8815  225.4811 H   0  0  0  0  0  0  0  0  0  0  0  0
  137.1459   71.0110  225.1078 H   0  0  0  0  0  0  0  0  0  0  0  0
  135.1612   69.8751  224.1067 H   0  0  0  0  0  0  0  0  0  0  0  0
  135.4772   68.0060  222.4827 H   0  0  0  0  0  0  0  0  0  0  0  0
  137.7794   67.2631  221.8620 H   0  0  0  0  0  0  0  0  0  0  0  0
  139.7689   68.3959  222.8561 H   0  0  0  0  0  0  0  0  0  0  0  0
  1  2  2  0
  2  3  1  0
  3  4  1  0
  4  5  1  0
  5  6  1  0
  6  7  2  3
  7  8  1  0
  8  9  2  0
  9 10  1  0
 10 11  2  0
 11 12  1  0
 12 13  2  0
  7 14  1  0
 14 15  2  0
 15 16  1  0
 16 17  2  0
 17 18  1  0
 18 19  2  0
 13  8  1  0
 19 14  1  0
  2 20  1  0
  4 21  1  0
  4 22  1  0
  5 23  1  0
  5 24  1  0
  6 25  1  0
  9 26  1  0
 10 27  1  0
 11 28  1  0
 12 29  1  0
 13 30  1  0
 15 31  1  0
 16 32  1  0
 17 33  1  0
 18 34  1  0
 19 35  1  0
M  CHG  1   3  -1
M  END
>  <UniqueID>  (1) 
37

>  <SMILES>  (1) 
O=C[N-]CCC=C(c1ccccc1)c1ccccc1

>  <Energy>  (1) 
41.004580599123514

>  <Genealogy>  (1) 
O=C[N-]CCC=C(c1ccccc1)c1ccccc1 (protonated)
O=C[N-]CCC=C(c1ccccc1)c1ccccc1 (3D coordinates assigned)
O=C[N-]CCC=C(c1ccccc1)c1ccccc1 (optimized conformer: 41.004580599123514 kcal/mol)

>  <smiles>  (1) 
O=CNCCC=C(c1ccccc1)c1ccccc1

>  <score_type>  (1) 
oracle

>  <origin>  (1) 
autodockgpu

>  <m_score__min__energy>  (1) 
-5.8099999999999996

>  <m_primary>  (1) 
energy

>  <meeko>  (1) 
{"free_energy": -5.29, "intermolecular_energy": -7.38, "internal_energy": -0.94, "cluster_size": 1, "cluster_id": 3, "rank_in_cluster": 1}

>  <energy>  (1) 
-5.81

>  <cluster_rmsd>  (1) 
0.0

>  <rmsd>  (1) 
272.68

>  <cluster>  (1) 
1

$$$$
NYPVCQFMQXTFET-ONIAVQPKNA-M
     RDKit          3D

 35 36  0  0  0  0  0  0  0  0999 V2000
  133.7490   68.4920  226.4580 O   0  0  0  0  0  0  0  0  0  0  0  0
  133.6320   68.1490  225.2520 C   0  0  0  0  0  0  0  0  0  0  0  0
  134.7610   68.1560  224.3780 N   0  0  0  0  0  0  0  0  0  0  0  0
  135.1280   69.3160  223.5730 C   0  0  0  0  0  0  0  0  0  0  0  0
  136.1920   70.1480  224.2950 C   0  0  0  0  0  0  0  0  0  0  0  0
  137.1970   69.2850  225.0180 C   0  0  0  0  0  0  0  0  0  0  0  0
  138.5310   69.5010  225.0310 C   0  0  0  0  0  0  0  0  0  0  0  0
  139.1750   70.2530  223.9200 C   0  0  0  0  0  0  0  0  0  0  0  0
  139.1570   69.7570  222.6010 C   0  0  0  0  0  0  0  0  0  0  0  0
  139.7520   70.4820  221.5640 C   0  0  0  0  0  0  0  0  0  0  0  0
  140.3660   71.7090  221.8280 C   0  0  0  0  0  0  0  0  0  0  0  0
  140.3840   72.2140  223.1290 C   0  0  0  0  0  0  0  0  0  0  0  0
  139.7900   71.4940  224.1700 C   0  0  0  0  0  0  0  0  0  0  0  0
  139.3880   69.0110  226.1350 C   0  0  0  0  0  0  0  0  0  0  0  0
  139.5100   69.7670  227.3120 C   0  0  0  0  0  0  0  0  0  0  0  0
  140.3390   69.3270  228.3490 C   0  0  0  0  0  0  0  0  0  0  0  0
  141.0630   68.1410  228.2110 C   0  0  0  0  0  0  0  0  0  0  0  0
  140.9650   67.3940  227.0330 C   0  0  0  0  0  0  0  0  0  0  0  0
  140.1370   67.8300  225.9940 C   0  0  0  0  0  0  0  0  0  0  0  0
  132.6487   67.8404  224.8675 H   0  0  0  0  0  0  0  0  0  0  0  0
  135.5277   68.9753  222.6065 H   0  0  0  0  0  0  0  0  0  0  0  0
  134.2349   69.9379  223.4129 H   0  0  0  0  0  0  0  0  0  0  0  0
  136.7224   70.7645  223.5543 H   0  0  0  0  0  0  0  0  0  0  0  0
  135.6820   70.7719  225.0438 H   0  0  0  0  0  0  0  0  0  0  0  0
  136.8158   68.4166  225.5752 H   0  0  0  0  0  0  0  0  0  0  0  0
  138.6718   68.7935  222.3860 H   0  0  0  0  0  0  0  0  0  0  0  0
  139.7367   70.0855  220.5381 H   0  0  0  0  0  0  0  0  0  0  0  0
  140.8350   72.2767  221.0108 H   0  0  0  0  0  0  0  0  0  0  0  0
  140.8666   73.1806  223.3358 H   0  0  0  0  0  0  0  0  0  0  0  0
  139.8034   71.9005  225.1920 H   0  0  0  0  0  0  0  0  0  0  0  0
  138.9516   70.7087  227.4188 H   0  0  0  0  0  0  0  0  0  0  0  0
  140.4208   69.9160  229.2744 H   0  0  0  0  0  0  0  0  0  0  0  0
  141.7109   67.7941  229.0295 H   0  0  0  0  0  0  0  0  0  0  0  0
  141.5398   66.4625  226.9236 H   0  0  0  0  0  0  0  0  0  0  0  0
  140.0716   67.2470  225.0635 H   0  0  0  0  0  0  0  0  0  0  0  0
  1  2  2  0
  2  3  1  0
  3  4  1  0
  4  5  1  0
  5  6  1  0
  6  7  2  3
  7  8  1  0
  8  9  2  0
  9 10  1  0
 10 11  2  0
 11 12  1  0
 12 13  2  0
  7 14  1  0
 14 15  2  0
 15 16  1  0
 16 17  2  0
 17 18  1  0
 18 19  2  0
 13  8  1  0
 19 14  1  0
  2 20  1  0
  4 21  1  0
  4 22  1  0
  5 23  1  0
  5 24  1  0
  6 25  1  0
  9 26  1  0
 10 27  1  0
 11 28  1  0
 12 29  1  0
 13 30  1  0
 15 31  1  0
 16 32  1  0
 17 33  1  0
 18 34  1  0
 19 35  1  0
M  CHG  1   3  -1
M  END
>  <UniqueID>  (2) 
37

>  <SMILES>  (2) 
O=C[N-]CCC=C(c1ccccc1)c1ccccc1

>  <Energy>  (2) 
41.004580599123514

>  <Genealogy>  (2) 
O=C[N-]CCC=C(c1ccccc1)c1ccccc1 (protonated)
O=C[N-]CCC=C(c1ccccc1)c1ccccc1 (3D coordinates assigned)
O=C[N-]CCC=C(c1ccccc1)c1ccccc1 (optimized conformer: 41.004580599123514 kcal/mol)

>  <smiles>  (2) 
O=CNCCC=C(c1ccccc1)c1ccccc1

>  <score_type>  (2) 
oracle

>  <origin>  (2) 
autodockgpu

>  <m_score__min__energy>  (2) 
-5.8099999999999996

>  <m_primary>  (2) 
energy

>  <meeko>  (2) 
{"free_energy": -5.56, "intermolecular_energy": -7.65, "internal_energy": -0.97, "cluster_size": 12, "cluster_id": 1, "rank_in_cluster": 10}

>  <energy>  (2) 
-5.78

>  <cluster_rmsd>  (2) 
0.12

>  <rmsd>  (2) 
272.64

>  <cluster>  (2) 
1

$$$$
NYPVCQFMQXTFET-ONIAVQPKNA-M
     RDKit          3D

 35 36  0  0  0  0  0  0  0  0999 V2000
  140.3750   72.4080  223.1150 O   0  0  0  0  0  0  0  0  0  0  0  0
  140.3920   73.0100  222.0090 C   0  0  0  0  0  0  0  0  0  0  0  0
  140.3170   74.4340  221.9500 N   0  0  0  0  0  0  0  0  0  0  0  0
  139.2470   75.1400  221.2530 C   0  0  0  0  0  0  0  0  0  0  0  0
  139.1520   76.5850  221.7490 C   0  0  0  0  0  0  0  0  0  0  0  0
  140.4400   77.0590  222.3760 C   0  0  0  0  0  0  0  0  0  0  0  0
  141.2610   77.9900  221.8420 C   0  0  0  0  0  0  0  0  0  0  0  0
  141.6090   79.2110  222.6200 C   0  0  0  0  0  0  0  0  0  0  0  0
  140.6080   80.0980  223.0640 C   0  0  0  0  0  0  0  0  0  0  0  0
  140.9480   81.2320  223.8090 C   0  0  0  0  0  0  0  0  0  0  0  0
  142.2850   81.4910  224.1210 C   0  0  0  0  0  0  0  0  0  0  0  0
  143.2830   80.6150  223.6940 C   0  0  0  0  0  0  0  0  0  0  0  0
  142.9510   79.4790  222.9500 C   0  0  0  0  0  0  0  0  0  0  0  0
  141.8420   77.8330  220.4890 C   0  0  0  0  0  0  0  0  0  0  0  0
  141.8280   78.9150  219.5940 C   0  0  0  0  0  0  0  0  0  0  0  0
  142.3480   78.7680  218.3040 C   0  0  0  0  0  0  0  0  0  0  0  0
  142.8680   77.5380  217.8940 C   0  0  0  0  0  0  0  0  0  0  0  0
  142.8650   76.4490  218.7720 C   0  0  0  0  0  0  0  0  0  0  0  0
  142.3470   76.5920  220.0630 C   0  0  0  0  0  0  0  0  0  0  0  0
  140.4656   72.4310  221.0766 H   0  0  0  0  0  0  0  0  0  0  0  0
  139.4559   75.1402  220.1730 H   0  0  0  0  0  0  0  0  0  0  0  0
  138.2930   74.6300  221.4525 H   0  0  0  0  0  0  0  0  0  0  0  0
  138.9124   77.2371  220.8961 H   0  0  0  0  0  0  0  0  0  0  0  0
  138.3669   76.6267  222.5183 H   0  0  0  0  0  0  0  0  0  0  0  0
  140.7321   76.6139  223.3386 H   0  0  0  0  0  0  0  0  0  0  0  0
  139.5535   79.8975  222.8234 H   0  0  0  0  0  0  0  0  0  0  0  0
  140.1613   81.9211  224.1499 H   0  0  0  0  0  0  0  0  0  0  0  0
  142.5506   82.3856  224.7033 H   0  0  0  0  0  0  0  0  0  0  0  0
  144.3348   80.8188  223.9435 H   0  0  0  0  0  0  0  0  0  0  0  0
  143.7431   78.7905  222.6205 H   0  0  0  0  0  0  0  0  0  0  0  0
  141.4067   79.8812  219.9085 H   0  0  0  0  0  0  0  0  0  0  0  0
  142.3475   79.6224  217.6111 H   0  0  0  0  0  0  0  0  0  0  0  0
  143.2800   77.4257  216.8803 H   0  0  0  0  0  0  0  0  0  0  0  0
  143.2704   75.4795  218.4467 H   0  0  0  0  0  0  0  0  0  0  0  0
  142.3346   75.7309  220.7473 H   0  0  0  0  0  0  0  0  0  0  0  0
  1  2  2  0
  2  3  1  0
  3  4  1  0
  4  5  1  0
  5  6  1  0
  6  7  2  3
  7  8  1  0
  8  9  2  0
  9 10  1  0
 10 11  2  0
 11 12  1  0
 12 13  2  0
  7 14  1  0
 14 15  2  0
 15 16  1  0
 16 17  2  0
 17 18  1  0
 18 19  2  0
 13  8  1  0
 19 14  1  0
  2 20  1  0
  4 21  1  0
  4 22  1  0
  5 23  1  0
  5 24  1  0
  6 25  1  0
  9 26  1  0
 10 27  1  0
 11 28  1  0
 12 29  1  0
 13 30  1  0
 15 31  1  0
 16 32  1  0
 17 33  1  0
 18 34  1  0
 19 35  1  0
M  CHG  1   3  -1
M  END
>  <UniqueID>  (3) 
37

>  <SMILES>  (3) 
O=C[N-]CCC=C(c1ccccc1)c1ccccc1

>  <Energy>  (3) 
41.004580599123514

>  <Genealogy>  (3) 
O=C[N-]CCC=C(c1ccccc1)c1ccccc1 (protonated)
O=C[N-]CCC=C(c1ccccc1)c1ccccc1 (3D coordinates assigned)
O=C[N-]CCC=C(c1ccccc1)c1ccccc1 (optimized conformer: 41.004580599123514 kcal/mol)

>  <smiles>  (3) 
O=CNCCC=C(c1ccccc1)c1ccccc1

>  <score_type>  (3) 
oracle

>  <origin>  (3) 
autodockgpu

>  <m_score__min__energy>  (3) 
-5.8099999999999996

>  <m_primary>  (3) 
energy

>  <meeko>  (3) 
{"free_energy": -5.28, "intermolecular_energy": -7.37, "internal_energy": -1.02, "cluster_size": 7, "cluster_id": 2, "rank_in_cluster": 3}

>  <energy>  (3) 
-5.77

>  <cluster_rmsd>  (3) 
0.16

>  <rmsd>  (3) 
272.67

>  <cluster>  (3) 
1

$$$$
NYPVCQFMQXTFET-ONIAVQPKNA-M
     RDKit          3D

 35 36  0  0  0  0  0  0  0  0999 V2000
  141.9850   73.8070  221.1940 O   0  0  0  0  0  0  0  0  0  0  0  0
  140.9010   73.3090  221.5960 C   0  0  0  0  0  0  0  0  0  0  0  0
  139.9300   74.1130  222.2660 N   0  0  0  0  0  0  0  0  0  0  0  0
  139.0380   75.0250  221.5580 C   0  0  0  0  0  0  0  0  0  0  0  0
  139.2770   76.4660  222.0160 C   0  0  0  0  0  0  0  0  0  0  0  0
  140.7390   76.7550  222.2510 C   0  0  0  0  0  0  0  0  0  0  0  0
  141.4140   77.7980  221.7220 C   0  0  0  0  0  0  0  0  0  0  0  0
  141.6400   79.0270  222.5300 C   0  0  0  0  0  0  0  0  0  0  0  0
  140.5560   79.7620  223.0520 C   0  0  0  0  0  0  0  0  0  0  0  0
  140.7830   80.9060  223.8240 C   0  0  0  0  0  0  0  0  0  0  0  0
  142.0890   81.3260  224.0870 C   0  0  0  0  0  0  0  0  0  0  0  0
  143.1700   80.6020  223.5830 C   0  0  0  0  0  0  0  0  0  0  0  0
  142.9500   79.4580  222.8110 C   0  0  0  0  0  0  0  0  0  0  0  0
  141.9520   77.7580  220.3420 C   0  0  0  0  0  0  0  0  0  0  0  0
  141.8160   78.8790  219.5080 C   0  0  0  0  0  0  0  0  0  0  0  0
  142.2950   78.8420  218.1950 C   0  0  0  0  0  0  0  0  0  0  0  0
  142.8970   77.6810  217.7010 C   0  0  0  0  0  0  0  0  0  0  0  0
  143.0160   76.5530  218.5190 C   0  0  0  0  0  0  0  0  0  0  0  0
  142.5390   76.5870  219.8330 C   0  0  0  0  0  0  0  0  0  0  0  0
  140.6993   72.2406  221.4289 H   0  0  0  0  0  0  0  0  0  0  0  0
  139.2280   74.9518  220.4770 H   0  0  0  0  0  0  0  0  0  0  0  0
  137.9963   74.7483  221.7777 H   0  0  0  0  0  0  0  0  0  0  0  0
  138.9007   77.1507  221.2417 H   0  0  0  0  0  0  0  0  0  0  0  0
  138.7473   76.6093  222.9694 H   0  0  0  0  0  0  0  0  0  0  0  0
  141.2964   76.0649  222.9015 H   0  0  0  0  0  0  0  0  0  0  0  0
  139.5255   79.4338  222.8509 H   0  0  0  0  0  0  0  0  0  0  0  0
  139.9317   81.4759  224.2247 H   0  0  0  0  0  0  0  0  0  0  0  0
  142.2653   82.2278  224.6917 H   0  0  0  0  0  0  0  0  0  0  0  0
  144.1978   80.9324  223.7938 H   0  0  0  0  0  0  0  0  0  0  0  0
  143.8071   78.8901  222.4201 H   0  0  0  0  0  0  0  0  0  0  0  0
  141.3308   79.7898  219.8889 H   0  0  0  0  0  0  0  0  0  0  0  0
  142.1980   79.7276  217.5498 H   0  0  0  0  0  0  0  0  0  0  0  0
  143.2770   77.6547  216.6691 H   0  0  0  0  0  0  0  0  0  0  0  0
  143.4853   75.6381  218.1283 H   0  0  0  0  0  0  0  0  0  0  0  0
  142.6235   75.6944  220.4702 H   0  0  0  0  0  0  0  0  0  0  0  0
  1  2  2  0
  2  3  1  0
  3  4  1  0
  4  5  1  0
  5  6  1  0
  6  7  2  3
  7  8  1  0
  8  9  2  0
  9 10  1  0
 10 11  2  0
 11 12  1  0
 12 13  2  0
  7 14  1  0
 14 15  2  0
 15 16  1  0
 16 17  2  0
 17 18  1  0
 18 19  2  0
 13  8  1  0
 19 14  1  0
  2 20  1  0
  4 21  1  0
  4 22  1  0
  5 23  1  0
  5 24  1  0
  6 25  1  0
  9 26  1  0
 10 27  1  0
 11 28  1  0
 12 29  1  0
 13 30  1  0
 15 31  1  0
 16 32  1  0
 17 33  1  0
 18 34  1  0
 19 35  1  0
M  CHG  1   3  -1
M  END
>  <UniqueID>  (4) 
37

>  <SMILES>  (4) 
O=C[N-]CCC=C(c1ccccc1)c1ccccc1

>  <Energy>  (4) 
41.004580599123514

>  <Genealogy>  (4) 
O=C[N-]CCC=C(c1ccccc1)c1ccccc1 (protonated)
O=C[N-]CCC=C(c1ccccc1)c1ccccc1 (3D coordinates assigned)
O=C[N-]CCC=C(c1ccccc1)c1ccccc1 (optimized conformer: 41.004580599123514 kcal/mol)

>  <smiles>  (4) 
O=CNCCC=C(c1ccccc1)c1ccccc1

>  <score_type>  (4) 
oracle

>  <origin>  (4) 
autodockgpu

>  <m_score__min__energy>  (4) 
-5.8099999999999996

>  <m_primary>  (4) 
energy

>  <meeko>  (4) 
{"free_energy": -5.08, "intermolecular_energy": -7.17, "internal_energy": -1.15, "cluster_size": 7, "cluster_id": 2, "rank_in_cluster": 6}

>  <energy>  (4) 
-5.68

>  <cluster_rmsd>  (4) 
1.23

>  <rmsd>  (4) 
272.4

>  <cluster>  (4) 
1

$$$$
NYPVCQFMQXTFET-ONIAVQPKNA-M
     RDKit          3D

 35 36  0  0  0  0  0  0  0  0999 V2000
  133.5640   68.8080  226.3960 O   0  0  0  0  0  0  0  0  0  0  0  0
  134.0800   67.8770  225.7230 C   0  0  0  0  0  0  0  0  0  0  0  0
  134.3110   68.0300  224.3220 N   0  0  0  0  0  0  0  0  0  0  0  0
  135.2450   69.0110  223.7800 C   0  0  0  0  0  0  0  0  0  0  0  0
  136.1110   69.5950  224.8990 C   0  0  0  0  0  0  0  0  0  0  0  0
  137.5210   69.0590  224.8690 C   0  0  0  0  0  0  0  0  0  0  0  0
  138.6360   69.8120  224.9940 C   0  0  0  0  0  0  0  0  0  0  0  0
  139.5350   69.6230  226.1650 C   0  0  0  0  0  0  0  0  0  0  0  0
  139.9610   68.3380  226.5530 C   0  0  0  0  0  0  0  0  0  0  0  0
  140.8190   68.1760  227.6460 C   0  0  0  0  0  0  0  0  0  0  0  0
  141.2650   69.2920  228.3580 C   0  0  0  0  0  0  0  0  0  0  0  0
  140.8570   70.5710  227.9770 C   0  0  0  0  0  0  0  0  0  0  0  0
  140.0000   70.7400  226.8860 C   0  0  0  0  0  0  0  0  0  0  0  0
  139.0030   70.8330  223.9860 C   0  0  0  0  0  0  0  0  0  0  0  0
  140.3520   71.1740  223.7990 C   0  0  0  0  0  0  0  0  0  0  0  0
  140.7070   72.1570  222.8690 C   0  0  0  0  0  0  0  0  0  0  0  0
  139.7190   72.8160  222.1350 C   0  0  0  0  0  0  0  0  0  0  0  0
  138.3710   72.4990  222.3330 C   0  0  0  0  0  0  0  0  0  0  0  0
  138.0120   71.5160  223.2600 C   0  0  0  0  0  0  0  0  0  0  0  0
  134.3559   66.9352  226.2199 H   0  0  0  0  0  0  0  0  0  0  0  0
  135.8929   68.5232  223.0368 H   0  0  0  0  0  0  0  0  0  0  0  0
  134.6751   69.8244  223.3071 H   0  0  0  0  0  0  0  0  0  0  0  0
  136.1455   70.6886  224.7858 H   0  0  0  0  0  0  0  0  0  0  0  0
  135.6606   69.3053  225.8599 H   0  0  0  0  0  0  0  0  0  0  0  0
  137.6510   67.9749  224.7355 H   0  0  0  0  0  0  0  0  0  0  0  0
  139.6169   67.4560  225.9930 H   0  0  0  0  0  0  0  0  0  0  0  0
  141.1429   67.1683  227.9452 H   0  0  0  0  0  0  0  0  0  0  0  0
  141.9376   69.1627  229.2187 H   0  0  0  0  0  0  0  0  0  0  0  0
  141.2110   71.4490  228.5372 H   0  0  0  0  0  0  0  0  0  0  0  0
  139.6867   71.7516  226.5886 H   0  0  0  0  0  0  0  0  0  0  0  0
  141.1322   70.6667  224.3855 H   0  0  0  0  0  0  0  0  0  0  0  0
  141.7662   72.4111  222.7158 H   0  0  0  0  0  0  0  0  0  0  0  0
  140.0007   73.5849  221.4006 H   0  0  0  0  0  0  0  0  0  0  0  0
  137.5930   73.0235  221.7589 H   0  0  0  0  0  0  0  0  0  0  0  0
  136.9507   71.2763  223.4217 H   0  0  0  0  0  0  0  0  0  0  0  0
  1  2  2  0
  2  3  1  0
  3  4  1  0
  4  5  1  0
  5  6  1  0
  6  7  2  3
  7  8  1  0
  8  9  2  0
  9 10  1  0
 10 11  2  0
 11 12  1  0
 12 13  2  0
  7 14  1  0
 14 15  2  0
 15 16  1  0
 16 17  2  0
 17 18  1  0
 18 19  2  0
 13  8  1  0
 19 14  1  0
  2 20  1  0
  4 21  1  0
  4 22  1  0
  5 23  1  0
  5 24  1  0
  6 25  1  0
  9 26  1  0
 10 27  1  0
 11 28  1  0
 12 29  1  0
 13 30  1  0
 15 31  1  0
 16 32  1  0
 17 33  1  0
 18 34  1  0
 19 35  1  0
M  CHG  1   3  -1
M  END
>  <UniqueID>  (5) 
37

>  <SMILES>  (5) 
O=C[N-]CCC=C(c1ccccc1)c1ccccc1

>  <Energy>  (5) 
41.004580599123514

>  <Genealogy>  (5) 
O=C[N-]CCC=C(c1ccccc1)c1ccccc1 (protonated)
O=C[N-]CCC=C(c1ccccc1)c1ccccc1 (3D coordinates assigned)
O=C[N-]CCC=C(c1ccccc1)c1ccccc1 (optimized conformer: 41.004580599123514 kcal/mol)

>  <smiles>  (5) 
O=CNCCC=C(c1ccccc1)c1ccccc1

>  <score_type>  (5) 
oracle

>  <origin>  (5) 
autodockgpu

>  <m_score__min__energy>  (5) 
-5.8099999999999996

>  <m_primary>  (5) 
energy

>  <meeko>  (5) 
{"free_energy": -5.66, "intermolecular_energy": -7.75, "internal_energy": -0.83, "cluster_size": 12, "cluster_id": 1, "rank_in_cluster": 5}

>  <energy>  (5) 
-5.66

>  <cluster_rmsd>  (5) 
1.01

>  <rmsd>  (5) 
272.58

>  <cluster>  (5) 
1

$$$$
NYPVCQFMQXTFET-ONIAVQPKNA-M
     RDKit          3D

 35 36  0  0  0  0  0  0  0  0999 V2000
  133.9490   68.8330  226.4750 O   0  0  0  0  0  0  0  0  0  0  0  0
  134.0880   68.1450  225.4290 C   0  0  0  0  0  0  0  0  0  0  0  0
  135.0400   68.5160  224.4320 N   0  0  0  0  0  0  0  0  0  0  0  0
  136.2560   69.2610  224.7420 C   0  0  0  0  0  0  0  0  0  0  0  0
  137.3460   68.9500  223.7130 C   0  0  0  0  0  0  0  0  0  0  0  0
  138.7330   69.0770  224.2940 C   0  0  0  0  0  0  0  0  0  0  0  0
  139.3740   70.2460  224.5120 C   0  0  0  0  0  0  0  0  0  0  0  0
  139.4570   71.2640  223.4290 C   0  0  0  0  0  0  0  0  0  0  0  0
  140.6960   71.6190  222.8600 C   0  0  0  0  0  0  0  0  0  0  0  0
  140.7570   72.5650  221.8320 C   0  0  0  0  0  0  0  0  0  0  0  0
  139.5860   73.1630  221.3580 C   0  0  0  0  0  0  0  0  0  0  0  0
  138.3520   72.8120  221.9080 C   0  0  0  0  0  0  0  0  0  0  0  0
  138.2840   71.8670  222.9350 C   0  0  0  0  0  0  0  0  0  0  0  0
  140.0040   70.5560  225.8160 C   0  0  0  0  0  0  0  0  0  0  0  0
  139.8650   69.6610  226.8890 C   0  0  0  0  0  0  0  0  0  0  0  0
  140.4320   69.9590  228.1320 C   0  0  0  0  0  0  0  0  0  0  0  0
  141.1260   71.1580  228.3160 C   0  0  0  0  0  0  0  0  0  0  0  0
  141.2490   72.0640  227.2590 C   0  0  0  0  0  0  0  0  0  0  0  0
  140.6850   71.7700  226.0140 C   0  0  0  0  0  0  0  0  0  0  0  0
  133.4686   67.2479  225.2821 H   0  0  0  0  0  0  0  0  0  0  0  0
  136.0361   70.3386  224.7234 H   0  0  0  0  0  0  0  0  0  0  0  0
  136.6116   68.9664  225.7404 H   0  0  0  0  0  0  0  0  0  0  0  0
  137.2070   67.9209  223.3501 H   0  0  0  0  0  0  0  0  0  0  0  0
  137.2551   69.6794  222.8946 H   0  0  0  0  0  0  0  0  0  0  0  0
  139.2610   68.1493  224.5596 H   0  0  0  0  0  0  0  0  0  0  0  0
  141.6207   71.1493  223.2265 H   0  0  0  0  0  0  0  0  0  0  0  0
  141.7287   72.8391  221.3954 H   0  0  0  0  0  0  0  0  0  0  0  0
  139.6368   73.9098  220.5520 H   0  0  0  0  0  0  0  0  0  0  0  0
  137.4306   73.2806  221.5319 H   0  0  0  0  0  0  0  0  0  0  0  0
  137.3076   71.5921  223.3606 H   0  0  0  0  0  0  0  0  0  0  0  0
  139.3082   68.7224  226.7513 H   0  0  0  0  0  0  0  0  0  0  0  0
  140.3317   69.2488  228.9660 H   0  0  0  0  0  0  0  0  0  0  0  0
  141.5756   71.3887  229.2931 H   0  0  0  0  0  0  0  0  0  0  0  0
  141.7905   73.0100  227.4069 H   0  0  0  0  0  0  0  0  0  0  0  0
  140.7743   72.4902  225.1874 H   0  0  0  0  0  0  0  0  0  0  0  0
  1  2  2  0
  2  3  1  0
  3  4  1  0
  4  5  1  0
  5  6  1  0
  6  7  2  3
  7  8  1  0
  8  9  2  0
  9 10  1  0
 10 11  2  0
 11 12  1  0
 12 13  2  0
  7 14  1  0
 14 15  2  0
 15 16  1  0
 16 17  2  0
 17 18  1  0
 18 19  2  0
 13  8  1  0
 19 14  1  0
  2 20  1  0
  4 21  1  0
  4 22  1  0
  5 23  1  0
  5 24  1  0
  6 25  1  0
  9 26  1  0
 10 27  1  0
 11 28  1  0
 12 29  1  0
 13 30  1  0
 15 31  1  0
 16 32  1  0
 17 33  1  0
 18 34  1  0
 19 35  1  0
M  CHG  1   3  -1
M  END
>  <UniqueID>  (6) 
37

>  <SMILES>  (6) 
O=C[N-]CCC=C(c1ccccc1)c1ccccc1

>  <Energy>  (6) 
41.004580599123514

>  <Genealogy>  (6) 
O=C[N-]CCC=C(c1ccccc1)c1ccccc1 (protonated)
O=C[N-]CCC=C(c1ccccc1)c1ccccc1 (3D coordinates assigned)
O=C[N-]CCC=C(c1ccccc1)c1ccccc1 (optimized conformer: 41.004580599123514 kcal/mol)

>  <smiles>  (6) 
O=CNCCC=C(c1ccccc1)c1ccccc1

>  <score_type>  (6) 
oracle

>  <origin>  (6) 
autodockgpu

>  <m_score__min__energy>  (6) 
-5.8099999999999996

>  <m_primary>  (6) 
energy

>  <meeko>  (6) 
{"free_energy": -5.78, "intermolecular_energy": -7.87, "internal_energy": -0.83, "cluster_size": 12, "cluster_id": 1, "rank_in_cluster": 2}

>  <energy>  (6) 
-5.58

>  <cluster_rmsd>  (6) 
1.25

>  <rmsd>  (6) 
272.48

>  <cluster>  (6) 
1

$$$$
NYPVCQFMQXTFET-ONIAVQPKNA-M
     RDKit          3D

 35 36  0  0  0  0  0  0  0  0999 V2000
  133.9810   68.8710  226.4920 O   0  0  0  0  0  0  0  0  0  0  0  0
  133.9020   68.7140  225.2450 C   0  0  0  0  0  0  0  0  0  0  0  0
  135.0790   68.5970  224.4460 N   0  0  0  0  0  0  0  0  0  0  0  0
  136.3350   69.2530  224.7930 C   0  0  0  0  0  0  0  0  0  0  0  0
  137.4270   68.8760  223.7890 C   0  0  0  0  0  0  0  0  0  0  0  0
  138.8130   69.1170  224.3340 C   0  0  0  0  0  0  0  0  0  0  0  0
  139.3720   70.3350  224.5080 C   0  0  0  0  0  0  0  0  0  0  0  0
  139.9630   70.7020  225.8240 C   0  0  0  0  0  0  0  0  0  0  0  0
  140.7180   71.8820  225.9770 C   0  0  0  0  0  0  0  0  0  0  0  0
  141.2530   72.2230  227.2230 C   0  0  0  0  0  0  0  0  0  0  0  0
  141.0390   71.3960  228.3290 C   0  0  0  0  0  0  0  0  0  0  0  0
  140.2860   70.2290  228.1910 C   0  0  0  0  0  0  0  0  0  0  0  0
  139.7480   69.8830  226.9490 C   0  0  0  0  0  0  0  0  0  0  0  0
  139.4240   71.3320  223.4140 C   0  0  0  0  0  0  0  0  0  0  0  0
  140.6660   71.7490  222.9090 C   0  0  0  0  0  0  0  0  0  0  0  0
  140.7270   72.7110  221.8960 C   0  0  0  0  0  0  0  0  0  0  0  0
  139.5510   73.2730  221.3920 C   0  0  0  0  0  0  0  0  0  0  0  0
  138.3110   72.8800  221.9060 C   0  0  0  0  0  0  0  0  0  0  0  0
  138.2460   71.9180  222.9190 C   0  0  0  0  0  0  0  0  0  0  0  0
  132.9132   68.6664  224.7653 H   0  0  0  0  0  0  0  0  0  0  0  0
  136.1906   70.3434  224.7795 H   0  0  0  0  0  0  0  0  0  0  0  0
  136.6438   68.9259  225.7968 H   0  0  0  0  0  0  0  0  0  0  0  0
  137.3254   67.8095  223.5395 H   0  0  0  0  0  0  0  0  0  0  0  0
  137.3000   69.5103  222.8993 H   0  0  0  0  0  0  0  0  0  0  0  0
  139.4124   68.2369  224.6099 H   0  0  0  0  0  0  0  0  0  0  0  0
  140.8875   72.5388  225.1110 H   0  0  0  0  0  0  0  0  0  0  0  0
  141.8437   73.1444  227.3329 H   0  0  0  0  0  0  0  0  0  0  0  0
  141.4637   71.6646  229.3075 H   0  0  0  0  0  0  0  0  0  0  0  0
  140.1157   69.5799  229.0626 H   0  0  0  0  0  0  0  0  0  0  0  0
  139.1520   68.9639  226.8492 H   0  0  0  0  0  0  0  0  0  0  0  0
  141.5942   71.3174  223.3116 H   0  0  0  0  0  0  0  0  0  0  0  0
  141.7019   73.0258  221.4953 H   0  0  0  0  0  0  0  0  0  0  0  0
  139.6005   74.0249  220.5906 H   0  0  0  0  0  0  0  0  0  0  0  0
  137.3863   73.3279  221.5132 H   0  0  0  0  0  0  0  0  0  0  0  0
  137.2703   71.6190  223.3296 H   0  0  0  0  0  0  0  0  0  0  0  0
  1  2  2  0
  2  3  1  0
  3  4  1  0
  4  5  1  0
  5  6  1  0
  6  7  2  3
  7  8  1  0
  8  9  2  0
  9 10  1  0
 10 11  2  0
 11 12  1  0
 12 13  2  0
  7 14  1  0
 14 15  2  0
 15 16  1  0
 16 17  2  0
 17 18  1  0
 18 19  2  0
 13  8  1  0
 19 14  1  0
  2 20  1  0
  4 21  1  0
  4 22  1  0
  5 23  1  0
  5 24  1  0
  6 25  1  0
  9 26  1  0
 10 27  1  0
 11 28  1  0
 12 29  1  0
 13 30  1  0
 15 31  1  0
 16 32  1  0
 17 33  1  0
 18 34  1  0
 19 35  1  0
M  CHG  1   3  -1
M  END
>  <UniqueID>  (7) 
37

>  <SMILES>  (7) 
O=C[N-]CCC=C(c1ccccc1)c1ccccc1

>  <Energy>  (7) 
41.004580599123514

>  <Genealogy>  (7) 
O=C[N-]CCC=C(c1ccccc1)c1ccccc1 (protonated)
O=C[N-]CCC=C(c1ccccc1)c1ccccc1 (3D coordinates assigned)
O=C[N-]CCC=C(c1ccccc1)c1ccccc1 (optimized conformer: 41.004580599123514 kcal/mol)

>  <smiles>  (7) 
O=CNCCC=C(c1ccccc1)c1ccccc1

>  <score_type>  (7) 
oracle

>  <origin>  (7) 
autodockgpu

>  <m_score__min__energy>  (7) 
-5.8099999999999996

>  <m_primary>  (7) 
energy

>  <meeko>  (7) 
{"free_energy": -5.77, "intermolecular_energy": -7.86, "internal_energy": -0.83, "cluster_size": 12, "cluster_id": 1, "rank_in_cluster": 3}

>  <energy>  (7) 
-5.58

>  <cluster_rmsd>  (7) 
1.33

>  <rmsd>  (7) 
272.41

>  <cluster>  (7) 
1

$$$$
NYPVCQFMQXTFET-ONIAVQPKNA-M
     RDKit          3D

 35 36  0  0  0  0  0  0  0  0999 V2000
  140.3750   72.4610  223.0760 O   0  0  0  0  0  0  0  0  0  0  0  0
  139.8100   73.0610  222.1240 C   0  0  0  0  0  0  0  0  0  0  0  0
  139.9480   74.4730  221.9660 N   0  0  0  0  0  0  0  0  0  0  0  0
  138.8030   75.3710  221.8710 C   0  0  0  0  0  0  0  0  0  0  0  0
  139.2030   76.7890  222.2880 C   0  0  0  0  0  0  0  0  0  0  0  0
  140.7000   76.9700  222.3340 C   0  0  0  0  0  0  0  0  0  0  0  0
  141.3680   78.0100  221.7900 C   0  0  0  0  0  0  0  0  0  0  0  0
  141.6430   79.2260  222.6030 C   0  0  0  0  0  0  0  0  0  0  0  0
  142.9500   79.5340  223.0300 C   0  0  0  0  0  0  0  0  0  0  0  0
  143.1960   80.6890  223.7790 C   0  0  0  0  0  0  0  0  0  0  0  0
  142.1460   81.5500  224.1060 C   0  0  0  0  0  0  0  0  0  0  0  0
  140.8480   81.2600  223.6810 C   0  0  0  0  0  0  0  0  0  0  0  0
  140.5960   80.1080  222.9310 C   0  0  0  0  0  0  0  0  0  0  0  0
  141.8510   77.9790  220.3900 C   0  0  0  0  0  0  0  0  0  0  0  0
  142.4500   76.8150  219.8840 C   0  0  0  0  0  0  0  0  0  0  0  0
  142.9340   76.7850  218.5720 C   0  0  0  0  0  0  0  0  0  0  0  0
  142.8390   77.9210  217.7640 C   0  0  0  0  0  0  0  0  0  0  0  0
  142.2640   79.0920  218.2680 C   0  0  0  0  0  0  0  0  0  0  0  0
  141.7780   79.1250  219.5790 C   0  0  0  0  0  0  0  0  0  0  0  0
  139.2030   72.4904  221.4057 H   0  0  0  0  0  0  0  0  0  0  0  0
  138.4397   75.3870  220.8329 H   0  0  0  0  0  0  0  0  0  0  0  0
  138.0096   75.0112  222.5426 H   0  0  0  0  0  0  0  0  0  0  0  0
  138.7822   77.5027  221.5644 H   0  0  0  0  0  0  0  0  0  0  0  0
  138.8108   76.9659  223.3003 H   0  0  0  0  0  0  0  0  0  0  0  0
  141.2910   76.1980  222.8486 H   0  0  0  0  0  0  0  0  0  0  0  0
  143.7818   78.8618  222.7726 H   0  0  0  0  0  0  0  0  0  0  0  0
  144.2188   80.9200  224.1114 H   0  0  0  0  0  0  0  0  0  0  0  0
  142.3415   82.4562  224.6981 H   0  0  0  0  0  0  0  0  0  0  0  0
  140.0220   81.9398  223.9371 H   0  0  0  0  0  0  0  0  0  0  0  0
  139.5719   79.8888  222.5945 H   0  0  0  0  0  0  0  0  0  0  0  0
  142.5392   75.9230  220.5215 H   0  0  0  0  0  0  0  0  0  0  0  0
  143.3901   75.8658  218.1758 H   0  0  0  0  0  0  0  0  0  0  0  0
  143.2166   77.8943  216.7312 H   0  0  0  0  0  0  0  0  0  0  0  0
  142.1940   79.9875  217.6330 H   0  0  0  0  0  0  0  0  0  0  0  0
  141.3371   80.0509  219.9769 H   0  0  0  0  0  0  0  0  0  0  0  0
  1  2  2  0
  2  3  1  0
  3  4  1  0
  4  5  1  0
  5  6  1  0
  6  7  2  3
  7  8  1  0
  8  9  2  0
  9 10  1  0
 10 11  2  0
 11 12  1  0
 12 13  2  0
  7 14  1  0
 14 15  2  0
 15 16  1  0
 16 17  2  0
 17 18  1  0
 18 19  2  0
 13  8  1  0
 19 14  1  0
  2 20  1  0
  4 21  1  0
  4 22  1  0
  5 23  1  0
  5 24  1  0
  6 25  1  0
  9 26  1  0
 10 27  1  0
 11 28  1  0
 12 29  1  0
 13 30  1  0
 15 31  1  0
 16 32  1  0
 17 33  1  0
 18 34  1  0
 19 35  1  0
M  CHG  1   3  -1
M  END
>  <UniqueID>  (8) 
37

>  <SMILES>  (8) 
O=C[N-]CCC=C(c1ccccc1)c1ccccc1

>  <Energy>  (8) 
41.004580599123514

>  <Genealogy>  (8) 
O=C[N-]CCC=C(c1ccccc1)c1ccccc1 (protonated)
O=C[N-]CCC=C(c1ccccc1)c1ccccc1 (3D coordinates assigned)
O=C[N-]CCC=C(c1ccccc1)c1ccccc1 (optimized conformer: 41.004580599123514 kcal/mol)

>  <smiles>  (8) 
O=CNCCC=C(c1ccccc1)c1ccccc1

>  <score_type>  (8) 
oracle

>  <origin>  (8) 
autodockgpu

>  <m_score__min__energy>  (8) 
-5.8099999999999996

>  <m_primary>  (8) 
energy

>  <meeko>  (8) 
{"free_energy": -5.36, "intermolecular_energy": -7.45, "internal_energy": -0.97, "cluster_size": 7, "cluster_id": 2, "rank_in_cluster": 1}

>  <energy>  (8) 
-5.58

>  <cluster_rmsd>  (8) 
1.28

>  <rmsd>  (8) 
272.58

>  <cluster>  (8) 
1

$$$$
NYPVCQFMQXTFET-ONIAVQPKNA-M
     RDKit          3D

 35 36  0  0  0  0  0  0  0  0999 V2000
  133.9310   68.4780  226.4480 O   0  0  0  0  0  0  0  0  0  0  0  0
  133.6390   68.4820  225.2230 C   0  0  0  0  0  0  0  0  0  0  0  0
  134.6120   68.1310  224.2390 N   0  0  0  0  0  0  0  0  0  0  0  0
  135.5260   69.1040  223.6530 C   0  0  0  0  0  0  0  0  0  0  0  0
  136.3430   69.7940  224.7490 C   0  0  0  0  0  0  0  0  0  0  0  0
  137.5750   69.0060  225.1230 C   0  0  0  0  0  0  0  0  0  0  0  0
  138.8350   69.4940  225.1150 C   0  0  0  0  0  0  0  0  0  0  0  0
  139.7280   69.2690  226.2840 C   0  0  0  0  0  0  0  0  0  0  0  0
  140.0370   70.3170  227.1740 C   0  0  0  0  0  0  0  0  0  0  0  0
  140.8650   70.0880  228.2780 C   0  0  0  0  0  0  0  0  0  0  0  0
  141.3880   68.8130  228.5080 C   0  0  0  0  0  0  0  0  0  0  0  0
  141.0820   67.7650  227.6390 C   0  0  0  0  0  0  0  0  0  0  0  0
  140.2550   67.9880  226.5340 C   0  0  0  0  0  0  0  0  0  0  0  0
  139.3690   70.2540  223.9610 C   0  0  0  0  0  0  0  0  0  0  0  0
  139.9810   71.5000  224.1690 C   0  0  0  0  0  0  0  0  0  0  0  0
  140.4630   72.2380  223.0830 C   0  0  0  0  0  0  0  0  0  0  0  0
  140.3220   71.7450  221.7840 C   0  0  0  0  0  0  0  0  0  0  0  0
  139.6930   70.5150  221.5660 C   0  0  0  0  0  0  0  0  0  0  0  0
  139.2100   69.7740  222.6490 C   0  0  0  0  0  0  0  0  0  0  0  0
  132.6223   68.7592  224.9075 H   0  0  0  0  0  0  0  0  0  0  0  0
  136.2089   68.5893  222.9611 H   0  0  0  0  0  0  0  0  0  0  0  0
  134.9416   69.8625  223.1116 H   0  0  0  0  0  0  0  0  0  0  0  0
  136.6528   70.7860  224.3885 H   0  0  0  0  0  0  0  0  0  0  0  0
  135.7084   69.8736  225.6439 H   0  0  0  0  0  0  0  0  0  0  0  0
  137.4368   67.9571  225.4243 H   0  0  0  0  0  0  0  0  0  0  0  0
  139.6244   71.3216  226.9994 H   0  0  0  0  0  0  0  0  0  0  0  0
  141.1045   70.9125  228.9657 H   0  0  0  0  0  0  0  0  0  0  0  0
  142.0415   68.6352  229.3748 H   0  0  0  0  0  0  0  0  0  0  0  0
  141.4923   66.7613  227.8238 H   0  0  0  0  0  0  0  0  0  0  0  0
  140.0145   67.1565  225.8552 H   0  0  0  0  0  0  0  0  0  0  0  0
  140.0819   71.8975  225.1897 H   0  0  0  0  0  0  0  0  0  0  0  0
  140.9537   73.2078  223.2523 H   0  0  0  0  0  0  0  0  0  0  0  0
  140.7060   72.3246  220.9316 H   0  0  0  0  0  0  0  0  0  0  0  0
  139.5781   70.1303  220.5419 H   0  0  0  0  0  0  0  0  0  0  0  0
  138.7043   68.8129  222.4741 H   0  0  0  0  0  0  0  0  0  0  0  0
  1  2  2  0
  2  3  1  0
  3  4  1  0
  4  5  1  0
  5  6  1  0
  6  7  2  3
  7  8  1  0
  8  9  2  0
  9 10  1  0
 10 11  2  0
 11 12  1  0
 12 13  2  0
  7 14  1  0
 14 15  2  0
 15 16  1  0
 16 17  2  0
 17 18  1  0
 18 19  2  0
 13  8  1  0
 19 14  1  0
  2 20  1  0
  4 21  1  0
  4 22  1  0
  5 23  1  0
  5 24  1  0
  6 25  1  0
  9 26  1  0
 10 27  1  0
 11 28  1  0
 12 29  1  0
 13 30  1  0
 15 31  1  0
 16 32  1  0
 17 33  1  0
 18 34  1  0
 19 35  1  0
M  CHG  1   3  -1
M  END
>  <UniqueID>  (9) 
37

>  <SMILES>  (9) 
O=C[N-]CCC=C(c1ccccc1)c1ccccc1

>  <Energy>  (9) 
41.004580599123514

>  <Genealogy>  (9) 
O=C[N-]CCC=C(c1ccccc1)c1ccccc1 (protonated)
O=C[N-]CCC=C(c1ccccc1)c1ccccc1 (3D coordinates assigned)
O=C[N-]CCC=C(c1ccccc1)c1ccccc1 (optimized conformer: 41.004580599123514 kcal/mol)

>  <smiles>  (9) 
O=CNCCC=C(c1ccccc1)c1ccccc1

>  <score_type>  (9) 
oracle

>  <origin>  (9) 
autodockgpu

>  <m_score__min__energy>  (9) 
-5.8099999999999996

>  <m_primary>  (9) 
energy

>  <meeko>  (9) 
{"free_energy": -5.58, "intermolecular_energy": -7.67, "internal_energy": -0.92, "cluster_size": 12, "cluster_id": 1, "rank_in_cluster": 8}

>  <energy>  (9) 
-5.57

>  <cluster_rmsd>  (9) 
1.37

>  <rmsd>  (9) 
272.38

>  <cluster>  (9) 
1

$$$$
NYPVCQFMQXTFET-ONIAVQPKNA-M
     RDKit          3D

 35 36  0  0  0  0  0  0  0  0999 V2000
  133.6200   68.3490  226.4690 O   0  0  0  0  0  0  0  0  0  0  0  0
  133.6960   67.6580  225.4190 C   0  0  0  0  0  0  0  0  0  0  0  0
  134.4430   68.1180  224.2930 N   0  0  0  0  0  0  0  0  0  0  0  0
  135.1590   69.3890  224.2880 C   0  0  0  0  0  0  0  0  0  0  0  0
  136.6560   69.1550  224.0750 C   0  0  0  0  0  0  0  0  0  0  0  0
  137.4920   70.2990  224.5950 C   0  0  0  0  0  0  0  0  0  0  0  0
  138.8430   70.3440  224.5630 C   0  0  0  0  0  0  0  0  0  0  0  0
  139.6300   69.9350  225.7580 C   0  0  0  0  0  0  0  0  0  0  0  0
  140.3120   70.8880  226.5390 C   0  0  0  0  0  0  0  0  0  0  0  0
  141.0350   70.4920  227.6700 C   0  0  0  0  0  0  0  0  0  0  0  0
  141.0800   69.1440  228.0350 C   0  0  0  0  0  0  0  0  0  0  0  0
  140.4010   68.1920  227.2740 C   0  0  0  0  0  0  0  0  0  0  0  0
  139.6770   68.5820  226.1440 C   0  0  0  0  0  0  0  0  0  0  0  0
  139.5790   70.7900  223.3580 C   0  0  0  0  0  0  0  0  0  0  0  0
  139.5770   69.9900  222.2040 C   0  0  0  0  0  0  0  0  0  0  0  0
  140.2930   70.3880  221.0710 C   0  0  0  0  0  0  0  0  0  0  0  0
  141.0270   71.5760  221.0870 C   0  0  0  0  0  0  0  0  0  0  0  0
  141.0520   72.3670  222.2400 C   0  0  0  0  0  0  0  0  0  0  0  0
  140.3370   71.9730  223.3750 C   0  0  0  0  0  0  0  0  0  0  0  0
  133.1802   66.6877  225.3689 H   0  0  0  0  0  0  0  0  0  0  0  0
  134.7713   70.0206  223.4751 H   0  0  0  0  0  0  0  0  0  0  0  0
  135.0093   69.8875  225.2570 H   0  0  0  0  0  0  0  0  0  0  0  0
  136.9490   68.2345  224.6012 H   0  0  0  0  0  0  0  0  0  0  0  0
  136.8339   69.0717  222.9927 H   0  0  0  0  0  0  0  0  0  0  0  0
  136.9635   71.1591  225.0320 H   0  0  0  0  0  0  0  0  0  0  0  0
  140.2762   71.9509  226.2582 H   0  0  0  0  0  0  0  0  0  0  0  0
  141.5682   71.2425  228.2720 H   0  0  0  0  0  0  0  0  0  0  0  0
  141.6509   68.8333  228.9225 H   0  0  0  0  0  0  0  0  0  0  0  0
  140.4356   67.1315  227.5642 H   0  0  0  0  0  0  0  0  0  0  0  0
  139.1400   67.8263  225.5519 H   0  0  0  0  0  0  0  0  0  0  0  0
  139.0104   69.0473  222.1913 H   0  0  0  0  0  0  0  0  0  0  0  0
  140.2782   69.7641  220.1651 H   0  0  0  0  0  0  0  0  0  0  0  0
  141.5855   71.8896  220.1927 H   0  0  0  0  0  0  0  0  0  0  0  0
  141.6347   73.2999  222.2539 H   0  0  0  0  0  0  0  0  0  0  0  0
  140.3680   72.5912  224.2843 H   0  0  0  0  0  0  0  0  0  0  0  0
  1  2  2  0
  2  3  1  0
  3  4  1  0
  4  5  1  0
  5  6  1  0
  6  7  2  3
  7  8  1  0
  8  9  2  0
  9 10  1  0
 10 11  2  0
 11 12  1  0
 12 13  2  0
  7 14  1  0
 14 15  2  0
 15 16  1  0
 16 17  2  0
 17 18  1  0
 18 19  2  0
 13  8  1  0
 19 14  1  0
  2 20  1  0
  4 21  1  0
  4 22  1  0
  5 23  1  0
  5 24  1  0
  6 25  1  0
  9 26  1  0
 10 27  1  0
 11 28  1  0
 12 29  1  0
 13 30  1  0
 15 31  1  0
 16 32  1  0
 17 33  1  0
 18 34  1  0
 19 35  1  0
M  CHG  1   3  -1
M  END
>  <UniqueID>  (10) 
37

>  <SMILES>  (10) 
O=C[N-]CCC=C(c1ccccc1)c1ccccc1

>  <Energy>  (10) 
41.004580599123514

>  <Genealogy>  (10) 
O=C[N-]CCC=C(c1ccccc1)c1ccccc1 (protonated)
O=C[N-]CCC=C(c1ccccc1)c1ccccc1 (3D coordinates assigned)
O=C[N-]CCC=C(c1ccccc1)c1ccccc1 (optimized conformer: 41.004580599123514 kcal/mol)

>  <smiles>  (10) 
O=CNCCC=C(c1ccccc1)c1ccccc1

>  <score_type>  (10) 
oracle

>  <origin>  (10) 
autodockgpu

>  <m_score__min__energy>  (10) 
-5.8099999999999996

>  <m_primary>  (10) 
energy

>  <meeko>  (10) 
{"free_energy": -5.38, "intermolecular_energy": -7.47, "internal_energy": -0.86, "cluster_size": 12, "cluster_id": 1, "rank_in_cluster": 12}

>  <energy>  (10) 
-5.56

>  <cluster_rmsd>  (10) 
1.38

>  <rmsd>  (10) 
272.37

>  <cluster>  (10) 
1

$$$$
NYPVCQFMQXTFET-ONIAVQPKNA-M
     RDKit          3D

 35 36  0  0  0  0  0  0  0  0999 V2000
  133.8910   68.5210  226.4370 O   0  0  0  0  0  0  0  0  0  0  0  0
  133.7040   68.0930  225.2680 C   0  0  0  0  0  0  0  0  0  0  0  0
  134.7320   68.1850  224.2820 N   0  0  0  0  0  0  0  0  0  0  0  0
  135.1130   69.4470  223.6560 C   0  0  0  0  0  0  0  0  0  0  0  0
  136.1530   70.1730  224.5130 C   0  0  0  0  0  0  0  0  0  0  0  0
  137.2620   69.2550  224.9640 C   0  0  0  0  0  0  0  0  0  0  0  0
  138.5740   69.5810  224.9810 C   0  0  0  0  0  0  0  0  0  0  0  0
  139.4410   69.1220  226.1000 C   0  0  0  0  0  0  0  0  0  0  0  0
  139.5750   69.8870  227.2750 C   0  0  0  0  0  0  0  0  0  0  0  0
  140.3810   69.4360  228.3260 C   0  0  0  0  0  0  0  0  0  0  0  0
  141.0550   68.2170  228.2190 C   0  0  0  0  0  0  0  0  0  0  0  0
  140.9220   67.4450  227.0640 C   0  0  0  0  0  0  0  0  0  0  0  0
  140.1180   67.8910  226.0100 C   0  0  0  0  0  0  0  0  0  0  0  0
  139.1900   70.3880  223.9030 C   0  0  0  0  0  0  0  0  0  0  0  0
  139.0530   69.9840  222.5650 C   0  0  0  0  0  0  0  0  0  0  0  0
  139.6550   70.7230  221.5420 C   0  0  0  0  0  0  0  0  0  0  0  0
  140.4100   71.8580  221.8480 C   0  0  0  0  0  0  0  0  0  0  0  0
  140.5700   72.2530  223.1800 C   0  0  0  0  0  0  0  0  0  0  0  0
  139.9690   71.5170  224.2060 C   0  0  0  0  0  0  0  0  0  0  0  0
  132.7361   67.6424  225.0030 H   0  0  0  0  0  0  0  0  0  0  0  0
  135.5390   69.2449  222.6622 H   0  0  0  0  0  0  0  0  0  0  0  0
  134.2206   70.0831  223.5615 H   0  0  0  0  0  0  0  0  0  0  0  0
  136.5894   70.9919  223.9222 H   0  0  0  0  0  0  0  0  0  0  0  0
  135.6440   70.5537  225.4108 H   0  0  0  0  0  0  0  0  0  0  0  0
  136.9827   68.2468  225.3038 H   0  0  0  0  0  0  0  0  0  0  0  0
  139.0426   70.8452  227.3670 H   0  0  0  0  0  0  0  0  0  0  0  0
  140.4841   70.0422  229.2380 H   0  0  0  0  0  0  0  0  0  0  0  0
  141.6906   67.8656  229.0452 H   0  0  0  0  0  0  0  0  0  0  0  0
  141.4506   66.4838  226.9824 H   0  0  0  0  0  0  0  0  0  0  0  0
  140.0139   67.2755  225.1043 H   0  0  0  0  0  0  0  0  0  0  0  0
  138.4703   69.0835  222.3210 H   0  0  0  0  0  0  0  0  0  0  0  0
  139.5339   70.4102  220.4944 H   0  0  0  0  0  0  0  0  0  0  0  0
  140.8785   72.4409  221.0413 H   0  0  0  0  0  0  0  0  0  0  0  0
  141.1692   73.1435  223.4209 H   0  0  0  0  0  0  0  0  0  0  0  0
  140.1067   71.8231  225.2535 H   0  0  0  0  0  0  0  0  0  0  0  0
  1  2  2  0
  2  3  1  0
  3  4  1  0
  4  5  1  0
  5  6  1  0
  6  7  2  3
  7  8  1  0
  8  9  2  0
  9 10  1  0
 10 11  2  0
 11 12  1  0
 12 13  2  0
  7 14  1  0
 14 15  2  0
 15 16  1  0
 16 17  2  0
 17 18  1  0
 18 19  2  0
 13  8  1  0
 19 14  1  0
  2 20  1  0
  4 21  1  0
  4 22  1  0
  5 23  1  0
  5 24  1  0
  6 25  1  0
  9 26  1  0
 10 27  1  0
 11 28  1  0
 12 29  1  0
 13 30  1  0
 15 31  1  0
 16 32  1  0
 17 33  1  0
 18 34  1  0
 19 35  1  0
M  CHG  1   3  -1
M  END
>  <UniqueID>  (11) 
37

>  <SMILES>  (11) 
O=C[N-]CCC=C(c1ccccc1)c1ccccc1

>  <Energy>  (11) 
41.004580599123514

>  <Genealogy>  (11) 
O=C[N-]CCC=C(c1ccccc1)c1ccccc1 (protonated)
O=C[N-]CCC=C(c1ccccc1)c1ccccc1 (3D coordinates assigned)
O=C[N-]CCC=C(c1ccccc1)c1ccccc1 (optimized conformer: 41.004580599123514 kcal/mol)

>  <smiles>  (11) 
O=CNCCC=C(c1ccccc1)c1ccccc1

>  <score_type>  (11) 
oracle

>  <origin>  (11) 
autodockgpu

>  <m_score__min__energy>  (11) 
-5.8099999999999996

>  <m_primary>  (11) 
energy

>  <meeko>  (11) 
{"free_energy": -5.58, "intermolecular_energy": -7.67, "internal_energy": -0.96, "cluster_size": 12, "cluster_id": 1, "rank_in_cluster": 7}

>  <energy>  (11) 
-5.53

>  <cluster_rmsd>  (11) 
0.39

>  <rmsd>  (11) 
272.63

>  <cluster>  (11) 
1

$$$$
NYPVCQFMQXTFET-ONIAVQPKNA-M
     RDKit          3D

 35 36  0  0  0  0  0  0  0  0999 V2000
  141.9560   73.7740  221.2100 O   0  0  0  0  0  0  0  0  0  0  0  0
  140.8550   73.3100  221.6080 C   0  0  0  0  0  0  0  0  0  0  0  0
  139.9290   74.1320  222.3190 N   0  0  0  0  0  0  0  0  0  0  0  0
  138.9880   75.0220  221.6470 C   0  0  0  0  0  0  0  0  0  0  0  0
  139.2160   76.4690  222.0910 C   0  0  0  0  0  0  0  0  0  0  0  0
  140.6740   76.7670  222.3410 C   0  0  0  0  0  0  0  0  0  0  0  0
  141.3600   77.7880  221.7830 C   0  0  0  0  0  0  0  0  0  0  0  0
  141.6250   79.0250  222.5670 C   0  0  0  0  0  0  0  0  0  0  0  0
  140.5670   79.7940  223.0890 C   0  0  0  0  0  0  0  0  0  0  0  0
  140.8310   80.9450  223.8390 C   0  0  0  0  0  0  0  0  0  0  0  0
  142.1500   81.3370  224.0800 C   0  0  0  0  0  0  0  0  0  0  0  0
  143.2070   80.5780  223.5760 C   0  0  0  0  0  0  0  0  0  0  0  0
  142.9500   79.4270  222.8260 C   0  0  0  0  0  0  0  0  0  0  0  0
  141.8710   77.7160  220.3940 C   0  0  0  0  0  0  0  0  0  0  0  0
  142.5060   76.5470  219.9450 C   0  0  0  0  0  0  0  0  0  0  0  0
  143.0170   76.4790  218.6450 C   0  0  0  0  0  0  0  0  0  0  0  0
  142.9130   77.5810  217.7930 C   0  0  0  0  0  0  0  0  0  0  0  0
  142.3030   78.7570  218.2410 C   0  0  0  0  0  0  0  0  0  0  0  0
  141.7900   78.8290  219.5400 C   0  0  0  0  0  0  0  0  0  0  0  0
  140.6036   72.2585  221.4054 H   0  0  0  0  0  0  0  0  0  0  0  0
  139.1332   74.9491  220.5591 H   0  0  0  0  0  0  0  0  0  0  0  0
  137.9626   74.7240  221.9111 H   0  0  0  0  0  0  0  0  0  0  0  0
  138.8468   77.1431  221.3041 H   0  0  0  0  0  0  0  0  0  0  0  0
  138.6740   76.6210  223.0361 H   0  0  0  0  0  0  0  0  0  0  0  0
  141.2186   76.1034  223.0288 H   0  0  0  0  0  0  0  0  0  0  0  0
  139.5265   79.4877  222.9059 H   0  0  0  0  0  0  0  0  0  0  0  0
  139.9987   81.5423  224.2396 H   0  0  0  0  0  0  0  0  0  0  0  0
  142.3555   82.2442  224.6672 H   0  0  0  0  0  0  0  0  0  0  0  0
  144.2450   80.8864  223.7695 H   0  0  0  0  0  0  0  0  0  0  0  0
  143.7880   78.8310  222.4354 H   0  0  0  0  0  0  0  0  0  0  0  0
  142.6018   75.6820  220.6178 H   0  0  0  0  0  0  0  0  0  0  0  0
  143.5015   75.5564  218.2929 H   0  0  0  0  0  0  0  0  0  0  0  0
  143.3111   77.5238  216.7692 H   0  0  0  0  0  0  0  0  0  0  0  0
  142.2266   79.6261  217.5711 H   0  0  0  0  0  0  0  0  0  0  0  0
  141.3219   79.7593  219.8941 H   0  0  0  0  0  0  0  0  0  0  0  0
  1  2  2  0
  2  3  1  0
  3  4  1  0
  4  5  1  0
  5  6  1  0
  6  7  2  3
  7  8  1  0
  8  9  2  0
  9 10  1  0
 10 11  2  0
 11 12  1  0
 12 13  2  0
  7 14  1  0
 14 15  2  0
 15 16  1  0
 16 17  2  0
 17 18  1  0
 18 19  2  0
 13  8  1  0
 19 14  1  0
  2 20  1  0
  4 21  1  0
  4 22  1  0
  5 23  1  0
  5 24  1  0
  6 25  1  0
  9 26  1  0
 10 27  1  0
 11 28  1  0
 12 29  1  0
 13 30  1  0
 15 31  1  0
 16 32  1  0
 17 33  1  0
 18 34  1  0
 19 35  1  0
M  CHG  1   3  -1
M  END
>  <UniqueID>  (12) 
37

>  <SMILES>  (12) 
O=C[N-]CCC=C(c1ccccc1)c1ccccc1

>  <Energy>  (12) 
41.004580599123514

>  <Genealogy>  (12) 
O=C[N-]CCC=C(c1ccccc1)c1ccccc1 (protonated)
O=C[N-]CCC=C(c1ccccc1)c1ccccc1 (3D coordinates assigned)
O=C[N-]CCC=C(c1ccccc1)c1ccccc1 (optimized conformer: 41.004580599123514 kcal/mol)

>  <smiles>  (12) 
O=CNCCC=C(c1ccccc1)c1ccccc1

>  <score_type>  (12) 
oracle

>  <origin>  (12) 
autodockgpu

>  <m_score__min__energy>  (12) 
-5.8099999999999996

>  <m_primary>  (12) 
energy

>  <meeko>  (12) 
{"free_energy": -5.13, "intermolecular_energy": -7.22, "internal_energy": -1.16, "cluster_size": 7, "cluster_id": 2, "rank_in_cluster": 4}

>  <energy>  (12) 
-5.38

>  <cluster_rmsd>  (12) 
1.19

>  <rmsd>  (12) 
272.34

>  <cluster>  (12) 
1

$$$$
NYPVCQFMQXTFET-ONIAVQPKNA-M
     RDKit          3D

 35 36  0  0  0  0  0  0  0  0999 V2000
  140.5420   72.2610  223.2680 O   0  0  0  0  0  0  0  0  0  0  0  0
  139.9610   72.8330  222.3090 C   0  0  0  0  0  0  0  0  0  0  0  0
  140.2490   74.1940  221.9870 N   0  0  0  0  0  0  0  0  0  0  0  0
  139.2890   75.0660  221.3190 C   0  0  0  0  0  0  0  0  0  0  0  0
  139.3150   76.4630  221.9450 C   0  0  0  0  0  0  0  0  0  0  0  0
  140.7060   76.8800  222.3530 C   0  0  0  0  0  0  0  0  0  0  0  0
  141.4100   77.8820  221.7830 C   0  0  0  0  0  0  0  0  0  0  0  0
  141.6600   79.1400  222.5370 C   0  0  0  0  0  0  0  0  0  0  0  0
  142.9500   79.4640  223.0010 C   0  0  0  0  0  0  0  0  0  0  0  0
  143.1740   80.6580  223.6950 C   0  0  0  0  0  0  0  0  0  0  0  0
  142.1170   81.5420  223.9280 C   0  0  0  0  0  0  0  0  0  0  0  0
  140.8370   81.2360  223.4650 C   0  0  0  0  0  0  0  0  0  0  0  0
  140.6070   80.0450  222.7710 C   0  0  0  0  0  0  0  0  0  0  0  0
  141.9560   77.7680  220.4100 C   0  0  0  0  0  0  0  0  0  0  0  0
  141.8180   78.8390  219.5140 C   0  0  0  0  0  0  0  0  0  0  0  0
  142.3040   78.7300  218.2070 C   0  0  0  0  0  0  0  0  0  0  0  0
  142.9150   77.5480  217.7830 C   0  0  0  0  0  0  0  0  0  0  0  0
  143.0360   76.4680  218.6640 C   0  0  0  0  0  0  0  0  0  0  0  0
  142.5520   76.5730  219.9710 C   0  0  0  0  0  0  0  0  0  0  0  0
  139.2226   72.2778  221.7119 H   0  0  0  0  0  0  0  0  0  0  0  0
  139.5480   75.1413  220.2526 H   0  0  0  0  0  0  0  0  0  0  0  0
  138.2806   74.6416  221.4327 H   0  0  0  0  0  0  0  0  0  0  0  0
  138.9292   77.1867  221.2119 H   0  0  0  0  0  0  0  0  0  0  0  0
  138.6911   76.4383  222.8506 H   0  0  0  0  0  0  0  0  0  0  0  0
  141.1825   76.3270  223.1759 H   0  0  0  0  0  0  0  0  0  0  0  0
  143.7865   78.7739  222.8165 H   0  0  0  0  0  0  0  0  0  0  0  0
  144.1836   80.9013  224.0578 H   0  0  0  0  0  0  0  0  0  0  0  0
  142.2942   82.4790  224.4764 H   0  0  0  0  0  0  0  0  0  0  0  0
  140.0066   81.9341  223.6467 H   0  0  0  0  0  0  0  0  0  0  0  0
  139.5960   79.8129  222.4049 H   0  0  0  0  0  0  0  0  0  0  0  0
  141.3261   79.7671  219.8405 H   0  0  0  0  0  0  0  0  0  0  0  0
  142.2048   79.5768  217.5119 H   0  0  0  0  0  0  0  0  0  0  0  0
  143.3011   77.4661  216.7563 H   0  0  0  0  0  0  0  0  0  0  0  0
  143.5125   75.5353  218.3278 H   0  0  0  0  0  0  0  0  0  0  0  0
  142.6377   75.7182  220.6580 H   0  0  0  0  0  0  0  0  0  0  0  0
  1  2  2  0
  2  3  1  0
  3  4  1  0
  4  5  1  0
  5  6  1  0
  6  7  2  3
  7  8  1  0
  8  9  2  0
  9 10  1  0
 10 11  2  0
 11 12  1  0
 12 13  2  0
  7 14  1  0
 14 15  2  0
 15 16  1  0
 16 17  2  0
 17 18  1  0
 18 19  2  0
 13  8  1  0
 19 14  1  0
  2 20  1  0
  4 21  1  0
  4 22  1  0
  5 23  1  0
  5 24  1  0
  6 25  1  0
  9 26  1  0
 10 27  1  0
 11 28  1  0
 12 29  1  0
 13 30  1  0
 15 31  1  0
 16 32  1  0
 17 33  1  0
 18 34  1  0
 19 35  1  0
M  CHG  1   3  -1
M  END
>  <UniqueID>  (13) 
37

>  <SMILES>  (13) 
O=C[N-]CCC=C(c1ccccc1)c1ccccc1

>  <Energy>  (13) 
41.004580599123514

>  <Genealogy>  (13) 
O=C[N-]CCC=C(c1ccccc1)c1ccccc1 (protonated)
O=C[N-]CCC=C(c1ccccc1)c1ccccc1 (3D coordinates assigned)
O=C[N-]CCC=C(c1ccccc1)c1ccccc1 (optimized conformer: 41.004580599123514 kcal/mol)

>  <smiles>  (13) 
O=CNCCC=C(c1ccccc1)c1ccccc1

>  <score_type>  (13) 
oracle

>  <origin>  (13) 
autodockgpu

>  <m_score__min__energy>  (13) 
-5.8099999999999996

>  <m_primary>  (13) 
energy

>  <meeko>  (13) 
{"free_energy": -5.29, "intermolecular_energy": -7.38, "internal_energy": -0.99, "cluster_size": 7, "cluster_id": 2, "rank_in_cluster": 2}

>  <energy>  (13) 
-5.36

>  <cluster_rmsd>  (13) 
0.0

>  <rmsd>  (13) 
273.28

>  <cluster>  (13) 
2

$$$$
NYPVCQFMQXTFET-ONIAVQPKNA-M
     RDKit          3D

 35 36  0  0  0  0  0  0  0  0999 V2000
  133.8630   68.8750  226.4640 O   0  0  0  0  0  0  0  0  0  0  0  0
  134.0810   68.1580  225.4520 C   0  0  0  0  0  0  0  0  0  0  0  0
  135.0340   68.5560  224.4660 N   0  0  0  0  0  0  0  0  0  0  0  0
  136.2700   69.2540  224.8020 C   0  0  0  0  0  0  0  0  0  0  0  0
  137.3770   68.8800  223.8120 C   0  0  0  0  0  0  0  0  0  0  0  0
  138.7540   69.0910  224.3900 C   0  0  0  0  0  0  0  0  0  0  0  0
  139.3490   70.2940  224.5470 C   0  0  0  0  0  0  0  0  0  0  0  0
  139.9580   70.6590  225.8560 C   0  0  0  0  0  0  0  0  0  0  0  0
  140.7030   71.8460  226.0040 C   0  0  0  0  0  0  0  0  0  0  0  0
  141.2550   72.1850  227.2440 C   0  0  0  0  0  0  0  0  0  0  0  0
  141.0670   71.3480  228.3470 C   0  0  0  0  0  0  0  0  0  0  0  0
  140.3230   70.1750  228.2150 C   0  0  0  0  0  0  0  0  0  0  0  0
  139.7680   69.8310  226.9790 C   0  0  0  0  0  0  0  0  0  0  0  0
  139.4230   71.2780  223.4420 C   0  0  0  0  0  0  0  0  0  0  0  0
  140.6730   71.6500  222.9220 C   0  0  0  0  0  0  0  0  0  0  0  0
  140.7550   72.5990  221.8980 C   0  0  0  0  0  0  0  0  0  0  0  0
  139.5930   73.1920  221.3980 C   0  0  0  0  0  0  0  0  0  0  0  0
  138.3460   72.8430  221.9270 C   0  0  0  0  0  0  0  0  0  0  0  0
  138.2600   71.8950  222.9500 C   0  0  0  0  0  0  0  0  0  0  0  0
  133.5307   67.2139  225.3261 H   0  0  0  0  0  0  0  0  0  0  0  0
  136.0969   70.3395  224.7598 H   0  0  0  0  0  0  0  0  0  0  0  0
  136.5822   68.9616  225.8154 H   0  0  0  0  0  0  0  0  0  0  0  0
  137.2657   67.8200  223.5401 H   0  0  0  0  0  0  0  0  0  0  0  0
  137.2769   69.5320  222.9317 H   0  0  0  0  0  0  0  0  0  0  0  0
  139.3154   68.1998  224.7072 H   0  0  0  0  0  0  0  0  0  0  0  0
  140.8514   72.5098  225.1395 H   0  0  0  0  0  0  0  0  0  0  0  0
  141.8379   73.1118  227.3508 H   0  0  0  0  0  0  0  0  0  0  0  0
  141.5058   71.6140  229.3200 H   0  0  0  0  0  0  0  0  0  0  0  0
  140.1729   69.5195  229.0855 H   0  0  0  0  0  0  0  0  0  0  0  0
  139.1788   68.9071  226.8830 H   0  0  0  0  0  0  0  0  0  0  0  0
  141.5907   71.1936  223.3213 H   0  0  0  0  0  0  0  0  0  0  0  0
  141.7357   72.8789  221.4857 H   0  0  0  0  0  0  0  0  0  0  0  0
  139.6587   73.9335  220.5881 H   0  0  0  0  0  0  0  0  0  0  0  0
  137.4322   73.3153  221.5373 H   0  0  0  0  0  0  0  0  0  0  0  0
  137.2789   71.6308  223.3716 H   0  0  0  0  0  0  0  0  0  0  0  0
  1  2  2  0
  2  3  1  0
  3  4  1  0
  4  5  1  0
  5  6  1  0
  6  7  2  3
  7  8  1  0
  8  9  2  0
  9 10  1  0
 10 11  2  0
 11 12  1  0
 12 13  2  0
  7 14  1  0
 14 15  2  0
 15 16  1  0
 16 17  2  0
 17 18  1  0
 18 19  2  0
 13  8  1  0
 19 14  1  0
  2 20  1  0
  4 21  1  0
  4 22  1  0
  5 23  1  0
  5 24  1  0
  6 25  1  0
  9 26  1  0
 10 27  1  0
 11 28  1  0
 12 29  1  0
 13 30  1  0
 15 31  1  0
 16 32  1  0
 17 33  1  0
 18 34  1  0
 19 35  1  0
M  CHG  1   3  -1
M  END
>  <UniqueID>  (14) 
37

>  <SMILES>  (14) 
O=C[N-]CCC=C(c1ccccc1)c1ccccc1

>  <Energy>  (14) 
41.004580599123514

>  <Genealogy>  (14) 
O=C[N-]CCC=C(c1ccccc1)c1ccccc1 (protonated)
O=C[N-]CCC=C(c1ccccc1)c1ccccc1 (3D coordinates assigned)
O=C[N-]CCC=C(c1ccccc1)c1ccccc1 (optimized conformer: 41.004580599123514 kcal/mol)

>  <smiles>  (14) 
O=CNCCC=C(c1ccccc1)c1ccccc1

>  <score_type>  (14) 
oracle

>  <origin>  (14) 
autodockgpu

>  <m_score__min__energy>  (14) 
-5.8099999999999996

>  <m_primary>  (14) 
energy

>  <meeko>  (14) 
{"free_energy": -5.81, "intermolecular_energy": -7.9, "internal_energy": -0.83, "cluster_size": 12, "cluster_id": 1, "rank_in_cluster": 1}

>  <energy>  (14) 
-5.29

>  <cluster_rmsd>  (14) 
0.33

>  <rmsd>  (14) 
273.22

>  <cluster>  (14) 
2

$$$$
NYPVCQFMQXTFET-ONIAVQPKNA-M
     RDKit          3D

 35 36  0  0  0  0  0  0  0  0999 V2000
  142.0560   73.7260  221.2120 O   0  0  0  0  0  0  0  0  0  0  0  0
  140.8690   73.3490  221.3950 C   0  0  0  0  0  0  0  0  0  0  0  0
  139.9720   74.1190  222.1950 N   0  0  0  0  0  0  0  0  0  0  0  0
  138.9820   75.0240  221.6200 C   0  0  0  0  0  0  0  0  0  0  0  0
  139.2250   76.4550  222.1070 C   0  0  0  0  0  0  0  0  0  0  0  0
  140.6890   76.7420  222.3290 C   0  0  0  0  0  0  0  0  0  0  0  0
  141.3690   77.7650  221.7670 C   0  0  0  0  0  0  0  0  0  0  0  0
  141.6250   79.0070  222.5470 C   0  0  0  0  0  0  0  0  0  0  0  0
  140.5610   79.7670  223.0720 C   0  0  0  0  0  0  0  0  0  0  0  0
  140.8170   80.9220  223.8180 C   0  0  0  0  0  0  0  0  0  0  0  0
  142.1330   81.3290  224.0510 C   0  0  0  0  0  0  0  0  0  0  0  0
  143.1950   80.5790  223.5440 C   0  0  0  0  0  0  0  0  0  0  0  0
  142.9460   79.4230  222.7990 C   0  0  0  0  0  0  0  0  0  0  0  0
  141.8820   77.6910  220.3800 C   0  0  0  0  0  0  0  0  0  0  0  0
  142.5080   76.5180  219.9300 C   0  0  0  0  0  0  0  0  0  0  0  0
  143.0210   76.4480  218.6300 C   0  0  0  0  0  0  0  0  0  0  0  0
  142.9270   77.5520  217.7800 C   0  0  0  0  0  0  0  0  0  0  0  0
  142.3250   78.7320  218.2290 C   0  0  0  0  0  0  0  0  0  0  0  0
  141.8100   78.8060  219.5260 C   0  0  0  0  0  0  0  0  0  0  0  0
  140.5186   72.4144  220.9326 H   0  0  0  0  0  0  0  0  0  0  0  0
  139.0584   74.9960  220.5230 H   0  0  0  0  0  0  0  0  0  0  0  0
  137.9781   74.7039  221.9358 H   0  0  0  0  0  0  0  0  0  0  0  0
  138.8372   77.1561  221.3533 H   0  0  0  0  0  0  0  0  0  0  0  0
  138.7081   76.5755  223.0705 H   0  0  0  0  0  0  0  0  0  0  0  0
  141.2442   76.0683  222.9982 H   0  0  0  0  0  0  0  0  0  0  0  0
  139.5228   79.4500  222.8941 H   0  0  0  0  0  0  0  0  0  0  0  0
  139.9805   81.5111  224.2221 H   0  0  0  0  0  0  0  0  0  0  0  0
  142.3320   82.2404  224.6339 H   0  0  0  0  0  0  0  0  0  0  0  0
  144.2308   80.8985  223.7312 H   0  0  0  0  0  0  0  0  0  0  0  0
  143.7882   78.8341  222.4068 H   0  0  0  0  0  0  0  0  0  0  0  0
  142.5956   75.6511  220.6014 H   0  0  0  0  0  0  0  0  0  0  0  0
  143.4989   75.5222  218.2772 H   0  0  0  0  0  0  0  0  0  0  0  0
  143.3266   77.4936  216.7568 H   0  0  0  0  0  0  0  0  0  0  0  0
  142.2569   79.6028  217.5604 H   0  0  0  0  0  0  0  0  0  0  0  0
  141.3470   79.7390  219.8799 H   0  0  0  0  0  0  0  0  0  0  0  0
  1  2  2  0
  2  3  1  0
  3  4  1  0
  4  5  1  0
  5  6  1  0
  6  7  2  3
  7  8  1  0
  8  9  2  0
  9 10  1  0
 10 11  2  0
 11 12  1  0
 12 13  2  0
  7 14  1  0
 14 15  2  0
 15 16  1  0
 16 17  2  0
 17 18  1  0
 18 19  2  0
 13  8  1  0
 19 14  1  0
  2 20  1  0
  4 21  1  0
  4 22  1  0
  5 23  1  0
  5 24  1  0
  6 25  1  0
  9 26  1  0
 10 27  1  0
 11 28  1  0
 12 29  1  0
 13 30  1  0
 15 31  1  0
 16 32  1  0
 17 33  1  0
 18 34  1  0
 19 35  1  0
M  CHG  1   3  -1
M  END
>  <UniqueID>  (15) 
37

>  <SMILES>  (15) 
O=C[N-]CCC=C(c1ccccc1)c1ccccc1

>  <Energy>  (15) 
41.004580599123514

>  <Genealogy>  (15) 
O=C[N-]CCC=C(c1ccccc1)c1ccccc1 (protonated)
O=C[N-]CCC=C(c1ccccc1)c1ccccc1 (3D coordinates assigned)
O=C[N-]CCC=C(c1ccccc1)c1ccccc1 (optimized conformer: 41.004580599123514 kcal/mol)

>  <smiles>  (15) 
O=CNCCC=C(c1ccccc1)c1ccccc1

>  <score_type>  (15) 
oracle

>  <origin>  (15) 
autodockgpu

>  <m_score__min__energy>  (15) 
-5.8099999999999996

>  <m_primary>  (15) 
energy

>  <meeko>  (15) 
{"free_energy": -5.11, "intermolecular_energy": -7.2, "internal_energy": -1.17, "cluster_size": 7, "cluster_id": 2, "rank_in_cluster": 5}

>  <energy>  (15) 
-5.28

>  <cluster_rmsd>  (15) 
0.34

>  <rmsd>  (15) 
273.26

>  <cluster>  (15) 
2

$$$$
NYPVCQFMQXTFET-ONIAVQPKNA-M
     RDKit          3D

 35 36  0  0  0  0  0  0  0  0999 V2000
  133.2640   68.4480  226.4660 O   0  0  0  0  0  0  0  0  0  0  0  0
  133.9720   67.7840  225.6630 C   0  0  0  0  0  0  0  0  0  0  0  0
  134.6830   68.4310  224.6080 N   0  0  0  0  0  0  0  0  0  0  0  0
  135.0920   69.8290  224.6740 C   0  0  0  0  0  0  0  0  0  0  0  0
  136.4630   70.0140  224.0180 C   0  0  0  0  0  0  0  0  0  0  0  0
  137.5430   69.2310  224.7220 C   0  0  0  0  0  0  0  0  0  0  0  0
  138.8370   69.6080  224.8090 C   0  0  0  0  0  0  0  0  0  0  0  0
  139.4870   70.3130  223.6700 C   0  0  0  0  0  0  0  0  0  0  0  0
  139.4740   69.7620  222.3740 C   0  0  0  0  0  0  0  0  0  0  0  0
  140.0740   70.4430  221.3090 C   0  0  0  0  0  0  0  0  0  0  0  0
  140.6870   71.6790  221.5240 C   0  0  0  0  0  0  0  0  0  0  0  0
  140.6970   72.2400  222.8020 C   0  0  0  0  0  0  0  0  0  0  0  0
  140.1000   71.5650  223.8700 C   0  0  0  0  0  0  0  0  0  0  0  0
  139.6450   69.3460  226.0230 C   0  0  0  0  0  0  0  0  0  0  0  0
  140.0060   68.0280  226.3480 C   0  0  0  0  0  0  0  0  0  0  0  0
  140.7450   67.7670  227.5060 C   0  0  0  0  0  0  0  0  0  0  0  0
  141.1120   68.8150  228.3550 C   0  0  0  0  0  0  0  0  0  0  0  0
  140.7360   70.1260  228.0500 C   0  0  0  0  0  0  0  0  0  0  0  0
  139.9980   70.3920  226.8920 C   0  0  0  0  0  0  0  0  0  0  0  0
  134.0431   66.6922  225.7763 H   0  0  0  0  0  0  0  0  0  0  0  0
  134.3514   70.4488  224.1475 H   0  0  0  0  0  0  0  0  0  0  0  0
  135.1567   70.1331  225.7292 H   0  0  0  0  0  0  0  0  0  0  0  0
  136.4041   69.6753  222.9731 H   0  0  0  0  0  0  0  0  0  0  0  0
  136.7251   71.0805  224.0796 H   0  0  0  0  0  0  0  0  0  0  0  0
  137.2555   68.2829  225.1999 H   0  0  0  0  0  0  0  0  0  0  0  0
  138.9892   68.7904  222.1979 H   0  0  0  0  0  0  0  0  0  0  0  0
  140.0628   70.0038  220.3005 H   0  0  0  0  0  0  0  0  0  0  0  0
  141.1620   72.2105  220.6862 H   0  0  0  0  0  0  0  0  0  0  0  0
  141.1761   73.2160  222.9689 H   0  0  0  0  0  0  0  0  0  0  0  0
  140.1089   72.0147  224.8738 H   0  0  0  0  0  0  0  0  0  0  0  0
  139.7066   67.1990  225.6899 H   0  0  0  0  0  0  0  0  0  0  0  0
  141.0381   66.7350  227.7493 H   0  0  0  0  0  0  0  0  0  0  0  0
  141.6969   68.6078  229.2633 H   0  0  0  0  0  0  0  0  0  0  0  0
  141.0207   70.9495  228.7213 H   0  0  0  0  0  0  0  0  0  0  0  0
  139.6931   71.4233  226.6610 H   0  0  0  0  0  0  0  0  0  0  0  0
  1  2  2  0
  2  3  1  0
  3  4  1  0
  4  5  1  0
  5  6  1  0
  6  7  2  3
  7  8  1  0
  8  9  2  0
  9 10  1  0
 10 11  2  0
 11 12  1  0
 12 13  2  0
  7 14  1  0
 14 15  2  0
 15 16  1  0
 16 17  2  0
 17 18  1  0
 18 19  2  0
 13  8  1  0
 19 14  1  0
  2 20  1  0
  4 21  1  0
  4 22  1  0
  5 23  1  0
  5 24  1  0
  6 25  1  0
  9 26  1  0
 10 27  1  0
 11 28  1  0
 12 29  1  0
 13 30  1  0
 15 31  1  0
 16 32  1  0
 17 33  1  0
 18 34  1  0
 19 35  1  0
M  CHG  1   3  -1
M  END
>  <UniqueID>  (16) 
37

>  <SMILES>  (16) 
O=C[N-]CCC=C(c1ccccc1)c1ccccc1

>  <Energy>  (16) 
41.004580599123514

>  <Genealogy>  (16) 
O=C[N-]CCC=C(c1ccccc1)c1ccccc1 (protonated)
O=C[N-]CCC=C(c1ccccc1)c1ccccc1 (3D coordinates assigned)
O=C[N-]CCC=C(c1ccccc1)c1ccccc1 (optimized conformer: 41.004580599123514 kcal/mol)

>  <smiles>  (16) 
O=CNCCC=C(c1ccccc1)c1ccccc1

>  <score_type>  (16) 
oracle

>  <origin>  (16) 
autodockgpu

>  <m_score__min__energy>  (16) 
-5.8099999999999996

>  <m_primary>  (16) 
energy

>  <meeko>  (16) 
{"free_energy": -5.58, "intermolecular_energy": -7.67, "internal_energy": -0.87, "cluster_size": 12, "cluster_id": 1, "rank_in_cluster": 6}

>  <energy>  (16) 
-5.13

>  <cluster_rmsd>  (16) 
0.75

>  <rmsd>  (16) 
273.21

>  <cluster>  (16) 
2

$$$$
NYPVCQFMQXTFET-ONIAVQPKNA-M
     RDKit          3D

 35 36  0  0  0  0  0  0  0  0999 V2000
  133.8900   68.7630  226.4610 O   0  0  0  0  0  0  0  0  0  0  0  0
  133.6640   68.3350  225.2980 C   0  0  0  0  0  0  0  0  0  0  0  0
  134.7250   68.1860  224.3550 N   0  0  0  0  0  0  0  0  0  0  0  0
  135.1720   69.2750  223.4930 C   0  0  0  0  0  0  0  0  0  0  0  0
  136.2270   70.1220  224.2100 C   0  0  0  0  0  0  0  0  0  0  0  0
  137.2300   69.2760  224.9530 C   0  0  0  0  0  0  0  0  0  0  0  0
  138.5600   69.5090  224.9900 C   0  0  0  0  0  0  0  0  0  0  0  0
  139.2140   70.2700  223.8900 C   0  0  0  0  0  0  0  0  0  0  0  0
  139.1730   69.8040  222.5610 C   0  0  0  0  0  0  0  0  0  0  0  0
  139.7770   70.5380  221.5350 C   0  0  0  0  0  0  0  0  0  0  0  0
  140.4230   71.7440  221.8210 C   0  0  0  0  0  0  0  0  0  0  0  0
  140.4620   72.2200  223.1330 C   0  0  0  0  0  0  0  0  0  0  0  0
  139.8600   71.4920  224.1620 C   0  0  0  0  0  0  0  0  0  0  0  0
  139.4050   69.0310  226.1090 C   0  0  0  0  0  0  0  0  0  0  0  0
  139.5460   69.8190  227.2620 C   0  0  0  0  0  0  0  0  0  0  0  0
  140.3640   69.3890  228.3120 C   0  0  0  0  0  0  0  0  0  0  0  0
  141.0570   68.1800  228.2110 C   0  0  0  0  0  0  0  0  0  0  0  0
  140.9390   67.4010  227.0560 C   0  0  0  0  0  0  0  0  0  0  0  0
  140.1220   67.8260  226.0040 C   0  0  0  0  0  0  0  0  0  0  0  0
  132.6365   68.0729  225.0056 H   0  0  0  0  0  0  0  0  0  0  0  0
  135.6071   68.8551  222.5741 H   0  0  0  0  0  0  0  0  0  0  0  0
  134.3100   69.9119  223.2452 H   0  0  0  0  0  0  0  0  0  0  0  0
  136.7600   70.7296  223.4639 H   0  0  0  0  0  0  0  0  0  0  0  0
  135.7085   70.7543  224.9458 H   0  0  0  0  0  0  0  0  0  0  0  0
  136.8503   68.4042  225.5060 H   0  0  0  0  0  0  0  0  0  0  0  0
  138.6630   68.8574  222.3290 H   0  0  0  0  0  0  0  0  0  0  0  0
  139.7435   70.1653  220.5006 H   0  0  0  0  0  0  0  0  0  0  0  0
  140.9004   72.3178  221.0130 H   0  0  0  0  0  0  0  0  0  0  0  0
  140.9681   73.1707  223.3569 H   0  0  0  0  0  0  0  0  0  0  0  0
  139.8906   71.8758  225.1924 H   0  0  0  0  0  0  0  0  0  0  0  0
  139.0117   70.7774  227.3400 H   0  0  0  0  0  0  0  0  0  0  0  0
  140.4619   70.0038  229.2189 H   0  0  0  0  0  0  0  0  0  0  0  0
  141.6954   67.8411  229.0402 H   0  0  0  0  0  0  0  0  0  0  0  0
  141.4898   66.4523  226.9748 H   0  0  0  0  0  0  0  0  0  0  0  0
  140.0399   67.2163  225.0921 H   0  0  0  0  0  0  0  0  0  0  0  0
  1  2  2  0
  2  3  1  0
  3  4  1  0
  4  5  1  0
  5  6  1  0
  6  7  2  3
  7  8  1  0
  8  9  2  0
  9 10  1  0
 10 11  2  0
 11 12  1  0
 12 13  2  0
  7 14  1  0
 14 15  2  0
 15 16  1  0
 16 17  2  0
 17 18  1  0
 18 19  2  0
 13  8  1  0
 19 14  1  0
  2 20  1  0
  4 21  1  0
  4 22  1  0
  5 23  1  0
  5 24  1  0
  6 25  1  0
  9 26  1  0
 10 27  1  0
 11 28  1  0
 12 29  1  0
 13 30  1  0
 15 31  1  0
 16 32  1  0
 17 33  1  0
 18 34  1  0
 19 35  1  0
M  CHG  1   3  -1
M  END
>  <UniqueID>  (17) 
37

>  <SMILES>  (17) 
O=C[N-]CCC=C(c1ccccc1)c1ccccc1

>  <Energy>  (17) 
41.004580599123514

>  <Genealogy>  (17) 
O=C[N-]CCC=C(c1ccccc1)c1ccccc1 (protonated)
O=C[N-]CCC=C(c1ccccc1)c1ccccc1 (3D coordinates assigned)
O=C[N-]CCC=C(c1ccccc1)c1ccccc1 (optimized conformer: 41.004580599123514 kcal/mol)

>  <smiles>  (17) 
O=CNCCC=C(c1ccccc1)c1ccccc1

>  <score_type>  (17) 
oracle

>  <origin>  (17) 
autodockgpu

>  <m_score__min__energy>  (17) 
-5.8099999999999996

>  <m_primary>  (17) 
energy

>  <meeko>  (17) 
{"free_energy": -5.57, "intermolecular_energy": -7.66, "internal_energy": -0.97, "cluster_size": 12, "cluster_id": 1, "rank_in_cluster": 9}

>  <energy>  (17) 
-5.11

>  <cluster_rmsd>  (17) 
0.78

>  <rmsd>  (17) 
273.18

>  <cluster>  (17) 
2

$$$$
NYPVCQFMQXTFET-ONIAVQPKNA-M
     RDKit          3D

 35 36  0  0  0  0  0  0  0  0999 V2000
  133.6600   68.8570  226.2060 O   0  0  0  0  0  0  0  0  0  0  0  0
  133.9240   68.1290  225.2130 C   0  0  0  0  0  0  0  0  0  0  0  0
  134.9190   68.5160  224.2660 N   0  0  0  0  0  0  0  0  0  0  0  0
  135.8090   69.6520  224.4780 C   0  0  0  0  0  0  0  0  0  0  0  0
  137.0880   69.2000  225.1890 C   0  0  0  0  0  0  0  0  0  0  0  0
  138.3170   69.4100  224.3400 C   0  0  0  0  0  0  0  0  0  0  0  0
  139.1980   70.4230  224.4930 C   0  0  0  0  0  0  0  0  0  0  0  0
  139.4660   71.3540  223.3640 C   0  0  0  0  0  0  0  0  0  0  0  0
  138.4170   72.0480  222.7290 C   0  0  0  0  0  0  0  0  0  0  0  0
  138.6850   72.9320  221.6790 C   0  0  0  0  0  0  0  0  0  0  0  0
  140.0010   73.1380  221.2550 C   0  0  0  0  0  0  0  0  0  0  0  0
  141.0500   72.4640  221.8820 C   0  0  0  0  0  0  0  0  0  0  0  0
  140.7880   71.5790  222.9320 C   0  0  0  0  0  0  0  0  0  0  0  0
  139.9120   70.6470  225.7710 C   0  0  0  0  0  0  0  0  0  0  0  0
  139.8580   69.6720  226.7800 C   0  0  0  0  0  0  0  0  0  0  0  0
  140.5070   69.8870  228.0010 C   0  0  0  0  0  0  0  0  0  0  0  0
  141.1970   71.0800  228.2280 C   0  0  0  0  0  0  0  0  0  0  0  0
  141.2360   72.0650  227.2360 C   0  0  0  0  0  0  0  0  0  0  0  0
  140.5900   71.8540  226.0140 C   0  0  0  0  0  0  0  0  0  0  0  0
  133.3807   67.1827  225.0737 H   0  0  0  0  0  0  0  0  0  0  0  0
  136.0713   70.0939  223.5054 H   0  0  0  0  0  0  0  0  0  0  0  0
  135.2957   70.3966  225.1041 H   0  0  0  0  0  0  0  0  0  0  0  0
  137.1980   69.7756  226.1199 H   0  0  0  0  0  0  0  0  0  0  0  0
  136.9984   68.1227  225.3924 H   0  0  0  0  0  0  0  0  0  0  0  0
  138.5105   68.6843  223.5363 H   0  0  0  0  0  0  0  0  0  0  0  0
  137.3799   71.8934  223.0615 H   0  0  0  0  0  0  0  0  0  0  0  0
  137.8592   73.4659  221.1861 H   0  0  0  0  0  0  0  0  0  0  0  0
  140.2098   73.8314  220.4270 H   0  0  0  0  0  0  0  0  0  0  0  0
  142.0853   72.6295  221.5492 H   0  0  0  0  0  0  0  0  0  0  0  0
  141.6201   71.0545  223.4245 H   0  0  0  0  0  0  0  0  0  0  0  0
  139.3042   68.7369  226.6102 H   0  0  0  0  0  0  0  0  0  0  0  0
  140.4737   69.1148  228.7837 H   0  0  0  0  0  0  0  0  0  0  0  0
  141.7098   71.2448  229.1871 H   0  0  0  0  0  0  0  0  0  0  0  0
  141.7753   73.0065  227.4172 H   0  0  0  0  0  0  0  0  0  0  0  0
  140.6125   72.6354  225.2401 H   0  0  0  0  0  0  0  0  0  0  0  0
  1  2  2  0
  2  3  1  0
  3  4  1  0
  4  5  1  0
  5  6  1  0
  6  7  2  3
  7  8  1  0
  8  9  2  0
  9 10  1  0
 10 11  2  0
 11 12  1  0
 12 13  2  0
  7 14  1  0
 14 15  2  0
 15 16  1  0
 16 17  2  0
 17 18  1  0
 18 19  2  0
 13  8  1  0
 19 14  1  0
  2 20  1  0
  4 21  1  0
  4 22  1  0
  5 23  1  0
  5 24  1  0
  6 25  1  0
  9 26  1  0
 10 27  1  0
 11 28  1  0
 12 29  1  0
 13 30  1  0
 15 31  1  0
 16 32  1  0
 17 33  1  0
 18 34  1  0
 19 35  1  0
M  CHG  1   3  -1
M  END
>  <UniqueID>  (18) 
37

>  <SMILES>  (18) 
O=C[N-]CCC=C(c1ccccc1)c1ccccc1

>  <Energy>  (18) 
41.004580599123514

>  <Genealogy>  (18) 
O=C[N-]CCC=C(c1ccccc1)c1ccccc1 (protonated)
O=C[N-]CCC=C(c1ccccc1)c1ccccc1 (3D coordinates assigned)
O=C[N-]CCC=C(c1ccccc1)c1ccccc1 (optimized conformer: 41.004580599123514 kcal/mol)

>  <smiles>  (18) 
O=CNCCC=C(c1ccccc1)c1ccccc1

>  <score_type>  (18) 
oracle

>  <origin>  (18) 
autodockgpu

>  <m_score__min__energy>  (18) 
-5.8099999999999996

>  <m_primary>  (18) 
energy

>  <meeko>  (18) 
{"free_energy": -5.53, "intermolecular_energy": -7.62, "internal_energy": -0.81, "cluster_size": 12, "cluster_id": 1, "rank_in_cluster": 11}

>  <energy>  (18) 
-5.08

>  <cluster_rmsd>  (18) 
0.77

>  <rmsd>  (18) 
273.18

>  <cluster>  (18) 
2

$$$$
NYPVCQFMQXTFET-ONIAVQPKNA-M
     RDKit          3D

 35 36  0  0  0  0  0  0  0  0999 V2000
  133.4720   68.6940  226.4560 O   0  0  0  0  0  0  0  0  0  0  0  0
  133.9030   67.7750  225.7120 C   0  0  0  0  0  0  0  0  0  0  0  0
  134.4450   68.0710  224.4250 N   0  0  0  0  0  0  0  0  0  0  0  0
  134.7630   69.4290  223.9970 C   0  0  0  0  0  0  0  0  0  0  0  0
  135.8810   70.0120  224.8650 C   0  0  0  0  0  0  0  0  0  0  0  0
  137.1480   69.1960  224.7890 C   0  0  0  0  0  0  0  0  0  0  0  0
  138.3970   69.6970  224.9090 C   0  0  0  0  0  0  0  0  0  0  0  0
  139.3100   69.1760  225.9630 C   0  0  0  0  0  0  0  0  0  0  0  0
  139.8860   67.8950  225.8560 C   0  0  0  0  0  0  0  0  0  0  0  0
  140.7560   67.4250  226.8450 C   0  0  0  0  0  0  0  0  0  0  0  0
  141.0640   68.2270  227.9470 C   0  0  0  0  0  0  0  0  0  0  0  0
  140.5060   69.5020  228.0600 C   0  0  0  0  0  0  0  0  0  0  0  0
  139.6360   69.9770  227.0740 C   0  0  0  0  0  0  0  0  0  0  0  0
  138.8990   70.7610  224.0090 C   0  0  0  0  0  0  0  0  0  0  0  0
  138.0280   71.3640  223.0880 C   0  0  0  0  0  0  0  0  0  0  0  0
  138.4990   72.3490  222.2150 C   0  0  0  0  0  0  0  0  0  0  0  0
  139.8450   72.7260  222.2440 C   0  0  0  0  0  0  0  0  0  0  0  0
  140.7230   72.1130  223.1430 C   0  0  0  0  0  0  0  0  0  0  0  0
  140.2560   71.1290  224.0190 C   0  0  0  0  0  0  0  0  0  0  0  0
  133.8616   66.7315  226.0575 H   0  0  0  0  0  0  0  0  0  0  0  0
  135.0907   69.4111  222.9471 H   0  0  0  0  0  0  0  0  0  0  0  0
  133.8654   70.0562  224.1012 H   0  0  0  0  0  0  0  0  0  0  0  0
  136.0977   71.0348  224.5232 H   0  0  0  0  0  0  0  0  0  0  0  0
  135.5363   70.0028  225.9096 H   0  0  0  0  0  0  0  0  0  0  0  0
  137.0473   68.1132  224.6237 H   0  0  0  0  0  0  0  0  0  0  0  0
  139.6500   67.2603  224.9891 H   0  0  0  0  0  0  0  0  0  0  0  0
  141.1987   66.4220  226.7552 H   0  0  0  0  0  0  0  0  0  0  0  0
  141.7459   67.8540  228.7254 H   0  0  0  0  0  0  0  0  0  0  0  0
  140.7514   70.1338  228.9263 H   0  0  0  0  0  0  0  0  0  0  0  0
  139.2030   70.9839  227.1670 H   0  0  0  0  0  0  0  0  0  0  0  0
  136.9713   71.0604  223.0531 H   0  0  0  0  0  0  0  0  0  0  0  0
  137.8096   72.8281  221.5042 H   0  0  0  0  0  0  0  0  0  0  0  0
  140.2131   73.5046  221.5598 H   0  0  0  0  0  0  0  0  0  0  0  0
  141.7832   72.4056  223.1609 H   0  0  0  0  0  0  0  0  0  0  0  0
  140.9517   70.6414  224.7178 H   0  0  0  0  0  0  0  0  0  0  0  0
  1  2  2  0
  2  3  1  0
  3  4  1  0
  4  5  1  0
  5  6  1  0
  6  7  2  3
  7  8  1  0
  8  9  2  0
  9 10  1  0
 10 11  2  0
 11 12  1  0
 12 13  2  0
  7 14  1  0
 14 15  2  0
 15 16  1  0
 16 17  2  0
 17 18  1  0
 18 19  2  0
 13  8  1  0
 19 14  1  0
  2 20  1  0
  4 21  1  0
  4 22  1  0
  5 23  1  0
  5 24  1  0
  6 25  1  0
  9 26  1  0
 10 27  1  0
 11 28  1  0
 12 29  1  0
 13 30  1  0
 15 31  1  0
 16 32  1  0
 17 33  1  0
 18 34  1  0
 19 35  1  0
M  CHG  1   3  -1
M  END
>  <UniqueID>  (19) 
37

>  <SMILES>  (19) 
O=C[N-]CCC=C(c1ccccc1)c1ccccc1

>  <Energy>  (19) 
41.004580599123514

>  <Genealogy>  (19) 
O=C[N-]CCC=C(c1ccccc1)c1ccccc1 (protonated)
O=C[N-]CCC=C(c1ccccc1)c1ccccc1 (3D coordinates assigned)
O=C[N-]CCC=C(c1ccccc1)c1ccccc1 (optimized conformer: 41.004580599123514 kcal/mol)

>  <smiles>  (19) 
O=CNCCC=C(c1ccccc1)c1ccccc1

>  <score_type>  (19) 
oracle

>  <origin>  (19) 
autodockgpu

>  <m_score__min__energy>  (19) 
-5.8099999999999996

>  <m_primary>  (19) 
energy

>  <meeko>  (19) 
{"free_energy": -5.68, "intermolecular_energy": -7.77, "internal_energy": -0.86, "cluster_size": 12, "cluster_id": 1, "rank_in_cluster": 4}

>  <energy>  (19) 
-5.07

>  <cluster_rmsd>  (19) 
0.86

>  <rmsd>  (19) 
273.17

>  <cluster>  (19) 
2

$$$$
NYPVCQFMQXTFET-ONIAVQPKNA-M
     RDKit          3D

 35 36  0  0  0  0  0  0  0  0999 V2000
  142.2480   73.6360  221.0860 O   0  0  0  0  0  0  0  0  0  0  0  0
  141.0120   73.4460  221.2300 C   0  0  0  0  0  0  0  0  0  0  0  0
  140.2790   74.1390  222.2400 N   0  0  0  0  0  0  0  0  0  0  0  0
  139.0230   74.8310  221.9690 C   0  0  0  0  0  0  0  0  0  0  0  0
  139.2930   76.2840  221.5690 C   0  0  0  0  0  0  0  0  0  0  0  0
  140.5130   76.8480  222.2560 C   0  0  0  0  0  0  0  0  0  0  0  0
  141.3060   77.8160  221.7470 C   0  0  0  0  0  0  0  0  0  0  0  0
  141.6210   79.0240  222.5580 C   0  0  0  0  0  0  0  0  0  0  0  0
  142.9540   79.4040  222.8060 C   0  0  0  0  0  0  0  0  0  0  0  0
  143.2360   80.5510  223.5560 C   0  0  0  0  0  0  0  0  0  0  0  0
  142.1930   81.3320  224.0610 C   0  0  0  0  0  0  0  0  0  0  0  0
  140.8680   80.9700  223.8130 C   0  0  0  0  0  0  0  0  0  0  0  0
  140.5800   79.8250  223.0650 C   0  0  0  0  0  0  0  0  0  0  0  0
  141.8890   77.7120  220.3890 C   0  0  0  0  0  0  0  0  0  0  0  0
  141.7880   78.7960  219.5030 C   0  0  0  0  0  0  0  0  0  0  0  0
  142.3090   78.6980  218.2090 C   0  0  0  0  0  0  0  0  0  0  0  0
  142.9190   77.5130  217.7870 C   0  0  0  0  0  0  0  0  0  0  0  0
  143.0030   76.4220  218.6570 C   0  0  0  0  0  0  0  0  0  0  0  0
  142.4840   76.5160  219.9520 C   0  0  0  0  0  0  0  0  0  0  0  0
  140.4905   72.7375  220.5696 H   0  0  0  0  0  0  0  0  0  0  0  0
  138.4970   74.3205  221.1488 H   0  0  0  0  0  0  0  0  0  0  0  0
  138.4042   74.8191  222.8784 H   0  0  0  0  0  0  0  0  0  0  0  0
  139.4469   76.3289  220.4807 H   0  0  0  0  0  0  0  0  0  0  0  0
  138.4246   76.8854  221.8761 H   0  0  0  0  0  0  0  0  0  0  0  0
  140.7756   76.4409  223.2436 H   0  0  0  0  0  0  0  0  0  0  0  0
  143.7789   78.7952  222.4075 H   0  0  0  0  0  0  0  0  0  0  0  0
  144.2802   80.8384  223.7484 H   0  0  0  0  0  0  0  0  0  0  0  0
  142.4161   82.2315  224.6536 H   0  0  0  0  0  0  0  0  0  0  0  0
  140.0478   81.5878  224.2075 H   0  0  0  0  0  0  0  0  0  0  0  0
  139.5333   79.5479  222.8712 H   0  0  0  0  0  0  0  0  0  0  0  0
  141.2974   79.7255  219.8276 H   0  0  0  0  0  0  0  0  0  0  0  0
  142.2388   79.5544  217.5223 H   0  0  0  0  0  0  0  0  0  0  0  0
  143.3328   77.4391  216.7705 H   0  0  0  0  0  0  0  0  0  0  0  0
  143.4782   75.4881  218.3223 H   0  0  0  0  0  0  0  0  0  0  0  0
  142.5415   75.6519  220.6303 H   0  0  0  0  0  0  0  0  0  0  0  0
  1  2  2  0
  2  3  1  0
  3  4  1  0
  4  5  1  0
  5  6  1  0
  6  7  2  3
  7  8  1  0
  8  9  2  0
  9 10  1  0
 10 11  2  0
 11 12  1  0
 12 13  2  0
  7 14  1  0
 14 15  2  0
 15 16  1  0
 16 17  2  0
 17 18  1  0
 18 19  2  0
 13  8  1  0
 19 14  1  0
  2 20  1  0
  4 21  1  0
  4 22  1  0
  5 23  1  0
  5 24  1  0
  6 25  1  0
  9 26  1  0
 10 27  1  0
 11 28  1  0
 12 29  1  0
 13 30  1  0
 15 31  1  0
 16 32  1  0
 17 33  1  0
 18 34  1  0
 19 35  1  0
M  CHG  1   3  -1
M  END
>  <UniqueID>  (20) 
37

>  <SMILES>  (20) 
O=C[N-]CCC=C(c1ccccc1)c1ccccc1

>  <Energy>  (20) 
41.004580599123514

>  <Genealogy>  (20) 
O=C[N-]CCC=C(c1ccccc1)c1ccccc1 (protonated)
O=C[N-]CCC=C(c1ccccc1)c1ccccc1 (3D coordinates assigned)
O=C[N-]CCC=C(c1ccccc1)c1ccccc1 (optimized conformer: 41.004580599123514 kcal/mol)

>  <smiles>  (20) 
O=CNCCC=C(c1ccccc1)c1ccccc1

>  <score_type>  (20) 
oracle

>  <origin>  (20) 
autodockgpu

>  <m_score__min__energy>  (20) 
-5.8099999999999996

>  <m_primary>  (20) 
energy

>  <meeko>  (20) 
{"free_energy": -5.07, "intermolecular_energy": -7.15, "internal_energy": -1.16, "cluster_size": 7, "cluster_id": 2, "rank_in_cluster": 7}

>  <energy>  (20) 
-5.29

>  <cluster_rmsd>  (20) 
0.0

>  <rmsd>  (20) 
272.76

>  <cluster>  (20) 
3

$$$$
NYPVCQFMQXTFET-GPQMBLKYNA-N
     RDKit          3D

 36 37  0  0  0  0  0  0  0  0999 V2000
  140.9110   74.0910  220.5240 O   0  0  0  0  0  0  0  0  0  0  0  0
  140.3650   73.7160  221.5960 C   0  0  0  0  0  0  0  0  0  0  0  0
  139.2310   74.4100  222.1260 N   0  0  0  0  0  0  0  0  0  0  0  0
  138.6520   75.5900  221.4850 C   0  0  0  0  0  0  0  0  0  0  0  0
  139.0720   76.8790  222.2060 C   0  0  0  0  0  0  0  0  0  0  0  0
  140.5700   76.9950  222.3460 C   0  0  0  0  0  0  0  0  0  0  0  0
  141.3130   78.0150  221.8680 C   0  0  0  0  0  0  0  0  0  0  0  0
  141.6090   79.2140  222.6860 C   0  0  0  0  0  0  0  0  0  0  0  0
  142.9380   79.5170  223.0230 C   0  0  0  0  0  0  0  0  0  0  0  0
  143.2300   80.6620  223.7720 C   0  0  0  0  0  0  0  0  0  0  0  0
  142.2010   81.5170  224.1730 C   0  0  0  0  0  0  0  0  0  0  0  0
  140.8780   81.2330  223.8220 C   0  0  0  0  0  0  0  0  0  0  0  0
  140.5820   80.0900  223.0740 C   0  0  0  0  0  0  0  0  0  0  0  0
  141.8680   77.9500  220.4880 C   0  0  0  0  0  0  0  0  0  0  0  0
  141.7710   79.0510  219.6150 C   0  0  0  0  0  0  0  0  0  0  0  0
  142.2810   78.9710  218.3150 C   0  0  0  0  0  0  0  0  0  0  0  0
  142.8880   77.7940  217.8710 C   0  0  0  0  0  0  0  0  0  0  0  0
  142.9820   76.6930  218.7250 C   0  0  0  0  0  0  0  0  0  0  0  0
  142.4730   76.7660  220.0240 C   0  0  0  0  0  0  0  0  0  0  0  0
  140.7656   72.8429  222.1320 H   0  0  0  0  0  0  0  0  0  0  0  0
  138.7730   74.0270  222.9830 H   0  0  0  0  0  0  0  0  0  0  0  0
  138.9952   75.6353  220.4409 H   0  0  0  0  0  0  0  0  0  0  0  0
  137.5561   75.5076  221.5311 H   0  0  0  0  0  0  0  0  0  0  0  0
  138.7025   77.7417  221.6322 H   0  0  0  0  0  0  0  0  0  0  0  0
  138.6405   76.8546  223.2175 H   0  0  0  0  0  0  0  0  0  0  0  0
  141.0955   76.1879  222.8773 H   0  0  0  0  0  0  0  0  0  0  0  0
  143.7517   78.8523  222.6972 H   0  0  0  0  0  0  0  0  0  0  0  0
  144.2710   80.8891  224.0454 H   0  0  0  0  0  0  0  0  0  0  0  0
  142.4318   82.4146  224.7655 H   0  0  0  0  0  0  0  0  0  0  0  0
  140.0692   81.9097  224.1348 H   0  0  0  0  0  0  0  0  0  0  0  0
  139.5415   79.8759  222.7883 H   0  0  0  0  0  0  0  0  0  0  0  0
  141.2912   79.9796  219.9577 H   0  0  0  0  0  0  0  0  0  0  0  0
  142.2039   79.8368  217.6409 H   0  0  0  0  0  0  0  0  0  0  0  0
  143.2917   77.7343  216.8495 H   0  0  0  0  0  0  0  0  0  0  0  0
  143.4582   75.7657  218.3739 H   0  0  0  0  0  0  0  0  0  0  0  0
  142.5453   75.8927  220.6889 H   0  0  0  0  0  0  0  0  0  0  0  0
  1  2  2  0
  2  3  1  0
  3  4  1  0
  4  5  1  0
  5  6  1  0
  6  7  2  3
  7  8  1  0
  8  9  2  0
  9 10  1  0
 10 11  2  0
 11 12  1  0
 12 13  2  0
  7 14  1  0
 14 15  2  0
 15 16  1  0
 16 17  2  0
 17 18  1  0
 18 19  2  0
 13  8  1  0
 19 14  1  0
  2 20  1  0
  3 21  1  0
  4 22  1  0
  4 23  1  0
  5 24  1  0
  5 25  1  0
  6 26  1  0
  9 27  1  0
 10 28  1  0
 11 29  1  0
 12 30  1  0
 13 31  1  0
 15 32  1  0
 16 33  1  0
 17 34  1  0
 18 35  1  0
 19 36  1  0
M  END
>  <UniqueID>  (21) 
38

>  <SMILES>  (21) 
O=CNCCC=C(c1ccccc1)c1ccccc1

>  <Energy>  (21) 
41.79603568944126

>  <Genealogy>  (21) 
O=CNCCC=C(c1ccccc1)c1ccccc1 (3D coordinates assigned)
O=CNCCC=C(c1ccccc1)c1ccccc1 (optimized conformer: 41.79603568944126 kcal/mol)

>  <smiles>  (21) 
O=CNCCC=C(c1ccccc1)c1ccccc1

>  <score_type>  (21) 
oracle

>  <origin>  (21) 
autodockgpu

>  <m_score__min__energy>  (21) 
-5.5999999999999996

>  <m_primary>  (21) 
energy

>  <meeko>  (21) 
{"free_energy": -5.44, "intermolecular_energy": -7.23, "internal_energy": -1.17, "cluster_size": 16, "cluster_id": 2, "rank_in_cluster": 14}

>  <energy>  (21) 
-5.6

>  <cluster_rmsd>  (21) 
0.0

>  <rmsd>  (21) 
271.37

>  <cluster>  (21) 
1

$$$$
NYPVCQFMQXTFET-GPQMBLKYNA-N
     RDKit          3D

 36 37  0  0  0  0  0  0  0  0999 V2000
  140.3110   73.7500  222.3440 O   0  0  0  0  0  0  0  0  0  0  0  0
  140.2230   74.1540  221.1540 C   0  0  0  0  0  0  0  0  0  0  0  0
  139.2830   75.1700  220.7900 N   0  0  0  0  0  0  0  0  0  0  0  0
  138.3650   75.7820  221.7490 C   0  0  0  0  0  0  0  0  0  0  0  0
  138.9650   77.0560  222.3610 C   0  0  0  0  0  0  0  0  0  0  0  0
  140.4740   77.0330  222.3670 C   0  0  0  0  0  0  0  0  0  0  0  0
  141.2630   78.0160  221.8840 C   0  0  0  0  0  0  0  0  0  0  0  0
  141.6090   79.2070  222.6960 C   0  0  0  0  0  0  0  0  0  0  0  0
  142.9520   79.4650  223.0170 C   0  0  0  0  0  0  0  0  0  0  0  0
  143.2920   80.6000  223.7580 C   0  0  0  0  0  0  0  0  0  0  0  0
  142.2980   81.4910  224.1700 C   0  0  0  0  0  0  0  0  0  0  0  0
  140.9610   81.2520  223.8350 C   0  0  0  0  0  0  0  0  0  0  0  0
  140.6170   80.1180  223.0940 C   0  0  0  0  0  0  0  0  0  0  0  0
  141.8170   77.9180  220.5060 C   0  0  0  0  0  0  0  0  0  0  0  0
  142.4170   76.7280  220.0490 C   0  0  0  0  0  0  0  0  0  0  0  0
  142.9490   76.6540  218.7570 C   0  0  0  0  0  0  0  0  0  0  0  0
  142.8940   77.7650  217.9120 C   0  0  0  0  0  0  0  0  0  0  0  0
  142.3100   78.9530  218.3580 C   0  0  0  0  0  0  0  0  0  0  0  0
  141.7780   79.0330  219.6480 C   0  0  0  0  0  0  0  0  0  0  0  0
  140.8777   73.7199  220.3840 H   0  0  0  0  0  0  0  0  0  0  0  0
  139.2880   75.5200  219.8060 H   0  0  0  0  0  0  0  0  0  0  0  0
  137.4277   76.0391  221.2339 H   0  0  0  0  0  0  0  0  0  0  0  0
  138.1789   75.0619  222.5595 H   0  0  0  0  0  0  0  0  0  0  0  0
  138.6268   77.9232  221.7748 H   0  0  0  0  0  0  0  0  0  0  0  0
  138.6253   77.1198  223.4053 H   0  0  0  0  0  0  0  0  0  0  0  0
  140.9678   76.1492  222.7971 H   0  0  0  0  0  0  0  0  0  0  0  0
  143.7383   78.7716  222.6841 H   0  0  0  0  0  0  0  0  0  0  0  0
  144.3436   80.7921  224.0172 H   0  0  0  0  0  0  0  0  0  0  0  0
  142.5668   82.3809  224.7581 H   0  0  0  0  0  0  0  0  0  0  0  0
  140.1798   81.9572  224.1551 H   0  0  0  0  0  0  0  0  0  0  0  0
  139.5664   79.9385  222.8218 H   0  0  0  0  0  0  0  0  0  0  0  0
  142.4675   75.8517  220.7120 H   0  0  0  0  0  0  0  0  0  0  0  0
  143.4113   75.7195  218.4061 H   0  0  0  0  0  0  0  0  0  0  0  0
  143.3104   77.7044  216.8957 H   0  0  0  0  0  0  0  0  0  0  0  0
  142.2687   79.8277  217.6923 H   0  0  0  0  0  0  0  0  0  0  0  0
  141.3258   79.9738  219.9950 H   0  0  0  0  0  0  0  0  0  0  0  0
  1  2  2  0
  2  3  1  0
  3  4  1  0
  4  5  1  0
  5  6  1  0
  6  7  2  3
  7  8  1  0
  8  9  2  0
  9 10  1  0
 10 11  2  0
 11 12  1  0
 12 13  2  0
  7 14  1  0
 14 15  2  0
 15 16  1  0
 16 17  2  0
 17 18  1  0
 18 19  2  0
 13  8  1  0
 19 14  1  0
  2 20  1  0
  3 21  1  0
  4 22  1  0
  4 23  1  0
  5 24  1  0
  5 25  1  0
  6 26  1  0
  9 27  1  0
 10 28  1  0
 11 29  1  0
 12 30  1  0
 13 31  1  0
 15 32  1  0
 16 33  1  0
 17 34  1  0
 18 35  1  0
 19 36  1  0
M  END
>  <UniqueID>  (22) 
38

>  <SMILES>  (22) 
O=CNCCC=C(c1ccccc1)c1ccccc1

>  <Energy>  (22) 
41.79603568944126

>  <Genealogy>  (22) 
O=CNCCC=C(c1ccccc1)c1ccccc1 (3D coordinates assigned)
O=CNCCC=C(c1ccccc1)c1ccccc1 (optimized conformer: 41.79603568944126 kcal/mol)

>  <smiles>  (22) 
O=CNCCC=C(c1ccccc1)c1ccccc1

>  <score_type>  (22) 
oracle

>  <origin>  (22) 
autodockgpu

>  <m_score__min__energy>  (22) 
-5.5999999999999996

>  <m_primary>  (22) 
energy

>  <meeko>  (22) 
{"free_energy": -5.53, "intermolecular_energy": -7.32, "internal_energy": -1.12, "cluster_size": 16, "cluster_id": 2, "rank_in_cluster": 4}

>  <energy>  (22) 
-5.59

>  <cluster_rmsd>  (22) 
0.22

>  <rmsd>  (22) 
271.49

>  <cluster>  (22) 
1

$$$$
NYPVCQFMQXTFET-GPQMBLKYNA-N
     RDKit          3D

 36 37  0  0  0  0  0  0  0  0999 V2000
  141.2630   73.9180  220.6210 O   0  0  0  0  0  0  0  0  0  0  0  0
  140.5640   73.5170  221.5900 C   0  0  0  0  0  0  0  0  0  0  0  0
  139.3820   74.2220  221.9850 N   0  0  0  0  0  0  0  0  0  0  0  0
  138.9260   75.4400  221.3180 C   0  0  0  0  0  0  0  0  0  0  0  0
  139.2270   76.6850  222.1650 C   0  0  0  0  0  0  0  0  0  0  0  0
  140.7070   76.9200  222.3330 C   0  0  0  0  0  0  0  0  0  0  0  0
  141.4020   77.9190  221.7490 C   0  0  0  0  0  0  0  0  0  0  0  0
  141.9080   77.8090  220.3610 C   0  0  0  0  0  0  0  0  0  0  0  0
  141.8060   78.9090  219.4930 C   0  0  0  0  0  0  0  0  0  0  0  0
  142.3050   78.8240  218.1890 C   0  0  0  0  0  0  0  0  0  0  0  0
  142.9200   77.6500  217.7500 C   0  0  0  0  0  0  0  0  0  0  0  0
  143.0450   76.5590  218.6160 C   0  0  0  0  0  0  0  0  0  0  0  0
  142.5470   76.6390  219.9190 C   0  0  0  0  0  0  0  0  0  0  0  0
  141.6710   79.1770  222.4990 C   0  0  0  0  0  0  0  0  0  0  0  0
  142.9570   79.4620  222.9980 C   0  0  0  0  0  0  0  0  0  0  0  0
  143.1930   80.6390  223.7150 C   0  0  0  0  0  0  0  0  0  0  0  0
  142.1510   81.5400  223.9460 C   0  0  0  0  0  0  0  0  0  0  0  0
  140.8700   81.2640  223.4630 C   0  0  0  0  0  0  0  0  0  0  0  0
  140.6270   80.0880  222.7470 C   0  0  0  0  0  0  0  0  0  0  0  0
  140.8660   72.6133  222.1396 H   0  0  0  0  0  0  0  0  0  0  0  0
  138.7990   73.8190  222.7520 H   0  0  0  0  0  0  0  0  0  0  0  0
  139.4398   75.5323  220.3498 H   0  0  0  0  0  0  0  0  0  0  0  0
  137.8374   75.3715  221.1754 H   0  0  0  0  0  0  0  0  0  0  0  0
  138.7832   77.5631  221.6730 H   0  0  0  0  0  0  0  0  0  0  0  0
  138.7968   76.5236  223.1644 H   0  0  0  0  0  0  0  0  0  0  0  0
  141.2621   76.2250  222.9802 H   0  0  0  0  0  0  0  0  0  0  0  0
  141.3326   79.8394  219.8397 H   0  0  0  0  0  0  0  0  0  0  0  0
  142.2127   79.6833  217.5085 H   0  0  0  0  0  0  0  0  0  0  0  0
  143.3065   77.5831  216.7223 H   0  0  0  0  0  0  0  0  0  0  0  0
  143.5358   75.6370  218.2710 H   0  0  0  0  0  0  0  0  0  0  0  0
  142.6558   75.7828  220.6009 H   0  0  0  0  0  0  0  0  0  0  0  0
  143.7807   78.7543  222.8226 H   0  0  0  0  0  0  0  0  0  0  0  0
  144.2012   80.8558  224.0979 H   0  0  0  0  0  0  0  0  0  0  0  0
  142.3393   82.4666  224.5081 H   0  0  0  0  0  0  0  0  0  0  0  0
  140.0499   81.9738  223.6464 H   0  0  0  0  0  0  0  0  0  0  0  0
  139.6142   79.8734  222.3753 H   0  0  0  0  0  0  0  0  0  0  0  0
  1  2  2  0
  2  3  1  0
  3  4  1  0
  4  5  1  0
  5  6  1  0
  6  7  2  3
  7  8  1  0
  8  9  2  0
  9 10  1  0
 10 11  2  0
 11 12  1  0
 12 13  2  0
  7 14  1  0
 14 15  2  0
 15 16  1  0
 16 17  2  0
 17 18  1  0
 18 19  2  0
 13  8  1  0
 19 14  1  0
  2 20  1  0
  3 21  1  0
  4 22  1  0
  4 23  1  0
  5 24  1  0
  5 25  1  0
  6 26  1  0
  9 27  1  0
 10 28  1  0
 11 29  1  0
 12 30  1  0
 13 31  1  0
 15 32  1  0
 16 33  1  0
 17 34  1  0
 18 35  1  0
 19 36  1  0
M  END
>  <UniqueID>  (23) 
38

>  <SMILES>  (23) 
O=CNCCC=C(c1ccccc1)c1ccccc1

>  <Energy>  (23) 
41.79603568944126

>  <Genealogy>  (23) 
O=CNCCC=C(c1ccccc1)c1ccccc1 (3D coordinates assigned)
O=CNCCC=C(c1ccccc1)c1ccccc1 (optimized conformer: 41.79603568944126 kcal/mol)

>  <smiles>  (23) 
O=CNCCC=C(c1ccccc1)c1ccccc1

>  <score_type>  (23) 
oracle

>  <origin>  (23) 
autodockgpu

>  <m_score__min__energy>  (23) 
-5.5999999999999996

>  <m_primary>  (23) 
energy

>  <meeko>  (23) 
{"free_energy": -5.45, "intermolecular_energy": -7.24, "internal_energy": -1.18, "cluster_size": 16, "cluster_id": 2, "rank_in_cluster": 13}

>  <energy>  (23) 
-5.56

>  <cluster_rmsd>  (23) 
0.19

>  <rmsd>  (23) 
271.4

>  <cluster>  (23) 
1

$$$$
NYPVCQFMQXTFET-GPQMBLKYNA-N
     RDKit          3D

 36 37  0  0  0  0  0  0  0  0999 V2000
  141.5210   73.5370  221.0140 O   0  0  0  0  0  0  0  0  0  0  0  0
  140.7010   73.3450  221.9510 C   0  0  0  0  0  0  0  0  0  0  0  0
  139.4880   74.1010  222.0330 N   0  0  0  0  0  0  0  0  0  0  0  0
  139.1340   75.1400  221.0670 C   0  0  0  0  0  0  0  0  0  0  0  0
  139.0800   76.5230  221.7300 C   0  0  0  0  0  0  0  0  0  0  0  0
  140.4000   76.9160  222.3450 C   0  0  0  0  0  0  0  0  0  0  0  0
  141.2290   77.8620  221.8570 C   0  0  0  0  0  0  0  0  0  0  0  0
  141.5870   79.0660  222.6430 C   0  0  0  0  0  0  0  0  0  0  0  0
  142.9390   79.3890  222.8460 C   0  0  0  0  0  0  0  0  0  0  0  0
  143.2880   80.5370  223.5630 C   0  0  0  0  0  0  0  0  0  0  0  0
  142.2920   81.3770  224.0680 C   0  0  0  0  0  0  0  0  0  0  0  0
  140.9450   81.0730  223.8510 C   0  0  0  0  0  0  0  0  0  0  0  0
  140.5920   79.9260  223.1350 C   0  0  0  0  0  0  0  0  0  0  0  0
  141.8160   77.7100  220.4970 C   0  0  0  0  0  0  0  0  0  0  0  0
  142.4160   76.4990  220.0990 C   0  0  0  0  0  0  0  0  0  0  0  0
  142.9790   76.3740  218.8240 C   0  0  0  0  0  0  0  0  0  0  0  0
  142.9540   77.4530  217.9380 C   0  0  0  0  0  0  0  0  0  0  0  0
  142.3690   78.6610  218.3250 C   0  0  0  0  0  0  0  0  0  0  0  0
  141.8060   78.7930  219.5980 C   0  0  0  0  0  0  0  0  0  0  0  0
  140.9200   72.5861  222.7166 H   0  0  0  0  0  0  0  0  0  0  0  0
  138.8080   73.8650  222.7900 H   0  0  0  0  0  0  0  0  0  0  0  0
  139.8875   75.1560  220.2657 H   0  0  0  0  0  0  0  0  0  0  0  0
  138.1380   74.9109  220.6602 H   0  0  0  0  0  0  0  0  0  0  0  0
  138.8083   77.2695  220.9691 H   0  0  0  0  0  0  0  0  0  0  0  0
  138.3330   76.4802  222.5363 H   0  0  0  0  0  0  0  0  0  0  0  0
  140.7103   76.3916  223.2608 H   0  0  0  0  0  0  0  0  0  0  0  0
  143.7256   78.7364  222.4394 H   0  0  0  0  0  0  0  0  0  0  0  0
  144.3479   80.7795  223.7299 H   0  0  0  0  0  0  0  0  0  0  0  0
  142.5680   82.2775  224.6363 H   0  0  0  0  0  0  0  0  0  0  0  0
  140.1617   81.7376  224.2444 H   0  0  0  0  0  0  0  0  0  0  0  0
  139.5312   79.6961  222.9562 H   0  0  0  0  0  0  0  0  0  0  0  0
  142.4420   75.6470  220.7943 H   0  0  0  0  0  0  0  0  0  0  0  0
  143.4421   75.4240  218.5191 H   0  0  0  0  0  0  0  0  0  0  0  0
  143.3949   77.3517  216.9354 H   0  0  0  0  0  0  0  0  0  0  0  0
  142.3512   79.5106  217.6265 H   0  0  0  0  0  0  0  0  0  0  0  0
  141.3525   79.7490  219.8988 H   0  0  0  0  0  0  0  0  0  0  0  0
  1  2  2  0
  2  3  1  0
  3  4  1  0
  4  5  1  0
  5  6  1  0
  6  7  2  3
  7  8  1  0
  8  9  2  0
  9 10  1  0
 10 11  2  0
 11 12  1  0
 12 13  2  0
  7 14  1  0
 14 15  2  0
 15 16  1  0
 16 17  2  0
 17 18  1  0
 18 19  2  0
 13  8  1  0
 19 14  1  0
  2 20  1  0
  3 21  1  0
  4 22  1  0
  4 23  1  0
  5 24  1  0
  5 25  1  0
  6 26  1  0
  9 27  1  0
 10 28  1  0
 11 29  1  0
 12 30  1  0
 13 31  1  0
 15 32  1  0
 16 33  1  0
 17 34  1  0
 18 35  1  0
 19 36  1  0
M  END
>  <UniqueID>  (24) 
38

>  <SMILES>  (24) 
O=CNCCC=C(c1ccccc1)c1ccccc1

>  <Energy>  (24) 
41.79603568944126

>  <Genealogy>  (24) 
O=CNCCC=C(c1ccccc1)c1ccccc1 (3D coordinates assigned)
O=CNCCC=C(c1ccccc1)c1ccccc1 (optimized conformer: 41.79603568944126 kcal/mol)

>  <smiles>  (24) 
O=CNCCC=C(c1ccccc1)c1ccccc1

>  <score_type>  (24) 
oracle

>  <origin>  (24) 
autodockgpu

>  <m_score__min__energy>  (24) 
-5.5999999999999996

>  <m_primary>  (24) 
energy

>  <meeko>  (24) 
{"free_energy": -5.46, "intermolecular_energy": -7.25, "internal_energy": -1.19, "cluster_size": 16, "cluster_id": 2, "rank_in_cluster": 11}

>  <energy>  (24) 
-5.56

>  <cluster_rmsd>  (24) 
0.0

>  <rmsd>  (24) 
271.92

>  <cluster>  (24) 
2

$$$$
NYPVCQFMQXTFET-GPQMBLKYNA-N
     RDKit          3D

 36 37  0  0  0  0  0  0  0  0999 V2000
  140.7150   74.5000  221.5510 O   0  0  0  0  0  0  0  0  0  0  0  0
  139.5520   74.6160  222.0200 C   0  0  0  0  0  0  0  0  0  0  0  0
  138.7440   73.4630  222.2780 N   0  0  0  0  0  0  0  0  0  0  0  0
  139.1950   72.1010  222.0020 C   0  0  0  0  0  0  0  0  0  0  0  0
  140.5050   71.7860  222.7400 C   0  0  0  0  0  0  0  0  0  0  0  0
  140.2890   71.5580  224.2160 C   0  0  0  0  0  0  0  0  0  0  0  0
  139.7150   70.4610  224.7510 C   0  0  0  0  0  0  0  0  0  0  0  0
  140.1650   69.8990  226.0460 C   0  0  0  0  0  0  0  0  0  0  0  0
  140.2310   68.5060  226.2160 C   0  0  0  0  0  0  0  0  0  0  0  0
  140.6810   67.9650  227.4250 C   0  0  0  0  0  0  0  0  0  0  0  0
  141.0810   68.8090  228.4630 C   0  0  0  0  0  0  0  0  0  0  0  0
  141.0380   70.1970  228.2930 C   0  0  0  0  0  0  0  0  0  0  0  0
  140.5890   70.7410  227.0870 C   0  0  0  0  0  0  0  0  0  0  0  0
  138.5920   69.7860  224.0440 C   0  0  0  0  0  0  0  0  0  0  0  0
  137.2570   70.1740  224.2680 C   0  0  0  0  0  0  0  0  0  0  0  0
  136.2100   69.5210  223.6090 C   0  0  0  0  0  0  0  0  0  0  0  0
  136.4820   68.4740  222.7260 C   0  0  0  0  0  0  0  0  0  0  0  0
  137.8020   68.0740  222.5020 C   0  0  0  0  0  0  0  0  0  0  0  0
  138.8520   68.7230  223.1590 C   0  0  0  0  0  0  0  0  0  0  0  0
  139.1514   75.6177  222.2345 H   0  0  0  0  0  0  0  0  0  0  0  0
  137.8100   73.6030  222.7260 H   0  0  0  0  0  0  0  0  0  0  0  0
  138.4196   71.3934  222.3306 H   0  0  0  0  0  0  0  0  0  0  0  0
  139.3747   72.0073  220.9208 H   0  0  0  0  0  0  0  0  0  0  0  0
  140.9482   70.8791  222.3029 H   0  0  0  0  0  0  0  0  0  0  0  0
  141.1723   72.6532  222.6271 H   0  0  0  0  0  0  0  0  0  0  0  0
  140.6247   72.3452  224.9071 H   0  0  0  0  0  0  0  0  0  0  0  0
  139.9279   67.8386  225.3958 H   0  0  0  0  0  0  0  0  0  0  0  0
  140.7198   66.8738  227.5581 H   0  0  0  0  0  0  0  0  0  0  0  0
  141.4301   68.3823  229.4149 H   0  0  0  0  0  0  0  0  0  0  0  0
  141.3580   70.8607  229.1097 H   0  0  0  0  0  0  0  0  0  0  0  0
  140.5675   71.8325  226.9524 H   0  0  0  0  0  0  0  0  0  0  0  0
  137.0361   70.9955  224.9654 H   0  0  0  0  0  0  0  0  0  0  0  0
  135.1703   69.8330  223.7867 H   0  0  0  0  0  0  0  0  0  0  0  0
  135.6571   67.9641  222.2067 H   0  0  0  0  0  0  0  0  0  0  0  0
  138.0154   67.2476  221.8080 H   0  0  0  0  0  0  0  0  0  0  0  0
  139.8888   68.4004  222.9828 H   0  0  0  0  0  0  0  0  0  0  0  0
  1  2  2  0
  2  3  1  0
  3  4  1  0
  4  5  1  0
  5  6  1  0
  6  7  2  3
  7  8  1  0
  8  9  2  0
  9 10  1  0
 10 11  2  0
 11 12  1  0
 12 13  2  0
  7 14  1  0
 14 15  2  0
 15 16  1  0
 16 17  2  0
 17 18  1  0
 18 19  2  0
 13  8  1  0
 19 14  1  0
  2 20  1  0
  3 21  1  0
  4 22  1  0
  4 23  1  0
  5 24  1  0
  5 25  1  0
  6 26  1  0
  9 27  1  0
 10 28  1  0
 11 29  1  0
 12 30  1  0
 13 31  1  0
 15 32  1  0
 16 33  1  0
 17 34  1  0
 18 35  1  0
 19 36  1  0
M  END
>  <UniqueID>  (25) 
38

>  <SMILES>  (25) 
O=CNCCC=C(c1ccccc1)c1ccccc1

>  <Energy>  (25) 
41.79603568944126

>  <Genealogy>  (25) 
O=CNCCC=C(c1ccccc1)c1ccccc1 (3D coordinates assigned)
O=CNCCC=C(c1ccccc1)c1ccccc1 (optimized conformer: 41.79603568944126 kcal/mol)

>  <smiles>  (25) 
O=CNCCC=C(c1ccccc1)c1ccccc1

>  <score_type>  (25) 
oracle

>  <origin>  (25) 
autodockgpu

>  <m_score__min__energy>  (25) 
-5.5999999999999996

>  <m_primary>  (25) 
energy

>  <meeko>  (25) 
{"free_energy": -5.6, "intermolecular_energy": -7.39, "internal_energy": -1.01, "cluster_size": 3, "cluster_id": 1, "rank_in_cluster": 1}

>  <energy>  (25) 
-5.54

>  <cluster_rmsd>  (25) 
0.3

>  <rmsd>  (25) 
272.02

>  <cluster>  (25) 
2

$$$$
NYPVCQFMQXTFET-GPQMBLKYNA-N
     RDKit          3D

 36 37  0  0  0  0  0  0  0  0999 V2000
  140.3230   73.7790  222.3350 O   0  0  0  0  0  0  0  0  0  0  0  0
  140.0560   74.1560  221.1630 C   0  0  0  0  0  0  0  0  0  0  0  0
  139.0720   75.1670  220.9220 N   0  0  0  0  0  0  0  0  0  0  0  0
  138.3100   75.8040  221.9950 C   0  0  0  0  0  0  0  0  0  0  0  0
  138.9880   77.0970  222.4690 C   0  0  0  0  0  0  0  0  0  0  0  0
  140.4900   77.0340  222.3460 C   0  0  0  0  0  0  0  0  0  0  0  0
  141.2680   78.0300  221.8710 C   0  0  0  0  0  0  0  0  0  0  0  0
  141.6000   79.2190  222.6900 C   0  0  0  0  0  0  0  0  0  0  0  0
  142.9360   79.4740  223.0390 C   0  0  0  0  0  0  0  0  0  0  0  0
  143.2630   80.6080  223.7880 C   0  0  0  0  0  0  0  0  0  0  0  0
  142.2630   81.5010  224.1810 C   0  0  0  0  0  0  0  0  0  0  0  0
  140.9330   81.2640  223.8180 C   0  0  0  0  0  0  0  0  0  0  0  0
  140.6020   80.1320  223.0690 C   0  0  0  0  0  0  0  0  0  0  0  0
  141.8250   77.9470  220.4920 C   0  0  0  0  0  0  0  0  0  0  0  0
  142.4250   76.7620  220.0230 C   0  0  0  0  0  0  0  0  0  0  0  0
  142.9590   76.7030  218.7310 C   0  0  0  0  0  0  0  0  0  0  0  0
  142.9050   77.8230  217.8990 C   0  0  0  0  0  0  0  0  0  0  0  0
  142.3210   79.0060  218.3560 C   0  0  0  0  0  0  0  0  0  0  0  0
  141.7860   79.0720  219.6460 C   0  0  0  0  0  0  0  0  0  0  0  0
  140.5865   73.7019  220.3131 H   0  0  0  0  0  0  0  0  0  0  0  0
  138.9270   75.4930  219.9410 H   0  0  0  0  0  0  0  0  0  0  0  0
  137.3018   76.0428  221.6255 H   0  0  0  0  0  0  0  0  0  0  0  0
  138.2583   75.1075  222.8448 H   0  0  0  0  0  0  0  0  0  0  0  0
  138.6180   77.9345  221.8593 H   0  0  0  0  0  0  0  0  0  0  0  0
  138.7429   77.2352  223.5324 H   0  0  0  0  0  0  0  0  0  0  0  0
  140.9887   76.1076  222.6672 H   0  0  0  0  0  0  0  0  0  0  0  0
  143.7277   78.7792  222.7220 H   0  0  0  0  0  0  0  0  0  0  0  0
  144.3096   80.7977  224.0685 H   0  0  0  0  0  0  0  0  0  0  0  0
  142.5213   82.3898  224.7754 H   0  0  0  0  0  0  0  0  0  0  0  0
  140.1465   81.9700  224.1227 H   0  0  0  0  0  0  0  0  0  0  0  0
  139.5568   79.9552  222.7752 H   0  0  0  0  0  0  0  0  0  0  0  0
  142.4740   75.8782  220.6760 H   0  0  0  0  0  0  0  0  0  0  0  0
  143.4221   75.7728  218.3702 H   0  0  0  0  0  0  0  0  0  0  0  0
  143.3229   77.7733  216.8827 H   0  0  0  0  0  0  0  0  0  0  0  0
  142.2817   79.8879  217.6997 H   0  0  0  0  0  0  0  0  0  0  0  0
  141.3319   80.0084  220.0022 H   0  0  0  0  0  0  0  0  0  0  0  0
  1  2  2  0
  2  3  1  0
  3  4  1  0
  4  5  1  0
  5  6  1  0
  6  7  2  3
  7  8  1  0
  8  9  2  0
  9 10  1  0
 10 11  2  0
 11 12  1  0
 12 13  2  0
  7 14  1  0
 14 15  2  0
 15 16  1  0
 16 17  2  0
 17 18  1  0
 18 19  2  0
 13  8  1  0
 19 14  1  0
  2 20  1  0
  3 21  1  0
  4 22  1  0
  4 23  1  0
  5 24  1  0
  5 25  1  0
  6 26  1  0
  9 27  1  0
 10 28  1  0
 11 29  1  0
 12 30  1  0
 13 31  1  0
 15 32  1  0
 16 33  1  0
 17 34  1  0
 18 35  1  0
 19 36  1  0
M  END
>  <UniqueID>  (26) 
38

>  <SMILES>  (26) 
O=CNCCC=C(c1ccccc1)c1ccccc1

>  <Energy>  (26) 
41.79603568944126

>  <Genealogy>  (26) 
O=CNCCC=C(c1ccccc1)c1ccccc1 (3D coordinates assigned)
O=CNCCC=C(c1ccccc1)c1ccccc1 (optimized conformer: 41.79603568944126 kcal/mol)

>  <smiles>  (26) 
O=CNCCC=C(c1ccccc1)c1ccccc1

>  <score_type>  (26) 
oracle

>  <origin>  (26) 
autodockgpu

>  <m_score__min__energy>  (26) 
-5.5999999999999996

>  <m_primary>  (26) 
energy

>  <meeko>  (26) 
{"free_energy": -5.54, "intermolecular_energy": -7.33, "internal_energy": -1.09, "cluster_size": 16, "cluster_id": 2, "rank_in_cluster": 2}

>  <energy>  (26) 
-5.53

>  <cluster_rmsd>  (26) 
0.15

>  <rmsd>  (26) 
271.96

>  <cluster>  (26) 
2

$$$$
NYPVCQFMQXTFET-GPQMBLKYNA-N
     RDKit          3D

 36 37  0  0  0  0  0  0  0  0999 V2000
  141.3360   73.6310  221.0950 O   0  0  0  0  0  0  0  0  0  0  0  0
  140.4600   73.3290  221.9480 C   0  0  0  0  0  0  0  0  0  0  0  0
  139.2390   74.0700  222.0430 N   0  0  0  0  0  0  0  0  0  0  0  0
  138.9400   75.2180  221.1880 C   0  0  0  0  0  0  0  0  0  0  0  0
  139.0950   76.5390  221.9540 C   0  0  0  0  0  0  0  0  0  0  0  0
  140.5280   76.8150  222.3370 C   0  0  0  0  0  0  0  0  0  0  0  0
  141.2970   77.7860  221.8020 C   0  0  0  0  0  0  0  0  0  0  0  0
  141.6230   79.0230  222.5500 C   0  0  0  0  0  0  0  0  0  0  0  0
  140.5890   79.8010  223.0950 C   0  0  0  0  0  0  0  0  0  0  0  0
  140.8880   80.9550  223.8270 C   0  0  0  0  0  0  0  0  0  0  0  0
  142.2180   81.3300  224.0300 C   0  0  0  0  0  0  0  0  0  0  0  0
  143.2530   80.5480  223.5080 C   0  0  0  0  0  0  0  0  0  0  0  0
  142.9590   79.3940  222.7770 C   0  0  0  0  0  0  0  0  0  0  0  0
  141.8490   77.6280  220.4280 C   0  0  0  0  0  0  0  0  0  0  0  0
  142.4500   76.4210  220.0230 C   0  0  0  0  0  0  0  0  0  0  0  0
  142.9800   76.2910  218.7350 C   0  0  0  0  0  0  0  0  0  0  0  0
  142.9200   77.3620  217.8410 C   0  0  0  0  0  0  0  0  0  0  0  0
  142.3340   78.5670  218.2340 C   0  0  0  0  0  0  0  0  0  0  0  0
  141.8040   78.7030  219.5210 C   0  0  0  0  0  0  0  0  0  0  0  0
  140.6357   72.4838  222.6297 H   0  0  0  0  0  0  0  0  0  0  0  0
  138.5140   73.7460  222.7210 H   0  0  0  0  0  0  0  0  0  0  0  0
  139.6309   75.2169  220.3320 H   0  0  0  0  0  0  0  0  0  0  0  0
  137.8976   75.1347  220.8468 H   0  0  0  0  0  0  0  0  0  0  0  0
  138.7344   77.3609  221.3180 H   0  0  0  0  0  0  0  0  0  0  0  0
  138.5083   76.4608  222.8812 H   0  0  0  0  0  0  0  0  0  0  0  0
  140.9798   76.1766  223.1106 H   0  0  0  0  0  0  0  0  0  0  0  0
  139.5409   79.5022  222.9460 H   0  0  0  0  0  0  0  0  0  0  0  0
  140.0748   81.5677  224.2432 H   0  0  0  0  0  0  0  0  0  0  0  0
  142.4514   82.2409  224.6008 H   0  0  0  0  0  0  0  0  0  0  0  0
  144.3001   80.8417  223.6730 H   0  0  0  0  0  0  0  0  0  0  0  0
  143.7757   78.7744  222.3782 H   0  0  0  0  0  0  0  0  0  0  0  0
  142.5031   75.5748  220.7238 H   0  0  0  0  0  0  0  0  0  0  0  0
  143.4449   75.3433  218.4258 H   0  0  0  0  0  0  0  0  0  0  0  0
  143.3342   77.2565  216.8275 H   0  0  0  0  0  0  0  0  0  0  0  0
  142.2892   79.4109  217.5299 H   0  0  0  0  0  0  0  0  0  0  0  0
  141.3489   79.6567  219.8264 H   0  0  0  0  0  0  0  0  0  0  0  0
  1  2  2  0
  2  3  1  0
  3  4  1  0
  4  5  1  0
  5  6  1  0
  6  7  2  3
  7  8  1  0
  8  9  2  0
  9 10  1  0
 10 11  2  0
 11 12  1  0
 12 13  2  0
  7 14  1  0
 14 15  2  0
 15 16  1  0
 16 17  2  0
 17 18  1  0
 18 19  2  0
 13  8  1  0
 19 14  1  0
  2 20  1  0
  3 21  1  0
  4 22  1  0
  4 23  1  0
  5 24  1  0
  5 25  1  0
  6 26  1  0
  9 27  1  0
 10 28  1  0
 11 29  1  0
 12 30  1  0
 13 31  1  0
 15 32  1  0
 16 33  1  0
 17 34  1  0
 18 35  1  0
 19 36  1  0
M  END
>  <UniqueID>  (27) 
38

>  <SMILES>  (27) 
O=CNCCC=C(c1ccccc1)c1ccccc1

>  <Energy>  (27) 
41.79603568944126

>  <Genealogy>  (27) 
O=CNCCC=C(c1ccccc1)c1ccccc1 (3D coordinates assigned)
O=CNCCC=C(c1ccccc1)c1ccccc1 (optimized conformer: 41.79603568944126 kcal/mol)

>  <smiles>  (27) 
O=CNCCC=C(c1ccccc1)c1ccccc1

>  <score_type>  (27) 
oracle

>  <origin>  (27) 
autodockgpu

>  <m_score__min__energy>  (27) 
-5.5999999999999996

>  <m_primary>  (27) 
energy

>  <meeko>  (27) 
{"free_energy": -5.48, "intermolecular_energy": -7.27, "internal_energy": -1.17, "cluster_size": 16, "cluster_id": 2, "rank_in_cluster": 8}

>  <energy>  (27) 
-5.53

>  <cluster_rmsd>  (27) 
0.38

>  <rmsd>  (27) 
272.01

>  <cluster>  (27) 
2

$$$$
NYPVCQFMQXTFET-GPQMBLKYNA-N
     RDKit          3D

 36 37  0  0  0  0  0  0  0  0999 V2000
  141.4560   73.6020  221.0180 O   0  0  0  0  0  0  0  0  0  0  0  0
  140.6260   73.3760  221.9380 C   0  0  0  0  0  0  0  0  0  0  0  0
  139.4140   74.1320  222.0370 N   0  0  0  0  0  0  0  0  0  0  0  0
  139.0730   75.2090  221.1090 C   0  0  0  0  0  0  0  0  0  0  0  0
  139.1020   76.5770  221.8070 C   0  0  0  0  0  0  0  0  0  0  0  0
  140.4710   76.9160  222.3430 C   0  0  0  0  0  0  0  0  0  0  0  0
  141.2720   77.8860  221.8550 C   0  0  0  0  0  0  0  0  0  0  0  0
  141.6090   79.0920  222.6480 C   0  0  0  0  0  0  0  0  0  0  0  0
  142.9550   79.4080  222.8970 C   0  0  0  0  0  0  0  0  0  0  0  0
  143.2840   80.5590  223.6200 C   0  0  0  0  0  0  0  0  0  0  0  0
  142.2760   81.4060  224.0850 C   0  0  0  0  0  0  0  0  0  0  0  0
  140.9350   81.1090  223.8210 C   0  0  0  0  0  0  0  0  0  0  0  0
  140.6020   79.9600  223.0990 C   0  0  0  0  0  0  0  0  0  0  0  0
  141.8510   77.7580  220.4890 C   0  0  0  0  0  0  0  0  0  0  0  0
  141.8150   78.8350  219.5820 C   0  0  0  0  0  0  0  0  0  0  0  0
  142.3470   78.6960  218.2960 C   0  0  0  0  0  0  0  0  0  0  0  0
  142.9140   77.4830  217.9000 C   0  0  0  0  0  0  0  0  0  0  0  0
  142.9480   76.4050  218.7870 C   0  0  0  0  0  0  0  0  0  0  0  0
  142.4160   76.5370  220.0730 C   0  0  0  0  0  0  0  0  0  0  0  0
  140.8351   72.5871  222.6755 H   0  0  0  0  0  0  0  0  0  0  0  0
  138.7260   73.8690  222.7770 H   0  0  0  0  0  0  0  0  0  0  0  0
  139.7988   75.2130  220.2824 H   0  0  0  0  0  0  0  0  0  0  0  0
  138.0547   75.0331  220.7319 H   0  0  0  0  0  0  0  0  0  0  0  0
  138.8038   77.3500  221.0834 H   0  0  0  0  0  0  0  0  0  0  0  0
  138.4073   76.5356  222.6588 H   0  0  0  0  0  0  0  0  0  0  0  0
  140.8439   76.3287  223.1951 H   0  0  0  0  0  0  0  0  0  0  0  0
  143.7519   78.7487  222.5225 H   0  0  0  0  0  0  0  0  0  0  0  0
  144.3385   80.7975  223.8227 H   0  0  0  0  0  0  0  0  0  0  0  0
  142.5367   82.3073  224.6592 H   0  0  0  0  0  0  0  0  0  0  0  0
  140.1420   81.7804  224.1820 H   0  0  0  0  0  0  0  0  0  0  0  0
  139.5471   79.7348  222.8832 H   0  0  0  0  0  0  0  0  0  0  0  0
  141.3656   79.7916  219.8870 H   0  0  0  0  0  0  0  0  0  0  0  0
  142.3187   79.5436  217.5955 H   0  0  0  0  0  0  0  0  0  0  0  0
  143.3341   77.3765  216.8889 H   0  0  0  0  0  0  0  0  0  0  0  0
  143.3944   75.4499  218.4731 H   0  0  0  0  0  0  0  0  0  0  0  0
  142.4389   75.6817  220.7643 H   0  0  0  0  0  0  0  0  0  0  0  0
  1  2  2  0
  2  3  1  0
  3  4  1  0
  4  5  1  0
  5  6  1  0
  6  7  2  3
  7  8  1  0
  8  9  2  0
  9 10  1  0
 10 11  2  0
 11 12  1  0
 12 13  2  0
  7 14  1  0
 14 15  2  0
 15 16  1  0
 16 17  2  0
 17 18  1  0
 18 19  2  0
 13  8  1  0
 19 14  1  0
  2 20  1  0
  3 21  1  0
  4 22  1  0
  4 23  1  0
  5 24  1  0
  5 25  1  0
  6 26  1  0
  9 27  1  0
 10 28  1  0
 11 29  1  0
 12 30  1  0
 13 31  1  0
 15 32  1  0
 16 33  1  0
 17 34  1  0
 18 35  1  0
 19 36  1  0
M  END
>  <UniqueID>  (28) 
38

>  <SMILES>  (28) 
O=CNCCC=C(c1ccccc1)c1ccccc1

>  <Energy>  (28) 
41.79603568944126

>  <Genealogy>  (28) 
O=CNCCC=C(c1ccccc1)c1ccccc1 (3D coordinates assigned)
O=CNCCC=C(c1ccccc1)c1ccccc1 (optimized conformer: 41.79603568944126 kcal/mol)

>  <smiles>  (28) 
O=CNCCC=C(c1ccccc1)c1ccccc1

>  <score_type>  (28) 
oracle

>  <origin>  (28) 
autodockgpu

>  <m_score__min__energy>  (28) 
-5.5999999999999996

>  <m_primary>  (28) 
energy

>  <meeko>  (28) 
{"free_energy": -5.45, "intermolecular_energy": -7.24, "internal_energy": -1.18, "cluster_size": 16, "cluster_id": 2, "rank_in_cluster": 12}

>  <energy>  (28) 
-5.51

>  <cluster_rmsd>  (28) 
0.15

>  <rmsd>  (28) 
271.88

>  <cluster>  (28) 
2

$$$$
NYPVCQFMQXTFET-GPQMBLKYNA-N
     RDKit          3D

 36 37  0  0  0  0  0  0  0  0999 V2000
  139.9520   74.6470  221.9710 O   0  0  0  0  0  0  0  0  0  0  0  0
  141.0250   75.3030  221.8970 C   0  0  0  0  0  0  0  0  0  0  0  0
  141.0110   76.7080  221.6200 N   0  0  0  0  0  0  0  0  0  0  0  0
  139.7780   77.4580  221.3880 C   0  0  0  0  0  0  0  0  0  0  0  0
  138.8870   77.4680  222.6380 C   0  0  0  0  0  0  0  0  0  0  0  0
  138.1880   78.7910  222.8330 C   0  0  0  0  0  0  0  0  0  0  0  0
  138.7810   79.9190  223.2760 C   0  0  0  0  0  0  0  0  0  0  0  0
  140.2330   80.1570  223.1030 C   0  0  0  0  0  0  0  0  0  0  0  0
  141.1560   79.4160  223.8610 C   0  0  0  0  0  0  0  0  0  0  0  0
  142.5290   79.6130  223.6850 C   0  0  0  0  0  0  0  0  0  0  0  0
  142.9890   80.5370  222.7440 C   0  0  0  0  0  0  0  0  0  0  0  0
  142.0760   81.2630  221.9720 C   0  0  0  0  0  0  0  0  0  0  0  0
  140.7030   81.0690  222.1440 C   0  0  0  0  0  0  0  0  0  0  0  0
  137.9720   80.9700  223.9530 C   0  0  0  0  0  0  0  0  0  0  0  0
  137.7040   80.9010  225.3340 C   0  0  0  0  0  0  0  0  0  0  0  0
  136.9280   81.8850  225.9550 C   0  0  0  0  0  0  0  0  0  0  0  0
  136.4080   82.9440  225.2060 C   0  0  0  0  0  0  0  0  0  0  0  0
  136.6590   83.0180  223.8340 C   0  0  0  0  0  0  0  0  0  0  0  0
  137.4330   82.0360  223.2080 C   0  0  0  0  0  0  0  0  0  0  0  0
  141.9861   74.7894  222.0473 H   0  0  0  0  0  0  0  0  0  0  0  0
  141.9190   77.2240  221.6300 H   0  0  0  0  0  0  0  0  0  0  0  0
  140.0337   78.4943  221.1221 H   0  0  0  0  0  0  0  0  0  0  0  0
  139.2245   76.9716  220.5713 H   0  0  0  0  0  0  0  0  0  0  0  0
  138.1278   76.6784  222.5375 H   0  0  0  0  0  0  0  0  0  0  0  0
  139.5321   77.2964  223.5123 H   0  0  0  0  0  0  0  0  0  0  0  0
  137.1149   78.8394  222.5963 H   0  0  0  0  0  0  0  0  0  0  0  0
  140.7972   78.6791  224.5947 H   0  0  0  0  0  0  0  0  0  0  0  0
  143.2479   79.0395  224.2885 H   0  0  0  0  0  0  0  0  0  0  0  0
  144.0695   80.6938  222.6100 H   0  0  0  0  0  0  0  0  0  0  0  0
  142.4394   81.9876  221.2285 H   0  0  0  0  0  0  0  0  0  0  0  0
  139.9880   81.6323  221.5264 H   0  0  0  0  0  0  0  0  0  0  0  0
  138.1076   80.0678  225.9280 H   0  0  0  0  0  0  0  0  0  0  0  0
  136.7266   81.8252  227.0348 H   0  0  0  0  0  0  0  0  0  0  0  0
  135.8012   83.7191  225.6968 H   0  0  0  0  0  0  0  0  0  0  0  0
  136.2470   83.8505  223.2447 H   0  0  0  0  0  0  0  0  0  0  0  0
  137.6220   82.0968  222.1261 H   0  0  0  0  0  0  0  0  0  0  0  0
  1  2  2  0
  2  3  1  0
  3  4  1  0
  4  5  1  0
  5  6  1  0
  6  7  2  3
  7  8  1  0
  8  9  2  0
  9 10  1  0
 10 11  2  0
 11 12  1  0
 12 13  2  0
  7 14  1  0
 14 15  2  0
 15 16  1  0
 16 17  2  0
 17 18  1  0
 18 19  2  0
 13  8  1  0
 19 14  1  0
  2 20  1  0
  3 21  1  0
  4 22  1  0
  4 23  1  0
  5 24  1  0
  5 25  1  0
  6 26  1  0
  9 27  1  0
 10 28  1  0
 11 29  1  0
 12 30  1  0
 13 31  1  0
 15 32  1  0
 16 33  1  0
 17 34  1  0
 18 35  1  0
 19 36  1  0
M  END
>  <UniqueID>  (29) 
38

>  <SMILES>  (29) 
O=CNCCC=C(c1ccccc1)c1ccccc1

>  <Energy>  (29) 
41.79603568944126

>  <Genealogy>  (29) 
O=CNCCC=C(c1ccccc1)c1ccccc1 (3D coordinates assigned)
O=CNCCC=C(c1ccccc1)c1ccccc1 (optimized conformer: 41.79603568944126 kcal/mol)

>  <smiles>  (29) 
O=CNCCC=C(c1ccccc1)c1ccccc1

>  <score_type>  (29) 
oracle

>  <origin>  (29) 
autodockgpu

>  <m_score__min__energy>  (29) 
-5.5999999999999996

>  <m_primary>  (29) 
energy

>  <meeko>  (29) 
{"free_energy": -5.49, "intermolecular_energy": -7.28, "internal_energy": -1.06, "cluster_size": 1, "cluster_id": 3, "rank_in_cluster": 1}

>  <energy>  (29) 
-5.48

>  <cluster_rmsd>  (29) 
0.31

>  <rmsd>  (29) 
271.95

>  <cluster>  (29) 
2

$$$$
NYPVCQFMQXTFET-GPQMBLKYNA-N
     RDKit          3D

 36 37  0  0  0  0  0  0  0  0999 V2000
  140.3060   73.7610  222.3360 O   0  0  0  0  0  0  0  0  0  0  0  0
  139.7710   73.9860  221.2180 C   0  0  0  0  0  0  0  0  0  0  0  0
  138.7210   74.9500  221.0860 N   0  0  0  0  0  0  0  0  0  0  0  0
  138.1940   75.7080  222.2190 C   0  0  0  0  0  0  0  0  0  0  0  0
  138.8740   77.0800  222.3380 C   0  0  0  0  0  0  0  0  0  0  0  0
  140.3790   76.9730  222.3560 C   0  0  0  0  0  0  0  0  0  0  0  0
  141.2240   77.8780  221.8180 C   0  0  0  0  0  0  0  0  0  0  0  0
  141.7970   77.7000  220.4640 C   0  0  0  0  0  0  0  0  0  0  0  0
  141.8120   78.7800  219.5660 C   0  0  0  0  0  0  0  0  0  0  0  0
  142.3770   78.6300  218.2950 C   0  0  0  0  0  0  0  0  0  0  0  0
  142.9410   77.4090  217.9190 C   0  0  0  0  0  0  0  0  0  0  0  0
  142.9500   76.3360  218.8160 C   0  0  0  0  0  0  0  0  0  0  0  0
  142.3860   76.4820  220.0870 C   0  0  0  0  0  0  0  0  0  0  0  0
  141.5950   79.0980  222.5850 C   0  0  0  0  0  0  0  0  0  0  0  0
  142.9450   79.4070  222.8470 C   0  0  0  0  0  0  0  0  0  0  0  0
  143.2800   80.5480  223.5830 C   0  0  0  0  0  0  0  0  0  0  0  0
  142.2760   81.3880  224.0700 C   0  0  0  0  0  0  0  0  0  0  0  0
  140.9350   81.0880  223.8240 C   0  0  0  0  0  0  0  0  0  0  0  0
  140.5930   79.9480  223.0900 C   0  0  0  0  0  0  0  0  0  0  0  0
  140.1154   73.4341  220.3310 H   0  0  0  0  0  0  0  0  0  0  0  0
  138.3500   75.1500  220.1310 H   0  0  0  0  0  0  0  0  0  0  0  0
  137.1128   75.8549  222.0798 H   0  0  0  0  0  0  0  0  0  0  0  0
  138.3946   75.1403  223.1396 H   0  0  0  0  0  0  0  0  0  0  0  0
  138.5735   77.6994  221.4801 H   0  0  0  0  0  0  0  0  0  0  0  0
  138.5571   77.5315  223.2897 H   0  0  0  0  0  0  0  0  0  0  0  0
  140.8207   76.0917  222.8440 H   0  0  0  0  0  0  0  0  0  0  0  0
  141.3783   79.7463  219.8629 H   0  0  0  0  0  0  0  0  0  0  0  0
  142.3770   79.4750  217.5908 H   0  0  0  0  0  0  0  0  0  0  0  0
  143.3785   77.2911  216.9166 H   0  0  0  0  0  0  0  0  0  0  0  0
  143.4009   75.3769  218.5214 H   0  0  0  0  0  0  0  0  0  0  0  0
  142.4037   75.6398  220.7943 H   0  0  0  0  0  0  0  0  0  0  0  0
  143.7400   78.7466  222.4703 H   0  0  0  0  0  0  0  0  0  0  0  0
  144.3363   80.7844  223.7787 H   0  0  0  0  0  0  0  0  0  0  0  0
  142.5419   82.2858  224.6473 H   0  0  0  0  0  0  0  0  0  0  0  0
  140.1453   81.7501  224.2086 H   0  0  0  0  0  0  0  0  0  0  0  0
  139.5341   79.7139  222.9060 H   0  0  0  0  0  0  0  0  0  0  0  0
  1  2  2  0
  2  3  1  0
  3  4  1  0
  4  5  1  0
  5  6  1  0
  6  7  2  3
  7  8  1  0
  8  9  2  0
  9 10  1  0
 10 11  2  0
 11 12  1  0
 12 13  2  0
  7 14  1  0
 14 15  2  0
 15 16  1  0
 16 17  2  0
 17 18  1  0
 18 19  2  0
 13  8  1  0
 19 14  1  0
  2 20  1  0
  3 21  1  0
  4 22  1  0
  4 23  1  0
  5 24  1  0
  5 25  1  0
  6 26  1  0
  9 27  1  0
 10 28  1  0
 11 29  1  0
 12 30  1  0
 13 31  1  0
 15 32  1  0
 16 33  1  0
 17 34  1  0
 18 35  1  0
 19 36  1  0
M  END
>  <UniqueID>  (30) 
38

>  <SMILES>  (30) 
O=CNCCC=C(c1ccccc1)c1ccccc1

>  <Energy>  (30) 
41.79603568944126

>  <Genealogy>  (30) 
O=CNCCC=C(c1ccccc1)c1ccccc1 (3D coordinates assigned)
O=CNCCC=C(c1ccccc1)c1ccccc1 (optimized conformer: 41.79603568944126 kcal/mol)

>  <smiles>  (30) 
O=CNCCC=C(c1ccccc1)c1ccccc1

>  <score_type>  (30) 
oracle

>  <origin>  (30) 
autodockgpu

>  <m_score__min__energy>  (30) 
-5.5999999999999996

>  <m_primary>  (30) 
energy

>  <meeko>  (30) 
{"free_energy": -5.56, "intermolecular_energy": -7.35, "internal_energy": -1.11, "cluster_size": 16, "cluster_id": 2, "rank_in_cluster": 1}

>  <energy>  (30) 
-5.48

>  <cluster_rmsd>  (30) 
0.92

>  <rmsd>  (30) 
271.99

>  <cluster>  (30) 
2

$$$$
NYPVCQFMQXTFET-GPQMBLKYNA-N
     RDKit          3D

 36 37  0  0  0  0  0  0  0  0999 V2000
  141.0160   74.5800  221.4380 O   0  0  0  0  0  0  0  0  0  0  0  0
  139.8810   74.7090  221.9700 C   0  0  0  0  0  0  0  0  0  0  0  0
  139.0630   73.5670  222.2440 N   0  0  0  0  0  0  0  0  0  0  0  0
  139.4700   72.2020  221.9130 C   0  0  0  0  0  0  0  0  0  0  0  0
  140.6870   71.7670  222.7420 C   0  0  0  0  0  0  0  0  0  0  0  0
  140.3620   71.6310  224.2080 C   0  0  0  0  0  0  0  0  0  0  0  0
  139.7980   70.5440  224.7770 C   0  0  0  0  0  0  0  0  0  0  0  0
  140.2680   70.0120  226.0780 C   0  0  0  0  0  0  0  0  0  0  0  0
  140.6420   70.9010  227.0990 C   0  0  0  0  0  0  0  0  0  0  0  0
  141.0610   70.4100  228.3400 C   0  0  0  0  0  0  0  0  0  0  0  0
  141.0930   69.0330  228.5730 C   0  0  0  0  0  0  0  0  0  0  0  0
  140.7000   68.1430  227.5670 C   0  0  0  0  0  0  0  0  0  0  0  0
  140.2820   68.6300  226.3260 C   0  0  0  0  0  0  0  0  0  0  0  0
  138.6670   69.8520  224.1000 C   0  0  0  0  0  0  0  0  0  0  0  0
  137.3380   70.2770  224.2920 C   0  0  0  0  0  0  0  0  0  0  0  0
  136.2830   69.6070  223.6640 C   0  0  0  0  0  0  0  0  0  0  0  0
  136.5410   68.5060  222.8430 C   0  0  0  0  0  0  0  0  0  0  0  0
  137.8540   68.0700  222.6530 C   0  0  0  0  0  0  0  0  0  0  0  0
  138.9120   68.7350  223.2790 C   0  0  0  0  0  0  0  0  0  0  0  0
  139.5138   75.7134  222.2274 H   0  0  0  0  0  0  0  0  0  0  0  0
  138.1580   73.7150  222.7430 H   0  0  0  0  0  0  0  0  0  0  0  0
  138.6331   71.5185  222.1190 H   0  0  0  0  0  0  0  0  0  0  0  0
  139.7452   72.1699  220.8485 H   0  0  0  0  0  0  0  0  0  0  0  0
  141.0417   70.7957  222.3668 H   0  0  0  0  0  0  0  0  0  0  0  0
  141.4591   72.5437  222.6392 H   0  0  0  0  0  0  0  0  0  0  0  0
  140.6024   72.4812  224.8633 H   0  0  0  0  0  0  0  0  0  0  0  0
  140.6053   71.9861  226.9223 H   0  0  0  0  0  0  0  0  0  0  0  0
  141.3656   71.1088  229.1331 H   0  0  0  0  0  0  0  0  0  0  0  0
  141.4273   68.6480  229.5477 H   0  0  0  0  0  0  0  0  0  0  0  0
  140.7202   67.0591  227.7535 H   0  0  0  0  0  0  0  0  0  0  0  0
  139.9629   67.9287  225.5409 H   0  0  0  0  0  0  0  0  0  0  0  0
  137.1285   71.1410  224.9397 H   0  0  0  0  0  0  0  0  0  0  0  0
  135.2482   69.9474  223.8167 H   0  0  0  0  0  0  0  0  0  0  0  0
  135.7103   67.9830  222.3467 H   0  0  0  0  0  0  0  0  0  0  0  0
  138.0560   67.2013  222.0092 H   0  0  0  0  0  0  0  0  0  0  0  0
  139.9434   68.3831  223.1291 H   0  0  0  0  0  0  0  0  0  0  0  0
  1  2  2  0
  2  3  1  0
  3  4  1  0
  4  5  1  0
  5  6  1  0
  6  7  2  3
  7  8  1  0
  8  9  2  0
  9 10  1  0
 10 11  2  0
 11 12  1  0
 12 13  2  0
  7 14  1  0
 14 15  2  0
 15 16  1  0
 16 17  2  0
 17 18  1  0
 18 19  2  0
 13  8  1  0
 19 14  1  0
  2 20  1  0
  3 21  1  0
  4 22  1  0
  4 23  1  0
  5 24  1  0
  5 25  1  0
  6 26  1  0
  9 27  1  0
 10 28  1  0
 11 29  1  0
 12 30  1  0
 13 31  1  0
 15 32  1  0
 16 33  1  0
 17 34  1  0
 18 35  1  0
 19 36  1  0
M  END
>  <UniqueID>  (31) 
38

>  <SMILES>  (31) 
O=CNCCC=C(c1ccccc1)c1ccccc1

>  <Energy>  (31) 
41.79603568944126

>  <Genealogy>  (31) 
O=CNCCC=C(c1ccccc1)c1ccccc1 (3D coordinates assigned)
O=CNCCC=C(c1ccccc1)c1ccccc1 (optimized conformer: 41.79603568944126 kcal/mol)

>  <smiles>  (31) 
O=CNCCC=C(c1ccccc1)c1ccccc1

>  <score_type>  (31) 
oracle

>  <origin>  (31) 
autodockgpu

>  <m_score__min__energy>  (31) 
-5.5999999999999996

>  <m_primary>  (31) 
energy

>  <meeko>  (31) 
{"free_energy": -5.59, "intermolecular_energy": -7.38, "internal_energy": -1.05, "cluster_size": 3, "cluster_id": 1, "rank_in_cluster": 2}

>  <energy>  (31) 
-5.48

>  <cluster_rmsd>  (31) 
0.93

>  <rmsd>  (31) 
271.98

>  <cluster>  (31) 
2

$$$$
NYPVCQFMQXTFET-GPQMBLKYNA-N
     RDKit          3D

 36 37  0  0  0  0  0  0  0  0999 V2000
  141.4990   73.6170  221.0180 O   0  0  0  0  0  0  0  0  0  0  0  0
  140.6640   73.3610  221.9260 C   0  0  0  0  0  0  0  0  0  0  0  0
  139.4370   74.0920  222.0260 N   0  0  0  0  0  0  0  0  0  0  0  0
  139.0850   75.1780  221.1120 C   0  0  0  0  0  0  0  0  0  0  0  0
  139.0970   76.5360  221.8290 C   0  0  0  0  0  0  0  0  0  0  0  0
  140.4670   76.9000  222.3440 C   0  0  0  0  0  0  0  0  0  0  0  0
  141.2660   77.8480  221.8100 C   0  0  0  0  0  0  0  0  0  0  0  0
  141.8180   77.7210  220.4410 C   0  0  0  0  0  0  0  0  0  0  0  0
  141.7870   78.8250  219.5730 C   0  0  0  0  0  0  0  0  0  0  0  0
  142.3310   78.7240  218.2880 C   0  0  0  0  0  0  0  0  0  0  0  0
  142.9200   77.5290  217.8690 C   0  0  0  0  0  0  0  0  0  0  0  0
  142.9730   76.4330  218.7360 C   0  0  0  0  0  0  0  0  0  0  0  0
  142.4310   76.5300  220.0200 C   0  0  0  0  0  0  0  0  0  0  0  0
  141.6070   79.0650  222.5970 C   0  0  0  0  0  0  0  0  0  0  0  0
  140.6000   79.9260  223.0730 C   0  0  0  0  0  0  0  0  0  0  0  0
  140.9350   81.0750  223.7970 C   0  0  0  0  0  0  0  0  0  0  0  0
  142.2740   81.3800  224.0480 C   0  0  0  0  0  0  0  0  0  0  0  0
  143.2820   80.5380  223.5740 C   0  0  0  0  0  0  0  0  0  0  0  0
  142.9540   79.3880  222.8490 C   0  0  0  0  0  0  0  0  0  0  0  0
  140.8808   72.5641  222.6526 H   0  0  0  0  0  0  0  0  0  0  0  0
  138.7460   73.8040  222.7540 H   0  0  0  0  0  0  0  0  0  0  0  0
  139.8121   75.2019  220.2869 H   0  0  0  0  0  0  0  0  0  0  0  0
  138.0696   74.9956  220.7304 H   0  0  0  0  0  0  0  0  0  0  0  0
  138.7672   77.3119  221.1224 H   0  0  0  0  0  0  0  0  0  0  0  0
  138.4205   76.4657  222.6935 H   0  0  0  0  0  0  0  0  0  0  0  0
  140.8433   76.3520  223.2204 H   0  0  0  0  0  0  0  0  0  0  0  0
  141.3340   79.7710  219.9044 H   0  0  0  0  0  0  0  0  0  0  0  0
  142.2947   79.5869  217.6068 H   0  0  0  0  0  0  0  0  0  0  0  0
  143.3425   77.4498  216.8565 H   0  0  0  0  0  0  0  0  0  0  0  0
  143.4418   75.4939  218.4068 H   0  0  0  0  0  0  0  0  0  0  0  0
  142.4847   75.6700  220.7038 H   0  0  0  0  0  0  0  0  0  0  0  0
  139.5433   79.6938  222.8744 H   0  0  0  0  0  0  0  0  0  0  0  0
  140.1416   81.7397  224.1694 H   0  0  0  0  0  0  0  0  0  0  0  0
  142.5349   82.2833  224.6190 H   0  0  0  0  0  0  0  0  0  0  0  0
  144.3368   80.7799  223.7714 H   0  0  0  0  0  0  0  0  0  0  0  0
  143.7531   78.7320  222.4734 H   0  0  0  0  0  0  0  0  0  0  0  0
  1  2  2  0
  2  3  1  0
  3  4  1  0
  4  5  1  0
  5  6  1  0
  6  7  2  3
  7  8  1  0
  8  9  2  0
  9 10  1  0
 10 11  2  0
 11 12  1  0
 12 13  2  0
  7 14  1  0
 14 15  2  0
 15 16  1  0
 16 17  2  0
 17 18  1  0
 18 19  2  0
 13  8  1  0
 19 14  1  0
  2 20  1  0
  3 21  1  0
  4 22  1  0
  4 23  1  0
  5 24  1  0
  5 25  1  0
  6 26  1  0
  9 27  1  0
 10 28  1  0
 11 29  1  0
 12 30  1  0
 13 31  1  0
 15 32  1  0
 16 33  1  0
 17 34  1  0
 18 35  1  0
 19 36  1  0
M  END
>  <UniqueID>  (32) 
38

>  <SMILES>  (32) 
O=CNCCC=C(c1ccccc1)c1ccccc1

>  <Energy>  (32) 
41.79603568944126

>  <Genealogy>  (32) 
O=CNCCC=C(c1ccccc1)c1ccccc1 (3D coordinates assigned)
O=CNCCC=C(c1ccccc1)c1ccccc1 (optimized conformer: 41.79603568944126 kcal/mol)

>  <smiles>  (32) 
O=CNCCC=C(c1ccccc1)c1ccccc1

>  <score_type>  (32) 
oracle

>  <origin>  (32) 
autodockgpu

>  <m_score__min__energy>  (32) 
-5.5999999999999996

>  <m_primary>  (32) 
energy

>  <meeko>  (32) 
{"free_energy": -5.46, "intermolecular_energy": -7.25, "internal_energy": -1.18, "cluster_size": 16, "cluster_id": 2, "rank_in_cluster": 9}

>  <energy>  (32) 
-5.46

>  <cluster_rmsd>  (32) 
0.96

>  <rmsd>  (32) 
272.02

>  <cluster>  (32) 
2

$$$$
NYPVCQFMQXTFET-GPQMBLKYNA-N
     RDKit          3D

 36 37  0  0  0  0  0  0  0  0999 V2000
  140.3450   73.7340  222.2800 O   0  0  0  0  0  0  0  0  0  0  0  0
  139.9460   73.9720  221.1090 C   0  0  0  0  0  0  0  0  0  0  0  0
  138.9030   74.9210  220.8650 N   0  0  0  0  0  0  0  0  0  0  0  0
  138.2280   75.6490  221.9380 C   0  0  0  0  0  0  0  0  0  0  0  0
  138.8230   77.0530  222.1200 C   0  0  0  0  0  0  0  0  0  0  0  0
  140.3160   77.0180  222.3340 C   0  0  0  0  0  0  0  0  0  0  0  0
  141.1920   77.8980  221.8040 C   0  0  0  0  0  0  0  0  0  0  0  0
  141.7750   77.7010  220.4560 C   0  0  0  0  0  0  0  0  0  0  0  0
  141.8300   78.7790  219.5570 C   0  0  0  0  0  0  0  0  0  0  0  0
  142.4030   78.6110  218.2920 C   0  0  0  0  0  0  0  0  0  0  0  0
  142.9370   77.3730  217.9240 C   0  0  0  0  0  0  0  0  0  0  0  0
  142.9050   76.3020  218.8230 C   0  0  0  0  0  0  0  0  0  0  0  0
  142.3330   76.4660  220.0870 C   0  0  0  0  0  0  0  0  0  0  0  0
  141.5910   79.1080  222.5730 C   0  0  0  0  0  0  0  0  0  0  0  0
  142.9480   79.3950  222.8220 C   0  0  0  0  0  0  0  0  0  0  0  0
  143.3090   80.5260  223.5600 C   0  0  0  0  0  0  0  0  0  0  0  0
  142.3230   81.3790  224.0620 C   0  0  0  0  0  0  0  0  0  0  0  0
  140.9740   81.1010  223.8300 C   0  0  0  0  0  0  0  0  0  0  0  0
  140.6070   79.9700  223.0940 C   0  0  0  0  0  0  0  0  0  0  0  0
  140.4061   73.4426  220.2616 H   0  0  0  0  0  0  0  0  0  0  0  0
  138.6470   75.1330  219.8750 H   0  0  0  0  0  0  0  0  0  0  0  0
  137.1600   75.7417  221.6914 H   0  0  0  0  0  0  0  0  0  0  0  0
  138.3639   75.0901  222.8757 H   0  0  0  0  0  0  0  0  0  0  0  0
  138.6084   77.6477  221.2199 H   0  0  0  0  0  0  0  0  0  0  0  0
  138.3648   77.4996  223.0148 H   0  0  0  0  0  0  0  0  0  0  0  0
  140.7208   76.2161  222.9689 H   0  0  0  0  0  0  0  0  0  0  0  0
  141.4214   79.7578  219.8486 H   0  0  0  0  0  0  0  0  0  0  0  0
  142.4333   79.4542  217.5862 H   0  0  0  0  0  0  0  0  0  0  0  0
  143.3826   77.2409  216.9270 H   0  0  0  0  0  0  0  0  0  0  0  0
  143.3306   75.3296  218.5345 H   0  0  0  0  0  0  0  0  0  0  0  0
  142.3196   75.6249  220.7958 H   0  0  0  0  0  0  0  0  0  0  0  0
  143.7285   78.7245  222.4330 H   0  0  0  0  0  0  0  0  0  0  0  0
  144.3709   80.7447  223.7457 H   0  0  0  0  0  0  0  0  0  0  0  0
  142.6092   82.2699  224.6402 H   0  0  0  0  0  0  0  0  0  0  0  0
  140.1988   81.7730  224.2270 H   0  0  0  0  0  0  0  0  0  0  0  0
  139.5427   79.7523  222.9209 H   0  0  0  0  0  0  0  0  0  0  0  0
  1  2  2  0
  2  3  1  0
  3  4  1  0
  4  5  1  0
  5  6  1  0
  6  7  2  3
  7  8  1  0
  8  9  2  0
  9 10  1  0
 10 11  2  0
 11 12  1  0
 12 13  2  0
  7 14  1  0
 14 15  2  0
 15 16  1  0
 16 17  2  0
 17 18  1  0
 18 19  2  0
 13  8  1  0
 19 14  1  0
  2 20  1  0
  3 21  1  0
  4 22  1  0
  4 23  1  0
  5 24  1  0
  5 25  1  0
  6 26  1  0
  9 27  1  0
 10 28  1  0
 11 29  1  0
 12 30  1  0
 13 31  1  0
 15 32  1  0
 16 33  1  0
 17 34  1  0
 18 35  1  0
 19 36  1  0
M  END
>  <UniqueID>  (33) 
38

>  <SMILES>  (33) 
O=CNCCC=C(c1ccccc1)c1ccccc1

>  <Energy>  (33) 
41.79603568944126

>  <Genealogy>  (33) 
O=CNCCC=C(c1ccccc1)c1ccccc1 (3D coordinates assigned)
O=CNCCC=C(c1ccccc1)c1ccccc1 (optimized conformer: 41.79603568944126 kcal/mol)

>  <smiles>  (33) 
O=CNCCC=C(c1ccccc1)c1ccccc1

>  <score_type>  (33) 
oracle

>  <origin>  (33) 
autodockgpu

>  <m_score__min__energy>  (33) 
-5.5999999999999996

>  <m_primary>  (33) 
energy

>  <meeko>  (33) 
{"free_energy": -5.51, "intermolecular_energy": -7.3, "internal_energy": -1.14, "cluster_size": 16, "cluster_id": 2, "rank_in_cluster": 5}

>  <energy>  (33) 
-5.46

>  <cluster_rmsd>  (33) 
0.96

>  <rmsd>  (33) 
272.0

>  <cluster>  (33) 
2

$$$$
NYPVCQFMQXTFET-GPQMBLKYNA-N
     RDKit          3D

 36 37  0  0  0  0  0  0  0  0999 V2000
  141.5200   73.5420  221.0350 O   0  0  0  0  0  0  0  0  0  0  0  0
  140.6680   73.3140  221.9350 C   0  0  0  0  0  0  0  0  0  0  0  0
  139.4550   74.0690  222.0080 N   0  0  0  0  0  0  0  0  0  0  0  0
  139.1350   75.1490  221.0760 C   0  0  0  0  0  0  0  0  0  0  0  0
  139.1010   76.5090  221.7880 C   0  0  0  0  0  0  0  0  0  0  0  0
  140.4490   76.9010  222.3390 C   0  0  0  0  0  0  0  0  0  0  0  0
  141.2680   77.8250  221.7930 C   0  0  0  0  0  0  0  0  0  0  0  0
  141.8270   77.6620  220.4300 C   0  0  0  0  0  0  0  0  0  0  0  0
  141.7860   78.7370  219.5270 C   0  0  0  0  0  0  0  0  0  0  0  0
  142.3360   78.6020  218.2480 C   0  0  0  0  0  0  0  0  0  0  0  0
  142.9420   77.4020  217.8700 C   0  0  0  0  0  0  0  0  0  0  0  0
  143.0070   76.3350  218.7720 C   0  0  0  0  0  0  0  0  0  0  0  0
  142.4580   76.4650  220.0500 C   0  0  0  0  0  0  0  0  0  0  0  0
  141.6240   79.0510  222.5580 C   0  0  0  0  0  0  0  0  0  0  0  0
  142.9700   79.3930  222.7930 C   0  0  0  0  0  0  0  0  0  0  0  0
  143.2910   80.5400  223.5270 C   0  0  0  0  0  0  0  0  0  0  0  0
  142.2770   81.3520  224.0380 C   0  0  0  0  0  0  0  0  0  0  0  0
  140.9380   81.0180  223.8190 C   0  0  0  0  0  0  0  0  0  0  0  0
  140.6110   79.8730  223.0870 C   0  0  0  0  0  0  0  0  0  0  0  0
  140.8597   72.5231  222.6751 H   0  0  0  0  0  0  0  0  0  0  0  0
  138.7490   73.8040  222.7320 H   0  0  0  0  0  0  0  0  0  0  0  0
  139.8989   75.1777  220.2850 H   0  0  0  0  0  0  0  0  0  0  0  0
  138.1397   74.9557  220.6493 H   0  0  0  0  0  0  0  0  0  0  0  0
  138.7758   77.2761  221.0698 H   0  0  0  0  0  0  0  0  0  0  0  0
  138.4024   76.4284  222.6339 H   0  0  0  0  0  0  0  0  0  0  0  0
  140.7906   76.3961  223.2546 H   0  0  0  0  0  0  0  0  0  0  0  0
  141.3202   79.6875  219.8263 H   0  0  0  0  0  0  0  0  0  0  0  0
  142.2911   79.4420  217.5392 H   0  0  0  0  0  0  0  0  0  0  0  0
  143.3687   77.2958  216.8617 H   0  0  0  0  0  0  0  0  0  0  0  0
  143.4908   75.3928  218.4749 H   0  0  0  0  0  0  0  0  0  0  0  0
  142.5197   75.6280  220.7611 H   0  0  0  0  0  0  0  0  0  0  0  0
  143.7735   78.7545  222.3971 H   0  0  0  0  0  0  0  0  0  0  0  0
  144.3448   80.8026  223.7018 H   0  0  0  0  0  0  0  0  0  0  0  0
  142.5320   82.2545  224.6129 H   0  0  0  0  0  0  0  0  0  0  0  0
  140.1396   81.6575  224.2235 H   0  0  0  0  0  0  0  0  0  0  0  0
  139.5549   79.6125  222.9232 H   0  0  0  0  0  0  0  0  0  0  0  0
  1  2  2  0
  2  3  1  0
  3  4  1  0
  4  5  1  0
  5  6  1  0
  6  7  2  3
  7  8  1  0
  8  9  2  0
  9 10  1  0
 10 11  2  0
 11 12  1  0
 12 13  2  0
  7 14  1  0
 14 15  2  0
 15 16  1  0
 16 17  2  0
 17 18  1  0
 18 19  2  0
 13  8  1  0
 19 14  1  0
  2 20  1  0
  3 21  1  0
  4 22  1  0
  4 23  1  0
  5 24  1  0
  5 25  1  0
  6 26  1  0
  9 27  1  0
 10 28  1  0
 11 29  1  0
 12 30  1  0
 13 31  1  0
 15 32  1  0
 16 33  1  0
 17 34  1  0
 18 35  1  0
 19 36  1  0
M  END
>  <UniqueID>  (34) 
38

>  <SMILES>  (34) 
O=CNCCC=C(c1ccccc1)c1ccccc1

>  <Energy>  (34) 
41.79603568944126

>  <Genealogy>  (34) 
O=CNCCC=C(c1ccccc1)c1ccccc1 (3D coordinates assigned)
O=CNCCC=C(c1ccccc1)c1ccccc1 (optimized conformer: 41.79603568944126 kcal/mol)

>  <smiles>  (34) 
O=CNCCC=C(c1ccccc1)c1ccccc1

>  <score_type>  (34) 
oracle

>  <origin>  (34) 
autodockgpu

>  <m_score__min__energy>  (34) 
-5.5999999999999996

>  <m_primary>  (34) 
energy

>  <meeko>  (34) 
{"free_energy": -5.46, "intermolecular_energy": -7.25, "internal_energy": -1.18, "cluster_size": 16, "cluster_id": 2, "rank_in_cluster": 10}

>  <energy>  (34) 
-5.46

>  <cluster_rmsd>  (34) 
0.97

>  <rmsd>  (34) 
272.04

>  <cluster>  (34) 
2

$$$$
NYPVCQFMQXTFET-GPQMBLKYNA-N
     RDKit          3D

 36 37  0  0  0  0  0  0  0  0999 V2000
  140.6150   73.7540  222.3360 O   0  0  0  0  0  0  0  0  0  0  0  0
  140.1750   73.7590  221.1550 C   0  0  0  0  0  0  0  0  0  0  0  0
  139.0620   74.5810  220.7880 N   0  0  0  0  0  0  0  0  0  0  0  0
  138.3620   75.4400  221.7430 C   0  0  0  0  0  0  0  0  0  0  0  0
  138.8320   76.8970  221.6310 C   0  0  0  0  0  0  0  0  0  0  0  0
  140.1890   77.1110  222.2550 C   0  0  0  0  0  0  0  0  0  0  0  0
  141.1340   77.9480  221.7790 C   0  0  0  0  0  0  0  0  0  0  0  0
  141.7770   77.7300  220.4610 C   0  0  0  0  0  0  0  0  0  0  0  0
  142.2810   76.4600  220.1340 C   0  0  0  0  0  0  0  0  0  0  0  0
  142.8640   76.2360  218.8830 C   0  0  0  0  0  0  0  0  0  0  0  0
  142.9340   77.2720  217.9480 C   0  0  0  0  0  0  0  0  0  0  0  0
  142.4140   78.5320  218.2590 C   0  0  0  0  0  0  0  0  0  0  0  0
  141.8310   78.7600  219.5080 C   0  0  0  0  0  0  0  0  0  0  0  0
  141.5510   79.1330  222.5780 C   0  0  0  0  0  0  0  0  0  0  0  0
  140.5960   80.0210  223.1110 C   0  0  0  0  0  0  0  0  0  0  0  0
  141.0010   81.1390  223.8460 C   0  0  0  0  0  0  0  0  0  0  0  0
  142.3600   81.3880  224.0520 C   0  0  0  0  0  0  0  0  0  0  0  0
  143.3170   80.5200  223.5200 C   0  0  0  0  0  0  0  0  0  0  0  0
  142.9180   79.4010  222.7840 C   0  0  0  0  0  0  0  0  0  0  0  0
  140.6530   73.1228  220.3956 H   0  0  0  0  0  0  0  0  0  0  0  0
  138.7710   74.6020  219.7850 H   0  0  0  0  0  0  0  0  0  0  0  0
  137.2818   75.3953  221.5403 H   0  0  0  0  0  0  0  0  0  0  0  0
  138.5823   75.0812  222.7592 H   0  0  0  0  0  0  0  0  0  0  0  0
  138.8849   77.1707  220.5669 H   0  0  0  0  0  0  0  0  0  0  0  0
  138.1099   77.5259  222.1724 H   0  0  0  0  0  0  0  0  0  0  0  0
  140.4255   76.5420  223.1662 H   0  0  0  0  0  0  0  0  0  0  0  0
  142.2168   75.6397  220.8641 H   0  0  0  0  0  0  0  0  0  0  0  0
  143.2679   75.2434  218.6347 H   0  0  0  0  0  0  0  0  0  0  0  0
  143.3986   77.0961  216.9665 H   0  0  0  0  0  0  0  0  0  0  0  0
  142.4640   79.3447  217.5194 H   0  0  0  0  0  0  0  0  0  0  0  0
  141.4130   79.7494  219.7456 H   0  0  0  0  0  0  0  0  0  0  0  0
  139.5245   79.8334  222.9477 H   0  0  0  0  0  0  0  0  0  0  0  0
  140.2481   81.8240  224.2629 H   0  0  0  0  0  0  0  0  0  0  0  0
  142.6766   82.2669  224.6327 H   0  0  0  0  0  0  0  0  0  0  0  0
  144.3870   80.7179  223.6809 H   0  0  0  0  0  0  0  0  0  0  0  0
  143.6768   78.7251  222.3628 H   0  0  0  0  0  0  0  0  0  0  0  0
  1  2  2  0
  2  3  1  0
  3  4  1  0
  4  5  1  0
  5  6  1  0
  6  7  2  3
  7  8  1  0
  8  9  2  0
  9 10  1  0
 10 11  2  0
 11 12  1  0
 12 13  2  0
  7 14  1  0
 14 15  2  0
 15 16  1  0
 16 17  2  0
 17 18  1  0
 18 19  2  0
 13  8  1  0
 19 14  1  0
  2 20  1  0
  3 21  1  0
  4 22  1  0
  4 23  1  0
  5 24  1  0
  5 25  1  0
  6 26  1  0
  9 27  1  0
 10 28  1  0
 11 29  1  0
 12 30  1  0
 13 31  1  0
 15 32  1  0
 16 33  1  0
 17 34  1  0
 18 35  1  0
 19 36  1  0
M  END
>  <UniqueID>  (35) 
38

>  <SMILES>  (35) 
O=CNCCC=C(c1ccccc1)c1ccccc1

>  <Energy>  (35) 
41.79603568944126

>  <Genealogy>  (35) 
O=CNCCC=C(c1ccccc1)c1ccccc1 (3D coordinates assigned)
O=CNCCC=C(c1ccccc1)c1ccccc1 (optimized conformer: 41.79603568944126 kcal/mol)

>  <smiles>  (35) 
O=CNCCC=C(c1ccccc1)c1ccccc1

>  <score_type>  (35) 
oracle

>  <origin>  (35) 
autodockgpu

>  <m_score__min__energy>  (35) 
-5.5999999999999996

>  <m_primary>  (35) 
energy

>  <meeko>  (35) 
{"free_energy": -5.39, "intermolecular_energy": -7.18, "internal_energy": -1.17, "cluster_size": 16, "cluster_id": 2, "rank_in_cluster": 15}

>  <energy>  (35) 
-5.45

>  <cluster_rmsd>  (35) 
0.95

>  <rmsd>  (35) 
272.05

>  <cluster>  (35) 
2

$$$$
NYPVCQFMQXTFET-GPQMBLKYNA-N
     RDKit          3D

 36 37  0  0  0  0  0  0  0  0999 V2000
  140.4060   73.7740  222.3150 O   0  0  0  0  0  0  0  0  0  0  0  0
  139.7790   73.9040  221.2300 C   0  0  0  0  0  0  0  0  0  0  0  0
  138.7010   74.8370  221.1100 N   0  0  0  0  0  0  0  0  0  0  0  0
  138.2480   75.6720  222.2220 C   0  0  0  0  0  0  0  0  0  0  0  0
  138.8580   77.0790  222.1470 C   0  0  0  0  0  0  0  0  0  0  0  0
  140.3510   77.0680  222.3630 C   0  0  0  0  0  0  0  0  0  0  0  0
  141.2110   77.9770  221.8570 C   0  0  0  0  0  0  0  0  0  0  0  0
  141.7880   77.8320  220.5000 C   0  0  0  0  0  0  0  0  0  0  0  0
  141.8180   78.9380  219.6340 C   0  0  0  0  0  0  0  0  0  0  0  0
  142.3860   78.8190  218.3610 C   0  0  0  0  0  0  0  0  0  0  0  0
  142.9390   77.6040  217.9520 C   0  0  0  0  0  0  0  0  0  0  0  0
  142.9330   76.5050  218.8180 C   0  0  0  0  0  0  0  0  0  0  0  0
  142.3660   76.6190  220.0900 C   0  0  0  0  0  0  0  0  0  0  0  0
  141.5970   79.1680  222.6620 C   0  0  0  0  0  0  0  0  0  0  0  0
  140.6290   80.0970  223.0910 C   0  0  0  0  0  0  0  0  0  0  0  0
  141.0060   81.2210  223.8330 C   0  0  0  0  0  0  0  0  0  0  0  0
  142.3500   81.4330  224.1510 C   0  0  0  0  0  0  0  0  0  0  0  0
  143.3200   80.5230  223.7230 C   0  0  0  0  0  0  0  0  0  0  0  0
  142.9480   79.3980  222.9800 C   0  0  0  0  0  0  0  0  0  0  0  0
  140.0646   73.2912  220.3623 H   0  0  0  0  0  0  0  0  0  0  0  0
  138.2510   74.9570  220.1750 H   0  0  0  0  0  0  0  0  0  0  0  0
  137.1517   75.7542  222.1851 H   0  0  0  0  0  0  0  0  0  0  0  0
  138.5713   75.2029  223.1629 H   0  0  0  0  0  0  0  0  0  0  0  0
  138.6473   77.5034  221.1543 H   0  0  0  0  0  0  0  0  0  0  0  0
  138.4067   77.6845  222.9468 H   0  0  0  0  0  0  0  0  0  0  0  0
  140.7701   76.2587  222.9789 H   0  0  0  0  0  0  0  0  0  0  0  0
  141.3938   79.8999  219.9577 H   0  0  0  0  0  0  0  0  0  0  0  0
  142.3969   79.6839  217.6814 H   0  0  0  0  0  0  0  0  0  0  0  0
  143.3796   77.5107  216.9484 H   0  0  0  0  0  0  0  0  0  0  0  0
  143.3751   75.5502  218.4971 H   0  0  0  0  0  0  0  0  0  0  0  0
  142.3722   75.7563  220.7724 H   0  0  0  0  0  0  0  0  0  0  0  0
  139.5698   79.9374  222.8408 H   0  0  0  0  0  0  0  0  0  0  0  0
  140.2430   81.9395  224.1669 H   0  0  0  0  0  0  0  0  0  0  0  0
  142.6442   82.3156  224.7379 H   0  0  0  0  0  0  0  0  0  0  0  0
  144.3783   80.6917  223.9709 H   0  0  0  0  0  0  0  0  0  0  0  0
  143.7172   78.6880  222.6419 H   0  0  0  0  0  0  0  0  0  0  0  0
  1  2  2  0
  2  3  1  0
  3  4  1  0
  4  5  1  0
  5  6  1  0
  6  7  2  3
  7  8  1  0
  8  9  2  0
  9 10  1  0
 10 11  2  0
 11 12  1  0
 12 13  2  0
  7 14  1  0
 14 15  2  0
 15 16  1  0
 16 17  2  0
 17 18  1  0
 18 19  2  0
 13  8  1  0
 19 14  1  0
  2 20  1  0
  3 21  1  0
  4 22  1  0
  4 23  1  0
  5 24  1  0
  5 25  1  0
  6 26  1  0
  9 27  1  0
 10 28  1  0
 11 29  1  0
 12 30  1  0
 13 31  1  0
 15 32  1  0
 16 33  1  0
 17 34  1  0
 18 35  1  0
 19 36  1  0
M  END
>  <UniqueID>  (36) 
38

>  <SMILES>  (36) 
O=CNCCC=C(c1ccccc1)c1ccccc1

>  <Energy>  (36) 
41.79603568944126

>  <Genealogy>  (36) 
O=CNCCC=C(c1ccccc1)c1ccccc1 (3D coordinates assigned)
O=CNCCC=C(c1ccccc1)c1ccccc1 (optimized conformer: 41.79603568944126 kcal/mol)

>  <smiles>  (36) 
O=CNCCC=C(c1ccccc1)c1ccccc1

>  <score_type>  (36) 
oracle

>  <origin>  (36) 
autodockgpu

>  <m_score__min__energy>  (36) 
-5.5999999999999996

>  <m_primary>  (36) 
energy

>  <meeko>  (36) 
{"free_energy": -5.53, "intermolecular_energy": -7.32, "internal_energy": -1.12, "cluster_size": 16, "cluster_id": 2, "rank_in_cluster": 3}

>  <energy>  (36) 
-5.45

>  <cluster_rmsd>  (36) 
0.95

>  <rmsd>  (36) 
272.0

>  <cluster>  (36) 
2

$$$$
NYPVCQFMQXTFET-GPQMBLKYNA-N
     RDKit          3D

 36 37  0  0  0  0  0  0  0  0999 V2000
  141.3220   73.6800  221.0490 O   0  0  0  0  0  0  0  0  0  0  0  0
  140.4650   73.3760  221.9210 C   0  0  0  0  0  0  0  0  0  0  0  0
  139.2430   74.1110  222.0380 N   0  0  0  0  0  0  0  0  0  0  0  0
  138.9210   75.2550  221.1870 C   0  0  0  0  0  0  0  0  0  0  0  0
  139.0740   76.5790  221.9510 C   0  0  0  0  0  0  0  0  0  0  0  0
  140.5050   76.8520  222.3430 C   0  0  0  0  0  0  0  0  0  0  0  0
  141.2840   77.8100  221.8010 C   0  0  0  0  0  0  0  0  0  0  0  0
  141.8340   77.6850  220.4300 C   0  0  0  0  0  0  0  0  0  0  0  0
  141.7840   78.7840  219.5570 C   0  0  0  0  0  0  0  0  0  0  0  0
  142.3250   78.6850  218.2710 C   0  0  0  0  0  0  0  0  0  0  0  0
  142.9310   77.4970  217.8560 C   0  0  0  0  0  0  0  0  0  0  0  0
  143.0040   76.4070  218.7280 C   0  0  0  0  0  0  0  0  0  0  0  0
  142.4640   76.5010  220.0140 C   0  0  0  0  0  0  0  0  0  0  0  0
  141.6070   79.0380  222.5790 C   0  0  0  0  0  0  0  0  0  0  0  0
  140.5850   79.8640  223.0860 C   0  0  0  0  0  0  0  0  0  0  0  0
  140.9010   81.0230  223.8020 C   0  0  0  0  0  0  0  0  0  0  0  0
  142.2360   81.3740  224.0140 C   0  0  0  0  0  0  0  0  0  0  0  0
  143.2580   80.5680  223.5080 C   0  0  0  0  0  0  0  0  0  0  0  0
  142.9480   79.4080  222.7910 C   0  0  0  0  0  0  0  0  0  0  0  0
  140.6589   72.5340  222.6017 H   0  0  0  0  0  0  0  0  0  0  0  0
  138.5330   73.7850  222.7320 H   0  0  0  0  0  0  0  0  0  0  0  0
  139.5998   75.2601  220.3215 H   0  0  0  0  0  0  0  0  0  0  0  0
  137.8748   75.1614  220.8602 H   0  0  0  0  0  0  0  0  0  0  0  0
  138.7200   77.4001  221.3103 H   0  0  0  0  0  0  0  0  0  0  0  0
  138.4805   76.5052  222.8742 H   0  0  0  0  0  0  0  0  0  0  0  0
  140.9460   76.2224  223.1299 H   0  0  0  0  0  0  0  0  0  0  0  0
  141.3183   79.7249  219.8854 H   0  0  0  0  0  0  0  0  0  0  0  0
  142.2731   79.5438  217.5856 H   0  0  0  0  0  0  0  0  0  0  0  0
  143.3511   77.4191  216.8424 H   0  0  0  0  0  0  0  0  0  0  0  0
  143.4870   75.4741  218.4019 H   0  0  0  0  0  0  0  0  0  0  0  0
  142.5328   75.6453  220.7018 H   0  0  0  0  0  0  0  0  0  0  0  0
  139.5316   79.5958  222.9177 H   0  0  0  0  0  0  0  0  0  0  0  0
  140.0964   81.6594  224.1990 H   0  0  0  0  0  0  0  0  0  0  0  0
  142.4824   82.2849  224.5793 H   0  0  0  0  0  0  0  0  0  0  0  0
  144.3093   80.8462  223.6738 H   0  0  0  0  0  0  0  0  0  0  0  0
  143.7578   78.7807  222.3901 H   0  0  0  0  0  0  0  0  0  0  0  0
  1  2  2  0
  2  3  1  0
  3  4  1  0
  4  5  1  0
  5  6  1  0
  6  7  2  3
  7  8  1  0
  8  9  2  0
  9 10  1  0
 10 11  2  0
 11 12  1  0
 12 13  2  0
  7 14  1  0
 14 15  2  0
 15 16  1  0
 16 17  2  0
 17 18  1  0
 18 19  2  0
 13  8  1  0
 19 14  1  0
  2 20  1  0
  3 21  1  0
  4 22  1  0
  4 23  1  0
  5 24  1  0
  5 25  1  0
  6 26  1  0
  9 27  1  0
 10 28  1  0
 11 29  1  0
 12 30  1  0
 13 31  1  0
 15 32  1  0
 16 33  1  0
 17 34  1  0
 18 35  1  0
 19 36  1  0
M  END
>  <UniqueID>  (37) 
38

>  <SMILES>  (37) 
O=CNCCC=C(c1ccccc1)c1ccccc1

>  <Energy>  (37) 
41.79603568944126

>  <Genealogy>  (37) 
O=CNCCC=C(c1ccccc1)c1ccccc1 (3D coordinates assigned)
O=CNCCC=C(c1ccccc1)c1ccccc1 (optimized conformer: 41.79603568944126 kcal/mol)

>  <smiles>  (37) 
O=CNCCC=C(c1ccccc1)c1ccccc1

>  <score_type>  (37) 
oracle

>  <origin>  (37) 
autodockgpu

>  <m_score__min__energy>  (37) 
-5.5999999999999996

>  <m_primary>  (37) 
energy

>  <meeko>  (37) 
{"free_energy": -5.48, "intermolecular_energy": -7.27, "internal_energy": -1.17, "cluster_size": 16, "cluster_id": 2, "rank_in_cluster": 7}

>  <energy>  (37) 
-5.44

>  <cluster_rmsd>  (37) 
0.93

>  <rmsd>  (37) 
272.09

>  <cluster>  (37) 
2

$$$$
NYPVCQFMQXTFET-GPQMBLKYNA-N
     RDKit          3D

 36 37  0  0  0  0  0  0  0  0999 V2000
  140.0760   73.7740  221.9830 O   0  0  0  0  0  0  0  0  0  0  0  0
  141.0560   74.4640  221.5970 C   0  0  0  0  0  0  0  0  0  0  0  0
  141.1280   75.8650  221.8830 N   0  0  0  0  0  0  0  0  0  0  0  0
  140.0790   76.5800  222.6090 C   0  0  0  0  0  0  0  0  0  0  0  0
  139.0200   77.1410  221.6500 C   0  0  0  0  0  0  0  0  0  0  0  0
  139.4170   78.4790  221.0770 C   0  0  0  0  0  0  0  0  0  0  0  0
  140.6880   78.9070  220.9250 C   0  0  0  0  0  0  0  0  0  0  0  0
  141.4520   78.6580  219.6800 C   0  0  0  0  0  0  0  0  0  0  0  0
  141.8080   79.7370  218.8540 C   0  0  0  0  0  0  0  0  0  0  0  0
  142.5530   79.5150  217.6910 C   0  0  0  0  0  0  0  0  0  0  0  0
  142.9570   78.2210  217.3550 C   0  0  0  0  0  0  0  0  0  0  0  0
  142.6250   77.1460  218.1840 C   0  0  0  0  0  0  0  0  0  0  0  0
  141.8810   77.3630  219.3470 C   0  0  0  0  0  0  0  0  0  0  0  0
  141.3570   79.6590  222.0230 C   0  0  0  0  0  0  0  0  0  0  0  0
  142.7150   79.4430  222.3260 C   0  0  0  0  0  0  0  0  0  0  0  0
  143.3270   80.1440  223.3710 C   0  0  0  0  0  0  0  0  0  0  0  0
  142.5920   81.0610  224.1250 C   0  0  0  0  0  0  0  0  0  0  0  0
  141.2420   81.2780  223.8390 C   0  0  0  0  0  0  0  0  0  0  0  0
  140.6250   80.5790  222.7970 C   0  0  0  0  0  0  0  0  0  0  0  0
  141.8684   73.9835  221.0320 H   0  0  0  0  0  0  0  0  0  0  0  0
  141.9880   76.3850  221.5990 H   0  0  0  0  0  0  0  0  0  0  0  0
  139.5942   75.8872  223.3125 H   0  0  0  0  0  0  0  0  0  0  0  0
  140.5406   77.4212  223.1469 H   0  0  0  0  0  0  0  0  0  0  0  0
  138.8797   76.4296  220.8228 H   0  0  0  0  0  0  0  0  0  0  0  0
  138.0904   77.2821  222.2209 H   0  0  0  0  0  0  0  0  0  0  0  0
  138.6105   79.1562  220.7594 H   0  0  0  0  0  0  0  0  0  0  0  0
  141.5004   80.7585  219.1222 H   0  0  0  0  0  0  0  0  0  0  0  0
  142.8209   80.3605  217.0404 H   0  0  0  0  0  0  0  0  0  0  0  0
  143.5373   78.0477  216.4367 H   0  0  0  0  0  0  0  0  0  0  0  0
  142.9495   76.1284  217.9210 H   0  0  0  0  0  0  0  0  0  0  0  0
  141.6307   76.5167  220.0036 H   0  0  0  0  0  0  0  0  0  0  0  0
  143.2981   78.7191  221.7379 H   0  0  0  0  0  0  0  0  0  0  0  0
  144.3893   79.9723  223.5990 H   0  0  0  0  0  0  0  0  0  0  0  0
  143.0761   81.6126  224.9444 H   0  0  0  0  0  0  0  0  0  0  0  0
  140.6636   81.9998  224.4344 H   0  0  0  0  0  0  0  0  0  0  0  0
  139.5600   80.7493  222.5806 H   0  0  0  0  0  0  0  0  0  0  0  0
  1  2  2  0
  2  3  1  0
  3  4  1  0
  4  5  1  0
  5  6  1  0
  6  7  2  3
  7  8  1  0
  8  9  2  0
  9 10  1  0
 10 11  2  0
 11 12  1  0
 12 13  2  0
  7 14  1  0
 14 15  2  0
 15 16  1  0
 16 17  2  0
 17 18  1  0
 18 19  2  0
 13  8  1  0
 19 14  1  0
  2 20  1  0
  3 21  1  0
  4 22  1  0
  4 23  1  0
  5 24  1  0
  5 25  1  0
  6 26  1  0
  9 27  1  0
 10 28  1  0
 11 29  1  0
 12 30  1  0
 13 31  1  0
 15 32  1  0
 16 33  1  0
 17 34  1  0
 18 35  1  0
 19 36  1  0
M  END
>  <UniqueID>  (38) 
38

>  <SMILES>  (38) 
O=CNCCC=C(c1ccccc1)c1ccccc1

>  <Energy>  (38) 
41.79603568944126

>  <Genealogy>  (38) 
O=CNCCC=C(c1ccccc1)c1ccccc1 (3D coordinates assigned)
O=CNCCC=C(c1ccccc1)c1ccccc1 (optimized conformer: 41.79603568944126 kcal/mol)

>  <smiles>  (38) 
O=CNCCC=C(c1ccccc1)c1ccccc1

>  <score_type>  (38) 
oracle

>  <origin>  (38) 
autodockgpu

>  <m_score__min__energy>  (38) 
-5.5999999999999996

>  <m_primary>  (38) 
energy

>  <meeko>  (38) 
{"free_energy": -5.25, "intermolecular_energy": -7.04, "internal_energy": -1.21, "cluster_size": 16, "cluster_id": 2, "rank_in_cluster": 16}

>  <energy>  (38) 
-5.39

>  <cluster_rmsd>  (38) 
0.34

>  <rmsd>  (38) 
271.84

>  <cluster>  (38) 
2

$$$$
NYPVCQFMQXTFET-GPQMBLKYNA-N
     RDKit          3D

 36 37  0  0  0  0  0  0  0  0999 V2000
  140.7340   74.7020  221.4180 O   0  0  0  0  0  0  0  0  0  0  0  0
  139.6030   74.6490  221.9710 C   0  0  0  0  0  0  0  0  0  0  0  0
  138.9500   73.3950  222.1900 N   0  0  0  0  0  0  0  0  0  0  0  0
  139.5280   72.1170  221.7770 C   0  0  0  0  0  0  0  0  0  0  0  0
  140.7070   71.7210  222.6770 C   0  0  0  0  0  0  0  0  0  0  0  0
  140.3110   71.6220  224.1300 C   0  0  0  0  0  0  0  0  0  0  0  0
  139.7500   70.5370  224.7040 C   0  0  0  0  0  0  0  0  0  0  0  0
  140.2370   70.0000  225.9970 C   0  0  0  0  0  0  0  0  0  0  0  0
  140.6380   70.8840  227.0120 C   0  0  0  0  0  0  0  0  0  0  0  0
  141.0730   70.3880  228.2450 C   0  0  0  0  0  0  0  0  0  0  0  0
  141.0960   69.0110  228.4770 C   0  0  0  0  0  0  0  0  0  0  0  0
  140.6760   68.1260  227.4790 C   0  0  0  0  0  0  0  0  0  0  0  0
  140.2410   68.6180  226.2450 C   0  0  0  0  0  0  0  0  0  0  0  0
  138.6050   69.8520  224.0440 C   0  0  0  0  0  0  0  0  0  0  0  0
  137.2830   70.2970  224.2390 C   0  0  0  0  0  0  0  0  0  0  0  0
  136.2150   69.6340  223.6260 C   0  0  0  0  0  0  0  0  0  0  0  0
  136.4520   68.5200  222.8180 C   0  0  0  0  0  0  0  0  0  0  0  0
  137.7580   68.0640  222.6240 C   0  0  0  0  0  0  0  0  0  0  0  0
  138.8300   68.7210  223.2350 C   0  0  0  0  0  0  0  0  0  0  0  0
  139.1109   75.5797  222.2898 H   0  0  0  0  0  0  0  0  0  0  0  0
  138.0430   73.3920  222.7090 H   0  0  0  0  0  0  0  0  0  0  0  0
  138.7540   71.3377  221.8369 H   0  0  0  0  0  0  0  0  0  0  0  0
  139.8976   72.2202  220.7461 H   0  0  0  0  0  0  0  0  0  0  0  0
  141.0908   70.7441  222.3477 H   0  0  0  0  0  0  0  0  0  0  0  0
  141.4743   72.5044  222.5902 H   0  0  0  0  0  0  0  0  0  0  0  0
  140.4931   72.4991  224.7684 H   0  0  0  0  0  0  0  0  0  0  0  0
  140.6098   71.9696  226.8366 H   0  0  0  0  0  0  0  0  0  0  0  0
  141.3975   71.0833  229.0332 H   0  0  0  0  0  0  0  0  0  0  0  0
  141.4446   68.6224  229.4452 H   0  0  0  0  0  0  0  0  0  0  0  0
  140.6879   67.0419  227.6652 H   0  0  0  0  0  0  0  0  0  0  0  0
  139.9007   67.9202  225.4657 H   0  0  0  0  0  0  0  0  0  0  0  0
  137.0893   71.1715  224.8775 H   0  0  0  0  0  0  0  0  0  0  0  0
  135.1860   69.9908  223.7807 H   0  0  0  0  0  0  0  0  0  0  0  0
  135.6107   68.0018  222.3345 H   0  0  0  0  0  0  0  0  0  0  0  0
  137.9434   67.1854  221.9886 H   0  0  0  0  0  0  0  0  0  0  0  0
  139.8553   68.3526  223.0831 H   0  0  0  0  0  0  0  0  0  0  0  0
  1  2  2  0
  2  3  1  0
  3  4  1  0
  4  5  1  0
  5  6  1  0
  6  7  2  3
  7  8  1  0
  8  9  2  0
  9 10  1  0
 10 11  2  0
 11 12  1  0
 12 13  2  0
  7 14  1  0
 14 15  2  0
 15 16  1  0
 16 17  2  0
 17 18  1  0
 18 19  2  0
 13  8  1  0
 19 14  1  0
  2 20  1  0
  3 21  1  0
  4 22  1  0
  4 23  1  0
  5 24  1  0
  5 25  1  0
  6 26  1  0
  9 27  1  0
 10 28  1  0
 11 29  1  0
 12 30  1  0
 13 31  1  0
 15 32  1  0
 16 33  1  0
 17 34  1  0
 18 35  1  0
 19 36  1  0
M  END
>  <UniqueID>  (39) 
38

>  <SMILES>  (39) 
O=CNCCC=C(c1ccccc1)c1ccccc1

>  <Energy>  (39) 
41.79603568944126

>  <Genealogy>  (39) 
O=CNCCC=C(c1ccccc1)c1ccccc1 (3D coordinates assigned)
O=CNCCC=C(c1ccccc1)c1ccccc1 (optimized conformer: 41.79603568944126 kcal/mol)

>  <smiles>  (39) 
O=CNCCC=C(c1ccccc1)c1ccccc1

>  <score_type>  (39) 
oracle

>  <origin>  (39) 
autodockgpu

>  <m_score__min__energy>  (39) 
-5.5999999999999996

>  <m_primary>  (39) 
energy

>  <meeko>  (39) 
{"free_energy": -5.56, "intermolecular_energy": -7.35, "internal_energy": -1.07, "cluster_size": 3, "cluster_id": 1, "rank_in_cluster": 3}

>  <energy>  (39) 
-5.25

>  <cluster_rmsd>  (39) 
1.42

>  <rmsd>  (39) 
272.04

>  <cluster>  (39) 
2

$$$$
NYPVCQFMQXTFET-GPQMBLKYNA-N
     RDKit          3D

 36 37  0  0  0  0  0  0  0  0999 V2000
  140.3110   73.6820  222.3440 O   0  0  0  0  0  0  0  0  0  0  0  0
  140.1920   74.0460  221.1440 C   0  0  0  0  0  0  0  0  0  0  0  0
  139.2400   75.0480  220.7700 N   0  0  0  0  0  0  0  0  0  0  0  0
  138.3450   75.6890  221.7320 C   0  0  0  0  0  0  0  0  0  0  0  0
  138.8900   77.0530  222.1790 C   0  0  0  0  0  0  0  0  0  0  0  0
  140.3880   77.0400  222.3550 C   0  0  0  0  0  0  0  0  0  0  0  0
  141.2330   77.9630  221.8490 C   0  0  0  0  0  0  0  0  0  0  0  0
  141.8200   77.8240  220.4960 C   0  0  0  0  0  0  0  0  0  0  0  0
  142.3490   76.5870  220.0900 C   0  0  0  0  0  0  0  0  0  0  0  0
  142.8810   76.4370  218.8060 C   0  0  0  0  0  0  0  0  0  0  0  0
  142.8740   77.5130  217.9150 C   0  0  0  0  0  0  0  0  0  0  0  0
  142.3300   78.7410  218.3050 C   0  0  0  0  0  0  0  0  0  0  0  0
  141.7980   78.8950  219.5880 C   0  0  0  0  0  0  0  0  0  0  0  0
  141.5910   79.1660  222.6510 C   0  0  0  0  0  0  0  0  0  0  0  0
  140.6040   80.0840  223.0600 C   0  0  0  0  0  0  0  0  0  0  0  0
  140.9560   81.2180  223.7990 C   0  0  0  0  0  0  0  0  0  0  0  0
  142.2920   81.4510  224.1330 C   0  0  0  0  0  0  0  0  0  0  0  0
  143.2800   80.5530  223.7240 C   0  0  0  0  0  0  0  0  0  0  0  0
  142.9350   79.4180  222.9850 C   0  0  0  0  0  0  0  0  0  0  0  0
  140.8283   73.5877  220.3726 H   0  0  0  0  0  0  0  0  0  0  0  0
  139.2200   75.3650  219.7750 H   0  0  0  0  0  0  0  0  0  0  0  0
  137.3599   75.8328  221.2641 H   0  0  0  0  0  0  0  0  0  0  0  0
  138.2650   75.0405  222.6169 H   0  0  0  0  0  0  0  0  0  0  0  0
  138.6294   77.8045  221.4192 H   0  0  0  0  0  0  0  0  0  0  0  0
  138.4384   77.2936  223.1527 H   0  0  0  0  0  0  0  0  0  0  0  0
  140.8245   76.2167  222.9395 H   0  0  0  0  0  0  0  0  0  0  0  0
  142.3444   75.7341  220.7847 H   0  0  0  0  0  0  0  0  0  0  0  0
  143.3057   75.4705  218.4968 H   0  0  0  0  0  0  0  0  0  0  0  0
  143.2965   77.3943  216.9063 H   0  0  0  0  0  0  0  0  0  0  0  0
  142.3209   79.5863  217.6012 H   0  0  0  0  0  0  0  0  0  0  0  0
  141.3604   79.8587  219.8878 H   0  0  0  0  0  0  0  0  0  0  0  0
  139.5506   79.9080  222.7967 H   0  0  0  0  0  0  0  0  0  0  0  0
  140.1788   81.9281  224.1179 H   0  0  0  0  0  0  0  0  0  0  0  0
  142.5658   82.3414  224.7179 H   0  0  0  0  0  0  0  0  0  0  0  0
  144.3324   80.7394  223.9841 H   0  0  0  0  0  0  0  0  0  0  0  0
  143.7189   78.7170  222.6623 H   0  0  0  0  0  0  0  0  0  0  0  0
  1  2  2  0
  2  3  1  0
  3  4  1  0
  4  5  1  0
  5  6  1  0
  6  7  2  3
  7  8  1  0
  8  9  2  0
  9 10  1  0
 10 11  2  0
 11 12  1  0
 12 13  2  0
  7 14  1  0
 14 15  2  0
 15 16  1  0
 16 17  2  0
 17 18  1  0
 18 19  2  0
 13  8  1  0
 19 14  1  0
  2 20  1  0
  3 21  1  0
  4 22  1  0
  4 23  1  0
  5 24  1  0
  5 25  1  0
  6 26  1  0
  9 27  1  0
 10 28  1  0
 11 29  1  0
 12 30  1  0
 13 31  1  0
 15 32  1  0
 16 33  1  0
 17 34  1  0
 18 35  1  0
 19 36  1  0
M  END
>  <UniqueID>  (40) 
38

>  <SMILES>  (40) 
O=CNCCC=C(c1ccccc1)c1ccccc1

>  <Energy>  (40) 
41.79603568944126

>  <Genealogy>  (40) 
O=CNCCC=C(c1ccccc1)c1ccccc1 (3D coordinates assigned)
O=CNCCC=C(c1ccccc1)c1ccccc1 (optimized conformer: 41.79603568944126 kcal/mol)

>  <smiles>  (40) 
O=CNCCC=C(c1ccccc1)c1ccccc1

>  <score_type>  (40) 
oracle

>  <origin>  (40) 
autodockgpu

>  <m_score__min__energy>  (40) 
-5.5999999999999996

>  <m_primary>  (40) 
energy

>  <meeko>  (40) 
{"free_energy": -5.48, "intermolecular_energy": -7.27, "internal_energy": -1.15, "cluster_size": 16, "cluster_id": 2, "rank_in_cluster": 6}

>  <energy>  (40) 
-5.49

>  <cluster_rmsd>  (40) 
0.0

>  <rmsd>  (40) 
273.11

>  <cluster>  (40) 
3

$$$$
NYPVCQFMQXTFET-PENACOTONA-N
     RDKit          3D

 36 37  0  0  0  0  0  0  0  0999 V2000
  139.2000   73.3660  223.2020 H   0  0  0  0  0  0  0  0  0  0  0  0
  140.0400   73.0900  222.7120 O   0  0  0  0  0  0  0  0  0  0  0  0
  140.4700   73.7030  221.5330 C   0  0  0  0  0  0  0  0  0  0  0  0
  141.3451   73.2900  221.0098 H   0  0  0  0  0  0  0  0  0  0  0  0
  139.8740   74.7440  221.0310 N   0  0  0  0  0  0  0  0  0  0  0  0
  138.6950   75.3880  221.6060 C   0  0  0  0  0  0  0  0  0  0  0  0
  137.8748   75.3650  220.8734 H   0  0  0  0  0  0  0  0  0  0  0  0
  138.3996   74.8478  222.5175 H   0  0  0  0  0  0  0  0  0  0  0  0
  139.0100   76.8420  221.9670 C   0  0  0  0  0  0  0  0  0  0  0  0
  138.7837   77.4794  221.0995 H   0  0  0  0  0  0  0  0  0  0  0  0
  138.3937   77.1155  222.8361 H   0  0  0  0  0  0  0  0  0  0  0  0
  140.4590   77.0340  222.3470 C   0  0  0  0  0  0  0  0  0  0  0  0
  140.8878   76.3411  223.0859 H   0  0  0  0  0  0  0  0  0  0  0  0
  141.2670   77.9930  221.8470 C   0  0  0  0  0  0  0  0  0  0  0  0
  141.8310   77.8520  220.4780 C   0  0  0  0  0  0  0  0  0  0  0  0
  141.8100   78.9290  219.5680 C   0  0  0  0  0  0  0  0  0  0  0  0
  141.3591   79.8870  219.8661 H   0  0  0  0  0  0  0  0  0  0  0  0
  142.3580   78.7880  218.2900 C   0  0  0  0  0  0  0  0  0  0  0  0
  142.3342   79.6332  217.5864 H   0  0  0  0  0  0  0  0  0  0  0  0
  142.9360   77.5760  217.9040 C   0  0  0  0  0  0  0  0  0  0  0  0
  143.3631   77.4660  216.8963 H   0  0  0  0  0  0  0  0  0  0  0  0
  142.9710   76.5040  218.7990 C   0  0  0  0  0  0  0  0  0  0  0  0
  143.4288   75.5509  218.4955 H   0  0  0  0  0  0  0  0  0  0  0  0
  142.4260   76.6390  220.0790 C   0  0  0  0  0  0  0  0  0  0  0  0
  142.4619   75.7920  220.7799 H   0  0  0  0  0  0  0  0  0  0  0  0
  141.6110   79.2070  222.6250 C   0  0  0  0  0  0  0  0  0  0  0  0
  140.6070   80.0880  223.0590 C   0  0  0  0  0  0  0  0  0  0  0  0
  139.5556   79.8912  222.8022 H   0  0  0  0  0  0  0  0  0  0  0  0
  140.9410   81.2150  223.8170 C   0  0  0  0  0  0  0  0  0  0  0  0
  140.1531   81.9081  224.1468 H   0  0  0  0  0  0  0  0  0  0  0  0
  142.2740   81.4620  224.1560 C   0  0  0  0  0  0  0  0  0  0  0  0
  142.5357   82.3532  224.7453 H   0  0  0  0  0  0  0  0  0  0  0  0
  143.2750   80.5760  223.7460 C   0  0  0  0  0  0  0  0  0  0  0  0
  144.3233   80.7668  224.0194 H   0  0  0  0  0  0  0  0  0  0  0  0
  142.9450   79.4480  222.9890 C   0  0  0  0  0  0  0  0  0  0  0  0
  143.7334   78.7470  222.6776 H   0  0  0  0  0  0  0  0  0  0  0  0
  1  2  1  0
  2  3  1  0
  3  4  1  0
  3  5  2  0
  5  6  1  0
  6  7  1  0
  6  8  1  0
  6  9  1  0
  9 10  1  0
  9 11  1  0
  9 12  1  0
 12 13  1  0
 12 14  2  3
 14 15  1  0
 15 16  2  0
 16 17  1  0
 16 18  1  0
 18 19  1  0
 18 20  2  0
 20 21  1  0
 20 22  1  0
 22 23  1  0
 22 24  2  0
 24 25  1  0
 14 26  1  0
 26 27  2  0
 27 28  1  0
 27 29  1  0
 29 30  1  0
 29 31  2  0
 31 32  1  0
 31 33  1  0
 33 34  1  0
 33 35  2  0
 35 36  1  0
 24 15  1  0
 35 26  1  0
M  END
>  <UniqueID>  (41) 
39

>  <SMILES>  (41) 
O/C=N\CCC=C(c1ccccc1)c1ccccc1

>  <Energy>  (41) 
43.205056875375035

>  <Genealogy>  (41) 
OC=NCCC=C(c1ccccc1)c1ccccc1 (tautomer)
O/C=N\CCC=C(c1ccccc1)c1ccccc1 (cis-trans isomerization)
O/C=N\CCC=C(c1ccccc1)c1ccccc1 (3D coordinates assigned)
O/C=N\CCC=C(c1ccccc1)c1ccccc1 (optimized conformer: 43.205056875375035 kcal/mol)

>  <smiles>  (41) 
O=CNCCC=C(c1ccccc1)c1ccccc1

>  <score_type>  (41) 
oracle

>  <origin>  (41) 
autodockgpu

>  <m_score__min__energy>  (41) 
-5.6699999999999999

>  <m_primary>  (41) 
energy

>  <meeko>  (41) 
{"free_energy": -5.34, "intermolecular_energy": -7.73, "internal_energy": -1.0, "cluster_size": 7, "cluster_id": 2, "rank_in_cluster": 3}

>  <energy>  (41) 
-5.67

>  <cluster_rmsd>  (41) 
0.0

>  <rmsd>  (41) 
272.39

>  <cluster>  (41) 
1

$$$$
NYPVCQFMQXTFET-PENACOTONA-N
     RDKit          3D

 36 37  0  0  0  0  0  0  0  0999 V2000
  141.9990   76.3360  222.0170 H   0  0  0  0  0  0  0  0  0  0  0  0
  141.0450   76.0180  222.1320 O   0  0  0  0  0  0  0  0  0  0  0  0
  140.5740   74.8150  221.6030 C   0  0  0  0  0  0  0  0  0  0  0  0
  140.7563   74.5967  220.5404 H   0  0  0  0  0  0  0  0  0  0  0  0
  139.9280   73.9430  222.3190 N   0  0  0  0  0  0  0  0  0  0  0  0
  139.6810   72.5580  221.9230 C   0  0  0  0  0  0  0  0  0  0  0  0
  138.6489   72.2830  222.1862 H   0  0  0  0  0  0  0  0  0  0  0  0
  139.8289   72.4625  220.8372 H   0  0  0  0  0  0  0  0  0  0  0  0
  140.6540   71.6220  222.6450 C   0  0  0  0  0  0  0  0  0  0  0  0
  140.5817   70.6207  222.1954 H   0  0  0  0  0  0  0  0  0  0  0  0
  141.6664   72.0380  222.5357 H   0  0  0  0  0  0  0  0  0  0  0  0
  140.3540   71.5150  224.1210 C   0  0  0  0  0  0  0  0  0  0  0  0
  140.6656   72.3503  224.7654 H   0  0  0  0  0  0  0  0  0  0  0  0
  139.7320   70.4710  224.7090 C   0  0  0  0  0  0  0  0  0  0  0  0
  140.1860   69.9860  226.0400 C   0  0  0  0  0  0  0  0  0  0  0  0
  140.2280   68.6080  226.3370 C   0  0  0  0  0  0  0  0  0  0  0  0
  139.9093   67.8760  225.5802 H   0  0  0  0  0  0  0  0  0  0  0  0
  140.6720   68.1660  227.5870 C   0  0  0  0  0  0  0  0  0  0  0  0
  140.6975   67.0894  227.8112 H   0  0  0  0  0  0  0  0  0  0  0  0
  141.0830   69.0880  228.5510 C   0  0  0  0  0  0  0  0  0  0  0  0
  141.4283   68.7376  229.5349 H   0  0  0  0  0  0  0  0  0  0  0  0
  141.0560   70.4550  228.2670 C   0  0  0  0  0  0  0  0  0  0  0  0
  141.3832   71.1800  229.0268 H   0  0  0  0  0  0  0  0  0  0  0  0
  140.6140   70.9040  227.0190 C   0  0  0  0  0  0  0  0  0  0  0  0
  140.6003   71.9819  226.7999 H   0  0  0  0  0  0  0  0  0  0  0  0
  138.5860   69.7840  224.0670 C   0  0  0  0  0  0  0  0  0  0  0  0
  137.2750   70.2540  224.2500 C   0  0  0  0  0  0  0  0  0  0  0  0
  137.0899   71.1264  224.8939 H   0  0  0  0  0  0  0  0  0  0  0  0
  136.2050   69.6160  223.6160 C   0  0  0  0  0  0  0  0  0  0  0  0
  135.1789   69.9814  223.7694 H   0  0  0  0  0  0  0  0  0  0  0  0
  136.4370   68.5140  222.7870 C   0  0  0  0  0  0  0  0  0  0  0  0
  135.5933   68.0080  222.2950 H   0  0  0  0  0  0  0  0  0  0  0  0
  137.7420   68.0560  222.5840 C   0  0  0  0  0  0  0  0  0  0  0  0
  137.9249   67.1934  221.9264 H   0  0  0  0  0  0  0  0  0  0  0  0
  138.8150   68.6920  223.2150 C   0  0  0  0  0  0  0  0  0  0  0  0
  139.8415   68.3359  223.0435 H   0  0  0  0  0  0  0  0  0  0  0  0
  1  2  1  0
  2  3  1  0
  3  4  1  0
  3  5  2  0
  5  6  1  0
  6  7  1  0
  6  8  1  0
  6  9  1  0
  9 10  1  0
  9 11  1  0
  9 12  1  0
 12 13  1  0
 12 14  2  3
 14 15  1  0
 15 16  2  0
 16 17  1  0
 16 18  1  0
 18 19  1  0
 18 20  2  0
 20 21  1  0
 20 22  1  0
 22 23  1  0
 22 24  2  0
 24 25  1  0
 14 26  1  0
 26 27  2  0
 27 28  1  0
 27 29  1  0
 29 30  1  0
 29 31  2  0
 31 32  1  0
 31 33  1  0
 33 34  1  0
 33 35  2  0
 35 36  1  0
 24 15  1  0
 35 26  1  0
M  END
>  <UniqueID>  (42) 
39

>  <SMILES>  (42) 
O/C=N\CCC=C(c1ccccc1)c1ccccc1

>  <Energy>  (42) 
43.205056875375035

>  <Genealogy>  (42) 
OC=NCCC=C(c1ccccc1)c1ccccc1 (tautomer)
O/C=N\CCC=C(c1ccccc1)c1ccccc1 (cis-trans isomerization)
O/C=N\CCC=C(c1ccccc1)c1ccccc1 (3D coordinates assigned)
O/C=N\CCC=C(c1ccccc1)c1ccccc1 (optimized conformer: 43.205056875375035 kcal/mol)

>  <smiles>  (42) 
O=CNCCC=C(c1ccccc1)c1ccccc1

>  <score_type>  (42) 
oracle

>  <origin>  (42) 
autodockgpu

>  <m_score__min__energy>  (42) 
-5.6699999999999999

>  <m_primary>  (42) 
energy

>  <meeko>  (42) 
{"free_energy": -5.66, "intermolecular_energy": -8.05, "internal_energy": -0.92, "cluster_size": 13, "cluster_id": 1, "rank_in_cluster": 2}

>  <energy>  (42) 
-5.66

>  <cluster_rmsd>  (42) 
0.11

>  <rmsd>  (42) 
272.38

>  <cluster>  (42) 
1

$$$$
NYPVCQFMQXTFET-PENACOTONA-N
     RDKit          3D

 36 37  0  0  0  0  0  0  0  0999 V2000
  139.2070   73.4170  223.3850 H   0  0  0  0  0  0  0  0  0  0  0  0
  139.9520   73.2100  222.7320 O   0  0  0  0  0  0  0  0  0  0  0  0
  139.8780   73.5160  221.3710 C   0  0  0  0  0  0  0  0  0  0  0  0
  139.6523   72.7090  220.6584 H   0  0  0  0  0  0  0  0  0  0  0  0
  140.0660   74.7190  220.9150 N   0  0  0  0  0  0  0  0  0  0  0  0
  139.0480   75.7660  220.8810 C   0  0  0  0  0  0  0  0  0  0  0  0
  139.1578   76.3497  219.9551 H   0  0  0  0  0  0  0  0  0  0  0  0
  138.0522   75.2999  220.9150 H   0  0  0  0  0  0  0  0  0  0  0  0
  139.2060   76.6960  222.0870 C   0  0  0  0  0  0  0  0  0  0  0  0
  138.6876   77.6426  221.8745 H   0  0  0  0  0  0  0  0  0  0  0  0
  138.7731   76.1898  222.9624 H   0  0  0  0  0  0  0  0  0  0  0  0
  140.6540   76.9930  222.3930 C   0  0  0  0  0  0  0  0  0  0  0  0
  141.1819   76.3070  223.0718 H   0  0  0  0  0  0  0  0  0  0  0  0
  141.3490   78.0370  221.8960 C   0  0  0  0  0  0  0  0  0  0  0  0
  141.8390   78.0050  220.4910 C   0  0  0  0  0  0  0  0  0  0  0  0
  141.7580   79.1460  219.6660 C   0  0  0  0  0  0  0  0  0  0  0  0
  141.3157   80.0736  220.0584 H   0  0  0  0  0  0  0  0  0  0  0  0
  142.2360   79.1060  218.3530 C   0  0  0  0  0  0  0  0  0  0  0  0
  142.1639   79.9994  217.7153 H   0  0  0  0  0  0  0  0  0  0  0  0
  142.8050   77.9340  217.8490 C   0  0  0  0  0  0  0  0  0  0  0  0
  143.1788   77.9042  216.8149 H   0  0  0  0  0  0  0  0  0  0  0  0
  142.8990   76.8000  218.6590 C   0  0  0  0  0  0  0  0  0  0  0  0
  143.3489   75.8780  218.2621 H   0  0  0  0  0  0  0  0  0  0  0  0
  142.4230   76.8340  219.9720 C   0  0  0  0  0  0  0  0  0  0  0  0
  142.5052   75.9385  220.6054 H   0  0  0  0  0  0  0  0  0  0  0  0
  141.6390   79.2410  222.7110 C   0  0  0  0  0  0  0  0  0  0  0  0
  142.9590   79.5680  223.0630 C   0  0  0  0  0  0  0  0  0  0  0  0
  143.7877   78.9151  222.7516 H   0  0  0  0  0  0  0  0  0  0  0  0
  143.2220   80.7210  223.8080 C   0  0  0  0  0  0  0  0  0  0  0  0
  144.2559   80.9677  224.0910 H   0  0  0  0  0  0  0  0  0  0  0  0
  142.1740   81.5610  224.1940 C   0  0  0  0  0  0  0  0  0  0  0  0
  142.3825   82.4642  224.7863 H   0  0  0  0  0  0  0  0  0  0  0  0
  140.8600   81.2530  223.8270 C   0  0  0  0  0  0  0  0  0  0  0  0
  140.0360   81.9180  224.1249 H   0  0  0  0  0  0  0  0  0  0  0  0
  140.5930   80.1010  223.0820 C   0  0  0  0  0  0  0  0  0  0  0  0
  139.5599   79.8673  222.7853 H   0  0  0  0  0  0  0  0  0  0  0  0
  1  2  1  0
  2  3  1  0
  3  4  1  0
  3  5  2  0
  5  6  1  0
  6  7  1  0
  6  8  1  0
  6  9  1  0
  9 10  1  0
  9 11  1  0
  9 12  1  0
 12 13  1  0
 12 14  2  3
 14 15  1  0
 15 16  2  0
 16 17  1  0
 16 18  1  0
 18 19  1  0
 18 20  2  0
 20 21  1  0
 20 22  1  0
 22 23  1  0
 22 24  2  0
 24 25  1  0
 14 26  1  0
 26 27  2  0
 27 28  1  0
 27 29  1  0
 29 30  1  0
 29 31  2  0
 31 32  1  0
 31 33  1  0
 33 34  1  0
 33 35  2  0
 35 36  1  0
 24 15  1  0
 35 26  1  0
M  END
>  <UniqueID>  (43) 
39

>  <SMILES>  (43) 
O/C=N\CCC=C(c1ccccc1)c1ccccc1

>  <Energy>  (43) 
43.205056875375035

>  <Genealogy>  (43) 
OC=NCCC=C(c1ccccc1)c1ccccc1 (tautomer)
O/C=N\CCC=C(c1ccccc1)c1ccccc1 (cis-trans isomerization)
O/C=N\CCC=C(c1ccccc1)c1ccccc1 (3D coordinates assigned)
O/C=N\CCC=C(c1ccccc1)c1ccccc1 (optimized conformer: 43.205056875375035 kcal/mol)

>  <smiles>  (43) 
O=CNCCC=C(c1ccccc1)c1ccccc1

>  <score_type>  (43) 
oracle

>  <origin>  (43) 
autodockgpu

>  <m_score__min__energy>  (43) 
-5.6699999999999999

>  <m_primary>  (43) 
energy

>  <meeko>  (43) 
{"free_energy": -5.23, "intermolecular_energy": -7.62, "internal_energy": -1.06, "cluster_size": 7, "cluster_id": 2, "rank_in_cluster": 7}

>  <energy>  (43) 
-5.65

>  <cluster_rmsd>  (43) 
0.16

>  <rmsd>  (43) 
272.34

>  <cluster>  (43) 
1

$$$$
NYPVCQFMQXTFET-PENACOTONA-N
     RDKit          3D

 36 37  0  0  0  0  0  0  0  0999 V2000
  142.0530   76.2890  221.9390 H   0  0  0  0  0  0  0  0  0  0  0  0
  141.3610   75.7660  221.4190 O   0  0  0  0  0  0  0  0  0  0  0  0
  140.1520   75.3400  221.9740 C   0  0  0  0  0  0  0  0  0  0  0  0
  139.3621   76.0833  222.1572 H   0  0  0  0  0  0  0  0  0  0  0  0
  139.9260   74.0970  222.2820 N   0  0  0  0  0  0  0  0  0  0  0  0
  140.1630   72.9610  221.3940 C   0  0  0  0  0  0  0  0  0  0  0  0
  139.2299   72.7096  220.8684 H   0  0  0  0  0  0  0  0  0  0  0  0
  140.9426   73.2304  220.6663 H   0  0  0  0  0  0  0  0  0  0  0  0
  140.6310   71.7480  222.2020 C   0  0  0  0  0  0  0  0  0  0  0  0
  140.1650   70.8432  221.7847 H   0  0  0  0  0  0  0  0  0  0  0  0
  141.7279   71.7007  222.1352 H   0  0  0  0  0  0  0  0  0  0  0  0
  140.2600   71.8570  223.6610 C   0  0  0  0  0  0  0  0  0  0  0  0
  140.4361   72.8212  224.1603 H   0  0  0  0  0  0  0  0  0  0  0  0
  139.7280   70.8590  224.3990 C   0  0  0  0  0  0  0  0  0  0  0  0
  138.6120   70.0410  223.8510 C   0  0  0  0  0  0  0  0  0  0  0  0
  137.2680   70.3940  224.0870 C   0  0  0  0  0  0  0  0  0  0  0  0
  137.0345   71.2803  224.6953 H   0  0  0  0  0  0  0  0  0  0  0  0
  136.2300   69.6250  223.5530 C   0  0  0  0  0  0  0  0  0  0  0  0
  135.1841   69.9065  223.7451 H   0  0  0  0  0  0  0  0  0  0  0  0
  136.5170   68.5000  222.7760 C   0  0  0  0  0  0  0  0  0  0  0  0
  135.6982   67.8945  222.3600 H   0  0  0  0  0  0  0  0  0  0  0  0
  137.8450   68.1450  222.5280 C   0  0  0  0  0  0  0  0  0  0  0  0
  138.0707   67.2608  221.9138 H   0  0  0  0  0  0  0  0  0  0  0  0
  138.8880   68.9100  223.0580 C   0  0  0  0  0  0  0  0  0  0  0  0
  139.9313   68.6269  222.8544 H   0  0  0  0  0  0  0  0  0  0  0  0
  140.2320   70.5380  225.7550 C   0  0  0  0  0  0  0  0  0  0  0  0
  140.6220   71.5610  226.6360 C   0  0  0  0  0  0  0  0  0  0  0  0
  140.5762   72.6112  226.3121 H   0  0  0  0  0  0  0  0  0  0  0  0
  141.0680   71.2470  227.9230 C   0  0  0  0  0  0  0  0  0  0  0  0
  141.3826   72.0499  228.6059 H   0  0  0  0  0  0  0  0  0  0  0  0
  141.1150   69.9150  228.3440 C   0  0  0  0  0  0  0  0  0  0  0  0
  141.4729   69.6699  229.3549 H   0  0  0  0  0  0  0  0  0  0  0  0
  140.7070   68.8940  227.4800 C   0  0  0  0  0  0  0  0  0  0  0  0
  140.7385   67.8463  227.8137 H   0  0  0  0  0  0  0  0  0  0  0  0
  140.2590   69.2040  226.1920 C   0  0  0  0  0  0  0  0  0  0  0  0
  139.9266   68.3999  225.5190 H   0  0  0  0  0  0  0  0  0  0  0  0
  1  2  1  0
  2  3  1  0
  3  4  1  0
  3  5  2  0
  5  6  1  0
  6  7  1  0
  6  8  1  0
  6  9  1  0
  9 10  1  0
  9 11  1  0
  9 12  1  0
 12 13  1  0
 12 14  2  3
 14 15  1  0
 15 16  2  0
 16 17  1  0
 16 18  1  0
 18 19  1  0
 18 20  2  0
 20 21  1  0
 20 22  1  0
 22 23  1  0
 22 24  2  0
 24 25  1  0
 14 26  1  0
 26 27  2  0
 27 28  1  0
 27 29  1  0
 29 30  1  0
 29 31  2  0
 31 32  1  0
 31 33  1  0
 33 34  1  0
 33 35  2  0
 35 36  1  0
 24 15  1  0
 35 26  1  0
M  END
>  <UniqueID>  (44) 
39

>  <SMILES>  (44) 
O/C=N\CCC=C(c1ccccc1)c1ccccc1

>  <Energy>  (44) 
43.205056875375035

>  <Genealogy>  (44) 
OC=NCCC=C(c1ccccc1)c1ccccc1 (tautomer)
O/C=N\CCC=C(c1ccccc1)c1ccccc1 (cis-trans isomerization)
O/C=N\CCC=C(c1ccccc1)c1ccccc1 (3D coordinates assigned)
O/C=N\CCC=C(c1ccccc1)c1ccccc1 (optimized conformer: 43.205056875375035 kcal/mol)

>  <smiles>  (44) 
O=CNCCC=C(c1ccccc1)c1ccccc1

>  <score_type>  (44) 
oracle

>  <origin>  (44) 
autodockgpu

>  <m_score__min__energy>  (44) 
-5.6699999999999999

>  <m_primary>  (44) 
energy

>  <meeko>  (44) 
{"free_energy": -5.49, "intermolecular_energy": -7.88, "internal_energy": -0.92, "cluster_size": 13, "cluster_id": 1, "rank_in_cluster": 11}

>  <energy>  (44) 
-5.65

>  <cluster_rmsd>  (44) 
0.14

>  <rmsd>  (44) 
272.36

>  <cluster>  (44) 
1

$$$$
NYPVCQFMQXTFET-PENACOTONA-N
     RDKit          3D

 36 37  0  0  0  0  0  0  0  0999 V2000
  141.8650   76.4170  222.1430 H   0  0  0  0  0  0  0  0  0  0  0  0
  140.8620   76.4330  222.2760 O   0  0  0  0  0  0  0  0  0  0  0  0
  140.0350   75.3550  221.9540 C   0  0  0  0  0  0  0  0  0  0  0  0
  138.9908   75.5551  221.6718 H   0  0  0  0  0  0  0  0  0  0  0  0
  140.4520   74.1240  221.9750 N   0  0  0  0  0  0  0  0  0  0  0  0
  139.6220   72.9680  222.3030 C   0  0  0  0  0  0  0  0  0  0  0  0
  138.9284   73.2369  223.1134 H   0  0  0  0  0  0  0  0  0  0  0  0
  139.0563   72.6671  221.4089 H   0  0  0  0  0  0  0  0  0  0  0  0
  140.5000   71.7980  222.7560 C   0  0  0  0  0  0  0  0  0  0  0  0
  140.2014   70.8958  222.2021 H   0  0  0  0  0  0  0  0  0  0  0  0
  141.5479   72.0638  222.5531 H   0  0  0  0  0  0  0  0  0  0  0  0
  140.3690   71.5260  224.2350 C   0  0  0  0  0  0  0  0  0  0  0  0
  140.8102   72.2571  224.9284 H   0  0  0  0  0  0  0  0  0  0  0  0
  139.7500   70.4510  224.7700 C   0  0  0  0  0  0  0  0  0  0  0  0
  140.1950   69.9120  226.0830 C   0  0  0  0  0  0  0  0  0  0  0  0
  140.2350   68.5230  226.3230 C   0  0  0  0  0  0  0  0  0  0  0  0
  139.9220   67.8229  225.5344 H   0  0  0  0  0  0  0  0  0  0  0  0
  140.6700   68.0300  227.5570 C   0  0  0  0  0  0  0  0  0  0  0  0
  140.6931   66.9451  227.7370 H   0  0  0  0  0  0  0  0  0  0  0  0
  141.0750   68.9110  228.5610 C   0  0  0  0  0  0  0  0  0  0  0  0
  141.4146   68.5203  229.5316 H   0  0  0  0  0  0  0  0  0  0  0  0
  141.0490   70.2890  228.3330 C   0  0  0  0  0  0  0  0  0  0  0  0
  141.3702   70.9822  229.1244 H   0  0  0  0  0  0  0  0  0  0  0  0
  140.6160   70.7890  227.1020 C   0  0  0  0  0  0  0  0  0  0  0  0
  140.6038   71.8750  226.9274 H   0  0  0  0  0  0  0  0  0  0  0  0
  138.6160   69.7840  224.0870 C   0  0  0  0  0  0  0  0  0  0  0  0
  138.8430   68.7460  223.1680 C   0  0  0  0  0  0  0  0  0  0  0  0
  139.8721   68.4366  222.9331 H   0  0  0  0  0  0  0  0  0  0  0  0
  137.7640   68.1050  222.5510 C   0  0  0  0  0  0  0  0  0  0  0  0
  137.9460   67.3003  221.8234 H   0  0  0  0  0  0  0  0  0  0  0  0
  136.4540   68.4860  222.8580 C   0  0  0  0  0  0  0  0  0  0  0  0
  135.6062   67.9853  222.3675 H   0  0  0  0  0  0  0  0  0  0  0  0
  136.2220   69.5030  223.7880 C   0  0  0  0  0  0  0  0  0  0  0  0
  135.1911   69.7980  224.0334 H   0  0  0  0  0  0  0  0  0  0  0  0
  137.2980   70.1460  224.4070 C   0  0  0  0  0  0  0  0  0  0  0  0
  137.1113   70.9381  225.1471 H   0  0  0  0  0  0  0  0  0  0  0  0
  1  2  1  0
  2  3  1  0
  3  4  1  0
  3  5  2  0
  5  6  1  0
  6  7  1  0
  6  8  1  0
  6  9  1  0
  9 10  1  0
  9 11  1  0
  9 12  1  0
 12 13  1  0
 12 14  2  3
 14 15  1  0
 15 16  2  0
 16 17  1  0
 16 18  1  0
 18 19  1  0
 18 20  2  0
 20 21  1  0
 20 22  1  0
 22 23  1  0
 22 24  2  0
 24 25  1  0
 14 26  1  0
 26 27  2  0
 27 28  1  0
 27 29  1  0
 29 30  1  0
 29 31  2  0
 31 32  1  0
 31 33  1  0
 33 34  1  0
 33 35  2  0
 35 36  1  0
 24 15  1  0
 35 26  1  0
M  END
>  <UniqueID>  (45) 
39

>  <SMILES>  (45) 
O/C=N\CCC=C(c1ccccc1)c1ccccc1

>  <Energy>  (45) 
43.205056875375035

>  <Genealogy>  (45) 
OC=NCCC=C(c1ccccc1)c1ccccc1 (tautomer)
O/C=N\CCC=C(c1ccccc1)c1ccccc1 (cis-trans isomerization)
O/C=N\CCC=C(c1ccccc1)c1ccccc1 (3D coordinates assigned)
O/C=N\CCC=C(c1ccccc1)c1ccccc1 (optimized conformer: 43.205056875375035 kcal/mol)

>  <smiles>  (45) 
O=CNCCC=C(c1ccccc1)c1ccccc1

>  <score_type>  (45) 
oracle

>  <origin>  (45) 
autodockgpu

>  <m_score__min__energy>  (45) 
-5.6699999999999999

>  <m_primary>  (45) 
energy

>  <meeko>  (45) 
{"free_energy": -5.57, "intermolecular_energy": -7.96, "internal_energy": -0.87, "cluster_size": 13, "cluster_id": 1, "rank_in_cluster": 8}

>  <energy>  (45) 
-5.63

>  <cluster_rmsd>  (45) 
0.19

>  <rmsd>  (45) 
272.32

>  <cluster>  (45) 
1

$$$$
NYPVCQFMQXTFET-PENACOTONA-N
     RDKit          3D

 36 37  0  0  0  0  0  0  0  0999 V2000
  138.4620   74.8980  223.1150 H   0  0  0  0  0  0  0  0  0  0  0  0
  138.8940   75.4250  222.3670 O   0  0  0  0  0  0  0  0  0  0  0  0
  140.1950   75.1870  221.9210 C   0  0  0  0  0  0  0  0  0  0  0  0
  140.7779   76.0275  221.5162 H   0  0  0  0  0  0  0  0  0  0  0  0
  140.7440   74.0090  221.9660 N   0  0  0  0  0  0  0  0  0  0  0  0
  140.0430   72.7530  221.7120 C   0  0  0  0  0  0  0  0  0  0  0  0
  138.9846   72.8649  221.9900 H   0  0  0  0  0  0  0  0  0  0  0  0
  140.1263   72.5050  220.6436 H   0  0  0  0  0  0  0  0  0  0  0  0
  140.6660   71.6240  222.5370 C   0  0  0  0  0  0  0  0  0  0  0  0
  140.4241   70.6623  222.0610 H   0  0  0  0  0  0  0  0  0  0  0  0
  141.7527   71.7912  222.5719 H   0  0  0  0  0  0  0  0  0  0  0  0
  140.1540   71.6060  223.9570 C   0  0  0  0  0  0  0  0  0  0  0  0
  140.2007   72.5455  224.5272 H   0  0  0  0  0  0  0  0  0  0  0  0
  139.6430   70.5220  224.5790 C   0  0  0  0  0  0  0  0  0  0  0  0
  138.5390   69.7510  223.9470 C   0  0  0  0  0  0  0  0  0  0  0  0
  137.1910   70.0220  224.2590 C   0  0  0  0  0  0  0  0  0  0  0  0
  136.9464   70.8066  224.9902 H   0  0  0  0  0  0  0  0  0  0  0  0
  136.1630   69.3000  223.6450 C   0  0  0  0  0  0  0  0  0  0  0  0
  135.1144   69.5157  223.8977 H   0  0  0  0  0  0  0  0  0  0  0  0
  136.4640   68.3060  222.7120 C   0  0  0  0  0  0  0  0  0  0  0  0
  135.6535   67.7375  222.2325 H   0  0  0  0  0  0  0  0  0  0  0  0
  137.7950   68.0340  222.3880 C   0  0  0  0  0  0  0  0  0  0  0  0
  138.0311   67.2521  221.6511 H   0  0  0  0  0  0  0  0  0  0  0  0
  138.8280   68.7520  222.9970 C   0  0  0  0  0  0  0  0  0  0  0  0
  139.8736   68.5355  222.7326 H   0  0  0  0  0  0  0  0  0  0  0  0
  140.1600   70.0590  225.8890 C   0  0  0  0  0  0  0  0  0  0  0  0
  140.6260   70.9800  226.8420 C   0  0  0  0  0  0  0  0  0  0  0  0
  140.6306   72.0552  226.6097 H   0  0  0  0  0  0  0  0  0  0  0  0
  141.0840   70.5330  228.0850 C   0  0  0  0  0  0  0  0  0  0  0  0
  141.4585   71.2562  228.8245 H   0  0  0  0  0  0  0  0  0  0  0  0
  141.0670   69.1690  228.3900 C   0  0  0  0  0  0  0  0  0  0  0  0
  141.4352   68.8188  229.3656 H   0  0  0  0  0  0  0  0  0  0  0  0
  140.5820   68.2500  227.4550 C   0  0  0  0  0  0  0  0  0  0  0  0
  140.5612   67.1775  227.6984 H   0  0  0  0  0  0  0  0  0  0  0  0
  140.1230   68.6930  226.2100 C   0  0  0  0  0  0  0  0  0  0  0  0
  139.7319   67.9687  225.4804 H   0  0  0  0  0  0  0  0  0  0  0  0
  1  2  1  0
  2  3  1  0
  3  4  1  0
  3  5  2  0
  5  6  1  0
  6  7  1  0
  6  8  1  0
  6  9  1  0
  9 10  1  0
  9 11  1  0
  9 12  1  0
 12 13  1  0
 12 14  2  3
 14 15  1  0
 15 16  2  0
 16 17  1  0
 16 18  1  0
 18 19  1  0
 18 20  2  0
 20 21  1  0
 20 22  1  0
 22 23  1  0
 22 24  2  0
 24 25  1  0
 14 26  1  0
 26 27  2  0
 27 28  1  0
 27 29  1  0
 29 30  1  0
 29 31  2  0
 31 32  1  0
 31 33  1  0
 33 34  1  0
 33 35  2  0
 35 36  1  0
 24 15  1  0
 35 26  1  0
M  END
>  <UniqueID>  (46) 
39

>  <SMILES>  (46) 
O/C=N\CCC=C(c1ccccc1)c1ccccc1

>  <Energy>  (46) 
43.205056875375035

>  <Genealogy>  (46) 
OC=NCCC=C(c1ccccc1)c1ccccc1 (tautomer)
O/C=N\CCC=C(c1ccccc1)c1ccccc1 (cis-trans isomerization)
O/C=N\CCC=C(c1ccccc1)c1ccccc1 (3D coordinates assigned)
O/C=N\CCC=C(c1ccccc1)c1ccccc1 (optimized conformer: 43.205056875375035 kcal/mol)

>  <smiles>  (46) 
O=CNCCC=C(c1ccccc1)c1ccccc1

>  <score_type>  (46) 
oracle

>  <origin>  (46) 
autodockgpu

>  <m_score__min__energy>  (46) 
-5.6699999999999999

>  <m_primary>  (46) 
energy

>  <meeko>  (46) 
{"free_energy": -5.46, "intermolecular_energy": -7.85, "internal_energy": -0.84, "cluster_size": 13, "cluster_id": 1, "rank_in_cluster": 12}

>  <energy>  (46) 
-5.63

>  <cluster_rmsd>  (46) 
0.44

>  <rmsd>  (46) 
272.28

>  <cluster>  (46) 
1

$$$$
NYPVCQFMQXTFET-PENACOTONA-N
     RDKit          3D

 36 37  0  0  0  0  0  0  0  0999 V2000
  138.2980   75.2290  223.1330 H   0  0  0  0  0  0  0  0  0  0  0  0
  139.1760   75.5150  222.7200 O   0  0  0  0  0  0  0  0  0  0  0  0
  139.8270   74.7770  221.7290 C   0  0  0  0  0  0  0  0  0  0  0  0
  139.8360   75.1653  220.6999 H   0  0  0  0  0  0  0  0  0  0  0  0
  140.4230   73.6480  221.9770 N   0  0  0  0  0  0  0  0  0  0  0  0
  140.3880   72.4780  221.1040 C   0  0  0  0  0  0  0  0  0  0  0  0
  139.5095   72.5422  220.4451 H   0  0  0  0  0  0  0  0  0  0  0  0
  141.3078   72.4517  220.5013 H   0  0  0  0  0  0  0  0  0  0  0  0
  140.3010   71.1980  221.9400 C   0  0  0  0  0  0  0  0  0  0  0  0
  139.3098   70.7448  221.7914 H   0  0  0  0  0  0  0  0  0  0  0  0
  141.1041   70.5234  221.6084 H   0  0  0  0  0  0  0  0  0  0  0  0
  140.4980   71.4630  223.4120 C   0  0  0  0  0  0  0  0  0  0  0  0
  141.3486   72.0958  223.7055 H   0  0  0  0  0  0  0  0  0  0  0  0
  139.7090   70.9820  224.3960 C   0  0  0  0  0  0  0  0  0  0  0  0
  140.2710   70.7410  225.7530 C   0  0  0  0  0  0  0  0  0  0  0  0
  140.5980   71.8150  226.6050 C   0  0  0  0  0  0  0  0  0  0  0  0
  140.4487   72.8495  226.2622 H   0  0  0  0  0  0  0  0  0  0  0  0
  141.1110   71.5740  227.8830 C   0  0  0  0  0  0  0  0  0  0  0  0
  141.3671   72.4185  228.5396 H   0  0  0  0  0  0  0  0  0  0  0  0
  141.2990   70.2640  228.3280 C   0  0  0  0  0  0  0  0  0  0  0  0
  141.7061   70.0772  229.3327 H   0  0  0  0  0  0  0  0  0  0  0  0
  140.9700   69.1910  227.4970 C   0  0  0  0  0  0  0  0  0  0  0  0
  141.1156   68.1592  227.8495 H   0  0  0  0  0  0  0  0  0  0  0  0
  140.4560   69.4250  226.2180 C   0  0  0  0  0  0  0  0  0  0  0  0
  140.1943   68.5751  225.5706 H   0  0  0  0  0  0  0  0  0  0  0  0
  138.2730   70.6890  224.1710 C   0  0  0  0  0  0  0  0  0  0  0  0
  137.6830   69.5360  224.7140 C   0  0  0  0  0  0  0  0  0  0  0  0
  138.2935   68.8281  225.2939 H   0  0  0  0  0  0  0  0  0  0  0  0
  136.3210   69.2860  224.5190 C   0  0  0  0  0  0  0  0  0  0  0  0
  135.8644   68.3768  224.9371 H   0  0  0  0  0  0  0  0  0  0  0  0
  135.5390   70.1890  223.7940 C   0  0  0  0  0  0  0  0  0  0  0  0
  134.4695   69.9866  223.6355 H   0  0  0  0  0  0  0  0  0  0  0  0
  136.1160   71.3500  223.2700 C   0  0  0  0  0  0  0  0  0  0  0  0
  135.4987   72.0638  222.7049 H   0  0  0  0  0  0  0  0  0  0  0  0
  137.4770   71.6040  223.4640 C   0  0  0  0  0  0  0  0  0  0  0  0
  137.9257   72.5240  223.0613 H   0  0  0  0  0  0  0  0  0  0  0  0
  1  2  1  0
  2  3  1  0
  3  4  1  0
  3  5  2  0
  5  6  1  0
  6  7  1  0
  6  8  1  0
  6  9  1  0
  9 10  1  0
  9 11  1  0
  9 12  1  0
 12 13  1  0
 12 14  2  3
 14 15  1  0
 15 16  2  0
 16 17  1  0
 16 18  1  0
 18 19  1  0
 18 20  2  0
 20 21  1  0
 20 22  1  0
 22 23  1  0
 22 24  2  0
 24 25  1  0
 14 26  1  0
 26 27  2  0
 27 28  1  0
 27 29  1  0
 29 30  1  0
 29 31  2  0
 31 32  1  0
 31 33  1  0
 33 34  1  0
 33 35  2  0
 35 36  1  0
 24 15  1  0
 35 26  1  0
M  END
>  <UniqueID>  (47) 
39

>  <SMILES>  (47) 
O/C=N\CCC=C(c1ccccc1)c1ccccc1

>  <Energy>  (47) 
43.205056875375035

>  <Genealogy>  (47) 
OC=NCCC=C(c1ccccc1)c1ccccc1 (tautomer)
O/C=N\CCC=C(c1ccccc1)c1ccccc1 (cis-trans isomerization)
O/C=N\CCC=C(c1ccccc1)c1ccccc1 (3D coordinates assigned)
O/C=N\CCC=C(c1ccccc1)c1ccccc1 (optimized conformer: 43.205056875375035 kcal/mol)

>  <smiles>  (47) 
O=CNCCC=C(c1ccccc1)c1ccccc1

>  <score_type>  (47) 
oracle

>  <origin>  (47) 
autodockgpu

>  <m_score__min__energy>  (47) 
-5.6699999999999999

>  <m_primary>  (47) 
energy

>  <meeko>  (47) 
{"free_energy": -5.4, "intermolecular_energy": -7.79, "internal_energy": -0.91, "cluster_size": 13, "cluster_id": 1, "rank_in_cluster": 13}

>  <energy>  (47) 
-5.62

>  <cluster_rmsd>  (47) 
0.73

>  <rmsd>  (47) 
272.39

>  <cluster>  (47) 
1

$$$$
NYPVCQFMQXTFET-PENACOTONA-N
     RDKit          3D

 36 37  0  0  0  0  0  0  0  0999 V2000
  142.0140   76.4480  222.1260 H   0  0  0  0  0  0  0  0  0  0  0  0
  141.0410   76.2550  222.3250 O   0  0  0  0  0  0  0  0  0  0  0  0
  140.3050   75.2800  221.6480 C   0  0  0  0  0  0  0  0  0  0  0  0
  139.7239   75.5754  220.7620 H   0  0  0  0  0  0  0  0  0  0  0  0
  140.2810   74.0360  222.0260 N   0  0  0  0  0  0  0  0  0  0  0  0
  140.7540   72.9120  221.2220 C   0  0  0  0  0  0  0  0  0  0  0  0
  140.1147   72.8065  220.3331 H   0  0  0  0  0  0  0  0  0  0  0  0
  141.7935   73.1014  220.9163 H   0  0  0  0  0  0  0  0  0  0  0  0
  140.7010   71.6180  222.0400 C   0  0  0  0  0  0  0  0  0  0  0  0
  139.9385   70.9550  221.6051 H   0  0  0  0  0  0  0  0  0  0  0  0
  141.6989   71.1564  222.0068 H   0  0  0  0  0  0  0  0  0  0  0  0
  140.3560   71.8720  223.4870 C   0  0  0  0  0  0  0  0  0  0  0  0
  140.5886   72.8651  223.8989 H   0  0  0  0  0  0  0  0  0  0  0  0
  139.7830   70.9710  224.3140 C   0  0  0  0  0  0  0  0  0  0  0  0
  138.6420   70.1430  223.8380 C   0  0  0  0  0  0  0  0  0  0  0  0
  138.8520   69.0240  223.0070 C   0  0  0  0  0  0  0  0  0  0  0  0
  139.8726   68.7614  222.6917 H   0  0  0  0  0  0  0  0  0  0  0  0
  137.7720   68.2460  222.5810 C   0  0  0  0  0  0  0  0  0  0  0  0
  137.9457   67.3764  221.9301 H   0  0  0  0  0  0  0  0  0  0  0  0
  136.4730   68.5690  222.9790 C   0  0  0  0  0  0  0  0  0  0  0  0
  135.6247   67.9565  222.6394 H   0  0  0  0  0  0  0  0  0  0  0  0
  136.2520   69.6710  223.8090 C   0  0  0  0  0  0  0  0  0  0  0  0
  135.2290   69.9245  224.1239 H   0  0  0  0  0  0  0  0  0  0  0  0
  137.3280   70.4520  224.2400 C   0  0  0  0  0  0  0  0  0  0  0  0
  137.1472   71.3146  224.8982 H   0  0  0  0  0  0  0  0  0  0  0  0
  140.2660   70.7670  225.7000 C   0  0  0  0  0  0  0  0  0  0  0  0
  140.7150   71.8530  226.4700 C   0  0  0  0  0  0  0  0  0  0  0  0
  140.7313   72.8637  226.0362 H   0  0  0  0  0  0  0  0  0  0  0  0
  141.1410   71.6520  227.7860 C   0  0  0  0  0  0  0  0  0  0  0  0
  141.5015   72.5032  228.3822 H   0  0  0  0  0  0  0  0  0  0  0  0
  141.1100   70.3720  228.3460 C   0  0  0  0  0  0  0  0  0  0  0  0
  141.4528   70.2150  229.3794 H   0  0  0  0  0  0  0  0  0  0  0  0
  140.6430   69.2910  227.5920 C   0  0  0  0  0  0  0  0  0  0  0  0
  140.6122   68.2846  228.0350 H   0  0  0  0  0  0  0  0  0  0  0  0
  140.2150   69.4880  226.2750 C   0  0  0  0  0  0  0  0  0  0  0  0
  139.8373   68.6377  225.6882 H   0  0  0  0  0  0  0  0  0  0  0  0
  1  2  1  0
  2  3  1  0
  3  4  1  0
  3  5  2  0
  5  6  1  0
  6  7  1  0
  6  8  1  0
  6  9  1  0
  9 10  1  0
  9 11  1  0
  9 12  1  0
 12 13  1  0
 12 14  2  3
 14 15  1  0
 15 16  2  0
 16 17  1  0
 16 18  1  0
 18 19  1  0
 18 20  2  0
 20 21  1  0
 20 22  1  0
 22 23  1  0
 22 24  2  0
 24 25  1  0
 14 26  1  0
 26 27  2  0
 27 28  1  0
 27 29  1  0
 29 30  1  0
 29 31  2  0
 31 32  1  0
 31 33  1  0
 33 34  1  0
 33 35  2  0
 35 36  1  0
 24 15  1  0
 35 26  1  0
M  END
>  <UniqueID>  (48) 
39

>  <SMILES>  (48) 
O/C=N\CCC=C(c1ccccc1)c1ccccc1

>  <Energy>  (48) 
43.205056875375035

>  <Genealogy>  (48) 
OC=NCCC=C(c1ccccc1)c1ccccc1 (tautomer)
O/C=N\CCC=C(c1ccccc1)c1ccccc1 (cis-trans isomerization)
O/C=N\CCC=C(c1ccccc1)c1ccccc1 (3D coordinates assigned)
O/C=N\CCC=C(c1ccccc1)c1ccccc1 (optimized conformer: 43.205056875375035 kcal/mol)

>  <smiles>  (48) 
O=CNCCC=C(c1ccccc1)c1ccccc1

>  <score_type>  (48) 
oracle

>  <origin>  (48) 
autodockgpu

>  <m_score__min__energy>  (48) 
-5.6699999999999999

>  <m_primary>  (48) 
energy

>  <meeko>  (48) 
{"free_energy": -5.62, "intermolecular_energy": -8.01, "internal_energy": -0.89, "cluster_size": 13, "cluster_id": 1, "rank_in_cluster": 7}

>  <energy>  (48) 
-5.57

>  <cluster_rmsd>  (48) 
0.33

>  <rmsd>  (48) 
272.44

>  <cluster>  (48) 
1

$$$$
NYPVCQFMQXTFET-PENACOTONA-N
     RDKit          3D

 36 37  0  0  0  0  0  0  0  0999 V2000
  142.0810   76.3420  222.1080 H   0  0  0  0  0  0  0  0  0  0  0  0
  141.1060   76.1200  222.2650 O   0  0  0  0  0  0  0  0  0  0  0  0
  140.4430   75.0890  221.5960 C   0  0  0  0  0  0  0  0  0  0  0  0
  140.3321   75.1527  220.5035 H   0  0  0  0  0  0  0  0  0  0  0  0
  139.9520   74.0570  222.2150 N   0  0  0  0  0  0  0  0  0  0  0  0
  139.6520   72.7730  221.5880 C   0  0  0  0  0  0  0  0  0  0  0  0
  138.5887   72.5347  221.7386 H   0  0  0  0  0  0  0  0  0  0  0  0
  139.8734   72.8382  220.5125 H   0  0  0  0  0  0  0  0  0  0  0  0
  140.5110   71.6680  222.2090 C   0  0  0  0  0  0  0  0  0  0  0  0
  140.1848   70.6975  221.8068 H   0  0  0  0  0  0  0  0  0  0  0  0
  141.5613   71.8740  221.9552 H   0  0  0  0  0  0  0  0  0  0  0  0
  140.3960   71.6340  223.7140 C   0  0  0  0  0  0  0  0  0  0  0  0
  140.8601   72.4560  224.2788 H   0  0  0  0  0  0  0  0  0  0  0  0
  139.7660   70.6700  224.4180 C   0  0  0  0  0  0  0  0  0  0  0  0
  138.6130   69.9440  223.8200 C   0  0  0  0  0  0  0  0  0  0  0  0
  138.8080   68.7950  223.0270 C   0  0  0  0  0  0  0  0  0  0  0  0
  139.8281   68.4319  222.8335 H   0  0  0  0  0  0  0  0  0  0  0  0
  137.7150   68.1140  222.4850 C   0  0  0  0  0  0  0  0  0  0  0  0
  137.8781   67.2204  221.8646 H   0  0  0  0  0  0  0  0  0  0  0  0
  136.4160   68.5650  222.7290 C   0  0  0  0  0  0  0  0  0  0  0  0
  135.5573   68.0290  222.2985 H   0  0  0  0  0  0  0  0  0  0  0  0
  136.2080   69.6970  223.5200 C   0  0  0  0  0  0  0  0  0  0  0  0
  135.1845   70.0504  223.7138 H   0  0  0  0  0  0  0  0  0  0  0  0
  137.2970   70.3820  224.0660 C   0  0  0  0  0  0  0  0  0  0  0  0
  137.1252   71.2697  224.6924 H   0  0  0  0  0  0  0  0  0  0  0  0
  140.1960   70.2960  225.7860 C   0  0  0  0  0  0  0  0  0  0  0  0
  140.2620   68.9470  226.1730 C   0  0  0  0  0  0  0  0  0  0  0  0
  139.9708   68.1577  225.4643 H   0  0  0  0  0  0  0  0  0  0  0  0
  140.6970   68.6060  227.4570 C   0  0  0  0  0  0  0  0  0  0  0  0
  140.7381   67.5493  227.7599 H   0  0  0  0  0  0  0  0  0  0  0  0
  141.0800   69.6050  228.3570 C   0  0  0  0  0  0  0  0  0  0  0  0
  141.4141   69.3350  229.3696 H   0  0  0  0  0  0  0  0  0  0  0  0
  141.0380   70.9470  227.9690 C   0  0  0  0  0  0  0  0  0  0  0  0
  141.3470   71.7324  228.6745 H   0  0  0  0  0  0  0  0  0  0  0  0
  140.6040   71.2930  226.6860 C   0  0  0  0  0  0  0  0  0  0  0  0
  140.5822   72.3496  226.3808 H   0  0  0  0  0  0  0  0  0  0  0  0
  1  2  1  0
  2  3  1  0
  3  4  1  0
  3  5  2  0
  5  6  1  0
  6  7  1  0
  6  8  1  0
  6  9  1  0
  9 10  1  0
  9 11  1  0
  9 12  1  0
 12 13  1  0
 12 14  2  3
 14 15  1  0
 15 16  2  0
 16 17  1  0
 16 18  1  0
 18 19  1  0
 18 20  2  0
 20 21  1  0
 20 22  1  0
 22 23  1  0
 22 24  2  0
 24 25  1  0
 14 26  1  0
 26 27  2  0
 27 28  1  0
 27 29  1  0
 29 30  1  0
 29 31  2  0
 31 32  1  0
 31 33  1  0
 33 34  1  0
 33 35  2  0
 35 36  1  0
 24 15  1  0
 35 26  1  0
M  END
>  <UniqueID>  (49) 
39

>  <SMILES>  (49) 
O/C=N\CCC=C(c1ccccc1)c1ccccc1

>  <Energy>  (49) 
43.205056875375035

>  <Genealogy>  (49) 
OC=NCCC=C(c1ccccc1)c1ccccc1 (tautomer)
O/C=N\CCC=C(c1ccccc1)c1ccccc1 (cis-trans isomerization)
O/C=N\CCC=C(c1ccccc1)c1ccccc1 (3D coordinates assigned)
O/C=N\CCC=C(c1ccccc1)c1ccccc1 (optimized conformer: 43.205056875375035 kcal/mol)

>  <smiles>  (49) 
O=CNCCC=C(c1ccccc1)c1ccccc1

>  <score_type>  (49) 
oracle

>  <origin>  (49) 
autodockgpu

>  <m_score__min__energy>  (49) 
-5.6699999999999999

>  <m_primary>  (49) 
energy

>  <meeko>  (49) 
{"free_energy": -5.63, "intermolecular_energy": -8.01, "internal_energy": -0.93, "cluster_size": 13, "cluster_id": 1, "rank_in_cluster": 6}

>  <energy>  (49) 
-5.54

>  <cluster_rmsd>  (49) 
0.25

>  <rmsd>  (49) 
272.31

>  <cluster>  (49) 
1

$$$$
NYPVCQFMQXTFET-PENACOTONA-N
     RDKit          3D

 36 37  0  0  0  0  0  0  0  0999 V2000
  139.1550   73.7800  223.0490 H   0  0  0  0  0  0  0  0  0  0  0  0
  139.9480   73.7660  222.4200 O   0  0  0  0  0  0  0  0  0  0  0  0
  139.8330   73.9860  221.0460 C   0  0  0  0  0  0  0  0  0  0  0  0
  139.8338   73.1190  220.3691 H   0  0  0  0  0  0  0  0  0  0  0  0
  139.7250   75.1770  220.5370 N   0  0  0  0  0  0  0  0  0  0  0  0
  138.7290   76.1680  220.9400 C   0  0  0  0  0  0  0  0  0  0  0  0
  138.6374   76.9320  220.1539 H   0  0  0  0  0  0  0  0  0  0  0  0
  137.7618   75.6657  221.0890 H   0  0  0  0  0  0  0  0  0  0  0  0
  139.1520   76.8380  222.2500 C   0  0  0  0  0  0  0  0  0  0  0  0
  138.7057   77.8424  222.2940 H   0  0  0  0  0  0  0  0  0  0  0  0
  138.8017   76.2067  223.0799 H   0  0  0  0  0  0  0  0  0  0  0  0
  140.6510   76.9670  222.3680 C   0  0  0  0  0  0  0  0  0  0  0  0
  141.1873   76.1836  222.9236 H   0  0  0  0  0  0  0  0  0  0  0  0
  141.3830   77.9730  221.8420 C   0  0  0  0  0  0  0  0  0  0  0  0
  141.9320   77.8540  220.4650 C   0  0  0  0  0  0  0  0  0  0  0  0
  142.5390   76.6600  220.0240 C   0  0  0  0  0  0  0  0  0  0  0  0
  142.6219   75.8038  220.7096 H   0  0  0  0  0  0  0  0  0  0  0  0
  143.0360   76.5570  218.7220 C   0  0  0  0  0  0  0  0  0  0  0  0
  143.5106   75.6223  218.3886 H   0  0  0  0  0  0  0  0  0  0  0  0
  142.9320   77.6370  217.8430 C   0  0  0  0  0  0  0  0  0  0  0  0
  143.3278   77.5544  216.8200 H   0  0  0  0  0  0  0  0  0  0  0  0
  142.3250   78.8220  218.2640 C   0  0  0  0  0  0  0  0  0  0  0  0
  142.2400   79.6713  217.5701 H   0  0  0  0  0  0  0  0  0  0  0  0
  141.8250   78.9320  219.5650 C   0  0  0  0  0  0  0  0  0  0  0  0
  141.3445   79.8673  219.8880 H   0  0  0  0  0  0  0  0  0  0  0  0
  141.6550   79.2180  222.5990 C   0  0  0  0  0  0  0  0  0  0  0  0
  140.6070   80.0840  222.9540 C   0  0  0  0  0  0  0  0  0  0  0  0
  139.5757   79.8515  222.6501 H   0  0  0  0  0  0  0  0  0  0  0  0
  140.8730   81.2410  223.6930 C   0  0  0  0  0  0  0  0  0  0  0  0
  140.0520   81.9229  223.9594 H   0  0  0  0  0  0  0  0  0  0  0  0
  142.1800   81.5330  224.0940 C   0  0  0  0  0  0  0  0  0  0  0  0
  142.3879   82.4471  224.6694 H   0  0  0  0  0  0  0  0  0  0  0  0
  143.2230   80.6620  223.7630 C   0  0  0  0  0  0  0  0  0  0  0  0
  144.2504   80.8886  224.0840 H   0  0  0  0  0  0  0  0  0  0  0  0
  142.9620   79.5040  223.0250 C   0  0  0  0  0  0  0  0  0  0  0  0
  143.7828   78.8148  222.7773 H   0  0  0  0  0  0  0  0  0  0  0  0
  1  2  1  0
  2  3  1  0
  3  4  1  0
  3  5  2  0
  5  6  1  0
  6  7  1  0
  6  8  1  0
  6  9  1  0
  9 10  1  0
  9 11  1  0
  9 12  1  0
 12 13  1  0
 12 14  2  3
 14 15  1  0
 15 16  2  0
 16 17  1  0
 16 18  1  0
 18 19  1  0
 18 20  2  0
 20 21  1  0
 20 22  1  0
 22 23  1  0
 22 24  2  0
 24 25  1  0
 14 26  1  0
 26 27  2  0
 27 28  1  0
 27 29  1  0
 29 30  1  0
 29 31  2  0
 31 32  1  0
 31 33  1  0
 33 34  1  0
 33 35  2  0
 35 36  1  0
 24 15  1  0
 35 26  1  0
M  END
>  <UniqueID>  (50) 
39

>  <SMILES>  (50) 
O/C=N\CCC=C(c1ccccc1)c1ccccc1

>  <Energy>  (50) 
43.205056875375035

>  <Genealogy>  (50) 
OC=NCCC=C(c1ccccc1)c1ccccc1 (tautomer)
O/C=N\CCC=C(c1ccccc1)c1ccccc1 (cis-trans isomerization)
O/C=N\CCC=C(c1ccccc1)c1ccccc1 (3D coordinates assigned)
O/C=N\CCC=C(c1ccccc1)c1ccccc1 (optimized conformer: 43.205056875375035 kcal/mol)

>  <smiles>  (50) 
O=CNCCC=C(c1ccccc1)c1ccccc1

>  <score_type>  (50) 
oracle

>  <origin>  (50) 
autodockgpu

>  <m_score__min__energy>  (50) 
-5.6699999999999999

>  <m_primary>  (50) 
energy

>  <meeko>  (50) 
{"free_energy": -5.29, "intermolecular_energy": -7.67, "internal_energy": -1.1, "cluster_size": 7, "cluster_id": 2, "rank_in_cluster": 5}

>  <energy>  (50) 
-5.5

>  <cluster_rmsd>  (50) 
0.5

>  <rmsd>  (50) 
272.3

>  <cluster>  (50) 
1

$$$$
NYPVCQFMQXTFET-PENACOTONA-N
     RDKit          3D

 36 37  0  0  0  0  0  0  0  0999 V2000
  141.8310   76.1200  221.9580 H   0  0  0  0  0  0  0  0  0  0  0  0
  141.5200   75.1630  221.8530 O   0  0  0  0  0  0  0  0  0  0  0  0
  140.1830   74.8140  221.6530 C   0  0  0  0  0  0  0  0  0  0  0  0
  139.6018   75.3577  220.8937 H   0  0  0  0  0  0  0  0  0  0  0  0
  139.5990   73.8700  222.3310 N   0  0  0  0  0  0  0  0  0  0  0  0
  139.5210   72.4720  221.9140 C   0  0  0  0  0  0  0  0  0  0  0  0
  138.5240   72.0755  222.1564 H   0  0  0  0  0  0  0  0  0  0  0  0
  139.6960   72.4103  220.8298 H   0  0  0  0  0  0  0  0  0  0  0  0
  140.5850   71.6440  222.6400 C   0  0  0  0  0  0  0  0  0  0  0  0
  140.6004   70.6316  222.2100 H   0  0  0  0  0  0  0  0  0  0  0  0
  141.5534   72.1492  222.5093 H   0  0  0  0  0  0  0  0  0  0  0  0
  140.3130   71.5390  224.1220 C   0  0  0  0  0  0  0  0  0  0  0  0
  140.6328   72.3770  224.7588 H   0  0  0  0  0  0  0  0  0  0  0  0
  139.7070   70.4940  224.7230 C   0  0  0  0  0  0  0  0  0  0  0  0
  138.5670   69.8080  224.0550 C   0  0  0  0  0  0  0  0  0  0  0  0
  137.2440   70.2630  224.2270 C   0  0  0  0  0  0  0  0  0  0  0  0
  137.0438   71.1301  224.8735 H   0  0  0  0  0  0  0  0  0  0  0  0
  136.1850   69.6190  223.5810 C   0  0  0  0  0  0  0  0  0  0  0  0
  135.1554   69.9786  223.7242 H   0  0  0  0  0  0  0  0  0  0  0  0
  136.4300   68.5200  222.7540 C   0  0  0  0  0  0  0  0  0  0  0  0
  135.5943   68.0131  222.2494 H   0  0  0  0  0  0  0  0  0  0  0  0
  137.7380   68.0660  222.5690 C   0  0  0  0  0  0  0  0  0  0  0  0
  137.9311   67.2024  221.9156 H   0  0  0  0  0  0  0  0  0  0  0  0
  138.8020   68.7050  223.2110 C   0  0  0  0  0  0  0  0  0  0  0  0
  139.8296   68.3444  223.0563 H   0  0  0  0  0  0  0  0  0  0  0  0
  140.1500   69.9890  226.0440 C   0  0  0  0  0  0  0  0  0  0  0  0
  140.2040   68.6090  226.3040 C   0  0  0  0  0  0  0  0  0  0  0  0
  139.8929   67.8922  225.5297 H   0  0  0  0  0  0  0  0  0  0  0  0
  140.6520   68.1450  227.5440 C   0  0  0  0  0  0  0  0  0  0  0  0
  140.6828   67.0643  227.7469 H   0  0  0  0  0  0  0  0  0  0  0  0
  141.0610   69.0510  228.5270 C   0  0  0  0  0  0  0  0  0  0  0  0
  141.4061   68.6838  229.5048 H   0  0  0  0  0  0  0  0  0  0  0  0
  141.0310   70.4250  228.2660 C   0  0  0  0  0  0  0  0  0  0  0  0
  141.3586   71.1380  229.0369 H   0  0  0  0  0  0  0  0  0  0  0  0
  140.5850   70.8930  227.0260 C   0  0  0  0  0  0  0  0  0  0  0  0
  140.5750   71.9734  226.8193 H   0  0  0  0  0  0  0  0  0  0  0  0
  1  2  1  0
  2  3  1  0
  3  4  1  0
  3  5  2  0
  5  6  1  0
  6  7  1  0
  6  8  1  0
  6  9  1  0
  9 10  1  0
  9 11  1  0
  9 12  1  0
 12 13  1  0
 12 14  2  3
 14 15  1  0
 15 16  2  0
 16 17  1  0
 16 18  1  0
 18 19  1  0
 18 20  2  0
 20 21  1  0
 20 22  1  0
 22 23  1  0
 22 24  2  0
 24 25  1  0
 14 26  1  0
 26 27  2  0
 27 28  1  0
 27 29  1  0
 29 30  1  0
 29 31  2  0
 31 32  1  0
 31 33  1  0
 33 34  1  0
 33 35  2  0
 35 36  1  0
 24 15  1  0
 35 26  1  0
M  END
>  <UniqueID>  (51) 
39

>  <SMILES>  (51) 
O/C=N\CCC=C(c1ccccc1)c1ccccc1

>  <Energy>  (51) 
43.205056875375035

>  <Genealogy>  (51) 
OC=NCCC=C(c1ccccc1)c1ccccc1 (tautomer)
O/C=N\CCC=C(c1ccccc1)c1ccccc1 (cis-trans isomerization)
O/C=N\CCC=C(c1ccccc1)c1ccccc1 (3D coordinates assigned)
O/C=N\CCC=C(c1ccccc1)c1ccccc1 (optimized conformer: 43.205056875375035 kcal/mol)

>  <smiles>  (51) 
O=CNCCC=C(c1ccccc1)c1ccccc1

>  <score_type>  (51) 
oracle

>  <origin>  (51) 
autodockgpu

>  <m_score__min__energy>  (51) 
-5.6699999999999999

>  <m_primary>  (51) 
energy

>  <meeko>  (51) 
{"free_energy": -5.54, "intermolecular_energy": -7.93, "internal_energy": -0.96, "cluster_size": 13, "cluster_id": 1, "rank_in_cluster": 9}

>  <energy>  (51) 
-5.49

>  <cluster_rmsd>  (51) 
0.6

>  <rmsd>  (51) 
272.3

>  <cluster>  (51) 
1

$$$$
NYPVCQFMQXTFET-PENACOTONA-N
     RDKit          3D

 36 37  0  0  0  0  0  0  0  0999 V2000
  139.0390   72.9890  223.3990 H   0  0  0  0  0  0  0  0  0  0  0  0
  139.9570   72.7000  223.0880 O   0  0  0  0  0  0  0  0  0  0  0  0
  140.5590   73.1970  221.9300 C   0  0  0  0  0  0  0  0  0  0  0  0
  141.0185   72.4874  221.2262 H   0  0  0  0  0  0  0  0  0  0  0  0
  140.5970   74.4670  221.6520 N   0  0  0  0  0  0  0  0  0  0  0  0
  139.5480   75.1960  220.9430 C   0  0  0  0  0  0  0  0  0  0  0  0
  139.8763   75.3947  219.9121 H   0  0  0  0  0  0  0  0  0  0  0  0
  138.6311   74.5884  220.9337 H   0  0  0  0  0  0  0  0  0  0  0  0
  139.2610   76.5250  221.6480 C   0  0  0  0  0  0  0  0  0  0  0  0
  138.9262   77.2580  220.8992 H   0  0  0  0  0  0  0  0  0  0  0  0
  138.4850   76.3440  222.4064 H   0  0  0  0  0  0  0  0  0  0  0  0
  140.4790   77.0720  222.3530 C   0  0  0  0  0  0  0  0  0  0  0  0
  140.7242   76.6571  223.3418 H   0  0  0  0  0  0  0  0  0  0  0  0
  141.2890   78.0320  221.8600 C   0  0  0  0  0  0  0  0  0  0  0  0
  141.8670   77.8920  220.4960 C   0  0  0  0  0  0  0  0  0  0  0  0
  142.4740   76.6880  220.0830 C   0  0  0  0  0  0  0  0  0  0  0  0
  142.5355   75.8399  220.7808 H   0  0  0  0  0  0  0  0  0  0  0  0
  142.9980   76.5650  218.7930 C   0  0  0  0  0  0  0  0  0  0  0  0
  143.4721   75.6228  218.4809 H   0  0  0  0  0  0  0  0  0  0  0  0
  142.9210   77.6360  217.8990 C   0  0  0  0  0  0  0  0  0  0  0  0
  143.3374   77.5380  216.8856 H   0  0  0  0  0  0  0  0  0  0  0  0
  142.3150   78.8310  218.2930 C   0  0  0  0  0  0  0  0  0  0  0  0
  142.2530   79.6730  217.5879 H   0  0  0  0  0  0  0  0  0  0  0  0
  141.7870   78.9600  219.5810 C   0  0  0  0  0  0  0  0  0  0  0  0
  141.3057   79.9022  219.8821 H   0  0  0  0  0  0  0  0  0  0  0  0
  141.6230   79.2480  222.6400 C   0  0  0  0  0  0  0  0  0  0  0  0
  140.6100   80.1140  223.0850 C   0  0  0  0  0  0  0  0  0  0  0  0
  139.5596   79.9041  222.8349 H   0  0  0  0  0  0  0  0  0  0  0  0
  140.9340   81.2420  223.8450 C   0  0  0  0  0  0  0  0  0  0  0  0
  140.1393   81.9234  224.1829 H   0  0  0  0  0  0  0  0  0  0  0  0
  142.2660   81.5050  224.1760 C   0  0  0  0  0  0  0  0  0  0  0  0
  142.5200   82.3969  224.7676 H   0  0  0  0  0  0  0  0  0  0  0  0
  143.2760   80.6340  223.7550 C   0  0  0  0  0  0  0  0  0  0  0  0
  144.3236   80.8381  224.0213 H   0  0  0  0  0  0  0  0  0  0  0  0
  142.9560   79.5040  222.9960 C   0  0  0  0  0  0  0  0  0  0  0  0
  143.7512   78.8140  222.6772 H   0  0  0  0  0  0  0  0  0  0  0  0
  1  2  1  0
  2  3  1  0
  3  4  1  0
  3  5  2  0
  5  6  1  0
  6  7  1  0
  6  8  1  0
  6  9  1  0
  9 10  1  0
  9 11  1  0
  9 12  1  0
 12 13  1  0
 12 14  2  3
 14 15  1  0
 15 16  2  0
 16 17  1  0
 16 18  1  0
 18 19  1  0
 18 20  2  0
 20 21  1  0
 20 22  1  0
 22 23  1  0
 22 24  2  0
 24 25  1  0
 14 26  1  0
 26 27  2  0
 27 28  1  0
 27 29  1  0
 29 30  1  0
 29 31  2  0
 31 32  1  0
 31 33  1  0
 33 34  1  0
 33 35  2  0
 35 36  1  0
 24 15  1  0
 35 26  1  0
M  END
>  <UniqueID>  (52) 
39

>  <SMILES>  (52) 
O/C=N\CCC=C(c1ccccc1)c1ccccc1

>  <Energy>  (52) 
43.205056875375035

>  <Genealogy>  (52) 
OC=NCCC=C(c1ccccc1)c1ccccc1 (tautomer)
O/C=N\CCC=C(c1ccccc1)c1ccccc1 (cis-trans isomerization)
O/C=N\CCC=C(c1ccccc1)c1ccccc1 (3D coordinates assigned)
O/C=N\CCC=C(c1ccccc1)c1ccccc1 (optimized conformer: 43.205056875375035 kcal/mol)

>  <smiles>  (52) 
O=CNCCC=C(c1ccccc1)c1ccccc1

>  <score_type>  (52) 
oracle

>  <origin>  (52) 
autodockgpu

>  <m_score__min__energy>  (52) 
-5.6699999999999999

>  <m_primary>  (52) 
energy

>  <meeko>  (52) 
{"free_energy": -5.43, "intermolecular_energy": -7.82, "internal_energy": -1.0, "cluster_size": 7, "cluster_id": 2, "rank_in_cluster": 1}

>  <energy>  (52) 
-5.46

>  <cluster_rmsd>  (52) 
1.09

>  <rmsd>  (52) 
272.18

>  <cluster>  (52) 
1

$$$$
NYPVCQFMQXTFET-PENACOTONA-N
     RDKit          3D

 36 37  0  0  0  0  0  0  0  0999 V2000
  139.2180   73.7680  223.0900 H   0  0  0  0  0  0  0  0  0  0  0  0
  139.8880   73.8700  222.3390 O   0  0  0  0  0  0  0  0  0  0  0  0
  139.5230   74.2050  221.0330 C   0  0  0  0  0  0  0  0  0  0  0  0
  140.0770   73.7547  220.1962 H   0  0  0  0  0  0  0  0  0  0  0  0
  138.5530   75.0290  220.7700 N   0  0  0  0  0  0  0  0  0  0  0  0
  138.6240   76.4790  220.9320 C   0  0  0  0  0  0  0  0  0  0  0  0
  139.3053   76.8963  220.1759 H   0  0  0  0  0  0  0  0  0  0  0  0
  137.6175   76.9045  220.8055 H   0  0  0  0  0  0  0  0  0  0  0  0
  139.1430   76.8290  222.3290 C   0  0  0  0  0  0  0  0  0  0  0  0
  138.7250   77.8014  222.6287 H   0  0  0  0  0  0  0  0  0  0  0  0
  138.8291   76.0290  223.0157 H   0  0  0  0  0  0  0  0  0  0  0  0
  140.6490   76.9130  222.3740 C   0  0  0  0  0  0  0  0  0  0  0  0
  141.1898   76.0965  222.8749 H   0  0  0  0  0  0  0  0  0  0  0  0
  141.3820   77.9160  221.8450 C   0  0  0  0  0  0  0  0  0  0  0  0
  141.9350   77.7890  220.4690 C   0  0  0  0  0  0  0  0  0  0  0  0
  142.5230   76.5860  220.0300 C   0  0  0  0  0  0  0  0  0  0  0  0
  142.5883   75.7279  220.7151 H   0  0  0  0  0  0  0  0  0  0  0  0
  143.0240   76.4760  218.7290 C   0  0  0  0  0  0  0  0  0  0  0  0
  143.4840   75.5338  218.3963 H   0  0  0  0  0  0  0  0  0  0  0  0
  142.9420   77.5590  217.8510 C   0  0  0  0  0  0  0  0  0  0  0  0
  143.3411   77.4713  216.8297 H   0  0  0  0  0  0  0  0  0  0  0  0
  142.3530   78.7530  218.2710 C   0  0  0  0  0  0  0  0  0  0  0  0
  142.2852   79.6044  217.5778 H   0  0  0  0  0  0  0  0  0  0  0  0
  141.8490   78.8700  219.5700 C   0  0  0  0  0  0  0  0  0  0  0  0
  141.3822   79.8126  219.8921 H   0  0  0  0  0  0  0  0  0  0  0  0
  141.6530   79.1650  222.5950 C   0  0  0  0  0  0  0  0  0  0  0  0
  142.9560   79.4830  223.0120 C   0  0  0  0  0  0  0  0  0  0  0  0
  143.7840   78.7900  222.8018 H   0  0  0  0  0  0  0  0  0  0  0  0
  143.2030   80.6790  223.6940 C   0  0  0  0  0  0  0  0  0  0  0  0
  144.2232   80.9204  224.0271 H   0  0  0  0  0  0  0  0  0  0  0  0
  142.1560   81.5680  223.9530 C   0  0  0  0  0  0  0  0  0  0  0  0
  142.3510   82.5042  224.4966 H   0  0  0  0  0  0  0  0  0  0  0  0
  140.8610   81.2670  223.5210 C   0  0  0  0  0  0  0  0  0  0  0  0
  140.0384   81.9699  223.7192 H   0  0  0  0  0  0  0  0  0  0  0  0
  140.6100   80.0730  222.8370 C   0  0  0  0  0  0  0  0  0  0  0  0
  139.5922   79.8448  222.4876 H   0  0  0  0  0  0  0  0  0  0  0  0
  1  2  1  0
  2  3  1  0
  3  4  1  0
  3  5  2  0
  5  6  1  0
  6  7  1  0
  6  8  1  0
  6  9  1  0
  9 10  1  0
  9 11  1  0
  9 12  1  0
 12 13  1  0
 12 14  2  3
 14 15  1  0
 15 16  2  0
 16 17  1  0
 16 18  1  0
 18 19  1  0
 18 20  2  0
 20 21  1  0
 20 22  1  0
 22 23  1  0
 22 24  2  0
 24 25  1  0
 14 26  1  0
 26 27  2  0
 27 28  1  0
 27 29  1  0
 29 30  1  0
 29 31  2  0
 31 32  1  0
 31 33  1  0
 33 34  1  0
 33 35  2  0
 35 36  1  0
 24 15  1  0
 35 26  1  0
M  END
>  <UniqueID>  (53) 
39

>  <SMILES>  (53) 
O/C=N\CCC=C(c1ccccc1)c1ccccc1

>  <Energy>  (53) 
43.205056875375035

>  <Genealogy>  (53) 
OC=NCCC=C(c1ccccc1)c1ccccc1 (tautomer)
O/C=N\CCC=C(c1ccccc1)c1ccccc1 (cis-trans isomerization)
O/C=N\CCC=C(c1ccccc1)c1ccccc1 (3D coordinates assigned)
O/C=N\CCC=C(c1ccccc1)c1ccccc1 (optimized conformer: 43.205056875375035 kcal/mol)

>  <smiles>  (53) 
O=CNCCC=C(c1ccccc1)c1ccccc1

>  <score_type>  (53) 
oracle

>  <origin>  (53) 
autodockgpu

>  <m_score__min__energy>  (53) 
-5.6699999999999999

>  <m_primary>  (53) 
energy

>  <meeko>  (53) 
{"free_energy": -5.25, "intermolecular_energy": -7.64, "internal_energy": -1.05, "cluster_size": 7, "cluster_id": 2, "rank_in_cluster": 6}

>  <energy>  (53) 
-5.4

>  <cluster_rmsd>  (53) 
1.41

>  <rmsd>  (53) 
272.36

>  <cluster>  (53) 
1

$$$$
NYPVCQFMQXTFET-PENACOTONA-N
     RDKit          3D

 36 37  0  0  0  0  0  0  0  0999 V2000
  142.0740   76.1630  222.0180 H   0  0  0  0  0  0  0  0  0  0  0  0
  141.0930   75.9270  222.0890 O   0  0  0  0  0  0  0  0  0  0  0  0
  140.5610   74.7320  221.6020 C   0  0  0  0  0  0  0  0  0  0  0  0
  140.7769   74.4404  220.5636 H   0  0  0  0  0  0  0  0  0  0  0  0
  139.8190   73.9500  222.3310 N   0  0  0  0  0  0  0  0  0  0  0  0
  139.5800   72.5360  222.0570 C   0  0  0  0  0  0  0  0  0  0  0  0
  138.5819   72.2580  222.4263 H   0  0  0  0  0  0  0  0  0  0  0  0
  139.6398   72.3655  220.9720 H   0  0  0  0  0  0  0  0  0  0  0  0
  140.6360   71.6760  222.7570 C   0  0  0  0  0  0  0  0  0  0  0  0
  140.6435   70.6781  222.2943 H   0  0  0  0  0  0  0  0  0  0  0  0
  141.6085   72.1774  222.6439 H   0  0  0  0  0  0  0  0  0  0  0  0
  140.3620   71.5250  224.2330 C   0  0  0  0  0  0  0  0  0  0  0  0
  140.6845   72.3412  224.8962 H   0  0  0  0  0  0  0  0  0  0  0  0
  139.7510   70.4640  224.8010 C   0  0  0  0  0  0  0  0  0  0  0  0
  138.6170   69.7960  224.1060 C   0  0  0  0  0  0  0  0  0  0  0  0
  137.2940   70.2540  224.2670 C   0  0  0  0  0  0  0  0  0  0  0  0
  137.0894   71.1108  224.9259 H   0  0  0  0  0  0  0  0  0  0  0  0
  136.2400   69.6280  223.5960 C   0  0  0  0  0  0  0  0  0  0  0  0
  135.2103   69.9902  223.7319 H   0  0  0  0  0  0  0  0  0  0  0  0
  136.4920   68.5430  222.7530 C   0  0  0  0  0  0  0  0  0  0  0  0
  135.6609   68.0495  222.2280 H   0  0  0  0  0  0  0  0  0  0  0  0
  137.8000   68.0850  222.5770 C   0  0  0  0  0  0  0  0  0  0  0  0
  137.9978   67.2321  221.9111 H   0  0  0  0  0  0  0  0  0  0  0  0
  138.8580   68.7080  223.2450 C   0  0  0  0  0  0  0  0  0  0  0  0
  139.8861   68.3459  223.0971 H   0  0  0  0  0  0  0  0  0  0  0  0
  140.1840   69.9230  226.1110 C   0  0  0  0  0  0  0  0  0  0  0  0
  140.2090   68.5380  226.3430 C   0  0  0  0  0  0  0  0  0  0  0  0
  139.8829   67.8439  225.5544 H   0  0  0  0  0  0  0  0  0  0  0  0
  140.6470   68.0390  227.5730 C   0  0  0  0  0  0  0  0  0  0  0  0
  140.6551   66.9540  227.7540 H   0  0  0  0  0  0  0  0  0  0  0  0
  141.0750   68.9170  228.5740 C   0  0  0  0  0  0  0  0  0  0  0  0
  141.4115   68.5231  229.5444 H   0  0  0  0  0  0  0  0  0  0  0  0
  141.0750   70.2950  228.3410 C   0  0  0  0  0  0  0  0  0  0  0  0
  141.4190   70.9849  229.1257 H   0  0  0  0  0  0  0  0  0  0  0  0
  140.6380   70.7980  227.1110 C   0  0  0  0  0  0  0  0  0  0  0  0
  140.6501   71.8824  226.9266 H   0  0  0  0  0  0  0  0  0  0  0  0
  1  2  1  0
  2  3  1  0
  3  4  1  0
  3  5  2  0
  5  6  1  0
  6  7  1  0
  6  8  1  0
  6  9  1  0
  9 10  1  0
  9 11  1  0
  9 12  1  0
 12 13  1  0
 12 14  2  3
 14 15  1  0
 15 16  2  0
 16 17  1  0
 16 18  1  0
 18 19  1  0
 18 20  2  0
 20 21  1  0
 20 22  1  0
 22 23  1  0
 22 24  2  0
 24 25  1  0
 14 26  1  0
 26 27  2  0
 27 28  1  0
 27 29  1  0
 29 30  1  0
 29 31  2  0
 31 32  1  0
 31 33  1  0
 33 34  1  0
 33 35  2  0
 35 36  1  0
 24 15  1  0
 35 26  1  0
M  END
>  <UniqueID>  (54) 
39

>  <SMILES>  (54) 
O/C=N\CCC=C(c1ccccc1)c1ccccc1

>  <Energy>  (54) 
43.205056875375035

>  <Genealogy>  (54) 
OC=NCCC=C(c1ccccc1)c1ccccc1 (tautomer)
O/C=N\CCC=C(c1ccccc1)c1ccccc1 (cis-trans isomerization)
O/C=N\CCC=C(c1ccccc1)c1ccccc1 (3D coordinates assigned)
O/C=N\CCC=C(c1ccccc1)c1ccccc1 (optimized conformer: 43.205056875375035 kcal/mol)

>  <smiles>  (54) 
O=CNCCC=C(c1ccccc1)c1ccccc1

>  <score_type>  (54) 
oracle

>  <origin>  (54) 
autodockgpu

>  <m_score__min__energy>  (54) 
-5.6699999999999999

>  <m_primary>  (54) 
energy

>  <meeko>  (54) 
{"free_energy": -5.67, "intermolecular_energy": -8.05, "internal_energy": -0.93, "cluster_size": 13, "cluster_id": 1, "rank_in_cluster": 1}

>  <energy>  (54) 
-5.43

>  <cluster_rmsd>  (54) 
0.0

>  <rmsd>  (54) 
272.92

>  <cluster>  (54) 
2

$$$$
NYPVCQFMQXTFET-PENACOTONA-N
     RDKit          3D

 36 37  0  0  0  0  0  0  0  0999 V2000
  141.9010   76.1930  222.1040 H   0  0  0  0  0  0  0  0  0  0  0  0
  141.4470   75.3110  221.9010 O   0  0  0  0  0  0  0  0  0  0  0  0
  140.0630   75.1370  221.9560 C   0  0  0  0  0  0  0  0  0  0  0  0
  139.4120   75.9719  221.6574 H   0  0  0  0  0  0  0  0  0  0  0  0
  139.5150   74.0250  222.3470 N   0  0  0  0  0  0  0  0  0  0  0  0
  139.5660   72.7660  221.6080 C   0  0  0  0  0  0  0  0  0  0  0  0
  138.5688   72.3016  221.6116 H   0  0  0  0  0  0  0  0  0  0  0  0
  139.8814   72.9687  220.5739 H   0  0  0  0  0  0  0  0  0  0  0  0
  140.5710   71.8120  222.2600 C   0  0  0  0  0  0  0  0  0  0  0  0
  140.4231   70.8041  221.8450 H   0  0  0  0  0  0  0  0  0  0  0  0
  141.5820   72.1890  222.0460 H   0  0  0  0  0  0  0  0  0  0  0  0
  140.4080   71.7490  223.7590 C   0  0  0  0  0  0  0  0  0  0  0  0
  140.8206   72.5789  224.3515 H   0  0  0  0  0  0  0  0  0  0  0  0
  139.7930   70.7490  224.4270 C   0  0  0  0  0  0  0  0  0  0  0  0
  140.2500   70.3730  225.7920 C   0  0  0  0  0  0  0  0  0  0  0  0
  140.6220   71.3560  226.7310 C   0  0  0  0  0  0  0  0  0  0  0  0
  140.5878   72.4193  226.4513 H   0  0  0  0  0  0  0  0  0  0  0  0
  141.0340   70.9890  228.0150 C   0  0  0  0  0  0  0  0  0  0  0  0
  141.3259   71.7632  228.7398 H   0  0  0  0  0  0  0  0  0  0  0  0
  141.0760   69.6420  228.3800 C   0  0  0  0  0  0  0  0  0  0  0  0
  141.4043   69.3554  229.3900 H   0  0  0  0  0  0  0  0  0  0  0  0
  140.7010   68.6590  227.4620 C   0  0  0  0  0  0  0  0  0  0  0  0
  140.7316   67.5982  227.7513 H   0  0  0  0  0  0  0  0  0  0  0  0
  140.2870   69.0190  226.1770 C   0  0  0  0  0  0  0  0  0  0  0  0
  139.9879   68.2393  225.4611 H   0  0  0  0  0  0  0  0  0  0  0  0
  138.6510   70.0070  223.8410 C   0  0  0  0  0  0  0  0  0  0  0  0
  138.8700   68.8950  223.0110 C   0  0  0  0  0  0  0  0  0  0  0  0
  139.8972   68.5822  222.7721 H   0  0  0  0  0  0  0  0  0  0  0  0
  137.7850   68.1850  222.4880 C   0  0  0  0  0  0  0  0  0  0  0  0
  137.9603   67.3208  221.8304 H   0  0  0  0  0  0  0  0  0  0  0  0
  136.4780   68.5710  222.7990 C   0  0  0  0  0  0  0  0  0  0  0  0
  135.6257   68.0160  222.3800 H   0  0  0  0  0  0  0  0  0  0  0  0
  136.2550   69.6630  223.6430 C   0  0  0  0  0  0  0  0  0  0  0  0
  135.2266   69.9624  223.8936 H   0  0  0  0  0  0  0  0  0  0  0  0
  137.3370   70.3750  224.1690 C   0  0  0  0  0  0  0  0  0  0  0  0
  137.1579   71.2264  224.8421 H   0  0  0  0  0  0  0  0  0  0  0  0
  1  2  1  0
  2  3  1  0
  3  4  1  0
  3  5  2  0
  5  6  1  0
  6  7  1  0
  6  8  1  0
  6  9  1  0
  9 10  1  0
  9 11  1  0
  9 12  1  0
 12 13  1  0
 12 14  2  3
 14 15  1  0
 15 16  2  0
 16 17  1  0
 16 18  1  0
 18 19  1  0
 18 20  2  0
 20 21  1  0
 20 22  1  0
 22 23  1  0
 22 24  2  0
 24 25  1  0
 14 26  1  0
 26 27  2  0
 27 28  1  0
 27 29  1  0
 29 30  1  0
 29 31  2  0
 31 32  1  0
 31 33  1  0
 33 34  1  0
 33 35  2  0
 35 36  1  0
 24 15  1  0
 35 26  1  0
M  END
>  <UniqueID>  (55) 
39

>  <SMILES>  (55) 
O/C=N\CCC=C(c1ccccc1)c1ccccc1

>  <Energy>  (55) 
43.205056875375035

>  <Genealogy>  (55) 
OC=NCCC=C(c1ccccc1)c1ccccc1 (tautomer)
O/C=N\CCC=C(c1ccccc1)c1ccccc1 (cis-trans isomerization)
O/C=N\CCC=C(c1ccccc1)c1ccccc1 (3D coordinates assigned)
O/C=N\CCC=C(c1ccccc1)c1ccccc1 (optimized conformer: 43.205056875375035 kcal/mol)

>  <smiles>  (55) 
O=CNCCC=C(c1ccccc1)c1ccccc1

>  <score_type>  (55) 
oracle

>  <origin>  (55) 
autodockgpu

>  <m_score__min__energy>  (55) 
-5.6699999999999999

>  <m_primary>  (55) 
energy

>  <meeko>  (55) 
{"free_energy": -5.5, "intermolecular_energy": -7.88, "internal_energy": -0.98, "cluster_size": 13, "cluster_id": 1, "rank_in_cluster": 10}

>  <energy>  (55) 
-5.36

>  <cluster_rmsd>  (55) 
0.69

>  <rmsd>  (55) 
272.8

>  <cluster>  (55) 
2

$$$$
NYPVCQFMQXTFET-PENACOTONA-N
     RDKit          3D

 36 37  0  0  0  0  0  0  0  0999 V2000
  142.0360   76.1660  222.0130 H   0  0  0  0  0  0  0  0  0  0  0  0
  141.0710   75.9270  222.1980 O   0  0  0  0  0  0  0  0  0  0  0  0
  140.4310   74.8350  221.6070 C   0  0  0  0  0  0  0  0  0  0  0  0
  140.3407   74.8037  220.5112 H   0  0  0  0  0  0  0  0  0  0  0  0
  139.9380   73.8540  222.3040 N   0  0  0  0  0  0  0  0  0  0  0  0
  139.8900   72.4620  221.8650 C   0  0  0  0  0  0  0  0  0  0  0  0
  138.8460   72.1155  221.8694 H   0  0  0  0  0  0  0  0  0  0  0  0
  140.3049   72.3917  220.8487 H   0  0  0  0  0  0  0  0  0  0  0  0
  140.7190   71.5820  222.8050 C   0  0  0  0  0  0  0  0  0  0  0  0
  140.7644   70.5644  222.3896 H   0  0  0  0  0  0  0  0  0  0  0  0
  141.7221   72.0260  222.8865 H   0  0  0  0  0  0  0  0  0  0  0  0
  140.1270   71.5150  224.1930 C   0  0  0  0  0  0  0  0  0  0  0  0
  140.1303   72.4367  224.7934 H   0  0  0  0  0  0  0  0  0  0  0  0
  139.5940   70.4070  224.7510 C   0  0  0  0  0  0  0  0  0  0  0  0
  138.4890   69.6850  224.0650 C   0  0  0  0  0  0  0  0  0  0  0  0
  137.1400   69.9940  224.3360 C   0  0  0  0  0  0  0  0  0  0  0  0
  136.8951   70.7717  225.0744 H   0  0  0  0  0  0  0  0  0  0  0  0
  136.1120   69.3180  223.6720 C   0  0  0  0  0  0  0  0  0  0  0  0
  135.0625   69.5633  223.8921 H   0  0  0  0  0  0  0  0  0  0  0  0
  136.4140   68.3320  222.7300 C   0  0  0  0  0  0  0  0  0  0  0  0
  135.6031   67.7994  222.2115 H   0  0  0  0  0  0  0  0  0  0  0  0
  137.7450   68.0230  222.4470 C   0  0  0  0  0  0  0  0  0  0  0  0
  137.9820   67.2478  221.7034 H   0  0  0  0  0  0  0  0  0  0  0  0
  138.7780   68.6960  223.1060 C   0  0  0  0  0  0  0  0  0  0  0  0
  139.8248   68.4508  222.8733 H   0  0  0  0  0  0  0  0  0  0  0  0
  140.0860   69.8710  226.0420 C   0  0  0  0  0  0  0  0  0  0  0  0
  140.1840   68.4850  226.2520 C   0  0  0  0  0  0  0  0  0  0  0  0
  139.8719   67.7870  225.4612 H   0  0  0  0  0  0  0  0  0  0  0  0
  140.6770   67.9910  227.4630 C   0  0  0  0  0  0  0  0  0  0  0  0
  140.7426   66.9053  227.6273 H   0  0  0  0  0  0  0  0  0  0  0  0
  141.0870   68.8750  228.4660 C   0  0  0  0  0  0  0  0  0  0  0  0
  141.4676   68.4848  229.4214 H   0  0  0  0  0  0  0  0  0  0  0  0
  141.0130   70.2550  228.2540 C   0  0  0  0  0  0  0  0  0  0  0  0
  141.3418   70.9499  229.0408 H   0  0  0  0  0  0  0  0  0  0  0  0
  140.5220   70.7530  227.0440 C   0  0  0  0  0  0  0  0  0  0  0  0
  140.4769   71.8392  226.8760 H   0  0  0  0  0  0  0  0  0  0  0  0
  1  2  1  0
  2  3  1  0
  3  4  1  0
  3  5  2  0
  5  6  1  0
  6  7  1  0
  6  8  1  0
  6  9  1  0
  9 10  1  0
  9 11  1  0
  9 12  1  0
 12 13  1  0
 12 14  2  3
 14 15  1  0
 15 16  2  0
 16 17  1  0
 16 18  1  0
 18 19  1  0
 18 20  2  0
 20 21  1  0
 20 22  1  0
 22 23  1  0
 22 24  2  0
 24 25  1  0
 14 26  1  0
 26 27  2  0
 27 28  1  0
 27 29  1  0
 29 30  1  0
 29 31  2  0
 31 32  1  0
 31 33  1  0
 33 34  1  0
 33 35  2  0
 35 36  1  0
 24 15  1  0
 35 26  1  0
M  END
>  <UniqueID>  (56) 
39

>  <SMILES>  (56) 
O/C=N\CCC=C(c1ccccc1)c1ccccc1

>  <Energy>  (56) 
43.205056875375035

>  <Genealogy>  (56) 
OC=NCCC=C(c1ccccc1)c1ccccc1 (tautomer)
O/C=N\CCC=C(c1ccccc1)c1ccccc1 (cis-trans isomerization)
O/C=N\CCC=C(c1ccccc1)c1ccccc1 (3D coordinates assigned)
O/C=N\CCC=C(c1ccccc1)c1ccccc1 (optimized conformer: 43.205056875375035 kcal/mol)

>  <smiles>  (56) 
O=CNCCC=C(c1ccccc1)c1ccccc1

>  <score_type>  (56) 
oracle

>  <origin>  (56) 
autodockgpu

>  <m_score__min__energy>  (56) 
-5.6699999999999999

>  <m_primary>  (56) 
energy

>  <meeko>  (56) 
{"free_energy": -5.63, "intermolecular_energy": -8.01, "internal_energy": -0.91, "cluster_size": 13, "cluster_id": 1, "rank_in_cluster": 5}

>  <energy>  (56) 
-5.34

>  <cluster_rmsd>  (56) 
0.41

>  <rmsd>  (56) 
272.86

>  <cluster>  (56) 
2

$$$$
NYPVCQFMQXTFET-PENACOTONA-N
     RDKit          3D

 36 37  0  0  0  0  0  0  0  0999 V2000
  139.1150   73.7680  223.0240 H   0  0  0  0  0  0  0  0  0  0  0  0
  139.8960   73.7770  222.3810 O   0  0  0  0  0  0  0  0  0  0  0  0
  139.7620   74.0790  221.0240 C   0  0  0  0  0  0  0  0  0  0  0  0
  139.8088   73.2594  220.2919 H   0  0  0  0  0  0  0  0  0  0  0  0
  139.5840   75.2930  220.5940 N   0  0  0  0  0  0  0  0  0  0  0  0
  138.5550   76.2070  221.0820 C   0  0  0  0  0  0  0  0  0  0  0  0
  138.3047   76.9288  220.2906 H   0  0  0  0  0  0  0  0  0  0  0  0
  137.6611   75.6282  221.3575 H   0  0  0  0  0  0  0  0  0  0  0  0
  139.0620   76.9620  222.3140 C   0  0  0  0  0  0  0  0  0  0  0  0
  138.6724   77.9903  222.2843 H   0  0  0  0  0  0  0  0  0  0  0  0
  138.7093   76.4255  223.2072 H   0  0  0  0  0  0  0  0  0  0  0  0
  140.5700   77.0150  222.3710 C   0  0  0  0  0  0  0  0  0  0  0  0
  141.0893   76.1933  222.8858 H   0  0  0  0  0  0  0  0  0  0  0  0
  141.3280   77.9960  221.8370 C   0  0  0  0  0  0  0  0  0  0  0  0
  141.6250   79.2220  222.6260 C   0  0  0  0  0  0  0  0  0  0  0  0
  140.5940   80.0920  223.0350 C   0  0  0  0  0  0  0  0  0  0  0  0
  139.5523   79.8727  222.7579 H   0  0  0  0  0  0  0  0  0  0  0  0
  140.8860   81.2310  223.7900 C   0  0  0  0  0  0  0  0  0  0  0  0
  140.0748   81.9058  224.1009 H   0  0  0  0  0  0  0  0  0  0  0  0
  142.2050   81.5150  224.1510 C   0  0  0  0  0  0  0  0  0  0  0  0
  142.4323   82.4139  224.7429 H   0  0  0  0  0  0  0  0  0  0  0  0
  143.2350   80.6570  223.7600 C   0  0  0  0  0  0  0  0  0  0  0  0
  144.2733   80.8800  224.0466 H   0  0  0  0  0  0  0  0  0  0  0  0
  142.9500   79.5150  223.0050 C   0  0  0  0  0  0  0  0  0  0  0  0
  143.7658   78.8409  222.7050 H   0  0  0  0  0  0  0  0  0  0  0  0
  141.8930   77.8890  220.4710 C   0  0  0  0  0  0  0  0  0  0  0  0
  142.4770   76.6910  220.0280 C   0  0  0  0  0  0  0  0  0  0  0  0
  142.5380   75.8271  220.7062 H   0  0  0  0  0  0  0  0  0  0  0  0
  142.9810   76.5930  218.7280 C   0  0  0  0  0  0  0  0  0  0  0  0
  143.4468   75.6560  218.3888 H   0  0  0  0  0  0  0  0  0  0  0  0
  142.8940   77.6840  217.8580 C   0  0  0  0  0  0  0  0  0  0  0  0
  143.2973   77.6077  216.8375 H   0  0  0  0  0  0  0  0  0  0  0  0
  142.2940   78.8720  218.2860 C   0  0  0  0  0  0  0  0  0  0  0  0
  142.2200   79.7281  217.5992 H   0  0  0  0  0  0  0  0  0  0  0  0
  141.7880   78.9740  219.5850 C   0  0  0  0  0  0  0  0  0  0  0  0
  141.3062   79.9064  219.9144 H   0  0  0  0  0  0  0  0  0  0  0  0
  1  2  1  0
  2  3  1  0
  3  4  1  0
  3  5  2  0
  5  6  1  0
  6  7  1  0
  6  8  1  0
  6  9  1  0
  9 10  1  0
  9 11  1  0
  9 12  1  0
 12 13  1  0
 12 14  2  3
 14 15  1  0
 15 16  2  0
 16 17  1  0
 16 18  1  0
 18 19  1  0
 18 20  2  0
 20 21  1  0
 20 22  1  0
 22 23  1  0
 22 24  2  0
 24 25  1  0
 14 26  1  0
 26 27  2  0
 27 28  1  0
 27 29  1  0
 29 30  1  0
 29 31  2  0
 31 32  1  0
 31 33  1  0
 33 34  1  0
 33 35  2  0
 35 36  1  0
 24 15  1  0
 35 26  1  0
M  END
>  <UniqueID>  (57) 
39

>  <SMILES>  (57) 
O/C=N\CCC=C(c1ccccc1)c1ccccc1

>  <Energy>  (57) 
43.205056875375035

>  <Genealogy>  (57) 
OC=NCCC=C(c1ccccc1)c1ccccc1 (tautomer)
O/C=N\CCC=C(c1ccccc1)c1ccccc1 (cis-trans isomerization)
O/C=N\CCC=C(c1ccccc1)c1ccccc1 (3D coordinates assigned)
O/C=N\CCC=C(c1ccccc1)c1ccccc1 (optimized conformer: 43.205056875375035 kcal/mol)

>  <smiles>  (57) 
O=CNCCC=C(c1ccccc1)c1ccccc1

>  <score_type>  (57) 
oracle

>  <origin>  (57) 
autodockgpu

>  <m_score__min__energy>  (57) 
-5.6699999999999999

>  <m_primary>  (57) 
energy

>  <meeko>  (57) 
{"free_energy": -5.3, "intermolecular_energy": -7.69, "internal_energy": -1.09, "cluster_size": 7, "cluster_id": 2, "rank_in_cluster": 4}

>  <energy>  (57) 
-5.3

>  <cluster_rmsd>  (57) 
0.64

>  <rmsd>  (57) 
272.81

>  <cluster>  (57) 
2

$$$$
NYPVCQFMQXTFET-PENACOTONA-N
     RDKit          3D

 36 37  0  0  0  0  0  0  0  0999 V2000
  142.0800   76.2650  222.0190 H   0  0  0  0  0  0  0  0  0  0  0  0
  141.1110   75.9990  222.1330 O   0  0  0  0  0  0  0  0  0  0  0  0
  140.5760   74.8250  221.5970 C   0  0  0  0  0  0  0  0  0  0  0  0
  140.6611   74.6502  220.5143 H   0  0  0  0  0  0  0  0  0  0  0  0
  139.9810   73.9310  222.3310 N   0  0  0  0  0  0  0  0  0  0  0  0
  139.7910   72.5340  221.9500 C   0  0  0  0  0  0  0  0  0  0  0  0
  138.7414   72.2510  222.1179 H   0  0  0  0  0  0  0  0  0  0  0  0
  140.0466   72.4136  220.8869 H   0  0  0  0  0  0  0  0  0  0  0  0
  140.6990   71.6300  222.7880 C   0  0  0  0  0  0  0  0  0  0  0  0
  140.7189   70.6287  222.3331 H   0  0  0  0  0  0  0  0  0  0  0  0
  141.7016   72.0823  222.8057 H   0  0  0  0  0  0  0  0  0  0  0  0
  140.2220   71.5060  224.2150 C   0  0  0  0  0  0  0  0  0  0  0  0
  140.3394   72.3826  224.8691 H   0  0  0  0  0  0  0  0  0  0  0  0
  139.6620   70.3990  224.7480 C   0  0  0  0  0  0  0  0  0  0  0  0
  140.1470   69.8730  226.0530 C   0  0  0  0  0  0  0  0  0  0  0  0
  140.2160   68.4870  226.2980 C   0  0  0  0  0  0  0  0  0  0  0  0
  139.8955   67.7784  225.5201 H   0  0  0  0  0  0  0  0  0  0  0  0
  140.6890   68.0060  227.5230 C   0  0  0  0  0  0  0  0  0  0  0  0
  140.7358   66.9224  227.7062 H   0  0  0  0  0  0  0  0  0  0  0  0
  141.1020   68.8990  228.5140 C   0  0  0  0  0  0  0  0  0  0  0  0
  141.4697   68.5189  229.4785 H   0  0  0  0  0  0  0  0  0  0  0  0
  141.0480   70.2750  228.2800 C   0  0  0  0  0  0  0  0  0  0  0  0
  141.3772   70.9773  229.0600 H   0  0  0  0  0  0  0  0  0  0  0  0
  140.5770   70.7620  227.0580 C   0  0  0  0  0  0  0  0  0  0  0  0
  140.5416   71.8468  226.8794 H   0  0  0  0  0  0  0  0  0  0  0  0
  138.5550   69.6820  224.0720 C   0  0  0  0  0  0  0  0  0  0  0  0
  137.2170   70.0260  224.3260 C   0  0  0  0  0  0  0  0  0  0  0  0
  136.9827   70.8201  225.0502 H   0  0  0  0  0  0  0  0  0  0  0  0
  136.1830   69.3620  223.6610 C   0  0  0  0  0  0  0  0  0  0  0  0
  135.1362   69.6270  223.8708 H   0  0  0  0  0  0  0  0  0  0  0  0
  136.4760   68.3620  222.7300 C   0  0  0  0  0  0  0  0  0  0  0  0
  135.6601   67.8360  222.2127 H   0  0  0  0  0  0  0  0  0  0  0  0
  137.8060   68.0300  222.4560 C   0  0  0  0  0  0  0  0  0  0  0  0
  138.0364   67.2469  221.7186 H   0  0  0  0  0  0  0  0  0  0  0  0
  138.8440   68.6930  223.1190 C   0  0  0  0  0  0  0  0  0  0  0  0
  139.8900   68.4385  222.8928 H   0  0  0  0  0  0  0  0  0  0  0  0
  1  2  1  0
  2  3  1  0
  3  4  1  0
  3  5  2  0
  5  6  1  0
  6  7  1  0
  6  8  1  0
  6  9  1  0
  9 10  1  0
  9 11  1  0
  9 12  1  0
 12 13  1  0
 12 14  2  3
 14 15  1  0
 15 16  2  0
 16 17  1  0
 16 18  1  0
 18 19  1  0
 18 20  2  0
 20 21  1  0
 20 22  1  0
 22 23  1  0
 22 24  2  0
 24 25  1  0
 14 26  1  0
 26 27  2  0
 27 28  1  0
 27 29  1  0
 29 30  1  0
 29 31  2  0
 31 32  1  0
 31 33  1  0
 33 34  1  0
 33 35  2  0
 35 36  1  0
 24 15  1  0
 35 26  1  0
M  END
>  <UniqueID>  (58) 
39

>  <SMILES>  (58) 
O/C=N\CCC=C(c1ccccc1)c1ccccc1

>  <Energy>  (58) 
43.205056875375035

>  <Genealogy>  (58) 
OC=NCCC=C(c1ccccc1)c1ccccc1 (tautomer)
O/C=N\CCC=C(c1ccccc1)c1ccccc1 (cis-trans isomerization)
O/C=N\CCC=C(c1ccccc1)c1ccccc1 (3D coordinates assigned)
O/C=N\CCC=C(c1ccccc1)c1ccccc1 (optimized conformer: 43.205056875375035 kcal/mol)

>  <smiles>  (58) 
O=CNCCC=C(c1ccccc1)c1ccccc1

>  <score_type>  (58) 
oracle

>  <origin>  (58) 
autodockgpu

>  <m_score__min__energy>  (58) 
-5.6699999999999999

>  <m_primary>  (58) 
energy

>  <meeko>  (58) 
{"free_energy": -5.65, "intermolecular_energy": -8.03, "internal_energy": -0.91, "cluster_size": 13, "cluster_id": 1, "rank_in_cluster": 4}

>  <energy>  (58) 
-5.29

>  <cluster_rmsd>  (58) 
0.63

>  <rmsd>  (58) 
272.8

>  <cluster>  (58) 
2

$$$$
NYPVCQFMQXTFET-PENACOTONA-N
     RDKit          3D

 36 37  0  0  0  0  0  0  0  0999 V2000
  139.1970   73.4450  223.1750 H   0  0  0  0  0  0  0  0  0  0  0  0
  139.9540   73.5860  222.5190 O   0  0  0  0  0  0  0  0  0  0  0  0
  139.7640   74.1040  221.2360 C   0  0  0  0  0  0  0  0  0  0  0  0
  140.3704   73.7061  220.4090 H   0  0  0  0  0  0  0  0  0  0  0  0
  138.8970   75.0390  220.9830 N   0  0  0  0  0  0  0  0  0  0  0  0
  138.1560   75.7860  221.9970 C   0  0  0  0  0  0  0  0  0  0  0  0
  137.1149   75.9140  221.6657 H   0  0  0  0  0  0  0  0  0  0  0  0
  138.1824   75.2283  222.9447 H   0  0  0  0  0  0  0  0  0  0  0  0
  138.7920   77.1620  222.2090 C   0  0  0  0  0  0  0  0  0  0  0  0
  138.5447   77.8026  221.3496 H   0  0  0  0  0  0  0  0  0  0  0  0
  138.3931   77.5772  223.1463 H   0  0  0  0  0  0  0  0  0  0  0  0
  140.2940   77.0830  222.3400 C   0  0  0  0  0  0  0  0  0  0  0  0
  140.7114   76.2382  222.9076 H   0  0  0  0  0  0  0  0  0  0  0  0
  141.1630   77.9710  221.8130 C   0  0  0  0  0  0  0  0  0  0  0  0
  141.5600   79.1770  222.5890 C   0  0  0  0  0  0  0  0  0  0  0  0
  140.5900   80.0620  223.1030 C   0  0  0  0  0  0  0  0  0  0  0  0
  139.5226   79.8694  222.9200 H   0  0  0  0  0  0  0  0  0  0  0  0
  140.9770   81.1830  223.8440 C   0  0  0  0  0  0  0  0  0  0  0  0
  140.2140   81.8704  224.2380 H   0  0  0  0  0  0  0  0  0  0  0  0
  142.3300   81.4320  224.0850 C   0  0  0  0  0  0  0  0  0  0  0  0
  142.6319   82.3163  224.6654 H   0  0  0  0  0  0  0  0  0  0  0  0
  143.2990   80.5580  223.5890 C   0  0  0  0  0  0  0  0  0  0  0  0
  144.3642   80.7540  223.7813 H   0  0  0  0  0  0  0  0  0  0  0  0
  142.9200   79.4350  222.8490 C   0  0  0  0  0  0  0  0  0  0  0  0
  143.6891   78.7477  222.4668 H   0  0  0  0  0  0  0  0  0  0  0  0
  141.7540   77.7790  220.4670 C   0  0  0  0  0  0  0  0  0  0  0  0
  141.8220   78.8450  219.5550 C   0  0  0  0  0  0  0  0  0  0  0  0
  141.4136   79.8289  219.8292 H   0  0  0  0  0  0  0  0  0  0  0  0
  142.4080   78.6580  218.2990 C   0  0  0  0  0  0  0  0  0  0  0  0
  142.4494   79.4920  217.5829 H   0  0  0  0  0  0  0  0  0  0  0  0
  142.9410   77.4140  217.9520 C   0  0  0  0  0  0  0  0  0  0  0  0
  143.3950   77.2670  216.9609 H   0  0  0  0  0  0  0  0  0  0  0  0
  142.8970   76.3560  218.8650 C   0  0  0  0  0  0  0  0  0  0  0  0
  143.3229   75.3787  218.5939 H   0  0  0  0  0  0  0  0  0  0  0  0
  142.3130   76.5380  220.1210 C   0  0  0  0  0  0  0  0  0  0  0  0
  142.2910   75.7068  220.8411 H   0  0  0  0  0  0  0  0  0  0  0  0
  1  2  1  0
  2  3  1  0
  3  4  1  0
  3  5  2  0
  5  6  1  0
  6  7  1  0
  6  8  1  0
  6  9  1  0
  9 10  1  0
  9 11  1  0
  9 12  1  0
 12 13  1  0
 12 14  2  3
 14 15  1  0
 15 16  2  0
 16 17  1  0
 16 18  1  0
 18 19  1  0
 18 20  2  0
 20 21  1  0
 20 22  1  0
 22 23  1  0
 22 24  2  0
 24 25  1  0
 14 26  1  0
 26 27  2  0
 27 28  1  0
 27 29  1  0
 29 30  1  0
 29 31  2  0
 31 32  1  0
 31 33  1  0
 33 34  1  0
 33 35  2  0
 35 36  1  0
 24 15  1  0
 35 26  1  0
M  END
>  <UniqueID>  (59) 
39

>  <SMILES>  (59) 
O/C=N\CCC=C(c1ccccc1)c1ccccc1

>  <Energy>  (59) 
43.205056875375035

>  <Genealogy>  (59) 
OC=NCCC=C(c1ccccc1)c1ccccc1 (tautomer)
O/C=N\CCC=C(c1ccccc1)c1ccccc1 (cis-trans isomerization)
O/C=N\CCC=C(c1ccccc1)c1ccccc1 (3D coordinates assigned)
O/C=N\CCC=C(c1ccccc1)c1ccccc1 (optimized conformer: 43.205056875375035 kcal/mol)

>  <smiles>  (59) 
O=CNCCC=C(c1ccccc1)c1ccccc1

>  <score_type>  (59) 
oracle

>  <origin>  (59) 
autodockgpu

>  <m_score__min__energy>  (59) 
-5.6699999999999999

>  <m_primary>  (59) 
energy

>  <meeko>  (59) 
{"free_energy": -5.36, "intermolecular_energy": -7.75, "internal_energy": -0.99, "cluster_size": 7, "cluster_id": 2, "rank_in_cluster": 2}

>  <energy>  (59) 
-5.25

>  <cluster_rmsd>  (59) 
0.74

>  <rmsd>  (59) 
272.75

>  <cluster>  (59) 
2

$$$$
NYPVCQFMQXTFET-PENACOTONA-N
     RDKit          3D

 36 37  0  0  0  0  0  0  0  0999 V2000
  142.0720   76.3830  221.9940 H   0  0  0  0  0  0  0  0  0  0  0  0
  141.1030   76.0920  221.9980 O   0  0  0  0  0  0  0  0  0  0  0  0
  140.6870   74.8260  221.5830 C   0  0  0  0  0  0  0  0  0  0  0  0
  140.9947   74.4663  220.5900 H   0  0  0  0  0  0  0  0  0  0  0  0
  139.9490   74.0560  222.3270 N   0  0  0  0  0  0  0  0  0  0  0  0
  139.5290   72.7040  221.9670 C   0  0  0  0  0  0  0  0  0  0  0  0
  138.5201   72.5189  222.3644 H   0  0  0  0  0  0  0  0  0  0  0  0
  139.5238   72.6093  220.8711 H   0  0  0  0  0  0  0  0  0  0  0  0
  140.5000   71.6760  222.5530 C   0  0  0  0  0  0  0  0  0  0  0  0
  140.3078   70.6998  222.0839 H   0  0  0  0  0  0  0  0  0  0  0  0
  141.5234   72.0239  222.3491 H   0  0  0  0  0  0  0  0  0  0  0  0
  140.3480   71.5350  224.0490 C   0  0  0  0  0  0  0  0  0  0  0  0
  140.7714   72.3295  224.6810 H   0  0  0  0  0  0  0  0  0  0  0  0
  139.7310   70.5060  224.6680 C   0  0  0  0  0  0  0  0  0  0  0  0
  138.5870   69.8180  224.0110 C   0  0  0  0  0  0  0  0  0  0  0  0
  137.2610   70.2510  224.2200 C   0  0  0  0  0  0  0  0  0  0  0  0
  137.0629   71.1024  224.8877 H   0  0  0  0  0  0  0  0  0  0  0  0
  136.1970   69.6050  223.5840 C   0  0  0  0  0  0  0  0  0  0  0  0
  135.1659   69.9469  223.7568 H   0  0  0  0  0  0  0  0  0  0  0  0
  136.4390   68.5270  222.7300 C   0  0  0  0  0  0  0  0  0  0  0  0
  135.5993   68.0187  222.2335 H   0  0  0  0  0  0  0  0  0  0  0  0
  137.7480   68.0950  222.5070 C   0  0  0  0  0  0  0  0  0  0  0  0
  137.9383   67.2477  221.8319 H   0  0  0  0  0  0  0  0  0  0  0  0
  138.8170   68.7360  223.1390 C   0  0  0  0  0  0  0  0  0  0  0  0
  139.8457   68.3930  222.9541 H   0  0  0  0  0  0  0  0  0  0  0  0
  140.1680   70.0210  225.9990 C   0  0  0  0  0  0  0  0  0  0  0  0
  140.2070   68.6460  226.2840 C   0  0  0  0  0  0  0  0  0  0  0  0
  139.8890   67.9186  225.5226 H   0  0  0  0  0  0  0  0  0  0  0  0
  140.6490   68.2000  227.5330 C   0  0  0  0  0  0  0  0  0  0  0  0
  140.6681   67.1231  227.7564 H   0  0  0  0  0  0  0  0  0  0  0  0
  141.0670   69.1210  228.4990 C   0  0  0  0  0  0  0  0  0  0  0  0
  141.4074   68.7691  229.4840 H   0  0  0  0  0  0  0  0  0  0  0  0
  141.0520   70.4890  228.2120 C   0  0  0  0  0  0  0  0  0  0  0  0
  141.3871   71.2126  228.9697 H   0  0  0  0  0  0  0  0  0  0  0  0
  140.6120   70.9390  226.9640 C   0  0  0  0  0  0  0  0  0  0  0  0
  140.6136   72.0154  226.7373 H   0  0  0  0  0  0  0  0  0  0  0  0
  1  2  1  0
  2  3  1  0
  3  4  1  0
  3  5  2  0
  5  6  1  0
  6  7  1  0
  6  8  1  0
  6  9  1  0
  9 10  1  0
  9 11  1  0
  9 12  1  0
 12 13  1  0
 12 14  2  3
 14 15  1  0
 15 16  2  0
 16 17  1  0
 16 18  1  0
 18 19  1  0
 18 20  2  0
 20 21  1  0
 20 22  1  0
 22 23  1  0
 22 24  2  0
 24 25  1  0
 14 26  1  0
 26 27  2  0
 27 28  1  0
 27 29  1  0
 29 30  1  0
 29 31  2  0
 31 32  1  0
 31 33  1  0
 33 34  1  0
 33 35  2  0
 35 36  1  0
 24 15  1  0
 35 26  1  0
M  END
>  <UniqueID>  (60) 
39

>  <SMILES>  (60) 
O/C=N\CCC=C(c1ccccc1)c1ccccc1

>  <Energy>  (60) 
43.205056875375035

>  <Genealogy>  (60) 
OC=NCCC=C(c1ccccc1)c1ccccc1 (tautomer)
O/C=N\CCC=C(c1ccccc1)c1ccccc1 (cis-trans isomerization)
O/C=N\CCC=C(c1ccccc1)c1ccccc1 (3D coordinates assigned)
O/C=N\CCC=C(c1ccccc1)c1ccccc1 (optimized conformer: 43.205056875375035 kcal/mol)

>  <smiles>  (60) 
O=CNCCC=C(c1ccccc1)c1ccccc1

>  <score_type>  (60) 
oracle

>  <origin>  (60) 
autodockgpu

>  <m_score__min__energy>  (60) 
-5.6699999999999999

>  <m_primary>  (60) 
energy

>  <meeko>  (60) 
{"free_energy": -5.65, "intermolecular_energy": -8.04, "internal_energy": -0.92, "cluster_size": 13, "cluster_id": 1, "rank_in_cluster": 3}

>  <energy>  (60) 
-5.23

>  <cluster_rmsd>  (60) 
0.43

>  <rmsd>  (60) 
272.87

>  <cluster>  (60) 
2

$$$$
NYPVCQFMQXTFET-IVMHOSNPNA-N
     RDKit          3D

 36 37  0  0  0  0  0  0  0  0999 V2000
  139.0680   72.9300  223.4320 H   0  0  0  0  0  0  0  0  0  0  0  0
  139.9650   72.6390  223.0610 O   0  0  0  0  0  0  0  0  0  0  0  0
  140.5300   73.2850  221.9670 C   0  0  0  0  0  0  0  0  0  0  0  0
  140.9044   72.6966  221.1164 H   0  0  0  0  0  0  0  0  0  0  0  0
  140.6170   74.5780  221.9460 N   0  0  0  0  0  0  0  0  0  0  0  0
  139.5860   75.4170  221.3430 C   0  0  0  0  0  0  0  0  0  0  0  0
  139.9281   75.7593  220.3552 H   0  0  0  0  0  0  0  0  0  0  0  0
  138.6618   74.8297  221.2382 H   0  0  0  0  0  0  0  0  0  0  0  0
  139.3070   76.6310  222.2290 C   0  0  0  0  0  0  0  0  0  0  0  0
  138.2435   76.6329  222.5099 H   0  0  0  0  0  0  0  0  0  0  0  0
  139.9451   76.5631  223.1225 H   0  0  0  0  0  0  0  0  0  0  0  0
  139.6280   77.9180  221.5110 C   0  0  0  0  0  0  0  0  0  0  0  0
  138.7886   78.4815  221.0776 H   0  0  0  0  0  0  0  0  0  0  0  0
  140.8690   78.4310  221.3600 C   0  0  0  0  0  0  0  0  0  0  0  0
  141.7100   78.0200  220.2030 C   0  0  0  0  0  0  0  0  0  0  0  0
  142.3160   76.7480  220.1580 C   0  0  0  0  0  0  0  0  0  0  0  0
  142.1758   76.0467  220.9938 H   0  0  0  0  0  0  0  0  0  0  0  0
  143.0940   76.3710  219.0590 C   0  0  0  0  0  0  0  0  0  0  0  0
  143.5675   75.3784  219.0361 H   0  0  0  0  0  0  0  0  0  0  0  0
  143.2710   77.2530  217.9900 C   0  0  0  0  0  0  0  0  0  0  0  0
  143.8845   76.9550  217.1270 H   0  0  0  0  0  0  0  0  0  0  0  0
  142.6690   78.5130  218.0170 C   0  0  0  0  0  0  0  0  0  0  0  0
  142.8078   79.2064  217.1744 H   0  0  0  0  0  0  0  0  0  0  0  0
  141.8900   78.8940  219.1140 C   0  0  0  0  0  0  0  0  0  0  0  0
  141.4136   79.8854  219.1262 H   0  0  0  0  0  0  0  0  0  0  0  0
  141.4280   79.4130  222.3170 C   0  0  0  0  0  0  0  0  0  0  0  0
  142.8110   79.4770  222.5530 C   0  0  0  0  0  0  0  0  0  0  0  0
  143.4882   78.7794  222.0385 H   0  0  0  0  0  0  0  0  0  0  0  0
  143.3290   80.4250  223.4400 C   0  0  0  0  0  0  0  0  0  0  0  0
  144.4119   80.4658  223.6291 H   0  0  0  0  0  0  0  0  0  0  0  0
  142.4740   81.3210  224.0870 C   0  0  0  0  0  0  0  0  0  0  0  0
  142.8833   82.0632  224.7882 H   0  0  0  0  0  0  0  0  0  0  0  0
  141.0980   81.2740  223.8430 C   0  0  0  0  0  0  0  0  0  0  0  0
  140.4260   81.9830  224.3487 H   0  0  0  0  0  0  0  0  0  0  0  0
  140.5750   80.3270  222.9570 C   0  0  0  0  0  0  0  0  0  0  0  0
  139.4930   80.2978  222.7608 H   0  0  0  0  0  0  0  0  0  0  0  0
  1  2  1  0
  2  3  1  0
  3  4  1  0
  3  5  2  0
  5  6  1  0
  6  7  1  0
  6  8  1  0
  6  9  1  0
  9 10  1  0
  9 11  1  0
  9 12  1  0
 12 13  1  0
 12 14  2  3
 14 15  1  0
 15 16  2  0
 16 17  1  0
 16 18  1  0
 18 19  1  0
 18 20  2  0
 20 21  1  0
 20 22  1  0
 22 23  1  0
 22 24  2  0
 24 25  1  0
 14 26  1  0
 26 27  2  0
 27 28  1  0
 27 29  1  0
 29 30  1  0
 29 31  2  0
 31 32  1  0
 31 33  1  0
 33 34  1  0
 33 35  2  0
 35 36  1  0
 24 15  1  0
 35 26  1  0
M  END
>  <UniqueID>  (61) 
40

>  <SMILES>  (61) 
O/C=N/CCC=C(c1ccccc1)c1ccccc1

>  <Energy>  (61) 
42.60420194488245

>  <Genealogy>  (61) 
OC=NCCC=C(c1ccccc1)c1ccccc1 (tautomer)
O/C=N/CCC=C(c1ccccc1)c1ccccc1 (cis-trans isomerization)
O/C=N/CCC=C(c1ccccc1)c1ccccc1 (3D coordinates assigned)
O/C=N/CCC=C(c1ccccc1)c1ccccc1 (optimized conformer: 42.60420194488245 kcal/mol)

>  <smiles>  (61) 
O=CNCCC=C(c1ccccc1)c1ccccc1

>  <score_type>  (61) 
oracle

>  <origin>  (61) 
autodockgpu

>  <m_score__min__energy>  (61) 
-5.6299999999999999

>  <m_primary>  (61) 
energy

>  <meeko>  (61) 
{"free_energy": -5.25, "intermolecular_energy": -7.64, "internal_energy": -0.98, "cluster_size": 8, "cluster_id": 2, "rank_in_cluster": 6}

>  <energy>  (61) 
-5.63

>  <cluster_rmsd>  (61) 
0.0

>  <rmsd>  (61) 
271.75

>  <cluster>  (61) 
1

$$$$
NYPVCQFMQXTFET-IVMHOSNPNA-N
     RDKit          3D

 36 37  0  0  0  0  0  0  0  0999 V2000
  142.0140   76.4910  222.1320 H   0  0  0  0  0  0  0  0  0  0  0  0
  141.0210   76.6500  222.2490 O   0  0  0  0  0  0  0  0  0  0  0  0
  140.0960   75.6570  221.9440 C   0  0  0  0  0  0  0  0  0  0  0  0
  139.0731   75.9325  221.6477 H   0  0  0  0  0  0  0  0  0  0  0  0
  140.4360   74.4080  222.0080 N   0  0  0  0  0  0  0  0  0  0  0  0
  139.4490   73.3390  222.1230 C   0  0  0  0  0  0  0  0  0  0  0  0
  138.9777   73.3851  223.1159 H   0  0  0  0  0  0  0  0  0  0  0  0
  138.6881   73.4678  221.3392 H   0  0  0  0  0  0  0  0  0  0  0  0
  140.1210   71.9770  221.9460 C   0  0  0  0  0  0  0  0  0  0  0  0
  139.3842   71.2625  221.5503 H   0  0  0  0  0  0  0  0  0  0  0  0
  140.9635   72.0934  221.2484 H   0  0  0  0  0  0  0  0  0  0  0  0
  140.6560   71.4560  223.2560 C   0  0  0  0  0  0  0  0  0  0  0  0
  141.7233   71.6158  223.4687 H   0  0  0  0  0  0  0  0  0  0  0  0
  139.9240   70.8080  224.1880 C   0  0  0  0  0  0  0  0  0  0  0  0
  140.3240   70.8610  225.6210 C   0  0  0  0  0  0  0  0  0  0  0  0
  141.0760   71.9400  226.1280 C   0  0  0  0  0  0  0  0  0  0  0  0
  141.3841   72.7546  225.4560 H   0  0  0  0  0  0  0  0  0  0  0  0
  141.4330   71.9820  227.4790 C   0  0  0  0  0  0  0  0  0  0  0  0
  142.0247   72.8255  227.8643 H   0  0  0  0  0  0  0  0  0  0  0  0
  141.0400   70.9550  228.3410 C   0  0  0  0  0  0  0  0  0  0  0  0
  141.3238   70.9895  229.4032 H   0  0  0  0  0  0  0  0  0  0  0  0
  140.2870   69.8850  227.8540 C   0  0  0  0  0  0  0  0  0  0  0  0
  139.9763   69.0777  228.5336 H   0  0  0  0  0  0  0  0  0  0  0  0
  139.9270   69.8380  226.5030 C   0  0  0  0  0  0  0  0  0  0  0  0
  139.3289   68.9949  226.1268 H   0  0  0  0  0  0  0  0  0  0  0  0
  138.7080   70.0420  223.8300 C   0  0  0  0  0  0  0  0  0  0  0  0
  137.4330   70.5100  224.1910 C   0  0  0  0  0  0  0  0  0  0  0  0
  137.3331   71.4447  224.7623 H   0  0  0  0  0  0  0  0  0  0  0  0
  136.2920   69.7910  223.8260 C   0  0  0  0  0  0  0  0  0  0  0  0
  135.2962   70.1563  224.1174 H   0  0  0  0  0  0  0  0  0  0  0  0
  136.4140   68.6080  223.0910 C   0  0  0  0  0  0  0  0  0  0  0  0
  135.5147   68.0404  222.8100 H   0  0  0  0  0  0  0  0  0  0  0  0
  137.6780   68.1460  222.7130 C   0  0  0  0  0  0  0  0  0  0  0  0
  137.7725   67.2185  222.1292 H   0  0  0  0  0  0  0  0  0  0  0  0
  138.8230   68.8630  223.0770 C   0  0  0  0  0  0  0  0  0  0  0  0
  139.8162   68.5017  222.7722 H   0  0  0  0  0  0  0  0  0  0  0  0
  1  2  1  0
  2  3  1  0
  3  4  1  0
  3  5  2  0
  5  6  1  0
  6  7  1  0
  6  8  1  0
  6  9  1  0
  9 10  1  0
  9 11  1  0
  9 12  1  0
 12 13  1  0
 12 14  2  3
 14 15  1  0
 15 16  2  0
 16 17  1  0
 16 18  1  0
 18 19  1  0
 18 20  2  0
 20 21  1  0
 20 22  1  0
 22 23  1  0
 22 24  2  0
 24 25  1  0
 14 26  1  0
 26 27  2  0
 27 28  1  0
 27 29  1  0
 29 30  1  0
 29 31  2  0
 31 32  1  0
 31 33  1  0
 33 34  1  0
 33 35  2  0
 35 36  1  0
 24 15  1  0
 35 26  1  0
M  END
>  <UniqueID>  (62) 
40

>  <SMILES>  (62) 
O/C=N/CCC=C(c1ccccc1)c1ccccc1

>  <Energy>  (62) 
42.60420194488245

>  <Genealogy>  (62) 
OC=NCCC=C(c1ccccc1)c1ccccc1 (tautomer)
O/C=N/CCC=C(c1ccccc1)c1ccccc1 (cis-trans isomerization)
O/C=N/CCC=C(c1ccccc1)c1ccccc1 (3D coordinates assigned)
O/C=N/CCC=C(c1ccccc1)c1ccccc1 (optimized conformer: 42.60420194488245 kcal/mol)

>  <smiles>  (62) 
O=CNCCC=C(c1ccccc1)c1ccccc1

>  <score_type>  (62) 
oracle

>  <origin>  (62) 
autodockgpu

>  <m_score__min__energy>  (62) 
-5.6299999999999999

>  <m_primary>  (62) 
energy

>  <meeko>  (62) 
{"free_energy": -5.45, "intermolecular_energy": -7.84, "internal_energy": -0.93, "cluster_size": 9, "cluster_id": 1, "rank_in_cluster": 9}

>  <energy>  (62) 
-5.63

>  <cluster_rmsd>  (62) 
1.1

>  <rmsd>  (62) 
271.87

>  <cluster>  (62) 
1

$$$$
NYPVCQFMQXTFET-IVMHOSNPNA-N
     RDKit          3D

 36 37  0  0  0  0  0  0  0  0999 V2000
  139.0450   72.6370  223.4100 H   0  0  0  0  0  0  0  0  0  0  0  0
  139.9800   72.4830  223.0530 O   0  0  0  0  0  0  0  0  0  0  0  0
  140.4380   73.1620  221.9290 C   0  0  0  0  0  0  0  0  0  0  0  0
  140.9068   72.6046  221.1047 H   0  0  0  0  0  0  0  0  0  0  0  0
  140.3140   74.4500  221.8500 N   0  0  0  0  0  0  0  0  0  0  0  0
  139.0100   75.1020  221.7880 C   0  0  0  0  0  0  0  0  0  0  0  0
  138.3407   74.5148  221.1421 H   0  0  0  0  0  0  0  0  0  0  0  0
  138.5922   75.1654  222.8036 H   0  0  0  0  0  0  0  0  0  0  0  0
  139.1510   76.5140  221.2180 C   0  0  0  0  0  0  0  0  0  0  0  0
  139.6316   76.4557  220.2303 H   0  0  0  0  0  0  0  0  0  0  0  0
  138.1479   76.9579  221.1362 H   0  0  0  0  0  0  0  0  0  0  0  0
  139.9870   77.3870  222.1210 C   0  0  0  0  0  0  0  0  0  0  0  0
  139.7224   77.4157  223.1883 H   0  0  0  0  0  0  0  0  0  0  0  0
  141.0360   78.1360  221.7170 C   0  0  0  0  0  0  0  0  0  0  0  0
  141.6910   77.8610  220.4090 C   0  0  0  0  0  0  0  0  0  0  0  0
  141.8090   78.8660  219.4280 C   0  0  0  0  0  0  0  0  0  0  0  0
  141.4034   79.8698  219.6228 H   0  0  0  0  0  0  0  0  0  0  0  0
  142.4380   78.5960  218.2090 C   0  0  0  0  0  0  0  0  0  0  0  0
  142.5198   79.3853  217.4472 H   0  0  0  0  0  0  0  0  0  0  0  0
  142.9630   77.3260  217.9560 C   0  0  0  0  0  0  0  0  0  0  0  0
  143.4563   77.1158  216.9956 H   0  0  0  0  0  0  0  0  0  0  0  0
  142.8610   76.3240  218.9230 C   0  0  0  0  0  0  0  0  0  0  0  0
  143.2753   75.3246  218.7241 H   0  0  0  0  0  0  0  0  0  0  0  0
  142.2330   76.5890  220.1440 C   0  0  0  0  0  0  0  0  0  0  0  0
  142.1619   75.7968  220.9039 H   0  0  0  0  0  0  0  0  0  0  0  0
  141.5620   79.2500  222.5400 C   0  0  0  0  0  0  0  0  0  0  0  0
  142.9440   79.4070  222.7360 C   0  0  0  0  0  0  0  0  0  0  0  0
  143.6465   78.6869  222.2911 H   0  0  0  0  0  0  0  0  0  0  0  0
  143.4290   80.4760  223.4950 C   0  0  0  0  0  0  0  0  0  0  0  0
  144.5115   80.5905  223.6535 H   0  0  0  0  0  0  0  0  0  0  0  0
  142.5400   81.4000  224.0530 C   0  0  0  0  0  0  0  0  0  0  0  0
  142.9230   82.2379  224.6541 H   0  0  0  0  0  0  0  0  0  0  0  0
  141.1650   81.2590  223.8470 C   0  0  0  0  0  0  0  0  0  0  0  0
  140.4669   81.9895  224.2819 H   0  0  0  0  0  0  0  0  0  0  0  0
  140.6750   80.1910  223.0890 C   0  0  0  0  0  0  0  0  0  0  0  0
  139.5927   80.0874  222.9222 H   0  0  0  0  0  0  0  0  0  0  0  0
  1  2  1  0
  2  3  1  0
  3  4  1  0
  3  5  2  0
  5  6  1  0
  6  7  1  0
  6  8  1  0
  6  9  1  0
  9 10  1  0
  9 11  1  0
  9 12  1  0
 12 13  1  0
 12 14  2  3
 14 15  1  0
 15 16  2  0
 16 17  1  0
 16 18  1  0
 18 19  1  0
 18 20  2  0
 20 21  1  0
 20 22  1  0
 22 23  1  0
 22 24  2  0
 24 25  1  0
 14 26  1  0
 26 27  2  0
 27 28  1  0
 27 29  1  0
 29 30  1  0
 29 31  2  0
 31 32  1  0
 31 33  1  0
 33 34  1  0
 33 35  2  0
 35 36  1  0
 24 15  1  0
 35 26  1  0
M  END
>  <UniqueID>  (63) 
40

>  <SMILES>  (63) 
O/C=N/CCC=C(c1ccccc1)c1ccccc1

>  <Energy>  (63) 
42.60420194488245

>  <Genealogy>  (63) 
OC=NCCC=C(c1ccccc1)c1ccccc1 (tautomer)
O/C=N/CCC=C(c1ccccc1)c1ccccc1 (cis-trans isomerization)
O/C=N/CCC=C(c1ccccc1)c1ccccc1 (3D coordinates assigned)
O/C=N/CCC=C(c1ccccc1)c1ccccc1 (optimized conformer: 42.60420194488245 kcal/mol)

>  <smiles>  (63) 
O=CNCCC=C(c1ccccc1)c1ccccc1

>  <score_type>  (63) 
oracle

>  <origin>  (63) 
autodockgpu

>  <m_score__min__energy>  (63) 
-5.6299999999999999

>  <m_primary>  (63) 
energy

>  <meeko>  (63) 
{"free_energy": -5.35, "intermolecular_energy": -7.74, "internal_energy": -0.94, "cluster_size": 8, "cluster_id": 2, "rank_in_cluster": 2}

>  <energy>  (63) 
-5.63

>  <cluster_rmsd>  (63) 
1.13

>  <rmsd>  (63) 
271.89

>  <cluster>  (63) 
1

$$$$
NYPVCQFMQXTFET-IVMHOSNPNA-N
     RDKit          3D

 36 37  0  0  0  0  0  0  0  0999 V2000
  139.2020   73.7640  223.0950 H   0  0  0  0  0  0  0  0  0  0  0  0
  139.9100   73.8110  222.3730 O   0  0  0  0  0  0  0  0  0  0  0  0
  139.5600   73.9780  221.0370 C   0  0  0  0  0  0  0  0  0  0  0  0
  139.1983   73.1187  220.4532 H   0  0  0  0  0  0  0  0  0  0  0  0
  139.6590   75.1440  220.4780 N   0  0  0  0  0  0  0  0  0  0  0  0
  138.7340   76.2310  220.7790 C   0  0  0  0  0  0  0  0  0  0  0  0
  138.8295   77.0125  220.0108 H   0  0  0  0  0  0  0  0  0  0  0  0
  137.7073   75.8362  220.7879 H   0  0  0  0  0  0  0  0  0  0  0  0
  139.0500   76.8300  222.1510 C   0  0  0  0  0  0  0  0  0  0  0  0
  138.5821   77.8227  222.2253 H   0  0  0  0  0  0  0  0  0  0  0  0
  138.6545   76.1554  222.9247 H   0  0  0  0  0  0  0  0  0  0  0  0
  140.5380   76.9710  222.3560 C   0  0  0  0  0  0  0  0  0  0  0  0
  141.0378   76.2212  222.9869 H   0  0  0  0  0  0  0  0  0  0  0  0
  141.3030   77.9490  221.8230 C   0  0  0  0  0  0  0  0  0  0  0  0
  141.6300   79.1610  222.6230 C   0  0  0  0  0  0  0  0  0  0  0  0
  142.9630   79.4770  222.9540 C   0  0  0  0  0  0  0  0  0  0  0  0
  143.7785   78.8148  222.6277 H   0  0  0  0  0  0  0  0  0  0  0  0
  143.2560   80.6260  223.6940 C   0  0  0  0  0  0  0  0  0  0  0  0
  144.2991   80.8615  223.9518 H   0  0  0  0  0  0  0  0  0  0  0  0
  142.2270   81.4760  224.1070 C   0  0  0  0  0  0  0  0  0  0  0  0
  142.4601   82.3784  224.6913 H   0  0  0  0  0  0  0  0  0  0  0  0
  140.9030   81.1800  223.7780 C   0  0  0  0  0  0  0  0  0  0  0  0
  140.0936   81.8512  224.1011 H   0  0  0  0  0  0  0  0  0  0  0  0
  140.6040   80.0310  223.0380 C   0  0  0  0  0  0  0  0  0  0  0  0
  139.5591   79.8056  222.7784 H   0  0  0  0  0  0  0  0  0  0  0  0
  141.8470   77.8510  220.4490 C   0  0  0  0  0  0  0  0  0  0  0  0
  141.7820   78.9460  219.5720 C   0  0  0  0  0  0  0  0  0  0  0  0
  141.3060   79.8823  219.8986 H   0  0  0  0  0  0  0  0  0  0  0  0
  142.3200   78.8500  218.2860 C   0  0  0  0  0  0  0  0  0  0  0  0
  142.2583   79.7071  217.5992 H   0  0  0  0  0  0  0  0  0  0  0  0
  142.9370   77.6650  217.8710 C   0  0  0  0  0  0  0  0  0  0  0  0
  143.3560   77.5890  216.8568 H   0  0  0  0  0  0  0  0  0  0  0  0
  143.0210   76.5780  218.7450 C   0  0  0  0  0  0  0  0  0  0  0  0
  143.5112   75.6485  218.4198 H   0  0  0  0  0  0  0  0  0  0  0  0
  142.4830   76.6700  220.0320 C   0  0  0  0  0  0  0  0  0  0  0  0
  142.5579   75.8151  220.7201 H   0  0  0  0  0  0  0  0  0  0  0  0
  1  2  1  0
  2  3  1  0
  3  4  1  0
  3  5  2  0
  5  6  1  0
  6  7  1  0
  6  8  1  0
  6  9  1  0
  9 10  1  0
  9 11  1  0
  9 12  1  0
 12 13  1  0
 12 14  2  3
 14 15  1  0
 15 16  2  0
 16 17  1  0
 16 18  1  0
 18 19  1  0
 18 20  2  0
 20 21  1  0
 20 22  1  0
 22 23  1  0
 22 24  2  0
 24 25  1  0
 14 26  1  0
 26 27  2  0
 27 28  1  0
 27 29  1  0
 29 30  1  0
 29 31  2  0
 31 32  1  0
 31 33  1  0
 33 34  1  0
 33 35  2  0
 35 36  1  0
 24 15  1  0
 35 26  1  0
M  END
>  <UniqueID>  (64) 
40

>  <SMILES>  (64) 
O/C=N/CCC=C(c1ccccc1)c1ccccc1

>  <Energy>  (64) 
42.60420194488245

>  <Genealogy>  (64) 
OC=NCCC=C(c1ccccc1)c1ccccc1 (tautomer)
O/C=N/CCC=C(c1ccccc1)c1ccccc1 (cis-trans isomerization)
O/C=N/CCC=C(c1ccccc1)c1ccccc1 (3D coordinates assigned)
O/C=N/CCC=C(c1ccccc1)c1ccccc1 (optimized conformer: 42.60420194488245 kcal/mol)

>  <smiles>  (64) 
O=CNCCC=C(c1ccccc1)c1ccccc1

>  <score_type>  (64) 
oracle

>  <origin>  (64) 
autodockgpu

>  <m_score__min__energy>  (64) 
-5.6299999999999999

>  <m_primary>  (64) 
energy

>  <meeko>  (64) 
{"free_energy": -5.27, "intermolecular_energy": -7.65, "internal_energy": -1.11, "cluster_size": 8, "cluster_id": 2, "rank_in_cluster": 4}

>  <energy>  (64) 
-5.62

>  <cluster_rmsd>  (64) 
1.15

>  <rmsd>  (64) 
271.93

>  <cluster>  (64) 
1

$$$$
NYPVCQFMQXTFET-IVMHOSNPNA-N
     RDKit          3D

 36 37  0  0  0  0  0  0  0  0999 V2000
  139.0840   73.7730  223.0820 H   0  0  0  0  0  0  0  0  0  0  0  0
  139.9140   73.7430  222.5020 O   0  0  0  0  0  0  0  0  0  0  0  0
  139.8170   73.7110  221.1150 C   0  0  0  0  0  0  0  0  0  0  0  0
  140.4558   73.0278  220.5360 H   0  0  0  0  0  0  0  0  0  0  0  0
  138.9760   74.4840  220.5030 N   0  0  0  0  0  0  0  0  0  0  0  0
  139.1860   75.9230  220.3870 C   0  0  0  0  0  0  0  0  0  0  0  0
  140.1706   76.1109  219.9339 H   0  0  0  0  0  0  0  0  0  0  0  0
  138.3935   76.3511  219.7556 H   0  0  0  0  0  0  0  0  0  0  0  0
  139.1320   76.5790  221.7680 C   0  0  0  0  0  0  0  0  0  0  0  0
  138.5535   77.5121  221.6993 H   0  0  0  0  0  0  0  0  0  0  0  0
  138.6554   75.8769  222.4680 H   0  0  0  0  0  0  0  0  0  0  0  0
  140.5160   76.8950  222.2780 C   0  0  0  0  0  0  0  0  0  0  0  0
  140.9108   76.2742  223.0958 H   0  0  0  0  0  0  0  0  0  0  0  0
  141.3070   77.8830  221.8060 C   0  0  0  0  0  0  0  0  0  0  0  0
  141.8830   77.7890  220.4370 C   0  0  0  0  0  0  0  0  0  0  0  0
  142.4990   76.6030  219.9860 C   0  0  0  0  0  0  0  0  0  0  0  0
  142.5667   75.7335  220.6564 H   0  0  0  0  0  0  0  0  0  0  0  0
  143.0240   76.5250  218.6930 C   0  0  0  0  0  0  0  0  0  0  0  0
  143.5075   75.5977  218.3520 H   0  0  0  0  0  0  0  0  0  0  0  0
  142.9360   77.6220  217.8330 C   0  0  0  0  0  0  0  0  0  0  0  0
  143.3521   77.5587  216.8167 H   0  0  0  0  0  0  0  0  0  0  0  0
  142.3200   78.7990  218.2630 C   0  0  0  0  0  0  0  0  0  0  0  0
  142.2491   79.6615  217.5839 H   0  0  0  0  0  0  0  0  0  0  0  0
  141.7930   78.8830  219.5560 C   0  0  0  0  0  0  0  0  0  0  0  0
  141.3044   79.8113  219.8869 H   0  0  0  0  0  0  0  0  0  0  0  0
  141.6190   79.0850  222.6140 C   0  0  0  0  0  0  0  0  0  0  0  0
  142.9500   79.4310  222.8990 C   0  0  0  0  0  0  0  0  0  0  0  0
  143.7717   78.7957  222.5368 H   0  0  0  0  0  0  0  0  0  0  0  0
  143.2330   80.5810  223.6420 C   0  0  0  0  0  0  0  0  0  0  0  0
  144.2763   80.8442  223.8705 H   0  0  0  0  0  0  0  0  0  0  0  0
  142.1920   81.3970  224.0950 C   0  0  0  0  0  0  0  0  0  0  0  0
  142.4162   82.2985  224.6842 H   0  0  0  0  0  0  0  0  0  0  0  0
  140.8660   81.0670  223.7990 C   0  0  0  0  0  0  0  0  0  0  0  0
  140.0479   81.7128  224.1507 H   0  0  0  0  0  0  0  0  0  0  0  0
  140.5780   79.9180  223.0570 C   0  0  0  0  0  0  0  0  0  0  0  0
  139.5341   79.6654  222.8194 H   0  0  0  0  0  0  0  0  0  0  0  0
  1  2  1  0
  2  3  1  0
  3  4  1  0
  3  5  2  0
  5  6  1  0
  6  7  1  0
  6  8  1  0
  6  9  1  0
  9 10  1  0
  9 11  1  0
  9 12  1  0
 12 13  1  0
 12 14  2  3
 14 15  1  0
 15 16  2  0
 16 17  1  0
 16 18  1  0
 18 19  1  0
 18 20  2  0
 20 21  1  0
 20 22  1  0
 22 23  1  0
 22 24  2  0
 24 25  1  0
 14 26  1  0
 26 27  2  0
 27 28  1  0
 27 29  1  0
 29 30  1  0
 29 31  2  0
 31 32  1  0
 31 33  1  0
 33 34  1  0
 33 35  2  0
 35 36  1  0
 24 15  1  0
 35 26  1  0
M  END
>  <UniqueID>  (65) 
40

>  <SMILES>  (65) 
O/C=N/CCC=C(c1ccccc1)c1ccccc1

>  <Energy>  (65) 
42.60420194488245

>  <Genealogy>  (65) 
OC=NCCC=C(c1ccccc1)c1ccccc1 (tautomer)
O/C=N/CCC=C(c1ccccc1)c1ccccc1 (cis-trans isomerization)
O/C=N/CCC=C(c1ccccc1)c1ccccc1 (3D coordinates assigned)
O/C=N/CCC=C(c1ccccc1)c1ccccc1 (optimized conformer: 42.60420194488245 kcal/mol)

>  <smiles>  (65) 
O=CNCCC=C(c1ccccc1)c1ccccc1

>  <score_type>  (65) 
oracle

>  <origin>  (65) 
autodockgpu

>  <m_score__min__energy>  (65) 
-5.6299999999999999

>  <m_primary>  (65) 
energy

>  <meeko>  (65) 
{"free_energy": -5.22, "intermolecular_energy": -7.61, "internal_energy": -1.02, "cluster_size": 8, "cluster_id": 2, "rank_in_cluster": 8}

>  <energy>  (65) 
-5.61

>  <cluster_rmsd>  (65) 
1.22

>  <rmsd>  (65) 
271.91

>  <cluster>  (65) 
1

$$$$
NYPVCQFMQXTFET-IVMHOSNPNA-N
     RDKit          3D

 36 37  0  0  0  0  0  0  0  0999 V2000
  142.0400   76.2640  221.9880 H   0  0  0  0  0  0  0  0  0  0  0  0
  141.0760   76.0240  222.1860 O   0  0  0  0  0  0  0  0  0  0  0  0
  140.4790   74.9160  221.5950 C   0  0  0  0  0  0  0  0  0  0  0  0
  140.5905   74.7438  220.5143 H   0  0  0  0  0  0  0  0  0  0  0  0
  139.7910   74.0850  222.3150 N   0  0  0  0  0  0  0  0  0  0  0  0
  139.3620   72.7860  221.8050 C   0  0  0  0  0  0  0  0  0  0  0  0
  138.4229   72.4942  222.2980 H   0  0  0  0  0  0  0  0  0  0  0  0
  139.2085   72.8600  220.7183 H   0  0  0  0  0  0  0  0  0  0  0  0
  140.4300   71.7290  222.0870 C   0  0  0  0  0  0  0  0  0  0  0  0
  140.1110   70.7715  221.6495 H   0  0  0  0  0  0  0  0  0  0  0  0
  141.3774   72.0643  221.6399 H   0  0  0  0  0  0  0  0  0  0  0  0
  140.6410   71.5460  223.5700 C   0  0  0  0  0  0  0  0  0  0  0  0
  141.4310   72.1433  224.0487 H   0  0  0  0  0  0  0  0  0  0  0  0
  139.9330   70.7040  224.3540 C   0  0  0  0  0  0  0  0  0  0  0  0
  138.7020   70.0530  223.8290 C   0  0  0  0  0  0  0  0  0  0  0  0
  137.4340   70.6430  224.0070 C   0  0  0  0  0  0  0  0  0  0  0  0
  137.3461   71.5952  224.5507 H   0  0  0  0  0  0  0  0  0  0  0  0
  136.2870   70.0260  223.4970 C   0  0  0  0  0  0  0  0  0  0  0  0
  135.3013   70.4910  223.6457 H   0  0  0  0  0  0  0  0  0  0  0  0
  136.3910   68.8200  222.7990 C   0  0  0  0  0  0  0  0  0  0  0  0
  135.4875   68.3357  222.4001 H   0  0  0  0  0  0  0  0  0  0  0  0
  137.6410   68.2300  222.6080 C   0  0  0  0  0  0  0  0  0  0  0  0
  137.7219   67.2816  222.0567 H   0  0  0  0  0  0  0  0  0  0  0  0
  138.7910   68.8420  223.1160 C   0  0  0  0  0  0  0  0  0  0  0  0
  139.7735   68.3735  222.9573 H   0  0  0  0  0  0  0  0  0  0  0  0
  140.3530   70.3910  225.7390 C   0  0  0  0  0  0  0  0  0  0  0  0
  140.6880   71.4190  226.6360 C   0  0  0  0  0  0  0  0  0  0  0  0
  140.6584   72.4676  226.3049 H   0  0  0  0  0  0  0  0  0  0  0  0
  141.0590   71.1120  227.9490 C   0  0  0  0  0  0  0  0  0  0  0  0
  141.3293   71.9189  228.6461 H   0  0  0  0  0  0  0  0  0  0  0  0
  141.0870   69.7820  228.3770 C   0  0  0  0  0  0  0  0  0  0  0  0
  141.3844   69.5423  229.4086 H   0  0  0  0  0  0  0  0  0  0  0  0
  140.7370   68.7560  227.4940 C   0  0  0  0  0  0  0  0  0  0  0  0
  140.7537   67.7099  227.8336 H   0  0  0  0  0  0  0  0  0  0  0  0
  140.3660   69.0570  226.1810 C   0  0  0  0  0  0  0  0  0  0  0  0
  140.0834   68.2478  225.4915 H   0  0  0  0  0  0  0  0  0  0  0  0
  1  2  1  0
  2  3  1  0
  3  4  1  0
  3  5  2  0
  5  6  1  0
  6  7  1  0
  6  8  1  0
  6  9  1  0
  9 10  1  0
  9 11  1  0
  9 12  1  0
 12 13  1  0
 12 14  2  3
 14 15  1  0
 15 16  2  0
 16 17  1  0
 16 18  1  0
 18 19  1  0
 18 20  2  0
 20 21  1  0
 20 22  1  0
 22 23  1  0
 22 24  2  0
 24 25  1  0
 14 26  1  0
 26 27  2  0
 27 28  1  0
 27 29  1  0
 29 30  1  0
 29 31  2  0
 31 32  1  0
 31 33  1  0
 33 34  1  0
 33 35  2  0
 35 36  1  0
 24 15  1  0
 35 26  1  0
M  END
>  <UniqueID>  (66) 
40

>  <SMILES>  (66) 
O/C=N/CCC=C(c1ccccc1)c1ccccc1

>  <Energy>  (66) 
42.60420194488245

>  <Genealogy>  (66) 
OC=NCCC=C(c1ccccc1)c1ccccc1 (tautomer)
O/C=N/CCC=C(c1ccccc1)c1ccccc1 (cis-trans isomerization)
O/C=N/CCC=C(c1ccccc1)c1ccccc1 (3D coordinates assigned)
O/C=N/CCC=C(c1ccccc1)c1ccccc1 (optimized conformer: 42.60420194488245 kcal/mol)

>  <smiles>  (66) 
O=CNCCC=C(c1ccccc1)c1ccccc1

>  <score_type>  (66) 
oracle

>  <origin>  (66) 
autodockgpu

>  <m_score__min__energy>  (66) 
-5.6299999999999999

>  <m_primary>  (66) 
energy

>  <meeko>  (66) 
{"free_energy": -5.57, "intermolecular_energy": -7.95, "internal_energy": -0.98, "cluster_size": 9, "cluster_id": 1, "rank_in_cluster": 7}

>  <energy>  (66) 
-5.58

>  <cluster_rmsd>  (66) 
1.35

>  <rmsd>  (66) 
272.05

>  <cluster>  (66) 
1

$$$$
NYPVCQFMQXTFET-IVMHOSNPNA-N
     RDKit          3D

 36 37  0  0  0  0  0  0  0  0999 V2000
  139.1610   72.5980  223.7590 H   0  0  0  0  0  0  0  0  0  0  0  0
  139.9260   72.5230  223.0990 O   0  0  0  0  0  0  0  0  0  0  0  0
  139.9330   73.2690  221.9250 C   0  0  0  0  0  0  0  0  0  0  0  0
  139.8449   72.7621  220.9528 H   0  0  0  0  0  0  0  0  0  0  0  0
  140.0430   74.5590  221.9730 N   0  0  0  0  0  0  0  0  0  0  0  0
  138.8920   75.4290  222.1940 C   0  0  0  0  0  0  0  0  0  0  0  0
  138.0626   75.1052  221.5480 H   0  0  0  0  0  0  0  0  0  0  0  0
  138.5924   75.3658  223.2505 H   0  0  0  0  0  0  0  0  0  0  0  0
  139.2530   76.8780  221.8640 C   0  0  0  0  0  0  0  0  0  0  0  0
  139.0034   77.0789  220.8117 H   0  0  0  0  0  0  0  0  0  0  0  0
  138.6817   77.5394  222.5320 H   0  0  0  0  0  0  0  0  0  0  0  0
  140.7240   77.1380  222.0790 C   0  0  0  0  0  0  0  0  0  0  0  0
  141.2925   76.3948  222.6574 H   0  0  0  0  0  0  0  0  0  0  0  0
  141.3950   78.2140  221.6150 C   0  0  0  0  0  0  0  0  0  0  0  0
  141.6840   79.3610  222.5180 C   0  0  0  0  0  0  0  0  0  0  0  0
  143.0050   79.6800  222.8920 C   0  0  0  0  0  0  0  0  0  0  0  0
  143.8401   79.0676  222.5212 H   0  0  0  0  0  0  0  0  0  0  0  0
  143.2620   80.7680  223.7300 C   0  0  0  0  0  0  0  0  0  0  0  0
  144.2961   81.0046  224.0210 H   0  0  0  0  0  0  0  0  0  0  0  0
  142.2080   81.5560  224.1990 C   0  0  0  0  0  0  0  0  0  0  0  0
  142.4128   82.4116  224.8593 H   0  0  0  0  0  0  0  0  0  0  0  0
  140.8950   81.2580  223.8300 C   0  0  0  0  0  0  0  0  0  0  0  0
  140.0658   81.8793  224.1994 H   0  0  0  0  0  0  0  0  0  0  0  0
  140.6330   80.1700  222.9910 C   0  0  0  0  0  0  0  0  0  0  0  0
  139.5970   79.9444  222.6981 H   0  0  0  0  0  0  0  0  0  0  0  0
  141.8730   78.2900  220.2140 C   0  0  0  0  0  0  0  0  0  0  0  0
  141.8160   79.5000  219.5020 C   0  0  0  0  0  0  0  0  0  0  0  0
  141.3960   80.3980  219.9786 H   0  0  0  0  0  0  0  0  0  0  0  0
  142.2920   79.5650  218.1890 C   0  0  0  0  0  0  0  0  0  0  0  0
  142.2378   80.5115  217.6312 H   0  0  0  0  0  0  0  0  0  0  0  0
  142.8370   78.4280  217.5840 C   0  0  0  0  0  0  0  0  0  0  0  0
  143.2067   78.4794  216.5493 H   0  0  0  0  0  0  0  0  0  0  0  0
  142.9120   77.2260  218.2940 C   0  0  0  0  0  0  0  0  0  0  0  0
  143.3453   76.3335  217.8190 H   0  0  0  0  0  0  0  0  0  0  0  0
  142.4370   77.1570  219.6070 C   0  0  0  0  0  0  0  0  0  0  0  0
  142.5054   76.2121  220.1660 H   0  0  0  0  0  0  0  0  0  0  0  0
  1  2  1  0
  2  3  1  0
  3  4  1  0
  3  5  2  0
  5  6  1  0
  6  7  1  0
  6  8  1  0
  6  9  1  0
  9 10  1  0
  9 11  1  0
  9 12  1  0
 12 13  1  0
 12 14  2  3
 14 15  1  0
 15 16  2  0
 16 17  1  0
 16 18  1  0
 18 19  1  0
 18 20  2  0
 20 21  1  0
 20 22  1  0
 22 23  1  0
 22 24  2  0
 24 25  1  0
 14 26  1  0
 26 27  2  0
 27 28  1  0
 27 29  1  0
 29 30  1  0
 29 31  2  0
 31 32  1  0
 31 33  1  0
 33 34  1  0
 33 35  2  0
 35 36  1  0
 24 15  1  0
 35 26  1  0
M  END
>  <UniqueID>  (67) 
40

>  <SMILES>  (67) 
O/C=N/CCC=C(c1ccccc1)c1ccccc1

>  <Energy>  (67) 
42.60420194488245

>  <Genealogy>  (67) 
OC=NCCC=C(c1ccccc1)c1ccccc1 (tautomer)
O/C=N/CCC=C(c1ccccc1)c1ccccc1 (cis-trans isomerization)
O/C=N/CCC=C(c1ccccc1)c1ccccc1 (3D coordinates assigned)
O/C=N/CCC=C(c1ccccc1)c1ccccc1 (optimized conformer: 42.60420194488245 kcal/mol)

>  <smiles>  (67) 
O=CNCCC=C(c1ccccc1)c1ccccc1

>  <score_type>  (67) 
oracle

>  <origin>  (67) 
autodockgpu

>  <m_score__min__energy>  (67) 
-5.6299999999999999

>  <m_primary>  (67) 
energy

>  <meeko>  (67) 
{"free_energy": -5.42, "intermolecular_energy": -7.81, "internal_energy": -0.89, "cluster_size": 8, "cluster_id": 2, "rank_in_cluster": 1}

>  <energy>  (67) 
-5.57

>  <cluster_rmsd>  (67) 
1.21

>  <rmsd>  (67) 
271.89

>  <cluster>  (67) 
1

$$$$
NYPVCQFMQXTFET-IVMHOSNPNA-N
     RDKit          3D

 36 37  0  0  0  0  0  0  0  0999 V2000
  141.9820   76.3490  222.2650 H   0  0  0  0  0  0  0  0  0  0  0  0
  141.0440   75.9770  222.3530 O   0  0  0  0  0  0  0  0  0  0  0  0
  140.6300   74.8910  221.5890 C   0  0  0  0  0  0  0  0  0  0  0  0
  140.5476   74.9890  220.4965 H   0  0  0  0  0  0  0  0  0  0  0  0
  140.3410   73.7640  222.1600 N   0  0  0  0  0  0  0  0  0  0  0  0
  139.9500   72.5830  221.3960 C   0  0  0  0  0  0  0  0  0  0  0  0
  138.8667   72.6146  221.2075 H   0  0  0  0  0  0  0  0  0  0  0  0
  140.4975   72.5756  220.4420 H   0  0  0  0  0  0  0  0  0  0  0  0
  140.2900   71.3120  222.1760 C   0  0  0  0  0  0  0  0  0  0  0  0
  139.5297   70.5462  221.9628 H   0  0  0  0  0  0  0  0  0  0  0  0
  141.2866   70.9677  221.8626 H   0  0  0  0  0  0  0  0  0  0  0  0
  140.3210   71.5740  223.6610 C   0  0  0  0  0  0  0  0  0  0  0  0
  141.0373   72.3228  224.0301 H   0  0  0  0  0  0  0  0  0  0  0  0
  139.5360   70.9590  224.5720 C   0  0  0  0  0  0  0  0  0  0  0  0
  140.1010   70.5360  225.8820 C   0  0  0  0  0  0  0  0  0  0  0  0
  140.2940   69.1730  226.1860 C   0  0  0  0  0  0  0  0  0  0  0  0
  140.0153   68.4046  225.4499 H   0  0  0  0  0  0  0  0  0  0  0  0
  140.8370   68.7910  227.4160 C   0  0  0  0  0  0  0  0  0  0  0  0
  140.9772   67.7247  227.6467 H   0  0  0  0  0  0  0  0  0  0  0  0
  141.2020   69.7610  228.3530 C   0  0  0  0  0  0  0  0  0  0  0  0
  141.6287   69.4581  229.3206 H   0  0  0  0  0  0  0  0  0  0  0  0
  141.0250   71.1150  228.0610 C   0  0  0  0  0  0  0  0  0  0  0  0
  141.3138   71.8783  228.7986 H   0  0  0  0  0  0  0  0  0  0  0  0
  140.4810   71.5020  226.8320 C   0  0  0  0  0  0  0  0  0  0  0  0
  140.3491   72.5705  226.6062 H   0  0  0  0  0  0  0  0  0  0  0  0
  138.1010   70.6950  224.3120 C   0  0  0  0  0  0  0  0  0  0  0  0
  137.3430   71.5720  223.5190 C   0  0  0  0  0  0  0  0  0  0  0  0
  137.8102   72.4757  223.1005 H   0  0  0  0  0  0  0  0  0  0  0  0
  135.9970   71.3000  223.2600 C   0  0  0  0  0  0  0  0  0  0  0  0
  135.4048   71.9939  222.6454 H   0  0  0  0  0  0  0  0  0  0  0  0
  135.4020   70.1470  223.7810 C   0  0  0  0  0  0  0  0  0  0  0  0
  134.3409   69.9371  223.5811 H   0  0  0  0  0  0  0  0  0  0  0  0
  136.1560   69.2610  224.5560 C   0  0  0  0  0  0  0  0  0  0  0  0
  135.6886   68.3514  224.9612 H   0  0  0  0  0  0  0  0  0  0  0  0
  137.5030   69.5290  224.8170 C   0  0  0  0  0  0  0  0  0  0  0  0
  138.0959   68.8249  225.4193 H   0  0  0  0  0  0  0  0  0  0  0  0
  1  2  1  0
  2  3  1  0
  3  4  1  0
  3  5  2  0
  5  6  1  0
  6  7  1  0
  6  8  1  0
  6  9  1  0
  9 10  1  0
  9 11  1  0
  9 12  1  0
 12 13  1  0
 12 14  2  3
 14 15  1  0
 15 16  2  0
 16 17  1  0
 16 18  1  0
 18 19  1  0
 18 20  2  0
 20 21  1  0
 20 22  1  0
 22 23  1  0
 22 24  2  0
 24 25  1  0
 14 26  1  0
 26 27  2  0
 27 28  1  0
 27 29  1  0
 29 30  1  0
 29 31  2  0
 31 32  1  0
 31 33  1  0
 33 34  1  0
 33 35  2  0
 35 36  1  0
 24 15  1  0
 35 26  1  0
M  END
>  <UniqueID>  (68) 
40

>  <SMILES>  (68) 
O/C=N/CCC=C(c1ccccc1)c1ccccc1

>  <Energy>  (68) 
42.60420194488245

>  <Genealogy>  (68) 
OC=NCCC=C(c1ccccc1)c1ccccc1 (tautomer)
O/C=N/CCC=C(c1ccccc1)c1ccccc1 (cis-trans isomerization)
O/C=N/CCC=C(c1ccccc1)c1ccccc1 (3D coordinates assigned)
O/C=N/CCC=C(c1ccccc1)c1ccccc1 (optimized conformer: 42.60420194488245 kcal/mol)

>  <smiles>  (68) 
O=CNCCC=C(c1ccccc1)c1ccccc1

>  <score_type>  (68) 
oracle

>  <origin>  (68) 
autodockgpu

>  <m_score__min__energy>  (68) 
-5.6299999999999999

>  <m_primary>  (68) 
energy

>  <meeko>  (68) 
{"free_energy": -5.58, "intermolecular_energy": -7.96, "internal_energy": -0.85, "cluster_size": 9, "cluster_id": 1, "rank_in_cluster": 6}

>  <energy>  (68) 
-5.47

>  <cluster_rmsd>  (68) 
1.45

>  <rmsd>  (68) 
272.0

>  <cluster>  (68) 
1

$$$$
NYPVCQFMQXTFET-IVMHOSNPNA-N
     RDKit          3D

 36 37  0  0  0  0  0  0  0  0999 V2000
  146.4910   74.1300  218.4640 H   0  0  0  0  0  0  0  0  0  0  0  0
  146.2960   73.3190  219.0390 O   0  0  0  0  0  0  0  0  0  0  0  0
  145.3470   73.3720  220.0540 C   0  0  0  0  0  0  0  0  0  0  0  0
  144.9842   72.4415  220.5151 H   0  0  0  0  0  0  0  0  0  0  0  0
  144.8890   74.5150  220.4580 N   0  0  0  0  0  0  0  0  0  0  0  0
  143.5130   74.9330  220.2060 C   0  0  0  0  0  0  0  0  0  0  0  0
  143.0650   74.2716  219.4497 H   0  0  0  0  0  0  0  0  0  0  0  0
  142.9417   74.8718  221.1440 H   0  0  0  0  0  0  0  0  0  0  0  0
  143.4840   76.3750  219.6970 C   0  0  0  0  0  0  0  0  0  0  0  0
  144.1461   76.9901  220.3242 H   0  0  0  0  0  0  0  0  0  0  0  0
  143.8237   76.3816  218.6508 H   0  0  0  0  0  0  0  0  0  0  0  0
  142.0880   76.9450  219.7490 C   0  0  0  0  0  0  0  0  0  0  0  0
  141.6310   77.2588  218.7989 H   0  0  0  0  0  0  0  0  0  0  0  0
  141.3570   77.0990  220.8750 C   0  0  0  0  0  0  0  0  0  0  0  0
  140.3300   76.0870  221.2430 C   0  0  0  0  0  0  0  0  0  0  0  0
  140.6930   74.7620  221.5570 C   0  0  0  0  0  0  0  0  0  0  0  0
  141.7508   74.4625  221.5208 H   0  0  0  0  0  0  0  0  0  0  0  0
  139.7190   73.8260  221.9140 C   0  0  0  0  0  0  0  0  0  0  0  0
  140.0122   72.7929  222.1524 H   0  0  0  0  0  0  0  0  0  0  0  0
  138.3730   74.1990  221.9690 C   0  0  0  0  0  0  0  0  0  0  0  0
  137.6078   73.4601  222.2490 H   0  0  0  0  0  0  0  0  0  0  0  0
  138.0010   75.5110  221.6680 C   0  0  0  0  0  0  0  0  0  0  0  0
  136.9420   75.8052  221.7119 H   0  0  0  0  0  0  0  0  0  0  0  0
  138.9720   76.4510  221.3110 C   0  0  0  0  0  0  0  0  0  0  0  0
  138.6723   77.4841  221.0812 H   0  0  0  0  0  0  0  0  0  0  0  0
  141.5530   78.2560  221.7790 C   0  0  0  0  0  0  0  0  0  0  0  0
  141.4550   78.1020  223.1720 C   0  0  0  0  0  0  0  0  0  0  0  0
  141.2126   77.1180  223.5997 H   0  0  0  0  0  0  0  0  0  0  0  0
  141.6650   79.1970  224.0160 C   0  0  0  0  0  0  0  0  0  0  0  0
  141.5767   79.0754  225.1057 H   0  0  0  0  0  0  0  0  0  0  0  0
  141.9870   80.4460  223.4770 C   0  0  0  0  0  0  0  0  0  0  0  0
  142.1483   81.3070  224.1423 H   0  0  0  0  0  0  0  0  0  0  0  0
  142.1040   80.6010  222.0930 C   0  0  0  0  0  0  0  0  0  0  0  0
  142.3618   81.5833  221.6704 H   0  0  0  0  0  0  0  0  0  0  0  0
  141.8940   79.5100  221.2450 C   0  0  0  0  0  0  0  0  0  0  0  0
  141.9960   79.6335  220.1567 H   0  0  0  0  0  0  0  0  0  0  0  0
  1  2  1  0
  2  3  1  0
  3  4  1  0
  3  5  2  0
  5  6  1  0
  6  7  1  0
  6  8  1  0
  6  9  1  0
  9 10  1  0
  9 11  1  0
  9 12  1  0
 12 13  1  0
 12 14  2  3
 14 15  1  0
 15 16  2  0
 16 17  1  0
 16 18  1  0
 18 19  1  0
 18 20  2  0
 20 21  1  0
 20 22  1  0
 22 23  1  0
 22 24  2  0
 24 25  1  0
 14 26  1  0
 26 27  2  0
 27 28  1  0
 27 29  1  0
 29 30  1  0
 29 31  2  0
 31 32  1  0
 31 33  1  0
 33 34  1  0
 33 35  2  0
 35 36  1  0
 24 15  1  0
 35 26  1  0
M  END
>  <UniqueID>  (69) 
40

>  <SMILES>  (69) 
O/C=N/CCC=C(c1ccccc1)c1ccccc1

>  <Energy>  (69) 
42.60420194488245

>  <Genealogy>  (69) 
OC=NCCC=C(c1ccccc1)c1ccccc1 (tautomer)
O/C=N/CCC=C(c1ccccc1)c1ccccc1 (cis-trans isomerization)
O/C=N/CCC=C(c1ccccc1)c1ccccc1 (3D coordinates assigned)
O/C=N/CCC=C(c1ccccc1)c1ccccc1 (optimized conformer: 42.60420194488245 kcal/mol)

>  <smiles>  (69) 
O=CNCCC=C(c1ccccc1)c1ccccc1

>  <score_type>  (69) 
oracle

>  <origin>  (69) 
autodockgpu

>  <m_score__min__energy>  (69) 
-5.6299999999999999

>  <m_primary>  (69) 
energy

>  <meeko>  (69) 
{"free_energy": -5.35, "intermolecular_energy": -7.73, "internal_energy": -0.87, "cluster_size": 1, "cluster_id": 3, "rank_in_cluster": 1}

>  <energy>  (69) 
-5.45

>  <cluster_rmsd>  (69) 
1.33

>  <rmsd>  (69) 
271.99

>  <cluster>  (69) 
1

$$$$
NYPVCQFMQXTFET-IVMHOSNPNA-N
     RDKit          3D

 36 37  0  0  0  0  0  0  0  0999 V2000
  139.2210   73.3810  223.3940 H   0  0  0  0  0  0  0  0  0  0  0  0
  139.9450   73.4030  222.6860 O   0  0  0  0  0  0  0  0  0  0  0  0
  139.6970   73.9330  221.4250 C   0  0  0  0  0  0  0  0  0  0  0  0
  140.2952   73.6012  220.5636 H   0  0  0  0  0  0  0  0  0  0  0  0
  138.7630   74.8170  221.2610 N   0  0  0  0  0  0  0  0  0  0  0  0
  138.3580   75.7260  222.3290 C   0  0  0  0  0  0  0  0  0  0  0  0
  137.2602   75.7904  222.3543 H   0  0  0  0  0  0  0  0  0  0  0  0
  138.7343   75.3419  223.2886 H   0  0  0  0  0  0  0  0  0  0  0  0
  138.9400   77.1190  222.0870 C   0  0  0  0  0  0  0  0  0  0  0  0
  138.6689   77.4499  221.0736 H   0  0  0  0  0  0  0  0  0  0  0  0
  138.5280   77.8044  222.8423 H   0  0  0  0  0  0  0  0  0  0  0  0
  140.4430   77.1130  222.2170 C   0  0  0  0  0  0  0  0  0  0  0  0
  140.9044   76.2658  222.7455 H   0  0  0  0  0  0  0  0  0  0  0  0
  141.2650   78.0700  221.7330 C   0  0  0  0  0  0  0  0  0  0  0  0
  141.6020   79.2570  222.5660 C   0  0  0  0  0  0  0  0  0  0  0  0
  140.6010   80.1490  223.0020 C   0  0  0  0  0  0  0  0  0  0  0  0
  139.5530   79.9758  222.7162 H   0  0  0  0  0  0  0  0  0  0  0  0
  140.9310   81.2520  223.7950 C   0  0  0  0  0  0  0  0  0  0  0  0
  140.1441   81.9462  224.1251 H   0  0  0  0  0  0  0  0  0  0  0  0
  142.2590   81.4740  224.1690 C   0  0  0  0  0  0  0  0  0  0  0  0
  142.5170   82.3430  224.7920 H   0  0  0  0  0  0  0  0  0  0  0  0
  143.2580   80.5930  223.7520 C   0  0  0  0  0  0  0  0  0  0  0  0
  144.3028   80.7681  224.0483 H   0  0  0  0  0  0  0  0  0  0  0  0
  142.9340   79.4890  222.9590 C   0  0  0  0  0  0  0  0  0  0  0  0
  143.7259   78.7957  222.6392 H   0  0  0  0  0  0  0  0  0  0  0  0
  141.8620   77.9740  220.3800 C   0  0  0  0  0  0  0  0  0  0  0  0
  142.4340   76.7720  219.9340 C   0  0  0  0  0  0  0  0  0  0  0  0
  142.4584   75.8959  220.5988 H   0  0  0  0  0  0  0  0  0  0  0  0
  142.9730   76.6860  218.6460 C   0  0  0  0  0  0  0  0  0  0  0  0
  143.4289   75.7455  218.3029 H   0  0  0  0  0  0  0  0  0  0  0  0
  142.9330   77.7930  217.7950 C   0  0  0  0  0  0  0  0  0  0  0  0
  143.3613   77.7247  216.7841 H   0  0  0  0  0  0  0  0  0  0  0  0
  142.3490   78.9880  218.2270 C   0  0  0  0  0  0  0  0  0  0  0  0
  142.3143   79.8576  217.5542 H   0  0  0  0  0  0  0  0  0  0  0  0
  141.8090   79.0780  219.5140 C   0  0  0  0  0  0  0  0  0  0  0  0
  141.3417   80.0159  219.8486 H   0  0  0  0  0  0  0  0  0  0  0  0
  1  2  1  0
  2  3  1  0
  3  4  1  0
  3  5  2  0
  5  6  1  0
  6  7  1  0
  6  8  1  0
  6  9  1  0
  9 10  1  0
  9 11  1  0
  9 12  1  0
 12 13  1  0
 12 14  2  3
 14 15  1  0
 15 16  2  0
 16 17  1  0
 16 18  1  0
 18 19  1  0
 18 20  2  0
 20 21  1  0
 20 22  1  0
 22 23  1  0
 22 24  2  0
 24 25  1  0
 14 26  1  0
 26 27  2  0
 27 28  1  0
 27 29  1  0
 29 30  1  0
 29 31  2  0
 31 32  1  0
 31 33  1  0
 33 34  1  0
 33 35  2  0
 35 36  1  0
 24 15  1  0
 35 26  1  0
M  END
>  <UniqueID>  (70) 
40

>  <SMILES>  (70) 
O/C=N/CCC=C(c1ccccc1)c1ccccc1

>  <Energy>  (70) 
42.60420194488245

>  <Genealogy>  (70) 
OC=NCCC=C(c1ccccc1)c1ccccc1 (tautomer)
O/C=N/CCC=C(c1ccccc1)c1ccccc1 (cis-trans isomerization)
O/C=N/CCC=C(c1ccccc1)c1ccccc1 (3D coordinates assigned)
O/C=N/CCC=C(c1ccccc1)c1ccccc1 (optimized conformer: 42.60420194488245 kcal/mol)

>  <smiles>  (70) 
O=CNCCC=C(c1ccccc1)c1ccccc1

>  <score_type>  (70) 
oracle

>  <origin>  (70) 
autodockgpu

>  <m_score__min__energy>  (70) 
-5.6299999999999999

>  <m_primary>  (70) 
energy

>  <meeko>  (70) 
{"free_energy": -5.33, "intermolecular_energy": -7.72, "internal_energy": -0.93, "cluster_size": 8, "cluster_id": 2, "rank_in_cluster": 3}

>  <energy>  (70) 
-5.42

>  <cluster_rmsd>  (70) 
0.0

>  <rmsd>  (70) 
272.34

>  <cluster>  (70) 
2

$$$$
NYPVCQFMQXTFET-IVMHOSNPNA-N
     RDKit          3D

 36 37  0  0  0  0  0  0  0  0999 V2000
  139.0770   73.0150  223.4300 H   0  0  0  0  0  0  0  0  0  0  0  0
  139.9420   72.6200  223.0800 O   0  0  0  0  0  0  0  0  0  0  0  0
  140.5900   73.1770  221.9830 C   0  0  0  0  0  0  0  0  0  0  0  0
  141.0820   72.5241  221.2471 H   0  0  0  0  0  0  0  0  0  0  0  0
  140.6160   74.4630  221.8250 N   0  0  0  0  0  0  0  0  0  0  0  0
  139.3970   75.2540  221.6890 C   0  0  0  0  0  0  0  0  0  0  0  0
  139.2507   75.5166  220.6309 H   0  0  0  0  0  0  0  0  0  0  0  0
  138.5435   74.6621  222.0513 H   0  0  0  0  0  0  0  0  0  0  0  0
  139.5020   76.5350  222.5170 C   0  0  0  0  0  0  0  0  0  0  0  0
  138.5776   76.6623  223.0995 H   0  0  0  0  0  0  0  0  0  0  0  0
  140.3724   76.4478  223.1840 H   0  0  0  0  0  0  0  0  0  0  0  0
  139.6970   77.7430  221.6330 C   0  0  0  0  0  0  0  0  0  0  0  0
  138.8075   78.1601  221.1382 H   0  0  0  0  0  0  0  0  0  0  0  0
  140.8810   78.3500  221.4040 C   0  0  0  0  0  0  0  0  0  0  0  0
  141.6910   77.9810  220.2110 C   0  0  0  0  0  0  0  0  0  0  0  0
  142.2930   76.7110  220.1040 C   0  0  0  0  0  0  0  0  0  0  0  0
  142.1744   75.9800  220.9174 H   0  0  0  0  0  0  0  0  0  0  0  0
  143.0400   76.3740  218.9710 C   0  0  0  0  0  0  0  0  0  0  0  0
  143.5114   75.3827  218.8995 H   0  0  0  0  0  0  0  0  0  0  0  0
  143.1890   77.2930  217.9300 C   0  0  0  0  0  0  0  0  0  0  0  0
  143.7776   77.0254  217.0400 H   0  0  0  0  0  0  0  0  0  0  0  0
  142.5910   78.5510  218.0190 C   0  0  0  0  0  0  0  0  0  0  0  0
  142.7082   79.2739  217.1983 H   0  0  0  0  0  0  0  0  0  0  0  0
  141.8430   78.8940  219.1500 C   0  0  0  0  0  0  0  0  0  0  0  0
  141.3697   79.8851  219.2110 H   0  0  0  0  0  0  0  0  0  0  0  0
  141.4080   79.3980  222.3090 C   0  0  0  0  0  0  0  0  0  0  0  0
  140.5360   80.2850  222.9620 C   0  0  0  0  0  0  0  0  0  0  0  0
  139.4520   80.2170  222.7877 H   0  0  0  0  0  0  0  0  0  0  0  0
  141.0430   81.2540  223.8330 C   0  0  0  0  0  0  0  0  0  0  0  0
  140.3581   81.9521  224.3365 H   0  0  0  0  0  0  0  0  0  0  0  0
  142.4190   81.3370  224.0650 C   0  0  0  0  0  0  0  0  0  0  0  0
  142.8166   82.1030  224.7470 H   0  0  0  0  0  0  0  0  0  0  0  0
  143.2900   80.4460  223.4300 C   0  0  0  0  0  0  0  0  0  0  0  0
  144.3723   80.5088  223.6164 H   0  0  0  0  0  0  0  0  0  0  0  0
  142.7870   79.4760  222.5590 C   0  0  0  0  0  0  0  0  0  0  0  0
  143.4740   78.7712  222.0677 H   0  0  0  0  0  0  0  0  0  0  0  0
  1  2  1  0
  2  3  1  0
  3  4  1  0
  3  5  2  0
  5  6  1  0
  6  7  1  0
  6  8  1  0
  6  9  1  0
  9 10  1  0
  9 11  1  0
  9 12  1  0
 12 13  1  0
 12 14  2  3
 14 15  1  0
 15 16  2  0
 16 17  1  0
 16 18  1  0
 18 19  1  0
 18 20  2  0
 20 21  1  0
 20 22  1  0
 22 23  1  0
 22 24  2  0
 24 25  1  0
 14 26  1  0
 26 27  2  0
 27 28  1  0
 27 29  1  0
 29 30  1  0
 29 31  2  0
 31 32  1  0
 31 33  1  0
 33 34  1  0
 33 35  2  0
 35 36  1  0
 24 15  1  0
 35 26  1  0
M  END
>  <UniqueID>  (71) 
40

>  <SMILES>  (71) 
O/C=N/CCC=C(c1ccccc1)c1ccccc1

>  <Energy>  (71) 
42.60420194488245

>  <Genealogy>  (71) 
OC=NCCC=C(c1ccccc1)c1ccccc1 (tautomer)
O/C=N/CCC=C(c1ccccc1)c1ccccc1 (cis-trans isomerization)
O/C=N/CCC=C(c1ccccc1)c1ccccc1 (3D coordinates assigned)
O/C=N/CCC=C(c1ccccc1)c1ccccc1 (optimized conformer: 42.60420194488245 kcal/mol)

>  <smiles>  (71) 
O=CNCCC=C(c1ccccc1)c1ccccc1

>  <score_type>  (71) 
oracle

>  <origin>  (71) 
autodockgpu

>  <m_score__min__energy>  (71) 
-5.6299999999999999

>  <m_primary>  (71) 
energy

>  <meeko>  (71) 
{"free_energy": -5.24, "intermolecular_energy": -7.62, "internal_energy": -0.97, "cluster_size": 8, "cluster_id": 2, "rank_in_cluster": 7}

>  <energy>  (71) 
-5.35

>  <cluster_rmsd>  (71) 
0.54

>  <rmsd>  (71) 
272.25

>  <cluster>  (71) 
2

$$$$
NYPVCQFMQXTFET-IVMHOSNPNA-N
     RDKit          3D

 36 37  0  0  0  0  0  0  0  0999 V2000
  141.9060   76.1320  222.0010 H   0  0  0  0  0  0  0  0  0  0  0  0
  140.9550   75.9050  222.2650 O   0  0  0  0  0  0  0  0  0  0  0  0
  140.2440   74.9130  221.5990 C   0  0  0  0  0  0  0  0  0  0  0  0
  139.9564   75.0569  220.5471 H   0  0  0  0  0  0  0  0  0  0  0  0
  139.9190   73.8190  222.2140 N   0  0  0  0  0  0  0  0  0  0  0  0
  140.6770   72.5820  222.0530 C   0  0  0  0  0  0  0  0  0  0  0  0
  141.2114   72.6061  221.0919 H   0  0  0  0  0  0  0  0  0  0  0  0
  141.3957   72.4917  222.8808 H   0  0  0  0  0  0  0  0  0  0  0  0
  139.7350   71.3770  222.0770 C   0  0  0  0  0  0  0  0  0  0  0  0
  138.6949   71.7351  222.0826 H   0  0  0  0  0  0  0  0  0  0  0  0
  139.9306   70.7650  221.1841 H   0  0  0  0  0  0  0  0  0  0  0  0
  139.9680   70.5250  223.2990 C   0  0  0  0  0  0  0  0  0  0  0  0
  140.8091   69.8166  223.2721 H   0  0  0  0  0  0  0  0  0  0  0  0
  139.2220   70.5660  224.4240 C   0  0  0  0  0  0  0  0  0  0  0  0
  139.8750   70.7570  225.7480 C   0  0  0  0  0  0  0  0  0  0  0  0
  140.6840   71.8830  226.0050 C   0  0  0  0  0  0  0  0  0  0  0  0
  140.8463   72.6309  225.2149 H   0  0  0  0  0  0  0  0  0  0  0  0
  141.2810   72.0550  227.2570 C   0  0  0  0  0  0  0  0  0  0  0  0
  141.9152   72.9336  227.4465 H   0  0  0  0  0  0  0  0  0  0  0  0
  141.0740   71.1130  228.2690 C   0  0  0  0  0  0  0  0  0  0  0  0
  141.5461   71.2497  229.2531 H   0  0  0  0  0  0  0  0  0  0  0  0
  140.2680   69.9990  228.0300 C   0  0  0  0  0  0  0  0  0  0  0  0
  140.1036   69.2594  228.8274 H   0  0  0  0  0  0  0  0  0  0  0  0
  139.6690   69.8210  226.7790 C   0  0  0  0  0  0  0  0  0  0  0  0
  139.0318   68.9426  226.5992 H   0  0  0  0  0  0  0  0  0  0  0  0
  137.7460   70.4360  224.3860 C   0  0  0  0  0  0  0  0  0  0  0  0
  137.1130   69.3000  224.9170 C   0  0  0  0  0  0  0  0  0  0  0  0
  137.7158   68.4879  225.3496 H   0  0  0  0  0  0  0  0  0  0  0  0
  135.7190   69.1990  224.8970 C   0  0  0  0  0  0  0  0  0  0  0  0
  135.2272   68.3040  225.3059 H   0  0  0  0  0  0  0  0  0  0  0  0
  134.9490   70.2340  224.3580 C   0  0  0  0  0  0  0  0  0  0  0  0
  133.8523   70.1508  224.3383 H   0  0  0  0  0  0  0  0  0  0  0  0
  135.5730   71.3750  223.8440 C   0  0  0  0  0  0  0  0  0  0  0  0
  134.9661   72.1911  223.4249 H   0  0  0  0  0  0  0  0  0  0  0  0
  136.9670   71.4800  223.8620 C   0  0  0  0  0  0  0  0  0  0  0  0
  137.4545   72.3825  223.4648 H   0  0  0  0  0  0  0  0  0  0  0  0
  1  2  1  0
  2  3  1  0
  3  4  1  0
  3  5  2  0
  5  6  1  0
  6  7  1  0
  6  8  1  0
  6  9  1  0
  9 10  1  0
  9 11  1  0
  9 12  1  0
 12 13  1  0
 12 14  2  3
 14 15  1  0
 15 16  2  0
 16 17  1  0
 16 18  1  0
 18 19  1  0
 18 20  2  0
 20 21  1  0
 20 22  1  0
 22 23  1  0
 22 24  2  0
 24 25  1  0
 14 26  1  0
 26 27  2  0
 27 28  1  0
 27 29  1  0
 29 30  1  0
 29 31  2  0
 31 32  1  0
 31 33  1  0
 33 34  1  0
 33 35  2  0
 35 36  1  0
 24 15  1  0
 35 26  1  0
M  END
>  <UniqueID>  (72) 
40

>  <SMILES>  (72) 
O/C=N/CCC=C(c1ccccc1)c1ccccc1

>  <Energy>  (72) 
42.60420194488245

>  <Genealogy>  (72) 
OC=NCCC=C(c1ccccc1)c1ccccc1 (tautomer)
O/C=N/CCC=C(c1ccccc1)c1ccccc1 (cis-trans isomerization)
O/C=N/CCC=C(c1ccccc1)c1ccccc1 (3D coordinates assigned)
O/C=N/CCC=C(c1ccccc1)c1ccccc1 (optimized conformer: 42.60420194488245 kcal/mol)

>  <smiles>  (72) 
O=CNCCC=C(c1ccccc1)c1ccccc1

>  <score_type>  (72) 
oracle

>  <origin>  (72) 
autodockgpu

>  <m_score__min__energy>  (72) 
-5.6299999999999999

>  <m_primary>  (72) 
energy

>  <meeko>  (72) 
{"free_energy": -5.47, "intermolecular_energy": -7.86, "internal_energy": -0.9, "cluster_size": 9, "cluster_id": 1, "rank_in_cluster": 8}

>  <energy>  (72) 
-5.33

>  <cluster_rmsd>  (72) 
0.6

>  <rmsd>  (72) 
272.26

>  <cluster>  (72) 
2

$$$$
NYPVCQFMQXTFET-IVMHOSNPNA-N
     RDKit          3D

 36 37  0  0  0  0  0  0  0  0999 V2000
  142.0530   76.3880  222.1770 H   0  0  0  0  0  0  0  0  0  0  0  0
  141.0750   76.1540  222.2950 O   0  0  0  0  0  0  0  0  0  0  0  0
  140.5010   75.0990  221.5940 C   0  0  0  0  0  0  0  0  0  0  0  0
  140.3086   75.1978  220.5155 H   0  0  0  0  0  0  0  0  0  0  0  0
  140.1920   74.0000  222.2070 N   0  0  0  0  0  0  0  0  0  0  0  0
  140.0940   72.7220  221.5090 C   0  0  0  0  0  0  0  0  0  0  0  0
  139.0349   72.4895  221.3238 H   0  0  0  0  0  0  0  0  0  0  0  0
  140.6359   72.7923  220.5543 H   0  0  0  0  0  0  0  0  0  0  0  0
  140.7150   71.6090  222.3540 C   0  0  0  0  0  0  0  0  0  0  0  0
  140.4262   70.6351  221.9319 H   0  0  0  0  0  0  0  0  0  0  0  0
  141.8081   71.7308  222.3394 H   0  0  0  0  0  0  0  0  0  0  0  0
  140.2470   71.6820  223.7860 C   0  0  0  0  0  0  0  0  0  0  0  0
  140.3916   72.6327  224.3201 H   0  0  0  0  0  0  0  0  0  0  0  0
  139.6640   70.6690  224.4620 C   0  0  0  0  0  0  0  0  0  0  0  0
  140.1710   70.2780  225.8050 C   0  0  0  0  0  0  0  0  0  0  0  0
  140.6180   71.2470  226.7260 C   0  0  0  0  0  0  0  0  0  0  0  0
  140.6032   72.3114  226.4490 H   0  0  0  0  0  0  0  0  0  0  0  0
  141.0800   70.8650  227.9890 C   0  0  0  0  0  0  0  0  0  0  0  0
  141.4318   71.6284  228.6986 H   0  0  0  0  0  0  0  0  0  0  0  0
  141.0960   69.5160  228.3520 C   0  0  0  0  0  0  0  0  0  0  0  0
  141.4614   69.2178  229.3457 H   0  0  0  0  0  0  0  0  0  0  0  0
  140.6480   68.5470  227.4530 C   0  0  0  0  0  0  0  0  0  0  0  0
  140.6591   67.4852  227.7400 H   0  0  0  0  0  0  0  0  0  0  0  0
  140.1850   68.9230  226.1880 C   0  0  0  0  0  0  0  0  0  0  0  0
  139.8289   68.1541  225.4866 H   0  0  0  0  0  0  0  0  0  0  0  0
  138.5080   69.9260  223.9090 C   0  0  0  0  0  0  0  0  0  0  0  0
  137.1930   70.3340  224.1880 C   0  0  0  0  0  0  0  0  0  0  0  0
  137.0148   71.2021  224.8396 H   0  0  0  0  0  0  0  0  0  0  0  0
  136.1100   69.6400  223.6400 C   0  0  0  0  0  0  0  0  0  0  0  0
  135.0817   69.9575  223.8677 H   0  0  0  0  0  0  0  0  0  0  0  0
  136.3330   68.5430  222.8030 C   0  0  0  0  0  0  0  0  0  0  0  0
  135.4799   67.9947  222.3768 H   0  0  0  0  0  0  0  0  0  0  0  0
  137.6390   68.1420  222.5070 C   0  0  0  0  0  0  0  0  0  0  0  0
  137.8128   67.2815  221.8441 H   0  0  0  0  0  0  0  0  0  0  0  0
  138.7250   68.8340  223.0530 C   0  0  0  0  0  0  0  0  0  0  0  0
  139.7518   68.5221  222.8113 H   0  0  0  0  0  0  0  0  0  0  0  0
  1  2  1  0
  2  3  1  0
  3  4  1  0
  3  5  2  0
  5  6  1  0
  6  7  1  0
  6  8  1  0
  6  9  1  0
  9 10  1  0
  9 11  1  0
  9 12  1  0
 12 13  1  0
 12 14  2  3
 14 15  1  0
 15 16  2  0
 16 17  1  0
 16 18  1  0
 18 19  1  0
 18 20  2  0
 20 21  1  0
 20 22  1  0
 22 23  1  0
 22 24  2  0
 24 25  1  0
 14 26  1  0
 26 27  2  0
 27 28  1  0
 27 29  1  0
 29 30  1  0
 29 31  2  0
 31 32  1  0
 31 33  1  0
 33 34  1  0
 33 35  2  0
 35 36  1  0
 24 15  1  0
 35 26  1  0
M  END
>  <UniqueID>  (73) 
40

>  <SMILES>  (73) 
O/C=N/CCC=C(c1ccccc1)c1ccccc1

>  <Energy>  (73) 
42.60420194488245

>  <Genealogy>  (73) 
OC=NCCC=C(c1ccccc1)c1ccccc1 (tautomer)
O/C=N/CCC=C(c1ccccc1)c1ccccc1 (cis-trans isomerization)
O/C=N/CCC=C(c1ccccc1)c1ccccc1 (3D coordinates assigned)
O/C=N/CCC=C(c1ccccc1)c1ccccc1 (optimized conformer: 42.60420194488245 kcal/mol)

>  <smiles>  (73) 
O=CNCCC=C(c1ccccc1)c1ccccc1

>  <score_type>  (73) 
oracle

>  <origin>  (73) 
autodockgpu

>  <m_score__min__energy>  (73) 
-5.6299999999999999

>  <m_primary>  (73) 
energy

>  <meeko>  (73) 
{"free_energy": -5.63, "intermolecular_energy": -8.01, "internal_energy": -0.9, "cluster_size": 9, "cluster_id": 1, "rank_in_cluster": 3}

>  <energy>  (73) 
-5.27

>  <cluster_rmsd>  (73) 
0.81

>  <rmsd>  (73) 
272.19

>  <cluster>  (73) 
2

$$$$
NYPVCQFMQXTFET-IVMHOSNPNA-N
     RDKit          3D

 36 37  0  0  0  0  0  0  0  0999 V2000
  142.0190   76.2820  222.0770 H   0  0  0  0  0  0  0  0  0  0  0  0
  141.0620   76.1260  222.3700 O   0  0  0  0  0  0  0  0  0  0  0  0
  140.2220   75.2800  221.6540 C   0  0  0  0  0  0  0  0  0  0  0  0
  139.7738   75.6223  220.7096 H   0  0  0  0  0  0  0  0  0  0  0  0
  139.9660   74.0890  222.0970 N   0  0  0  0  0  0  0  0  0  0  0  0
  140.0770   72.9060  221.2500 C   0  0  0  0  0  0  0  0  0  0  0  0
  139.0768   72.6199  220.8925 H   0  0  0  0  0  0  0  0  0  0  0  0
  140.7296   73.1366  220.3951 H   0  0  0  0  0  0  0  0  0  0  0  0
  140.6820   71.7450  222.0410 C   0  0  0  0  0  0  0  0  0  0  0  0
  140.2413   70.8016  221.6864 H   0  0  0  0  0  0  0  0  0  0  0  0
  141.7709   71.7485  221.8850 H   0  0  0  0  0  0  0  0  0  0  0  0
  140.4120   71.8890  223.5180 C   0  0  0  0  0  0  0  0  0  0  0  0
  140.6952   72.8383  223.9962 H   0  0  0  0  0  0  0  0  0  0  0  0
  139.8490   70.9410  224.2980 C   0  0  0  0  0  0  0  0  0  0  0  0
  138.7560   70.0850  223.7610 C   0  0  0  0  0  0  0  0  0  0  0  0
  139.0400   68.9200  223.0190 C   0  0  0  0  0  0  0  0  0  0  0  0
  140.0852   68.6395  222.8220 H   0  0  0  0  0  0  0  0  0  0  0  0
  138.0030   68.1190  222.5320 C   0  0  0  0  0  0  0  0  0  0  0  0
  138.2345   67.2156  221.9486 H   0  0  0  0  0  0  0  0  0  0  0  0
  136.6730   68.4640  222.7850 C   0  0  0  0  0  0  0  0  0  0  0  0
  135.8586   67.8322  222.4008 H   0  0  0  0  0  0  0  0  0  0  0  0
  136.3770   69.6100  223.5250 C   0  0  0  0  0  0  0  0  0  0  0  0
  135.3294   69.8803  223.7238 H   0  0  0  0  0  0  0  0  0  0  0  0
  137.4110   70.4150  224.0140 C   0  0  0  0  0  0  0  0  0  0  0  0
  137.1712   71.3137  224.6013 H   0  0  0  0  0  0  0  0  0  0  0  0
  140.2960   70.7110  225.6910 C   0  0  0  0  0  0  0  0  0  0  0  0
  140.7450   71.7790  226.4850 C   0  0  0  0  0  0  0  0  0  0  0  0
  140.7845   72.7953  226.0659 H   0  0  0  0  0  0  0  0  0  0  0  0
  141.1420   71.5540  227.8070 C   0  0  0  0  0  0  0  0  0  0  0  0
  141.5026   72.3913  228.4225 H   0  0  0  0  0  0  0  0  0  0  0  0
  141.0810   70.2660  228.3470 C   0  0  0  0  0  0  0  0  0  0  0  0
  141.3973   70.0896  229.3857 H   0  0  0  0  0  0  0  0  0  0  0  0
  140.6180   69.2020  227.5670 C   0  0  0  0  0  0  0  0  0  0  0  0
  140.5661   68.1897  227.9942 H   0  0  0  0  0  0  0  0  0  0  0  0
  140.2210   69.4230  226.2450 C   0  0  0  0  0  0  0  0  0  0  0  0
  139.8487   68.5853  225.6369 H   0  0  0  0  0  0  0  0  0  0  0  0
  1  2  1  0
  2  3  1  0
  3  4  1  0
  3  5  2  0
  5  6  1  0
  6  7  1  0
  6  8  1  0
  6  9  1  0
  9 10  1  0
  9 11  1  0
  9 12  1  0
 12 13  1  0
 12 14  2  3
 14 15  1  0
 15 16  2  0
 16 17  1  0
 16 18  1  0
 18 19  1  0
 18 20  2  0
 20 21  1  0
 20 22  1  0
 22 23  1  0
 22 24  2  0
 24 25  1  0
 14 26  1  0
 26 27  2  0
 27 28  1  0
 27 29  1  0
 29 30  1  0
 29 31  2  0
 31 32  1  0
 31 33  1  0
 33 34  1  0
 33 35  2  0
 35 36  1  0
 24 15  1  0
 35 26  1  0
M  END
>  <UniqueID>  (74) 
40

>  <SMILES>  (74) 
O/C=N/CCC=C(c1ccccc1)c1ccccc1

>  <Energy>  (74) 
42.60420194488245

>  <Genealogy>  (74) 
OC=NCCC=C(c1ccccc1)c1ccccc1 (tautomer)
O/C=N/CCC=C(c1ccccc1)c1ccccc1 (cis-trans isomerization)
O/C=N/CCC=C(c1ccccc1)c1ccccc1 (3D coordinates assigned)
O/C=N/CCC=C(c1ccccc1)c1ccccc1 (optimized conformer: 42.60420194488245 kcal/mol)

>  <smiles>  (74) 
O=CNCCC=C(c1ccccc1)c1ccccc1

>  <score_type>  (74) 
oracle

>  <origin>  (74) 
autodockgpu

>  <m_score__min__energy>  (74) 
-5.6299999999999999

>  <m_primary>  (74) 
energy

>  <meeko>  (74) 
{"free_energy": -5.61, "intermolecular_energy": -8.0, "internal_energy": -0.93, "cluster_size": 9, "cluster_id": 1, "rank_in_cluster": 5}

>  <energy>  (74) 
-5.26

>  <cluster_rmsd>  (74) 
0.84

>  <rmsd>  (74) 
272.15

>  <cluster>  (74) 
2

$$$$
NYPVCQFMQXTFET-IVMHOSNPNA-N
     RDKit          3D

 36 37  0  0  0  0  0  0  0  0999 V2000
  134.3290   66.2800  224.1550 H   0  0  0  0  0  0  0  0  0  0  0  0
  134.2030   67.2680  224.3410 O   0  0  0  0  0  0  0  0  0  0  0  0
  134.6480   68.2290  223.4390 C   0  0  0  0  0  0  0  0  0  0  0  0
  133.9242   68.7679  222.8099 H   0  0  0  0  0  0  0  0  0  0  0  0
  135.9140   68.4910  223.3380 N   0  0  0  0  0  0  0  0  0  0  0  0
  136.7710   67.8180  222.3660 C   0  0  0  0  0  0  0  0  0  0  0  0
  136.6645   66.7291  222.4803 H   0  0  0  0  0  0  0  0  0  0  0  0
  136.4700   68.1206  221.3522 H   0  0  0  0  0  0  0  0  0  0  0  0
  138.2330   68.2090  222.5900 C   0  0  0  0  0  0  0  0  0  0  0  0
  138.8773   67.3609  222.3148 H   0  0  0  0  0  0  0  0  0  0  0  0
  138.4581   69.0863  221.9657 H   0  0  0  0  0  0  0  0  0  0  0  0
  138.4870   68.5720  224.0330 C   0  0  0  0  0  0  0  0  0  0  0  0
  138.1005   67.8899  224.8046 H   0  0  0  0  0  0  0  0  0  0  0  0
  139.1530   69.6710  224.4480 C   0  0  0  0  0  0  0  0  0  0  0  0
  139.8170   69.6830  225.7800 C   0  0  0  0  0  0  0  0  0  0  0  0
  140.2420   70.8910  226.3710 C   0  0  0  0  0  0  0  0  0  0  0  0
  140.0929   71.8419  225.8385 H   0  0  0  0  0  0  0  0  0  0  0  0
  140.8510   70.8880  227.6280 C   0  0  0  0  0  0  0  0  0  0  0  0
  141.1843   71.8347  228.0783 H   0  0  0  0  0  0  0  0  0  0  0  0
  141.0380   69.6860  228.3150 C   0  0  0  0  0  0  0  0  0  0  0  0
  141.5193   69.6868  229.3041 H   0  0  0  0  0  0  0  0  0  0  0  0
  140.6140   68.4840  227.7460 C   0  0  0  0  0  0  0  0  0  0  0  0
  140.7606   67.5379  228.2877 H   0  0  0  0  0  0  0  0  0  0  0  0
  140.0030   68.4810  226.4880 C   0  0  0  0  0  0  0  0  0  0  0  0
  139.6650   67.5311  226.0482 H   0  0  0  0  0  0  0  0  0  0  0  0
  139.2580   70.8840  223.6030 C   0  0  0  0  0  0  0  0  0  0  0  0
  140.5140   71.3870  223.2260 C   0  0  0  0  0  0  0  0  0  0  0  0
  141.4315   70.8899  223.5738 H   0  0  0  0  0  0  0  0  0  0  0  0
  140.6000   72.5190  222.4090 C   0  0  0  0  0  0  0  0  0  0  0  0
  141.5851   72.9165  222.1233 H   0  0  0  0  0  0  0  0  0  0  0  0
  139.4360   73.1460  221.9550 C   0  0  0  0  0  0  0  0  0  0  0  0
  139.5058   74.0386  221.3159 H   0  0  0  0  0  0  0  0  0  0  0  0
  138.1830   72.6390  222.3130 C   0  0  0  0  0  0  0  0  0  0  0  0
  137.2676   73.1303  221.9516 H   0  0  0  0  0  0  0  0  0  0  0  0
  138.0930   71.5080  223.1300 C   0  0  0  0  0  0  0  0  0  0  0  0
  137.1062   71.1059  223.4030 H   0  0  0  0  0  0  0  0  0  0  0  0
  1  2  1  0
  2  3  1  0
  3  4  1  0
  3  5  2  0
  5  6  1  0
  6  7  1  0
  6  8  1  0
  6  9  1  0
  9 10  1  0
  9 11  1  0
  9 12  1  0
 12 13  1  0
 12 14  2  3
 14 15  1  0
 15 16  2  0
 16 17  1  0
 16 18  1  0
 18 19  1  0
 18 20  2  0
 20 21  1  0
 20 22  1  0
 22 23  1  0
 22 24  2  0
 24 25  1  0
 14 26  1  0
 26 27  2  0
 27 28  1  0
 27 29  1  0
 29 30  1  0
 29 31  2  0
 31 32  1  0
 31 33  1  0
 33 34  1  0
 33 35  2  0
 35 36  1  0
 24 15  1  0
 35 26  1  0
M  END
>  <UniqueID>  (75) 
40

>  <SMILES>  (75) 
O/C=N/CCC=C(c1ccccc1)c1ccccc1

>  <Energy>  (75) 
42.60420194488245

>  <Genealogy>  (75) 
OC=NCCC=C(c1ccccc1)c1ccccc1 (tautomer)
O/C=N/CCC=C(c1ccccc1)c1ccccc1 (cis-trans isomerization)
O/C=N/CCC=C(c1ccccc1)c1ccccc1 (3D coordinates assigned)
O/C=N/CCC=C(c1ccccc1)c1ccccc1 (optimized conformer: 42.60420194488245 kcal/mol)

>  <smiles>  (75) 
O=CNCCC=C(c1ccccc1)c1ccccc1

>  <score_type>  (75) 
oracle

>  <origin>  (75) 
autodockgpu

>  <m_score__min__energy>  (75) 
-5.6299999999999999

>  <m_primary>  (75) 
energy

>  <meeko>  (75) 
{"free_energy": -5.12, "intermolecular_energy": -7.51, "internal_energy": -0.91, "cluster_size": 1, "cluster_id": 5, "rank_in_cluster": 1}

>  <energy>  (75) 
-5.25

>  <cluster_rmsd>  (75) 
0.62

>  <rmsd>  (75) 
272.25

>  <cluster>  (75) 
2

$$$$
NYPVCQFMQXTFET-IVMHOSNPNA-N
     RDKit          3D

 36 37  0  0  0  0  0  0  0  0999 V2000
  142.0090   76.1490  221.9870 H   0  0  0  0  0  0  0  0  0  0  0  0
  141.0590   75.9480  222.2750 O   0  0  0  0  0  0  0  0  0  0  0  0
  140.3090   74.9670  221.6330 C   0  0  0  0  0  0  0  0  0  0  0  0
  140.0227   75.0974  220.5790 H   0  0  0  0  0  0  0  0  0  0  0  0
  139.9470   73.9000  222.2740 N   0  0  0  0  0  0  0  0  0  0  0  0
  139.8730   72.5940  221.6270 C   0  0  0  0  0  0  0  0  0  0  0  0
  138.8234   72.2672  221.5875 H   0  0  0  0  0  0  0  0  0  0  0  0
  140.2802   72.6750  220.6084 H   0  0  0  0  0  0  0  0  0  0  0  0
  140.6920   71.5680  222.4110 C   0  0  0  0  0  0  0  0  0  0  0  0
  140.4896   70.5645  222.0084 H   0  0  0  0  0  0  0  0  0  0  0  0
  141.7574   71.8210  222.3069 H   0  0  0  0  0  0  0  0  0  0  0  0
  140.3380   71.5900  223.8770 C   0  0  0  0  0  0  0  0  0  0  0  0
  140.6007   72.4916  224.4497 H   0  0  0  0  0  0  0  0  0  0  0  0
  139.7230   70.5870  224.5400 C   0  0  0  0  0  0  0  0  0  0  0  0
  138.5670   69.8820  223.9210 C   0  0  0  0  0  0  0  0  0  0  0  0
  137.2430   70.3000  224.1660 C   0  0  0  0  0  0  0  0  0  0  0  0
  137.0541   71.1542  224.8329 H   0  0  0  0  0  0  0  0  0  0  0  0
  136.1690   69.6360  223.5670 C   0  0  0  0  0  0  0  0  0  0  0  0
  135.1392   69.9658  223.7688 H   0  0  0  0  0  0  0  0  0  0  0  0
  136.3990   68.5550  222.7130 C   0  0  0  0  0  0  0  0  0  0  0  0
  135.5511   68.0338  222.2446 H   0  0  0  0  0  0  0  0  0  0  0  0
  137.7060   68.1360  222.4540 C   0  0  0  0  0  0  0  0  0  0  0  0
  137.8871   67.2857  221.7801 H   0  0  0  0  0  0  0  0  0  0  0  0
  138.7850   68.7970  223.0510 C   0  0  0  0  0  0  0  0  0  0  0  0
  139.8123   68.4660  222.8387 H   0  0  0  0  0  0  0  0  0  0  0  0
  140.1720   70.1470  225.8810 C   0  0  0  0  0  0  0  0  0  0  0  0
  140.2170   68.7820  226.2110 C   0  0  0  0  0  0  0  0  0  0  0  0
  139.8981   68.0291  225.4752 H   0  0  0  0  0  0  0  0  0  0  0  0
  140.6660   68.3780  227.4720 C   0  0  0  0  0  0  0  0  0  0  0  0
  140.6910   67.3089  227.7298 H   0  0  0  0  0  0  0  0  0  0  0  0
  141.0830   69.3310  228.4050 C   0  0  0  0  0  0  0  0  0  0  0  0
  141.4312   69.0118  229.3984 H   0  0  0  0  0  0  0  0  0  0  0  0
  141.0580   70.6900  228.0770 C   0  0  0  0  0  0  0  0  0  0  0  0
  141.3917   71.4387  228.8105 H   0  0  0  0  0  0  0  0  0  0  0  0
  140.6090   71.0980  226.8170 C   0  0  0  0  0  0  0  0  0  0  0  0
  140.5981   72.1671  226.5584 H   0  0  0  0  0  0  0  0  0  0  0  0
  1  2  1  0
  2  3  1  0
  3  4  1  0
  3  5  2  0
  5  6  1  0
  6  7  1  0
  6  8  1  0
  6  9  1  0
  9 10  1  0
  9 11  1  0
  9 12  1  0
 12 13  1  0
 12 14  2  3
 14 15  1  0
 15 16  2  0
 16 17  1  0
 16 18  1  0
 18 19  1  0
 18 20  2  0
 20 21  1  0
 20 22  1  0
 22 23  1  0
 22 24  2  0
 24 25  1  0
 14 26  1  0
 26 27  2  0
 27 28  1  0
 27 29  1  0
 29 30  1  0
 29 31  2  0
 31 32  1  0
 31 33  1  0
 33 34  1  0
 33 35  2  0
 35 36  1  0
 24 15  1  0
 35 26  1  0
M  END
>  <UniqueID>  (76) 
40

>  <SMILES>  (76) 
O/C=N/CCC=C(c1ccccc1)c1ccccc1

>  <Energy>  (76) 
42.60420194488245

>  <Genealogy>  (76) 
OC=NCCC=C(c1ccccc1)c1ccccc1 (tautomer)
O/C=N/CCC=C(c1ccccc1)c1ccccc1 (cis-trans isomerization)
O/C=N/CCC=C(c1ccccc1)c1ccccc1 (3D coordinates assigned)
O/C=N/CCC=C(c1ccccc1)c1ccccc1 (optimized conformer: 42.60420194488245 kcal/mol)

>  <smiles>  (76) 
O=CNCCC=C(c1ccccc1)c1ccccc1

>  <score_type>  (76) 
oracle

>  <origin>  (76) 
autodockgpu

>  <m_score__min__energy>  (76) 
-5.6299999999999999

>  <m_primary>  (76) 
energy

>  <meeko>  (76) 
{"free_energy": -5.63, "intermolecular_energy": -8.02, "internal_energy": -0.93, "cluster_size": 9, "cluster_id": 1, "rank_in_cluster": 2}

>  <energy>  (76) 
-5.24

>  <cluster_rmsd>  (76) 
0.59

>  <rmsd>  (76) 
272.25

>  <cluster>  (76) 
2

$$$$
NYPVCQFMQXTFET-IVMHOSNPNA-N
     RDKit          3D

 36 37  0  0  0  0  0  0  0  0999 V2000
  138.4760   74.6610  223.0730 H   0  0  0  0  0  0  0  0  0  0  0  0
  139.2050   75.2590  222.7010 O   0  0  0  0  0  0  0  0  0  0  0  0
  140.0510   74.8130  221.6920 C   0  0  0  0  0  0  0  0  0  0  0  0
  139.8995   75.1561  220.6579 H   0  0  0  0  0  0  0  0  0  0  0  0
  141.0180   73.9940  221.9660 N   0  0  0  0  0  0  0  0  0  0  0  0
  140.8870   72.5510  221.7900 C   0  0  0  0  0  0  0  0  0  0  0  0
  140.7176   72.3288  220.7261 H   0  0  0  0  0  0  0  0  0  0  0  0
  141.8107   72.0625  222.1336 H   0  0  0  0  0  0  0  0  0  0  0  0
  139.7090   72.0230  222.6100 C   0  0  0  0  0  0  0  0  0  0  0  0
  138.9943   72.8419  222.7787 H   0  0  0  0  0  0  0  0  0  0  0  0
  139.2361   71.2028  222.0499 H   0  0  0  0  0  0  0  0  0  0  0  0
  140.1660   71.4870  223.9440 C   0  0  0  0  0  0  0  0  0  0  0  0
  141.0142   71.9905  224.4308 H   0  0  0  0  0  0  0  0  0  0  0  0
  139.6120   70.4350  224.5860 C   0  0  0  0  0  0  0  0  0  0  0  0
  138.5000   69.6750  223.9530 C   0  0  0  0  0  0  0  0  0  0  0  0
  137.1540   69.9650  224.2580 C   0  0  0  0  0  0  0  0  0  0  0  0
  136.9166   70.7579  224.9826 H   0  0  0  0  0  0  0  0  0  0  0  0
  136.1200   69.2520  223.6460 C   0  0  0  0  0  0  0  0  0  0  0  0
  135.0733   69.4816  223.8945 H   0  0  0  0  0  0  0  0  0  0  0  0
  136.4120   68.2480  222.7190 C   0  0  0  0  0  0  0  0  0  0  0  0
  135.5959   67.6871  222.2400 H   0  0  0  0  0  0  0  0  0  0  0  0
  137.7400   67.9570  222.4010 C   0  0  0  0  0  0  0  0  0  0  0  0
  137.9694   67.1673  221.6704 H   0  0  0  0  0  0  0  0  0  0  0  0
  138.7790   68.6680  223.0100 C   0  0  0  0  0  0  0  0  0  0  0  0
  139.8228   68.4384  222.7499 H   0  0  0  0  0  0  0  0  0  0  0  0
  140.0890   69.9960  225.9180 C   0  0  0  0  0  0  0  0  0  0  0  0
  140.1220   68.6330  226.2540 C   0  0  0  0  0  0  0  0  0  0  0  0
  139.7741   67.8811  225.5304 H   0  0  0  0  0  0  0  0  0  0  0  0
  140.5960   68.2290  227.5060 C   0  0  0  0  0  0  0  0  0  0  0  0
  140.6108   67.1611  227.7695 H   0  0  0  0  0  0  0  0  0  0  0  0
  141.0510   69.1810  228.4230 C   0  0  0  0  0  0  0  0  0  0  0  0
  141.4194   68.8623  229.4093 H   0  0  0  0  0  0  0  0  0  0  0  0
  141.0380   70.5380  228.0870 C   0  0  0  0  0  0  0  0  0  0  0  0
  141.4013   71.2857  228.8074 H   0  0  0  0  0  0  0  0  0  0  0  0
  140.5640   70.9460  226.8370 C   0  0  0  0  0  0  0  0  0  0  0  0
  140.5630   72.0137  226.5724 H   0  0  0  0  0  0  0  0  0  0  0  0
  1  2  1  0
  2  3  1  0
  3  4  1  0
  3  5  2  0
  5  6  1  0
  6  7  1  0
  6  8  1  0
  6  9  1  0
  9 10  1  0
  9 11  1  0
  9 12  1  0
 12 13  1  0
 12 14  2  3
 14 15  1  0
 15 16  2  0
 16 17  1  0
 16 18  1  0
 18 19  1  0
 18 20  2  0
 20 21  1  0
 20 22  1  0
 22 23  1  0
 22 24  2  0
 24 25  1  0
 14 26  1  0
 26 27  2  0
 27 28  1  0
 27 29  1  0
 29 30  1  0
 29 31  2  0
 31 32  1  0
 31 33  1  0
 33 34  1  0
 33 35  2  0
 35 36  1  0
 24 15  1  0
 35 26  1  0
M  END
>  <UniqueID>  (77) 
40

>  <SMILES>  (77) 
O/C=N/CCC=C(c1ccccc1)c1ccccc1

>  <Energy>  (77) 
42.60420194488245

>  <Genealogy>  (77) 
OC=NCCC=C(c1ccccc1)c1ccccc1 (tautomer)
O/C=N/CCC=C(c1ccccc1)c1ccccc1 (cis-trans isomerization)
O/C=N/CCC=C(c1ccccc1)c1ccccc1 (3D coordinates assigned)
O/C=N/CCC=C(c1ccccc1)c1ccccc1 (optimized conformer: 42.60420194488245 kcal/mol)

>  <smiles>  (77) 
O=CNCCC=C(c1ccccc1)c1ccccc1

>  <score_type>  (77) 
oracle

>  <origin>  (77) 
autodockgpu

>  <m_score__min__energy>  (77) 
-5.6299999999999999

>  <m_primary>  (77) 
energy

>  <meeko>  (77) 
{"free_energy": -5.63, "intermolecular_energy": -8.02, "internal_energy": -0.85, "cluster_size": 9, "cluster_id": 1, "rank_in_cluster": 1}

>  <energy>  (77) 
-5.22

>  <cluster_rmsd>  (77) 
0.85

>  <rmsd>  (77) 
272.11

>  <cluster>  (77) 
2

$$$$
NYPVCQFMQXTFET-IVMHOSNPNA-N
     RDKit          3D

 36 37  0  0  0  0  0  0  0  0999 V2000
  139.0560   73.9690  222.8290 H   0  0  0  0  0  0  0  0  0  0  0  0
  139.9410   73.9800  222.3370 O   0  0  0  0  0  0  0  0  0  0  0  0
  140.3310   75.0860  221.5900 C   0  0  0  0  0  0  0  0  0  0  0  0
  140.8337   74.9442  220.6219 H   0  0  0  0  0  0  0  0  0  0  0  0
  140.1040   76.2840  222.0310 N   0  0  0  0  0  0  0  0  0  0  0  0
  138.8010   76.6850  222.5520 C   0  0  0  0  0  0  0  0  0  0  0  0
  138.0536   75.9226  222.2871 H   0  0  0  0  0  0  0  0  0  0  0  0
  138.8666   76.7829  223.6457 H   0  0  0  0  0  0  0  0  0  0  0  0
  138.3840   78.0300  221.9550 C   0  0  0  0  0  0  0  0  0  0  0  0
  139.2629   78.5065  221.4963 H   0  0  0  0  0  0  0  0  0  0  0  0
  137.6028   77.8489  221.2021 H   0  0  0  0  0  0  0  0  0  0  0  0
  137.8230   78.9480  223.0130 C   0  0  0  0  0  0  0  0  0  0  0  0
  136.8105   78.7350  223.3865 H   0  0  0  0  0  0  0  0  0  0  0  0
  138.4710   80.0120  223.5360 C   0  0  0  0  0  0  0  0  0  0  0  0
  139.9470   80.1310  223.3930 C   0  0  0  0  0  0  0  0  0  0  0  0
  140.5310   81.2650  222.7910 C   0  0  0  0  0  0  0  0  0  0  0  0
  139.8891   82.0727  222.4096 H   0  0  0  0  0  0  0  0  0  0  0  0
  141.9200   81.3690  222.6760 C   0  0  0  0  0  0  0  0  0  0  0  0
  142.3663   82.2546  222.2001 H   0  0  0  0  0  0  0  0  0  0  0  0
  142.7430   80.3510  223.1640 C   0  0  0  0  0  0  0  0  0  0  0  0
  143.8358   80.4349  223.0704 H   0  0  0  0  0  0  0  0  0  0  0  0
  142.1790   79.2280  223.7700 C   0  0  0  0  0  0  0  0  0  0  0  0
  142.8280   78.4279  224.1556 H   0  0  0  0  0  0  0  0  0  0  0  0
  140.7900   79.1180  223.8880 C   0  0  0  0  0  0  0  0  0  0  0  0
  140.3523   78.2323  224.3717 H   0  0  0  0  0  0  0  0  0  0  0  0
  137.7480   81.0900  224.2500 C   0  0  0  0  0  0  0  0  0  0  0  0
  137.2960   82.2280  223.5620 C   0  0  0  0  0  0  0  0  0  0  0  0
  137.4947   82.3334  222.4852 H   0  0  0  0  0  0  0  0  0  0  0  0
  136.5940   83.2270  224.2430 C   0  0  0  0  0  0  0  0  0  0  0  0
  136.2488   84.1209  223.7028 H   0  0  0  0  0  0  0  0  0  0  0  0
  136.3300   83.0920  225.6090 C   0  0  0  0  0  0  0  0  0  0  0  0
  135.7830   83.8822  226.1441 H   0  0  0  0  0  0  0  0  0  0  0  0
  136.7610   81.9530  226.2950 C   0  0  0  0  0  0  0  0  0  0  0  0
  136.5468   81.8447  227.3685 H   0  0  0  0  0  0  0  0  0  0  0  0
  137.4640   80.9510  225.6190 C   0  0  0  0  0  0  0  0  0  0  0  0
  137.7953   80.0523  226.1600 H   0  0  0  0  0  0  0  0  0  0  0  0
  1  2  1  0
  2  3  1  0
  3  4  1  0
  3  5  2  0
  5  6  1  0
  6  7  1  0
  6  8  1  0
  6  9  1  0
  9 10  1  0
  9 11  1  0
  9 12  1  0
 12 13  1  0
 12 14  2  3
 14 15  1  0
 15 16  2  0
 16 17  1  0
 16 18  1  0
 18 19  1  0
 18 20  2  0
 20 21  1  0
 20 22  1  0
 22 23  1  0
 22 24  2  0
 24 25  1  0
 14 26  1  0
 26 27  2  0
 27 28  1  0
 27 29  1  0
 29 30  1  0
 29 31  2  0
 31 32  1  0
 31 33  1  0
 33 34  1  0
 33 35  2  0
 35 36  1  0
 24 15  1  0
 35 26  1  0
M  END
>  <UniqueID>  (78) 
40

>  <SMILES>  (78) 
O/C=N/CCC=C(c1ccccc1)c1ccccc1

>  <Energy>  (78) 
42.60420194488245

>  <Genealogy>  (78) 
OC=NCCC=C(c1ccccc1)c1ccccc1 (tautomer)
O/C=N/CCC=C(c1ccccc1)c1ccccc1 (cis-trans isomerization)
O/C=N/CCC=C(c1ccccc1)c1ccccc1 (3D coordinates assigned)
O/C=N/CCC=C(c1ccccc1)c1ccccc1 (optimized conformer: 42.60420194488245 kcal/mol)

>  <smiles>  (78) 
O=CNCCC=C(c1ccccc1)c1ccccc1

>  <score_type>  (78) 
oracle

>  <origin>  (78) 
autodockgpu

>  <m_score__min__energy>  (78) 
-5.6299999999999999

>  <m_primary>  (78) 
energy

>  <meeko>  (78) 
{"free_energy": -5.28, "intermolecular_energy": -7.67, "internal_energy": -0.9, "cluster_size": 1, "cluster_id": 4, "rank_in_cluster": 1}

>  <energy>  (78) 
-5.35

>  <cluster_rmsd>  (78) 
0.0

>  <rmsd>  (78) 
272.05

>  <cluster>  (78) 
3

$$$$
NYPVCQFMQXTFET-IVMHOSNPNA-N
     RDKit          3D

 36 37  0  0  0  0  0  0  0  0999 V2000
  142.0270   76.2570  222.0870 H   0  0  0  0  0  0  0  0  0  0  0  0
  141.0690   76.0570  222.3480 O   0  0  0  0  0  0  0  0  0  0  0  0
  140.2980   75.1630  221.6120 C   0  0  0  0  0  0  0  0  0  0  0  0
  139.9515   75.4374  220.6047 H   0  0  0  0  0  0  0  0  0  0  0  0
  139.9870   74.0080  222.1100 N   0  0  0  0  0  0  0  0  0  0  0  0
  140.2540   72.7590  221.4030 C   0  0  0  0  0  0  0  0  0  0  0  0
  139.3074   72.3477  221.0225 H   0  0  0  0  0  0  0  0  0  0  0  0
  140.9399   72.9601  220.5669 H   0  0  0  0  0  0  0  0  0  0  0  0
  140.9020   71.7450  222.3460 C   0  0  0  0  0  0  0  0  0  0  0  0
  140.7210   70.7307  221.9608 H   0  0  0  0  0  0  0  0  0  0  0  0
  141.9805   71.9556  222.3948 H   0  0  0  0  0  0  0  0  0  0  0  0
  140.3320   71.8510  223.7390 C   0  0  0  0  0  0  0  0  0  0  0  0
  140.3908   72.8288  224.2394 H   0  0  0  0  0  0  0  0  0  0  0  0
  139.7550   70.8360  224.4180 C   0  0  0  0  0  0  0  0  0  0  0  0
  140.2270   70.4890  225.7860 C   0  0  0  0  0  0  0  0  0  0  0  0
  140.6430   71.4890  226.6880 C   0  0  0  0  0  0  0  0  0  0  0  0
  140.6299   72.5442  226.3777 H   0  0  0  0  0  0  0  0  0  0  0  0
  141.0720   71.1490  227.9740 C   0  0  0  0  0  0  0  0  0  0  0  0
  141.4009   71.9359  228.6688 H   0  0  0  0  0  0  0  0  0  0  0  0
  141.0840   69.8120  228.3790 C   0  0  0  0  0  0  0  0  0  0  0  0
  141.4228   69.5471  229.3914 H   0  0  0  0  0  0  0  0  0  0  0  0
  140.6660   68.8120  227.4990 C   0  0  0  0  0  0  0  0  0  0  0  0
  140.6742   67.7596  227.8191 H   0  0  0  0  0  0  0  0  0  0  0  0
  140.2370   69.1470  226.2110 C   0  0  0  0  0  0  0  0  0  0  0  0
  139.9044   68.3550  225.5239 H   0  0  0  0  0  0  0  0  0  0  0  0
  138.6410   70.0460  223.8420 C   0  0  0  0  0  0  0  0  0  0  0  0
  138.8970   68.9780  222.9670 C   0  0  0  0  0  0  0  0  0  0  0  0
  139.9325   68.7330  222.6883 H   0  0  0  0  0  0  0  0  0  0  0  0
  137.8380   68.2250  222.4490 C   0  0  0  0  0  0  0  0  0  0  0  0
  138.0414   67.3948  221.7566 H   0  0  0  0  0  0  0  0  0  0  0  0
  136.5220   68.5260  222.8100 C   0  0  0  0  0  0  0  0  0  0  0  0
  135.6903   67.9352  222.3987 H   0  0  0  0  0  0  0  0  0  0  0  0
  136.2620   69.5780  223.6940 C   0  0  0  0  0  0  0  0  0  0  0  0
  135.2260   69.8118  223.9805 H   0  0  0  0  0  0  0  0  0  0  0  0
  137.3180   70.3330  224.2140 C   0  0  0  0  0  0  0  0  0  0  0  0
  137.1115   71.1540  224.9164 H   0  0  0  0  0  0  0  0  0  0  0  0
  1  2  1  0
  2  3  1  0
  3  4  1  0
  3  5  2  0
  5  6  1  0
  6  7  1  0
  6  8  1  0
  6  9  1  0
  9 10  1  0
  9 11  1  0
  9 12  1  0
 12 13  1  0
 12 14  2  3
 14 15  1  0
 15 16  2  0
 16 17  1  0
 16 18  1  0
 18 19  1  0
 18 20  2  0
 20 21  1  0
 20 22  1  0
 22 23  1  0
 22 24  2  0
 24 25  1  0
 14 26  1  0
 26 27  2  0
 27 28  1  0
 27 29  1  0
 29 30  1  0
 29 31  2  0
 31 32  1  0
 31 33  1  0
 33 34  1  0
 33 35  2  0
 35 36  1  0
 24 15  1  0
 35 26  1  0
M  END
>  <UniqueID>  (79) 
40

>  <SMILES>  (79) 
O/C=N/CCC=C(c1ccccc1)c1ccccc1

>  <Energy>  (79) 
42.60420194488245

>  <Genealogy>  (79) 
OC=NCCC=C(c1ccccc1)c1ccccc1 (tautomer)
O/C=N/CCC=C(c1ccccc1)c1ccccc1 (cis-trans isomerization)
O/C=N/CCC=C(c1ccccc1)c1ccccc1 (3D coordinates assigned)
O/C=N/CCC=C(c1ccccc1)c1ccccc1 (optimized conformer: 42.60420194488245 kcal/mol)

>  <smiles>  (79) 
O=CNCCC=C(c1ccccc1)c1ccccc1

>  <score_type>  (79) 
oracle

>  <origin>  (79) 
autodockgpu

>  <m_score__min__energy>  (79) 
-5.6299999999999999

>  <m_primary>  (79) 
energy

>  <meeko>  (79) 
{"free_energy": -5.62, "intermolecular_energy": -8.0, "internal_energy": -0.92, "cluster_size": 9, "cluster_id": 1, "rank_in_cluster": 4}

>  <energy>  (79) 
-5.28

>  <cluster_rmsd>  (79) 
0.0

>  <rmsd>  (79) 
273.26

>  <cluster>  (79) 
4

$$$$
NYPVCQFMQXTFET-IVMHOSNPNA-N
     RDKit          3D

 36 37  0  0  0  0  0  0  0  0999 V2000
  139.2330   73.7560  223.0700 H   0  0  0  0  0  0  0  0  0  0  0  0
  139.9410   73.7800  222.3460 O   0  0  0  0  0  0  0  0  0  0  0  0
  139.6090   74.0900  221.0310 C   0  0  0  0  0  0  0  0  0  0  0  0
  140.1943   73.6642  220.2027 H   0  0  0  0  0  0  0  0  0  0  0  0
  138.6120   74.8790  220.7790 N   0  0  0  0  0  0  0  0  0  0  0  0
  138.7450   76.3320  220.8050 C   0  0  0  0  0  0  0  0  0  0  0  0
  139.5256   76.6381  220.0930 H   0  0  0  0  0  0  0  0  0  0  0  0
  137.7825   76.7853  220.5253 H   0  0  0  0  0  0  0  0  0  0  0  0
  139.1290   76.8030  222.2090 C   0  0  0  0  0  0  0  0  0  0  0  0
  138.6549   77.7765  222.4026 H   0  0  0  0  0  0  0  0  0  0  0  0
  138.7839   76.0513  222.9342 H   0  0  0  0  0  0  0  0  0  0  0  0
  140.6240   76.9480  222.3480 C   0  0  0  0  0  0  0  0  0  0  0  0
  141.1551   76.1899  222.9424 H   0  0  0  0  0  0  0  0  0  0  0  0
  141.3600   77.9380  221.7980 C   0  0  0  0  0  0  0  0  0  0  0  0
  141.6470   79.1740  222.5750 C   0  0  0  0  0  0  0  0  0  0  0  0
  142.9580   79.4840  222.9920 C   0  0  0  0  0  0  0  0  0  0  0  0
  143.7842   78.7992  222.7504 H   0  0  0  0  0  0  0  0  0  0  0  0
  143.2150   80.6550  223.7100 C   0  0  0  0  0  0  0  0  0  0  0  0
  144.2400   80.8846  224.0366 H   0  0  0  0  0  0  0  0  0  0  0  0
  142.1730   81.5350  224.0140 C   0  0  0  0  0  0  0  0  0  0  0  0
  142.3777   82.4557  224.5800 H   0  0  0  0  0  0  0  0  0  0  0  0
  140.8720   81.2450  223.5990 C   0  0  0  0  0  0  0  0  0  0  0  0
  140.0522   81.9383  223.8381 H   0  0  0  0  0  0  0  0  0  0  0  0
  140.6090   80.0750  222.8800 C   0  0  0  0  0  0  0  0  0  0  0  0
  139.5826   79.8567  222.5499 H   0  0  0  0  0  0  0  0  0  0  0  0
  141.9090   77.8310  220.4260 C   0  0  0  0  0  0  0  0  0  0  0  0
  142.4820   76.6300  219.9750 C   0  0  0  0  0  0  0  0  0  0  0  0
  142.5426   75.7635  220.6499 H   0  0  0  0  0  0  0  0  0  0  0  0
  142.9750   76.5340  218.6710 C   0  0  0  0  0  0  0  0  0  0  0  0
  143.4308   75.5949  218.3241 H   0  0  0  0  0  0  0  0  0  0  0  0
  142.8900   77.6290  217.8070 C   0  0  0  0  0  0  0  0  0  0  0  0
  143.2830   77.5526  216.7824 H   0  0  0  0  0  0  0  0  0  0  0  0
  142.3060   78.8210  218.2440 C   0  0  0  0  0  0  0  0  0  0  0  0
  142.2356   79.6808  217.5615 H   0  0  0  0  0  0  0  0  0  0  0  0
  141.8110   78.9220  219.5480 C   0  0  0  0  0  0  0  0  0  0  0  0
  141.3438   79.8585  219.8865 H   0  0  0  0  0  0  0  0  0  0  0  0
  1  2  1  0
  2  3  1  0
  3  4  1  0
  3  5  2  0
  5  6  1  0
  6  7  1  0
  6  8  1  0
  6  9  1  0
  9 10  1  0
  9 11  1  0
  9 12  1  0
 12 13  1  0
 12 14  2  3
 14 15  1  0
 15 16  2  0
 16 17  1  0
 16 18  1  0
 18 19  1  0
 18 20  2  0
 20 21  1  0
 20 22  1  0
 22 23  1  0
 22 24  2  0
 24 25  1  0
 14 26  1  0
 26 27  2  0
 27 28  1  0
 27 29  1  0
 29 30  1  0
 29 31  2  0
 31 32  1  0
 31 33  1  0
 33 34  1  0
 33 35  2  0
 35 36  1  0
 24 15  1  0
 35 26  1  0
M  END
>  <UniqueID>  (80) 
40

>  <SMILES>  (80) 
O/C=N/CCC=C(c1ccccc1)c1ccccc1

>  <Energy>  (80) 
42.60420194488245

>  <Genealogy>  (80) 
OC=NCCC=C(c1ccccc1)c1ccccc1 (tautomer)
O/C=N/CCC=C(c1ccccc1)c1ccccc1 (cis-trans isomerization)
O/C=N/CCC=C(c1ccccc1)c1ccccc1 (3D coordinates assigned)
O/C=N/CCC=C(c1ccccc1)c1ccccc1 (optimized conformer: 42.60420194488245 kcal/mol)

>  <smiles>  (80) 
O=CNCCC=C(c1ccccc1)c1ccccc1

>  <score_type>  (80) 
oracle

>  <origin>  (80) 
autodockgpu

>  <m_score__min__energy>  (80) 
-5.6299999999999999

>  <m_primary>  (80) 
energy

>  <meeko>  (80) 
{"free_energy": -5.26, "intermolecular_energy": -7.64, "internal_energy": -1.06, "cluster_size": 8, "cluster_id": 2, "rank_in_cluster": 5}

>  <energy>  (80) 
-5.12

>  <cluster_rmsd>  (80) 
0.0

>  <rmsd>  (80) 
271.1

>  <cluster>  (80) 
5

$$$$
