HDQBLRJEPZHFRL-UHFFFAOYNA-N
     RDKit          3D

 35 38  0  0  0  0  0  0  0  0999 V2000
  139.9200   73.6970  221.5880 C   0  0  0  0  0  0  0  0  0  0  0  0
  140.8780   72.6900  221.8160 C   0  0  0  0  0  0  0  0  0  0  0  0
  140.5030   71.4790  222.4200 C   0  0  0  0  0  0  0  0  0  0  0  0
  139.1600   71.3010  222.7770 C   0  0  0  0  0  0  0  0  0  0  0  0
  138.2320   72.2850  222.5610 C   0  0  0  0  0  0  0  0  0  0  0  0
  138.5830   73.4970  221.9650 C   0  0  0  0  0  0  0  0  0  0  0  0
  136.8910   71.8630  223.0510 C   0  0  0  0  0  0  0  0  0  0  0  0
  137.1420   70.4410  223.6060 C   0  0  0  0  0  0  0  0  0  0  0  0
  138.5670   70.1690  223.3990 N   0  0  0  0  0  0  0  0  0  0  0  0
  139.2140   68.9020  223.7380 C   0  0  0  0  0  0  0  0  0  0  0  0
  139.4770   68.8330  225.2120 C   0  0  0  0  0  0  0  0  0  0  0  0
  139.3310   67.7120  226.0250 C   0  0  0  0  0  0  0  0  0  0  0  0
  139.7440   67.9860  227.2840 N   0  0  0  0  0  0  0  0  0  0  0  0
  140.1590   69.2640  227.2690 C   0  0  0  0  0  0  0  0  0  0  0  0
  140.6930   69.9910  228.3330 C   0  0  0  0  0  0  0  0  0  0  0  0
  141.0850   71.3190  228.0910 C   0  0  0  0  0  0  0  0  0  0  0  0
  140.9410   71.8850  226.8040 C   0  0  0  0  0  0  0  0  0  0  0  0
  140.4000   71.1280  225.7500 C   0  0  0  0  0  0  0  0  0  0  0  0
  140.0170   69.8150  226.0200 C   0  0  0  0  0  0  0  0  0  0  0  0
  140.2205   74.6427  221.1132 H   0  0  0  0  0  0  0  0  0  0  0  0
  141.9247   72.8529  221.5196 H   0  0  0  0  0  0  0  0  0  0  0  0
  141.2455   70.6895  222.6082 H   0  0  0  0  0  0  0  0  0  0  0  0
  137.8281   74.2787  221.7944 H   0  0  0  0  0  0  0  0  0  0  0  0
  136.5316   72.5366  223.8429 H   0  0  0  0  0  0  0  0  0  0  0  0
  136.1204   71.8875  222.2664 H   0  0  0  0  0  0  0  0  0  0  0  0
  136.8976   70.4010  224.6778 H   0  0  0  0  0  0  0  0  0  0  0  0
  136.5129   69.6949  223.0985 H   0  0  0  0  0  0  0  0  0  0  0  0
  138.5570   68.0692  223.4468 H   0  0  0  0  0  0  0  0  0  0  0  0
  140.1704   68.8320  223.1992 H   0  0  0  0  0  0  0  0  0  0  0  0
  138.9359   66.7413  225.6910 H   0  0  0  0  0  0  0  0  0  0  0  0
  139.7520   67.3280  228.0950 H   0  0  0  0  0  0  0  0  0  0  0  0
  140.8038   69.5393  229.3299 H   0  0  0  0  0  0  0  0  0  0  0  0
  141.5067   71.9218  228.9088 H   0  0  0  0  0  0  0  0  0  0  0  0
  141.2542   72.9243  226.6258 H   0  0  0  0  0  0  0  0  0  0  0  0
  140.2827   71.5580  224.7444 H   0  0  0  0  0  0  0  0  0  0  0  0
  1  2  2  0
  2  3  1  0
  3  4  2  0
  4  5  1  0
  5  6  2  0
  5  7  1  0
  7  8  1  0
  8  9  1  0
  9 10  1  0
 10 11  1  0
 11 12  2  0
 12 13  1  0
 13 14  1  0
 14 15  2  0
 15 16  1  0
 16 17  2  0
 17 18  1  0
 18 19  2  0
  6  1  1  0
 19 11  1  0
  9  4  1  0
 19 14  1  0
  1 20  1  0
  2 21  1  0
  3 22  1  0
  6 23  1  0
  7 24  1  0
  7 25  1  0
  8 26  1  0
  8 27  1  0
 10 28  1  0
 10 29  1  0
 12 30  1  0
 13 31  1  0
 15 32  1  0
 16 33  1  0
 17 34  1  0
 18 35  1  0
M  END
>  <UniqueID>  (1) 
589

>  <SMILES>  (1) 
c1ccc2c(c1)CCN2Cc1c[nH]c2ccccc12

>  <Energy>  (1) 
83.10329359377658

>  <Genealogy>  (1) 
c1ccc2c(c1)CCN2Cc1c[nH]c2ccccc12 (3D coordinates assigned)
c1ccc2c(c1)CCN2Cc1c[nH]c2ccccc12 (nonaromatic ring conformer: 83.10329359377658 kcal/mol)

>  <smiles>  (1) 
c1ccc2c(c1)CCN2Cc1c[nH]c2ccccc12

>  <score_type>  (1) 
oracle

>  <origin>  (1) 
autodockgpu

>  <m_score__min__energy>  (1) 
-6.7300000000000004

>  <m_primary>  (1) 
energy

>  <meeko>  (1) 
{"free_energy": -6.72, "intermolecular_energy": -7.32, "internal_energy": -0.73, "cluster_size": 19, "cluster_id": 1, "rank_in_cluster": 12}

>  <energy>  (1) 
-6.73

>  <cluster_rmsd>  (1) 
0.0

>  <rmsd>  (1) 
273.4

>  <cluster>  (1) 
1

$$$$
HDQBLRJEPZHFRL-UHFFFAOYNA-N
     RDKit          3D

 35 38  0  0  0  0  0  0  0  0999 V2000
  139.9670   73.7000  221.6210 C   0  0  0  0  0  0  0  0  0  0  0  0
  140.9150   72.6880  221.8650 C   0  0  0  0  0  0  0  0  0  0  0  0
  140.5210   71.4780  222.4590 C   0  0  0  0  0  0  0  0  0  0  0  0
  139.1700   71.3060  222.7890 C   0  0  0  0  0  0  0  0  0  0  0  0
  138.2530   72.2960  222.5570 C   0  0  0  0  0  0  0  0  0  0  0  0
  138.6220   73.5070  221.9710 C   0  0  0  0  0  0  0  0  0  0  0  0
  136.9000   71.8800  223.0180 C   0  0  0  0  0  0  0  0  0  0  0  0
  137.1310   70.4560  223.5750 C   0  0  0  0  0  0  0  0  0  0  0  0
  138.5590   70.1770  223.3960 N   0  0  0  0  0  0  0  0  0  0  0  0
  139.1920   68.9050  223.7450 C   0  0  0  0  0  0  0  0  0  0  0  0
  139.4500   68.8430  225.2200 C   0  0  0  0  0  0  0  0  0  0  0  0
  139.2860   67.7300  226.0410 C   0  0  0  0  0  0  0  0  0  0  0  0
  139.6990   68.0070  227.2990 N   0  0  0  0  0  0  0  0  0  0  0  0
  140.1320   69.2790  227.2760 C   0  0  0  0  0  0  0  0  0  0  0  0
  140.6730   70.0060  228.3370 C   0  0  0  0  0  0  0  0  0  0  0  0
  141.0850   71.3260  228.0860 C   0  0  0  0  0  0  0  0  0  0  0  0
  140.9520   71.8850  226.7950 C   0  0  0  0  0  0  0  0  0  0  0  0
  140.4030   71.1280  225.7450 C   0  0  0  0  0  0  0  0  0  0  0  0
  140.0010   69.8230  226.0230 C   0  0  0  0  0  0  0  0  0  0  0  0
  140.2818   74.6451  221.1544 H   0  0  0  0  0  0  0  0  0  0  0  0
  141.9681   72.8457  221.5893 H   0  0  0  0  0  0  0  0  0  0  0  0
  141.2554   70.6842  222.6604 H   0  0  0  0  0  0  0  0  0  0  0  0
  137.8750   74.2933  221.7873 H   0  0  0  0  0  0  0  0  0  0  0  0
  136.5277   72.5540  223.8036 H   0  0  0  0  0  0  0  0  0  0  0  0
  136.1463   71.9100  222.2173 H   0  0  0  0  0  0  0  0  0  0  0  0
  136.8647   70.4152  224.6415 H   0  0  0  0  0  0  0  0  0  0  0  0
  136.5079   69.7143  223.0538 H   0  0  0  0  0  0  0  0  0  0  0  0
  138.5271   68.0772  223.4573 H   0  0  0  0  0  0  0  0  0  0  0  0
  140.1491   68.8214  223.2093 H   0  0  0  0  0  0  0  0  0  0  0  0
  138.8783   66.7625  225.7129 H   0  0  0  0  0  0  0  0  0  0  0  0
  139.6960   67.3550  228.1150 H   0  0  0  0  0  0  0  0  0  0  0  0
  140.7738   69.5603  229.3376 H   0  0  0  0  0  0  0  0  0  0  0  0
  141.5141   71.9283  228.9003 H   0  0  0  0  0  0  0  0  0  0  0  0
  141.2799   72.9186  226.6104 H   0  0  0  0  0  0  0  0  0  0  0  0
  140.2943   71.5525  224.7360 H   0  0  0  0  0  0  0  0  0  0  0  0
  1  2  2  0
  2  3  1  0
  3  4  2  0
  4  5  1  0
  5  6  2  0
  5  7  1  0
  7  8  1  0
  8  9  1  0
  9 10  1  0
 10 11  1  0
 11 12  2  0
 12 13  1  0
 13 14  1  0
 14 15  2  0
 15 16  1  0
 16 17  2  0
 17 18  1  0
 18 19  2  0
  6  1  1  0
 19 11  1  0
  9  4  1  0
 19 14  1  0
  1 20  1  0
  2 21  1  0
  3 22  1  0
  6 23  1  0
  7 24  1  0
  7 25  1  0
  8 26  1  0
  8 27  1  0
 10 28  1  0
 10 29  1  0
 12 30  1  0
 13 31  1  0
 15 32  1  0
 16 33  1  0
 17 34  1  0
 18 35  1  0
M  END
>  <UniqueID>  (2) 
589

>  <SMILES>  (2) 
c1ccc2c(c1)CCN2Cc1c[nH]c2ccccc12

>  <Energy>  (2) 
83.10329359377658

>  <Genealogy>  (2) 
c1ccc2c(c1)CCN2Cc1c[nH]c2ccccc12 (3D coordinates assigned)
c1ccc2c(c1)CCN2Cc1c[nH]c2ccccc12 (nonaromatic ring conformer: 83.10329359377658 kcal/mol)

>  <smiles>  (2) 
c1ccc2c(c1)CCN2Cc1c[nH]c2ccccc12

>  <score_type>  (2) 
oracle

>  <origin>  (2) 
autodockgpu

>  <m_score__min__energy>  (2) 
-6.7300000000000004

>  <m_primary>  (2) 
energy

>  <meeko>  (2) 
{"free_energy": -6.73, "intermolecular_energy": -7.33, "internal_energy": -0.72, "cluster_size": 19, "cluster_id": 1, "rank_in_cluster": 1}

>  <energy>  (2) 
-6.73

>  <cluster_rmsd>  (2) 
0.06

>  <rmsd>  (2) 
273.41

>  <cluster>  (2) 
1

$$$$
HDQBLRJEPZHFRL-UHFFFAOYNA-N
     RDKit          3D

 35 38  0  0  0  0  0  0  0  0999 V2000
  134.6760   71.2510  224.9990 C   0  0  0  0  0  0  0  0  0  0  0  0
  135.1270   69.9910  225.4370 C   0  0  0  0  0  0  0  0  0  0  0  0
  136.3530   69.4800  224.9800 C   0  0  0  0  0  0  0  0  0  0  0  0
  137.1100   70.2580  224.0940 C   0  0  0  0  0  0  0  0  0  0  0  0
  136.6640   71.4790  223.6640 C   0  0  0  0  0  0  0  0  0  0  0  0
  135.4490   72.0050  224.1020 C   0  0  0  0  0  0  0  0  0  0  0  0
  137.6330   72.0890  222.7120 C   0  0  0  0  0  0  0  0  0  0  0  0
  138.7630   71.0370  222.6250 C   0  0  0  0  0  0  0  0  0  0  0  0
  138.3640   69.9370  223.5080 N   0  0  0  0  0  0  0  0  0  0  0  0
  139.1840   68.7520  223.7590 C   0  0  0  0  0  0  0  0  0  0  0  0
  139.5610   68.6810  225.2070 C   0  0  0  0  0  0  0  0  0  0  0  0
  139.6130   67.5320  225.9920 C   0  0  0  0  0  0  0  0  0  0  0  0
  140.0800   67.8250  227.2270 N   0  0  0  0  0  0  0  0  0  0  0  0
  140.3350   69.1450  227.2250 C   0  0  0  0  0  0  0  0  0  0  0  0
  140.8530   69.9060  228.2720 C   0  0  0  0  0  0  0  0  0  0  0  0
  141.0630   71.2780  228.0460 C   0  0  0  0  0  0  0  0  0  0  0  0
  140.7560   71.8520  226.7920 C   0  0  0  0  0  0  0  0  0  0  0  0
  140.2360   71.0590  225.7540 C   0  0  0  0  0  0  0  0  0  0  0  0
  140.0350   69.7030  226.0080 C   0  0  0  0  0  0  0  0  0  0  0  0
  133.7151   71.6456  225.3608 H   0  0  0  0  0  0  0  0  0  0  0  0
  134.5169   69.4046  226.1398 H   0  0  0  0  0  0  0  0  0  0  0  0
  136.7101   68.4932  225.3096 H   0  0  0  0  0  0  0  0  0  0  0  0
  135.1039   72.9892  223.7523 H   0  0  0  0  0  0  0  0  0  0  0  0
  137.1690   72.2502  221.7278 H   0  0  0  0  0  0  0  0  0  0  0  0
  137.9908   73.0767  223.0383 H   0  0  0  0  0  0  0  0  0  0  0  0
  138.8704   70.6768  221.5912 H   0  0  0  0  0  0  0  0  0  0  0  0
  139.7318   71.4624  222.9259 H   0  0  0  0  0  0  0  0  0  0  0  0
  138.6138   67.8514  223.4874 H   0  0  0  0  0  0  0  0  0  0  0  0
  140.0995   68.8140  223.1524 H   0  0  0  0  0  0  0  0  0  0  0  0
  139.3162   66.5278  225.6552 H   0  0  0  0  0  0  0  0  0  0  0  0
  140.2280   67.1540  228.0140 H   0  0  0  0  0  0  0  0  0  0  0  0
  141.0898   69.4480  229.2437 H   0  0  0  0  0  0  0  0  0  0  0  0
  141.4690   71.9085  228.8508 H   0  0  0  0  0  0  0  0  0  0  0  0
  140.9249   72.9263  226.6268 H   0  0  0  0  0  0  0  0  0  0  0  0
  139.9954   71.4945  224.7729 H   0  0  0  0  0  0  0  0  0  0  0  0
  1  2  2  0
  2  3  1  0
  3  4  2  0
  4  5  1  0
  5  6  2  0
  5  7  1  0
  7  8  1  0
  8  9  1  0
  9 10  1  0
 10 11  1  0
 11 12  2  0
 12 13  1  0
 13 14  1  0
 14 15  2  0
 15 16  1  0
 16 17  2  0
 17 18  1  0
 18 19  2  0
  6  1  1  0
 19 11  1  0
  9  4  1  0
 19 14  1  0
  1 20  1  0
  2 21  1  0
  3 22  1  0
  6 23  1  0
  7 24  1  0
  7 25  1  0
  8 26  1  0
  8 27  1  0
 10 28  1  0
 10 29  1  0
 12 30  1  0
 13 31  1  0
 15 32  1  0
 16 33  1  0
 17 34  1  0
 18 35  1  0
M  END
>  <UniqueID>  (3) 
589

>  <SMILES>  (3) 
c1ccc2c(c1)CCN2Cc1c[nH]c2ccccc12

>  <Energy>  (3) 
83.10329359377658

>  <Genealogy>  (3) 
c1ccc2c(c1)CCN2Cc1c[nH]c2ccccc12 (3D coordinates assigned)
c1ccc2c(c1)CCN2Cc1c[nH]c2ccccc12 (nonaromatic ring conformer: 83.10329359377658 kcal/mol)

>  <smiles>  (3) 
c1ccc2c(c1)CCN2Cc1c[nH]c2ccccc12

>  <score_type>  (3) 
oracle

>  <origin>  (3) 
autodockgpu

>  <m_score__min__energy>  (3) 
-6.7300000000000004

>  <m_primary>  (3) 
energy

>  <meeko>  (3) 
{"free_energy": -6.64, "intermolecular_energy": -7.24, "internal_energy": -0.8, "cluster_size": 19, "cluster_id": 1, "rank_in_cluster": 19}

>  <energy>  (3) 
-6.73

>  <cluster_rmsd>  (3) 
0.05

>  <rmsd>  (3) 
273.39

>  <cluster>  (3) 
1

$$$$
HDQBLRJEPZHFRL-UHFFFAOYNA-N
     RDKit          3D

 35 38  0  0  0  0  0  0  0  0999 V2000
  139.9320   73.7200  221.5840 C   0  0  0  0  0  0  0  0  0  0  0  0
  140.8830   72.7060  221.8130 C   0  0  0  0  0  0  0  0  0  0  0  0
  140.4990   71.4990  222.4190 C   0  0  0  0  0  0  0  0  0  0  0  0
  139.1550   71.3310  222.7770 C   0  0  0  0  0  0  0  0  0  0  0  0
  138.2350   72.3220  222.5600 C   0  0  0  0  0  0  0  0  0  0  0  0
  138.5940   73.5300  221.9620 C   0  0  0  0  0  0  0  0  0  0  0  0
  136.8910   71.9100  223.0500 C   0  0  0  0  0  0  0  0  0  0  0  0
  137.1310   70.4870  223.6070 C   0  0  0  0  0  0  0  0  0  0  0  0
  138.5540   70.2050  223.4000 N   0  0  0  0  0  0  0  0  0  0  0  0
  139.1920   68.9330  223.7410 C   0  0  0  0  0  0  0  0  0  0  0  0
  139.4520   68.8630  225.2150 C   0  0  0  0  0  0  0  0  0  0  0  0
  139.2870   67.7470  226.0300 C   0  0  0  0  0  0  0  0  0  0  0  0
  139.7020   68.0170  227.2890 N   0  0  0  0  0  0  0  0  0  0  0  0
  140.1390   69.2880  227.2720 C   0  0  0  0  0  0  0  0  0  0  0  0
  140.6830   70.0080  228.3360 C   0  0  0  0  0  0  0  0  0  0  0  0
  141.0980   71.3280  228.0910 C   0  0  0  0  0  0  0  0  0  0  0  0
  140.9640   71.8940  226.8030 C   0  0  0  0  0  0  0  0  0  0  0  0
  140.4120   71.1430  225.7490 C   0  0  0  0  0  0  0  0  0  0  0  0
  140.0070   69.8380  226.0220 C   0  0  0  0  0  0  0  0  0  0  0  0
  140.2391   74.6628  221.1078 H   0  0  0  0  0  0  0  0  0  0  0  0
  141.9307   72.8606  221.5158 H   0  0  0  0  0  0  0  0  0  0  0  0
  141.2358   70.7044  222.6081 H   0  0  0  0  0  0  0  0  0  0  0  0
  137.8445   74.3167  221.7905 H   0  0  0  0  0  0  0  0  0  0  0  0
  136.5361   72.5872  223.8409 H   0  0  0  0  0  0  0  0  0  0  0  0
  136.1211   71.9388  222.2649 H   0  0  0  0  0  0  0  0  0  0  0  0
  136.8863   70.4501  224.6788 H   0  0  0  0  0  0  0  0  0  0  0  0
  136.4962   69.7447  223.1010 H   0  0  0  0  0  0  0  0  0  0  0  0
  138.5297   68.1046  223.4492 H   0  0  0  0  0  0  0  0  0  0  0  0
  140.1488   68.8561  223.2038 H   0  0  0  0  0  0  0  0  0  0  0  0
  138.8771   66.7819  225.6975 H   0  0  0  0  0  0  0  0  0  0  0  0
  139.6980   67.3600  228.1020 H   0  0  0  0  0  0  0  0  0  0  0  0
  140.7838   69.5571  229.3342 H   0  0  0  0  0  0  0  0  0  0  0  0
  141.5303   71.9250  228.9076 H   0  0  0  0  0  0  0  0  0  0  0  0
  141.2933   72.9281  226.6234 H   0  0  0  0  0  0  0  0  0  0  0  0
  140.3037   71.5722  224.7420 H   0  0  0  0  0  0  0  0  0  0  0  0
  1  2  2  0
  2  3  1  0
  3  4  2  0
  4  5  1  0
  5  6  2  0
  5  7  1  0
  7  8  1  0
  8  9  1  0
  9 10  1  0
 10 11  1  0
 11 12  2  0
 12 13  1  0
 13 14  1  0
 14 15  2  0
 15 16  1  0
 16 17  2  0
 17 18  1  0
 18 19  2  0
  6  1  1  0
 19 11  1  0
  9  4  1  0
 19 14  1  0
  1 20  1  0
  2 21  1  0
  3 22  1  0
  6 23  1  0
  7 24  1  0
  7 25  1  0
  8 26  1  0
  8 27  1  0
 10 28  1  0
 10 29  1  0
 12 30  1  0
 13 31  1  0
 15 32  1  0
 16 33  1  0
 17 34  1  0
 18 35  1  0
M  END
>  <UniqueID>  (4) 
589

>  <SMILES>  (4) 
c1ccc2c(c1)CCN2Cc1c[nH]c2ccccc12

>  <Energy>  (4) 
83.10329359377658

>  <Genealogy>  (4) 
c1ccc2c(c1)CCN2Cc1c[nH]c2ccccc12 (3D coordinates assigned)
c1ccc2c(c1)CCN2Cc1c[nH]c2ccccc12 (nonaromatic ring conformer: 83.10329359377658 kcal/mol)

>  <smiles>  (4) 
c1ccc2c(c1)CCN2Cc1c[nH]c2ccccc12

>  <score_type>  (4) 
oracle

>  <origin>  (4) 
autodockgpu

>  <m_score__min__energy>  (4) 
-6.7300000000000004

>  <m_primary>  (4) 
energy

>  <meeko>  (4) 
{"free_energy": -6.72, "intermolecular_energy": -7.32, "internal_energy": -0.73, "cluster_size": 19, "cluster_id": 1, "rank_in_cluster": 14}

>  <energy>  (4) 
-6.73

>  <cluster_rmsd>  (4) 
0.04

>  <rmsd>  (4) 
273.4

>  <cluster>  (4) 
1

$$$$
HDQBLRJEPZHFRL-UHFFFAOYNA-N
     RDKit          3D

 35 38  0  0  0  0  0  0  0  0999 V2000
  139.9050   73.7280  221.5980 C   0  0  0  0  0  0  0  0  0  0  0  0
  140.8650   72.7230  221.8240 C   0  0  0  0  0  0  0  0  0  0  0  0
  140.4910   71.5090  222.4230 C   0  0  0  0  0  0  0  0  0  0  0  0
  139.1480   71.3270  222.7780 C   0  0  0  0  0  0  0  0  0  0  0  0
  138.2190   72.3100  222.5640 C   0  0  0  0  0  0  0  0  0  0  0  0
  138.5680   73.5250  221.9730 C   0  0  0  0  0  0  0  0  0  0  0  0
  136.8780   71.8830  223.0510 C   0  0  0  0  0  0  0  0  0  0  0  0
  137.1310   70.4600  223.6010 C   0  0  0  0  0  0  0  0  0  0  0  0
  138.5570   70.1920  223.3950 N   0  0  0  0  0  0  0  0  0  0  0  0
  139.2060   68.9250  223.7300 C   0  0  0  0  0  0  0  0  0  0  0  0
  139.4650   68.8500  225.2050 C   0  0  0  0  0  0  0  0  0  0  0  0
  139.3030   67.7300  226.0150 C   0  0  0  0  0  0  0  0  0  0  0  0
  139.7150   67.9960  227.2760 N   0  0  0  0  0  0  0  0  0  0  0  0
  140.1470   69.2690  227.2640 C   0  0  0  0  0  0  0  0  0  0  0  0
  140.6880   69.9870  228.3310 C   0  0  0  0  0  0  0  0  0  0  0  0
  141.0980   71.3100  228.0920 C   0  0  0  0  0  0  0  0  0  0  0  0
  140.9640   71.8800  226.8060 C   0  0  0  0  0  0  0  0  0  0  0  0
  140.4160   71.1310  225.7490 C   0  0  0  0  0  0  0  0  0  0  0  0
  140.0150   69.8230  226.0160 C   0  0  0  0  0  0  0  0  0  0  0  0
  140.2041   74.6755  221.1259 H   0  0  0  0  0  0  0  0  0  0  0  0
  141.9119   72.8894  221.5303 H   0  0  0  0  0  0  0  0  0  0  0  0
  141.2346   70.7201  222.6090 H   0  0  0  0  0  0  0  0  0  0  0  0
  137.8120   74.3062  221.8048 H   0  0  0  0  0  0  0  0  0  0  0  0
  136.5162   72.5530  223.8449 H   0  0  0  0  0  0  0  0  0  0  0  0
  136.1084   71.9086  222.2655 H   0  0  0  0  0  0  0  0  0  0  0  0
  136.8851   70.4155  224.6722 H   0  0  0  0  0  0  0  0  0  0  0  0
  136.5041   69.7144  223.0900 H   0  0  0  0  0  0  0  0  0  0  0  0
  138.5518   68.0920  223.4331 H   0  0  0  0  0  0  0  0  0  0  0  0
  140.1641   68.8596  223.1935 H   0  0  0  0  0  0  0  0  0  0  0  0
  138.8973   66.7648  225.6777 H   0  0  0  0  0  0  0  0  0  0  0  0
  139.7130   67.3370  228.0860 H   0  0  0  0  0  0  0  0  0  0  0  0
  140.7904   69.5322  229.3273 H   0  0  0  0  0  0  0  0  0  0  0  0
  141.5261   71.9057  228.9116 H   0  0  0  0  0  0  0  0  0  0  0  0
  141.2902   72.9157  226.6304 H   0  0  0  0  0  0  0  0  0  0  0  0
  140.3073   71.5638  224.7436 H   0  0  0  0  0  0  0  0  0  0  0  0
  1  2  2  0
  2  3  1  0
  3  4  2  0
  4  5  1  0
  5  6  2  0
  5  7  1  0
  7  8  1  0
  8  9  1  0
  9 10  1  0
 10 11  1  0
 11 12  2  0
 12 13  1  0
 13 14  1  0
 14 15  2  0
 15 16  1  0
 16 17  2  0
 17 18  1  0
 18 19  2  0
  6  1  1  0
 19 11  1  0
  9  4  1  0
 19 14  1  0
  1 20  1  0
  2 21  1  0
  3 22  1  0
  6 23  1  0
  7 24  1  0
  7 25  1  0
  8 26  1  0
  8 27  1  0
 10 28  1  0
 10 29  1  0
 12 30  1  0
 13 31  1  0
 15 32  1  0
 16 33  1  0
 17 34  1  0
 18 35  1  0
M  END
>  <UniqueID>  (5) 
589

>  <SMILES>  (5) 
c1ccc2c(c1)CCN2Cc1c[nH]c2ccccc12

>  <Energy>  (5) 
83.10329359377658

>  <Genealogy>  (5) 
c1ccc2c(c1)CCN2Cc1c[nH]c2ccccc12 (3D coordinates assigned)
c1ccc2c(c1)CCN2Cc1c[nH]c2ccccc12 (nonaromatic ring conformer: 83.10329359377658 kcal/mol)

>  <smiles>  (5) 
c1ccc2c(c1)CCN2Cc1c[nH]c2ccccc12

>  <score_type>  (5) 
oracle

>  <origin>  (5) 
autodockgpu

>  <m_score__min__energy>  (5) 
-6.7300000000000004

>  <m_primary>  (5) 
energy

>  <meeko>  (5) 
{"free_energy": -6.72, "intermolecular_energy": -7.32, "internal_energy": -0.73, "cluster_size": 19, "cluster_id": 1, "rank_in_cluster": 15}

>  <energy>  (5) 
-6.73

>  <cluster_rmsd>  (5) 
0.04

>  <rmsd>  (5) 
273.4

>  <cluster>  (5) 
1

$$$$
HDQBLRJEPZHFRL-UHFFFAOYNA-N
     RDKit          3D

 35 38  0  0  0  0  0  0  0  0999 V2000
  139.9270   73.6930  221.5850 C   0  0  0  0  0  0  0  0  0  0  0  0
  140.8820   72.6820  221.8130 C   0  0  0  0  0  0  0  0  0  0  0  0
  140.5020   71.4750  222.4230 C   0  0  0  0  0  0  0  0  0  0  0  0
  139.1590   71.3050  222.7860 C   0  0  0  0  0  0  0  0  0  0  0  0
  138.2360   72.2930  222.5690 C   0  0  0  0  0  0  0  0  0  0  0  0
  138.5910   73.5010  221.9670 C   0  0  0  0  0  0  0  0  0  0  0  0
  136.8950   71.8790  223.0650 C   0  0  0  0  0  0  0  0  0  0  0  0
  137.1410   70.4580  223.6240 C   0  0  0  0  0  0  0  0  0  0  0  0
  138.5640   70.1790  223.4140 N   0  0  0  0  0  0  0  0  0  0  0  0
  139.2060   68.9090  223.7550 C   0  0  0  0  0  0  0  0  0  0  0  0
  139.4690   68.8420  225.2290 C   0  0  0  0  0  0  0  0  0  0  0  0
  139.3170   67.7240  226.0450 C   0  0  0  0  0  0  0  0  0  0  0  0
  139.7300   67.9990  227.3030 N   0  0  0  0  0  0  0  0  0  0  0  0
  140.1530   69.2750  227.2860 C   0  0  0  0  0  0  0  0  0  0  0  0
  140.6900   70.0010  228.3480 C   0  0  0  0  0  0  0  0  0  0  0  0
  141.0900   71.3260  228.1030 C   0  0  0  0  0  0  0  0  0  0  0  0
  140.9480   71.8900  226.8150 C   0  0  0  0  0  0  0  0  0  0  0  0
  140.4040   71.1330  225.7620 C   0  0  0  0  0  0  0  0  0  0  0  0
  140.0130   69.8230  226.0350 C   0  0  0  0  0  0  0  0  0  0  0  0
  140.2302   74.6357  221.1060 H   0  0  0  0  0  0  0  0  0  0  0  0
  141.9285   72.8385  221.5123 H   0  0  0  0  0  0  0  0  0  0  0  0
  141.2409   70.6822  222.6113 H   0  0  0  0  0  0  0  0  0  0  0  0
  137.8394   74.2857  221.7957 H   0  0  0  0  0  0  0  0  0  0  0  0
  136.5415   72.5570  223.8558 H   0  0  0  0  0  0  0  0  0  0  0  0
  136.1218   71.9043  222.2830 H   0  0  0  0  0  0  0  0  0  0  0  0
  136.8993   70.4226  224.6965 H   0  0  0  0  0  0  0  0  0  0  0  0
  136.5071   69.7131  223.1208 H   0  0  0  0  0  0  0  0  0  0  0  0
  138.5453   68.0785  223.4656 H   0  0  0  0  0  0  0  0  0  0  0  0
  140.1618   68.8335  223.2158 H   0  0  0  0  0  0  0  0  0  0  0  0
  138.9175   66.7543  225.7133 H   0  0  0  0  0  0  0  0  0  0  0  0
  139.7350   67.3430  228.1160 H   0  0  0  0  0  0  0  0  0  0  0  0
  140.7973   69.5512  229.3461 H   0  0  0  0  0  0  0  0  0  0  0  0
  141.5163   71.9279  228.9191 H   0  0  0  0  0  0  0  0  0  0  0  0
  141.2650   72.9278  226.6349 H   0  0  0  0  0  0  0  0  0  0  0  0
  140.2906   71.5609  224.7550 H   0  0  0  0  0  0  0  0  0  0  0  0
  1  2  2  0
  2  3  1  0
  3  4  2  0
  4  5  1  0
  5  6  2  0
  5  7  1  0
  7  8  1  0
  8  9  1  0
  9 10  1  0
 10 11  1  0
 11 12  2  0
 12 13  1  0
 13 14  1  0
 14 15  2  0
 15 16  1  0
 16 17  2  0
 17 18  1  0
 18 19  2  0
  6  1  1  0
 19 11  1  0
  9  4  1  0
 19 14  1  0
  1 20  1  0
  2 21  1  0
  3 22  1  0
  6 23  1  0
  7 24  1  0
  7 25  1  0
  8 26  1  0
  8 27  1  0
 10 28  1  0
 10 29  1  0
 12 30  1  0
 13 31  1  0
 15 32  1  0
 16 33  1  0
 17 34  1  0
 18 35  1  0
M  END
>  <UniqueID>  (6) 
589

>  <SMILES>  (6) 
c1ccc2c(c1)CCN2Cc1c[nH]c2ccccc12

>  <Energy>  (6) 
83.10329359377658

>  <Genealogy>  (6) 
c1ccc2c(c1)CCN2Cc1c[nH]c2ccccc12 (3D coordinates assigned)
c1ccc2c(c1)CCN2Cc1c[nH]c2ccccc12 (nonaromatic ring conformer: 83.10329359377658 kcal/mol)

>  <smiles>  (6) 
c1ccc2c(c1)CCN2Cc1c[nH]c2ccccc12

>  <score_type>  (6) 
oracle

>  <origin>  (6) 
autodockgpu

>  <m_score__min__energy>  (6) 
-6.7300000000000004

>  <m_primary>  (6) 
energy

>  <meeko>  (6) 
{"free_energy": -6.72, "intermolecular_energy": -7.32, "internal_energy": -0.73, "cluster_size": 19, "cluster_id": 1, "rank_in_cluster": 9}

>  <energy>  (6) 
-6.73

>  <cluster_rmsd>  (6) 
0.04

>  <rmsd>  (6) 
273.4

>  <cluster>  (6) 
1

$$$$
HDQBLRJEPZHFRL-UHFFFAOYNA-N
     RDKit          3D

 35 38  0  0  0  0  0  0  0  0999 V2000
  139.9120   73.7430  221.5970 C   0  0  0  0  0  0  0  0  0  0  0  0
  140.8710   72.7370  221.8240 C   0  0  0  0  0  0  0  0  0  0  0  0
  140.4940   71.5230  222.4220 C   0  0  0  0  0  0  0  0  0  0  0  0
  139.1500   71.3420  222.7730 C   0  0  0  0  0  0  0  0  0  0  0  0
  138.2230   72.3260  222.5580 C   0  0  0  0  0  0  0  0  0  0  0  0
  138.5740   73.5400  221.9680 C   0  0  0  0  0  0  0  0  0  0  0  0
  136.8800   71.9000  223.0410 C   0  0  0  0  0  0  0  0  0  0  0  0
  137.1300   70.4760  223.5910 C   0  0  0  0  0  0  0  0  0  0  0  0
  138.5560   70.2070  223.3880 N   0  0  0  0  0  0  0  0  0  0  0  0
  139.2040   68.9390  223.7240 C   0  0  0  0  0  0  0  0  0  0  0  0
  139.4610   68.8640  225.1990 C   0  0  0  0  0  0  0  0  0  0  0  0
  139.3030   67.7420  226.0080 C   0  0  0  0  0  0  0  0  0  0  0  0
  139.7130   68.0090  227.2690 N   0  0  0  0  0  0  0  0  0  0  0  0
  140.1380   69.2840  227.2600 C   0  0  0  0  0  0  0  0  0  0  0  0
  140.6740   70.0040  228.3280 C   0  0  0  0  0  0  0  0  0  0  0  0
  141.0780   71.3290  228.0910 C   0  0  0  0  0  0  0  0  0  0  0  0
  140.9420   71.9000  226.8050 C   0  0  0  0  0  0  0  0  0  0  0  0
  140.3990   71.1500  225.7470 C   0  0  0  0  0  0  0  0  0  0  0  0
  140.0050   69.8390  226.0120 C   0  0  0  0  0  0  0  0  0  0  0  0
  140.2128   74.6911  221.1273 H   0  0  0  0  0  0  0  0  0  0  0  0
  141.9186   72.9023  221.5321 H   0  0  0  0  0  0  0  0  0  0  0  0
  141.2364   70.7334  222.6101 H   0  0  0  0  0  0  0  0  0  0  0  0
  137.8186   74.3212  221.7973 H   0  0  0  0  0  0  0  0  0  0  0  0
  136.5166   72.5698  223.8343 H   0  0  0  0  0  0  0  0  0  0  0  0
  136.1127   71.9268  222.2533 H   0  0  0  0  0  0  0  0  0  0  0  0
  136.8816   70.4311  224.6616 H   0  0  0  0  0  0  0  0  0  0  0  0
  136.5034   69.7313  223.0784 H   0  0  0  0  0  0  0  0  0  0  0  0
  138.5496   68.1064  223.4264 H   0  0  0  0  0  0  0  0  0  0  0  0
  140.1627   68.8729  223.1887 H   0  0  0  0  0  0  0  0  0  0  0  0
  138.9016   66.7754  225.6696 H   0  0  0  0  0  0  0  0  0  0  0  0
  139.7130   67.3490  228.0790 H   0  0  0  0  0  0  0  0  0  0  0  0
  140.7771   69.5490  229.3241 H   0  0  0  0  0  0  0  0  0  0  0  0
  141.5029   71.9257  228.9116 H   0  0  0  0  0  0  0  0  0  0  0  0
  141.2630   72.9376  226.6310 H   0  0  0  0  0  0  0  0  0  0  0  0
  140.2885   71.5837  224.7421 H   0  0  0  0  0  0  0  0  0  0  0  0
  1  2  2  0
  2  3  1  0
  3  4  2  0
  4  5  1  0
  5  6  2  0
  5  7  1  0
  7  8  1  0
  8  9  1  0
  9 10  1  0
 10 11  1  0
 11 12  2  0
 12 13  1  0
 13 14  1  0
 14 15  2  0
 15 16  1  0
 16 17  2  0
 17 18  1  0
 18 19  2  0
  6  1  1  0
 19 11  1  0
  9  4  1  0
 19 14  1  0
  1 20  1  0
  2 21  1  0
  3 22  1  0
  6 23  1  0
  7 24  1  0
  7 25  1  0
  8 26  1  0
  8 27  1  0
 10 28  1  0
 10 29  1  0
 12 30  1  0
 13 31  1  0
 15 32  1  0
 16 33  1  0
 17 34  1  0
 18 35  1  0
M  END
>  <UniqueID>  (7) 
589

>  <SMILES>  (7) 
c1ccc2c(c1)CCN2Cc1c[nH]c2ccccc12

>  <Energy>  (7) 
83.10329359377658

>  <Genealogy>  (7) 
c1ccc2c(c1)CCN2Cc1c[nH]c2ccccc12 (3D coordinates assigned)
c1ccc2c(c1)CCN2Cc1c[nH]c2ccccc12 (nonaromatic ring conformer: 83.10329359377658 kcal/mol)

>  <smiles>  (7) 
c1ccc2c(c1)CCN2Cc1c[nH]c2ccccc12

>  <score_type>  (7) 
oracle

>  <origin>  (7) 
autodockgpu

>  <m_score__min__energy>  (7) 
-6.7300000000000004

>  <m_primary>  (7) 
energy

>  <meeko>  (7) 
{"free_energy": -6.73, "intermolecular_energy": -7.32, "internal_energy": -0.73, "cluster_size": 19, "cluster_id": 1, "rank_in_cluster": 7}

>  <energy>  (7) 
-6.73

>  <cluster_rmsd>  (7) 
0.04

>  <rmsd>  (7) 
273.39

>  <cluster>  (7) 
1

$$$$
HDQBLRJEPZHFRL-UHFFFAOYNA-N
     RDKit          3D

 35 38  0  0  0  0  0  0  0  0999 V2000
  139.9370   73.6770  221.5950 C   0  0  0  0  0  0  0  0  0  0  0  0
  140.8910   72.6650  221.8160 C   0  0  0  0  0  0  0  0  0  0  0  0
  140.5140   71.4560  222.4230 C   0  0  0  0  0  0  0  0  0  0  0  0
  139.1730   71.2850  222.7900 C   0  0  0  0  0  0  0  0  0  0  0  0
  138.2490   72.2740  222.5820 C   0  0  0  0  0  0  0  0  0  0  0  0
  138.6020   73.4840  221.9830 C   0  0  0  0  0  0  0  0  0  0  0  0
  136.9100   71.8590  223.0810 C   0  0  0  0  0  0  0  0  0  0  0  0
  137.1570   70.4360  223.6340 C   0  0  0  0  0  0  0  0  0  0  0  0
  138.5790   70.1570  223.4160 N   0  0  0  0  0  0  0  0  0  0  0  0
  139.2220   68.8860  223.7500 C   0  0  0  0  0  0  0  0  0  0  0  0
  139.5030   68.8180  225.2200 C   0  0  0  0  0  0  0  0  0  0  0  0
  139.3910   67.6920  226.0320 C   0  0  0  0  0  0  0  0  0  0  0  0
  139.8120   67.9720  227.2870 N   0  0  0  0  0  0  0  0  0  0  0  0
  140.1980   69.2590  227.2710 C   0  0  0  0  0  0  0  0  0  0  0  0
  140.7270   69.9940  228.3320 C   0  0  0  0  0  0  0  0  0  0  0  0
  141.0880   71.3310  228.0890 C   0  0  0  0  0  0  0  0  0  0  0  0
  140.9160   71.8980  226.8060 C   0  0  0  0  0  0  0  0  0  0  0  0
  140.3810   71.1320  225.7560 C   0  0  0  0  0  0  0  0  0  0  0  0
  140.0300   69.8100  226.0260 C   0  0  0  0  0  0  0  0  0  0  0  0
  140.2387   74.6208  221.1173 H   0  0  0  0  0  0  0  0  0  0  0  0
  141.9363   72.8222  221.5118 H   0  0  0  0  0  0  0  0  0  0  0  0
  141.2537   70.6627  222.6058 H   0  0  0  0  0  0  0  0  0  0  0  0
  137.8500   74.2698  221.8184 H   0  0  0  0  0  0  0  0  0  0  0  0
  136.5596   72.5344  223.8754 H   0  0  0  0  0  0  0  0  0  0  0  0
  136.1342   71.8875  222.3017 H   0  0  0  0  0  0  0  0  0  0  0  0
  136.9204   70.3971  224.7076 H   0  0  0  0  0  0  0  0  0  0  0  0
  136.5199   69.6932  223.1317 H   0  0  0  0  0  0  0  0  0  0  0  0
  138.5559   68.0570  223.4688 H   0  0  0  0  0  0  0  0  0  0  0  0
  140.1712   68.8088  223.1995 H   0  0  0  0  0  0  0  0  0  0  0  0
  139.0137   66.7135  225.7000 H   0  0  0  0  0  0  0  0  0  0  0  0
  139.8430   67.3120  228.0960 H   0  0  0  0  0  0  0  0  0  0  0  0
  140.8575   69.5423  229.3265 H   0  0  0  0  0  0  0  0  0  0  0  0
  141.5073   71.9400  228.9034 H   0  0  0  0  0  0  0  0  0  0  0  0
  141.2025   72.9450  226.6281 H   0  0  0  0  0  0  0  0  0  0  0  0
  140.2436   71.5620  224.7529 H   0  0  0  0  0  0  0  0  0  0  0  0
  1  2  2  0
  2  3  1  0
  3  4  2  0
  4  5  1  0
  5  6  2  0
  5  7  1  0
  7  8  1  0
  8  9  1  0
  9 10  1  0
 10 11  1  0
 11 12  2  0
 12 13  1  0
 13 14  1  0
 14 15  2  0
 15 16  1  0
 16 17  2  0
 17 18  1  0
 18 19  2  0
  6  1  1  0
 19 11  1  0
  9  4  1  0
 19 14  1  0
  1 20  1  0
  2 21  1  0
  3 22  1  0
  6 23  1  0
  7 24  1  0
  7 25  1  0
  8 26  1  0
  8 27  1  0
 10 28  1  0
 10 29  1  0
 12 30  1  0
 13 31  1  0
 15 32  1  0
 16 33  1  0
 17 34  1  0
 18 35  1  0
M  END
>  <UniqueID>  (8) 
589

>  <SMILES>  (8) 
c1ccc2c(c1)CCN2Cc1c[nH]c2ccccc12

>  <Energy>  (8) 
83.10329359377658

>  <Genealogy>  (8) 
c1ccc2c(c1)CCN2Cc1c[nH]c2ccccc12 (3D coordinates assigned)
c1ccc2c(c1)CCN2Cc1c[nH]c2ccccc12 (nonaromatic ring conformer: 83.10329359377658 kcal/mol)

>  <smiles>  (8) 
c1ccc2c(c1)CCN2Cc1c[nH]c2ccccc12

>  <score_type>  (8) 
oracle

>  <origin>  (8) 
autodockgpu

>  <m_score__min__energy>  (8) 
-6.7300000000000004

>  <m_primary>  (8) 
energy

>  <meeko>  (8) 
{"free_energy": -6.72, "intermolecular_energy": -7.32, "internal_energy": -0.73, "cluster_size": 19, "cluster_id": 1, "rank_in_cluster": 17}

>  <energy>  (8) 
-6.73

>  <cluster_rmsd>  (8) 
0.05

>  <rmsd>  (8) 
273.39

>  <cluster>  (8) 
1

$$$$
HDQBLRJEPZHFRL-UHFFFAOYNA-N
     RDKit          3D

 35 38  0  0  0  0  0  0  0  0999 V2000
  139.9190   73.6940  221.5730 C   0  0  0  0  0  0  0  0  0  0  0  0
  140.8740   72.6860  221.8010 C   0  0  0  0  0  0  0  0  0  0  0  0
  140.4960   71.4760  222.4070 C   0  0  0  0  0  0  0  0  0  0  0  0
  139.1530   71.3020  222.7650 C   0  0  0  0  0  0  0  0  0  0  0  0
  138.2280   72.2880  222.5480 C   0  0  0  0  0  0  0  0  0  0  0  0
  138.5810   73.4980  221.9510 C   0  0  0  0  0  0  0  0  0  0  0  0
  136.8860   71.8700  223.0380 C   0  0  0  0  0  0  0  0  0  0  0  0
  137.1330   70.4480  223.5950 C   0  0  0  0  0  0  0  0  0  0  0  0
  138.5570   70.1730  223.3880 N   0  0  0  0  0  0  0  0  0  0  0  0
  139.2020   68.9040  223.7280 C   0  0  0  0  0  0  0  0  0  0  0  0
  139.4670   68.8370  225.2010 C   0  0  0  0  0  0  0  0  0  0  0  0
  139.3200   67.7170  226.0160 C   0  0  0  0  0  0  0  0  0  0  0  0
  139.7350   67.9920  227.2740 N   0  0  0  0  0  0  0  0  0  0  0  0
  140.1520   69.2700  227.2570 C   0  0  0  0  0  0  0  0  0  0  0  0
  140.6880   69.9970  228.3200 C   0  0  0  0  0  0  0  0  0  0  0  0
  141.0830   71.3240  228.0750 C   0  0  0  0  0  0  0  0  0  0  0  0
  140.9370   71.8890  226.7870 C   0  0  0  0  0  0  0  0  0  0  0  0
  140.3940   71.1310  225.7350 C   0  0  0  0  0  0  0  0  0  0  0  0
  140.0090   69.8190  226.0080 C   0  0  0  0  0  0  0  0  0  0  0  0
  140.2216   74.6385  221.0972 H   0  0  0  0  0  0  0  0  0  0  0  0
  141.9209   72.8460  221.5035 H   0  0  0  0  0  0  0  0  0  0  0  0
  141.2365   70.6848  222.5957 H   0  0  0  0  0  0  0  0  0  0  0  0
  137.8279   74.2814  221.7801 H   0  0  0  0  0  0  0  0  0  0  0  0
  136.5280   72.5456  223.8289 H   0  0  0  0  0  0  0  0  0  0  0  0
  136.1158   71.8953  222.2531 H   0  0  0  0  0  0  0  0  0  0  0  0
  136.8886   70.4099  224.6668 H   0  0  0  0  0  0  0  0  0  0  0  0
  136.5018   69.7026  223.0890 H   0  0  0  0  0  0  0  0  0  0  0  0
  138.5425   68.0723  223.4392 H   0  0  0  0  0  0  0  0  0  0  0  0
  140.1573   68.8307  223.1876 H   0  0  0  0  0  0  0  0  0  0  0  0
  138.9228   66.7465  225.6839 H   0  0  0  0  0  0  0  0  0  0  0  0
  139.7430   67.3360  228.0860 H   0  0  0  0  0  0  0  0  0  0  0  0
  140.7981   69.5467  229.3176 H   0  0  0  0  0  0  0  0  0  0  0  0
  141.5085   71.9268  228.8909 H   0  0  0  0  0  0  0  0  0  0  0  0
  141.2502   72.9280  226.6071 H   0  0  0  0  0  0  0  0  0  0  0  0
  140.2766   71.5592  224.7286 H   0  0  0  0  0  0  0  0  0  0  0  0
  1  2  2  0
  2  3  1  0
  3  4  2  0
  4  5  1  0
  5  6  2  0
  5  7  1  0
  7  8  1  0
  8  9  1  0
  9 10  1  0
 10 11  1  0
 11 12  2  0
 12 13  1  0
 13 14  1  0
 14 15  2  0
 15 16  1  0
 16 17  2  0
 17 18  1  0
 18 19  2  0
  6  1  1  0
 19 11  1  0
  9  4  1  0
 19 14  1  0
  1 20  1  0
  2 21  1  0
  3 22  1  0
  6 23  1  0
  7 24  1  0
  7 25  1  0
  8 26  1  0
  8 27  1  0
 10 28  1  0
 10 29  1  0
 12 30  1  0
 13 31  1  0
 15 32  1  0
 16 33  1  0
 17 34  1  0
 18 35  1  0
M  END
>  <UniqueID>  (9) 
589

>  <SMILES>  (9) 
c1ccc2c(c1)CCN2Cc1c[nH]c2ccccc12

>  <Energy>  (9) 
83.10329359377658

>  <Genealogy>  (9) 
c1ccc2c(c1)CCN2Cc1c[nH]c2ccccc12 (3D coordinates assigned)
c1ccc2c(c1)CCN2Cc1c[nH]c2ccccc12 (nonaromatic ring conformer: 83.10329359377658 kcal/mol)

>  <smiles>  (9) 
c1ccc2c(c1)CCN2Cc1c[nH]c2ccccc12

>  <score_type>  (9) 
oracle

>  <origin>  (9) 
autodockgpu

>  <m_score__min__energy>  (9) 
-6.7300000000000004

>  <m_primary>  (9) 
energy

>  <meeko>  (9) 
{"free_energy": -6.72, "intermolecular_energy": -7.32, "internal_energy": -0.73, "cluster_size": 19, "cluster_id": 1, "rank_in_cluster": 13}

>  <energy>  (9) 
-6.72

>  <cluster_rmsd>  (9) 
0.03

>  <rmsd>  (9) 
273.4

>  <cluster>  (9) 
1

$$$$
HDQBLRJEPZHFRL-UHFFFAOYNA-N
     RDKit          3D

 35 38  0  0  0  0  0  0  0  0999 V2000
  139.9490   73.7260  221.5750 C   0  0  0  0  0  0  0  0  0  0  0  0
  140.9000   72.7150  221.8130 C   0  0  0  0  0  0  0  0  0  0  0  0
  140.5140   71.5070  222.4180 C   0  0  0  0  0  0  0  0  0  0  0  0
  139.1670   71.3370  222.7640 C   0  0  0  0  0  0  0  0  0  0  0  0
  138.2460   72.3250  222.5390 C   0  0  0  0  0  0  0  0  0  0  0  0
  138.6070   73.5330  221.9420 C   0  0  0  0  0  0  0  0  0  0  0  0
  136.8990   71.9110  223.0180 C   0  0  0  0  0  0  0  0  0  0  0  0
  137.1380   70.4890  223.5790 C   0  0  0  0  0  0  0  0  0  0  0  0
  138.5640   70.2100  223.3840 N   0  0  0  0  0  0  0  0  0  0  0  0
  139.2020   68.9400  223.7320 C   0  0  0  0  0  0  0  0  0  0  0  0
  139.4470   68.8710  225.2090 C   0  0  0  0  0  0  0  0  0  0  0  0
  139.2680   67.7570  226.0240 C   0  0  0  0  0  0  0  0  0  0  0  0
  139.6720   68.0260  227.2860 N   0  0  0  0  0  0  0  0  0  0  0  0
  140.1150   69.2950  227.2720 C   0  0  0  0  0  0  0  0  0  0  0  0
  140.6520   70.0140  228.3400 C   0  0  0  0  0  0  0  0  0  0  0  0
  141.0760   71.3330  228.0970 C   0  0  0  0  0  0  0  0  0  0  0  0
  140.9570   71.8970  226.8070 C   0  0  0  0  0  0  0  0  0  0  0  0
  140.4130   71.1480  225.7490 C   0  0  0  0  0  0  0  0  0  0  0  0
  139.9980   69.8440  226.0200 C   0  0  0  0  0  0  0  0  0  0  0  0
  140.2579   74.6691  221.1005 H   0  0  0  0  0  0  0  0  0  0  0  0
  141.9497   72.8717  221.5240 H   0  0  0  0  0  0  0  0  0  0  0  0
  141.2510   70.7145  222.6151 H   0  0  0  0  0  0  0  0  0  0  0  0
  137.8570   74.3174  221.7626 H   0  0  0  0  0  0  0  0  0  0  0  0
  136.5359   72.5885  223.8049 H   0  0  0  0  0  0  0  0  0  0  0  0
  136.1355   71.9372  222.2266 H   0  0  0  0  0  0  0  0  0  0  0  0
  136.8846   70.4530  224.6488 H   0  0  0  0  0  0  0  0  0  0  0  0
  136.5092   69.7445  223.0688 H   0  0  0  0  0  0  0  0  0  0  0  0
  138.5451   68.1097  223.4335 H   0  0  0  0  0  0  0  0  0  0  0  0
  140.1646   68.8658  223.2048 H   0  0  0  0  0  0  0  0  0  0  0  0
  138.8560   66.7937  225.6887 H   0  0  0  0  0  0  0  0  0  0  0  0
  139.6570   67.3710  228.1000 H   0  0  0  0  0  0  0  0  0  0  0  0
  140.7410   69.5641  229.3398 H   0  0  0  0  0  0  0  0  0  0  0  0
  141.5031   71.9294  228.9167 H   0  0  0  0  0  0  0  0  0  0  0  0
  141.2924   72.9294  226.6293 H   0  0  0  0  0  0  0  0  0  0  0  0
  140.3177   71.5762  224.7403 H   0  0  0  0  0  0  0  0  0  0  0  0
  1  2  2  0
  2  3  1  0
  3  4  2  0
  4  5  1  0
  5  6  2  0
  5  7  1  0
  7  8  1  0
  8  9  1  0
  9 10  1  0
 10 11  1  0
 11 12  2  0
 12 13  1  0
 13 14  1  0
 14 15  2  0
 15 16  1  0
 16 17  2  0
 17 18  1  0
 18 19  2  0
  6  1  1  0
 19 11  1  0
  9  4  1  0
 19 14  1  0
  1 20  1  0
  2 21  1  0
  3 22  1  0
  6 23  1  0
  7 24  1  0
  7 25  1  0
  8 26  1  0
  8 27  1  0
 10 28  1  0
 10 29  1  0
 12 30  1  0
 13 31  1  0
 15 32  1  0
 16 33  1  0
 17 34  1  0
 18 35  1  0
M  END
>  <UniqueID>  (10) 
589

>  <SMILES>  (10) 
c1ccc2c(c1)CCN2Cc1c[nH]c2ccccc12

>  <Energy>  (10) 
83.10329359377658

>  <Genealogy>  (10) 
c1ccc2c(c1)CCN2Cc1c[nH]c2ccccc12 (3D coordinates assigned)
c1ccc2c(c1)CCN2Cc1c[nH]c2ccccc12 (nonaromatic ring conformer: 83.10329359377658 kcal/mol)

>  <smiles>  (10) 
c1ccc2c(c1)CCN2Cc1c[nH]c2ccccc12

>  <score_type>  (10) 
oracle

>  <origin>  (10) 
autodockgpu

>  <m_score__min__energy>  (10) 
-6.7300000000000004

>  <m_primary>  (10) 
energy

>  <meeko>  (10) 
{"free_energy": -6.72, "intermolecular_energy": -7.32, "internal_energy": -0.73, "cluster_size": 19, "cluster_id": 1, "rank_in_cluster": 11}

>  <energy>  (10) 
-6.72

>  <cluster_rmsd>  (10) 
0.08

>  <rmsd>  (10) 
273.37

>  <cluster>  (10) 
1

$$$$
HDQBLRJEPZHFRL-UHFFFAOYNA-N
     RDKit          3D

 35 38  0  0  0  0  0  0  0  0999 V2000
  139.9110   73.7330  221.5940 C   0  0  0  0  0  0  0  0  0  0  0  0
  140.8700   72.7270  221.8250 C   0  0  0  0  0  0  0  0  0  0  0  0
  140.4920   71.5140  222.4230 C   0  0  0  0  0  0  0  0  0  0  0  0
  139.1470   71.3330  222.7710 C   0  0  0  0  0  0  0  0  0  0  0  0
  138.2200   72.3160  222.5530 C   0  0  0  0  0  0  0  0  0  0  0  0
  138.5720   73.5300  221.9630 C   0  0  0  0  0  0  0  0  0  0  0  0
  136.8770   71.8910  223.0330 C   0  0  0  0  0  0  0  0  0  0  0  0
  137.1260   70.4680  223.5850 C   0  0  0  0  0  0  0  0  0  0  0  0
  138.5530   70.1990  223.3860 N   0  0  0  0  0  0  0  0  0  0  0  0
  139.2000   68.9310  223.7250 C   0  0  0  0  0  0  0  0  0  0  0  0
  139.4460   68.8540  225.2020 C   0  0  0  0  0  0  0  0  0  0  0  0
  139.2630   67.7370  226.0120 C   0  0  0  0  0  0  0  0  0  0  0  0
  139.6690   68.0000  227.2750 N   0  0  0  0  0  0  0  0  0  0  0  0
  140.1180   69.2670  227.2660 C   0  0  0  0  0  0  0  0  0  0  0  0
  140.6590   69.9780  228.3370 C   0  0  0  0  0  0  0  0  0  0  0  0
  141.0890   71.2960  228.0990 C   0  0  0  0  0  0  0  0  0  0  0  0
  140.9720   71.8670  226.8120 C   0  0  0  0  0  0  0  0  0  0  0  0
  140.4220   71.1240  225.7510 C   0  0  0  0  0  0  0  0  0  0  0  0
  140.0020   69.8210  226.0160 C   0  0  0  0  0  0  0  0  0  0  0  0
  140.2125   74.6803  221.1231 H   0  0  0  0  0  0  0  0  0  0  0  0
  141.9184   72.8923  221.5359 H   0  0  0  0  0  0  0  0  0  0  0  0
  141.2342   70.7248  222.6137 H   0  0  0  0  0  0  0  0  0  0  0  0
  137.8169   74.3111  221.7907 H   0  0  0  0  0  0  0  0  0  0  0  0
  136.5118   72.5617  223.8247 H   0  0  0  0  0  0  0  0  0  0  0  0
  136.1113   71.9170  222.2436 H   0  0  0  0  0  0  0  0  0  0  0  0
  136.8748   70.4242  224.6550 H   0  0  0  0  0  0  0  0  0  0  0  0
  136.5010   69.7226  223.0715 H   0  0  0  0  0  0  0  0  0  0  0  0
  138.5488   68.0981  223.4212 H   0  0  0  0  0  0  0  0  0  0  0  0
  140.1628   68.8668  223.1969 H   0  0  0  0  0  0  0  0  0  0  0  0
  138.8472   66.7767  225.6730 H   0  0  0  0  0  0  0  0  0  0  0  0
  139.6520   67.3410  228.0860 H   0  0  0  0  0  0  0  0  0  0  0  0
  140.7465   69.5232  229.3347 H   0  0  0  0  0  0  0  0  0  0  0  0
  141.5196   71.8865  228.9211 H   0  0  0  0  0  0  0  0  0  0  0  0
  141.3128   72.8983  226.6383 H   0  0  0  0  0  0  0  0  0  0  0  0
  140.3264   71.5574  224.7445 H   0  0  0  0  0  0  0  0  0  0  0  0
  1  2  2  0
  2  3  1  0
  3  4  2  0
  4  5  1  0
  5  6  2  0
  5  7  1  0
  7  8  1  0
  8  9  1  0
  9 10  1  0
 10 11  1  0
 11 12  2  0
 12 13  1  0
 13 14  1  0
 14 15  2  0
 15 16  1  0
 16 17  2  0
 17 18  1  0
 18 19  2  0
  6  1  1  0
 19 11  1  0
  9  4  1  0
 19 14  1  0
  1 20  1  0
  2 21  1  0
  3 22  1  0
  6 23  1  0
  7 24  1  0
  7 25  1  0
  8 26  1  0
  8 27  1  0
 10 28  1  0
 10 29  1  0
 12 30  1  0
 13 31  1  0
 15 32  1  0
 16 33  1  0
 17 34  1  0
 18 35  1  0
M  END
>  <UniqueID>  (11) 
589

>  <SMILES>  (11) 
c1ccc2c(c1)CCN2Cc1c[nH]c2ccccc12

>  <Energy>  (11) 
83.10329359377658

>  <Genealogy>  (11) 
c1ccc2c(c1)CCN2Cc1c[nH]c2ccccc12 (3D coordinates assigned)
c1ccc2c(c1)CCN2Cc1c[nH]c2ccccc12 (nonaromatic ring conformer: 83.10329359377658 kcal/mol)

>  <smiles>  (11) 
c1ccc2c(c1)CCN2Cc1c[nH]c2ccccc12

>  <score_type>  (11) 
oracle

>  <origin>  (11) 
autodockgpu

>  <m_score__min__energy>  (11) 
-6.7300000000000004

>  <m_primary>  (11) 
energy

>  <meeko>  (11) 
{"free_energy": -6.72, "intermolecular_energy": -7.32, "internal_energy": -0.73, "cluster_size": 19, "cluster_id": 1, "rank_in_cluster": 16}

>  <energy>  (11) 
-6.72

>  <cluster_rmsd>  (11) 
0.04

>  <rmsd>  (11) 
273.39

>  <cluster>  (11) 
1

$$$$
HDQBLRJEPZHFRL-UHFFFAOYNA-N
     RDKit          3D

 35 38  0  0  0  0  0  0  0  0999 V2000
  139.9530   73.6560  221.5940 C   0  0  0  0  0  0  0  0  0  0  0  0
  140.9010   72.6390  221.8220 C   0  0  0  0  0  0  0  0  0  0  0  0
  140.5140   71.4340  222.4320 C   0  0  0  0  0  0  0  0  0  0  0  0
  139.1700   71.2730  222.7940 C   0  0  0  0  0  0  0  0  0  0  0  0
  138.2530   72.2660  222.5780 C   0  0  0  0  0  0  0  0  0  0  0  0
  138.6150   73.4720  221.9770 C   0  0  0  0  0  0  0  0  0  0  0  0
  136.9090   71.8610  223.0740 C   0  0  0  0  0  0  0  0  0  0  0  0
  137.1460   70.4380  223.6330 C   0  0  0  0  0  0  0  0  0  0  0  0
  138.5670   70.1500  223.4220 N   0  0  0  0  0  0  0  0  0  0  0  0
  139.2010   68.8760  223.7630 C   0  0  0  0  0  0  0  0  0  0  0  0
  139.4900   68.8190  225.2330 C   0  0  0  0  0  0  0  0  0  0  0  0
  139.3780   67.7000  226.0530 C   0  0  0  0  0  0  0  0  0  0  0  0
  139.8050   67.9870  227.3040 N   0  0  0  0  0  0  0  0  0  0  0  0
  140.1970   69.2720  227.2770 C   0  0  0  0  0  0  0  0  0  0  0  0
  140.7340   70.0140  228.3290 C   0  0  0  0  0  0  0  0  0  0  0  0
  141.0980   71.3470  228.0750 C   0  0  0  0  0  0  0  0  0  0  0  0
  140.9220   71.9050  226.7880 C   0  0  0  0  0  0  0  0  0  0  0  0
  140.3780   71.1330  225.7460 C   0  0  0  0  0  0  0  0  0  0  0  0
  140.0240   69.8140  226.0280 C   0  0  0  0  0  0  0  0  0  0  0  0
  140.2620   74.5966  221.1146 H   0  0  0  0  0  0  0  0  0  0  0  0
  141.9484   72.7890  221.5212 H   0  0  0  0  0  0  0  0  0  0  0  0
  141.2479   70.6367  222.6207 H   0  0  0  0  0  0  0  0  0  0  0  0
  137.8682   74.2615  221.8070 H   0  0  0  0  0  0  0  0  0  0  0  0
  136.5600   72.5413  223.8648 H   0  0  0  0  0  0  0  0  0  0  0  0
  136.1359   71.8916  222.2921 H   0  0  0  0  0  0  0  0  0  0  0  0
  136.9048   70.4042  224.7057 H   0  0  0  0  0  0  0  0  0  0  0  0
  136.5069   69.6972  223.1303 H   0  0  0  0  0  0  0  0  0  0  0  0
  138.5260   68.0504  223.4930 H   0  0  0  0  0  0  0  0  0  0  0  0
  140.1461   68.7852  223.2075 H   0  0  0  0  0  0  0  0  0  0  0  0
  138.9962   66.7205  225.7294 H   0  0  0  0  0  0  0  0  0  0  0  0
  139.8390   67.3330  228.1180 H   0  0  0  0  0  0  0  0  0  0  0  0
  140.8683   69.5694  229.3262 H   0  0  0  0  0  0  0  0  0  0  0  0
  141.5229   71.9607  228.8830 H   0  0  0  0  0  0  0  0  0  0  0  0
  141.2123   72.9493  226.6005 H   0  0  0  0  0  0  0  0  0  0  0  0
  140.2363   71.5561  224.7406 H   0  0  0  0  0  0  0  0  0  0  0  0
  1  2  2  0
  2  3  1  0
  3  4  2  0
  4  5  1  0
  5  6  2  0
  5  7  1  0
  7  8  1  0
  8  9  1  0
  9 10  1  0
 10 11  1  0
 11 12  2  0
 12 13  1  0
 13 14  1  0
 14 15  2  0
 15 16  1  0
 16 17  2  0
 17 18  1  0
 18 19  2  0
  6  1  1  0
 19 11  1  0
  9  4  1  0
 19 14  1  0
  1 20  1  0
  2 21  1  0
  3 22  1  0
  6 23  1  0
  7 24  1  0
  7 25  1  0
  8 26  1  0
  8 27  1  0
 10 28  1  0
 10 29  1  0
 12 30  1  0
 13 31  1  0
 15 32  1  0
 16 33  1  0
 17 34  1  0
 18 35  1  0
M  END
>  <UniqueID>  (12) 
589

>  <SMILES>  (12) 
c1ccc2c(c1)CCN2Cc1c[nH]c2ccccc12

>  <Energy>  (12) 
83.10329359377658

>  <Genealogy>  (12) 
c1ccc2c(c1)CCN2Cc1c[nH]c2ccccc12 (3D coordinates assigned)
c1ccc2c(c1)CCN2Cc1c[nH]c2ccccc12 (nonaromatic ring conformer: 83.10329359377658 kcal/mol)

>  <smiles>  (12) 
c1ccc2c(c1)CCN2Cc1c[nH]c2ccccc12

>  <score_type>  (12) 
oracle

>  <origin>  (12) 
autodockgpu

>  <m_score__min__energy>  (12) 
-6.7300000000000004

>  <m_primary>  (12) 
energy

>  <meeko>  (12) 
{"free_energy": -6.73, "intermolecular_energy": -7.33, "internal_energy": -0.72, "cluster_size": 19, "cluster_id": 1, "rank_in_cluster": 2}

>  <energy>  (12) 
-6.72

>  <cluster_rmsd>  (12) 
0.04

>  <rmsd>  (12) 
273.39

>  <cluster>  (12) 
1

$$$$
HDQBLRJEPZHFRL-UHFFFAOYNA-N
     RDKit          3D

 35 38  0  0  0  0  0  0  0  0999 V2000
  134.6450   71.2500  224.9880 C   0  0  0  0  0  0  0  0  0  0  0  0
  135.0960   69.9900  225.4260 C   0  0  0  0  0  0  0  0  0  0  0  0
  136.3270   69.4830  224.9760 C   0  0  0  0  0  0  0  0  0  0  0  0
  137.0870   70.2640  224.0950 C   0  0  0  0  0  0  0  0  0  0  0  0
  136.6410   71.4860  223.6660 C   0  0  0  0  0  0  0  0  0  0  0  0
  135.4210   72.0080  224.0980 C   0  0  0  0  0  0  0  0  0  0  0  0
  137.6130   72.1000  222.7210 C   0  0  0  0  0  0  0  0  0  0  0  0
  138.7470   71.0510  222.6390 C   0  0  0  0  0  0  0  0  0  0  0  0
  138.3450   69.9480  223.5160 N   0  0  0  0  0  0  0  0  0  0  0  0
  139.1670   68.7650  223.7690 C   0  0  0  0  0  0  0  0  0  0  0  0
  139.5490   68.7000  225.2170 C   0  0  0  0  0  0  0  0  0  0  0  0
  139.6010   67.5550  226.0070 C   0  0  0  0  0  0  0  0  0  0  0  0
  140.0730   67.8530  227.2390 N   0  0  0  0  0  0  0  0  0  0  0  0
  140.3320   69.1720  227.2290 C   0  0  0  0  0  0  0  0  0  0  0  0
  140.8560   69.9370  228.2710 C   0  0  0  0  0  0  0  0  0  0  0  0
  141.0680   71.3070  228.0370 C   0  0  0  0  0  0  0  0  0  0  0  0
  140.7590   71.8760  226.7810 C   0  0  0  0  0  0  0  0  0  0  0  0
  140.2320   71.0790  225.7490 C   0  0  0  0  0  0  0  0  0  0  0  0
  140.0290   69.7250  226.0100 C   0  0  0  0  0  0  0  0  0  0  0  0
  133.6809   71.6414  225.3448 H   0  0  0  0  0  0  0  0  0  0  0  0
  134.4824   69.4003  226.1230 H   0  0  0  0  0  0  0  0  0  0  0  0
  136.6852   68.4971  225.3072 H   0  0  0  0  0  0  0  0  0  0  0  0
  135.0753   72.9920  223.7485 H   0  0  0  0  0  0  0  0  0  0  0  0
  137.1542   72.2612  221.7343 H   0  0  0  0  0  0  0  0  0  0  0  0
  137.9660   73.0883  223.0507 H   0  0  0  0  0  0  0  0  0  0  0  0
  138.8625   70.6939  221.6050 H   0  0  0  0  0  0  0  0  0  0  0  0
  139.7125   71.4782  222.9477 H   0  0  0  0  0  0  0  0  0  0  0  0
  138.5969   67.8627  223.5028 H   0  0  0  0  0  0  0  0  0  0  0  0
  140.0805   68.8256  223.1592 H   0  0  0  0  0  0  0  0  0  0  0  0
  139.3007   66.5499  225.6761 H   0  0  0  0  0  0  0  0  0  0  0  0
  140.2220   67.1860  228.0290 H   0  0  0  0  0  0  0  0  0  0  0  0
  141.0955   69.4832  229.2440 H   0  0  0  0  0  0  0  0  0  0  0  0
  141.4774   71.9406  228.8376 H   0  0  0  0  0  0  0  0  0  0  0  0
  140.9317   72.9487  226.6094 H   0  0  0  0  0  0  0  0  0  0  0  0
  139.9878   71.5105  224.7671 H   0  0  0  0  0  0  0  0  0  0  0  0
  1  2  2  0
  2  3  1  0
  3  4  2  0
  4  5  1  0
  5  6  2  0
  5  7  1  0
  7  8  1  0
  8  9  1  0
  9 10  1  0
 10 11  1  0
 11 12  2  0
 12 13  1  0
 13 14  1  0
 14 15  2  0
 15 16  1  0
 16 17  2  0
 17 18  1  0
 18 19  2  0
  6  1  1  0
 19 11  1  0
  9  4  1  0
 19 14  1  0
  1 20  1  0
  2 21  1  0
  3 22  1  0
  6 23  1  0
  7 24  1  0
  7 25  1  0
  8 26  1  0
  8 27  1  0
 10 28  1  0
 10 29  1  0
 12 30  1  0
 13 31  1  0
 15 32  1  0
 16 33  1  0
 17 34  1  0
 18 35  1  0
M  END
>  <UniqueID>  (13) 
589

>  <SMILES>  (13) 
c1ccc2c(c1)CCN2Cc1c[nH]c2ccccc12

>  <Energy>  (13) 
83.10329359377658

>  <Genealogy>  (13) 
c1ccc2c(c1)CCN2Cc1c[nH]c2ccccc12 (3D coordinates assigned)
c1ccc2c(c1)CCN2Cc1c[nH]c2ccccc12 (nonaromatic ring conformer: 83.10329359377658 kcal/mol)

>  <smiles>  (13) 
c1ccc2c(c1)CCN2Cc1c[nH]c2ccccc12

>  <score_type>  (13) 
oracle

>  <origin>  (13) 
autodockgpu

>  <m_score__min__energy>  (13) 
-6.7300000000000004

>  <m_primary>  (13) 
energy

>  <meeko>  (13) 
{"free_energy": -6.65, "intermolecular_energy": -7.25, "internal_energy": -0.8, "cluster_size": 19, "cluster_id": 1, "rank_in_cluster": 18}

>  <energy>  (13) 
-6.72

>  <cluster_rmsd>  (13) 
0.04

>  <rmsd>  (13) 
273.38

>  <cluster>  (13) 
1

$$$$
HDQBLRJEPZHFRL-UHFFFAOYNA-N
     RDKit          3D

 35 38  0  0  0  0  0  0  0  0999 V2000
  139.8920   73.6810  221.5780 C   0  0  0  0  0  0  0  0  0  0  0  0
  140.8510   72.6720  221.7900 C   0  0  0  0  0  0  0  0  0  0  0  0
  140.4800   71.4590  222.3950 C   0  0  0  0  0  0  0  0  0  0  0  0
  139.1410   71.2830  222.7680 C   0  0  0  0  0  0  0  0  0  0  0  0
  138.2130   72.2700  222.5670 C   0  0  0  0  0  0  0  0  0  0  0  0
  138.5590   73.4830  221.9710 C   0  0  0  0  0  0  0  0  0  0  0  0
  136.8780   71.8490  223.0720 C   0  0  0  0  0  0  0  0  0  0  0  0
  137.1320   70.4240  223.6190 C   0  0  0  0  0  0  0  0  0  0  0  0
  138.5540   70.1500  223.3930 N   0  0  0  0  0  0  0  0  0  0  0  0
  139.2020   68.8800  223.7190 C   0  0  0  0  0  0  0  0  0  0  0  0
  139.4880   68.8070  225.1890 C   0  0  0  0  0  0  0  0  0  0  0  0
  139.3790   67.6780  225.9960 C   0  0  0  0  0  0  0  0  0  0  0  0
  139.8020   67.9530  227.2510 N   0  0  0  0  0  0  0  0  0  0  0  0
  140.1890   69.2400  227.2390 C   0  0  0  0  0  0  0  0  0  0  0  0
  140.7210   69.9720  228.3010 C   0  0  0  0  0  0  0  0  0  0  0  0
  141.0810   71.3100  228.0630 C   0  0  0  0  0  0  0  0  0  0  0  0
  140.9050   71.8810  226.7820 C   0  0  0  0  0  0  0  0  0  0  0  0
  140.3670   71.1190  225.7300 C   0  0  0  0  0  0  0  0  0  0  0  0
  140.0170   69.7960  225.9970 C   0  0  0  0  0  0  0  0  0  0  0  0
  140.1884   74.6277  221.1028 H   0  0  0  0  0  0  0  0  0  0  0  0
  141.8942   72.8338  221.4810 H   0  0  0  0  0  0  0  0  0  0  0  0
  141.2228   70.6671  222.5714 H   0  0  0  0  0  0  0  0  0  0  0  0
  137.8039   74.2670  221.8125 H   0  0  0  0  0  0  0  0  0  0  0  0
  136.5300   72.5206  223.8707 H   0  0  0  0  0  0  0  0  0  0  0  0
  136.0980   71.8778  222.2969 H   0  0  0  0  0  0  0  0  0  0  0  0
  136.9008   70.3806  224.6936 H   0  0  0  0  0  0  0  0  0  0  0  0
  136.4946   69.6811  223.1172 H   0  0  0  0  0  0  0  0  0  0  0  0
  138.5377   68.0501  223.4364 H   0  0  0  0  0  0  0  0  0  0  0  0
  140.1495   68.8079  223.1649 H   0  0  0  0  0  0  0  0  0  0  0  0
  139.0022   66.7005  225.6606 H   0  0  0  0  0  0  0  0  0  0  0  0
  139.8370   67.2900  228.0570 H   0  0  0  0  0  0  0  0  0  0  0  0
  140.8545   69.5165  229.2933 H   0  0  0  0  0  0  0  0  0  0  0  0
  141.5022   71.9162  228.8786 H   0  0  0  0  0  0  0  0  0  0  0  0
  141.1909   72.9287  226.6070 H   0  0  0  0  0  0  0  0  0  0  0  0
  140.2268   71.5525  224.7288 H   0  0  0  0  0  0  0  0  0  0  0  0
  1  2  2  0
  2  3  1  0
  3  4  2  0
  4  5  1  0
  5  6  2  0
  5  7  1  0
  7  8  1  0
  8  9  1  0
  9 10  1  0
 10 11  1  0
 11 12  2  0
 12 13  1  0
 13 14  1  0
 14 15  2  0
 15 16  1  0
 16 17  2  0
 17 18  1  0
 18 19  2  0
  6  1  1  0
 19 11  1  0
  9  4  1  0
 19 14  1  0
  1 20  1  0
  2 21  1  0
  3 22  1  0
  6 23  1  0
  7 24  1  0
  7 25  1  0
  8 26  1  0
  8 27  1  0
 10 28  1  0
 10 29  1  0
 12 30  1  0
 13 31  1  0
 15 32  1  0
 16 33  1  0
 17 34  1  0
 18 35  1  0
M  END
>  <UniqueID>  (14) 
589

>  <SMILES>  (14) 
c1ccc2c(c1)CCN2Cc1c[nH]c2ccccc12

>  <Energy>  (14) 
83.10329359377658

>  <Genealogy>  (14) 
c1ccc2c(c1)CCN2Cc1c[nH]c2ccccc12 (3D coordinates assigned)
c1ccc2c(c1)CCN2Cc1c[nH]c2ccccc12 (nonaromatic ring conformer: 83.10329359377658 kcal/mol)

>  <smiles>  (14) 
c1ccc2c(c1)CCN2Cc1c[nH]c2ccccc12

>  <score_type>  (14) 
oracle

>  <origin>  (14) 
autodockgpu

>  <m_score__min__energy>  (14) 
-6.7300000000000004

>  <m_primary>  (14) 
energy

>  <meeko>  (14) 
{"free_energy": -6.72, "intermolecular_energy": -7.32, "internal_energy": -0.73, "cluster_size": 19, "cluster_id": 1, "rank_in_cluster": 10}

>  <energy>  (14) 
-6.72

>  <cluster_rmsd>  (14) 
0.03

>  <rmsd>  (14) 
273.4

>  <cluster>  (14) 
1

$$$$
HDQBLRJEPZHFRL-UHFFFAOYNA-N
     RDKit          3D

 35 38  0  0  0  0  0  0  0  0999 V2000
  139.9070   73.6890  221.5850 C   0  0  0  0  0  0  0  0  0  0  0  0
  140.8620   72.6780  221.8080 C   0  0  0  0  0  0  0  0  0  0  0  0
  140.4860   71.4710  222.4180 C   0  0  0  0  0  0  0  0  0  0  0  0
  139.1450   71.2990  222.7860 C   0  0  0  0  0  0  0  0  0  0  0  0
  138.2200   72.2870  222.5750 C   0  0  0  0  0  0  0  0  0  0  0  0
  138.5720   73.4960  221.9730 C   0  0  0  0  0  0  0  0  0  0  0  0
  136.8810   71.8720  223.0760 C   0  0  0  0  0  0  0  0  0  0  0  0
  137.1300   70.4510  223.6330 C   0  0  0  0  0  0  0  0  0  0  0  0
  138.5520   70.1720  223.4150 N   0  0  0  0  0  0  0  0  0  0  0  0
  139.1960   68.9020  223.7520 C   0  0  0  0  0  0  0  0  0  0  0  0
  139.4640   68.8330  225.2250 C   0  0  0  0  0  0  0  0  0  0  0  0
  139.3230   67.7120  226.0380 C   0  0  0  0  0  0  0  0  0  0  0  0
  139.7380   67.9850  227.2960 N   0  0  0  0  0  0  0  0  0  0  0  0
  140.1520   69.2640  227.2810 C   0  0  0  0  0  0  0  0  0  0  0  0
  140.6880   69.9910  228.3440 C   0  0  0  0  0  0  0  0  0  0  0  0
  141.0780   71.3190  228.1010 C   0  0  0  0  0  0  0  0  0  0  0  0
  140.9290   71.8860  226.8150 C   0  0  0  0  0  0  0  0  0  0  0  0
  140.3860   71.1290  225.7620 C   0  0  0  0  0  0  0  0  0  0  0  0
  140.0050   69.8150  226.0320 C   0  0  0  0  0  0  0  0  0  0  0  0
  140.2082   74.6321  221.1056 H   0  0  0  0  0  0  0  0  0  0  0  0
  141.9071   72.8350  221.5028 H   0  0  0  0  0  0  0  0  0  0  0  0
  141.2266   70.6789  222.6028 H   0  0  0  0  0  0  0  0  0  0  0  0
  137.8194   74.2807  221.8062 H   0  0  0  0  0  0  0  0  0  0  0  0
  136.5302   72.5493  223.8686 H   0  0  0  0  0  0  0  0  0  0  0  0
  136.1047   71.8975  222.2971 H   0  0  0  0  0  0  0  0  0  0  0  0
  136.8943   70.4152  224.7068 H   0  0  0  0  0  0  0  0  0  0  0  0
  136.4933   69.7063  223.1330 H   0  0  0  0  0  0  0  0  0  0  0  0
  138.5349   68.0715  223.4636 H   0  0  0  0  0  0  0  0  0  0  0  0
  140.1501   68.8280  223.2095 H   0  0  0  0  0  0  0  0  0  0  0  0
  138.9294   66.7406  225.7042 H   0  0  0  0  0  0  0  0  0  0  0  0
  139.7500   67.3270  228.1070 H   0  0  0  0  0  0  0  0  0  0  0  0
  140.8018   69.5393  229.3405 H   0  0  0  0  0  0  0  0  0  0  0  0
  141.5023   71.9216  228.9176 H   0  0  0  0  0  0  0  0  0  0  0  0
  141.2398   72.9260  226.6368 H   0  0  0  0  0  0  0  0  0  0  0  0
  140.2655   71.5596  224.7570 H   0  0  0  0  0  0  0  0  0  0  0  0
  1  2  2  0
  2  3  1  0
  3  4  2  0
  4  5  1  0
  5  6  2  0
  5  7  1  0
  7  8  1  0
  8  9  1  0
  9 10  1  0
 10 11  1  0
 11 12  2  0
 12 13  1  0
 13 14  1  0
 14 15  2  0
 15 16  1  0
 16 17  2  0
 17 18  1  0
 18 19  2  0
  6  1  1  0
 19 11  1  0
  9  4  1  0
 19 14  1  0
  1 20  1  0
  2 21  1  0
  3 22  1  0
  6 23  1  0
  7 24  1  0
  7 25  1  0
  8 26  1  0
  8 27  1  0
 10 28  1  0
 10 29  1  0
 12 30  1  0
 13 31  1  0
 15 32  1  0
 16 33  1  0
 17 34  1  0
 18 35  1  0
M  END
>  <UniqueID>  (15) 
589

>  <SMILES>  (15) 
c1ccc2c(c1)CCN2Cc1c[nH]c2ccccc12

>  <Energy>  (15) 
83.10329359377658

>  <Genealogy>  (15) 
c1ccc2c(c1)CCN2Cc1c[nH]c2ccccc12 (3D coordinates assigned)
c1ccc2c(c1)CCN2Cc1c[nH]c2ccccc12 (nonaromatic ring conformer: 83.10329359377658 kcal/mol)

>  <smiles>  (15) 
c1ccc2c(c1)CCN2Cc1c[nH]c2ccccc12

>  <score_type>  (15) 
oracle

>  <origin>  (15) 
autodockgpu

>  <m_score__min__energy>  (15) 
-6.7300000000000004

>  <m_primary>  (15) 
energy

>  <meeko>  (15) 
{"free_energy": -6.73, "intermolecular_energy": -7.33, "internal_energy": -0.73, "cluster_size": 19, "cluster_id": 1, "rank_in_cluster": 4}

>  <energy>  (15) 
-6.72

>  <cluster_rmsd>  (15) 
0.04

>  <rmsd>  (15) 
273.39

>  <cluster>  (15) 
1

$$$$
HDQBLRJEPZHFRL-UHFFFAOYNA-N
     RDKit          3D

 35 38  0  0  0  0  0  0  0  0999 V2000
  139.9490   73.6820  221.5790 C   0  0  0  0  0  0  0  0  0  0  0  0
  140.8990   72.6670  221.8060 C   0  0  0  0  0  0  0  0  0  0  0  0
  140.5140   71.4620  222.4170 C   0  0  0  0  0  0  0  0  0  0  0  0
  139.1720   71.2990  222.7820 C   0  0  0  0  0  0  0  0  0  0  0  0
  138.2530   72.2910  222.5670 C   0  0  0  0  0  0  0  0  0  0  0  0
  138.6120   73.4970  221.9640 C   0  0  0  0  0  0  0  0  0  0  0  0
  136.9100   71.8850  223.0660 C   0  0  0  0  0  0  0  0  0  0  0  0
  137.1500   70.4620  223.6250 C   0  0  0  0  0  0  0  0  0  0  0  0
  138.5710   70.1760  223.4120 N   0  0  0  0  0  0  0  0  0  0  0  0
  139.2080   68.9030  223.7520 C   0  0  0  0  0  0  0  0  0  0  0  0
  139.4760   68.8370  225.2250 C   0  0  0  0  0  0  0  0  0  0  0  0
  139.3340   67.7170  226.0400 C   0  0  0  0  0  0  0  0  0  0  0  0
  139.7500   67.9930  227.2970 N   0  0  0  0  0  0  0  0  0  0  0  0
  140.1650   69.2720  227.2790 C   0  0  0  0  0  0  0  0  0  0  0  0
  140.7020   70.0000  228.3410 C   0  0  0  0  0  0  0  0  0  0  0  0
  141.0930   71.3280  228.0950 C   0  0  0  0  0  0  0  0  0  0  0  0
  140.9430   71.8920  226.8080 C   0  0  0  0  0  0  0  0  0  0  0  0
  140.3990   71.1330  225.7570 C   0  0  0  0  0  0  0  0  0  0  0  0
  140.0180   69.8200  226.0300 C   0  0  0  0  0  0  0  0  0  0  0  0
  140.2560   74.6227  221.0984 H   0  0  0  0  0  0  0  0  0  0  0  0
  141.9458   72.8184  221.5038 H   0  0  0  0  0  0  0  0  0  0  0  0
  141.2492   70.6655  222.6042 H   0  0  0  0  0  0  0  0  0  0  0  0
  137.8638   74.2853  221.7941 H   0  0  0  0  0  0  0  0  0  0  0  0
  136.5620   72.5652  223.8573 H   0  0  0  0  0  0  0  0  0  0  0  0
  136.1351   71.9148  222.2859 H   0  0  0  0  0  0  0  0  0  0  0  0
  136.9104   70.4280  224.6981 H   0  0  0  0  0  0  0  0  0  0  0  0
  136.5112   69.7202  223.1233 H   0  0  0  0  0  0  0  0  0  0  0  0
  138.5421   68.0754  223.4662 H   0  0  0  0  0  0  0  0  0  0  0  0
  140.1613   68.8217  223.2092 H   0  0  0  0  0  0  0  0  0  0  0  0
  138.9393   66.7452  225.7084 H   0  0  0  0  0  0  0  0  0  0  0  0
  139.7620   67.3370  228.1100 H   0  0  0  0  0  0  0  0  0  0  0  0
  140.8158   69.5498  229.3382 H   0  0  0  0  0  0  0  0  0  0  0  0
  141.5186   71.9320  228.9099 H   0  0  0  0  0  0  0  0  0  0  0  0
  141.2539   72.9316  226.6273 H   0  0  0  0  0  0  0  0  0  0  0  0
  140.2778   71.5615  224.7512 H   0  0  0  0  0  0  0  0  0  0  0  0
  1  2  2  0
  2  3  1  0
  3  4  2  0
  4  5  1  0
  5  6  2  0
  5  7  1  0
  7  8  1  0
  8  9  1  0
  9 10  1  0
 10 11  1  0
 11 12  2  0
 12 13  1  0
 13 14  1  0
 14 15  2  0
 15 16  1  0
 16 17  2  0
 17 18  1  0
 18 19  2  0
  6  1  1  0
 19 11  1  0
  9  4  1  0
 19 14  1  0
  1 20  1  0
  2 21  1  0
  3 22  1  0
  6 23  1  0
  7 24  1  0
  7 25  1  0
  8 26  1  0
  8 27  1  0
 10 28  1  0
 10 29  1  0
 12 30  1  0
 13 31  1  0
 15 32  1  0
 16 33  1  0
 17 34  1  0
 18 35  1  0
M  END
>  <UniqueID>  (16) 
589

>  <SMILES>  (16) 
c1ccc2c(c1)CCN2Cc1c[nH]c2ccccc12

>  <Energy>  (16) 
83.10329359377658

>  <Genealogy>  (16) 
c1ccc2c(c1)CCN2Cc1c[nH]c2ccccc12 (3D coordinates assigned)
c1ccc2c(c1)CCN2Cc1c[nH]c2ccccc12 (nonaromatic ring conformer: 83.10329359377658 kcal/mol)

>  <smiles>  (16) 
c1ccc2c(c1)CCN2Cc1c[nH]c2ccccc12

>  <score_type>  (16) 
oracle

>  <origin>  (16) 
autodockgpu

>  <m_score__min__energy>  (16) 
-6.7300000000000004

>  <m_primary>  (16) 
energy

>  <meeko>  (16) 
{"free_energy": -6.73, "intermolecular_energy": -7.32, "internal_energy": -0.73, "cluster_size": 19, "cluster_id": 1, "rank_in_cluster": 6}

>  <energy>  (16) 
-6.72

>  <cluster_rmsd>  (16) 
0.04

>  <rmsd>  (16) 
273.38

>  <cluster>  (16) 
1

$$$$
HDQBLRJEPZHFRL-UHFFFAOYNA-N
     RDKit          3D

 35 38  0  0  0  0  0  0  0  0999 V2000
  141.4300   71.7620  228.0150 C   0  0  0  0  0  0  0  0  0  0  0  0
  141.0930   72.2460  226.7360 C   0  0  0  0  0  0  0  0  0  0  0  0
  140.5200   71.3880  225.7830 C   0  0  0  0  0  0  0  0  0  0  0  0
  140.2880   70.0540  226.1420 C   0  0  0  0  0  0  0  0  0  0  0  0
  140.6240   69.5850  227.3830 C   0  0  0  0  0  0  0  0  0  0  0  0
  141.1960   70.4180  228.3450 C   0  0  0  0  0  0  0  0  0  0  0  0
  140.3030   68.1370  227.5050 C   0  0  0  0  0  0  0  0  0  0  0  0
  139.7030   67.7840  226.1240 C   0  0  0  0  0  0  0  0  0  0  0  0
  139.7290   69.0220  225.3410 N   0  0  0  0  0  0  0  0  0  0  0  0
  139.1990   69.1400  223.9820 C   0  0  0  0  0  0  0  0  0  0  0  0
  138.2170   70.2690  223.9070 C   0  0  0  0  0  0  0  0  0  0  0  0
  138.4290   71.5100  223.3110 C   0  0  0  0  0  0  0  0  0  0  0  0
  137.2980   72.2500  223.3480 N   0  0  0  0  0  0  0  0  0  0  0  0
  136.3720   71.4850  223.9500 C   0  0  0  0  0  0  0  0  0  0  0  0
  135.0380   71.8100  224.1980 C   0  0  0  0  0  0  0  0  0  0  0  0
  134.2320   70.8450  224.8260 C   0  0  0  0  0  0  0  0  0  0  0  0
  134.7690   69.5890  225.1870 C   0  0  0  0  0  0  0  0  0  0  0  0
  136.1170   69.2880  224.9240 C   0  0  0  0  0  0  0  0  0  0  0  0
  136.8930   70.2650  224.3020 C   0  0  0  0  0  0  0  0  0  0  0  0
  141.8778   72.4391  228.7573 H   0  0  0  0  0  0  0  0  0  0  0  0
  141.2793   73.3001  226.4825 H   0  0  0  0  0  0  0  0  0  0  0  0
  140.2597   71.7547  224.7791 H   0  0  0  0  0  0  0  0  0  0  0  0
  141.4579   70.0299  229.3404 H   0  0  0  0  0  0  0  0  0  0  0  0
  141.2109   67.5480  227.7017 H   0  0  0  0  0  0  0  0  0  0  0  0
  139.6193   67.9179  228.3384 H   0  0  0  0  0  0  0  0  0  0  0  0
  140.3081   67.0083  225.6319 H   0  0  0  0  0  0  0  0  0  0  0  0
  138.6803   67.3901  226.2190 H   0  0  0  0  0  0  0  0  0  0  0  0
  140.0274   69.3317  223.2841 H   0  0  0  0  0  0  0  0  0  0  0  0
  138.6904   68.2028  223.7119 H   0  0  0  0  0  0  0  0  0  0  0  0
  139.3818   71.8412  222.8723 H   0  0  0  0  0  0  0  0  0  0  0  0
  137.1700   73.2150  222.9680 H   0  0  0  0  0  0  0  0  0  0  0  0
  134.6300   72.7904  223.9111 H   0  0  0  0  0  0  0  0  0  0  0  0
  133.1761   71.0691  225.0379 H   0  0  0  0  0  0  0  0  0  0  0  0
  134.1280   68.8414  225.6772 H   0  0  0  0  0  0  0  0  0  0  0  0
  136.5455   68.3132  225.2001 H   0  0  0  0  0  0  0  0  0  0  0  0
  1  2  2  0
  2  3  1  0
  3  4  2  0
  4  5  1  0
  5  6  2  0
  5  7  1  0
  7  8  1  0
  8  9  1  0
  9 10  1  0
 10 11  1  0
 11 12  2  0
 12 13  1  0
 13 14  1  0
 14 15  2  0
 15 16  1  0
 16 17  2  0
 17 18  1  0
 18 19  2  0
  6  1  1  0
 19 11  1  0
  9  4  1  0
 19 14  1  0
  1 20  1  0
  2 21  1  0
  3 22  1  0
  6 23  1  0
  7 24  1  0
  7 25  1  0
  8 26  1  0
  8 27  1  0
 10 28  1  0
 10 29  1  0
 12 30  1  0
 13 31  1  0
 15 32  1  0
 16 33  1  0
 17 34  1  0
 18 35  1  0
M  END
>  <UniqueID>  (17) 
589

>  <SMILES>  (17) 
c1ccc2c(c1)CCN2Cc1c[nH]c2ccccc12

>  <Energy>  (17) 
83.10329359377658

>  <Genealogy>  (17) 
c1ccc2c(c1)CCN2Cc1c[nH]c2ccccc12 (3D coordinates assigned)
c1ccc2c(c1)CCN2Cc1c[nH]c2ccccc12 (nonaromatic ring conformer: 83.10329359377658 kcal/mol)

>  <smiles>  (17) 
c1ccc2c(c1)CCN2Cc1c[nH]c2ccccc12

>  <score_type>  (17) 
oracle

>  <origin>  (17) 
autodockgpu

>  <m_score__min__energy>  (17) 
-6.7300000000000004

>  <m_primary>  (17) 
energy

>  <meeko>  (17) 
{"free_energy": -6.54, "intermolecular_energy": -7.14, "internal_energy": -0.63, "cluster_size": 1, "cluster_id": 2, "rank_in_cluster": 1}

>  <energy>  (17) 
-6.72

>  <cluster_rmsd>  (17) 
0.07

>  <rmsd>  (17) 
273.41

>  <cluster>  (17) 
1

$$$$
HDQBLRJEPZHFRL-UHFFFAOYNA-N
     RDKit          3D

 35 38  0  0  0  0  0  0  0  0999 V2000
  139.9050   73.6700  221.5850 C   0  0  0  0  0  0  0  0  0  0  0  0
  140.8590   72.6580  221.8090 C   0  0  0  0  0  0  0  0  0  0  0  0
  140.4800   71.4510  222.4200 C   0  0  0  0  0  0  0  0  0  0  0  0
  139.1390   71.2830  222.7890 C   0  0  0  0  0  0  0  0  0  0  0  0
  138.2170   72.2730  222.5770 C   0  0  0  0  0  0  0  0  0  0  0  0
  138.5700   73.4800  221.9740 C   0  0  0  0  0  0  0  0  0  0  0  0
  136.8770   71.8610  223.0790 C   0  0  0  0  0  0  0  0  0  0  0  0
  137.1230   70.4390  223.6370 C   0  0  0  0  0  0  0  0  0  0  0  0
  138.5440   70.1580  223.4200 N   0  0  0  0  0  0  0  0  0  0  0  0
  139.1860   68.8870  223.7580 C   0  0  0  0  0  0  0  0  0  0  0  0
  139.4640   68.8240  225.2290 C   0  0  0  0  0  0  0  0  0  0  0  0
  139.3310   67.7040  226.0470 C   0  0  0  0  0  0  0  0  0  0  0  0
  139.7550   67.9840  227.3010 N   0  0  0  0  0  0  0  0  0  0  0  0
  140.1640   69.2640  227.2780 C   0  0  0  0  0  0  0  0  0  0  0  0
  140.7050   69.9950  228.3360 C   0  0  0  0  0  0  0  0  0  0  0  0
  141.0900   71.3240  228.0860 C   0  0  0  0  0  0  0  0  0  0  0  0
  140.9290   71.8870  226.7990 C   0  0  0  0  0  0  0  0  0  0  0  0
  140.3820   71.1240  225.7520 C   0  0  0  0  0  0  0  0  0  0  0  0
  140.0070   69.8100  226.0300 C   0  0  0  0  0  0  0  0  0  0  0  0
  140.2073   74.6119  221.1038 H   0  0  0  0  0  0  0  0  0  0  0  0
  141.9045   72.8134  221.5044 H   0  0  0  0  0  0  0  0  0  0  0  0
  141.2185   70.6569  222.6042 H   0  0  0  0  0  0  0  0  0  0  0  0
  137.8186   74.2658  221.8070 H   0  0  0  0  0  0  0  0  0  0  0  0
  136.5281   72.5396  223.8714 H   0  0  0  0  0  0  0  0  0  0  0  0
  136.1005   71.8877  222.3003 H   0  0  0  0  0  0  0  0  0  0  0  0
  136.8865   70.4040  224.7107 H   0  0  0  0  0  0  0  0  0  0  0  0
  136.4852   69.6951  223.1371 H   0  0  0  0  0  0  0  0  0  0  0  0
  138.5200   68.0575  223.4780 H   0  0  0  0  0  0  0  0  0  0  0  0
  140.1358   68.8070  223.2090 H   0  0  0  0  0  0  0  0  0  0  0  0
  138.9372   66.7304  225.7198 H   0  0  0  0  0  0  0  0  0  0  0  0
  139.7740   67.3280  228.1140 H   0  0  0  0  0  0  0  0  0  0  0  0
  140.8264   69.5464  229.3330 H   0  0  0  0  0  0  0  0  0  0  0  0
  141.5195   71.9300  228.8974 H   0  0  0  0  0  0  0  0  0  0  0  0
  141.2334   72.9280  226.6156 H   0  0  0  0  0  0  0  0  0  0  0  0
  140.2540   71.5501  224.7460 H   0  0  0  0  0  0  0  0  0  0  0  0
  1  2  2  0
  2  3  1  0
  3  4  2  0
  4  5  1  0
  5  6  2  0
  5  7  1  0
  7  8  1  0
  8  9  1  0
  9 10  1  0
 10 11  1  0
 11 12  2  0
 12 13  1  0
 13 14  1  0
 14 15  2  0
 15 16  1  0
 16 17  2  0
 17 18  1  0
 18 19  2  0
  6  1  1  0
 19 11  1  0
  9  4  1  0
 19 14  1  0
  1 20  1  0
  2 21  1  0
  3 22  1  0
  6 23  1  0
  7 24  1  0
  7 25  1  0
  8 26  1  0
  8 27  1  0
 10 28  1  0
 10 29  1  0
 12 30  1  0
 13 31  1  0
 15 32  1  0
 16 33  1  0
 17 34  1  0
 18 35  1  0
M  END
>  <UniqueID>  (18) 
589

>  <SMILES>  (18) 
c1ccc2c(c1)CCN2Cc1c[nH]c2ccccc12

>  <Energy>  (18) 
83.10329359377658

>  <Genealogy>  (18) 
c1ccc2c(c1)CCN2Cc1c[nH]c2ccccc12 (3D coordinates assigned)
c1ccc2c(c1)CCN2Cc1c[nH]c2ccccc12 (nonaromatic ring conformer: 83.10329359377658 kcal/mol)

>  <smiles>  (18) 
c1ccc2c(c1)CCN2Cc1c[nH]c2ccccc12

>  <score_type>  (18) 
oracle

>  <origin>  (18) 
autodockgpu

>  <m_score__min__energy>  (18) 
-6.7300000000000004

>  <m_primary>  (18) 
energy

>  <meeko>  (18) 
{"free_energy": -6.73, "intermolecular_energy": -7.32, "internal_energy": -0.73, "cluster_size": 19, "cluster_id": 1, "rank_in_cluster": 8}

>  <energy>  (18) 
-6.65

>  <cluster_rmsd>  (18) 
1.98

>  <rmsd>  (18) 
273.3

>  <cluster>  (18) 
1

$$$$
HDQBLRJEPZHFRL-UHFFFAOYNA-N
     RDKit          3D

 35 38  0  0  0  0  0  0  0  0999 V2000
  139.9410   73.6870  221.5950 C   0  0  0  0  0  0  0  0  0  0  0  0
  140.8940   72.6750  221.8230 C   0  0  0  0  0  0  0  0  0  0  0  0
  140.5110   71.4660  222.4270 C   0  0  0  0  0  0  0  0  0  0  0  0
  139.1670   71.2960  222.7840 C   0  0  0  0  0  0  0  0  0  0  0  0
  138.2450   72.2860  222.5680 C   0  0  0  0  0  0  0  0  0  0  0  0
  138.6030   73.4950  221.9720 C   0  0  0  0  0  0  0  0  0  0  0  0
  136.9020   71.8720  223.0580 C   0  0  0  0  0  0  0  0  0  0  0  0
  137.1440   70.4480  223.6130 C   0  0  0  0  0  0  0  0  0  0  0  0
  138.5670   70.1680  223.4060 N   0  0  0  0  0  0  0  0  0  0  0  0
  139.2070   68.8970  223.7450 C   0  0  0  0  0  0  0  0  0  0  0  0
  139.4760   68.8300  225.2180 C   0  0  0  0  0  0  0  0  0  0  0  0
  139.3370   67.7090  226.0330 C   0  0  0  0  0  0  0  0  0  0  0  0
  139.7540   67.9850  227.2900 N   0  0  0  0  0  0  0  0  0  0  0  0
  140.1650   69.2650  227.2720 C   0  0  0  0  0  0  0  0  0  0  0  0
  140.7010   69.9930  228.3340 C   0  0  0  0  0  0  0  0  0  0  0  0
  141.0900   71.3220  228.0890 C   0  0  0  0  0  0  0  0  0  0  0  0
  140.9380   71.8870  226.8020 C   0  0  0  0  0  0  0  0  0  0  0  0
  140.3950   71.1270  225.7510 C   0  0  0  0  0  0  0  0  0  0  0  0
  140.0160   69.8140  226.0240 C   0  0  0  0  0  0  0  0  0  0  0  0
  140.2466   74.6308  221.1199 H   0  0  0  0  0  0  0  0  0  0  0  0
  141.9417   72.8320  221.5270 H   0  0  0  0  0  0  0  0  0  0  0  0
  141.2486   70.6719  222.6151 H   0  0  0  0  0  0  0  0  0  0  0  0
  137.8528   74.2811  221.8011 H   0  0  0  0  0  0  0  0  0  0  0  0
  136.5468   72.5477  223.8500 H   0  0  0  0  0  0  0  0  0  0  0  0
  136.1316   71.9011  222.2734 H   0  0  0  0  0  0  0  0  0  0  0  0
  136.8992   70.4092  224.6847 H   0  0  0  0  0  0  0  0  0  0  0  0
  136.5103   69.7057  223.1056 H   0  0  0  0  0  0  0  0  0  0  0  0
  138.5430   68.0680  223.4587 H   0  0  0  0  0  0  0  0  0  0  0  0
  140.1604   68.8190  223.2019 H   0  0  0  0  0  0  0  0  0  0  0  0
  138.9437   66.7367  225.7014 H   0  0  0  0  0  0  0  0  0  0  0  0
  139.7670   67.3280  228.1010 H   0  0  0  0  0  0  0  0  0  0  0  0
  140.8158   69.5423  229.3308 H   0  0  0  0  0  0  0  0  0  0  0  0
  141.5153   71.9259  228.9041 H   0  0  0  0  0  0  0  0  0  0  0  0
  141.2464   72.9274  226.6218 H   0  0  0  0  0  0  0  0  0  0  0  0
  140.2732   71.5553  224.7451 H   0  0  0  0  0  0  0  0  0  0  0  0
  1  2  2  0
  2  3  1  0
  3  4  2  0
  4  5  1  0
  5  6  2  0
  5  7  1  0
  7  8  1  0
  8  9  1  0
  9 10  1  0
 10 11  1  0
 11 12  2  0
 12 13  1  0
 13 14  1  0
 14 15  2  0
 15 16  1  0
 16 17  2  0
 17 18  1  0
 18 19  2  0
  6  1  1  0
 19 11  1  0
  9  4  1  0
 19 14  1  0
  1 20  1  0
  2 21  1  0
  3 22  1  0
  6 23  1  0
  7 24  1  0
  7 25  1  0
  8 26  1  0
  8 27  1  0
 10 28  1  0
 10 29  1  0
 12 30  1  0
 13 31  1  0
 15 32  1  0
 16 33  1  0
 17 34  1  0
 18 35  1  0
M  END
>  <UniqueID>  (19) 
589

>  <SMILES>  (19) 
c1ccc2c(c1)CCN2Cc1c[nH]c2ccccc12

>  <Energy>  (19) 
83.10329359377658

>  <Genealogy>  (19) 
c1ccc2c(c1)CCN2Cc1c[nH]c2ccccc12 (3D coordinates assigned)
c1ccc2c(c1)CCN2Cc1c[nH]c2ccccc12 (nonaromatic ring conformer: 83.10329359377658 kcal/mol)

>  <smiles>  (19) 
c1ccc2c(c1)CCN2Cc1c[nH]c2ccccc12

>  <score_type>  (19) 
oracle

>  <origin>  (19) 
autodockgpu

>  <m_score__min__energy>  (19) 
-6.7300000000000004

>  <m_primary>  (19) 
energy

>  <meeko>  (19) 
{"free_energy": -6.73, "intermolecular_energy": -7.32, "internal_energy": -0.73, "cluster_size": 19, "cluster_id": 1, "rank_in_cluster": 5}

>  <energy>  (19) 
-6.64

>  <cluster_rmsd>  (19) 
1.97

>  <rmsd>  (19) 
273.3

>  <cluster>  (19) 
1

$$$$
HDQBLRJEPZHFRL-UHFFFAOYNA-N
     RDKit          3D

 35 38  0  0  0  0  0  0  0  0999 V2000
  139.9030   73.6840  221.5860 C   0  0  0  0  0  0  0  0  0  0  0  0
  140.8590   72.6740  221.8100 C   0  0  0  0  0  0  0  0  0  0  0  0
  140.4830   71.4660  222.4200 C   0  0  0  0  0  0  0  0  0  0  0  0
  139.1410   71.2940  222.7860 C   0  0  0  0  0  0  0  0  0  0  0  0
  138.2160   72.2810  222.5740 C   0  0  0  0  0  0  0  0  0  0  0  0
  138.5670   73.4900  221.9720 C   0  0  0  0  0  0  0  0  0  0  0  0
  136.8770   71.8650  223.0730 C   0  0  0  0  0  0  0  0  0  0  0  0
  137.1260   70.4440  223.6300 C   0  0  0  0  0  0  0  0  0  0  0  0
  138.5480   70.1660  223.4140 N   0  0  0  0  0  0  0  0  0  0  0  0
  139.1930   68.8970  223.7520 C   0  0  0  0  0  0  0  0  0  0  0  0
  139.4660   68.8310  225.2240 C   0  0  0  0  0  0  0  0  0  0  0  0
  139.3280   67.7110  226.0400 C   0  0  0  0  0  0  0  0  0  0  0  0
  139.7470   67.9880  227.2960 N   0  0  0  0  0  0  0  0  0  0  0  0
  140.1590   69.2670  227.2770 C   0  0  0  0  0  0  0  0  0  0  0  0
  140.6970   69.9970  228.3370 C   0  0  0  0  0  0  0  0  0  0  0  0
  141.0850   71.3250  228.0900 C   0  0  0  0  0  0  0  0  0  0  0  0
  140.9300   71.8890  226.8040 C   0  0  0  0  0  0  0  0  0  0  0  0
  140.3850   71.1290  225.7540 C   0  0  0  0  0  0  0  0  0  0  0  0
  140.0070   69.8150  226.0280 C   0  0  0  0  0  0  0  0  0  0  0  0
  140.2040   74.6275  221.1073 H   0  0  0  0  0  0  0  0  0  0  0  0
  141.9043   72.8320  221.5059 H   0  0  0  0  0  0  0  0  0  0  0  0
  141.2237   70.6743  222.6060 H   0  0  0  0  0  0  0  0  0  0  0  0
  137.8137   74.2737  221.8036 H   0  0  0  0  0  0  0  0  0  0  0  0
  136.5247   72.5419  223.8653 H   0  0  0  0  0  0  0  0  0  0  0  0
  136.1018   71.8901  222.2929 H   0  0  0  0  0  0  0  0  0  0  0  0
  136.8888   70.4078  224.7035 H   0  0  0  0  0  0  0  0  0  0  0  0
  136.4904   69.6990  223.1289 H   0  0  0  0  0  0  0  0  0  0  0  0
  138.5309   68.0659  223.4676 H   0  0  0  0  0  0  0  0  0  0  0  0
  140.1454   68.8221  223.2067 H   0  0  0  0  0  0  0  0  0  0  0  0
  138.9340   66.7385  225.7098 H   0  0  0  0  0  0  0  0  0  0  0  0
  139.7620   67.3310  228.1080 H   0  0  0  0  0  0  0  0  0  0  0  0
  140.8138   69.5476  229.3342 H   0  0  0  0  0  0  0  0  0  0  0  0
  141.5124   71.9295  228.9036 H   0  0  0  0  0  0  0  0  0  0  0  0
  141.2377   72.9295  226.6229 H   0  0  0  0  0  0  0  0  0  0  0  0
  140.2608   71.5573  224.7485 H   0  0  0  0  0  0  0  0  0  0  0  0
  1  2  2  0
  2  3  1  0
  3  4  2  0
  4  5  1  0
  5  6  2  0
  5  7  1  0
  7  8  1  0
  8  9  1  0
  9 10  1  0
 10 11  1  0
 11 12  2  0
 12 13  1  0
 13 14  1  0
 14 15  2  0
 15 16  1  0
 16 17  2  0
 17 18  1  0
 18 19  2  0
  6  1  1  0
 19 11  1  0
  9  4  1  0
 19 14  1  0
  1 20  1  0
  2 21  1  0
  3 22  1  0
  6 23  1  0
  7 24  1  0
  7 25  1  0
  8 26  1  0
  8 27  1  0
 10 28  1  0
 10 29  1  0
 12 30  1  0
 13 31  1  0
 15 32  1  0
 16 33  1  0
 17 34  1  0
 18 35  1  0
M  END
>  <UniqueID>  (20) 
589

>  <SMILES>  (20) 
c1ccc2c(c1)CCN2Cc1c[nH]c2ccccc12

>  <Energy>  (20) 
83.10329359377658

>  <Genealogy>  (20) 
c1ccc2c(c1)CCN2Cc1c[nH]c2ccccc12 (3D coordinates assigned)
c1ccc2c(c1)CCN2Cc1c[nH]c2ccccc12 (nonaromatic ring conformer: 83.10329359377658 kcal/mol)

>  <smiles>  (20) 
c1ccc2c(c1)CCN2Cc1c[nH]c2ccccc12

>  <score_type>  (20) 
oracle

>  <origin>  (20) 
autodockgpu

>  <m_score__min__energy>  (20) 
-6.7300000000000004

>  <m_primary>  (20) 
energy

>  <meeko>  (20) 
{"free_energy": -6.73, "intermolecular_energy": -7.33, "internal_energy": -0.73, "cluster_size": 19, "cluster_id": 1, "rank_in_cluster": 3}

>  <energy>  (20) 
-6.54

>  <cluster_rmsd>  (20) 
0.0

>  <rmsd>  (20) 
273.24

>  <cluster>  (20) 
2

$$$$
HDQBLRJEPZHFRL-UHFFFAOYNA-N
     RDKit          3D

 35 38  0  0  0  0  0  0  0  0999 V2000
  139.9200   73.6970  221.5880 C   0  0  0  0  0  0  0  0  0  0  0  0
  140.8780   72.6900  221.8160 C   0  0  0  0  0  0  0  0  0  0  0  0
  140.5030   71.4790  222.4200 C   0  0  0  0  0  0  0  0  0  0  0  0
  139.1600   71.3010  222.7770 C   0  0  0  0  0  0  0  0  0  0  0  0
  138.2320   72.2850  222.5610 C   0  0  0  0  0  0  0  0  0  0  0  0
  138.5830   73.4970  221.9650 C   0  0  0  0  0  0  0  0  0  0  0  0
  136.8910   71.8630  223.0510 C   0  0  0  0  0  0  0  0  0  0  0  0
  137.1420   70.4410  223.6060 C   0  0  0  0  0  0  0  0  0  0  0  0
  138.5670   70.1690  223.3990 N   0  0  0  0  0  0  0  0  0  0  0  0
  139.2140   68.9020  223.7380 C   0  0  0  0  0  0  0  0  0  0  0  0
  139.4770   68.8330  225.2120 C   0  0  0  0  0  0  0  0  0  0  0  0
  139.3310   67.7120  226.0250 C   0  0  0  0  0  0  0  0  0  0  0  0
  139.7440   67.9860  227.2840 N   0  0  0  0  0  0  0  0  0  0  0  0
  140.1590   69.2640  227.2690 C   0  0  0  0  0  0  0  0  0  0  0  0
  140.6930   69.9910  228.3330 C   0  0  0  0  0  0  0  0  0  0  0  0
  141.0850   71.3190  228.0910 C   0  0  0  0  0  0  0  0  0  0  0  0
  140.9410   71.8850  226.8040 C   0  0  0  0  0  0  0  0  0  0  0  0
  140.4000   71.1280  225.7500 C   0  0  0  0  0  0  0  0  0  0  0  0
  140.0170   69.8150  226.0200 C   0  0  0  0  0  0  0  0  0  0  0  0
  140.2205   74.6427  221.1132 H   0  0  0  0  0  0  0  0  0  0  0  0
  141.9247   72.8529  221.5196 H   0  0  0  0  0  0  0  0  0  0  0  0
  141.2455   70.6895  222.6082 H   0  0  0  0  0  0  0  0  0  0  0  0
  137.8281   74.2787  221.7944 H   0  0  0  0  0  0  0  0  0  0  0  0
  136.5316   72.5366  223.8429 H   0  0  0  0  0  0  0  0  0  0  0  0
  136.1204   71.8875  222.2664 H   0  0  0  0  0  0  0  0  0  0  0  0
  136.8976   70.4010  224.6778 H   0  0  0  0  0  0  0  0  0  0  0  0
  136.5129   69.6949  223.0985 H   0  0  0  0  0  0  0  0  0  0  0  0
  138.5570   68.0692  223.4468 H   0  0  0  0  0  0  0  0  0  0  0  0
  140.1704   68.8320  223.1992 H   0  0  0  0  0  0  0  0  0  0  0  0
  138.9359   66.7413  225.6910 H   0  0  0  0  0  0  0  0  0  0  0  0
  139.7520   67.3280  228.0950 H   0  0  0  0  0  0  0  0  0  0  0  0
  140.8038   69.5393  229.3299 H   0  0  0  0  0  0  0  0  0  0  0  0
  141.5067   71.9218  228.9088 H   0  0  0  0  0  0  0  0  0  0  0  0
  141.2542   72.9243  226.6258 H   0  0  0  0  0  0  0  0  0  0  0  0
  140.2827   71.5580  224.7444 H   0  0  0  0  0  0  0  0  0  0  0  0
  1  2  2  0
  2  3  1  0
  3  4  2  0
  4  5  1  0
  5  6  2  0
  5  7  1  0
  7  8  1  0
  8  9  1  0
  9 10  1  0
 10 11  1  0
 11 12  2  0
 12 13  1  0
 13 14  1  0
 14 15  2  0
 15 16  1  0
 16 17  2  0
 17 18  1  0
 18 19  2  0
  6  1  1  0
 19 11  1  0
  9  4  1  0
 19 14  1  0
  1 20  1  0
  2 21  1  0
  3 22  1  0
  6 23  1  0
  7 24  1  0
  7 25  1  0
  8 26  1  0
  8 27  1  0
 10 28  1  0
 10 29  1  0
 12 30  1  0
 13 31  1  0
 15 32  1  0
 16 33  1  0
 17 34  1  0
 18 35  1  0
M  END
>  <UniqueID>  (21) 
590

>  <SMILES>  (21) 
c1ccc2c(c1)CCN2Cc1c[nH]c2ccccc12

>  <Energy>  (21) 
83.18702704463473

>  <Genealogy>  (21) 
c1ccc2c(c1)CCN2Cc1c[nH]c2ccccc12 (3D coordinates assigned)
c1ccc2c(c1)CCN2Cc1c[nH]c2ccccc12 (nonaromatic ring conformer: 83.18702704463473 kcal/mol)

>  <smiles>  (21) 
c1ccc2c(c1)CCN2Cc1c[nH]c2ccccc12

>  <score_type>  (21) 
oracle

>  <origin>  (21) 
autodockgpu

>  <m_score__min__energy>  (21) 
-6.7300000000000004

>  <m_primary>  (21) 
energy

>  <meeko>  (21) 
{"free_energy": -6.72, "intermolecular_energy": -7.32, "internal_energy": -0.73, "cluster_size": 19, "cluster_id": 1, "rank_in_cluster": 12}

>  <energy>  (21) 
-6.73

>  <cluster_rmsd>  (21) 
0.0

>  <rmsd>  (21) 
273.4

>  <cluster>  (21) 
1

$$$$
HDQBLRJEPZHFRL-UHFFFAOYNA-N
     RDKit          3D

 35 38  0  0  0  0  0  0  0  0999 V2000
  139.9670   73.7000  221.6210 C   0  0  0  0  0  0  0  0  0  0  0  0
  140.9150   72.6880  221.8650 C   0  0  0  0  0  0  0  0  0  0  0  0
  140.5210   71.4780  222.4590 C   0  0  0  0  0  0  0  0  0  0  0  0
  139.1700   71.3060  222.7890 C   0  0  0  0  0  0  0  0  0  0  0  0
  138.2530   72.2960  222.5570 C   0  0  0  0  0  0  0  0  0  0  0  0
  138.6220   73.5070  221.9710 C   0  0  0  0  0  0  0  0  0  0  0  0
  136.9000   71.8800  223.0180 C   0  0  0  0  0  0  0  0  0  0  0  0
  137.1310   70.4560  223.5750 C   0  0  0  0  0  0  0  0  0  0  0  0
  138.5590   70.1770  223.3960 N   0  0  0  0  0  0  0  0  0  0  0  0
  139.1920   68.9050  223.7450 C   0  0  0  0  0  0  0  0  0  0  0  0
  139.4500   68.8430  225.2200 C   0  0  0  0  0  0  0  0  0  0  0  0
  139.2860   67.7300  226.0410 C   0  0  0  0  0  0  0  0  0  0  0  0
  139.6990   68.0070  227.2990 N   0  0  0  0  0  0  0  0  0  0  0  0
  140.1320   69.2790  227.2760 C   0  0  0  0  0  0  0  0  0  0  0  0
  140.6730   70.0060  228.3370 C   0  0  0  0  0  0  0  0  0  0  0  0
  141.0850   71.3260  228.0860 C   0  0  0  0  0  0  0  0  0  0  0  0
  140.9520   71.8850  226.7950 C   0  0  0  0  0  0  0  0  0  0  0  0
  140.4030   71.1280  225.7450 C   0  0  0  0  0  0  0  0  0  0  0  0
  140.0010   69.8230  226.0230 C   0  0  0  0  0  0  0  0  0  0  0  0
  140.2818   74.6451  221.1544 H   0  0  0  0  0  0  0  0  0  0  0  0
  141.9681   72.8457  221.5893 H   0  0  0  0  0  0  0  0  0  0  0  0
  141.2554   70.6842  222.6604 H   0  0  0  0  0  0  0  0  0  0  0  0
  137.8750   74.2933  221.7873 H   0  0  0  0  0  0  0  0  0  0  0  0
  136.5277   72.5540  223.8036 H   0  0  0  0  0  0  0  0  0  0  0  0
  136.1463   71.9100  222.2173 H   0  0  0  0  0  0  0  0  0  0  0  0
  136.8647   70.4152  224.6415 H   0  0  0  0  0  0  0  0  0  0  0  0
  136.5079   69.7143  223.0538 H   0  0  0  0  0  0  0  0  0  0  0  0
  138.5271   68.0772  223.4573 H   0  0  0  0  0  0  0  0  0  0  0  0
  140.1491   68.8214  223.2093 H   0  0  0  0  0  0  0  0  0  0  0  0
  138.8783   66.7625  225.7129 H   0  0  0  0  0  0  0  0  0  0  0  0
  139.6960   67.3550  228.1150 H   0  0  0  0  0  0  0  0  0  0  0  0
  140.7738   69.5603  229.3376 H   0  0  0  0  0  0  0  0  0  0  0  0
  141.5141   71.9283  228.9003 H   0  0  0  0  0  0  0  0  0  0  0  0
  141.2799   72.9186  226.6104 H   0  0  0  0  0  0  0  0  0  0  0  0
  140.2943   71.5525  224.7360 H   0  0  0  0  0  0  0  0  0  0  0  0
  1  2  2  0
  2  3  1  0
  3  4  2  0
  4  5  1  0
  5  6  2  0
  5  7  1  0
  7  8  1  0
  8  9  1  0
  9 10  1  0
 10 11  1  0
 11 12  2  0
 12 13  1  0
 13 14  1  0
 14 15  2  0
 15 16  1  0
 16 17  2  0
 17 18  1  0
 18 19  2  0
  6  1  1  0
 19 11  1  0
  9  4  1  0
 19 14  1  0
  1 20  1  0
  2 21  1  0
  3 22  1  0
  6 23  1  0
  7 24  1  0
  7 25  1  0
  8 26  1  0
  8 27  1  0
 10 28  1  0
 10 29  1  0
 12 30  1  0
 13 31  1  0
 15 32  1  0
 16 33  1  0
 17 34  1  0
 18 35  1  0
M  END
>  <UniqueID>  (22) 
590

>  <SMILES>  (22) 
c1ccc2c(c1)CCN2Cc1c[nH]c2ccccc12

>  <Energy>  (22) 
83.18702704463473

>  <Genealogy>  (22) 
c1ccc2c(c1)CCN2Cc1c[nH]c2ccccc12 (3D coordinates assigned)
c1ccc2c(c1)CCN2Cc1c[nH]c2ccccc12 (nonaromatic ring conformer: 83.18702704463473 kcal/mol)

>  <smiles>  (22) 
c1ccc2c(c1)CCN2Cc1c[nH]c2ccccc12

>  <score_type>  (22) 
oracle

>  <origin>  (22) 
autodockgpu

>  <m_score__min__energy>  (22) 
-6.7300000000000004

>  <m_primary>  (22) 
energy

>  <meeko>  (22) 
{"free_energy": -6.73, "intermolecular_energy": -7.33, "internal_energy": -0.72, "cluster_size": 19, "cluster_id": 1, "rank_in_cluster": 1}

>  <energy>  (22) 
-6.73

>  <cluster_rmsd>  (22) 
0.06

>  <rmsd>  (22) 
273.41

>  <cluster>  (22) 
1

$$$$
HDQBLRJEPZHFRL-UHFFFAOYNA-N
     RDKit          3D

 35 38  0  0  0  0  0  0  0  0999 V2000
  134.6760   71.2510  224.9990 C   0  0  0  0  0  0  0  0  0  0  0  0
  135.1270   69.9910  225.4370 C   0  0  0  0  0  0  0  0  0  0  0  0
  136.3530   69.4800  224.9800 C   0  0  0  0  0  0  0  0  0  0  0  0
  137.1100   70.2580  224.0940 C   0  0  0  0  0  0  0  0  0  0  0  0
  136.6640   71.4790  223.6640 C   0  0  0  0  0  0  0  0  0  0  0  0
  135.4490   72.0050  224.1020 C   0  0  0  0  0  0  0  0  0  0  0  0
  137.6330   72.0890  222.7120 C   0  0  0  0  0  0  0  0  0  0  0  0
  138.7630   71.0370  222.6250 C   0  0  0  0  0  0  0  0  0  0  0  0
  138.3640   69.9370  223.5080 N   0  0  0  0  0  0  0  0  0  0  0  0
  139.1840   68.7520  223.7590 C   0  0  0  0  0  0  0  0  0  0  0  0
  139.5610   68.6810  225.2070 C   0  0  0  0  0  0  0  0  0  0  0  0
  139.6130   67.5320  225.9920 C   0  0  0  0  0  0  0  0  0  0  0  0
  140.0800   67.8250  227.2270 N   0  0  0  0  0  0  0  0  0  0  0  0
  140.3350   69.1450  227.2250 C   0  0  0  0  0  0  0  0  0  0  0  0
  140.8530   69.9060  228.2720 C   0  0  0  0  0  0  0  0  0  0  0  0
  141.0630   71.2780  228.0460 C   0  0  0  0  0  0  0  0  0  0  0  0
  140.7560   71.8520  226.7920 C   0  0  0  0  0  0  0  0  0  0  0  0
  140.2360   71.0590  225.7540 C   0  0  0  0  0  0  0  0  0  0  0  0
  140.0350   69.7030  226.0080 C   0  0  0  0  0  0  0  0  0  0  0  0
  133.7151   71.6456  225.3608 H   0  0  0  0  0  0  0  0  0  0  0  0
  134.5169   69.4046  226.1398 H   0  0  0  0  0  0  0  0  0  0  0  0
  136.7101   68.4932  225.3096 H   0  0  0  0  0  0  0  0  0  0  0  0
  135.1039   72.9892  223.7523 H   0  0  0  0  0  0  0  0  0  0  0  0
  137.1690   72.2502  221.7278 H   0  0  0  0  0  0  0  0  0  0  0  0
  137.9908   73.0767  223.0383 H   0  0  0  0  0  0  0  0  0  0  0  0
  138.8704   70.6768  221.5912 H   0  0  0  0  0  0  0  0  0  0  0  0
  139.7318   71.4624  222.9259 H   0  0  0  0  0  0  0  0  0  0  0  0
  138.6138   67.8514  223.4874 H   0  0  0  0  0  0  0  0  0  0  0  0
  140.0995   68.8140  223.1524 H   0  0  0  0  0  0  0  0  0  0  0  0
  139.3162   66.5278  225.6552 H   0  0  0  0  0  0  0  0  0  0  0  0
  140.2280   67.1540  228.0140 H   0  0  0  0  0  0  0  0  0  0  0  0
  141.0898   69.4480  229.2437 H   0  0  0  0  0  0  0  0  0  0  0  0
  141.4690   71.9085  228.8508 H   0  0  0  0  0  0  0  0  0  0  0  0
  140.9249   72.9263  226.6268 H   0  0  0  0  0  0  0  0  0  0  0  0
  139.9954   71.4945  224.7729 H   0  0  0  0  0  0  0  0  0  0  0  0
  1  2  2  0
  2  3  1  0
  3  4  2  0
  4  5  1  0
  5  6  2  0
  5  7  1  0
  7  8  1  0
  8  9  1  0
  9 10  1  0
 10 11  1  0
 11 12  2  0
 12 13  1  0
 13 14  1  0
 14 15  2  0
 15 16  1  0
 16 17  2  0
 17 18  1  0
 18 19  2  0
  6  1  1  0
 19 11  1  0
  9  4  1  0
 19 14  1  0
  1 20  1  0
  2 21  1  0
  3 22  1  0
  6 23  1  0
  7 24  1  0
  7 25  1  0
  8 26  1  0
  8 27  1  0
 10 28  1  0
 10 29  1  0
 12 30  1  0
 13 31  1  0
 15 32  1  0
 16 33  1  0
 17 34  1  0
 18 35  1  0
M  END
>  <UniqueID>  (23) 
590

>  <SMILES>  (23) 
c1ccc2c(c1)CCN2Cc1c[nH]c2ccccc12

>  <Energy>  (23) 
83.18702704463473

>  <Genealogy>  (23) 
c1ccc2c(c1)CCN2Cc1c[nH]c2ccccc12 (3D coordinates assigned)
c1ccc2c(c1)CCN2Cc1c[nH]c2ccccc12 (nonaromatic ring conformer: 83.18702704463473 kcal/mol)

>  <smiles>  (23) 
c1ccc2c(c1)CCN2Cc1c[nH]c2ccccc12

>  <score_type>  (23) 
oracle

>  <origin>  (23) 
autodockgpu

>  <m_score__min__energy>  (23) 
-6.7300000000000004

>  <m_primary>  (23) 
energy

>  <meeko>  (23) 
{"free_energy": -6.64, "intermolecular_energy": -7.24, "internal_energy": -0.8, "cluster_size": 19, "cluster_id": 1, "rank_in_cluster": 19}

>  <energy>  (23) 
-6.73

>  <cluster_rmsd>  (23) 
0.05

>  <rmsd>  (23) 
273.39

>  <cluster>  (23) 
1

$$$$
HDQBLRJEPZHFRL-UHFFFAOYNA-N
     RDKit          3D

 35 38  0  0  0  0  0  0  0  0999 V2000
  139.9320   73.7200  221.5840 C   0  0  0  0  0  0  0  0  0  0  0  0
  140.8830   72.7060  221.8130 C   0  0  0  0  0  0  0  0  0  0  0  0
  140.4990   71.4990  222.4190 C   0  0  0  0  0  0  0  0  0  0  0  0
  139.1550   71.3310  222.7770 C   0  0  0  0  0  0  0  0  0  0  0  0
  138.2350   72.3220  222.5600 C   0  0  0  0  0  0  0  0  0  0  0  0
  138.5940   73.5300  221.9620 C   0  0  0  0  0  0  0  0  0  0  0  0
  136.8910   71.9100  223.0500 C   0  0  0  0  0  0  0  0  0  0  0  0
  137.1310   70.4870  223.6070 C   0  0  0  0  0  0  0  0  0  0  0  0
  138.5540   70.2050  223.4000 N   0  0  0  0  0  0  0  0  0  0  0  0
  139.1920   68.9330  223.7410 C   0  0  0  0  0  0  0  0  0  0  0  0
  139.4520   68.8630  225.2150 C   0  0  0  0  0  0  0  0  0  0  0  0
  139.2870   67.7470  226.0300 C   0  0  0  0  0  0  0  0  0  0  0  0
  139.7020   68.0170  227.2890 N   0  0  0  0  0  0  0  0  0  0  0  0
  140.1390   69.2880  227.2720 C   0  0  0  0  0  0  0  0  0  0  0  0
  140.6830   70.0080  228.3360 C   0  0  0  0  0  0  0  0  0  0  0  0
  141.0980   71.3280  228.0910 C   0  0  0  0  0  0  0  0  0  0  0  0
  140.9640   71.8940  226.8030 C   0  0  0  0  0  0  0  0  0  0  0  0
  140.4120   71.1430  225.7490 C   0  0  0  0  0  0  0  0  0  0  0  0
  140.0070   69.8380  226.0220 C   0  0  0  0  0  0  0  0  0  0  0  0
  140.2391   74.6628  221.1078 H   0  0  0  0  0  0  0  0  0  0  0  0
  141.9307   72.8606  221.5158 H   0  0  0  0  0  0  0  0  0  0  0  0
  141.2358   70.7044  222.6081 H   0  0  0  0  0  0  0  0  0  0  0  0
  137.8445   74.3167  221.7905 H   0  0  0  0  0  0  0  0  0  0  0  0
  136.5361   72.5872  223.8409 H   0  0  0  0  0  0  0  0  0  0  0  0
  136.1211   71.9388  222.2649 H   0  0  0  0  0  0  0  0  0  0  0  0
  136.8863   70.4501  224.6788 H   0  0  0  0  0  0  0  0  0  0  0  0
  136.4962   69.7447  223.1010 H   0  0  0  0  0  0  0  0  0  0  0  0
  138.5297   68.1046  223.4492 H   0  0  0  0  0  0  0  0  0  0  0  0
  140.1488   68.8561  223.2038 H   0  0  0  0  0  0  0  0  0  0  0  0
  138.8771   66.7819  225.6975 H   0  0  0  0  0  0  0  0  0  0  0  0
  139.6980   67.3600  228.1020 H   0  0  0  0  0  0  0  0  0  0  0  0
  140.7838   69.5571  229.3342 H   0  0  0  0  0  0  0  0  0  0  0  0
  141.5303   71.9250  228.9076 H   0  0  0  0  0  0  0  0  0  0  0  0
  141.2933   72.9281  226.6234 H   0  0  0  0  0  0  0  0  0  0  0  0
  140.3037   71.5722  224.7420 H   0  0  0  0  0  0  0  0  0  0  0  0
  1  2  2  0
  2  3  1  0
  3  4  2  0
  4  5  1  0
  5  6  2  0
  5  7  1  0
  7  8  1  0
  8  9  1  0
  9 10  1  0
 10 11  1  0
 11 12  2  0
 12 13  1  0
 13 14  1  0
 14 15  2  0
 15 16  1  0
 16 17  2  0
 17 18  1  0
 18 19  2  0
  6  1  1  0
 19 11  1  0
  9  4  1  0
 19 14  1  0
  1 20  1  0
  2 21  1  0
  3 22  1  0
  6 23  1  0
  7 24  1  0
  7 25  1  0
  8 26  1  0
  8 27  1  0
 10 28  1  0
 10 29  1  0
 12 30  1  0
 13 31  1  0
 15 32  1  0
 16 33  1  0
 17 34  1  0
 18 35  1  0
M  END
>  <UniqueID>  (24) 
590

>  <SMILES>  (24) 
c1ccc2c(c1)CCN2Cc1c[nH]c2ccccc12

>  <Energy>  (24) 
83.18702704463473

>  <Genealogy>  (24) 
c1ccc2c(c1)CCN2Cc1c[nH]c2ccccc12 (3D coordinates assigned)
c1ccc2c(c1)CCN2Cc1c[nH]c2ccccc12 (nonaromatic ring conformer: 83.18702704463473 kcal/mol)

>  <smiles>  (24) 
c1ccc2c(c1)CCN2Cc1c[nH]c2ccccc12

>  <score_type>  (24) 
oracle

>  <origin>  (24) 
autodockgpu

>  <m_score__min__energy>  (24) 
-6.7300000000000004

>  <m_primary>  (24) 
energy

>  <meeko>  (24) 
{"free_energy": -6.72, "intermolecular_energy": -7.32, "internal_energy": -0.73, "cluster_size": 19, "cluster_id": 1, "rank_in_cluster": 14}

>  <energy>  (24) 
-6.73

>  <cluster_rmsd>  (24) 
0.04

>  <rmsd>  (24) 
273.4

>  <cluster>  (24) 
1

$$$$
HDQBLRJEPZHFRL-UHFFFAOYNA-N
     RDKit          3D

 35 38  0  0  0  0  0  0  0  0999 V2000
  139.9050   73.7280  221.5980 C   0  0  0  0  0  0  0  0  0  0  0  0
  140.8650   72.7230  221.8240 C   0  0  0  0  0  0  0  0  0  0  0  0
  140.4910   71.5090  222.4230 C   0  0  0  0  0  0  0  0  0  0  0  0
  139.1480   71.3270  222.7780 C   0  0  0  0  0  0  0  0  0  0  0  0
  138.2190   72.3100  222.5640 C   0  0  0  0  0  0  0  0  0  0  0  0
  138.5680   73.5250  221.9730 C   0  0  0  0  0  0  0  0  0  0  0  0
  136.8780   71.8830  223.0510 C   0  0  0  0  0  0  0  0  0  0  0  0
  137.1310   70.4600  223.6010 C   0  0  0  0  0  0  0  0  0  0  0  0
  138.5570   70.1920  223.3950 N   0  0  0  0  0  0  0  0  0  0  0  0
  139.2060   68.9250  223.7300 C   0  0  0  0  0  0  0  0  0  0  0  0
  139.4650   68.8500  225.2050 C   0  0  0  0  0  0  0  0  0  0  0  0
  139.3030   67.7300  226.0150 C   0  0  0  0  0  0  0  0  0  0  0  0
  139.7150   67.9960  227.2760 N   0  0  0  0  0  0  0  0  0  0  0  0
  140.1470   69.2690  227.2640 C   0  0  0  0  0  0  0  0  0  0  0  0
  140.6880   69.9870  228.3310 C   0  0  0  0  0  0  0  0  0  0  0  0
  141.0980   71.3100  228.0920 C   0  0  0  0  0  0  0  0  0  0  0  0
  140.9640   71.8800  226.8060 C   0  0  0  0  0  0  0  0  0  0  0  0
  140.4160   71.1310  225.7490 C   0  0  0  0  0  0  0  0  0  0  0  0
  140.0150   69.8230  226.0160 C   0  0  0  0  0  0  0  0  0  0  0  0
  140.2041   74.6755  221.1259 H   0  0  0  0  0  0  0  0  0  0  0  0
  141.9119   72.8894  221.5303 H   0  0  0  0  0  0  0  0  0  0  0  0
  141.2346   70.7201  222.6090 H   0  0  0  0  0  0  0  0  0  0  0  0
  137.8120   74.3062  221.8048 H   0  0  0  0  0  0  0  0  0  0  0  0
  136.5162   72.5530  223.8449 H   0  0  0  0  0  0  0  0  0  0  0  0
  136.1084   71.9086  222.2655 H   0  0  0  0  0  0  0  0  0  0  0  0
  136.8851   70.4155  224.6722 H   0  0  0  0  0  0  0  0  0  0  0  0
  136.5041   69.7144  223.0900 H   0  0  0  0  0  0  0  0  0  0  0  0
  138.5518   68.0920  223.4331 H   0  0  0  0  0  0  0  0  0  0  0  0
  140.1641   68.8596  223.1935 H   0  0  0  0  0  0  0  0  0  0  0  0
  138.8973   66.7648  225.6777 H   0  0  0  0  0  0  0  0  0  0  0  0
  139.7130   67.3370  228.0860 H   0  0  0  0  0  0  0  0  0  0  0  0
  140.7904   69.5322  229.3273 H   0  0  0  0  0  0  0  0  0  0  0  0
  141.5261   71.9057  228.9116 H   0  0  0  0  0  0  0  0  0  0  0  0
  141.2902   72.9157  226.6304 H   0  0  0  0  0  0  0  0  0  0  0  0
  140.3073   71.5638  224.7436 H   0  0  0  0  0  0  0  0  0  0  0  0
  1  2  2  0
  2  3  1  0
  3  4  2  0
  4  5  1  0
  5  6  2  0
  5  7  1  0
  7  8  1  0
  8  9  1  0
  9 10  1  0
 10 11  1  0
 11 12  2  0
 12 13  1  0
 13 14  1  0
 14 15  2  0
 15 16  1  0
 16 17  2  0
 17 18  1  0
 18 19  2  0
  6  1  1  0
 19 11  1  0
  9  4  1  0
 19 14  1  0
  1 20  1  0
  2 21  1  0
  3 22  1  0
  6 23  1  0
  7 24  1  0
  7 25  1  0
  8 26  1  0
  8 27  1  0
 10 28  1  0
 10 29  1  0
 12 30  1  0
 13 31  1  0
 15 32  1  0
 16 33  1  0
 17 34  1  0
 18 35  1  0
M  END
>  <UniqueID>  (25) 
590

>  <SMILES>  (25) 
c1ccc2c(c1)CCN2Cc1c[nH]c2ccccc12

>  <Energy>  (25) 
83.18702704463473

>  <Genealogy>  (25) 
c1ccc2c(c1)CCN2Cc1c[nH]c2ccccc12 (3D coordinates assigned)
c1ccc2c(c1)CCN2Cc1c[nH]c2ccccc12 (nonaromatic ring conformer: 83.18702704463473 kcal/mol)

>  <smiles>  (25) 
c1ccc2c(c1)CCN2Cc1c[nH]c2ccccc12

>  <score_type>  (25) 
oracle

>  <origin>  (25) 
autodockgpu

>  <m_score__min__energy>  (25) 
-6.7300000000000004

>  <m_primary>  (25) 
energy

>  <meeko>  (25) 
{"free_energy": -6.72, "intermolecular_energy": -7.32, "internal_energy": -0.73, "cluster_size": 19, "cluster_id": 1, "rank_in_cluster": 15}

>  <energy>  (25) 
-6.73

>  <cluster_rmsd>  (25) 
0.04

>  <rmsd>  (25) 
273.4

>  <cluster>  (25) 
1

$$$$
HDQBLRJEPZHFRL-UHFFFAOYNA-N
     RDKit          3D

 35 38  0  0  0  0  0  0  0  0999 V2000
  139.9270   73.6930  221.5850 C   0  0  0  0  0  0  0  0  0  0  0  0
  140.8820   72.6820  221.8130 C   0  0  0  0  0  0  0  0  0  0  0  0
  140.5020   71.4750  222.4230 C   0  0  0  0  0  0  0  0  0  0  0  0
  139.1590   71.3050  222.7860 C   0  0  0  0  0  0  0  0  0  0  0  0
  138.2360   72.2930  222.5690 C   0  0  0  0  0  0  0  0  0  0  0  0
  138.5910   73.5010  221.9670 C   0  0  0  0  0  0  0  0  0  0  0  0
  136.8950   71.8790  223.0650 C   0  0  0  0  0  0  0  0  0  0  0  0
  137.1410   70.4580  223.6240 C   0  0  0  0  0  0  0  0  0  0  0  0
  138.5640   70.1790  223.4140 N   0  0  0  0  0  0  0  0  0  0  0  0
  139.2060   68.9090  223.7550 C   0  0  0  0  0  0  0  0  0  0  0  0
  139.4690   68.8420  225.2290 C   0  0  0  0  0  0  0  0  0  0  0  0
  139.3170   67.7240  226.0450 C   0  0  0  0  0  0  0  0  0  0  0  0
  139.7300   67.9990  227.3030 N   0  0  0  0  0  0  0  0  0  0  0  0
  140.1530   69.2750  227.2860 C   0  0  0  0  0  0  0  0  0  0  0  0
  140.6900   70.0010  228.3480 C   0  0  0  0  0  0  0  0  0  0  0  0
  141.0900   71.3260  228.1030 C   0  0  0  0  0  0  0  0  0  0  0  0
  140.9480   71.8900  226.8150 C   0  0  0  0  0  0  0  0  0  0  0  0
  140.4040   71.1330  225.7620 C   0  0  0  0  0  0  0  0  0  0  0  0
  140.0130   69.8230  226.0350 C   0  0  0  0  0  0  0  0  0  0  0  0
  140.2302   74.6357  221.1060 H   0  0  0  0  0  0  0  0  0  0  0  0
  141.9285   72.8385  221.5123 H   0  0  0  0  0  0  0  0  0  0  0  0
  141.2409   70.6822  222.6113 H   0  0  0  0  0  0  0  0  0  0  0  0
  137.8394   74.2857  221.7957 H   0  0  0  0  0  0  0  0  0  0  0  0
  136.5415   72.5570  223.8558 H   0  0  0  0  0  0  0  0  0  0  0  0
  136.1218   71.9043  222.2830 H   0  0  0  0  0  0  0  0  0  0  0  0
  136.8993   70.4226  224.6965 H   0  0  0  0  0  0  0  0  0  0  0  0
  136.5071   69.7131  223.1208 H   0  0  0  0  0  0  0  0  0  0  0  0
  138.5453   68.0785  223.4656 H   0  0  0  0  0  0  0  0  0  0  0  0
  140.1618   68.8335  223.2158 H   0  0  0  0  0  0  0  0  0  0  0  0
  138.9175   66.7543  225.7133 H   0  0  0  0  0  0  0  0  0  0  0  0
  139.7350   67.3430  228.1160 H   0  0  0  0  0  0  0  0  0  0  0  0
  140.7973   69.5512  229.3461 H   0  0  0  0  0  0  0  0  0  0  0  0
  141.5163   71.9279  228.9191 H   0  0  0  0  0  0  0  0  0  0  0  0
  141.2650   72.9278  226.6349 H   0  0  0  0  0  0  0  0  0  0  0  0
  140.2906   71.5609  224.7550 H   0  0  0  0  0  0  0  0  0  0  0  0
  1  2  2  0
  2  3  1  0
  3  4  2  0
  4  5  1  0
  5  6  2  0
  5  7  1  0
  7  8  1  0
  8  9  1  0
  9 10  1  0
 10 11  1  0
 11 12  2  0
 12 13  1  0
 13 14  1  0
 14 15  2  0
 15 16  1  0
 16 17  2  0
 17 18  1  0
 18 19  2  0
  6  1  1  0
 19 11  1  0
  9  4  1  0
 19 14  1  0
  1 20  1  0
  2 21  1  0
  3 22  1  0
  6 23  1  0
  7 24  1  0
  7 25  1  0
  8 26  1  0
  8 27  1  0
 10 28  1  0
 10 29  1  0
 12 30  1  0
 13 31  1  0
 15 32  1  0
 16 33  1  0
 17 34  1  0
 18 35  1  0
M  END
>  <UniqueID>  (26) 
590

>  <SMILES>  (26) 
c1ccc2c(c1)CCN2Cc1c[nH]c2ccccc12

>  <Energy>  (26) 
83.18702704463473

>  <Genealogy>  (26) 
c1ccc2c(c1)CCN2Cc1c[nH]c2ccccc12 (3D coordinates assigned)
c1ccc2c(c1)CCN2Cc1c[nH]c2ccccc12 (nonaromatic ring conformer: 83.18702704463473 kcal/mol)

>  <smiles>  (26) 
c1ccc2c(c1)CCN2Cc1c[nH]c2ccccc12

>  <score_type>  (26) 
oracle

>  <origin>  (26) 
autodockgpu

>  <m_score__min__energy>  (26) 
-6.7300000000000004

>  <m_primary>  (26) 
energy

>  <meeko>  (26) 
{"free_energy": -6.72, "intermolecular_energy": -7.32, "internal_energy": -0.73, "cluster_size": 19, "cluster_id": 1, "rank_in_cluster": 9}

>  <energy>  (26) 
-6.73

>  <cluster_rmsd>  (26) 
0.04

>  <rmsd>  (26) 
273.4

>  <cluster>  (26) 
1

$$$$
HDQBLRJEPZHFRL-UHFFFAOYNA-N
     RDKit          3D

 35 38  0  0  0  0  0  0  0  0999 V2000
  139.9120   73.7430  221.5970 C   0  0  0  0  0  0  0  0  0  0  0  0
  140.8710   72.7370  221.8240 C   0  0  0  0  0  0  0  0  0  0  0  0
  140.4940   71.5230  222.4220 C   0  0  0  0  0  0  0  0  0  0  0  0
  139.1500   71.3420  222.7730 C   0  0  0  0  0  0  0  0  0  0  0  0
  138.2230   72.3260  222.5580 C   0  0  0  0  0  0  0  0  0  0  0  0
  138.5740   73.5400  221.9680 C   0  0  0  0  0  0  0  0  0  0  0  0
  136.8800   71.9000  223.0410 C   0  0  0  0  0  0  0  0  0  0  0  0
  137.1300   70.4760  223.5910 C   0  0  0  0  0  0  0  0  0  0  0  0
  138.5560   70.2070  223.3880 N   0  0  0  0  0  0  0  0  0  0  0  0
  139.2040   68.9390  223.7240 C   0  0  0  0  0  0  0  0  0  0  0  0
  139.4610   68.8640  225.1990 C   0  0  0  0  0  0  0  0  0  0  0  0
  139.3030   67.7420  226.0080 C   0  0  0  0  0  0  0  0  0  0  0  0
  139.7130   68.0090  227.2690 N   0  0  0  0  0  0  0  0  0  0  0  0
  140.1380   69.2840  227.2600 C   0  0  0  0  0  0  0  0  0  0  0  0
  140.6740   70.0040  228.3280 C   0  0  0  0  0  0  0  0  0  0  0  0
  141.0780   71.3290  228.0910 C   0  0  0  0  0  0  0  0  0  0  0  0
  140.9420   71.9000  226.8050 C   0  0  0  0  0  0  0  0  0  0  0  0
  140.3990   71.1500  225.7470 C   0  0  0  0  0  0  0  0  0  0  0  0
  140.0050   69.8390  226.0120 C   0  0  0  0  0  0  0  0  0  0  0  0
  140.2128   74.6911  221.1273 H   0  0  0  0  0  0  0  0  0  0  0  0
  141.9186   72.9023  221.5321 H   0  0  0  0  0  0  0  0  0  0  0  0
  141.2364   70.7334  222.6101 H   0  0  0  0  0  0  0  0  0  0  0  0
  137.8186   74.3212  221.7973 H   0  0  0  0  0  0  0  0  0  0  0  0
  136.5166   72.5698  223.8343 H   0  0  0  0  0  0  0  0  0  0  0  0
  136.1127   71.9268  222.2533 H   0  0  0  0  0  0  0  0  0  0  0  0
  136.8816   70.4311  224.6616 H   0  0  0  0  0  0  0  0  0  0  0  0
  136.5034   69.7313  223.0784 H   0  0  0  0  0  0  0  0  0  0  0  0
  138.5496   68.1064  223.4264 H   0  0  0  0  0  0  0  0  0  0  0  0
  140.1627   68.8729  223.1887 H   0  0  0  0  0  0  0  0  0  0  0  0
  138.9016   66.7754  225.6696 H   0  0  0  0  0  0  0  0  0  0  0  0
  139.7130   67.3490  228.0790 H   0  0  0  0  0  0  0  0  0  0  0  0
  140.7771   69.5490  229.3241 H   0  0  0  0  0  0  0  0  0  0  0  0
  141.5029   71.9257  228.9116 H   0  0  0  0  0  0  0  0  0  0  0  0
  141.2630   72.9376  226.6310 H   0  0  0  0  0  0  0  0  0  0  0  0
  140.2885   71.5837  224.7421 H   0  0  0  0  0  0  0  0  0  0  0  0
  1  2  2  0
  2  3  1  0
  3  4  2  0
  4  5  1  0
  5  6  2  0
  5  7  1  0
  7  8  1  0
  8  9  1  0
  9 10  1  0
 10 11  1  0
 11 12  2  0
 12 13  1  0
 13 14  1  0
 14 15  2  0
 15 16  1  0
 16 17  2  0
 17 18  1  0
 18 19  2  0
  6  1  1  0
 19 11  1  0
  9  4  1  0
 19 14  1  0
  1 20  1  0
  2 21  1  0
  3 22  1  0
  6 23  1  0
  7 24  1  0
  7 25  1  0
  8 26  1  0
  8 27  1  0
 10 28  1  0
 10 29  1  0
 12 30  1  0
 13 31  1  0
 15 32  1  0
 16 33  1  0
 17 34  1  0
 18 35  1  0
M  END
>  <UniqueID>  (27) 
590

>  <SMILES>  (27) 
c1ccc2c(c1)CCN2Cc1c[nH]c2ccccc12

>  <Energy>  (27) 
83.18702704463473

>  <Genealogy>  (27) 
c1ccc2c(c1)CCN2Cc1c[nH]c2ccccc12 (3D coordinates assigned)
c1ccc2c(c1)CCN2Cc1c[nH]c2ccccc12 (nonaromatic ring conformer: 83.18702704463473 kcal/mol)

>  <smiles>  (27) 
c1ccc2c(c1)CCN2Cc1c[nH]c2ccccc12

>  <score_type>  (27) 
oracle

>  <origin>  (27) 
autodockgpu

>  <m_score__min__energy>  (27) 
-6.7300000000000004

>  <m_primary>  (27) 
energy

>  <meeko>  (27) 
{"free_energy": -6.73, "intermolecular_energy": -7.32, "internal_energy": -0.73, "cluster_size": 19, "cluster_id": 1, "rank_in_cluster": 7}

>  <energy>  (27) 
-6.73

>  <cluster_rmsd>  (27) 
0.04

>  <rmsd>  (27) 
273.39

>  <cluster>  (27) 
1

$$$$
HDQBLRJEPZHFRL-UHFFFAOYNA-N
     RDKit          3D

 35 38  0  0  0  0  0  0  0  0999 V2000
  139.9370   73.6770  221.5950 C   0  0  0  0  0  0  0  0  0  0  0  0
  140.8910   72.6650  221.8160 C   0  0  0  0  0  0  0  0  0  0  0  0
  140.5140   71.4560  222.4230 C   0  0  0  0  0  0  0  0  0  0  0  0
  139.1730   71.2850  222.7900 C   0  0  0  0  0  0  0  0  0  0  0  0
  138.2490   72.2740  222.5820 C   0  0  0  0  0  0  0  0  0  0  0  0
  138.6020   73.4840  221.9830 C   0  0  0  0  0  0  0  0  0  0  0  0
  136.9100   71.8590  223.0810 C   0  0  0  0  0  0  0  0  0  0  0  0
  137.1570   70.4360  223.6340 C   0  0  0  0  0  0  0  0  0  0  0  0
  138.5790   70.1570  223.4160 N   0  0  0  0  0  0  0  0  0  0  0  0
  139.2220   68.8860  223.7500 C   0  0  0  0  0  0  0  0  0  0  0  0
  139.5030   68.8180  225.2200 C   0  0  0  0  0  0  0  0  0  0  0  0
  139.3910   67.6920  226.0320 C   0  0  0  0  0  0  0  0  0  0  0  0
  139.8120   67.9720  227.2870 N   0  0  0  0  0  0  0  0  0  0  0  0
  140.1980   69.2590  227.2710 C   0  0  0  0  0  0  0  0  0  0  0  0
  140.7270   69.9940  228.3320 C   0  0  0  0  0  0  0  0  0  0  0  0
  141.0880   71.3310  228.0890 C   0  0  0  0  0  0  0  0  0  0  0  0
  140.9160   71.8980  226.8060 C   0  0  0  0  0  0  0  0  0  0  0  0
  140.3810   71.1320  225.7560 C   0  0  0  0  0  0  0  0  0  0  0  0
  140.0300   69.8100  226.0260 C   0  0  0  0  0  0  0  0  0  0  0  0
  140.2387   74.6208  221.1173 H   0  0  0  0  0  0  0  0  0  0  0  0
  141.9363   72.8222  221.5118 H   0  0  0  0  0  0  0  0  0  0  0  0
  141.2537   70.6627  222.6058 H   0  0  0  0  0  0  0  0  0  0  0  0
  137.8500   74.2698  221.8184 H   0  0  0  0  0  0  0  0  0  0  0  0
  136.5596   72.5344  223.8754 H   0  0  0  0  0  0  0  0  0  0  0  0
  136.1342   71.8875  222.3017 H   0  0  0  0  0  0  0  0  0  0  0  0
  136.9204   70.3971  224.7076 H   0  0  0  0  0  0  0  0  0  0  0  0
  136.5199   69.6932  223.1317 H   0  0  0  0  0  0  0  0  0  0  0  0
  138.5559   68.0570  223.4688 H   0  0  0  0  0  0  0  0  0  0  0  0
  140.1712   68.8088  223.1995 H   0  0  0  0  0  0  0  0  0  0  0  0
  139.0137   66.7135  225.7000 H   0  0  0  0  0  0  0  0  0  0  0  0
  139.8430   67.3120  228.0960 H   0  0  0  0  0  0  0  0  0  0  0  0
  140.8575   69.5423  229.3265 H   0  0  0  0  0  0  0  0  0  0  0  0
  141.5073   71.9400  228.9034 H   0  0  0  0  0  0  0  0  0  0  0  0
  141.2025   72.9450  226.6281 H   0  0  0  0  0  0  0  0  0  0  0  0
  140.2436   71.5620  224.7529 H   0  0  0  0  0  0  0  0  0  0  0  0
  1  2  2  0
  2  3  1  0
  3  4  2  0
  4  5  1  0
  5  6  2  0
  5  7  1  0
  7  8  1  0
  8  9  1  0
  9 10  1  0
 10 11  1  0
 11 12  2  0
 12 13  1  0
 13 14  1  0
 14 15  2  0
 15 16  1  0
 16 17  2  0
 17 18  1  0
 18 19  2  0
  6  1  1  0
 19 11  1  0
  9  4  1  0
 19 14  1  0
  1 20  1  0
  2 21  1  0
  3 22  1  0
  6 23  1  0
  7 24  1  0
  7 25  1  0
  8 26  1  0
  8 27  1  0
 10 28  1  0
 10 29  1  0
 12 30  1  0
 13 31  1  0
 15 32  1  0
 16 33  1  0
 17 34  1  0
 18 35  1  0
M  END
>  <UniqueID>  (28) 
590

>  <SMILES>  (28) 
c1ccc2c(c1)CCN2Cc1c[nH]c2ccccc12

>  <Energy>  (28) 
83.18702704463473

>  <Genealogy>  (28) 
c1ccc2c(c1)CCN2Cc1c[nH]c2ccccc12 (3D coordinates assigned)
c1ccc2c(c1)CCN2Cc1c[nH]c2ccccc12 (nonaromatic ring conformer: 83.18702704463473 kcal/mol)

>  <smiles>  (28) 
c1ccc2c(c1)CCN2Cc1c[nH]c2ccccc12

>  <score_type>  (28) 
oracle

>  <origin>  (28) 
autodockgpu

>  <m_score__min__energy>  (28) 
-6.7300000000000004

>  <m_primary>  (28) 
energy

>  <meeko>  (28) 
{"free_energy": -6.72, "intermolecular_energy": -7.32, "internal_energy": -0.73, "cluster_size": 19, "cluster_id": 1, "rank_in_cluster": 17}

>  <energy>  (28) 
-6.73

>  <cluster_rmsd>  (28) 
0.05

>  <rmsd>  (28) 
273.39

>  <cluster>  (28) 
1

$$$$
HDQBLRJEPZHFRL-UHFFFAOYNA-N
     RDKit          3D

 35 38  0  0  0  0  0  0  0  0999 V2000
  139.9190   73.6940  221.5730 C   0  0  0  0  0  0  0  0  0  0  0  0
  140.8740   72.6860  221.8010 C   0  0  0  0  0  0  0  0  0  0  0  0
  140.4960   71.4760  222.4070 C   0  0  0  0  0  0  0  0  0  0  0  0
  139.1530   71.3020  222.7650 C   0  0  0  0  0  0  0  0  0  0  0  0
  138.2280   72.2880  222.5480 C   0  0  0  0  0  0  0  0  0  0  0  0
  138.5810   73.4980  221.9510 C   0  0  0  0  0  0  0  0  0  0  0  0
  136.8860   71.8700  223.0380 C   0  0  0  0  0  0  0  0  0  0  0  0
  137.1330   70.4480  223.5950 C   0  0  0  0  0  0  0  0  0  0  0  0
  138.5570   70.1730  223.3880 N   0  0  0  0  0  0  0  0  0  0  0  0
  139.2020   68.9040  223.7280 C   0  0  0  0  0  0  0  0  0  0  0  0
  139.4670   68.8370  225.2010 C   0  0  0  0  0  0  0  0  0  0  0  0
  139.3200   67.7170  226.0160 C   0  0  0  0  0  0  0  0  0  0  0  0
  139.7350   67.9920  227.2740 N   0  0  0  0  0  0  0  0  0  0  0  0
  140.1520   69.2700  227.2570 C   0  0  0  0  0  0  0  0  0  0  0  0
  140.6880   69.9970  228.3200 C   0  0  0  0  0  0  0  0  0  0  0  0
  141.0830   71.3240  228.0750 C   0  0  0  0  0  0  0  0  0  0  0  0
  140.9370   71.8890  226.7870 C   0  0  0  0  0  0  0  0  0  0  0  0
  140.3940   71.1310  225.7350 C   0  0  0  0  0  0  0  0  0  0  0  0
  140.0090   69.8190  226.0080 C   0  0  0  0  0  0  0  0  0  0  0  0
  140.2216   74.6385  221.0972 H   0  0  0  0  0  0  0  0  0  0  0  0
  141.9209   72.8460  221.5035 H   0  0  0  0  0  0  0  0  0  0  0  0
  141.2365   70.6848  222.5957 H   0  0  0  0  0  0  0  0  0  0  0  0
  137.8279   74.2814  221.7801 H   0  0  0  0  0  0  0  0  0  0  0  0
  136.5280   72.5456  223.8289 H   0  0  0  0  0  0  0  0  0  0  0  0
  136.1158   71.8953  222.2531 H   0  0  0  0  0  0  0  0  0  0  0  0
  136.8886   70.4099  224.6668 H   0  0  0  0  0  0  0  0  0  0  0  0
  136.5018   69.7026  223.0890 H   0  0  0  0  0  0  0  0  0  0  0  0
  138.5425   68.0723  223.4392 H   0  0  0  0  0  0  0  0  0  0  0  0
  140.1573   68.8307  223.1876 H   0  0  0  0  0  0  0  0  0  0  0  0
  138.9228   66.7465  225.6839 H   0  0  0  0  0  0  0  0  0  0  0  0
  139.7430   67.3360  228.0860 H   0  0  0  0  0  0  0  0  0  0  0  0
  140.7981   69.5467  229.3176 H   0  0  0  0  0  0  0  0  0  0  0  0
  141.5085   71.9268  228.8909 H   0  0  0  0  0  0  0  0  0  0  0  0
  141.2502   72.9280  226.6071 H   0  0  0  0  0  0  0  0  0  0  0  0
  140.2766   71.5592  224.7286 H   0  0  0  0  0  0  0  0  0  0  0  0
  1  2  2  0
  2  3  1  0
  3  4  2  0
  4  5  1  0
  5  6  2  0
  5  7  1  0
  7  8  1  0
  8  9  1  0
  9 10  1  0
 10 11  1  0
 11 12  2  0
 12 13  1  0
 13 14  1  0
 14 15  2  0
 15 16  1  0
 16 17  2  0
 17 18  1  0
 18 19  2  0
  6  1  1  0
 19 11  1  0
  9  4  1  0
 19 14  1  0
  1 20  1  0
  2 21  1  0
  3 22  1  0
  6 23  1  0
  7 24  1  0
  7 25  1  0
  8 26  1  0
  8 27  1  0
 10 28  1  0
 10 29  1  0
 12 30  1  0
 13 31  1  0
 15 32  1  0
 16 33  1  0
 17 34  1  0
 18 35  1  0
M  END
>  <UniqueID>  (29) 
590

>  <SMILES>  (29) 
c1ccc2c(c1)CCN2Cc1c[nH]c2ccccc12

>  <Energy>  (29) 
83.18702704463473

>  <Genealogy>  (29) 
c1ccc2c(c1)CCN2Cc1c[nH]c2ccccc12 (3D coordinates assigned)
c1ccc2c(c1)CCN2Cc1c[nH]c2ccccc12 (nonaromatic ring conformer: 83.18702704463473 kcal/mol)

>  <smiles>  (29) 
c1ccc2c(c1)CCN2Cc1c[nH]c2ccccc12

>  <score_type>  (29) 
oracle

>  <origin>  (29) 
autodockgpu

>  <m_score__min__energy>  (29) 
-6.7300000000000004

>  <m_primary>  (29) 
energy

>  <meeko>  (29) 
{"free_energy": -6.72, "intermolecular_energy": -7.32, "internal_energy": -0.73, "cluster_size": 19, "cluster_id": 1, "rank_in_cluster": 13}

>  <energy>  (29) 
-6.72

>  <cluster_rmsd>  (29) 
0.03

>  <rmsd>  (29) 
273.4

>  <cluster>  (29) 
1

$$$$
HDQBLRJEPZHFRL-UHFFFAOYNA-N
     RDKit          3D

 35 38  0  0  0  0  0  0  0  0999 V2000
  139.9490   73.7260  221.5750 C   0  0  0  0  0  0  0  0  0  0  0  0
  140.9000   72.7150  221.8130 C   0  0  0  0  0  0  0  0  0  0  0  0
  140.5140   71.5070  222.4180 C   0  0  0  0  0  0  0  0  0  0  0  0
  139.1670   71.3370  222.7640 C   0  0  0  0  0  0  0  0  0  0  0  0
  138.2460   72.3250  222.5390 C   0  0  0  0  0  0  0  0  0  0  0  0
  138.6070   73.5330  221.9420 C   0  0  0  0  0  0  0  0  0  0  0  0
  136.8990   71.9110  223.0180 C   0  0  0  0  0  0  0  0  0  0  0  0
  137.1380   70.4890  223.5790 C   0  0  0  0  0  0  0  0  0  0  0  0
  138.5640   70.2100  223.3840 N   0  0  0  0  0  0  0  0  0  0  0  0
  139.2020   68.9400  223.7320 C   0  0  0  0  0  0  0  0  0  0  0  0
  139.4470   68.8710  225.2090 C   0  0  0  0  0  0  0  0  0  0  0  0
  139.2680   67.7570  226.0240 C   0  0  0  0  0  0  0  0  0  0  0  0
  139.6720   68.0260  227.2860 N   0  0  0  0  0  0  0  0  0  0  0  0
  140.1150   69.2950  227.2720 C   0  0  0  0  0  0  0  0  0  0  0  0
  140.6520   70.0140  228.3400 C   0  0  0  0  0  0  0  0  0  0  0  0
  141.0760   71.3330  228.0970 C   0  0  0  0  0  0  0  0  0  0  0  0
  140.9570   71.8970  226.8070 C   0  0  0  0  0  0  0  0  0  0  0  0
  140.4130   71.1480  225.7490 C   0  0  0  0  0  0  0  0  0  0  0  0
  139.9980   69.8440  226.0200 C   0  0  0  0  0  0  0  0  0  0  0  0
  140.2579   74.6691  221.1005 H   0  0  0  0  0  0  0  0  0  0  0  0
  141.9497   72.8717  221.5240 H   0  0  0  0  0  0  0  0  0  0  0  0
  141.2510   70.7145  222.6151 H   0  0  0  0  0  0  0  0  0  0  0  0
  137.8570   74.3174  221.7626 H   0  0  0  0  0  0  0  0  0  0  0  0
  136.5359   72.5885  223.8049 H   0  0  0  0  0  0  0  0  0  0  0  0
  136.1355   71.9372  222.2266 H   0  0  0  0  0  0  0  0  0  0  0  0
  136.8846   70.4530  224.6488 H   0  0  0  0  0  0  0  0  0  0  0  0
  136.5092   69.7445  223.0688 H   0  0  0  0  0  0  0  0  0  0  0  0
  138.5451   68.1097  223.4335 H   0  0  0  0  0  0  0  0  0  0  0  0
  140.1646   68.8658  223.2048 H   0  0  0  0  0  0  0  0  0  0  0  0
  138.8560   66.7937  225.6887 H   0  0  0  0  0  0  0  0  0  0  0  0
  139.6570   67.3710  228.1000 H   0  0  0  0  0  0  0  0  0  0  0  0
  140.7410   69.5641  229.3398 H   0  0  0  0  0  0  0  0  0  0  0  0
  141.5031   71.9294  228.9167 H   0  0  0  0  0  0  0  0  0  0  0  0
  141.2924   72.9294  226.6293 H   0  0  0  0  0  0  0  0  0  0  0  0
  140.3177   71.5762  224.7403 H   0  0  0  0  0  0  0  0  0  0  0  0
  1  2  2  0
  2  3  1  0
  3  4  2  0
  4  5  1  0
  5  6  2  0
  5  7  1  0
  7  8  1  0
  8  9  1  0
  9 10  1  0
 10 11  1  0
 11 12  2  0
 12 13  1  0
 13 14  1  0
 14 15  2  0
 15 16  1  0
 16 17  2  0
 17 18  1  0
 18 19  2  0
  6  1  1  0
 19 11  1  0
  9  4  1  0
 19 14  1  0
  1 20  1  0
  2 21  1  0
  3 22  1  0
  6 23  1  0
  7 24  1  0
  7 25  1  0
  8 26  1  0
  8 27  1  0
 10 28  1  0
 10 29  1  0
 12 30  1  0
 13 31  1  0
 15 32  1  0
 16 33  1  0
 17 34  1  0
 18 35  1  0
M  END
>  <UniqueID>  (30) 
590

>  <SMILES>  (30) 
c1ccc2c(c1)CCN2Cc1c[nH]c2ccccc12

>  <Energy>  (30) 
83.18702704463473

>  <Genealogy>  (30) 
c1ccc2c(c1)CCN2Cc1c[nH]c2ccccc12 (3D coordinates assigned)
c1ccc2c(c1)CCN2Cc1c[nH]c2ccccc12 (nonaromatic ring conformer: 83.18702704463473 kcal/mol)

>  <smiles>  (30) 
c1ccc2c(c1)CCN2Cc1c[nH]c2ccccc12

>  <score_type>  (30) 
oracle

>  <origin>  (30) 
autodockgpu

>  <m_score__min__energy>  (30) 
-6.7300000000000004

>  <m_primary>  (30) 
energy

>  <meeko>  (30) 
{"free_energy": -6.72, "intermolecular_energy": -7.32, "internal_energy": -0.73, "cluster_size": 19, "cluster_id": 1, "rank_in_cluster": 11}

>  <energy>  (30) 
-6.72

>  <cluster_rmsd>  (30) 
0.08

>  <rmsd>  (30) 
273.37

>  <cluster>  (30) 
1

$$$$
HDQBLRJEPZHFRL-UHFFFAOYNA-N
     RDKit          3D

 35 38  0  0  0  0  0  0  0  0999 V2000
  139.9110   73.7330  221.5940 C   0  0  0  0  0  0  0  0  0  0  0  0
  140.8700   72.7270  221.8250 C   0  0  0  0  0  0  0  0  0  0  0  0
  140.4920   71.5140  222.4230 C   0  0  0  0  0  0  0  0  0  0  0  0
  139.1470   71.3330  222.7710 C   0  0  0  0  0  0  0  0  0  0  0  0
  138.2200   72.3160  222.5530 C   0  0  0  0  0  0  0  0  0  0  0  0
  138.5720   73.5300  221.9630 C   0  0  0  0  0  0  0  0  0  0  0  0
  136.8770   71.8910  223.0330 C   0  0  0  0  0  0  0  0  0  0  0  0
  137.1260   70.4680  223.5850 C   0  0  0  0  0  0  0  0  0  0  0  0
  138.5530   70.1990  223.3860 N   0  0  0  0  0  0  0  0  0  0  0  0
  139.2000   68.9310  223.7250 C   0  0  0  0  0  0  0  0  0  0  0  0
  139.4460   68.8540  225.2020 C   0  0  0  0  0  0  0  0  0  0  0  0
  139.2630   67.7370  226.0120 C   0  0  0  0  0  0  0  0  0  0  0  0
  139.6690   68.0000  227.2750 N   0  0  0  0  0  0  0  0  0  0  0  0
  140.1180   69.2670  227.2660 C   0  0  0  0  0  0  0  0  0  0  0  0
  140.6590   69.9780  228.3370 C   0  0  0  0  0  0  0  0  0  0  0  0
  141.0890   71.2960  228.0990 C   0  0  0  0  0  0  0  0  0  0  0  0
  140.9720   71.8670  226.8120 C   0  0  0  0  0  0  0  0  0  0  0  0
  140.4220   71.1240  225.7510 C   0  0  0  0  0  0  0  0  0  0  0  0
  140.0020   69.8210  226.0160 C   0  0  0  0  0  0  0  0  0  0  0  0
  140.2125   74.6803  221.1231 H   0  0  0  0  0  0  0  0  0  0  0  0
  141.9184   72.8923  221.5359 H   0  0  0  0  0  0  0  0  0  0  0  0
  141.2342   70.7248  222.6137 H   0  0  0  0  0  0  0  0  0  0  0  0
  137.8169   74.3111  221.7907 H   0  0  0  0  0  0  0  0  0  0  0  0
  136.5118   72.5617  223.8247 H   0  0  0  0  0  0  0  0  0  0  0  0
  136.1113   71.9170  222.2436 H   0  0  0  0  0  0  0  0  0  0  0  0
  136.8748   70.4242  224.6550 H   0  0  0  0  0  0  0  0  0  0  0  0
  136.5010   69.7226  223.0715 H   0  0  0  0  0  0  0  0  0  0  0  0
  138.5488   68.0981  223.4212 H   0  0  0  0  0  0  0  0  0  0  0  0
  140.1628   68.8668  223.1969 H   0  0  0  0  0  0  0  0  0  0  0  0
  138.8472   66.7767  225.6730 H   0  0  0  0  0  0  0  0  0  0  0  0
  139.6520   67.3410  228.0860 H   0  0  0  0  0  0  0  0  0  0  0  0
  140.7465   69.5232  229.3347 H   0  0  0  0  0  0  0  0  0  0  0  0
  141.5196   71.8865  228.9211 H   0  0  0  0  0  0  0  0  0  0  0  0
  141.3128   72.8983  226.6383 H   0  0  0  0  0  0  0  0  0  0  0  0
  140.3264   71.5574  224.7445 H   0  0  0  0  0  0  0  0  0  0  0  0
  1  2  2  0
  2  3  1  0
  3  4  2  0
  4  5  1  0
  5  6  2  0
  5  7  1  0
  7  8  1  0
  8  9  1  0
  9 10  1  0
 10 11  1  0
 11 12  2  0
 12 13  1  0
 13 14  1  0
 14 15  2  0
 15 16  1  0
 16 17  2  0
 17 18  1  0
 18 19  2  0
  6  1  1  0
 19 11  1  0
  9  4  1  0
 19 14  1  0
  1 20  1  0
  2 21  1  0
  3 22  1  0
  6 23  1  0
  7 24  1  0
  7 25  1  0
  8 26  1  0
  8 27  1  0
 10 28  1  0
 10 29  1  0
 12 30  1  0
 13 31  1  0
 15 32  1  0
 16 33  1  0
 17 34  1  0
 18 35  1  0
M  END
>  <UniqueID>  (31) 
590

>  <SMILES>  (31) 
c1ccc2c(c1)CCN2Cc1c[nH]c2ccccc12

>  <Energy>  (31) 
83.18702704463473

>  <Genealogy>  (31) 
c1ccc2c(c1)CCN2Cc1c[nH]c2ccccc12 (3D coordinates assigned)
c1ccc2c(c1)CCN2Cc1c[nH]c2ccccc12 (nonaromatic ring conformer: 83.18702704463473 kcal/mol)

>  <smiles>  (31) 
c1ccc2c(c1)CCN2Cc1c[nH]c2ccccc12

>  <score_type>  (31) 
oracle

>  <origin>  (31) 
autodockgpu

>  <m_score__min__energy>  (31) 
-6.7300000000000004

>  <m_primary>  (31) 
energy

>  <meeko>  (31) 
{"free_energy": -6.72, "intermolecular_energy": -7.32, "internal_energy": -0.73, "cluster_size": 19, "cluster_id": 1, "rank_in_cluster": 16}

>  <energy>  (31) 
-6.72

>  <cluster_rmsd>  (31) 
0.04

>  <rmsd>  (31) 
273.39

>  <cluster>  (31) 
1

$$$$
HDQBLRJEPZHFRL-UHFFFAOYNA-N
     RDKit          3D

 35 38  0  0  0  0  0  0  0  0999 V2000
  139.9530   73.6560  221.5940 C   0  0  0  0  0  0  0  0  0  0  0  0
  140.9010   72.6390  221.8220 C   0  0  0  0  0  0  0  0  0  0  0  0
  140.5140   71.4340  222.4320 C   0  0  0  0  0  0  0  0  0  0  0  0
  139.1700   71.2730  222.7940 C   0  0  0  0  0  0  0  0  0  0  0  0
  138.2530   72.2660  222.5780 C   0  0  0  0  0  0  0  0  0  0  0  0
  138.6150   73.4720  221.9770 C   0  0  0  0  0  0  0  0  0  0  0  0
  136.9090   71.8610  223.0740 C   0  0  0  0  0  0  0  0  0  0  0  0
  137.1460   70.4380  223.6330 C   0  0  0  0  0  0  0  0  0  0  0  0
  138.5670   70.1500  223.4220 N   0  0  0  0  0  0  0  0  0  0  0  0
  139.2010   68.8760  223.7630 C   0  0  0  0  0  0  0  0  0  0  0  0
  139.4900   68.8190  225.2330 C   0  0  0  0  0  0  0  0  0  0  0  0
  139.3780   67.7000  226.0530 C   0  0  0  0  0  0  0  0  0  0  0  0
  139.8050   67.9870  227.3040 N   0  0  0  0  0  0  0  0  0  0  0  0
  140.1970   69.2720  227.2770 C   0  0  0  0  0  0  0  0  0  0  0  0
  140.7340   70.0140  228.3290 C   0  0  0  0  0  0  0  0  0  0  0  0
  141.0980   71.3470  228.0750 C   0  0  0  0  0  0  0  0  0  0  0  0
  140.9220   71.9050  226.7880 C   0  0  0  0  0  0  0  0  0  0  0  0
  140.3780   71.1330  225.7460 C   0  0  0  0  0  0  0  0  0  0  0  0
  140.0240   69.8140  226.0280 C   0  0  0  0  0  0  0  0  0  0  0  0
  140.2620   74.5966  221.1146 H   0  0  0  0  0  0  0  0  0  0  0  0
  141.9484   72.7890  221.5212 H   0  0  0  0  0  0  0  0  0  0  0  0
  141.2479   70.6367  222.6207 H   0  0  0  0  0  0  0  0  0  0  0  0
  137.8682   74.2615  221.8070 H   0  0  0  0  0  0  0  0  0  0  0  0
  136.5600   72.5413  223.8648 H   0  0  0  0  0  0  0  0  0  0  0  0
  136.1359   71.8916  222.2921 H   0  0  0  0  0  0  0  0  0  0  0  0
  136.9048   70.4042  224.7057 H   0  0  0  0  0  0  0  0  0  0  0  0
  136.5069   69.6972  223.1303 H   0  0  0  0  0  0  0  0  0  0  0  0
  138.5260   68.0504  223.4930 H   0  0  0  0  0  0  0  0  0  0  0  0
  140.1461   68.7852  223.2075 H   0  0  0  0  0  0  0  0  0  0  0  0
  138.9962   66.7205  225.7294 H   0  0  0  0  0  0  0  0  0  0  0  0
  139.8390   67.3330  228.1180 H   0  0  0  0  0  0  0  0  0  0  0  0
  140.8683   69.5694  229.3262 H   0  0  0  0  0  0  0  0  0  0  0  0
  141.5229   71.9607  228.8830 H   0  0  0  0  0  0  0  0  0  0  0  0
  141.2123   72.9493  226.6005 H   0  0  0  0  0  0  0  0  0  0  0  0
  140.2363   71.5561  224.7406 H   0  0  0  0  0  0  0  0  0  0  0  0
  1  2  2  0
  2  3  1  0
  3  4  2  0
  4  5  1  0
  5  6  2  0
  5  7  1  0
  7  8  1  0
  8  9  1  0
  9 10  1  0
 10 11  1  0
 11 12  2  0
 12 13  1  0
 13 14  1  0
 14 15  2  0
 15 16  1  0
 16 17  2  0
 17 18  1  0
 18 19  2  0
  6  1  1  0
 19 11  1  0
  9  4  1  0
 19 14  1  0
  1 20  1  0
  2 21  1  0
  3 22  1  0
  6 23  1  0
  7 24  1  0
  7 25  1  0
  8 26  1  0
  8 27  1  0
 10 28  1  0
 10 29  1  0
 12 30  1  0
 13 31  1  0
 15 32  1  0
 16 33  1  0
 17 34  1  0
 18 35  1  0
M  END
>  <UniqueID>  (32) 
590

>  <SMILES>  (32) 
c1ccc2c(c1)CCN2Cc1c[nH]c2ccccc12

>  <Energy>  (32) 
83.18702704463473

>  <Genealogy>  (32) 
c1ccc2c(c1)CCN2Cc1c[nH]c2ccccc12 (3D coordinates assigned)
c1ccc2c(c1)CCN2Cc1c[nH]c2ccccc12 (nonaromatic ring conformer: 83.18702704463473 kcal/mol)

>  <smiles>  (32) 
c1ccc2c(c1)CCN2Cc1c[nH]c2ccccc12

>  <score_type>  (32) 
oracle

>  <origin>  (32) 
autodockgpu

>  <m_score__min__energy>  (32) 
-6.7300000000000004

>  <m_primary>  (32) 
energy

>  <meeko>  (32) 
{"free_energy": -6.73, "intermolecular_energy": -7.33, "internal_energy": -0.72, "cluster_size": 19, "cluster_id": 1, "rank_in_cluster": 2}

>  <energy>  (32) 
-6.72

>  <cluster_rmsd>  (32) 
0.04

>  <rmsd>  (32) 
273.39

>  <cluster>  (32) 
1

$$$$
HDQBLRJEPZHFRL-UHFFFAOYNA-N
     RDKit          3D

 35 38  0  0  0  0  0  0  0  0999 V2000
  134.6450   71.2500  224.9880 C   0  0  0  0  0  0  0  0  0  0  0  0
  135.0960   69.9900  225.4260 C   0  0  0  0  0  0  0  0  0  0  0  0
  136.3270   69.4830  224.9760 C   0  0  0  0  0  0  0  0  0  0  0  0
  137.0870   70.2640  224.0950 C   0  0  0  0  0  0  0  0  0  0  0  0
  136.6410   71.4860  223.6660 C   0  0  0  0  0  0  0  0  0  0  0  0
  135.4210   72.0080  224.0980 C   0  0  0  0  0  0  0  0  0  0  0  0
  137.6130   72.1000  222.7210 C   0  0  0  0  0  0  0  0  0  0  0  0
  138.7470   71.0510  222.6390 C   0  0  0  0  0  0  0  0  0  0  0  0
  138.3450   69.9480  223.5160 N   0  0  0  0  0  0  0  0  0  0  0  0
  139.1670   68.7650  223.7690 C   0  0  0  0  0  0  0  0  0  0  0  0
  139.5490   68.7000  225.2170 C   0  0  0  0  0  0  0  0  0  0  0  0
  139.6010   67.5550  226.0070 C   0  0  0  0  0  0  0  0  0  0  0  0
  140.0730   67.8530  227.2390 N   0  0  0  0  0  0  0  0  0  0  0  0
  140.3320   69.1720  227.2290 C   0  0  0  0  0  0  0  0  0  0  0  0
  140.8560   69.9370  228.2710 C   0  0  0  0  0  0  0  0  0  0  0  0
  141.0680   71.3070  228.0370 C   0  0  0  0  0  0  0  0  0  0  0  0
  140.7590   71.8760  226.7810 C   0  0  0  0  0  0  0  0  0  0  0  0
  140.2320   71.0790  225.7490 C   0  0  0  0  0  0  0  0  0  0  0  0
  140.0290   69.7250  226.0100 C   0  0  0  0  0  0  0  0  0  0  0  0
  133.6809   71.6414  225.3448 H   0  0  0  0  0  0  0  0  0  0  0  0
  134.4824   69.4003  226.1230 H   0  0  0  0  0  0  0  0  0  0  0  0
  136.6852   68.4971  225.3072 H   0  0  0  0  0  0  0  0  0  0  0  0
  135.0753   72.9920  223.7485 H   0  0  0  0  0  0  0  0  0  0  0  0
  137.1542   72.2612  221.7343 H   0  0  0  0  0  0  0  0  0  0  0  0
  137.9660   73.0883  223.0507 H   0  0  0  0  0  0  0  0  0  0  0  0
  138.8625   70.6939  221.6050 H   0  0  0  0  0  0  0  0  0  0  0  0
  139.7125   71.4782  222.9477 H   0  0  0  0  0  0  0  0  0  0  0  0
  138.5969   67.8627  223.5028 H   0  0  0  0  0  0  0  0  0  0  0  0
  140.0805   68.8256  223.1592 H   0  0  0  0  0  0  0  0  0  0  0  0
  139.3007   66.5499  225.6761 H   0  0  0  0  0  0  0  0  0  0  0  0
  140.2220   67.1860  228.0290 H   0  0  0  0  0  0  0  0  0  0  0  0
  141.0955   69.4832  229.2440 H   0  0  0  0  0  0  0  0  0  0  0  0
  141.4774   71.9406  228.8376 H   0  0  0  0  0  0  0  0  0  0  0  0
  140.9317   72.9487  226.6094 H   0  0  0  0  0  0  0  0  0  0  0  0
  139.9878   71.5105  224.7671 H   0  0  0  0  0  0  0  0  0  0  0  0
  1  2  2  0
  2  3  1  0
  3  4  2  0
  4  5  1  0
  5  6  2  0
  5  7  1  0
  7  8  1  0
  8  9  1  0
  9 10  1  0
 10 11  1  0
 11 12  2  0
 12 13  1  0
 13 14  1  0
 14 15  2  0
 15 16  1  0
 16 17  2  0
 17 18  1  0
 18 19  2  0
  6  1  1  0
 19 11  1  0
  9  4  1  0
 19 14  1  0
  1 20  1  0
  2 21  1  0
  3 22  1  0
  6 23  1  0
  7 24  1  0
  7 25  1  0
  8 26  1  0
  8 27  1  0
 10 28  1  0
 10 29  1  0
 12 30  1  0
 13 31  1  0
 15 32  1  0
 16 33  1  0
 17 34  1  0
 18 35  1  0
M  END
>  <UniqueID>  (33) 
590

>  <SMILES>  (33) 
c1ccc2c(c1)CCN2Cc1c[nH]c2ccccc12

>  <Energy>  (33) 
83.18702704463473

>  <Genealogy>  (33) 
c1ccc2c(c1)CCN2Cc1c[nH]c2ccccc12 (3D coordinates assigned)
c1ccc2c(c1)CCN2Cc1c[nH]c2ccccc12 (nonaromatic ring conformer: 83.18702704463473 kcal/mol)

>  <smiles>  (33) 
c1ccc2c(c1)CCN2Cc1c[nH]c2ccccc12

>  <score_type>  (33) 
oracle

>  <origin>  (33) 
autodockgpu

>  <m_score__min__energy>  (33) 
-6.7300000000000004

>  <m_primary>  (33) 
energy

>  <meeko>  (33) 
{"free_energy": -6.65, "intermolecular_energy": -7.25, "internal_energy": -0.8, "cluster_size": 19, "cluster_id": 1, "rank_in_cluster": 18}

>  <energy>  (33) 
-6.72

>  <cluster_rmsd>  (33) 
0.04

>  <rmsd>  (33) 
273.38

>  <cluster>  (33) 
1

$$$$
HDQBLRJEPZHFRL-UHFFFAOYNA-N
     RDKit          3D

 35 38  0  0  0  0  0  0  0  0999 V2000
  139.8920   73.6810  221.5780 C   0  0  0  0  0  0  0  0  0  0  0  0
  140.8510   72.6720  221.7900 C   0  0  0  0  0  0  0  0  0  0  0  0
  140.4800   71.4590  222.3950 C   0  0  0  0  0  0  0  0  0  0  0  0
  139.1410   71.2830  222.7680 C   0  0  0  0  0  0  0  0  0  0  0  0
  138.2130   72.2700  222.5670 C   0  0  0  0  0  0  0  0  0  0  0  0
  138.5590   73.4830  221.9710 C   0  0  0  0  0  0  0  0  0  0  0  0
  136.8780   71.8490  223.0720 C   0  0  0  0  0  0  0  0  0  0  0  0
  137.1320   70.4240  223.6190 C   0  0  0  0  0  0  0  0  0  0  0  0
  138.5540   70.1500  223.3930 N   0  0  0  0  0  0  0  0  0  0  0  0
  139.2020   68.8800  223.7190 C   0  0  0  0  0  0  0  0  0  0  0  0
  139.4880   68.8070  225.1890 C   0  0  0  0  0  0  0  0  0  0  0  0
  139.3790   67.6780  225.9960 C   0  0  0  0  0  0  0  0  0  0  0  0
  139.8020   67.9530  227.2510 N   0  0  0  0  0  0  0  0  0  0  0  0
  140.1890   69.2400  227.2390 C   0  0  0  0  0  0  0  0  0  0  0  0
  140.7210   69.9720  228.3010 C   0  0  0  0  0  0  0  0  0  0  0  0
  141.0810   71.3100  228.0630 C   0  0  0  0  0  0  0  0  0  0  0  0
  140.9050   71.8810  226.7820 C   0  0  0  0  0  0  0  0  0  0  0  0
  140.3670   71.1190  225.7300 C   0  0  0  0  0  0  0  0  0  0  0  0
  140.0170   69.7960  225.9970 C   0  0  0  0  0  0  0  0  0  0  0  0
  140.1884   74.6277  221.1028 H   0  0  0  0  0  0  0  0  0  0  0  0
  141.8942   72.8338  221.4810 H   0  0  0  0  0  0  0  0  0  0  0  0
  141.2228   70.6671  222.5714 H   0  0  0  0  0  0  0  0  0  0  0  0
  137.8039   74.2670  221.8125 H   0  0  0  0  0  0  0  0  0  0  0  0
  136.5300   72.5206  223.8707 H   0  0  0  0  0  0  0  0  0  0  0  0
  136.0980   71.8778  222.2969 H   0  0  0  0  0  0  0  0  0  0  0  0
  136.9008   70.3806  224.6936 H   0  0  0  0  0  0  0  0  0  0  0  0
  136.4946   69.6811  223.1172 H   0  0  0  0  0  0  0  0  0  0  0  0
  138.5377   68.0501  223.4364 H   0  0  0  0  0  0  0  0  0  0  0  0
  140.1495   68.8079  223.1649 H   0  0  0  0  0  0  0  0  0  0  0  0
  139.0022   66.7005  225.6606 H   0  0  0  0  0  0  0  0  0  0  0  0
  139.8370   67.2900  228.0570 H   0  0  0  0  0  0  0  0  0  0  0  0
  140.8545   69.5165  229.2933 H   0  0  0  0  0  0  0  0  0  0  0  0
  141.5022   71.9162  228.8786 H   0  0  0  0  0  0  0  0  0  0  0  0
  141.1909   72.9287  226.6070 H   0  0  0  0  0  0  0  0  0  0  0  0
  140.2268   71.5525  224.7288 H   0  0  0  0  0  0  0  0  0  0  0  0
  1  2  2  0
  2  3  1  0
  3  4  2  0
  4  5  1  0
  5  6  2  0
  5  7  1  0
  7  8  1  0
  8  9  1  0
  9 10  1  0
 10 11  1  0
 11 12  2  0
 12 13  1  0
 13 14  1  0
 14 15  2  0
 15 16  1  0
 16 17  2  0
 17 18  1  0
 18 19  2  0
  6  1  1  0
 19 11  1  0
  9  4  1  0
 19 14  1  0
  1 20  1  0
  2 21  1  0
  3 22  1  0
  6 23  1  0
  7 24  1  0
  7 25  1  0
  8 26  1  0
  8 27  1  0
 10 28  1  0
 10 29  1  0
 12 30  1  0
 13 31  1  0
 15 32  1  0
 16 33  1  0
 17 34  1  0
 18 35  1  0
M  END
>  <UniqueID>  (34) 
590

>  <SMILES>  (34) 
c1ccc2c(c1)CCN2Cc1c[nH]c2ccccc12

>  <Energy>  (34) 
83.18702704463473

>  <Genealogy>  (34) 
c1ccc2c(c1)CCN2Cc1c[nH]c2ccccc12 (3D coordinates assigned)
c1ccc2c(c1)CCN2Cc1c[nH]c2ccccc12 (nonaromatic ring conformer: 83.18702704463473 kcal/mol)

>  <smiles>  (34) 
c1ccc2c(c1)CCN2Cc1c[nH]c2ccccc12

>  <score_type>  (34) 
oracle

>  <origin>  (34) 
autodockgpu

>  <m_score__min__energy>  (34) 
-6.7300000000000004

>  <m_primary>  (34) 
energy

>  <meeko>  (34) 
{"free_energy": -6.72, "intermolecular_energy": -7.32, "internal_energy": -0.73, "cluster_size": 19, "cluster_id": 1, "rank_in_cluster": 10}

>  <energy>  (34) 
-6.72

>  <cluster_rmsd>  (34) 
0.03

>  <rmsd>  (34) 
273.4

>  <cluster>  (34) 
1

$$$$
HDQBLRJEPZHFRL-UHFFFAOYNA-N
     RDKit          3D

 35 38  0  0  0  0  0  0  0  0999 V2000
  139.9070   73.6890  221.5850 C   0  0  0  0  0  0  0  0  0  0  0  0
  140.8620   72.6780  221.8080 C   0  0  0  0  0  0  0  0  0  0  0  0
  140.4860   71.4710  222.4180 C   0  0  0  0  0  0  0  0  0  0  0  0
  139.1450   71.2990  222.7860 C   0  0  0  0  0  0  0  0  0  0  0  0
  138.2200   72.2870  222.5750 C   0  0  0  0  0  0  0  0  0  0  0  0
  138.5720   73.4960  221.9730 C   0  0  0  0  0  0  0  0  0  0  0  0
  136.8810   71.8720  223.0760 C   0  0  0  0  0  0  0  0  0  0  0  0
  137.1300   70.4510  223.6330 C   0  0  0  0  0  0  0  0  0  0  0  0
  138.5520   70.1720  223.4150 N   0  0  0  0  0  0  0  0  0  0  0  0
  139.1960   68.9020  223.7520 C   0  0  0  0  0  0  0  0  0  0  0  0
  139.4640   68.8330  225.2250 C   0  0  0  0  0  0  0  0  0  0  0  0
  139.3230   67.7120  226.0380 C   0  0  0  0  0  0  0  0  0  0  0  0
  139.7380   67.9850  227.2960 N   0  0  0  0  0  0  0  0  0  0  0  0
  140.1520   69.2640  227.2810 C   0  0  0  0  0  0  0  0  0  0  0  0
  140.6880   69.9910  228.3440 C   0  0  0  0  0  0  0  0  0  0  0  0
  141.0780   71.3190  228.1010 C   0  0  0  0  0  0  0  0  0  0  0  0
  140.9290   71.8860  226.8150 C   0  0  0  0  0  0  0  0  0  0  0  0
  140.3860   71.1290  225.7620 C   0  0  0  0  0  0  0  0  0  0  0  0
  140.0050   69.8150  226.0320 C   0  0  0  0  0  0  0  0  0  0  0  0
  140.2082   74.6321  221.1056 H   0  0  0  0  0  0  0  0  0  0  0  0
  141.9071   72.8350  221.5028 H   0  0  0  0  0  0  0  0  0  0  0  0
  141.2266   70.6789  222.6028 H   0  0  0  0  0  0  0  0  0  0  0  0
  137.8194   74.2807  221.8062 H   0  0  0  0  0  0  0  0  0  0  0  0
  136.5302   72.5493  223.8686 H   0  0  0  0  0  0  0  0  0  0  0  0
  136.1047   71.8975  222.2971 H   0  0  0  0  0  0  0  0  0  0  0  0
  136.8943   70.4152  224.7068 H   0  0  0  0  0  0  0  0  0  0  0  0
  136.4933   69.7063  223.1330 H   0  0  0  0  0  0  0  0  0  0  0  0
  138.5349   68.0715  223.4636 H   0  0  0  0  0  0  0  0  0  0  0  0
  140.1501   68.8280  223.2095 H   0  0  0  0  0  0  0  0  0  0  0  0
  138.9294   66.7406  225.7042 H   0  0  0  0  0  0  0  0  0  0  0  0
  139.7500   67.3270  228.1070 H   0  0  0  0  0  0  0  0  0  0  0  0
  140.8018   69.5393  229.3405 H   0  0  0  0  0  0  0  0  0  0  0  0
  141.5023   71.9216  228.9176 H   0  0  0  0  0  0  0  0  0  0  0  0
  141.2398   72.9260  226.6368 H   0  0  0  0  0  0  0  0  0  0  0  0
  140.2655   71.5596  224.7570 H   0  0  0  0  0  0  0  0  0  0  0  0
  1  2  2  0
  2  3  1  0
  3  4  2  0
  4  5  1  0
  5  6  2  0
  5  7  1  0
  7  8  1  0
  8  9  1  0
  9 10  1  0
 10 11  1  0
 11 12  2  0
 12 13  1  0
 13 14  1  0
 14 15  2  0
 15 16  1  0
 16 17  2  0
 17 18  1  0
 18 19  2  0
  6  1  1  0
 19 11  1  0
  9  4  1  0
 19 14  1  0
  1 20  1  0
  2 21  1  0
  3 22  1  0
  6 23  1  0
  7 24  1  0
  7 25  1  0
  8 26  1  0
  8 27  1  0
 10 28  1  0
 10 29  1  0
 12 30  1  0
 13 31  1  0
 15 32  1  0
 16 33  1  0
 17 34  1  0
 18 35  1  0
M  END
>  <UniqueID>  (35) 
590

>  <SMILES>  (35) 
c1ccc2c(c1)CCN2Cc1c[nH]c2ccccc12

>  <Energy>  (35) 
83.18702704463473

>  <Genealogy>  (35) 
c1ccc2c(c1)CCN2Cc1c[nH]c2ccccc12 (3D coordinates assigned)
c1ccc2c(c1)CCN2Cc1c[nH]c2ccccc12 (nonaromatic ring conformer: 83.18702704463473 kcal/mol)

>  <smiles>  (35) 
c1ccc2c(c1)CCN2Cc1c[nH]c2ccccc12

>  <score_type>  (35) 
oracle

>  <origin>  (35) 
autodockgpu

>  <m_score__min__energy>  (35) 
-6.7300000000000004

>  <m_primary>  (35) 
energy

>  <meeko>  (35) 
{"free_energy": -6.73, "intermolecular_energy": -7.33, "internal_energy": -0.73, "cluster_size": 19, "cluster_id": 1, "rank_in_cluster": 4}

>  <energy>  (35) 
-6.72

>  <cluster_rmsd>  (35) 
0.04

>  <rmsd>  (35) 
273.39

>  <cluster>  (35) 
1

$$$$
HDQBLRJEPZHFRL-UHFFFAOYNA-N
     RDKit          3D

 35 38  0  0  0  0  0  0  0  0999 V2000
  139.9490   73.6820  221.5790 C   0  0  0  0  0  0  0  0  0  0  0  0
  140.8990   72.6670  221.8060 C   0  0  0  0  0  0  0  0  0  0  0  0
  140.5140   71.4620  222.4170 C   0  0  0  0  0  0  0  0  0  0  0  0
  139.1720   71.2990  222.7820 C   0  0  0  0  0  0  0  0  0  0  0  0
  138.2530   72.2910  222.5670 C   0  0  0  0  0  0  0  0  0  0  0  0
  138.6120   73.4970  221.9640 C   0  0  0  0  0  0  0  0  0  0  0  0
  136.9100   71.8850  223.0660 C   0  0  0  0  0  0  0  0  0  0  0  0
  137.1500   70.4620  223.6250 C   0  0  0  0  0  0  0  0  0  0  0  0
  138.5710   70.1760  223.4120 N   0  0  0  0  0  0  0  0  0  0  0  0
  139.2080   68.9030  223.7520 C   0  0  0  0  0  0  0  0  0  0  0  0
  139.4760   68.8370  225.2250 C   0  0  0  0  0  0  0  0  0  0  0  0
  139.3340   67.7170  226.0400 C   0  0  0  0  0  0  0  0  0  0  0  0
  139.7500   67.9930  227.2970 N   0  0  0  0  0  0  0  0  0  0  0  0
  140.1650   69.2720  227.2790 C   0  0  0  0  0  0  0  0  0  0  0  0
  140.7020   70.0000  228.3410 C   0  0  0  0  0  0  0  0  0  0  0  0
  141.0930   71.3280  228.0950 C   0  0  0  0  0  0  0  0  0  0  0  0
  140.9430   71.8920  226.8080 C   0  0  0  0  0  0  0  0  0  0  0  0
  140.3990   71.1330  225.7570 C   0  0  0  0  0  0  0  0  0  0  0  0
  140.0180   69.8200  226.0300 C   0  0  0  0  0  0  0  0  0  0  0  0
  140.2560   74.6227  221.0984 H   0  0  0  0  0  0  0  0  0  0  0  0
  141.9458   72.8184  221.5038 H   0  0  0  0  0  0  0  0  0  0  0  0
  141.2492   70.6655  222.6042 H   0  0  0  0  0  0  0  0  0  0  0  0
  137.8638   74.2853  221.7941 H   0  0  0  0  0  0  0  0  0  0  0  0
  136.5620   72.5652  223.8573 H   0  0  0  0  0  0  0  0  0  0  0  0
  136.1351   71.9148  222.2859 H   0  0  0  0  0  0  0  0  0  0  0  0
  136.9104   70.4280  224.6981 H   0  0  0  0  0  0  0  0  0  0  0  0
  136.5112   69.7202  223.1233 H   0  0  0  0  0  0  0  0  0  0  0  0
  138.5421   68.0754  223.4662 H   0  0  0  0  0  0  0  0  0  0  0  0
  140.1613   68.8217  223.2092 H   0  0  0  0  0  0  0  0  0  0  0  0
  138.9393   66.7452  225.7084 H   0  0  0  0  0  0  0  0  0  0  0  0
  139.7620   67.3370  228.1100 H   0  0  0  0  0  0  0  0  0  0  0  0
  140.8158   69.5498  229.3382 H   0  0  0  0  0  0  0  0  0  0  0  0
  141.5186   71.9320  228.9099 H   0  0  0  0  0  0  0  0  0  0  0  0
  141.2539   72.9316  226.6273 H   0  0  0  0  0  0  0  0  0  0  0  0
  140.2778   71.5615  224.7512 H   0  0  0  0  0  0  0  0  0  0  0  0
  1  2  2  0
  2  3  1  0
  3  4  2  0
  4  5  1  0
  5  6  2  0
  5  7  1  0
  7  8  1  0
  8  9  1  0
  9 10  1  0
 10 11  1  0
 11 12  2  0
 12 13  1  0
 13 14  1  0
 14 15  2  0
 15 16  1  0
 16 17  2  0
 17 18  1  0
 18 19  2  0
  6  1  1  0
 19 11  1  0
  9  4  1  0
 19 14  1  0
  1 20  1  0
  2 21  1  0
  3 22  1  0
  6 23  1  0
  7 24  1  0
  7 25  1  0
  8 26  1  0
  8 27  1  0
 10 28  1  0
 10 29  1  0
 12 30  1  0
 13 31  1  0
 15 32  1  0
 16 33  1  0
 17 34  1  0
 18 35  1  0
M  END
>  <UniqueID>  (36) 
590

>  <SMILES>  (36) 
c1ccc2c(c1)CCN2Cc1c[nH]c2ccccc12

>  <Energy>  (36) 
83.18702704463473

>  <Genealogy>  (36) 
c1ccc2c(c1)CCN2Cc1c[nH]c2ccccc12 (3D coordinates assigned)
c1ccc2c(c1)CCN2Cc1c[nH]c2ccccc12 (nonaromatic ring conformer: 83.18702704463473 kcal/mol)

>  <smiles>  (36) 
c1ccc2c(c1)CCN2Cc1c[nH]c2ccccc12

>  <score_type>  (36) 
oracle

>  <origin>  (36) 
autodockgpu

>  <m_score__min__energy>  (36) 
-6.7300000000000004

>  <m_primary>  (36) 
energy

>  <meeko>  (36) 
{"free_energy": -6.73, "intermolecular_energy": -7.32, "internal_energy": -0.73, "cluster_size": 19, "cluster_id": 1, "rank_in_cluster": 6}

>  <energy>  (36) 
-6.72

>  <cluster_rmsd>  (36) 
0.04

>  <rmsd>  (36) 
273.38

>  <cluster>  (36) 
1

$$$$
HDQBLRJEPZHFRL-UHFFFAOYNA-N
     RDKit          3D

 35 38  0  0  0  0  0  0  0  0999 V2000
  141.4300   71.7620  228.0150 C   0  0  0  0  0  0  0  0  0  0  0  0
  141.0930   72.2460  226.7360 C   0  0  0  0  0  0  0  0  0  0  0  0
  140.5200   71.3880  225.7830 C   0  0  0  0  0  0  0  0  0  0  0  0
  140.2880   70.0540  226.1420 C   0  0  0  0  0  0  0  0  0  0  0  0
  140.6240   69.5850  227.3830 C   0  0  0  0  0  0  0  0  0  0  0  0
  141.1960   70.4180  228.3450 C   0  0  0  0  0  0  0  0  0  0  0  0
  140.3030   68.1370  227.5050 C   0  0  0  0  0  0  0  0  0  0  0  0
  139.7030   67.7840  226.1240 C   0  0  0  0  0  0  0  0  0  0  0  0
  139.7290   69.0220  225.3410 N   0  0  0  0  0  0  0  0  0  0  0  0
  139.1990   69.1400  223.9820 C   0  0  0  0  0  0  0  0  0  0  0  0
  138.2170   70.2690  223.9070 C   0  0  0  0  0  0  0  0  0  0  0  0
  138.4290   71.5100  223.3110 C   0  0  0  0  0  0  0  0  0  0  0  0
  137.2980   72.2500  223.3480 N   0  0  0  0  0  0  0  0  0  0  0  0
  136.3720   71.4850  223.9500 C   0  0  0  0  0  0  0  0  0  0  0  0
  135.0380   71.8100  224.1980 C   0  0  0  0  0  0  0  0  0  0  0  0
  134.2320   70.8450  224.8260 C   0  0  0  0  0  0  0  0  0  0  0  0
  134.7690   69.5890  225.1870 C   0  0  0  0  0  0  0  0  0  0  0  0
  136.1170   69.2880  224.9240 C   0  0  0  0  0  0  0  0  0  0  0  0
  136.8930   70.2650  224.3020 C   0  0  0  0  0  0  0  0  0  0  0  0
  141.8778   72.4391  228.7573 H   0  0  0  0  0  0  0  0  0  0  0  0
  141.2793   73.3001  226.4825 H   0  0  0  0  0  0  0  0  0  0  0  0
  140.2597   71.7547  224.7791 H   0  0  0  0  0  0  0  0  0  0  0  0
  141.4579   70.0299  229.3404 H   0  0  0  0  0  0  0  0  0  0  0  0
  141.2109   67.5480  227.7017 H   0  0  0  0  0  0  0  0  0  0  0  0
  139.6193   67.9179  228.3384 H   0  0  0  0  0  0  0  0  0  0  0  0
  140.3081   67.0083  225.6319 H   0  0  0  0  0  0  0  0  0  0  0  0
  138.6803   67.3901  226.2190 H   0  0  0  0  0  0  0  0  0  0  0  0
  140.0274   69.3317  223.2841 H   0  0  0  0  0  0  0  0  0  0  0  0
  138.6904   68.2028  223.7119 H   0  0  0  0  0  0  0  0  0  0  0  0
  139.3818   71.8412  222.8723 H   0  0  0  0  0  0  0  0  0  0  0  0
  137.1700   73.2150  222.9680 H   0  0  0  0  0  0  0  0  0  0  0  0
  134.6300   72.7904  223.9111 H   0  0  0  0  0  0  0  0  0  0  0  0
  133.1761   71.0691  225.0379 H   0  0  0  0  0  0  0  0  0  0  0  0
  134.1280   68.8414  225.6772 H   0  0  0  0  0  0  0  0  0  0  0  0
  136.5455   68.3132  225.2001 H   0  0  0  0  0  0  0  0  0  0  0  0
  1  2  2  0
  2  3  1  0
  3  4  2  0
  4  5  1  0
  5  6  2  0
  5  7  1  0
  7  8  1  0
  8  9  1  0
  9 10  1  0
 10 11  1  0
 11 12  2  0
 12 13  1  0
 13 14  1  0
 14 15  2  0
 15 16  1  0
 16 17  2  0
 17 18  1  0
 18 19  2  0
  6  1  1  0
 19 11  1  0
  9  4  1  0
 19 14  1  0
  1 20  1  0
  2 21  1  0
  3 22  1  0
  6 23  1  0
  7 24  1  0
  7 25  1  0
  8 26  1  0
  8 27  1  0
 10 28  1  0
 10 29  1  0
 12 30  1  0
 13 31  1  0
 15 32  1  0
 16 33  1  0
 17 34  1  0
 18 35  1  0
M  END
>  <UniqueID>  (37) 
590

>  <SMILES>  (37) 
c1ccc2c(c1)CCN2Cc1c[nH]c2ccccc12

>  <Energy>  (37) 
83.18702704463473

>  <Genealogy>  (37) 
c1ccc2c(c1)CCN2Cc1c[nH]c2ccccc12 (3D coordinates assigned)
c1ccc2c(c1)CCN2Cc1c[nH]c2ccccc12 (nonaromatic ring conformer: 83.18702704463473 kcal/mol)

>  <smiles>  (37) 
c1ccc2c(c1)CCN2Cc1c[nH]c2ccccc12

>  <score_type>  (37) 
oracle

>  <origin>  (37) 
autodockgpu

>  <m_score__min__energy>  (37) 
-6.7300000000000004

>  <m_primary>  (37) 
energy

>  <meeko>  (37) 
{"free_energy": -6.54, "intermolecular_energy": -7.14, "internal_energy": -0.63, "cluster_size": 1, "cluster_id": 2, "rank_in_cluster": 1}

>  <energy>  (37) 
-6.72

>  <cluster_rmsd>  (37) 
0.07

>  <rmsd>  (37) 
273.41

>  <cluster>  (37) 
1

$$$$
HDQBLRJEPZHFRL-UHFFFAOYNA-N
     RDKit          3D

 35 38  0  0  0  0  0  0  0  0999 V2000
  139.9050   73.6700  221.5850 C   0  0  0  0  0  0  0  0  0  0  0  0
  140.8590   72.6580  221.8090 C   0  0  0  0  0  0  0  0  0  0  0  0
  140.4800   71.4510  222.4200 C   0  0  0  0  0  0  0  0  0  0  0  0
  139.1390   71.2830  222.7890 C   0  0  0  0  0  0  0  0  0  0  0  0
  138.2170   72.2730  222.5770 C   0  0  0  0  0  0  0  0  0  0  0  0
  138.5700   73.4800  221.9740 C   0  0  0  0  0  0  0  0  0  0  0  0
  136.8770   71.8610  223.0790 C   0  0  0  0  0  0  0  0  0  0  0  0
  137.1230   70.4390  223.6370 C   0  0  0  0  0  0  0  0  0  0  0  0
  138.5440   70.1580  223.4200 N   0  0  0  0  0  0  0  0  0  0  0  0
  139.1860   68.8870  223.7580 C   0  0  0  0  0  0  0  0  0  0  0  0
  139.4640   68.8240  225.2290 C   0  0  0  0  0  0  0  0  0  0  0  0
  139.3310   67.7040  226.0470 C   0  0  0  0  0  0  0  0  0  0  0  0
  139.7550   67.9840  227.3010 N   0  0  0  0  0  0  0  0  0  0  0  0
  140.1640   69.2640  227.2780 C   0  0  0  0  0  0  0  0  0  0  0  0
  140.7050   69.9950  228.3360 C   0  0  0  0  0  0  0  0  0  0  0  0
  141.0900   71.3240  228.0860 C   0  0  0  0  0  0  0  0  0  0  0  0
  140.9290   71.8870  226.7990 C   0  0  0  0  0  0  0  0  0  0  0  0
  140.3820   71.1240  225.7520 C   0  0  0  0  0  0  0  0  0  0  0  0
  140.0070   69.8100  226.0300 C   0  0  0  0  0  0  0  0  0  0  0  0
  140.2073   74.6119  221.1038 H   0  0  0  0  0  0  0  0  0  0  0  0
  141.9045   72.8134  221.5044 H   0  0  0  0  0  0  0  0  0  0  0  0
  141.2185   70.6569  222.6042 H   0  0  0  0  0  0  0  0  0  0  0  0
  137.8186   74.2658  221.8070 H   0  0  0  0  0  0  0  0  0  0  0  0
  136.5281   72.5396  223.8714 H   0  0  0  0  0  0  0  0  0  0  0  0
  136.1005   71.8877  222.3003 H   0  0  0  0  0  0  0  0  0  0  0  0
  136.8865   70.4040  224.7107 H   0  0  0  0  0  0  0  0  0  0  0  0
  136.4852   69.6951  223.1371 H   0  0  0  0  0  0  0  0  0  0  0  0
  138.5200   68.0575  223.4780 H   0  0  0  0  0  0  0  0  0  0  0  0
  140.1358   68.8070  223.2090 H   0  0  0  0  0  0  0  0  0  0  0  0
  138.9372   66.7304  225.7198 H   0  0  0  0  0  0  0  0  0  0  0  0
  139.7740   67.3280  228.1140 H   0  0  0  0  0  0  0  0  0  0  0  0
  140.8264   69.5464  229.3330 H   0  0  0  0  0  0  0  0  0  0  0  0
  141.5195   71.9300  228.8974 H   0  0  0  0  0  0  0  0  0  0  0  0
  141.2334   72.9280  226.6156 H   0  0  0  0  0  0  0  0  0  0  0  0
  140.2540   71.5501  224.7460 H   0  0  0  0  0  0  0  0  0  0  0  0
  1  2  2  0
  2  3  1  0
  3  4  2  0
  4  5  1  0
  5  6  2  0
  5  7  1  0
  7  8  1  0
  8  9  1  0
  9 10  1  0
 10 11  1  0
 11 12  2  0
 12 13  1  0
 13 14  1  0
 14 15  2  0
 15 16  1  0
 16 17  2  0
 17 18  1  0
 18 19  2  0
  6  1  1  0
 19 11  1  0
  9  4  1  0
 19 14  1  0
  1 20  1  0
  2 21  1  0
  3 22  1  0
  6 23  1  0
  7 24  1  0
  7 25  1  0
  8 26  1  0
  8 27  1  0
 10 28  1  0
 10 29  1  0
 12 30  1  0
 13 31  1  0
 15 32  1  0
 16 33  1  0
 17 34  1  0
 18 35  1  0
M  END
>  <UniqueID>  (38) 
590

>  <SMILES>  (38) 
c1ccc2c(c1)CCN2Cc1c[nH]c2ccccc12

>  <Energy>  (38) 
83.18702704463473

>  <Genealogy>  (38) 
c1ccc2c(c1)CCN2Cc1c[nH]c2ccccc12 (3D coordinates assigned)
c1ccc2c(c1)CCN2Cc1c[nH]c2ccccc12 (nonaromatic ring conformer: 83.18702704463473 kcal/mol)

>  <smiles>  (38) 
c1ccc2c(c1)CCN2Cc1c[nH]c2ccccc12

>  <score_type>  (38) 
oracle

>  <origin>  (38) 
autodockgpu

>  <m_score__min__energy>  (38) 
-6.7300000000000004

>  <m_primary>  (38) 
energy

>  <meeko>  (38) 
{"free_energy": -6.73, "intermolecular_energy": -7.32, "internal_energy": -0.73, "cluster_size": 19, "cluster_id": 1, "rank_in_cluster": 8}

>  <energy>  (38) 
-6.65

>  <cluster_rmsd>  (38) 
1.98

>  <rmsd>  (38) 
273.3

>  <cluster>  (38) 
1

$$$$
HDQBLRJEPZHFRL-UHFFFAOYNA-N
     RDKit          3D

 35 38  0  0  0  0  0  0  0  0999 V2000
  139.9410   73.6870  221.5950 C   0  0  0  0  0  0  0  0  0  0  0  0
  140.8940   72.6750  221.8230 C   0  0  0  0  0  0  0  0  0  0  0  0
  140.5110   71.4660  222.4270 C   0  0  0  0  0  0  0  0  0  0  0  0
  139.1670   71.2960  222.7840 C   0  0  0  0  0  0  0  0  0  0  0  0
  138.2450   72.2860  222.5680 C   0  0  0  0  0  0  0  0  0  0  0  0
  138.6030   73.4950  221.9720 C   0  0  0  0  0  0  0  0  0  0  0  0
  136.9020   71.8720  223.0580 C   0  0  0  0  0  0  0  0  0  0  0  0
  137.1440   70.4480  223.6130 C   0  0  0  0  0  0  0  0  0  0  0  0
  138.5670   70.1680  223.4060 N   0  0  0  0  0  0  0  0  0  0  0  0
  139.2070   68.8970  223.7450 C   0  0  0  0  0  0  0  0  0  0  0  0
  139.4760   68.8300  225.2180 C   0  0  0  0  0  0  0  0  0  0  0  0
  139.3370   67.7090  226.0330 C   0  0  0  0  0  0  0  0  0  0  0  0
  139.7540   67.9850  227.2900 N   0  0  0  0  0  0  0  0  0  0  0  0
  140.1650   69.2650  227.2720 C   0  0  0  0  0  0  0  0  0  0  0  0
  140.7010   69.9930  228.3340 C   0  0  0  0  0  0  0  0  0  0  0  0
  141.0900   71.3220  228.0890 C   0  0  0  0  0  0  0  0  0  0  0  0
  140.9380   71.8870  226.8020 C   0  0  0  0  0  0  0  0  0  0  0  0
  140.3950   71.1270  225.7510 C   0  0  0  0  0  0  0  0  0  0  0  0
  140.0160   69.8140  226.0240 C   0  0  0  0  0  0  0  0  0  0  0  0
  140.2466   74.6308  221.1199 H   0  0  0  0  0  0  0  0  0  0  0  0
  141.9417   72.8320  221.5270 H   0  0  0  0  0  0  0  0  0  0  0  0
  141.2486   70.6719  222.6151 H   0  0  0  0  0  0  0  0  0  0  0  0
  137.8528   74.2811  221.8011 H   0  0  0  0  0  0  0  0  0  0  0  0
  136.5468   72.5477  223.8500 H   0  0  0  0  0  0  0  0  0  0  0  0
  136.1316   71.9011  222.2734 H   0  0  0  0  0  0  0  0  0  0  0  0
  136.8992   70.4092  224.6847 H   0  0  0  0  0  0  0  0  0  0  0  0
  136.5103   69.7057  223.1056 H   0  0  0  0  0  0  0  0  0  0  0  0
  138.5430   68.0680  223.4587 H   0  0  0  0  0  0  0  0  0  0  0  0
  140.1604   68.8190  223.2019 H   0  0  0  0  0  0  0  0  0  0  0  0
  138.9437   66.7367  225.7014 H   0  0  0  0  0  0  0  0  0  0  0  0
  139.7670   67.3280  228.1010 H   0  0  0  0  0  0  0  0  0  0  0  0
  140.8158   69.5423  229.3308 H   0  0  0  0  0  0  0  0  0  0  0  0
  141.5153   71.9259  228.9041 H   0  0  0  0  0  0  0  0  0  0  0  0
  141.2464   72.9274  226.6218 H   0  0  0  0  0  0  0  0  0  0  0  0
  140.2732   71.5553  224.7451 H   0  0  0  0  0  0  0  0  0  0  0  0
  1  2  2  0
  2  3  1  0
  3  4  2  0
  4  5  1  0
  5  6  2  0
  5  7  1  0
  7  8  1  0
  8  9  1  0
  9 10  1  0
 10 11  1  0
 11 12  2  0
 12 13  1  0
 13 14  1  0
 14 15  2  0
 15 16  1  0
 16 17  2  0
 17 18  1  0
 18 19  2  0
  6  1  1  0
 19 11  1  0
  9  4  1  0
 19 14  1  0
  1 20  1  0
  2 21  1  0
  3 22  1  0
  6 23  1  0
  7 24  1  0
  7 25  1  0
  8 26  1  0
  8 27  1  0
 10 28  1  0
 10 29  1  0
 12 30  1  0
 13 31  1  0
 15 32  1  0
 16 33  1  0
 17 34  1  0
 18 35  1  0
M  END
>  <UniqueID>  (39) 
590

>  <SMILES>  (39) 
c1ccc2c(c1)CCN2Cc1c[nH]c2ccccc12

>  <Energy>  (39) 
83.18702704463473

>  <Genealogy>  (39) 
c1ccc2c(c1)CCN2Cc1c[nH]c2ccccc12 (3D coordinates assigned)
c1ccc2c(c1)CCN2Cc1c[nH]c2ccccc12 (nonaromatic ring conformer: 83.18702704463473 kcal/mol)

>  <smiles>  (39) 
c1ccc2c(c1)CCN2Cc1c[nH]c2ccccc12

>  <score_type>  (39) 
oracle

>  <origin>  (39) 
autodockgpu

>  <m_score__min__energy>  (39) 
-6.7300000000000004

>  <m_primary>  (39) 
energy

>  <meeko>  (39) 
{"free_energy": -6.73, "intermolecular_energy": -7.32, "internal_energy": -0.73, "cluster_size": 19, "cluster_id": 1, "rank_in_cluster": 5}

>  <energy>  (39) 
-6.64

>  <cluster_rmsd>  (39) 
1.97

>  <rmsd>  (39) 
273.3

>  <cluster>  (39) 
1

$$$$
HDQBLRJEPZHFRL-UHFFFAOYNA-N
     RDKit          3D

 35 38  0  0  0  0  0  0  0  0999 V2000
  139.9030   73.6840  221.5860 C   0  0  0  0  0  0  0  0  0  0  0  0
  140.8590   72.6740  221.8100 C   0  0  0  0  0  0  0  0  0  0  0  0
  140.4830   71.4660  222.4200 C   0  0  0  0  0  0  0  0  0  0  0  0
  139.1410   71.2940  222.7860 C   0  0  0  0  0  0  0  0  0  0  0  0
  138.2160   72.2810  222.5740 C   0  0  0  0  0  0  0  0  0  0  0  0
  138.5670   73.4900  221.9720 C   0  0  0  0  0  0  0  0  0  0  0  0
  136.8770   71.8650  223.0730 C   0  0  0  0  0  0  0  0  0  0  0  0
  137.1260   70.4440  223.6300 C   0  0  0  0  0  0  0  0  0  0  0  0
  138.5480   70.1660  223.4140 N   0  0  0  0  0  0  0  0  0  0  0  0
  139.1930   68.8970  223.7520 C   0  0  0  0  0  0  0  0  0  0  0  0
  139.4660   68.8310  225.2240 C   0  0  0  0  0  0  0  0  0  0  0  0
  139.3280   67.7110  226.0400 C   0  0  0  0  0  0  0  0  0  0  0  0
  139.7470   67.9880  227.2960 N   0  0  0  0  0  0  0  0  0  0  0  0
  140.1590   69.2670  227.2770 C   0  0  0  0  0  0  0  0  0  0  0  0
  140.6970   69.9970  228.3370 C   0  0  0  0  0  0  0  0  0  0  0  0
  141.0850   71.3250  228.0900 C   0  0  0  0  0  0  0  0  0  0  0  0
  140.9300   71.8890  226.8040 C   0  0  0  0  0  0  0  0  0  0  0  0
  140.3850   71.1290  225.7540 C   0  0  0  0  0  0  0  0  0  0  0  0
  140.0070   69.8150  226.0280 C   0  0  0  0  0  0  0  0  0  0  0  0
  140.2040   74.6275  221.1073 H   0  0  0  0  0  0  0  0  0  0  0  0
  141.9043   72.8320  221.5059 H   0  0  0  0  0  0  0  0  0  0  0  0
  141.2237   70.6743  222.6060 H   0  0  0  0  0  0  0  0  0  0  0  0
  137.8137   74.2737  221.8036 H   0  0  0  0  0  0  0  0  0  0  0  0
  136.5247   72.5419  223.8653 H   0  0  0  0  0  0  0  0  0  0  0  0
  136.1018   71.8901  222.2929 H   0  0  0  0  0  0  0  0  0  0  0  0
  136.8888   70.4078  224.7035 H   0  0  0  0  0  0  0  0  0  0  0  0
  136.4904   69.6990  223.1289 H   0  0  0  0  0  0  0  0  0  0  0  0
  138.5309   68.0659  223.4676 H   0  0  0  0  0  0  0  0  0  0  0  0
  140.1454   68.8221  223.2067 H   0  0  0  0  0  0  0  0  0  0  0  0
  138.9340   66.7385  225.7098 H   0  0  0  0  0  0  0  0  0  0  0  0
  139.7620   67.3310  228.1080 H   0  0  0  0  0  0  0  0  0  0  0  0
  140.8138   69.5476  229.3342 H   0  0  0  0  0  0  0  0  0  0  0  0
  141.5124   71.9295  228.9036 H   0  0  0  0  0  0  0  0  0  0  0  0
  141.2377   72.9295  226.6229 H   0  0  0  0  0  0  0  0  0  0  0  0
  140.2608   71.5573  224.7485 H   0  0  0  0  0  0  0  0  0  0  0  0
  1  2  2  0
  2  3  1  0
  3  4  2  0
  4  5  1  0
  5  6  2  0
  5  7  1  0
  7  8  1  0
  8  9  1  0
  9 10  1  0
 10 11  1  0
 11 12  2  0
 12 13  1  0
 13 14  1  0
 14 15  2  0
 15 16  1  0
 16 17  2  0
 17 18  1  0
 18 19  2  0
  6  1  1  0
 19 11  1  0
  9  4  1  0
 19 14  1  0
  1 20  1  0
  2 21  1  0
  3 22  1  0
  6 23  1  0
  7 24  1  0
  7 25  1  0
  8 26  1  0
  8 27  1  0
 10 28  1  0
 10 29  1  0
 12 30  1  0
 13 31  1  0
 15 32  1  0
 16 33  1  0
 17 34  1  0
 18 35  1  0
M  END
>  <UniqueID>  (40) 
590

>  <SMILES>  (40) 
c1ccc2c(c1)CCN2Cc1c[nH]c2ccccc12

>  <Energy>  (40) 
83.18702704463473

>  <Genealogy>  (40) 
c1ccc2c(c1)CCN2Cc1c[nH]c2ccccc12 (3D coordinates assigned)
c1ccc2c(c1)CCN2Cc1c[nH]c2ccccc12 (nonaromatic ring conformer: 83.18702704463473 kcal/mol)

>  <smiles>  (40) 
c1ccc2c(c1)CCN2Cc1c[nH]c2ccccc12

>  <score_type>  (40) 
oracle

>  <origin>  (40) 
autodockgpu

>  <m_score__min__energy>  (40) 
-6.7300000000000004

>  <m_primary>  (40) 
energy

>  <meeko>  (40) 
{"free_energy": -6.73, "intermolecular_energy": -7.33, "internal_energy": -0.73, "cluster_size": 19, "cluster_id": 1, "rank_in_cluster": 3}

>  <energy>  (40) 
-6.54

>  <cluster_rmsd>  (40) 
0.0

>  <rmsd>  (40) 
273.24

>  <cluster>  (40) 
2

$$$$
HDQBLRJEPZHFRL-UHFFFAOYNA-N
     RDKit          3D

 35 38  0  0  0  0  0  0  0  0999 V2000
  139.9200   73.6970  221.5880 C   0  0  0  0  0  0  0  0  0  0  0  0
  140.8780   72.6900  221.8160 C   0  0  0  0  0  0  0  0  0  0  0  0
  140.5030   71.4790  222.4200 C   0  0  0  0  0  0  0  0  0  0  0  0
  139.1600   71.3010  222.7770 C   0  0  0  0  0  0  0  0  0  0  0  0
  138.2320   72.2850  222.5610 C   0  0  0  0  0  0  0  0  0  0  0  0
  138.5830   73.4970  221.9650 C   0  0  0  0  0  0  0  0  0  0  0  0
  136.8910   71.8630  223.0510 C   0  0  0  0  0  0  0  0  0  0  0  0
  137.1420   70.4410  223.6060 C   0  0  0  0  0  0  0  0  0  0  0  0
  138.5670   70.1690  223.3990 N   0  0  0  0  0  0  0  0  0  0  0  0
  139.2140   68.9020  223.7380 C   0  0  0  0  0  0  0  0  0  0  0  0
  139.4770   68.8330  225.2120 C   0  0  0  0  0  0  0  0  0  0  0  0
  139.3310   67.7120  226.0250 C   0  0  0  0  0  0  0  0  0  0  0  0
  139.7440   67.9860  227.2840 N   0  0  0  0  0  0  0  0  0  0  0  0
  140.1590   69.2640  227.2690 C   0  0  0  0  0  0  0  0  0  0  0  0
  140.6930   69.9910  228.3330 C   0  0  0  0  0  0  0  0  0  0  0  0
  141.0850   71.3190  228.0910 C   0  0  0  0  0  0  0  0  0  0  0  0
  140.9410   71.8850  226.8040 C   0  0  0  0  0  0  0  0  0  0  0  0
  140.4000   71.1280  225.7500 C   0  0  0  0  0  0  0  0  0  0  0  0
  140.0170   69.8150  226.0200 C   0  0  0  0  0  0  0  0  0  0  0  0
  140.2205   74.6427  221.1132 H   0  0  0  0  0  0  0  0  0  0  0  0
  141.9247   72.8529  221.5196 H   0  0  0  0  0  0  0  0  0  0  0  0
  141.2455   70.6895  222.6082 H   0  0  0  0  0  0  0  0  0  0  0  0
  137.8281   74.2787  221.7944 H   0  0  0  0  0  0  0  0  0  0  0  0
  136.5316   72.5366  223.8429 H   0  0  0  0  0  0  0  0  0  0  0  0
  136.1204   71.8875  222.2664 H   0  0  0  0  0  0  0  0  0  0  0  0
  136.8976   70.4010  224.6778 H   0  0  0  0  0  0  0  0  0  0  0  0
  136.5129   69.6949  223.0985 H   0  0  0  0  0  0  0  0  0  0  0  0
  138.5570   68.0692  223.4468 H   0  0  0  0  0  0  0  0  0  0  0  0
  140.1704   68.8320  223.1992 H   0  0  0  0  0  0  0  0  0  0  0  0
  138.9359   66.7413  225.6910 H   0  0  0  0  0  0  0  0  0  0  0  0
  139.7520   67.3280  228.0950 H   0  0  0  0  0  0  0  0  0  0  0  0
  140.8038   69.5393  229.3299 H   0  0  0  0  0  0  0  0  0  0  0  0
  141.5067   71.9218  228.9088 H   0  0  0  0  0  0  0  0  0  0  0  0
  141.2542   72.9243  226.6258 H   0  0  0  0  0  0  0  0  0  0  0  0
  140.2827   71.5580  224.7444 H   0  0  0  0  0  0  0  0  0  0  0  0
  1  2  2  0
  2  3  1  0
  3  4  2  0
  4  5  1  0
  5  6  2  0
  5  7  1  0
  7  8  1  0
  8  9  1  0
  9 10  1  0
 10 11  1  0
 11 12  2  0
 12 13  1  0
 13 14  1  0
 14 15  2  0
 15 16  1  0
 16 17  2  0
 17 18  1  0
 18 19  2  0
  6  1  1  0
 19 11  1  0
  9  4  1  0
 19 14  1  0
  1 20  1  0
  2 21  1  0
  3 22  1  0
  6 23  1  0
  7 24  1  0
  7 25  1  0
  8 26  1  0
  8 27  1  0
 10 28  1  0
 10 29  1  0
 12 30  1  0
 13 31  1  0
 15 32  1  0
 16 33  1  0
 17 34  1  0
 18 35  1  0
M  END
>  <UniqueID>  (41) 
591

>  <SMILES>  (41) 
c1ccc2c(c1)CCN2Cc1c[nH]c2ccccc12

>  <Energy>  (41) 
83.19044011310861

>  <Genealogy>  (41) 
c1ccc2c(c1)CCN2Cc1c[nH]c2ccccc12 (3D coordinates assigned)
c1ccc2c(c1)CCN2Cc1c[nH]c2ccccc12 (nonaromatic ring conformer: 83.19044011310861 kcal/mol)

>  <smiles>  (41) 
c1ccc2c(c1)CCN2Cc1c[nH]c2ccccc12

>  <score_type>  (41) 
oracle

>  <origin>  (41) 
autodockgpu

>  <m_score__min__energy>  (41) 
-6.7300000000000004

>  <m_primary>  (41) 
energy

>  <meeko>  (41) 
{"free_energy": -6.72, "intermolecular_energy": -7.32, "internal_energy": -0.73, "cluster_size": 19, "cluster_id": 1, "rank_in_cluster": 12}

>  <energy>  (41) 
-6.73

>  <cluster_rmsd>  (41) 
0.0

>  <rmsd>  (41) 
273.4

>  <cluster>  (41) 
1

$$$$
HDQBLRJEPZHFRL-UHFFFAOYNA-N
     RDKit          3D

 35 38  0  0  0  0  0  0  0  0999 V2000
  139.9670   73.7000  221.6210 C   0  0  0  0  0  0  0  0  0  0  0  0
  140.9150   72.6880  221.8650 C   0  0  0  0  0  0  0  0  0  0  0  0
  140.5210   71.4780  222.4590 C   0  0  0  0  0  0  0  0  0  0  0  0
  139.1700   71.3060  222.7890 C   0  0  0  0  0  0  0  0  0  0  0  0
  138.2530   72.2960  222.5570 C   0  0  0  0  0  0  0  0  0  0  0  0
  138.6220   73.5070  221.9710 C   0  0  0  0  0  0  0  0  0  0  0  0
  136.9000   71.8800  223.0180 C   0  0  0  0  0  0  0  0  0  0  0  0
  137.1310   70.4560  223.5750 C   0  0  0  0  0  0  0  0  0  0  0  0
  138.5590   70.1770  223.3960 N   0  0  0  0  0  0  0  0  0  0  0  0
  139.1920   68.9050  223.7450 C   0  0  0  0  0  0  0  0  0  0  0  0
  139.4500   68.8430  225.2200 C   0  0  0  0  0  0  0  0  0  0  0  0
  139.2860   67.7300  226.0410 C   0  0  0  0  0  0  0  0  0  0  0  0
  139.6990   68.0070  227.2990 N   0  0  0  0  0  0  0  0  0  0  0  0
  140.1320   69.2790  227.2760 C   0  0  0  0  0  0  0  0  0  0  0  0
  140.6730   70.0060  228.3370 C   0  0  0  0  0  0  0  0  0  0  0  0
  141.0850   71.3260  228.0860 C   0  0  0  0  0  0  0  0  0  0  0  0
  140.9520   71.8850  226.7950 C   0  0  0  0  0  0  0  0  0  0  0  0
  140.4030   71.1280  225.7450 C   0  0  0  0  0  0  0  0  0  0  0  0
  140.0010   69.8230  226.0230 C   0  0  0  0  0  0  0  0  0  0  0  0
  140.2818   74.6451  221.1544 H   0  0  0  0  0  0  0  0  0  0  0  0
  141.9681   72.8457  221.5893 H   0  0  0  0  0  0  0  0  0  0  0  0
  141.2554   70.6842  222.6604 H   0  0  0  0  0  0  0  0  0  0  0  0
  137.8750   74.2933  221.7873 H   0  0  0  0  0  0  0  0  0  0  0  0
  136.5277   72.5540  223.8036 H   0  0  0  0  0  0  0  0  0  0  0  0
  136.1463   71.9100  222.2173 H   0  0  0  0  0  0  0  0  0  0  0  0
  136.8647   70.4152  224.6415 H   0  0  0  0  0  0  0  0  0  0  0  0
  136.5079   69.7143  223.0538 H   0  0  0  0  0  0  0  0  0  0  0  0
  138.5271   68.0772  223.4573 H   0  0  0  0  0  0  0  0  0  0  0  0
  140.1491   68.8214  223.2093 H   0  0  0  0  0  0  0  0  0  0  0  0
  138.8783   66.7625  225.7129 H   0  0  0  0  0  0  0  0  0  0  0  0
  139.6960   67.3550  228.1150 H   0  0  0  0  0  0  0  0  0  0  0  0
  140.7738   69.5603  229.3376 H   0  0  0  0  0  0  0  0  0  0  0  0
  141.5141   71.9283  228.9003 H   0  0  0  0  0  0  0  0  0  0  0  0
  141.2799   72.9186  226.6104 H   0  0  0  0  0  0  0  0  0  0  0  0
  140.2943   71.5525  224.7360 H   0  0  0  0  0  0  0  0  0  0  0  0
  1  2  2  0
  2  3  1  0
  3  4  2  0
  4  5  1  0
  5  6  2  0
  5  7  1  0
  7  8  1  0
  8  9  1  0
  9 10  1  0
 10 11  1  0
 11 12  2  0
 12 13  1  0
 13 14  1  0
 14 15  2  0
 15 16  1  0
 16 17  2  0
 17 18  1  0
 18 19  2  0
  6  1  1  0
 19 11  1  0
  9  4  1  0
 19 14  1  0
  1 20  1  0
  2 21  1  0
  3 22  1  0
  6 23  1  0
  7 24  1  0
  7 25  1  0
  8 26  1  0
  8 27  1  0
 10 28  1  0
 10 29  1  0
 12 30  1  0
 13 31  1  0
 15 32  1  0
 16 33  1  0
 17 34  1  0
 18 35  1  0
M  END
>  <UniqueID>  (42) 
591

>  <SMILES>  (42) 
c1ccc2c(c1)CCN2Cc1c[nH]c2ccccc12

>  <Energy>  (42) 
83.19044011310861

>  <Genealogy>  (42) 
c1ccc2c(c1)CCN2Cc1c[nH]c2ccccc12 (3D coordinates assigned)
c1ccc2c(c1)CCN2Cc1c[nH]c2ccccc12 (nonaromatic ring conformer: 83.19044011310861 kcal/mol)

>  <smiles>  (42) 
c1ccc2c(c1)CCN2Cc1c[nH]c2ccccc12

>  <score_type>  (42) 
oracle

>  <origin>  (42) 
autodockgpu

>  <m_score__min__energy>  (42) 
-6.7300000000000004

>  <m_primary>  (42) 
energy

>  <meeko>  (42) 
{"free_energy": -6.73, "intermolecular_energy": -7.33, "internal_energy": -0.72, "cluster_size": 19, "cluster_id": 1, "rank_in_cluster": 1}

>  <energy>  (42) 
-6.73

>  <cluster_rmsd>  (42) 
0.06

>  <rmsd>  (42) 
273.41

>  <cluster>  (42) 
1

$$$$
HDQBLRJEPZHFRL-UHFFFAOYNA-N
     RDKit          3D

 35 38  0  0  0  0  0  0  0  0999 V2000
  134.6760   71.2510  224.9990 C   0  0  0  0  0  0  0  0  0  0  0  0
  135.1270   69.9910  225.4370 C   0  0  0  0  0  0  0  0  0  0  0  0
  136.3530   69.4800  224.9800 C   0  0  0  0  0  0  0  0  0  0  0  0
  137.1100   70.2580  224.0940 C   0  0  0  0  0  0  0  0  0  0  0  0
  136.6640   71.4790  223.6640 C   0  0  0  0  0  0  0  0  0  0  0  0
  135.4490   72.0050  224.1020 C   0  0  0  0  0  0  0  0  0  0  0  0
  137.6330   72.0890  222.7120 C   0  0  0  0  0  0  0  0  0  0  0  0
  138.7630   71.0370  222.6250 C   0  0  0  0  0  0  0  0  0  0  0  0
  138.3640   69.9370  223.5080 N   0  0  0  0  0  0  0  0  0  0  0  0
  139.1840   68.7520  223.7590 C   0  0  0  0  0  0  0  0  0  0  0  0
  139.5610   68.6810  225.2070 C   0  0  0  0  0  0  0  0  0  0  0  0
  139.6130   67.5320  225.9920 C   0  0  0  0  0  0  0  0  0  0  0  0
  140.0800   67.8250  227.2270 N   0  0  0  0  0  0  0  0  0  0  0  0
  140.3350   69.1450  227.2250 C   0  0  0  0  0  0  0  0  0  0  0  0
  140.8530   69.9060  228.2720 C   0  0  0  0  0  0  0  0  0  0  0  0
  141.0630   71.2780  228.0460 C   0  0  0  0  0  0  0  0  0  0  0  0
  140.7560   71.8520  226.7920 C   0  0  0  0  0  0  0  0  0  0  0  0
  140.2360   71.0590  225.7540 C   0  0  0  0  0  0  0  0  0  0  0  0
  140.0350   69.7030  226.0080 C   0  0  0  0  0  0  0  0  0  0  0  0
  133.7151   71.6456  225.3608 H   0  0  0  0  0  0  0  0  0  0  0  0
  134.5169   69.4046  226.1398 H   0  0  0  0  0  0  0  0  0  0  0  0
  136.7101   68.4932  225.3096 H   0  0  0  0  0  0  0  0  0  0  0  0
  135.1039   72.9892  223.7523 H   0  0  0  0  0  0  0  0  0  0  0  0
  137.1690   72.2502  221.7278 H   0  0  0  0  0  0  0  0  0  0  0  0
  137.9908   73.0767  223.0383 H   0  0  0  0  0  0  0  0  0  0  0  0
  138.8704   70.6768  221.5912 H   0  0  0  0  0  0  0  0  0  0  0  0
  139.7318   71.4624  222.9259 H   0  0  0  0  0  0  0  0  0  0  0  0
  138.6138   67.8514  223.4874 H   0  0  0  0  0  0  0  0  0  0  0  0
  140.0995   68.8140  223.1524 H   0  0  0  0  0  0  0  0  0  0  0  0
  139.3162   66.5278  225.6552 H   0  0  0  0  0  0  0  0  0  0  0  0
  140.2280   67.1540  228.0140 H   0  0  0  0  0  0  0  0  0  0  0  0
  141.0898   69.4480  229.2437 H   0  0  0  0  0  0  0  0  0  0  0  0
  141.4690   71.9085  228.8508 H   0  0  0  0  0  0  0  0  0  0  0  0
  140.9249   72.9263  226.6268 H   0  0  0  0  0  0  0  0  0  0  0  0
  139.9954   71.4945  224.7729 H   0  0  0  0  0  0  0  0  0  0  0  0
  1  2  2  0
  2  3  1  0
  3  4  2  0
  4  5  1  0
  5  6  2  0
  5  7  1  0
  7  8  1  0
  8  9  1  0
  9 10  1  0
 10 11  1  0
 11 12  2  0
 12 13  1  0
 13 14  1  0
 14 15  2  0
 15 16  1  0
 16 17  2  0
 17 18  1  0
 18 19  2  0
  6  1  1  0
 19 11  1  0
  9  4  1  0
 19 14  1  0
  1 20  1  0
  2 21  1  0
  3 22  1  0
  6 23  1  0
  7 24  1  0
  7 25  1  0
  8 26  1  0
  8 27  1  0
 10 28  1  0
 10 29  1  0
 12 30  1  0
 13 31  1  0
 15 32  1  0
 16 33  1  0
 17 34  1  0
 18 35  1  0
M  END
>  <UniqueID>  (43) 
591

>  <SMILES>  (43) 
c1ccc2c(c1)CCN2Cc1c[nH]c2ccccc12

>  <Energy>  (43) 
83.19044011310861

>  <Genealogy>  (43) 
c1ccc2c(c1)CCN2Cc1c[nH]c2ccccc12 (3D coordinates assigned)
c1ccc2c(c1)CCN2Cc1c[nH]c2ccccc12 (nonaromatic ring conformer: 83.19044011310861 kcal/mol)

>  <smiles>  (43) 
c1ccc2c(c1)CCN2Cc1c[nH]c2ccccc12

>  <score_type>  (43) 
oracle

>  <origin>  (43) 
autodockgpu

>  <m_score__min__energy>  (43) 
-6.7300000000000004

>  <m_primary>  (43) 
energy

>  <meeko>  (43) 
{"free_energy": -6.64, "intermolecular_energy": -7.24, "internal_energy": -0.8, "cluster_size": 19, "cluster_id": 1, "rank_in_cluster": 19}

>  <energy>  (43) 
-6.73

>  <cluster_rmsd>  (43) 
0.05

>  <rmsd>  (43) 
273.39

>  <cluster>  (43) 
1

$$$$
HDQBLRJEPZHFRL-UHFFFAOYNA-N
     RDKit          3D

 35 38  0  0  0  0  0  0  0  0999 V2000
  139.9320   73.7200  221.5840 C   0  0  0  0  0  0  0  0  0  0  0  0
  140.8830   72.7060  221.8130 C   0  0  0  0  0  0  0  0  0  0  0  0
  140.4990   71.4990  222.4190 C   0  0  0  0  0  0  0  0  0  0  0  0
  139.1550   71.3310  222.7770 C   0  0  0  0  0  0  0  0  0  0  0  0
  138.2350   72.3220  222.5600 C   0  0  0  0  0  0  0  0  0  0  0  0
  138.5940   73.5300  221.9620 C   0  0  0  0  0  0  0  0  0  0  0  0
  136.8910   71.9100  223.0500 C   0  0  0  0  0  0  0  0  0  0  0  0
  137.1310   70.4870  223.6070 C   0  0  0  0  0  0  0  0  0  0  0  0
  138.5540   70.2050  223.4000 N   0  0  0  0  0  0  0  0  0  0  0  0
  139.1920   68.9330  223.7410 C   0  0  0  0  0  0  0  0  0  0  0  0
  139.4520   68.8630  225.2150 C   0  0  0  0  0  0  0  0  0  0  0  0
  139.2870   67.7470  226.0300 C   0  0  0  0  0  0  0  0  0  0  0  0
  139.7020   68.0170  227.2890 N   0  0  0  0  0  0  0  0  0  0  0  0
  140.1390   69.2880  227.2720 C   0  0  0  0  0  0  0  0  0  0  0  0
  140.6830   70.0080  228.3360 C   0  0  0  0  0  0  0  0  0  0  0  0
  141.0980   71.3280  228.0910 C   0  0  0  0  0  0  0  0  0  0  0  0
  140.9640   71.8940  226.8030 C   0  0  0  0  0  0  0  0  0  0  0  0
  140.4120   71.1430  225.7490 C   0  0  0  0  0  0  0  0  0  0  0  0
  140.0070   69.8380  226.0220 C   0  0  0  0  0  0  0  0  0  0  0  0
  140.2391   74.6628  221.1078 H   0  0  0  0  0  0  0  0  0  0  0  0
  141.9307   72.8606  221.5158 H   0  0  0  0  0  0  0  0  0  0  0  0
  141.2358   70.7044  222.6081 H   0  0  0  0  0  0  0  0  0  0  0  0
  137.8445   74.3167  221.7905 H   0  0  0  0  0  0  0  0  0  0  0  0
  136.5361   72.5872  223.8409 H   0  0  0  0  0  0  0  0  0  0  0  0
  136.1211   71.9388  222.2649 H   0  0  0  0  0  0  0  0  0  0  0  0
  136.8863   70.4501  224.6788 H   0  0  0  0  0  0  0  0  0  0  0  0
  136.4962   69.7447  223.1010 H   0  0  0  0  0  0  0  0  0  0  0  0
  138.5297   68.1046  223.4492 H   0  0  0  0  0  0  0  0  0  0  0  0
  140.1488   68.8561  223.2038 H   0  0  0  0  0  0  0  0  0  0  0  0
  138.8771   66.7819  225.6975 H   0  0  0  0  0  0  0  0  0  0  0  0
  139.6980   67.3600  228.1020 H   0  0  0  0  0  0  0  0  0  0  0  0
  140.7838   69.5571  229.3342 H   0  0  0  0  0  0  0  0  0  0  0  0
  141.5303   71.9250  228.9076 H   0  0  0  0  0  0  0  0  0  0  0  0
  141.2933   72.9281  226.6234 H   0  0  0  0  0  0  0  0  0  0  0  0
  140.3037   71.5722  224.7420 H   0  0  0  0  0  0  0  0  0  0  0  0
  1  2  2  0
  2  3  1  0
  3  4  2  0
  4  5  1  0
  5  6  2  0
  5  7  1  0
  7  8  1  0
  8  9  1  0
  9 10  1  0
 10 11  1  0
 11 12  2  0
 12 13  1  0
 13 14  1  0
 14 15  2  0
 15 16  1  0
 16 17  2  0
 17 18  1  0
 18 19  2  0
  6  1  1  0
 19 11  1  0
  9  4  1  0
 19 14  1  0
  1 20  1  0
  2 21  1  0
  3 22  1  0
  6 23  1  0
  7 24  1  0
  7 25  1  0
  8 26  1  0
  8 27  1  0
 10 28  1  0
 10 29  1  0
 12 30  1  0
 13 31  1  0
 15 32  1  0
 16 33  1  0
 17 34  1  0
 18 35  1  0
M  END
>  <UniqueID>  (44) 
591

>  <SMILES>  (44) 
c1ccc2c(c1)CCN2Cc1c[nH]c2ccccc12

>  <Energy>  (44) 
83.19044011310861

>  <Genealogy>  (44) 
c1ccc2c(c1)CCN2Cc1c[nH]c2ccccc12 (3D coordinates assigned)
c1ccc2c(c1)CCN2Cc1c[nH]c2ccccc12 (nonaromatic ring conformer: 83.19044011310861 kcal/mol)

>  <smiles>  (44) 
c1ccc2c(c1)CCN2Cc1c[nH]c2ccccc12

>  <score_type>  (44) 
oracle

>  <origin>  (44) 
autodockgpu

>  <m_score__min__energy>  (44) 
-6.7300000000000004

>  <m_primary>  (44) 
energy

>  <meeko>  (44) 
{"free_energy": -6.72, "intermolecular_energy": -7.32, "internal_energy": -0.73, "cluster_size": 19, "cluster_id": 1, "rank_in_cluster": 14}

>  <energy>  (44) 
-6.73

>  <cluster_rmsd>  (44) 
0.04

>  <rmsd>  (44) 
273.4

>  <cluster>  (44) 
1

$$$$
HDQBLRJEPZHFRL-UHFFFAOYNA-N
     RDKit          3D

 35 38  0  0  0  0  0  0  0  0999 V2000
  139.9050   73.7280  221.5980 C   0  0  0  0  0  0  0  0  0  0  0  0
  140.8650   72.7230  221.8240 C   0  0  0  0  0  0  0  0  0  0  0  0
  140.4910   71.5090  222.4230 C   0  0  0  0  0  0  0  0  0  0  0  0
  139.1480   71.3270  222.7780 C   0  0  0  0  0  0  0  0  0  0  0  0
  138.2190   72.3100  222.5640 C   0  0  0  0  0  0  0  0  0  0  0  0
  138.5680   73.5250  221.9730 C   0  0  0  0  0  0  0  0  0  0  0  0
  136.8780   71.8830  223.0510 C   0  0  0  0  0  0  0  0  0  0  0  0
  137.1310   70.4600  223.6010 C   0  0  0  0  0  0  0  0  0  0  0  0
  138.5570   70.1920  223.3950 N   0  0  0  0  0  0  0  0  0  0  0  0
  139.2060   68.9250  223.7300 C   0  0  0  0  0  0  0  0  0  0  0  0
  139.4650   68.8500  225.2050 C   0  0  0  0  0  0  0  0  0  0  0  0
  139.3030   67.7300  226.0150 C   0  0  0  0  0  0  0  0  0  0  0  0
  139.7150   67.9960  227.2760 N   0  0  0  0  0  0  0  0  0  0  0  0
  140.1470   69.2690  227.2640 C   0  0  0  0  0  0  0  0  0  0  0  0
  140.6880   69.9870  228.3310 C   0  0  0  0  0  0  0  0  0  0  0  0
  141.0980   71.3100  228.0920 C   0  0  0  0  0  0  0  0  0  0  0  0
  140.9640   71.8800  226.8060 C   0  0  0  0  0  0  0  0  0  0  0  0
  140.4160   71.1310  225.7490 C   0  0  0  0  0  0  0  0  0  0  0  0
  140.0150   69.8230  226.0160 C   0  0  0  0  0  0  0  0  0  0  0  0
  140.2041   74.6755  221.1259 H   0  0  0  0  0  0  0  0  0  0  0  0
  141.9119   72.8894  221.5303 H   0  0  0  0  0  0  0  0  0  0  0  0
  141.2346   70.7201  222.6090 H   0  0  0  0  0  0  0  0  0  0  0  0
  137.8120   74.3062  221.8048 H   0  0  0  0  0  0  0  0  0  0  0  0
  136.5162   72.5530  223.8449 H   0  0  0  0  0  0  0  0  0  0  0  0
  136.1084   71.9086  222.2655 H   0  0  0  0  0  0  0  0  0  0  0  0
  136.8851   70.4155  224.6722 H   0  0  0  0  0  0  0  0  0  0  0  0
  136.5041   69.7144  223.0900 H   0  0  0  0  0  0  0  0  0  0  0  0
  138.5518   68.0920  223.4331 H   0  0  0  0  0  0  0  0  0  0  0  0
  140.1641   68.8596  223.1935 H   0  0  0  0  0  0  0  0  0  0  0  0
  138.8973   66.7648  225.6777 H   0  0  0  0  0  0  0  0  0  0  0  0
  139.7130   67.3370  228.0860 H   0  0  0  0  0  0  0  0  0  0  0  0
  140.7904   69.5322  229.3273 H   0  0  0  0  0  0  0  0  0  0  0  0
  141.5261   71.9057  228.9116 H   0  0  0  0  0  0  0  0  0  0  0  0
  141.2902   72.9157  226.6304 H   0  0  0  0  0  0  0  0  0  0  0  0
  140.3073   71.5638  224.7436 H   0  0  0  0  0  0  0  0  0  0  0  0
  1  2  2  0
  2  3  1  0
  3  4  2  0
  4  5  1  0
  5  6  2  0
  5  7  1  0
  7  8  1  0
  8  9  1  0
  9 10  1  0
 10 11  1  0
 11 12  2  0
 12 13  1  0
 13 14  1  0
 14 15  2  0
 15 16  1  0
 16 17  2  0
 17 18  1  0
 18 19  2  0
  6  1  1  0
 19 11  1  0
  9  4  1  0
 19 14  1  0
  1 20  1  0
  2 21  1  0
  3 22  1  0
  6 23  1  0
  7 24  1  0
  7 25  1  0
  8 26  1  0
  8 27  1  0
 10 28  1  0
 10 29  1  0
 12 30  1  0
 13 31  1  0
 15 32  1  0
 16 33  1  0
 17 34  1  0
 18 35  1  0
M  END
>  <UniqueID>  (45) 
591

>  <SMILES>  (45) 
c1ccc2c(c1)CCN2Cc1c[nH]c2ccccc12

>  <Energy>  (45) 
83.19044011310861

>  <Genealogy>  (45) 
c1ccc2c(c1)CCN2Cc1c[nH]c2ccccc12 (3D coordinates assigned)
c1ccc2c(c1)CCN2Cc1c[nH]c2ccccc12 (nonaromatic ring conformer: 83.19044011310861 kcal/mol)

>  <smiles>  (45) 
c1ccc2c(c1)CCN2Cc1c[nH]c2ccccc12

>  <score_type>  (45) 
oracle

>  <origin>  (45) 
autodockgpu

>  <m_score__min__energy>  (45) 
-6.7300000000000004

>  <m_primary>  (45) 
energy

>  <meeko>  (45) 
{"free_energy": -6.72, "intermolecular_energy": -7.32, "internal_energy": -0.73, "cluster_size": 19, "cluster_id": 1, "rank_in_cluster": 15}

>  <energy>  (45) 
-6.73

>  <cluster_rmsd>  (45) 
0.04

>  <rmsd>  (45) 
273.4

>  <cluster>  (45) 
1

$$$$
HDQBLRJEPZHFRL-UHFFFAOYNA-N
     RDKit          3D

 35 38  0  0  0  0  0  0  0  0999 V2000
  139.9270   73.6930  221.5850 C   0  0  0  0  0  0  0  0  0  0  0  0
  140.8820   72.6820  221.8130 C   0  0  0  0  0  0  0  0  0  0  0  0
  140.5020   71.4750  222.4230 C   0  0  0  0  0  0  0  0  0  0  0  0
  139.1590   71.3050  222.7860 C   0  0  0  0  0  0  0  0  0  0  0  0
  138.2360   72.2930  222.5690 C   0  0  0  0  0  0  0  0  0  0  0  0
  138.5910   73.5010  221.9670 C   0  0  0  0  0  0  0  0  0  0  0  0
  136.8950   71.8790  223.0650 C   0  0  0  0  0  0  0  0  0  0  0  0
  137.1410   70.4580  223.6240 C   0  0  0  0  0  0  0  0  0  0  0  0
  138.5640   70.1790  223.4140 N   0  0  0  0  0  0  0  0  0  0  0  0
  139.2060   68.9090  223.7550 C   0  0  0  0  0  0  0  0  0  0  0  0
  139.4690   68.8420  225.2290 C   0  0  0  0  0  0  0  0  0  0  0  0
  139.3170   67.7240  226.0450 C   0  0  0  0  0  0  0  0  0  0  0  0
  139.7300   67.9990  227.3030 N   0  0  0  0  0  0  0  0  0  0  0  0
  140.1530   69.2750  227.2860 C   0  0  0  0  0  0  0  0  0  0  0  0
  140.6900   70.0010  228.3480 C   0  0  0  0  0  0  0  0  0  0  0  0
  141.0900   71.3260  228.1030 C   0  0  0  0  0  0  0  0  0  0  0  0
  140.9480   71.8900  226.8150 C   0  0  0  0  0  0  0  0  0  0  0  0
  140.4040   71.1330  225.7620 C   0  0  0  0  0  0  0  0  0  0  0  0
  140.0130   69.8230  226.0350 C   0  0  0  0  0  0  0  0  0  0  0  0
  140.2302   74.6357  221.1060 H   0  0  0  0  0  0  0  0  0  0  0  0
  141.9285   72.8385  221.5123 H   0  0  0  0  0  0  0  0  0  0  0  0
  141.2409   70.6822  222.6113 H   0  0  0  0  0  0  0  0  0  0  0  0
  137.8394   74.2857  221.7957 H   0  0  0  0  0  0  0  0  0  0  0  0
  136.5415   72.5570  223.8558 H   0  0  0  0  0  0  0  0  0  0  0  0
  136.1218   71.9043  222.2830 H   0  0  0  0  0  0  0  0  0  0  0  0
  136.8993   70.4226  224.6965 H   0  0  0  0  0  0  0  0  0  0  0  0
  136.5071   69.7131  223.1208 H   0  0  0  0  0  0  0  0  0  0  0  0
  138.5453   68.0785  223.4656 H   0  0  0  0  0  0  0  0  0  0  0  0
  140.1618   68.8335  223.2158 H   0  0  0  0  0  0  0  0  0  0  0  0
  138.9175   66.7543  225.7133 H   0  0  0  0  0  0  0  0  0  0  0  0
  139.7350   67.3430  228.1160 H   0  0  0  0  0  0  0  0  0  0  0  0
  140.7973   69.5512  229.3461 H   0  0  0  0  0  0  0  0  0  0  0  0
  141.5163   71.9279  228.9191 H   0  0  0  0  0  0  0  0  0  0  0  0
  141.2650   72.9278  226.6349 H   0  0  0  0  0  0  0  0  0  0  0  0
  140.2906   71.5609  224.7550 H   0  0  0  0  0  0  0  0  0  0  0  0
  1  2  2  0
  2  3  1  0
  3  4  2  0
  4  5  1  0
  5  6  2  0
  5  7  1  0
  7  8  1  0
  8  9  1  0
  9 10  1  0
 10 11  1  0
 11 12  2  0
 12 13  1  0
 13 14  1  0
 14 15  2  0
 15 16  1  0
 16 17  2  0
 17 18  1  0
 18 19  2  0
  6  1  1  0
 19 11  1  0
  9  4  1  0
 19 14  1  0
  1 20  1  0
  2 21  1  0
  3 22  1  0
  6 23  1  0
  7 24  1  0
  7 25  1  0
  8 26  1  0
  8 27  1  0
 10 28  1  0
 10 29  1  0
 12 30  1  0
 13 31  1  0
 15 32  1  0
 16 33  1  0
 17 34  1  0
 18 35  1  0
M  END
>  <UniqueID>  (46) 
591

>  <SMILES>  (46) 
c1ccc2c(c1)CCN2Cc1c[nH]c2ccccc12

>  <Energy>  (46) 
83.19044011310861

>  <Genealogy>  (46) 
c1ccc2c(c1)CCN2Cc1c[nH]c2ccccc12 (3D coordinates assigned)
c1ccc2c(c1)CCN2Cc1c[nH]c2ccccc12 (nonaromatic ring conformer: 83.19044011310861 kcal/mol)

>  <smiles>  (46) 
c1ccc2c(c1)CCN2Cc1c[nH]c2ccccc12

>  <score_type>  (46) 
oracle

>  <origin>  (46) 
autodockgpu

>  <m_score__min__energy>  (46) 
-6.7300000000000004

>  <m_primary>  (46) 
energy

>  <meeko>  (46) 
{"free_energy": -6.72, "intermolecular_energy": -7.32, "internal_energy": -0.73, "cluster_size": 19, "cluster_id": 1, "rank_in_cluster": 9}

>  <energy>  (46) 
-6.73

>  <cluster_rmsd>  (46) 
0.04

>  <rmsd>  (46) 
273.4

>  <cluster>  (46) 
1

$$$$
HDQBLRJEPZHFRL-UHFFFAOYNA-N
     RDKit          3D

 35 38  0  0  0  0  0  0  0  0999 V2000
  139.9120   73.7430  221.5970 C   0  0  0  0  0  0  0  0  0  0  0  0
  140.8710   72.7370  221.8240 C   0  0  0  0  0  0  0  0  0  0  0  0
  140.4940   71.5230  222.4220 C   0  0  0  0  0  0  0  0  0  0  0  0
  139.1500   71.3420  222.7730 C   0  0  0  0  0  0  0  0  0  0  0  0
  138.2230   72.3260  222.5580 C   0  0  0  0  0  0  0  0  0  0  0  0
  138.5740   73.5400  221.9680 C   0  0  0  0  0  0  0  0  0  0  0  0
  136.8800   71.9000  223.0410 C   0  0  0  0  0  0  0  0  0  0  0  0
  137.1300   70.4760  223.5910 C   0  0  0  0  0  0  0  0  0  0  0  0
  138.5560   70.2070  223.3880 N   0  0  0  0  0  0  0  0  0  0  0  0
  139.2040   68.9390  223.7240 C   0  0  0  0  0  0  0  0  0  0  0  0
  139.4610   68.8640  225.1990 C   0  0  0  0  0  0  0  0  0  0  0  0
  139.3030   67.7420  226.0080 C   0  0  0  0  0  0  0  0  0  0  0  0
  139.7130   68.0090  227.2690 N   0  0  0  0  0  0  0  0  0  0  0  0
  140.1380   69.2840  227.2600 C   0  0  0  0  0  0  0  0  0  0  0  0
  140.6740   70.0040  228.3280 C   0  0  0  0  0  0  0  0  0  0  0  0
  141.0780   71.3290  228.0910 C   0  0  0  0  0  0  0  0  0  0  0  0
  140.9420   71.9000  226.8050 C   0  0  0  0  0  0  0  0  0  0  0  0
  140.3990   71.1500  225.7470 C   0  0  0  0  0  0  0  0  0  0  0  0
  140.0050   69.8390  226.0120 C   0  0  0  0  0  0  0  0  0  0  0  0
  140.2128   74.6911  221.1273 H   0  0  0  0  0  0  0  0  0  0  0  0
  141.9186   72.9023  221.5321 H   0  0  0  0  0  0  0  0  0  0  0  0
  141.2364   70.7334  222.6101 H   0  0  0  0  0  0  0  0  0  0  0  0
  137.8186   74.3212  221.7973 H   0  0  0  0  0  0  0  0  0  0  0  0
  136.5166   72.5698  223.8343 H   0  0  0  0  0  0  0  0  0  0  0  0
  136.1127   71.9268  222.2533 H   0  0  0  0  0  0  0  0  0  0  0  0
  136.8816   70.4311  224.6616 H   0  0  0  0  0  0  0  0  0  0  0  0
  136.5034   69.7313  223.0784 H   0  0  0  0  0  0  0  0  0  0  0  0
  138.5496   68.1064  223.4264 H   0  0  0  0  0  0  0  0  0  0  0  0
  140.1627   68.8729  223.1887 H   0  0  0  0  0  0  0  0  0  0  0  0
  138.9016   66.7754  225.6696 H   0  0  0  0  0  0  0  0  0  0  0  0
  139.7130   67.3490  228.0790 H   0  0  0  0  0  0  0  0  0  0  0  0
  140.7771   69.5490  229.3241 H   0  0  0  0  0  0  0  0  0  0  0  0
  141.5029   71.9257  228.9116 H   0  0  0  0  0  0  0  0  0  0  0  0
  141.2630   72.9376  226.6310 H   0  0  0  0  0  0  0  0  0  0  0  0
  140.2885   71.5837  224.7421 H   0  0  0  0  0  0  0  0  0  0  0  0
  1  2  2  0
  2  3  1  0
  3  4  2  0
  4  5  1  0
  5  6  2  0
  5  7  1  0
  7  8  1  0
  8  9  1  0
  9 10  1  0
 10 11  1  0
 11 12  2  0
 12 13  1  0
 13 14  1  0
 14 15  2  0
 15 16  1  0
 16 17  2  0
 17 18  1  0
 18 19  2  0
  6  1  1  0
 19 11  1  0
  9  4  1  0
 19 14  1  0
  1 20  1  0
  2 21  1  0
  3 22  1  0
  6 23  1  0
  7 24  1  0
  7 25  1  0
  8 26  1  0
  8 27  1  0
 10 28  1  0
 10 29  1  0
 12 30  1  0
 13 31  1  0
 15 32  1  0
 16 33  1  0
 17 34  1  0
 18 35  1  0
M  END
>  <UniqueID>  (47) 
591

>  <SMILES>  (47) 
c1ccc2c(c1)CCN2Cc1c[nH]c2ccccc12

>  <Energy>  (47) 
83.19044011310861

>  <Genealogy>  (47) 
c1ccc2c(c1)CCN2Cc1c[nH]c2ccccc12 (3D coordinates assigned)
c1ccc2c(c1)CCN2Cc1c[nH]c2ccccc12 (nonaromatic ring conformer: 83.19044011310861 kcal/mol)

>  <smiles>  (47) 
c1ccc2c(c1)CCN2Cc1c[nH]c2ccccc12

>  <score_type>  (47) 
oracle

>  <origin>  (47) 
autodockgpu

>  <m_score__min__energy>  (47) 
-6.7300000000000004

>  <m_primary>  (47) 
energy

>  <meeko>  (47) 
{"free_energy": -6.73, "intermolecular_energy": -7.32, "internal_energy": -0.73, "cluster_size": 19, "cluster_id": 1, "rank_in_cluster": 7}

>  <energy>  (47) 
-6.73

>  <cluster_rmsd>  (47) 
0.04

>  <rmsd>  (47) 
273.39

>  <cluster>  (47) 
1

$$$$
HDQBLRJEPZHFRL-UHFFFAOYNA-N
     RDKit          3D

 35 38  0  0  0  0  0  0  0  0999 V2000
  139.9370   73.6770  221.5950 C   0  0  0  0  0  0  0  0  0  0  0  0
  140.8910   72.6650  221.8160 C   0  0  0  0  0  0  0  0  0  0  0  0
  140.5140   71.4560  222.4230 C   0  0  0  0  0  0  0  0  0  0  0  0
  139.1730   71.2850  222.7900 C   0  0  0  0  0  0  0  0  0  0  0  0
  138.2490   72.2740  222.5820 C   0  0  0  0  0  0  0  0  0  0  0  0
  138.6020   73.4840  221.9830 C   0  0  0  0  0  0  0  0  0  0  0  0
  136.9100   71.8590  223.0810 C   0  0  0  0  0  0  0  0  0  0  0  0
  137.1570   70.4360  223.6340 C   0  0  0  0  0  0  0  0  0  0  0  0
  138.5790   70.1570  223.4160 N   0  0  0  0  0  0  0  0  0  0  0  0
  139.2220   68.8860  223.7500 C   0  0  0  0  0  0  0  0  0  0  0  0
  139.5030   68.8180  225.2200 C   0  0  0  0  0  0  0  0  0  0  0  0
  139.3910   67.6920  226.0320 C   0  0  0  0  0  0  0  0  0  0  0  0
  139.8120   67.9720  227.2870 N   0  0  0  0  0  0  0  0  0  0  0  0
  140.1980   69.2590  227.2710 C   0  0  0  0  0  0  0  0  0  0  0  0
  140.7270   69.9940  228.3320 C   0  0  0  0  0  0  0  0  0  0  0  0
  141.0880   71.3310  228.0890 C   0  0  0  0  0  0  0  0  0  0  0  0
  140.9160   71.8980  226.8060 C   0  0  0  0  0  0  0  0  0  0  0  0
  140.3810   71.1320  225.7560 C   0  0  0  0  0  0  0  0  0  0  0  0
  140.0300   69.8100  226.0260 C   0  0  0  0  0  0  0  0  0  0  0  0
  140.2387   74.6208  221.1173 H   0  0  0  0  0  0  0  0  0  0  0  0
  141.9363   72.8222  221.5118 H   0  0  0  0  0  0  0  0  0  0  0  0
  141.2537   70.6627  222.6058 H   0  0  0  0  0  0  0  0  0  0  0  0
  137.8500   74.2698  221.8184 H   0  0  0  0  0  0  0  0  0  0  0  0
  136.5596   72.5344  223.8754 H   0  0  0  0  0  0  0  0  0  0  0  0
  136.1342   71.8875  222.3017 H   0  0  0  0  0  0  0  0  0  0  0  0
  136.9204   70.3971  224.7076 H   0  0  0  0  0  0  0  0  0  0  0  0
  136.5199   69.6932  223.1317 H   0  0  0  0  0  0  0  0  0  0  0  0
  138.5559   68.0570  223.4688 H   0  0  0  0  0  0  0  0  0  0  0  0
  140.1712   68.8088  223.1995 H   0  0  0  0  0  0  0  0  0  0  0  0
  139.0137   66.7135  225.7000 H   0  0  0  0  0  0  0  0  0  0  0  0
  139.8430   67.3120  228.0960 H   0  0  0  0  0  0  0  0  0  0  0  0
  140.8575   69.5423  229.3265 H   0  0  0  0  0  0  0  0  0  0  0  0
  141.5073   71.9400  228.9034 H   0  0  0  0  0  0  0  0  0  0  0  0
  141.2025   72.9450  226.6281 H   0  0  0  0  0  0  0  0  0  0  0  0
  140.2436   71.5620  224.7529 H   0  0  0  0  0  0  0  0  0  0  0  0
  1  2  2  0
  2  3  1  0
  3  4  2  0
  4  5  1  0
  5  6  2  0
  5  7  1  0
  7  8  1  0
  8  9  1  0
  9 10  1  0
 10 11  1  0
 11 12  2  0
 12 13  1  0
 13 14  1  0
 14 15  2  0
 15 16  1  0
 16 17  2  0
 17 18  1  0
 18 19  2  0
  6  1  1  0
 19 11  1  0
  9  4  1  0
 19 14  1  0
  1 20  1  0
  2 21  1  0
  3 22  1  0
  6 23  1  0
  7 24  1  0
  7 25  1  0
  8 26  1  0
  8 27  1  0
 10 28  1  0
 10 29  1  0
 12 30  1  0
 13 31  1  0
 15 32  1  0
 16 33  1  0
 17 34  1  0
 18 35  1  0
M  END
>  <UniqueID>  (48) 
591

>  <SMILES>  (48) 
c1ccc2c(c1)CCN2Cc1c[nH]c2ccccc12

>  <Energy>  (48) 
83.19044011310861

>  <Genealogy>  (48) 
c1ccc2c(c1)CCN2Cc1c[nH]c2ccccc12 (3D coordinates assigned)
c1ccc2c(c1)CCN2Cc1c[nH]c2ccccc12 (nonaromatic ring conformer: 83.19044011310861 kcal/mol)

>  <smiles>  (48) 
c1ccc2c(c1)CCN2Cc1c[nH]c2ccccc12

>  <score_type>  (48) 
oracle

>  <origin>  (48) 
autodockgpu

>  <m_score__min__energy>  (48) 
-6.7300000000000004

>  <m_primary>  (48) 
energy

>  <meeko>  (48) 
{"free_energy": -6.72, "intermolecular_energy": -7.32, "internal_energy": -0.73, "cluster_size": 19, "cluster_id": 1, "rank_in_cluster": 17}

>  <energy>  (48) 
-6.73

>  <cluster_rmsd>  (48) 
0.05

>  <rmsd>  (48) 
273.39

>  <cluster>  (48) 
1

$$$$
HDQBLRJEPZHFRL-UHFFFAOYNA-N
     RDKit          3D

 35 38  0  0  0  0  0  0  0  0999 V2000
  139.9190   73.6940  221.5730 C   0  0  0  0  0  0  0  0  0  0  0  0
  140.8740   72.6860  221.8010 C   0  0  0  0  0  0  0  0  0  0  0  0
  140.4960   71.4760  222.4070 C   0  0  0  0  0  0  0  0  0  0  0  0
  139.1530   71.3020  222.7650 C   0  0  0  0  0  0  0  0  0  0  0  0
  138.2280   72.2880  222.5480 C   0  0  0  0  0  0  0  0  0  0  0  0
  138.5810   73.4980  221.9510 C   0  0  0  0  0  0  0  0  0  0  0  0
  136.8860   71.8700  223.0380 C   0  0  0  0  0  0  0  0  0  0  0  0
  137.1330   70.4480  223.5950 C   0  0  0  0  0  0  0  0  0  0  0  0
  138.5570   70.1730  223.3880 N   0  0  0  0  0  0  0  0  0  0  0  0
  139.2020   68.9040  223.7280 C   0  0  0  0  0  0  0  0  0  0  0  0
  139.4670   68.8370  225.2010 C   0  0  0  0  0  0  0  0  0  0  0  0
  139.3200   67.7170  226.0160 C   0  0  0  0  0  0  0  0  0  0  0  0
  139.7350   67.9920  227.2740 N   0  0  0  0  0  0  0  0  0  0  0  0
  140.1520   69.2700  227.2570 C   0  0  0  0  0  0  0  0  0  0  0  0
  140.6880   69.9970  228.3200 C   0  0  0  0  0  0  0  0  0  0  0  0
  141.0830   71.3240  228.0750 C   0  0  0  0  0  0  0  0  0  0  0  0
  140.9370   71.8890  226.7870 C   0  0  0  0  0  0  0  0  0  0  0  0
  140.3940   71.1310  225.7350 C   0  0  0  0  0  0  0  0  0  0  0  0
  140.0090   69.8190  226.0080 C   0  0  0  0  0  0  0  0  0  0  0  0
  140.2216   74.6385  221.0972 H   0  0  0  0  0  0  0  0  0  0  0  0
  141.9209   72.8460  221.5035 H   0  0  0  0  0  0  0  0  0  0  0  0
  141.2365   70.6848  222.5957 H   0  0  0  0  0  0  0  0  0  0  0  0
  137.8279   74.2814  221.7801 H   0  0  0  0  0  0  0  0  0  0  0  0
  136.5280   72.5456  223.8289 H   0  0  0  0  0  0  0  0  0  0  0  0
  136.1158   71.8953  222.2531 H   0  0  0  0  0  0  0  0  0  0  0  0
  136.8886   70.4099  224.6668 H   0  0  0  0  0  0  0  0  0  0  0  0
  136.5018   69.7026  223.0890 H   0  0  0  0  0  0  0  0  0  0  0  0
  138.5425   68.0723  223.4392 H   0  0  0  0  0  0  0  0  0  0  0  0
  140.1573   68.8307  223.1876 H   0  0  0  0  0  0  0  0  0  0  0  0
  138.9228   66.7465  225.6839 H   0  0  0  0  0  0  0  0  0  0  0  0
  139.7430   67.3360  228.0860 H   0  0  0  0  0  0  0  0  0  0  0  0
  140.7981   69.5467  229.3176 H   0  0  0  0  0  0  0  0  0  0  0  0
  141.5085   71.9268  228.8909 H   0  0  0  0  0  0  0  0  0  0  0  0
  141.2502   72.9280  226.6071 H   0  0  0  0  0  0  0  0  0  0  0  0
  140.2766   71.5592  224.7286 H   0  0  0  0  0  0  0  0  0  0  0  0
  1  2  2  0
  2  3  1  0
  3  4  2  0
  4  5  1  0
  5  6  2  0
  5  7  1  0
  7  8  1  0
  8  9  1  0
  9 10  1  0
 10 11  1  0
 11 12  2  0
 12 13  1  0
 13 14  1  0
 14 15  2  0
 15 16  1  0
 16 17  2  0
 17 18  1  0
 18 19  2  0
  6  1  1  0
 19 11  1  0
  9  4  1  0
 19 14  1  0
  1 20  1  0
  2 21  1  0
  3 22  1  0
  6 23  1  0
  7 24  1  0
  7 25  1  0
  8 26  1  0
  8 27  1  0
 10 28  1  0
 10 29  1  0
 12 30  1  0
 13 31  1  0
 15 32  1  0
 16 33  1  0
 17 34  1  0
 18 35  1  0
M  END
>  <UniqueID>  (49) 
591

>  <SMILES>  (49) 
c1ccc2c(c1)CCN2Cc1c[nH]c2ccccc12

>  <Energy>  (49) 
83.19044011310861

>  <Genealogy>  (49) 
c1ccc2c(c1)CCN2Cc1c[nH]c2ccccc12 (3D coordinates assigned)
c1ccc2c(c1)CCN2Cc1c[nH]c2ccccc12 (nonaromatic ring conformer: 83.19044011310861 kcal/mol)

>  <smiles>  (49) 
c1ccc2c(c1)CCN2Cc1c[nH]c2ccccc12

>  <score_type>  (49) 
oracle

>  <origin>  (49) 
autodockgpu

>  <m_score__min__energy>  (49) 
-6.7300000000000004

>  <m_primary>  (49) 
energy

>  <meeko>  (49) 
{"free_energy": -6.72, "intermolecular_energy": -7.32, "internal_energy": -0.73, "cluster_size": 19, "cluster_id": 1, "rank_in_cluster": 13}

>  <energy>  (49) 
-6.72

>  <cluster_rmsd>  (49) 
0.03

>  <rmsd>  (49) 
273.4

>  <cluster>  (49) 
1

$$$$
HDQBLRJEPZHFRL-UHFFFAOYNA-N
     RDKit          3D

 35 38  0  0  0  0  0  0  0  0999 V2000
  139.9490   73.7260  221.5750 C   0  0  0  0  0  0  0  0  0  0  0  0
  140.9000   72.7150  221.8130 C   0  0  0  0  0  0  0  0  0  0  0  0
  140.5140   71.5070  222.4180 C   0  0  0  0  0  0  0  0  0  0  0  0
  139.1670   71.3370  222.7640 C   0  0  0  0  0  0  0  0  0  0  0  0
  138.2460   72.3250  222.5390 C   0  0  0  0  0  0  0  0  0  0  0  0
  138.6070   73.5330  221.9420 C   0  0  0  0  0  0  0  0  0  0  0  0
  136.8990   71.9110  223.0180 C   0  0  0  0  0  0  0  0  0  0  0  0
  137.1380   70.4890  223.5790 C   0  0  0  0  0  0  0  0  0  0  0  0
  138.5640   70.2100  223.3840 N   0  0  0  0  0  0  0  0  0  0  0  0
  139.2020   68.9400  223.7320 C   0  0  0  0  0  0  0  0  0  0  0  0
  139.4470   68.8710  225.2090 C   0  0  0  0  0  0  0  0  0  0  0  0
  139.2680   67.7570  226.0240 C   0  0  0  0  0  0  0  0  0  0  0  0
  139.6720   68.0260  227.2860 N   0  0  0  0  0  0  0  0  0  0  0  0
  140.1150   69.2950  227.2720 C   0  0  0  0  0  0  0  0  0  0  0  0
  140.6520   70.0140  228.3400 C   0  0  0  0  0  0  0  0  0  0  0  0
  141.0760   71.3330  228.0970 C   0  0  0  0  0  0  0  0  0  0  0  0
  140.9570   71.8970  226.8070 C   0  0  0  0  0  0  0  0  0  0  0  0
  140.4130   71.1480  225.7490 C   0  0  0  0  0  0  0  0  0  0  0  0
  139.9980   69.8440  226.0200 C   0  0  0  0  0  0  0  0  0  0  0  0
  140.2579   74.6691  221.1005 H   0  0  0  0  0  0  0  0  0  0  0  0
  141.9497   72.8717  221.5240 H   0  0  0  0  0  0  0  0  0  0  0  0
  141.2510   70.7145  222.6151 H   0  0  0  0  0  0  0  0  0  0  0  0
  137.8570   74.3174  221.7626 H   0  0  0  0  0  0  0  0  0  0  0  0
  136.5359   72.5885  223.8049 H   0  0  0  0  0  0  0  0  0  0  0  0
  136.1355   71.9372  222.2266 H   0  0  0  0  0  0  0  0  0  0  0  0
  136.8846   70.4530  224.6488 H   0  0  0  0  0  0  0  0  0  0  0  0
  136.5092   69.7445  223.0688 H   0  0  0  0  0  0  0  0  0  0  0  0
  138.5451   68.1097  223.4335 H   0  0  0  0  0  0  0  0  0  0  0  0
  140.1646   68.8658  223.2048 H   0  0  0  0  0  0  0  0  0  0  0  0
  138.8560   66.7937  225.6887 H   0  0  0  0  0  0  0  0  0  0  0  0
  139.6570   67.3710  228.1000 H   0  0  0  0  0  0  0  0  0  0  0  0
  140.7410   69.5641  229.3398 H   0  0  0  0  0  0  0  0  0  0  0  0
  141.5031   71.9294  228.9167 H   0  0  0  0  0  0  0  0  0  0  0  0
  141.2924   72.9294  226.6293 H   0  0  0  0  0  0  0  0  0  0  0  0
  140.3177   71.5762  224.7403 H   0  0  0  0  0  0  0  0  0  0  0  0
  1  2  2  0
  2  3  1  0
  3  4  2  0
  4  5  1  0
  5  6  2  0
  5  7  1  0
  7  8  1  0
  8  9  1  0
  9 10  1  0
 10 11  1  0
 11 12  2  0
 12 13  1  0
 13 14  1  0
 14 15  2  0
 15 16  1  0
 16 17  2  0
 17 18  1  0
 18 19  2  0
  6  1  1  0
 19 11  1  0
  9  4  1  0
 19 14  1  0
  1 20  1  0
  2 21  1  0
  3 22  1  0
  6 23  1  0
  7 24  1  0
  7 25  1  0
  8 26  1  0
  8 27  1  0
 10 28  1  0
 10 29  1  0
 12 30  1  0
 13 31  1  0
 15 32  1  0
 16 33  1  0
 17 34  1  0
 18 35  1  0
M  END
>  <UniqueID>  (50) 
591

>  <SMILES>  (50) 
c1ccc2c(c1)CCN2Cc1c[nH]c2ccccc12

>  <Energy>  (50) 
83.19044011310861

>  <Genealogy>  (50) 
c1ccc2c(c1)CCN2Cc1c[nH]c2ccccc12 (3D coordinates assigned)
c1ccc2c(c1)CCN2Cc1c[nH]c2ccccc12 (nonaromatic ring conformer: 83.19044011310861 kcal/mol)

>  <smiles>  (50) 
c1ccc2c(c1)CCN2Cc1c[nH]c2ccccc12

>  <score_type>  (50) 
oracle

>  <origin>  (50) 
autodockgpu

>  <m_score__min__energy>  (50) 
-6.7300000000000004

>  <m_primary>  (50) 
energy

>  <meeko>  (50) 
{"free_energy": -6.72, "intermolecular_energy": -7.32, "internal_energy": -0.73, "cluster_size": 19, "cluster_id": 1, "rank_in_cluster": 11}

>  <energy>  (50) 
-6.72

>  <cluster_rmsd>  (50) 
0.08

>  <rmsd>  (50) 
273.37

>  <cluster>  (50) 
1

$$$$
HDQBLRJEPZHFRL-UHFFFAOYNA-N
     RDKit          3D

 35 38  0  0  0  0  0  0  0  0999 V2000
  139.9110   73.7330  221.5940 C   0  0  0  0  0  0  0  0  0  0  0  0
  140.8700   72.7270  221.8250 C   0  0  0  0  0  0  0  0  0  0  0  0
  140.4920   71.5140  222.4230 C   0  0  0  0  0  0  0  0  0  0  0  0
  139.1470   71.3330  222.7710 C   0  0  0  0  0  0  0  0  0  0  0  0
  138.2200   72.3160  222.5530 C   0  0  0  0  0  0  0  0  0  0  0  0
  138.5720   73.5300  221.9630 C   0  0  0  0  0  0  0  0  0  0  0  0
  136.8770   71.8910  223.0330 C   0  0  0  0  0  0  0  0  0  0  0  0
  137.1260   70.4680  223.5850 C   0  0  0  0  0  0  0  0  0  0  0  0
  138.5530   70.1990  223.3860 N   0  0  0  0  0  0  0  0  0  0  0  0
  139.2000   68.9310  223.7250 C   0  0  0  0  0  0  0  0  0  0  0  0
  139.4460   68.8540  225.2020 C   0  0  0  0  0  0  0  0  0  0  0  0
  139.2630   67.7370  226.0120 C   0  0  0  0  0  0  0  0  0  0  0  0
  139.6690   68.0000  227.2750 N   0  0  0  0  0  0  0  0  0  0  0  0
  140.1180   69.2670  227.2660 C   0  0  0  0  0  0  0  0  0  0  0  0
  140.6590   69.9780  228.3370 C   0  0  0  0  0  0  0  0  0  0  0  0
  141.0890   71.2960  228.0990 C   0  0  0  0  0  0  0  0  0  0  0  0
  140.9720   71.8670  226.8120 C   0  0  0  0  0  0  0  0  0  0  0  0
  140.4220   71.1240  225.7510 C   0  0  0  0  0  0  0  0  0  0  0  0
  140.0020   69.8210  226.0160 C   0  0  0  0  0  0  0  0  0  0  0  0
  140.2125   74.6803  221.1231 H   0  0  0  0  0  0  0  0  0  0  0  0
  141.9184   72.8923  221.5359 H   0  0  0  0  0  0  0  0  0  0  0  0
  141.2342   70.7248  222.6137 H   0  0  0  0  0  0  0  0  0  0  0  0
  137.8169   74.3111  221.7907 H   0  0  0  0  0  0  0  0  0  0  0  0
  136.5118   72.5617  223.8247 H   0  0  0  0  0  0  0  0  0  0  0  0
  136.1113   71.9170  222.2436 H   0  0  0  0  0  0  0  0  0  0  0  0
  136.8748   70.4242  224.6550 H   0  0  0  0  0  0  0  0  0  0  0  0
  136.5010   69.7226  223.0715 H   0  0  0  0  0  0  0  0  0  0  0  0
  138.5488   68.0981  223.4212 H   0  0  0  0  0  0  0  0  0  0  0  0
  140.1628   68.8668  223.1969 H   0  0  0  0  0  0  0  0  0  0  0  0
  138.8472   66.7767  225.6730 H   0  0  0  0  0  0  0  0  0  0  0  0
  139.6520   67.3410  228.0860 H   0  0  0  0  0  0  0  0  0  0  0  0
  140.7465   69.5232  229.3347 H   0  0  0  0  0  0  0  0  0  0  0  0
  141.5196   71.8865  228.9211 H   0  0  0  0  0  0  0  0  0  0  0  0
  141.3128   72.8983  226.6383 H   0  0  0  0  0  0  0  0  0  0  0  0
  140.3264   71.5574  224.7445 H   0  0  0  0  0  0  0  0  0  0  0  0
  1  2  2  0
  2  3  1  0
  3  4  2  0
  4  5  1  0
  5  6  2  0
  5  7  1  0
  7  8  1  0
  8  9  1  0
  9 10  1  0
 10 11  1  0
 11 12  2  0
 12 13  1  0
 13 14  1  0
 14 15  2  0
 15 16  1  0
 16 17  2  0
 17 18  1  0
 18 19  2  0
  6  1  1  0
 19 11  1  0
  9  4  1  0
 19 14  1  0
  1 20  1  0
  2 21  1  0
  3 22  1  0
  6 23  1  0
  7 24  1  0
  7 25  1  0
  8 26  1  0
  8 27  1  0
 10 28  1  0
 10 29  1  0
 12 30  1  0
 13 31  1  0
 15 32  1  0
 16 33  1  0
 17 34  1  0
 18 35  1  0
M  END
>  <UniqueID>  (51) 
591

>  <SMILES>  (51) 
c1ccc2c(c1)CCN2Cc1c[nH]c2ccccc12

>  <Energy>  (51) 
83.19044011310861

>  <Genealogy>  (51) 
c1ccc2c(c1)CCN2Cc1c[nH]c2ccccc12 (3D coordinates assigned)
c1ccc2c(c1)CCN2Cc1c[nH]c2ccccc12 (nonaromatic ring conformer: 83.19044011310861 kcal/mol)

>  <smiles>  (51) 
c1ccc2c(c1)CCN2Cc1c[nH]c2ccccc12

>  <score_type>  (51) 
oracle

>  <origin>  (51) 
autodockgpu

>  <m_score__min__energy>  (51) 
-6.7300000000000004

>  <m_primary>  (51) 
energy

>  <meeko>  (51) 
{"free_energy": -6.72, "intermolecular_energy": -7.32, "internal_energy": -0.73, "cluster_size": 19, "cluster_id": 1, "rank_in_cluster": 16}

>  <energy>  (51) 
-6.72

>  <cluster_rmsd>  (51) 
0.04

>  <rmsd>  (51) 
273.39

>  <cluster>  (51) 
1

$$$$
HDQBLRJEPZHFRL-UHFFFAOYNA-N
     RDKit          3D

 35 38  0  0  0  0  0  0  0  0999 V2000
  139.9530   73.6560  221.5940 C   0  0  0  0  0  0  0  0  0  0  0  0
  140.9010   72.6390  221.8220 C   0  0  0  0  0  0  0  0  0  0  0  0
  140.5140   71.4340  222.4320 C   0  0  0  0  0  0  0  0  0  0  0  0
  139.1700   71.2730  222.7940 C   0  0  0  0  0  0  0  0  0  0  0  0
  138.2530   72.2660  222.5780 C   0  0  0  0  0  0  0  0  0  0  0  0
  138.6150   73.4720  221.9770 C   0  0  0  0  0  0  0  0  0  0  0  0
  136.9090   71.8610  223.0740 C   0  0  0  0  0  0  0  0  0  0  0  0
  137.1460   70.4380  223.6330 C   0  0  0  0  0  0  0  0  0  0  0  0
  138.5670   70.1500  223.4220 N   0  0  0  0  0  0  0  0  0  0  0  0
  139.2010   68.8760  223.7630 C   0  0  0  0  0  0  0  0  0  0  0  0
  139.4900   68.8190  225.2330 C   0  0  0  0  0  0  0  0  0  0  0  0
  139.3780   67.7000  226.0530 C   0  0  0  0  0  0  0  0  0  0  0  0
  139.8050   67.9870  227.3040 N   0  0  0  0  0  0  0  0  0  0  0  0
  140.1970   69.2720  227.2770 C   0  0  0  0  0  0  0  0  0  0  0  0
  140.7340   70.0140  228.3290 C   0  0  0  0  0  0  0  0  0  0  0  0
  141.0980   71.3470  228.0750 C   0  0  0  0  0  0  0  0  0  0  0  0
  140.9220   71.9050  226.7880 C   0  0  0  0  0  0  0  0  0  0  0  0
  140.3780   71.1330  225.7460 C   0  0  0  0  0  0  0  0  0  0  0  0
  140.0240   69.8140  226.0280 C   0  0  0  0  0  0  0  0  0  0  0  0
  140.2620   74.5966  221.1146 H   0  0  0  0  0  0  0  0  0  0  0  0
  141.9484   72.7890  221.5212 H   0  0  0  0  0  0  0  0  0  0  0  0
  141.2479   70.6367  222.6207 H   0  0  0  0  0  0  0  0  0  0  0  0
  137.8682   74.2615  221.8070 H   0  0  0  0  0  0  0  0  0  0  0  0
  136.5600   72.5413  223.8648 H   0  0  0  0  0  0  0  0  0  0  0  0
  136.1359   71.8916  222.2921 H   0  0  0  0  0  0  0  0  0  0  0  0
  136.9048   70.4042  224.7057 H   0  0  0  0  0  0  0  0  0  0  0  0
  136.5069   69.6972  223.1303 H   0  0  0  0  0  0  0  0  0  0  0  0
  138.5260   68.0504  223.4930 H   0  0  0  0  0  0  0  0  0  0  0  0
  140.1461   68.7852  223.2075 H   0  0  0  0  0  0  0  0  0  0  0  0
  138.9962   66.7205  225.7294 H   0  0  0  0  0  0  0  0  0  0  0  0
  139.8390   67.3330  228.1180 H   0  0  0  0  0  0  0  0  0  0  0  0
  140.8683   69.5694  229.3262 H   0  0  0  0  0  0  0  0  0  0  0  0
  141.5229   71.9607  228.8830 H   0  0  0  0  0  0  0  0  0  0  0  0
  141.2123   72.9493  226.6005 H   0  0  0  0  0  0  0  0  0  0  0  0
  140.2363   71.5561  224.7406 H   0  0  0  0  0  0  0  0  0  0  0  0
  1  2  2  0
  2  3  1  0
  3  4  2  0
  4  5  1  0
  5  6  2  0
  5  7  1  0
  7  8  1  0
  8  9  1  0
  9 10  1  0
 10 11  1  0
 11 12  2  0
 12 13  1  0
 13 14  1  0
 14 15  2  0
 15 16  1  0
 16 17  2  0
 17 18  1  0
 18 19  2  0
  6  1  1  0
 19 11  1  0
  9  4  1  0
 19 14  1  0
  1 20  1  0
  2 21  1  0
  3 22  1  0
  6 23  1  0
  7 24  1  0
  7 25  1  0
  8 26  1  0
  8 27  1  0
 10 28  1  0
 10 29  1  0
 12 30  1  0
 13 31  1  0
 15 32  1  0
 16 33  1  0
 17 34  1  0
 18 35  1  0
M  END
>  <UniqueID>  (52) 
591

>  <SMILES>  (52) 
c1ccc2c(c1)CCN2Cc1c[nH]c2ccccc12

>  <Energy>  (52) 
83.19044011310861

>  <Genealogy>  (52) 
c1ccc2c(c1)CCN2Cc1c[nH]c2ccccc12 (3D coordinates assigned)
c1ccc2c(c1)CCN2Cc1c[nH]c2ccccc12 (nonaromatic ring conformer: 83.19044011310861 kcal/mol)

>  <smiles>  (52) 
c1ccc2c(c1)CCN2Cc1c[nH]c2ccccc12

>  <score_type>  (52) 
oracle

>  <origin>  (52) 
autodockgpu

>  <m_score__min__energy>  (52) 
-6.7300000000000004

>  <m_primary>  (52) 
energy

>  <meeko>  (52) 
{"free_energy": -6.73, "intermolecular_energy": -7.33, "internal_energy": -0.72, "cluster_size": 19, "cluster_id": 1, "rank_in_cluster": 2}

>  <energy>  (52) 
-6.72

>  <cluster_rmsd>  (52) 
0.04

>  <rmsd>  (52) 
273.39

>  <cluster>  (52) 
1

$$$$
HDQBLRJEPZHFRL-UHFFFAOYNA-N
     RDKit          3D

 35 38  0  0  0  0  0  0  0  0999 V2000
  134.6450   71.2500  224.9880 C   0  0  0  0  0  0  0  0  0  0  0  0
  135.0960   69.9900  225.4260 C   0  0  0  0  0  0  0  0  0  0  0  0
  136.3270   69.4830  224.9760 C   0  0  0  0  0  0  0  0  0  0  0  0
  137.0870   70.2640  224.0950 C   0  0  0  0  0  0  0  0  0  0  0  0
  136.6410   71.4860  223.6660 C   0  0  0  0  0  0  0  0  0  0  0  0
  135.4210   72.0080  224.0980 C   0  0  0  0  0  0  0  0  0  0  0  0
  137.6130   72.1000  222.7210 C   0  0  0  0  0  0  0  0  0  0  0  0
  138.7470   71.0510  222.6390 C   0  0  0  0  0  0  0  0  0  0  0  0
  138.3450   69.9480  223.5160 N   0  0  0  0  0  0  0  0  0  0  0  0
  139.1670   68.7650  223.7690 C   0  0  0  0  0  0  0  0  0  0  0  0
  139.5490   68.7000  225.2170 C   0  0  0  0  0  0  0  0  0  0  0  0
  139.6010   67.5550  226.0070 C   0  0  0  0  0  0  0  0  0  0  0  0
  140.0730   67.8530  227.2390 N   0  0  0  0  0  0  0  0  0  0  0  0
  140.3320   69.1720  227.2290 C   0  0  0  0  0  0  0  0  0  0  0  0
  140.8560   69.9370  228.2710 C   0  0  0  0  0  0  0  0  0  0  0  0
  141.0680   71.3070  228.0370 C   0  0  0  0  0  0  0  0  0  0  0  0
  140.7590   71.8760  226.7810 C   0  0  0  0  0  0  0  0  0  0  0  0
  140.2320   71.0790  225.7490 C   0  0  0  0  0  0  0  0  0  0  0  0
  140.0290   69.7250  226.0100 C   0  0  0  0  0  0  0  0  0  0  0  0
  133.6809   71.6414  225.3448 H   0  0  0  0  0  0  0  0  0  0  0  0
  134.4824   69.4003  226.1230 H   0  0  0  0  0  0  0  0  0  0  0  0
  136.6852   68.4971  225.3072 H   0  0  0  0  0  0  0  0  0  0  0  0
  135.0753   72.9920  223.7485 H   0  0  0  0  0  0  0  0  0  0  0  0
  137.1542   72.2612  221.7343 H   0  0  0  0  0  0  0  0  0  0  0  0
  137.9660   73.0883  223.0507 H   0  0  0  0  0  0  0  0  0  0  0  0
  138.8625   70.6939  221.6050 H   0  0  0  0  0  0  0  0  0  0  0  0
  139.7125   71.4782  222.9477 H   0  0  0  0  0  0  0  0  0  0  0  0
  138.5969   67.8627  223.5028 H   0  0  0  0  0  0  0  0  0  0  0  0
  140.0805   68.8256  223.1592 H   0  0  0  0  0  0  0  0  0  0  0  0
  139.3007   66.5499  225.6761 H   0  0  0  0  0  0  0  0  0  0  0  0
  140.2220   67.1860  228.0290 H   0  0  0  0  0  0  0  0  0  0  0  0
  141.0955   69.4832  229.2440 H   0  0  0  0  0  0  0  0  0  0  0  0
  141.4774   71.9406  228.8376 H   0  0  0  0  0  0  0  0  0  0  0  0
  140.9317   72.9487  226.6094 H   0  0  0  0  0  0  0  0  0  0  0  0
  139.9878   71.5105  224.7671 H   0  0  0  0  0  0  0  0  0  0  0  0
  1  2  2  0
  2  3  1  0
  3  4  2  0
  4  5  1  0
  5  6  2  0
  5  7  1  0
  7  8  1  0
  8  9  1  0
  9 10  1  0
 10 11  1  0
 11 12  2  0
 12 13  1  0
 13 14  1  0
 14 15  2  0
 15 16  1  0
 16 17  2  0
 17 18  1  0
 18 19  2  0
  6  1  1  0
 19 11  1  0
  9  4  1  0
 19 14  1  0
  1 20  1  0
  2 21  1  0
  3 22  1  0
  6 23  1  0
  7 24  1  0
  7 25  1  0
  8 26  1  0
  8 27  1  0
 10 28  1  0
 10 29  1  0
 12 30  1  0
 13 31  1  0
 15 32  1  0
 16 33  1  0
 17 34  1  0
 18 35  1  0
M  END
>  <UniqueID>  (53) 
591

>  <SMILES>  (53) 
c1ccc2c(c1)CCN2Cc1c[nH]c2ccccc12

>  <Energy>  (53) 
83.19044011310861

>  <Genealogy>  (53) 
c1ccc2c(c1)CCN2Cc1c[nH]c2ccccc12 (3D coordinates assigned)
c1ccc2c(c1)CCN2Cc1c[nH]c2ccccc12 (nonaromatic ring conformer: 83.19044011310861 kcal/mol)

>  <smiles>  (53) 
c1ccc2c(c1)CCN2Cc1c[nH]c2ccccc12

>  <score_type>  (53) 
oracle

>  <origin>  (53) 
autodockgpu

>  <m_score__min__energy>  (53) 
-6.7300000000000004

>  <m_primary>  (53) 
energy

>  <meeko>  (53) 
{"free_energy": -6.65, "intermolecular_energy": -7.25, "internal_energy": -0.8, "cluster_size": 19, "cluster_id": 1, "rank_in_cluster": 18}

>  <energy>  (53) 
-6.72

>  <cluster_rmsd>  (53) 
0.04

>  <rmsd>  (53) 
273.38

>  <cluster>  (53) 
1

$$$$
HDQBLRJEPZHFRL-UHFFFAOYNA-N
     RDKit          3D

 35 38  0  0  0  0  0  0  0  0999 V2000
  139.8920   73.6810  221.5780 C   0  0  0  0  0  0  0  0  0  0  0  0
  140.8510   72.6720  221.7900 C   0  0  0  0  0  0  0  0  0  0  0  0
  140.4800   71.4590  222.3950 C   0  0  0  0  0  0  0  0  0  0  0  0
  139.1410   71.2830  222.7680 C   0  0  0  0  0  0  0  0  0  0  0  0
  138.2130   72.2700  222.5670 C   0  0  0  0  0  0  0  0  0  0  0  0
  138.5590   73.4830  221.9710 C   0  0  0  0  0  0  0  0  0  0  0  0
  136.8780   71.8490  223.0720 C   0  0  0  0  0  0  0  0  0  0  0  0
  137.1320   70.4240  223.6190 C   0  0  0  0  0  0  0  0  0  0  0  0
  138.5540   70.1500  223.3930 N   0  0  0  0  0  0  0  0  0  0  0  0
  139.2020   68.8800  223.7190 C   0  0  0  0  0  0  0  0  0  0  0  0
  139.4880   68.8070  225.1890 C   0  0  0  0  0  0  0  0  0  0  0  0
  139.3790   67.6780  225.9960 C   0  0  0  0  0  0  0  0  0  0  0  0
  139.8020   67.9530  227.2510 N   0  0  0  0  0  0  0  0  0  0  0  0
  140.1890   69.2400  227.2390 C   0  0  0  0  0  0  0  0  0  0  0  0
  140.7210   69.9720  228.3010 C   0  0  0  0  0  0  0  0  0  0  0  0
  141.0810   71.3100  228.0630 C   0  0  0  0  0  0  0  0  0  0  0  0
  140.9050   71.8810  226.7820 C   0  0  0  0  0  0  0  0  0  0  0  0
  140.3670   71.1190  225.7300 C   0  0  0  0  0  0  0  0  0  0  0  0
  140.0170   69.7960  225.9970 C   0  0  0  0  0  0  0  0  0  0  0  0
  140.1884   74.6277  221.1028 H   0  0  0  0  0  0  0  0  0  0  0  0
  141.8942   72.8338  221.4810 H   0  0  0  0  0  0  0  0  0  0  0  0
  141.2228   70.6671  222.5714 H   0  0  0  0  0  0  0  0  0  0  0  0
  137.8039   74.2670  221.8125 H   0  0  0  0  0  0  0  0  0  0  0  0
  136.5300   72.5206  223.8707 H   0  0  0  0  0  0  0  0  0  0  0  0
  136.0980   71.8778  222.2969 H   0  0  0  0  0  0  0  0  0  0  0  0
  136.9008   70.3806  224.6936 H   0  0  0  0  0  0  0  0  0  0  0  0
  136.4946   69.6811  223.1172 H   0  0  0  0  0  0  0  0  0  0  0  0
  138.5377   68.0501  223.4364 H   0  0  0  0  0  0  0  0  0  0  0  0
  140.1495   68.8079  223.1649 H   0  0  0  0  0  0  0  0  0  0  0  0
  139.0022   66.7005  225.6606 H   0  0  0  0  0  0  0  0  0  0  0  0
  139.8370   67.2900  228.0570 H   0  0  0  0  0  0  0  0  0  0  0  0
  140.8545   69.5165  229.2933 H   0  0  0  0  0  0  0  0  0  0  0  0
  141.5022   71.9162  228.8786 H   0  0  0  0  0  0  0  0  0  0  0  0
  141.1909   72.9287  226.6070 H   0  0  0  0  0  0  0  0  0  0  0  0
  140.2268   71.5525  224.7288 H   0  0  0  0  0  0  0  0  0  0  0  0
  1  2  2  0
  2  3  1  0
  3  4  2  0
  4  5  1  0
  5  6  2  0
  5  7  1  0
  7  8  1  0
  8  9  1  0
  9 10  1  0
 10 11  1  0
 11 12  2  0
 12 13  1  0
 13 14  1  0
 14 15  2  0
 15 16  1  0
 16 17  2  0
 17 18  1  0
 18 19  2  0
  6  1  1  0
 19 11  1  0
  9  4  1  0
 19 14  1  0
  1 20  1  0
  2 21  1  0
  3 22  1  0
  6 23  1  0
  7 24  1  0
  7 25  1  0
  8 26  1  0
  8 27  1  0
 10 28  1  0
 10 29  1  0
 12 30  1  0
 13 31  1  0
 15 32  1  0
 16 33  1  0
 17 34  1  0
 18 35  1  0
M  END
>  <UniqueID>  (54) 
591

>  <SMILES>  (54) 
c1ccc2c(c1)CCN2Cc1c[nH]c2ccccc12

>  <Energy>  (54) 
83.19044011310861

>  <Genealogy>  (54) 
c1ccc2c(c1)CCN2Cc1c[nH]c2ccccc12 (3D coordinates assigned)
c1ccc2c(c1)CCN2Cc1c[nH]c2ccccc12 (nonaromatic ring conformer: 83.19044011310861 kcal/mol)

>  <smiles>  (54) 
c1ccc2c(c1)CCN2Cc1c[nH]c2ccccc12

>  <score_type>  (54) 
oracle

>  <origin>  (54) 
autodockgpu

>  <m_score__min__energy>  (54) 
-6.7300000000000004

>  <m_primary>  (54) 
energy

>  <meeko>  (54) 
{"free_energy": -6.72, "intermolecular_energy": -7.32, "internal_energy": -0.73, "cluster_size": 19, "cluster_id": 1, "rank_in_cluster": 10}

>  <energy>  (54) 
-6.72

>  <cluster_rmsd>  (54) 
0.03

>  <rmsd>  (54) 
273.4

>  <cluster>  (54) 
1

$$$$
HDQBLRJEPZHFRL-UHFFFAOYNA-N
     RDKit          3D

 35 38  0  0  0  0  0  0  0  0999 V2000
  139.9070   73.6890  221.5850 C   0  0  0  0  0  0  0  0  0  0  0  0
  140.8620   72.6780  221.8080 C   0  0  0  0  0  0  0  0  0  0  0  0
  140.4860   71.4710  222.4180 C   0  0  0  0  0  0  0  0  0  0  0  0
  139.1450   71.2990  222.7860 C   0  0  0  0  0  0  0  0  0  0  0  0
  138.2200   72.2870  222.5750 C   0  0  0  0  0  0  0  0  0  0  0  0
  138.5720   73.4960  221.9730 C   0  0  0  0  0  0  0  0  0  0  0  0
  136.8810   71.8720  223.0760 C   0  0  0  0  0  0  0  0  0  0  0  0
  137.1300   70.4510  223.6330 C   0  0  0  0  0  0  0  0  0  0  0  0
  138.5520   70.1720  223.4150 N   0  0  0  0  0  0  0  0  0  0  0  0
  139.1960   68.9020  223.7520 C   0  0  0  0  0  0  0  0  0  0  0  0
  139.4640   68.8330  225.2250 C   0  0  0  0  0  0  0  0  0  0  0  0
  139.3230   67.7120  226.0380 C   0  0  0  0  0  0  0  0  0  0  0  0
  139.7380   67.9850  227.2960 N   0  0  0  0  0  0  0  0  0  0  0  0
  140.1520   69.2640  227.2810 C   0  0  0  0  0  0  0  0  0  0  0  0
  140.6880   69.9910  228.3440 C   0  0  0  0  0  0  0  0  0  0  0  0
  141.0780   71.3190  228.1010 C   0  0  0  0  0  0  0  0  0  0  0  0
  140.9290   71.8860  226.8150 C   0  0  0  0  0  0  0  0  0  0  0  0
  140.3860   71.1290  225.7620 C   0  0  0  0  0  0  0  0  0  0  0  0
  140.0050   69.8150  226.0320 C   0  0  0  0  0  0  0  0  0  0  0  0
  140.2082   74.6321  221.1056 H   0  0  0  0  0  0  0  0  0  0  0  0
  141.9071   72.8350  221.5028 H   0  0  0  0  0  0  0  0  0  0  0  0
  141.2266   70.6789  222.6028 H   0  0  0  0  0  0  0  0  0  0  0  0
  137.8194   74.2807  221.8062 H   0  0  0  0  0  0  0  0  0  0  0  0
  136.5302   72.5493  223.8686 H   0  0  0  0  0  0  0  0  0  0  0  0
  136.1047   71.8975  222.2971 H   0  0  0  0  0  0  0  0  0  0  0  0
  136.8943   70.4152  224.7068 H   0  0  0  0  0  0  0  0  0  0  0  0
  136.4933   69.7063  223.1330 H   0  0  0  0  0  0  0  0  0  0  0  0
  138.5349   68.0715  223.4636 H   0  0  0  0  0  0  0  0  0  0  0  0
  140.1501   68.8280  223.2095 H   0  0  0  0  0  0  0  0  0  0  0  0
  138.9294   66.7406  225.7042 H   0  0  0  0  0  0  0  0  0  0  0  0
  139.7500   67.3270  228.1070 H   0  0  0  0  0  0  0  0  0  0  0  0
  140.8018   69.5393  229.3405 H   0  0  0  0  0  0  0  0  0  0  0  0
  141.5023   71.9216  228.9176 H   0  0  0  0  0  0  0  0  0  0  0  0
  141.2398   72.9260  226.6368 H   0  0  0  0  0  0  0  0  0  0  0  0
  140.2655   71.5596  224.7570 H   0  0  0  0  0  0  0  0  0  0  0  0
  1  2  2  0
  2  3  1  0
  3  4  2  0
  4  5  1  0
  5  6  2  0
  5  7  1  0
  7  8  1  0
  8  9  1  0
  9 10  1  0
 10 11  1  0
 11 12  2  0
 12 13  1  0
 13 14  1  0
 14 15  2  0
 15 16  1  0
 16 17  2  0
 17 18  1  0
 18 19  2  0
  6  1  1  0
 19 11  1  0
  9  4  1  0
 19 14  1  0
  1 20  1  0
  2 21  1  0
  3 22  1  0
  6 23  1  0
  7 24  1  0
  7 25  1  0
  8 26  1  0
  8 27  1  0
 10 28  1  0
 10 29  1  0
 12 30  1  0
 13 31  1  0
 15 32  1  0
 16 33  1  0
 17 34  1  0
 18 35  1  0
M  END
>  <UniqueID>  (55) 
591

>  <SMILES>  (55) 
c1ccc2c(c1)CCN2Cc1c[nH]c2ccccc12

>  <Energy>  (55) 
83.19044011310861

>  <Genealogy>  (55) 
c1ccc2c(c1)CCN2Cc1c[nH]c2ccccc12 (3D coordinates assigned)
c1ccc2c(c1)CCN2Cc1c[nH]c2ccccc12 (nonaromatic ring conformer: 83.19044011310861 kcal/mol)

>  <smiles>  (55) 
c1ccc2c(c1)CCN2Cc1c[nH]c2ccccc12

>  <score_type>  (55) 
oracle

>  <origin>  (55) 
autodockgpu

>  <m_score__min__energy>  (55) 
-6.7300000000000004

>  <m_primary>  (55) 
energy

>  <meeko>  (55) 
{"free_energy": -6.73, "intermolecular_energy": -7.33, "internal_energy": -0.73, "cluster_size": 19, "cluster_id": 1, "rank_in_cluster": 4}

>  <energy>  (55) 
-6.72

>  <cluster_rmsd>  (55) 
0.04

>  <rmsd>  (55) 
273.39

>  <cluster>  (55) 
1

$$$$
HDQBLRJEPZHFRL-UHFFFAOYNA-N
     RDKit          3D

 35 38  0  0  0  0  0  0  0  0999 V2000
  139.9490   73.6820  221.5790 C   0  0  0  0  0  0  0  0  0  0  0  0
  140.8990   72.6670  221.8060 C   0  0  0  0  0  0  0  0  0  0  0  0
  140.5140   71.4620  222.4170 C   0  0  0  0  0  0  0  0  0  0  0  0
  139.1720   71.2990  222.7820 C   0  0  0  0  0  0  0  0  0  0  0  0
  138.2530   72.2910  222.5670 C   0  0  0  0  0  0  0  0  0  0  0  0
  138.6120   73.4970  221.9640 C   0  0  0  0  0  0  0  0  0  0  0  0
  136.9100   71.8850  223.0660 C   0  0  0  0  0  0  0  0  0  0  0  0
  137.1500   70.4620  223.6250 C   0  0  0  0  0  0  0  0  0  0  0  0
  138.5710   70.1760  223.4120 N   0  0  0  0  0  0  0  0  0  0  0  0
  139.2080   68.9030  223.7520 C   0  0  0  0  0  0  0  0  0  0  0  0
  139.4760   68.8370  225.2250 C   0  0  0  0  0  0  0  0  0  0  0  0
  139.3340   67.7170  226.0400 C   0  0  0  0  0  0  0  0  0  0  0  0
  139.7500   67.9930  227.2970 N   0  0  0  0  0  0  0  0  0  0  0  0
  140.1650   69.2720  227.2790 C   0  0  0  0  0  0  0  0  0  0  0  0
  140.7020   70.0000  228.3410 C   0  0  0  0  0  0  0  0  0  0  0  0
  141.0930   71.3280  228.0950 C   0  0  0  0  0  0  0  0  0  0  0  0
  140.9430   71.8920  226.8080 C   0  0  0  0  0  0  0  0  0  0  0  0
  140.3990   71.1330  225.7570 C   0  0  0  0  0  0  0  0  0  0  0  0
  140.0180   69.8200  226.0300 C   0  0  0  0  0  0  0  0  0  0  0  0
  140.2560   74.6227  221.0984 H   0  0  0  0  0  0  0  0  0  0  0  0
  141.9458   72.8184  221.5038 H   0  0  0  0  0  0  0  0  0  0  0  0
  141.2492   70.6655  222.6042 H   0  0  0  0  0  0  0  0  0  0  0  0
  137.8638   74.2853  221.7941 H   0  0  0  0  0  0  0  0  0  0  0  0
  136.5620   72.5652  223.8573 H   0  0  0  0  0  0  0  0  0  0  0  0
  136.1351   71.9148  222.2859 H   0  0  0  0  0  0  0  0  0  0  0  0
  136.9104   70.4280  224.6981 H   0  0  0  0  0  0  0  0  0  0  0  0
  136.5112   69.7202  223.1233 H   0  0  0  0  0  0  0  0  0  0  0  0
  138.5421   68.0754  223.4662 H   0  0  0  0  0  0  0  0  0  0  0  0
  140.1613   68.8217  223.2092 H   0  0  0  0  0  0  0  0  0  0  0  0
  138.9393   66.7452  225.7084 H   0  0  0  0  0  0  0  0  0  0  0  0
  139.7620   67.3370  228.1100 H   0  0  0  0  0  0  0  0  0  0  0  0
  140.8158   69.5498  229.3382 H   0  0  0  0  0  0  0  0  0  0  0  0
  141.5186   71.9320  228.9099 H   0  0  0  0  0  0  0  0  0  0  0  0
  141.2539   72.9316  226.6273 H   0  0  0  0  0  0  0  0  0  0  0  0
  140.2778   71.5615  224.7512 H   0  0  0  0  0  0  0  0  0  0  0  0
  1  2  2  0
  2  3  1  0
  3  4  2  0
  4  5  1  0
  5  6  2  0
  5  7  1  0
  7  8  1  0
  8  9  1  0
  9 10  1  0
 10 11  1  0
 11 12  2  0
 12 13  1  0
 13 14  1  0
 14 15  2  0
 15 16  1  0
 16 17  2  0
 17 18  1  0
 18 19  2  0
  6  1  1  0
 19 11  1  0
  9  4  1  0
 19 14  1  0
  1 20  1  0
  2 21  1  0
  3 22  1  0
  6 23  1  0
  7 24  1  0
  7 25  1  0
  8 26  1  0
  8 27  1  0
 10 28  1  0
 10 29  1  0
 12 30  1  0
 13 31  1  0
 15 32  1  0
 16 33  1  0
 17 34  1  0
 18 35  1  0
M  END
>  <UniqueID>  (56) 
591

>  <SMILES>  (56) 
c1ccc2c(c1)CCN2Cc1c[nH]c2ccccc12

>  <Energy>  (56) 
83.19044011310861

>  <Genealogy>  (56) 
c1ccc2c(c1)CCN2Cc1c[nH]c2ccccc12 (3D coordinates assigned)
c1ccc2c(c1)CCN2Cc1c[nH]c2ccccc12 (nonaromatic ring conformer: 83.19044011310861 kcal/mol)

>  <smiles>  (56) 
c1ccc2c(c1)CCN2Cc1c[nH]c2ccccc12

>  <score_type>  (56) 
oracle

>  <origin>  (56) 
autodockgpu

>  <m_score__min__energy>  (56) 
-6.7300000000000004

>  <m_primary>  (56) 
energy

>  <meeko>  (56) 
{"free_energy": -6.73, "intermolecular_energy": -7.32, "internal_energy": -0.73, "cluster_size": 19, "cluster_id": 1, "rank_in_cluster": 6}

>  <energy>  (56) 
-6.72

>  <cluster_rmsd>  (56) 
0.04

>  <rmsd>  (56) 
273.38

>  <cluster>  (56) 
1

$$$$
HDQBLRJEPZHFRL-UHFFFAOYNA-N
     RDKit          3D

 35 38  0  0  0  0  0  0  0  0999 V2000
  141.4300   71.7620  228.0150 C   0  0  0  0  0  0  0  0  0  0  0  0
  141.0930   72.2460  226.7360 C   0  0  0  0  0  0  0  0  0  0  0  0
  140.5200   71.3880  225.7830 C   0  0  0  0  0  0  0  0  0  0  0  0
  140.2880   70.0540  226.1420 C   0  0  0  0  0  0  0  0  0  0  0  0
  140.6240   69.5850  227.3830 C   0  0  0  0  0  0  0  0  0  0  0  0
  141.1960   70.4180  228.3450 C   0  0  0  0  0  0  0  0  0  0  0  0
  140.3030   68.1370  227.5050 C   0  0  0  0  0  0  0  0  0  0  0  0
  139.7030   67.7840  226.1240 C   0  0  0  0  0  0  0  0  0  0  0  0
  139.7290   69.0220  225.3410 N   0  0  0  0  0  0  0  0  0  0  0  0
  139.1990   69.1400  223.9820 C   0  0  0  0  0  0  0  0  0  0  0  0
  138.2170   70.2690  223.9070 C   0  0  0  0  0  0  0  0  0  0  0  0
  138.4290   71.5100  223.3110 C   0  0  0  0  0  0  0  0  0  0  0  0
  137.2980   72.2500  223.3480 N   0  0  0  0  0  0  0  0  0  0  0  0
  136.3720   71.4850  223.9500 C   0  0  0  0  0  0  0  0  0  0  0  0
  135.0380   71.8100  224.1980 C   0  0  0  0  0  0  0  0  0  0  0  0
  134.2320   70.8450  224.8260 C   0  0  0  0  0  0  0  0  0  0  0  0
  134.7690   69.5890  225.1870 C   0  0  0  0  0  0  0  0  0  0  0  0
  136.1170   69.2880  224.9240 C   0  0  0  0  0  0  0  0  0  0  0  0
  136.8930   70.2650  224.3020 C   0  0  0  0  0  0  0  0  0  0  0  0
  141.8778   72.4391  228.7573 H   0  0  0  0  0  0  0  0  0  0  0  0
  141.2793   73.3001  226.4825 H   0  0  0  0  0  0  0  0  0  0  0  0
  140.2597   71.7547  224.7791 H   0  0  0  0  0  0  0  0  0  0  0  0
  141.4579   70.0299  229.3404 H   0  0  0  0  0  0  0  0  0  0  0  0
  141.2109   67.5480  227.7017 H   0  0  0  0  0  0  0  0  0  0  0  0
  139.6193   67.9179  228.3384 H   0  0  0  0  0  0  0  0  0  0  0  0
  140.3081   67.0083  225.6319 H   0  0  0  0  0  0  0  0  0  0  0  0
  138.6803   67.3901  226.2190 H   0  0  0  0  0  0  0  0  0  0  0  0
  140.0274   69.3317  223.2841 H   0  0  0  0  0  0  0  0  0  0  0  0
  138.6904   68.2028  223.7119 H   0  0  0  0  0  0  0  0  0  0  0  0
  139.3818   71.8412  222.8723 H   0  0  0  0  0  0  0  0  0  0  0  0
  137.1700   73.2150  222.9680 H   0  0  0  0  0  0  0  0  0  0  0  0
  134.6300   72.7904  223.9111 H   0  0  0  0  0  0  0  0  0  0  0  0
  133.1761   71.0691  225.0379 H   0  0  0  0  0  0  0  0  0  0  0  0
  134.1280   68.8414  225.6772 H   0  0  0  0  0  0  0  0  0  0  0  0
  136.5455   68.3132  225.2001 H   0  0  0  0  0  0  0  0  0  0  0  0
  1  2  2  0
  2  3  1  0
  3  4  2  0
  4  5  1  0
  5  6  2  0
  5  7  1  0
  7  8  1  0
  8  9  1  0
  9 10  1  0
 10 11  1  0
 11 12  2  0
 12 13  1  0
 13 14  1  0
 14 15  2  0
 15 16  1  0
 16 17  2  0
 17 18  1  0
 18 19  2  0
  6  1  1  0
 19 11  1  0
  9  4  1  0
 19 14  1  0
  1 20  1  0
  2 21  1  0
  3 22  1  0
  6 23  1  0
  7 24  1  0
  7 25  1  0
  8 26  1  0
  8 27  1  0
 10 28  1  0
 10 29  1  0
 12 30  1  0
 13 31  1  0
 15 32  1  0
 16 33  1  0
 17 34  1  0
 18 35  1  0
M  END
>  <UniqueID>  (57) 
591

>  <SMILES>  (57) 
c1ccc2c(c1)CCN2Cc1c[nH]c2ccccc12

>  <Energy>  (57) 
83.19044011310861

>  <Genealogy>  (57) 
c1ccc2c(c1)CCN2Cc1c[nH]c2ccccc12 (3D coordinates assigned)
c1ccc2c(c1)CCN2Cc1c[nH]c2ccccc12 (nonaromatic ring conformer: 83.19044011310861 kcal/mol)

>  <smiles>  (57) 
c1ccc2c(c1)CCN2Cc1c[nH]c2ccccc12

>  <score_type>  (57) 
oracle

>  <origin>  (57) 
autodockgpu

>  <m_score__min__energy>  (57) 
-6.7300000000000004

>  <m_primary>  (57) 
energy

>  <meeko>  (57) 
{"free_energy": -6.54, "intermolecular_energy": -7.14, "internal_energy": -0.63, "cluster_size": 1, "cluster_id": 2, "rank_in_cluster": 1}

>  <energy>  (57) 
-6.72

>  <cluster_rmsd>  (57) 
0.07

>  <rmsd>  (57) 
273.41

>  <cluster>  (57) 
1

$$$$
HDQBLRJEPZHFRL-UHFFFAOYNA-N
     RDKit          3D

 35 38  0  0  0  0  0  0  0  0999 V2000
  139.9050   73.6700  221.5850 C   0  0  0  0  0  0  0  0  0  0  0  0
  140.8590   72.6580  221.8090 C   0  0  0  0  0  0  0  0  0  0  0  0
  140.4800   71.4510  222.4200 C   0  0  0  0  0  0  0  0  0  0  0  0
  139.1390   71.2830  222.7890 C   0  0  0  0  0  0  0  0  0  0  0  0
  138.2170   72.2730  222.5770 C   0  0  0  0  0  0  0  0  0  0  0  0
  138.5700   73.4800  221.9740 C   0  0  0  0  0  0  0  0  0  0  0  0
  136.8770   71.8610  223.0790 C   0  0  0  0  0  0  0  0  0  0  0  0
  137.1230   70.4390  223.6370 C   0  0  0  0  0  0  0  0  0  0  0  0
  138.5440   70.1580  223.4200 N   0  0  0  0  0  0  0  0  0  0  0  0
  139.1860   68.8870  223.7580 C   0  0  0  0  0  0  0  0  0  0  0  0
  139.4640   68.8240  225.2290 C   0  0  0  0  0  0  0  0  0  0  0  0
  139.3310   67.7040  226.0470 C   0  0  0  0  0  0  0  0  0  0  0  0
  139.7550   67.9840  227.3010 N   0  0  0  0  0  0  0  0  0  0  0  0
  140.1640   69.2640  227.2780 C   0  0  0  0  0  0  0  0  0  0  0  0
  140.7050   69.9950  228.3360 C   0  0  0  0  0  0  0  0  0  0  0  0
  141.0900   71.3240  228.0860 C   0  0  0  0  0  0  0  0  0  0  0  0
  140.9290   71.8870  226.7990 C   0  0  0  0  0  0  0  0  0  0  0  0
  140.3820   71.1240  225.7520 C   0  0  0  0  0  0  0  0  0  0  0  0
  140.0070   69.8100  226.0300 C   0  0  0  0  0  0  0  0  0  0  0  0
  140.2073   74.6119  221.1038 H   0  0  0  0  0  0  0  0  0  0  0  0
  141.9045   72.8134  221.5044 H   0  0  0  0  0  0  0  0  0  0  0  0
  141.2185   70.6569  222.6042 H   0  0  0  0  0  0  0  0  0  0  0  0
  137.8186   74.2658  221.8070 H   0  0  0  0  0  0  0  0  0  0  0  0
  136.5281   72.5396  223.8714 H   0  0  0  0  0  0  0  0  0  0  0  0
  136.1005   71.8877  222.3003 H   0  0  0  0  0  0  0  0  0  0  0  0
  136.8865   70.4040  224.7107 H   0  0  0  0  0  0  0  0  0  0  0  0
  136.4852   69.6951  223.1371 H   0  0  0  0  0  0  0  0  0  0  0  0
  138.5200   68.0575  223.4780 H   0  0  0  0  0  0  0  0  0  0  0  0
  140.1358   68.8070  223.2090 H   0  0  0  0  0  0  0  0  0  0  0  0
  138.9372   66.7304  225.7198 H   0  0  0  0  0  0  0  0  0  0  0  0
  139.7740   67.3280  228.1140 H   0  0  0  0  0  0  0  0  0  0  0  0
  140.8264   69.5464  229.3330 H   0  0  0  0  0  0  0  0  0  0  0  0
  141.5195   71.9300  228.8974 H   0  0  0  0  0  0  0  0  0  0  0  0
  141.2334   72.9280  226.6156 H   0  0  0  0  0  0  0  0  0  0  0  0
  140.2540   71.5501  224.7460 H   0  0  0  0  0  0  0  0  0  0  0  0
  1  2  2  0
  2  3  1  0
  3  4  2  0
  4  5  1  0
  5  6  2  0
  5  7  1  0
  7  8  1  0
  8  9  1  0
  9 10  1  0
 10 11  1  0
 11 12  2  0
 12 13  1  0
 13 14  1  0
 14 15  2  0
 15 16  1  0
 16 17  2  0
 17 18  1  0
 18 19  2  0
  6  1  1  0
 19 11  1  0
  9  4  1  0
 19 14  1  0
  1 20  1  0
  2 21  1  0
  3 22  1  0
  6 23  1  0
  7 24  1  0
  7 25  1  0
  8 26  1  0
  8 27  1  0
 10 28  1  0
 10 29  1  0
 12 30  1  0
 13 31  1  0
 15 32  1  0
 16 33  1  0
 17 34  1  0
 18 35  1  0
M  END
>  <UniqueID>  (58) 
591

>  <SMILES>  (58) 
c1ccc2c(c1)CCN2Cc1c[nH]c2ccccc12

>  <Energy>  (58) 
83.19044011310861

>  <Genealogy>  (58) 
c1ccc2c(c1)CCN2Cc1c[nH]c2ccccc12 (3D coordinates assigned)
c1ccc2c(c1)CCN2Cc1c[nH]c2ccccc12 (nonaromatic ring conformer: 83.19044011310861 kcal/mol)

>  <smiles>  (58) 
c1ccc2c(c1)CCN2Cc1c[nH]c2ccccc12

>  <score_type>  (58) 
oracle

>  <origin>  (58) 
autodockgpu

>  <m_score__min__energy>  (58) 
-6.7300000000000004

>  <m_primary>  (58) 
energy

>  <meeko>  (58) 
{"free_energy": -6.73, "intermolecular_energy": -7.32, "internal_energy": -0.73, "cluster_size": 19, "cluster_id": 1, "rank_in_cluster": 8}

>  <energy>  (58) 
-6.65

>  <cluster_rmsd>  (58) 
1.98

>  <rmsd>  (58) 
273.3

>  <cluster>  (58) 
1

$$$$
HDQBLRJEPZHFRL-UHFFFAOYNA-N
     RDKit          3D

 35 38  0  0  0  0  0  0  0  0999 V2000
  139.9410   73.6870  221.5950 C   0  0  0  0  0  0  0  0  0  0  0  0
  140.8940   72.6750  221.8230 C   0  0  0  0  0  0  0  0  0  0  0  0
  140.5110   71.4660  222.4270 C   0  0  0  0  0  0  0  0  0  0  0  0
  139.1670   71.2960  222.7840 C   0  0  0  0  0  0  0  0  0  0  0  0
  138.2450   72.2860  222.5680 C   0  0  0  0  0  0  0  0  0  0  0  0
  138.6030   73.4950  221.9720 C   0  0  0  0  0  0  0  0  0  0  0  0
  136.9020   71.8720  223.0580 C   0  0  0  0  0  0  0  0  0  0  0  0
  137.1440   70.4480  223.6130 C   0  0  0  0  0  0  0  0  0  0  0  0
  138.5670   70.1680  223.4060 N   0  0  0  0  0  0  0  0  0  0  0  0
  139.2070   68.8970  223.7450 C   0  0  0  0  0  0  0  0  0  0  0  0
  139.4760   68.8300  225.2180 C   0  0  0  0  0  0  0  0  0  0  0  0
  139.3370   67.7090  226.0330 C   0  0  0  0  0  0  0  0  0  0  0  0
  139.7540   67.9850  227.2900 N   0  0  0  0  0  0  0  0  0  0  0  0
  140.1650   69.2650  227.2720 C   0  0  0  0  0  0  0  0  0  0  0  0
  140.7010   69.9930  228.3340 C   0  0  0  0  0  0  0  0  0  0  0  0
  141.0900   71.3220  228.0890 C   0  0  0  0  0  0  0  0  0  0  0  0
  140.9380   71.8870  226.8020 C   0  0  0  0  0  0  0  0  0  0  0  0
  140.3950   71.1270  225.7510 C   0  0  0  0  0  0  0  0  0  0  0  0
  140.0160   69.8140  226.0240 C   0  0  0  0  0  0  0  0  0  0  0  0
  140.2466   74.6308  221.1199 H   0  0  0  0  0  0  0  0  0  0  0  0
  141.9417   72.8320  221.5270 H   0  0  0  0  0  0  0  0  0  0  0  0
  141.2486   70.6719  222.6151 H   0  0  0  0  0  0  0  0  0  0  0  0
  137.8528   74.2811  221.8011 H   0  0  0  0  0  0  0  0  0  0  0  0
  136.5468   72.5477  223.8500 H   0  0  0  0  0  0  0  0  0  0  0  0
  136.1316   71.9011  222.2734 H   0  0  0  0  0  0  0  0  0  0  0  0
  136.8992   70.4092  224.6847 H   0  0  0  0  0  0  0  0  0  0  0  0
  136.5103   69.7057  223.1056 H   0  0  0  0  0  0  0  0  0  0  0  0
  138.5430   68.0680  223.4587 H   0  0  0  0  0  0  0  0  0  0  0  0
  140.1604   68.8190  223.2019 H   0  0  0  0  0  0  0  0  0  0  0  0
  138.9437   66.7367  225.7014 H   0  0  0  0  0  0  0  0  0  0  0  0
  139.7670   67.3280  228.1010 H   0  0  0  0  0  0  0  0  0  0  0  0
  140.8158   69.5423  229.3308 H   0  0  0  0  0  0  0  0  0  0  0  0
  141.5153   71.9259  228.9041 H   0  0  0  0  0  0  0  0  0  0  0  0
  141.2464   72.9274  226.6218 H   0  0  0  0  0  0  0  0  0  0  0  0
  140.2732   71.5553  224.7451 H   0  0  0  0  0  0  0  0  0  0  0  0
  1  2  2  0
  2  3  1  0
  3  4  2  0
  4  5  1  0
  5  6  2  0
  5  7  1  0
  7  8  1  0
  8  9  1  0
  9 10  1  0
 10 11  1  0
 11 12  2  0
 12 13  1  0
 13 14  1  0
 14 15  2  0
 15 16  1  0
 16 17  2  0
 17 18  1  0
 18 19  2  0
  6  1  1  0
 19 11  1  0
  9  4  1  0
 19 14  1  0
  1 20  1  0
  2 21  1  0
  3 22  1  0
  6 23  1  0
  7 24  1  0
  7 25  1  0
  8 26  1  0
  8 27  1  0
 10 28  1  0
 10 29  1  0
 12 30  1  0
 13 31  1  0
 15 32  1  0
 16 33  1  0
 17 34  1  0
 18 35  1  0
M  END
>  <UniqueID>  (59) 
591

>  <SMILES>  (59) 
c1ccc2c(c1)CCN2Cc1c[nH]c2ccccc12

>  <Energy>  (59) 
83.19044011310861

>  <Genealogy>  (59) 
c1ccc2c(c1)CCN2Cc1c[nH]c2ccccc12 (3D coordinates assigned)
c1ccc2c(c1)CCN2Cc1c[nH]c2ccccc12 (nonaromatic ring conformer: 83.19044011310861 kcal/mol)

>  <smiles>  (59) 
c1ccc2c(c1)CCN2Cc1c[nH]c2ccccc12

>  <score_type>  (59) 
oracle

>  <origin>  (59) 
autodockgpu

>  <m_score__min__energy>  (59) 
-6.7300000000000004

>  <m_primary>  (59) 
energy

>  <meeko>  (59) 
{"free_energy": -6.73, "intermolecular_energy": -7.32, "internal_energy": -0.73, "cluster_size": 19, "cluster_id": 1, "rank_in_cluster": 5}

>  <energy>  (59) 
-6.64

>  <cluster_rmsd>  (59) 
1.97

>  <rmsd>  (59) 
273.3

>  <cluster>  (59) 
1

$$$$
HDQBLRJEPZHFRL-UHFFFAOYNA-N
     RDKit          3D

 35 38  0  0  0  0  0  0  0  0999 V2000
  139.9030   73.6840  221.5860 C   0  0  0  0  0  0  0  0  0  0  0  0
  140.8590   72.6740  221.8100 C   0  0  0  0  0  0  0  0  0  0  0  0
  140.4830   71.4660  222.4200 C   0  0  0  0  0  0  0  0  0  0  0  0
  139.1410   71.2940  222.7860 C   0  0  0  0  0  0  0  0  0  0  0  0
  138.2160   72.2810  222.5740 C   0  0  0  0  0  0  0  0  0  0  0  0
  138.5670   73.4900  221.9720 C   0  0  0  0  0  0  0  0  0  0  0  0
  136.8770   71.8650  223.0730 C   0  0  0  0  0  0  0  0  0  0  0  0
  137.1260   70.4440  223.6300 C   0  0  0  0  0  0  0  0  0  0  0  0
  138.5480   70.1660  223.4140 N   0  0  0  0  0  0  0  0  0  0  0  0
  139.1930   68.8970  223.7520 C   0  0  0  0  0  0  0  0  0  0  0  0
  139.4660   68.8310  225.2240 C   0  0  0  0  0  0  0  0  0  0  0  0
  139.3280   67.7110  226.0400 C   0  0  0  0  0  0  0  0  0  0  0  0
  139.7470   67.9880  227.2960 N   0  0  0  0  0  0  0  0  0  0  0  0
  140.1590   69.2670  227.2770 C   0  0  0  0  0  0  0  0  0  0  0  0
  140.6970   69.9970  228.3370 C   0  0  0  0  0  0  0  0  0  0  0  0
  141.0850   71.3250  228.0900 C   0  0  0  0  0  0  0  0  0  0  0  0
  140.9300   71.8890  226.8040 C   0  0  0  0  0  0  0  0  0  0  0  0
  140.3850   71.1290  225.7540 C   0  0  0  0  0  0  0  0  0  0  0  0
  140.0070   69.8150  226.0280 C   0  0  0  0  0  0  0  0  0  0  0  0
  140.2040   74.6275  221.1073 H   0  0  0  0  0  0  0  0  0  0  0  0
  141.9043   72.8320  221.5059 H   0  0  0  0  0  0  0  0  0  0  0  0
  141.2237   70.6743  222.6060 H   0  0  0  0  0  0  0  0  0  0  0  0
  137.8137   74.2737  221.8036 H   0  0  0  0  0  0  0  0  0  0  0  0
  136.5247   72.5419  223.8653 H   0  0  0  0  0  0  0  0  0  0  0  0
  136.1018   71.8901  222.2929 H   0  0  0  0  0  0  0  0  0  0  0  0
  136.8888   70.4078  224.7035 H   0  0  0  0  0  0  0  0  0  0  0  0
  136.4904   69.6990  223.1289 H   0  0  0  0  0  0  0  0  0  0  0  0
  138.5309   68.0659  223.4676 H   0  0  0  0  0  0  0  0  0  0  0  0
  140.1454   68.8221  223.2067 H   0  0  0  0  0  0  0  0  0  0  0  0
  138.9340   66.7385  225.7098 H   0  0  0  0  0  0  0  0  0  0  0  0
  139.7620   67.3310  228.1080 H   0  0  0  0  0  0  0  0  0  0  0  0
  140.8138   69.5476  229.3342 H   0  0  0  0  0  0  0  0  0  0  0  0
  141.5124   71.9295  228.9036 H   0  0  0  0  0  0  0  0  0  0  0  0
  141.2377   72.9295  226.6229 H   0  0  0  0  0  0  0  0  0  0  0  0
  140.2608   71.5573  224.7485 H   0  0  0  0  0  0  0  0  0  0  0  0
  1  2  2  0
  2  3  1  0
  3  4  2  0
  4  5  1  0
  5  6  2  0
  5  7  1  0
  7  8  1  0
  8  9  1  0
  9 10  1  0
 10 11  1  0
 11 12  2  0
 12 13  1  0
 13 14  1  0
 14 15  2  0
 15 16  1  0
 16 17  2  0
 17 18  1  0
 18 19  2  0
  6  1  1  0
 19 11  1  0
  9  4  1  0
 19 14  1  0
  1 20  1  0
  2 21  1  0
  3 22  1  0
  6 23  1  0
  7 24  1  0
  7 25  1  0
  8 26  1  0
  8 27  1  0
 10 28  1  0
 10 29  1  0
 12 30  1  0
 13 31  1  0
 15 32  1  0
 16 33  1  0
 17 34  1  0
 18 35  1  0
M  END
>  <UniqueID>  (60) 
591

>  <SMILES>  (60) 
c1ccc2c(c1)CCN2Cc1c[nH]c2ccccc12

>  <Energy>  (60) 
83.19044011310861

>  <Genealogy>  (60) 
c1ccc2c(c1)CCN2Cc1c[nH]c2ccccc12 (3D coordinates assigned)
c1ccc2c(c1)CCN2Cc1c[nH]c2ccccc12 (nonaromatic ring conformer: 83.19044011310861 kcal/mol)

>  <smiles>  (60) 
c1ccc2c(c1)CCN2Cc1c[nH]c2ccccc12

>  <score_type>  (60) 
oracle

>  <origin>  (60) 
autodockgpu

>  <m_score__min__energy>  (60) 
-6.7300000000000004

>  <m_primary>  (60) 
energy

>  <meeko>  (60) 
{"free_energy": -6.73, "intermolecular_energy": -7.33, "internal_energy": -0.73, "cluster_size": 19, "cluster_id": 1, "rank_in_cluster": 3}

>  <energy>  (60) 
-6.54

>  <cluster_rmsd>  (60) 
0.0

>  <rmsd>  (60) 
273.24

>  <cluster>  (60) 
2

$$$$
HDQBLRJEPZHFRL-UHFFFAOYNA-N
     RDKit          3D

 35 38  0  0  0  0  0  0  0  0999 V2000
  139.9200   73.6970  221.5880 C   0  0  0  0  0  0  0  0  0  0  0  0
  140.8780   72.6900  221.8160 C   0  0  0  0  0  0  0  0  0  0  0  0
  140.5030   71.4790  222.4200 C   0  0  0  0  0  0  0  0  0  0  0  0
  139.1600   71.3010  222.7770 C   0  0  0  0  0  0  0  0  0  0  0  0
  138.2320   72.2850  222.5610 C   0  0  0  0  0  0  0  0  0  0  0  0
  138.5830   73.4970  221.9650 C   0  0  0  0  0  0  0  0  0  0  0  0
  136.8910   71.8630  223.0510 C   0  0  0  0  0  0  0  0  0  0  0  0
  137.1420   70.4410  223.6060 C   0  0  0  0  0  0  0  0  0  0  0  0
  138.5670   70.1690  223.3990 N   0  0  0  0  0  0  0  0  0  0  0  0
  139.2140   68.9020  223.7380 C   0  0  0  0  0  0  0  0  0  0  0  0
  139.4770   68.8330  225.2120 C   0  0  0  0  0  0  0  0  0  0  0  0
  139.3310   67.7120  226.0250 C   0  0  0  0  0  0  0  0  0  0  0  0
  139.7440   67.9860  227.2840 N   0  0  0  0  0  0  0  0  0  0  0  0
  140.1590   69.2640  227.2690 C   0  0  0  0  0  0  0  0  0  0  0  0
  140.6930   69.9910  228.3330 C   0  0  0  0  0  0  0  0  0  0  0  0
  141.0850   71.3190  228.0910 C   0  0  0  0  0  0  0  0  0  0  0  0
  140.9410   71.8850  226.8040 C   0  0  0  0  0  0  0  0  0  0  0  0
  140.4000   71.1280  225.7500 C   0  0  0  0  0  0  0  0  0  0  0  0
  140.0170   69.8150  226.0200 C   0  0  0  0  0  0  0  0  0  0  0  0
  140.2205   74.6427  221.1132 H   0  0  0  0  0  0  0  0  0  0  0  0
  141.9247   72.8529  221.5196 H   0  0  0  0  0  0  0  0  0  0  0  0
  141.2455   70.6895  222.6082 H   0  0  0  0  0  0  0  0  0  0  0  0
  137.8281   74.2787  221.7944 H   0  0  0  0  0  0  0  0  0  0  0  0
  136.5316   72.5366  223.8429 H   0  0  0  0  0  0  0  0  0  0  0  0
  136.1204   71.8875  222.2664 H   0  0  0  0  0  0  0  0  0  0  0  0
  136.8976   70.4010  224.6778 H   0  0  0  0  0  0  0  0  0  0  0  0
  136.5129   69.6949  223.0985 H   0  0  0  0  0  0  0  0  0  0  0  0
  138.5570   68.0692  223.4468 H   0  0  0  0  0  0  0  0  0  0  0  0
  140.1704   68.8320  223.1992 H   0  0  0  0  0  0  0  0  0  0  0  0
  138.9359   66.7413  225.6910 H   0  0  0  0  0  0  0  0  0  0  0  0
  139.7520   67.3280  228.0950 H   0  0  0  0  0  0  0  0  0  0  0  0
  140.8038   69.5393  229.3299 H   0  0  0  0  0  0  0  0  0  0  0  0
  141.5067   71.9218  228.9088 H   0  0  0  0  0  0  0  0  0  0  0  0
  141.2542   72.9243  226.6258 H   0  0  0  0  0  0  0  0  0  0  0  0
  140.2827   71.5580  224.7444 H   0  0  0  0  0  0  0  0  0  0  0  0
  1  2  2  0
  2  3  1  0
  3  4  2  0
  4  5  1  0
  5  6  2  0
  5  7  1  0
  7  8  1  0
  8  9  1  0
  9 10  1  0
 10 11  1  0
 11 12  2  0
 12 13  1  0
 13 14  1  0
 14 15  2  0
 15 16  1  0
 16 17  2  0
 17 18  1  0
 18 19  2  0
  6  1  1  0
 19 11  1  0
  9  4  1  0
 19 14  1  0
  1 20  1  0
  2 21  1  0
  3 22  1  0
  6 23  1  0
  7 24  1  0
  7 25  1  0
  8 26  1  0
  8 27  1  0
 10 28  1  0
 10 29  1  0
 12 30  1  0
 13 31  1  0
 15 32  1  0
 16 33  1  0
 17 34  1  0
 18 35  1  0
M  END
>  <UniqueID>  (61) 
592

>  <SMILES>  (61) 
c1ccc2c(c1)CCN2Cc1c[nH]c2ccccc12

>  <Energy>  (61) 
84.1794849167093

>  <Genealogy>  (61) 
c1ccc2c(c1)CCN2Cc1c[nH]c2ccccc12 (3D coordinates assigned)
c1ccc2c(c1)CCN2Cc1c[nH]c2ccccc12 (nonaromatic ring conformer: 84.1794849167093 kcal/mol)

>  <smiles>  (61) 
c1ccc2c(c1)CCN2Cc1c[nH]c2ccccc12

>  <score_type>  (61) 
oracle

>  <origin>  (61) 
autodockgpu

>  <m_score__min__energy>  (61) 
-6.7300000000000004

>  <m_primary>  (61) 
energy

>  <meeko>  (61) 
{"free_energy": -6.72, "intermolecular_energy": -7.32, "internal_energy": -0.73, "cluster_size": 19, "cluster_id": 1, "rank_in_cluster": 12}

>  <energy>  (61) 
-6.73

>  <cluster_rmsd>  (61) 
0.0

>  <rmsd>  (61) 
273.4

>  <cluster>  (61) 
1

$$$$
HDQBLRJEPZHFRL-UHFFFAOYNA-N
     RDKit          3D

 35 38  0  0  0  0  0  0  0  0999 V2000
  139.9670   73.7000  221.6210 C   0  0  0  0  0  0  0  0  0  0  0  0
  140.9150   72.6880  221.8650 C   0  0  0  0  0  0  0  0  0  0  0  0
  140.5210   71.4780  222.4590 C   0  0  0  0  0  0  0  0  0  0  0  0
  139.1700   71.3060  222.7890 C   0  0  0  0  0  0  0  0  0  0  0  0
  138.2530   72.2960  222.5570 C   0  0  0  0  0  0  0  0  0  0  0  0
  138.6220   73.5070  221.9710 C   0  0  0  0  0  0  0  0  0  0  0  0
  136.9000   71.8800  223.0180 C   0  0  0  0  0  0  0  0  0  0  0  0
  137.1310   70.4560  223.5750 C   0  0  0  0  0  0  0  0  0  0  0  0
  138.5590   70.1770  223.3960 N   0  0  0  0  0  0  0  0  0  0  0  0
  139.1920   68.9050  223.7450 C   0  0  0  0  0  0  0  0  0  0  0  0
  139.4500   68.8430  225.2200 C   0  0  0  0  0  0  0  0  0  0  0  0
  139.2860   67.7300  226.0410 C   0  0  0  0  0  0  0  0  0  0  0  0
  139.6990   68.0070  227.2990 N   0  0  0  0  0  0  0  0  0  0  0  0
  140.1320   69.2790  227.2760 C   0  0  0  0  0  0  0  0  0  0  0  0
  140.6730   70.0060  228.3370 C   0  0  0  0  0  0  0  0  0  0  0  0
  141.0850   71.3260  228.0860 C   0  0  0  0  0  0  0  0  0  0  0  0
  140.9520   71.8850  226.7950 C   0  0  0  0  0  0  0  0  0  0  0  0
  140.4030   71.1280  225.7450 C   0  0  0  0  0  0  0  0  0  0  0  0
  140.0010   69.8230  226.0230 C   0  0  0  0  0  0  0  0  0  0  0  0
  140.2818   74.6451  221.1544 H   0  0  0  0  0  0  0  0  0  0  0  0
  141.9681   72.8457  221.5893 H   0  0  0  0  0  0  0  0  0  0  0  0
  141.2554   70.6842  222.6604 H   0  0  0  0  0  0  0  0  0  0  0  0
  137.8750   74.2933  221.7873 H   0  0  0  0  0  0  0  0  0  0  0  0
  136.5277   72.5540  223.8036 H   0  0  0  0  0  0  0  0  0  0  0  0
  136.1463   71.9100  222.2173 H   0  0  0  0  0  0  0  0  0  0  0  0
  136.8647   70.4152  224.6415 H   0  0  0  0  0  0  0  0  0  0  0  0
  136.5079   69.7143  223.0538 H   0  0  0  0  0  0  0  0  0  0  0  0
  138.5271   68.0772  223.4573 H   0  0  0  0  0  0  0  0  0  0  0  0
  140.1491   68.8214  223.2093 H   0  0  0  0  0  0  0  0  0  0  0  0
  138.8783   66.7625  225.7129 H   0  0  0  0  0  0  0  0  0  0  0  0
  139.6960   67.3550  228.1150 H   0  0  0  0  0  0  0  0  0  0  0  0
  140.7738   69.5603  229.3376 H   0  0  0  0  0  0  0  0  0  0  0  0
  141.5141   71.9283  228.9003 H   0  0  0  0  0  0  0  0  0  0  0  0
  141.2799   72.9186  226.6104 H   0  0  0  0  0  0  0  0  0  0  0  0
  140.2943   71.5525  224.7360 H   0  0  0  0  0  0  0  0  0  0  0  0
  1  2  2  0
  2  3  1  0
  3  4  2  0
  4  5  1  0
  5  6  2  0
  5  7  1  0
  7  8  1  0
  8  9  1  0
  9 10  1  0
 10 11  1  0
 11 12  2  0
 12 13  1  0
 13 14  1  0
 14 15  2  0
 15 16  1  0
 16 17  2  0
 17 18  1  0
 18 19  2  0
  6  1  1  0
 19 11  1  0
  9  4  1  0
 19 14  1  0
  1 20  1  0
  2 21  1  0
  3 22  1  0
  6 23  1  0
  7 24  1  0
  7 25  1  0
  8 26  1  0
  8 27  1  0
 10 28  1  0
 10 29  1  0
 12 30  1  0
 13 31  1  0
 15 32  1  0
 16 33  1  0
 17 34  1  0
 18 35  1  0
M  END
>  <UniqueID>  (62) 
592

>  <SMILES>  (62) 
c1ccc2c(c1)CCN2Cc1c[nH]c2ccccc12

>  <Energy>  (62) 
84.1794849167093

>  <Genealogy>  (62) 
c1ccc2c(c1)CCN2Cc1c[nH]c2ccccc12 (3D coordinates assigned)
c1ccc2c(c1)CCN2Cc1c[nH]c2ccccc12 (nonaromatic ring conformer: 84.1794849167093 kcal/mol)

>  <smiles>  (62) 
c1ccc2c(c1)CCN2Cc1c[nH]c2ccccc12

>  <score_type>  (62) 
oracle

>  <origin>  (62) 
autodockgpu

>  <m_score__min__energy>  (62) 
-6.7300000000000004

>  <m_primary>  (62) 
energy

>  <meeko>  (62) 
{"free_energy": -6.73, "intermolecular_energy": -7.33, "internal_energy": -0.72, "cluster_size": 19, "cluster_id": 1, "rank_in_cluster": 1}

>  <energy>  (62) 
-6.73

>  <cluster_rmsd>  (62) 
0.06

>  <rmsd>  (62) 
273.41

>  <cluster>  (62) 
1

$$$$
HDQBLRJEPZHFRL-UHFFFAOYNA-N
     RDKit          3D

 35 38  0  0  0  0  0  0  0  0999 V2000
  134.6760   71.2510  224.9990 C   0  0  0  0  0  0  0  0  0  0  0  0
  135.1270   69.9910  225.4370 C   0  0  0  0  0  0  0  0  0  0  0  0
  136.3530   69.4800  224.9800 C   0  0  0  0  0  0  0  0  0  0  0  0
  137.1100   70.2580  224.0940 C   0  0  0  0  0  0  0  0  0  0  0  0
  136.6640   71.4790  223.6640 C   0  0  0  0  0  0  0  0  0  0  0  0
  135.4490   72.0050  224.1020 C   0  0  0  0  0  0  0  0  0  0  0  0
  137.6330   72.0890  222.7120 C   0  0  0  0  0  0  0  0  0  0  0  0
  138.7630   71.0370  222.6250 C   0  0  0  0  0  0  0  0  0  0  0  0
  138.3640   69.9370  223.5080 N   0  0  0  0  0  0  0  0  0  0  0  0
  139.1840   68.7520  223.7590 C   0  0  0  0  0  0  0  0  0  0  0  0
  139.5610   68.6810  225.2070 C   0  0  0  0  0  0  0  0  0  0  0  0
  139.6130   67.5320  225.9920 C   0  0  0  0  0  0  0  0  0  0  0  0
  140.0800   67.8250  227.2270 N   0  0  0  0  0  0  0  0  0  0  0  0
  140.3350   69.1450  227.2250 C   0  0  0  0  0  0  0  0  0  0  0  0
  140.8530   69.9060  228.2720 C   0  0  0  0  0  0  0  0  0  0  0  0
  141.0630   71.2780  228.0460 C   0  0  0  0  0  0  0  0  0  0  0  0
  140.7560   71.8520  226.7920 C   0  0  0  0  0  0  0  0  0  0  0  0
  140.2360   71.0590  225.7540 C   0  0  0  0  0  0  0  0  0  0  0  0
  140.0350   69.7030  226.0080 C   0  0  0  0  0  0  0  0  0  0  0  0
  133.7151   71.6456  225.3608 H   0  0  0  0  0  0  0  0  0  0  0  0
  134.5169   69.4046  226.1398 H   0  0  0  0  0  0  0  0  0  0  0  0
  136.7101   68.4932  225.3096 H   0  0  0  0  0  0  0  0  0  0  0  0
  135.1039   72.9892  223.7523 H   0  0  0  0  0  0  0  0  0  0  0  0
  137.1690   72.2502  221.7278 H   0  0  0  0  0  0  0  0  0  0  0  0
  137.9908   73.0767  223.0383 H   0  0  0  0  0  0  0  0  0  0  0  0
  138.8704   70.6768  221.5912 H   0  0  0  0  0  0  0  0  0  0  0  0
  139.7318   71.4624  222.9259 H   0  0  0  0  0  0  0  0  0  0  0  0
  138.6138   67.8514  223.4874 H   0  0  0  0  0  0  0  0  0  0  0  0
  140.0995   68.8140  223.1524 H   0  0  0  0  0  0  0  0  0  0  0  0
  139.3162   66.5278  225.6552 H   0  0  0  0  0  0  0  0  0  0  0  0
  140.2280   67.1540  228.0140 H   0  0  0  0  0  0  0  0  0  0  0  0
  141.0898   69.4480  229.2437 H   0  0  0  0  0  0  0  0  0  0  0  0
  141.4690   71.9085  228.8508 H   0  0  0  0  0  0  0  0  0  0  0  0
  140.9249   72.9263  226.6268 H   0  0  0  0  0  0  0  0  0  0  0  0
  139.9954   71.4945  224.7729 H   0  0  0  0  0  0  0  0  0  0  0  0
  1  2  2  0
  2  3  1  0
  3  4  2  0
  4  5  1  0
  5  6  2  0
  5  7  1  0
  7  8  1  0
  8  9  1  0
  9 10  1  0
 10 11  1  0
 11 12  2  0
 12 13  1  0
 13 14  1  0
 14 15  2  0
 15 16  1  0
 16 17  2  0
 17 18  1  0
 18 19  2  0
  6  1  1  0
 19 11  1  0
  9  4  1  0
 19 14  1  0
  1 20  1  0
  2 21  1  0
  3 22  1  0
  6 23  1  0
  7 24  1  0
  7 25  1  0
  8 26  1  0
  8 27  1  0
 10 28  1  0
 10 29  1  0
 12 30  1  0
 13 31  1  0
 15 32  1  0
 16 33  1  0
 17 34  1  0
 18 35  1  0
M  END
>  <UniqueID>  (63) 
592

>  <SMILES>  (63) 
c1ccc2c(c1)CCN2Cc1c[nH]c2ccccc12

>  <Energy>  (63) 
84.1794849167093

>  <Genealogy>  (63) 
c1ccc2c(c1)CCN2Cc1c[nH]c2ccccc12 (3D coordinates assigned)
c1ccc2c(c1)CCN2Cc1c[nH]c2ccccc12 (nonaromatic ring conformer: 84.1794849167093 kcal/mol)

>  <smiles>  (63) 
c1ccc2c(c1)CCN2Cc1c[nH]c2ccccc12

>  <score_type>  (63) 
oracle

>  <origin>  (63) 
autodockgpu

>  <m_score__min__energy>  (63) 
-6.7300000000000004

>  <m_primary>  (63) 
energy

>  <meeko>  (63) 
{"free_energy": -6.64, "intermolecular_energy": -7.24, "internal_energy": -0.8, "cluster_size": 19, "cluster_id": 1, "rank_in_cluster": 19}

>  <energy>  (63) 
-6.73

>  <cluster_rmsd>  (63) 
0.05

>  <rmsd>  (63) 
273.39

>  <cluster>  (63) 
1

$$$$
HDQBLRJEPZHFRL-UHFFFAOYNA-N
     RDKit          3D

 35 38  0  0  0  0  0  0  0  0999 V2000
  139.9320   73.7200  221.5840 C   0  0  0  0  0  0  0  0  0  0  0  0
  140.8830   72.7060  221.8130 C   0  0  0  0  0  0  0  0  0  0  0  0
  140.4990   71.4990  222.4190 C   0  0  0  0  0  0  0  0  0  0  0  0
  139.1550   71.3310  222.7770 C   0  0  0  0  0  0  0  0  0  0  0  0
  138.2350   72.3220  222.5600 C   0  0  0  0  0  0  0  0  0  0  0  0
  138.5940   73.5300  221.9620 C   0  0  0  0  0  0  0  0  0  0  0  0
  136.8910   71.9100  223.0500 C   0  0  0  0  0  0  0  0  0  0  0  0
  137.1310   70.4870  223.6070 C   0  0  0  0  0  0  0  0  0  0  0  0
  138.5540   70.2050  223.4000 N   0  0  0  0  0  0  0  0  0  0  0  0
  139.1920   68.9330  223.7410 C   0  0  0  0  0  0  0  0  0  0  0  0
  139.4520   68.8630  225.2150 C   0  0  0  0  0  0  0  0  0  0  0  0
  139.2870   67.7470  226.0300 C   0  0  0  0  0  0  0  0  0  0  0  0
  139.7020   68.0170  227.2890 N   0  0  0  0  0  0  0  0  0  0  0  0
  140.1390   69.2880  227.2720 C   0  0  0  0  0  0  0  0  0  0  0  0
  140.6830   70.0080  228.3360 C   0  0  0  0  0  0  0  0  0  0  0  0
  141.0980   71.3280  228.0910 C   0  0  0  0  0  0  0  0  0  0  0  0
  140.9640   71.8940  226.8030 C   0  0  0  0  0  0  0  0  0  0  0  0
  140.4120   71.1430  225.7490 C   0  0  0  0  0  0  0  0  0  0  0  0
  140.0070   69.8380  226.0220 C   0  0  0  0  0  0  0  0  0  0  0  0
  140.2391   74.6628  221.1078 H   0  0  0  0  0  0  0  0  0  0  0  0
  141.9307   72.8606  221.5158 H   0  0  0  0  0  0  0  0  0  0  0  0
  141.2358   70.7044  222.6081 H   0  0  0  0  0  0  0  0  0  0  0  0
  137.8445   74.3167  221.7905 H   0  0  0  0  0  0  0  0  0  0  0  0
  136.5361   72.5872  223.8409 H   0  0  0  0  0  0  0  0  0  0  0  0
  136.1211   71.9388  222.2649 H   0  0  0  0  0  0  0  0  0  0  0  0
  136.8863   70.4501  224.6788 H   0  0  0  0  0  0  0  0  0  0  0  0
  136.4962   69.7447  223.1010 H   0  0  0  0  0  0  0  0  0  0  0  0
  138.5297   68.1046  223.4492 H   0  0  0  0  0  0  0  0  0  0  0  0
  140.1488   68.8561  223.2038 H   0  0  0  0  0  0  0  0  0  0  0  0
  138.8771   66.7819  225.6975 H   0  0  0  0  0  0  0  0  0  0  0  0
  139.6980   67.3600  228.1020 H   0  0  0  0  0  0  0  0  0  0  0  0
  140.7838   69.5571  229.3342 H   0  0  0  0  0  0  0  0  0  0  0  0
  141.5303   71.9250  228.9076 H   0  0  0  0  0  0  0  0  0  0  0  0
  141.2933   72.9281  226.6234 H   0  0  0  0  0  0  0  0  0  0  0  0
  140.3037   71.5722  224.7420 H   0  0  0  0  0  0  0  0  0  0  0  0
  1  2  2  0
  2  3  1  0
  3  4  2  0
  4  5  1  0
  5  6  2  0
  5  7  1  0
  7  8  1  0
  8  9  1  0
  9 10  1  0
 10 11  1  0
 11 12  2  0
 12 13  1  0
 13 14  1  0
 14 15  2  0
 15 16  1  0
 16 17  2  0
 17 18  1  0
 18 19  2  0
  6  1  1  0
 19 11  1  0
  9  4  1  0
 19 14  1  0
  1 20  1  0
  2 21  1  0
  3 22  1  0
  6 23  1  0
  7 24  1  0
  7 25  1  0
  8 26  1  0
  8 27  1  0
 10 28  1  0
 10 29  1  0
 12 30  1  0
 13 31  1  0
 15 32  1  0
 16 33  1  0
 17 34  1  0
 18 35  1  0
M  END
>  <UniqueID>  (64) 
592

>  <SMILES>  (64) 
c1ccc2c(c1)CCN2Cc1c[nH]c2ccccc12

>  <Energy>  (64) 
84.1794849167093

>  <Genealogy>  (64) 
c1ccc2c(c1)CCN2Cc1c[nH]c2ccccc12 (3D coordinates assigned)
c1ccc2c(c1)CCN2Cc1c[nH]c2ccccc12 (nonaromatic ring conformer: 84.1794849167093 kcal/mol)

>  <smiles>  (64) 
c1ccc2c(c1)CCN2Cc1c[nH]c2ccccc12

>  <score_type>  (64) 
oracle

>  <origin>  (64) 
autodockgpu

>  <m_score__min__energy>  (64) 
-6.7300000000000004

>  <m_primary>  (64) 
energy

>  <meeko>  (64) 
{"free_energy": -6.72, "intermolecular_energy": -7.32, "internal_energy": -0.73, "cluster_size": 19, "cluster_id": 1, "rank_in_cluster": 14}

>  <energy>  (64) 
-6.73

>  <cluster_rmsd>  (64) 
0.04

>  <rmsd>  (64) 
273.4

>  <cluster>  (64) 
1

$$$$
HDQBLRJEPZHFRL-UHFFFAOYNA-N
     RDKit          3D

 35 38  0  0  0  0  0  0  0  0999 V2000
  139.9050   73.7280  221.5980 C   0  0  0  0  0  0  0  0  0  0  0  0
  140.8650   72.7230  221.8240 C   0  0  0  0  0  0  0  0  0  0  0  0
  140.4910   71.5090  222.4230 C   0  0  0  0  0  0  0  0  0  0  0  0
  139.1480   71.3270  222.7780 C   0  0  0  0  0  0  0  0  0  0  0  0
  138.2190   72.3100  222.5640 C   0  0  0  0  0  0  0  0  0  0  0  0
  138.5680   73.5250  221.9730 C   0  0  0  0  0  0  0  0  0  0  0  0
  136.8780   71.8830  223.0510 C   0  0  0  0  0  0  0  0  0  0  0  0
  137.1310   70.4600  223.6010 C   0  0  0  0  0  0  0  0  0  0  0  0
  138.5570   70.1920  223.3950 N   0  0  0  0  0  0  0  0  0  0  0  0
  139.2060   68.9250  223.7300 C   0  0  0  0  0  0  0  0  0  0  0  0
  139.4650   68.8500  225.2050 C   0  0  0  0  0  0  0  0  0  0  0  0
  139.3030   67.7300  226.0150 C   0  0  0  0  0  0  0  0  0  0  0  0
  139.7150   67.9960  227.2760 N   0  0  0  0  0  0  0  0  0  0  0  0
  140.1470   69.2690  227.2640 C   0  0  0  0  0  0  0  0  0  0  0  0
  140.6880   69.9870  228.3310 C   0  0  0  0  0  0  0  0  0  0  0  0
  141.0980   71.3100  228.0920 C   0  0  0  0  0  0  0  0  0  0  0  0
  140.9640   71.8800  226.8060 C   0  0  0  0  0  0  0  0  0  0  0  0
  140.4160   71.1310  225.7490 C   0  0  0  0  0  0  0  0  0  0  0  0
  140.0150   69.8230  226.0160 C   0  0  0  0  0  0  0  0  0  0  0  0
  140.2041   74.6755  221.1259 H   0  0  0  0  0  0  0  0  0  0  0  0
  141.9119   72.8894  221.5303 H   0  0  0  0  0  0  0  0  0  0  0  0
  141.2346   70.7201  222.6090 H   0  0  0  0  0  0  0  0  0  0  0  0
  137.8120   74.3062  221.8048 H   0  0  0  0  0  0  0  0  0  0  0  0
  136.5162   72.5530  223.8449 H   0  0  0  0  0  0  0  0  0  0  0  0
  136.1084   71.9086  222.2655 H   0  0  0  0  0  0  0  0  0  0  0  0
  136.8851   70.4155  224.6722 H   0  0  0  0  0  0  0  0  0  0  0  0
  136.5041   69.7144  223.0900 H   0  0  0  0  0  0  0  0  0  0  0  0
  138.5518   68.0920  223.4331 H   0  0  0  0  0  0  0  0  0  0  0  0
  140.1641   68.8596  223.1935 H   0  0  0  0  0  0  0  0  0  0  0  0
  138.8973   66.7648  225.6777 H   0  0  0  0  0  0  0  0  0  0  0  0
  139.7130   67.3370  228.0860 H   0  0  0  0  0  0  0  0  0  0  0  0
  140.7904   69.5322  229.3273 H   0  0  0  0  0  0  0  0  0  0  0  0
  141.5261   71.9057  228.9116 H   0  0  0  0  0  0  0  0  0  0  0  0
  141.2902   72.9157  226.6304 H   0  0  0  0  0  0  0  0  0  0  0  0
  140.3073   71.5638  224.7436 H   0  0  0  0  0  0  0  0  0  0  0  0
  1  2  2  0
  2  3  1  0
  3  4  2  0
  4  5  1  0
  5  6  2  0
  5  7  1  0
  7  8  1  0
  8  9  1  0
  9 10  1  0
 10 11  1  0
 11 12  2  0
 12 13  1  0
 13 14  1  0
 14 15  2  0
 15 16  1  0
 16 17  2  0
 17 18  1  0
 18 19  2  0
  6  1  1  0
 19 11  1  0
  9  4  1  0
 19 14  1  0
  1 20  1  0
  2 21  1  0
  3 22  1  0
  6 23  1  0
  7 24  1  0
  7 25  1  0
  8 26  1  0
  8 27  1  0
 10 28  1  0
 10 29  1  0
 12 30  1  0
 13 31  1  0
 15 32  1  0
 16 33  1  0
 17 34  1  0
 18 35  1  0
M  END
>  <UniqueID>  (65) 
592

>  <SMILES>  (65) 
c1ccc2c(c1)CCN2Cc1c[nH]c2ccccc12

>  <Energy>  (65) 
84.1794849167093

>  <Genealogy>  (65) 
c1ccc2c(c1)CCN2Cc1c[nH]c2ccccc12 (3D coordinates assigned)
c1ccc2c(c1)CCN2Cc1c[nH]c2ccccc12 (nonaromatic ring conformer: 84.1794849167093 kcal/mol)

>  <smiles>  (65) 
c1ccc2c(c1)CCN2Cc1c[nH]c2ccccc12

>  <score_type>  (65) 
oracle

>  <origin>  (65) 
autodockgpu

>  <m_score__min__energy>  (65) 
-6.7300000000000004

>  <m_primary>  (65) 
energy

>  <meeko>  (65) 
{"free_energy": -6.72, "intermolecular_energy": -7.32, "internal_energy": -0.73, "cluster_size": 19, "cluster_id": 1, "rank_in_cluster": 15}

>  <energy>  (65) 
-6.73

>  <cluster_rmsd>  (65) 
0.04

>  <rmsd>  (65) 
273.4

>  <cluster>  (65) 
1

$$$$
HDQBLRJEPZHFRL-UHFFFAOYNA-N
     RDKit          3D

 35 38  0  0  0  0  0  0  0  0999 V2000
  139.9270   73.6930  221.5850 C   0  0  0  0  0  0  0  0  0  0  0  0
  140.8820   72.6820  221.8130 C   0  0  0  0  0  0  0  0  0  0  0  0
  140.5020   71.4750  222.4230 C   0  0  0  0  0  0  0  0  0  0  0  0
  139.1590   71.3050  222.7860 C   0  0  0  0  0  0  0  0  0  0  0  0
  138.2360   72.2930  222.5690 C   0  0  0  0  0  0  0  0  0  0  0  0
  138.5910   73.5010  221.9670 C   0  0  0  0  0  0  0  0  0  0  0  0
  136.8950   71.8790  223.0650 C   0  0  0  0  0  0  0  0  0  0  0  0
  137.1410   70.4580  223.6240 C   0  0  0  0  0  0  0  0  0  0  0  0
  138.5640   70.1790  223.4140 N   0  0  0  0  0  0  0  0  0  0  0  0
  139.2060   68.9090  223.7550 C   0  0  0  0  0  0  0  0  0  0  0  0
  139.4690   68.8420  225.2290 C   0  0  0  0  0  0  0  0  0  0  0  0
  139.3170   67.7240  226.0450 C   0  0  0  0  0  0  0  0  0  0  0  0
  139.7300   67.9990  227.3030 N   0  0  0  0  0  0  0  0  0  0  0  0
  140.1530   69.2750  227.2860 C   0  0  0  0  0  0  0  0  0  0  0  0
  140.6900   70.0010  228.3480 C   0  0  0  0  0  0  0  0  0  0  0  0
  141.0900   71.3260  228.1030 C   0  0  0  0  0  0  0  0  0  0  0  0
  140.9480   71.8900  226.8150 C   0  0  0  0  0  0  0  0  0  0  0  0
  140.4040   71.1330  225.7620 C   0  0  0  0  0  0  0  0  0  0  0  0
  140.0130   69.8230  226.0350 C   0  0  0  0  0  0  0  0  0  0  0  0
  140.2302   74.6357  221.1060 H   0  0  0  0  0  0  0  0  0  0  0  0
  141.9285   72.8385  221.5123 H   0  0  0  0  0  0  0  0  0  0  0  0
  141.2409   70.6822  222.6113 H   0  0  0  0  0  0  0  0  0  0  0  0
  137.8394   74.2857  221.7957 H   0  0  0  0  0  0  0  0  0  0  0  0
  136.5415   72.5570  223.8558 H   0  0  0  0  0  0  0  0  0  0  0  0
  136.1218   71.9043  222.2830 H   0  0  0  0  0  0  0  0  0  0  0  0
  136.8993   70.4226  224.6965 H   0  0  0  0  0  0  0  0  0  0  0  0
  136.5071   69.7131  223.1208 H   0  0  0  0  0  0  0  0  0  0  0  0
  138.5453   68.0785  223.4656 H   0  0  0  0  0  0  0  0  0  0  0  0
  140.1618   68.8335  223.2158 H   0  0  0  0  0  0  0  0  0  0  0  0
  138.9175   66.7543  225.7133 H   0  0  0  0  0  0  0  0  0  0  0  0
  139.7350   67.3430  228.1160 H   0  0  0  0  0  0  0  0  0  0  0  0
  140.7973   69.5512  229.3461 H   0  0  0  0  0  0  0  0  0  0  0  0
  141.5163   71.9279  228.9191 H   0  0  0  0  0  0  0  0  0  0  0  0
  141.2650   72.9278  226.6349 H   0  0  0  0  0  0  0  0  0  0  0  0
  140.2906   71.5609  224.7550 H   0  0  0  0  0  0  0  0  0  0  0  0
  1  2  2  0
  2  3  1  0
  3  4  2  0
  4  5  1  0
  5  6  2  0
  5  7  1  0
  7  8  1  0
  8  9  1  0
  9 10  1  0
 10 11  1  0
 11 12  2  0
 12 13  1  0
 13 14  1  0
 14 15  2  0
 15 16  1  0
 16 17  2  0
 17 18  1  0
 18 19  2  0
  6  1  1  0
 19 11  1  0
  9  4  1  0
 19 14  1  0
  1 20  1  0
  2 21  1  0
  3 22  1  0
  6 23  1  0
  7 24  1  0
  7 25  1  0
  8 26  1  0
  8 27  1  0
 10 28  1  0
 10 29  1  0
 12 30  1  0
 13 31  1  0
 15 32  1  0
 16 33  1  0
 17 34  1  0
 18 35  1  0
M  END
>  <UniqueID>  (66) 
592

>  <SMILES>  (66) 
c1ccc2c(c1)CCN2Cc1c[nH]c2ccccc12

>  <Energy>  (66) 
84.1794849167093

>  <Genealogy>  (66) 
c1ccc2c(c1)CCN2Cc1c[nH]c2ccccc12 (3D coordinates assigned)
c1ccc2c(c1)CCN2Cc1c[nH]c2ccccc12 (nonaromatic ring conformer: 84.1794849167093 kcal/mol)

>  <smiles>  (66) 
c1ccc2c(c1)CCN2Cc1c[nH]c2ccccc12

>  <score_type>  (66) 
oracle

>  <origin>  (66) 
autodockgpu

>  <m_score__min__energy>  (66) 
-6.7300000000000004

>  <m_primary>  (66) 
energy

>  <meeko>  (66) 
{"free_energy": -6.72, "intermolecular_energy": -7.32, "internal_energy": -0.73, "cluster_size": 19, "cluster_id": 1, "rank_in_cluster": 9}

>  <energy>  (66) 
-6.73

>  <cluster_rmsd>  (66) 
0.04

>  <rmsd>  (66) 
273.4

>  <cluster>  (66) 
1

$$$$
HDQBLRJEPZHFRL-UHFFFAOYNA-N
     RDKit          3D

 35 38  0  0  0  0  0  0  0  0999 V2000
  139.9120   73.7430  221.5970 C   0  0  0  0  0  0  0  0  0  0  0  0
  140.8710   72.7370  221.8240 C   0  0  0  0  0  0  0  0  0  0  0  0
  140.4940   71.5230  222.4220 C   0  0  0  0  0  0  0  0  0  0  0  0
  139.1500   71.3420  222.7730 C   0  0  0  0  0  0  0  0  0  0  0  0
  138.2230   72.3260  222.5580 C   0  0  0  0  0  0  0  0  0  0  0  0
  138.5740   73.5400  221.9680 C   0  0  0  0  0  0  0  0  0  0  0  0
  136.8800   71.9000  223.0410 C   0  0  0  0  0  0  0  0  0  0  0  0
  137.1300   70.4760  223.5910 C   0  0  0  0  0  0  0  0  0  0  0  0
  138.5560   70.2070  223.3880 N   0  0  0  0  0  0  0  0  0  0  0  0
  139.2040   68.9390  223.7240 C   0  0  0  0  0  0  0  0  0  0  0  0
  139.4610   68.8640  225.1990 C   0  0  0  0  0  0  0  0  0  0  0  0
  139.3030   67.7420  226.0080 C   0  0  0  0  0  0  0  0  0  0  0  0
  139.7130   68.0090  227.2690 N   0  0  0  0  0  0  0  0  0  0  0  0
  140.1380   69.2840  227.2600 C   0  0  0  0  0  0  0  0  0  0  0  0
  140.6740   70.0040  228.3280 C   0  0  0  0  0  0  0  0  0  0  0  0
  141.0780   71.3290  228.0910 C   0  0  0  0  0  0  0  0  0  0  0  0
  140.9420   71.9000  226.8050 C   0  0  0  0  0  0  0  0  0  0  0  0
  140.3990   71.1500  225.7470 C   0  0  0  0  0  0  0  0  0  0  0  0
  140.0050   69.8390  226.0120 C   0  0  0  0  0  0  0  0  0  0  0  0
  140.2128   74.6911  221.1273 H   0  0  0  0  0  0  0  0  0  0  0  0
  141.9186   72.9023  221.5321 H   0  0  0  0  0  0  0  0  0  0  0  0
  141.2364   70.7334  222.6101 H   0  0  0  0  0  0  0  0  0  0  0  0
  137.8186   74.3212  221.7973 H   0  0  0  0  0  0  0  0  0  0  0  0
  136.5166   72.5698  223.8343 H   0  0  0  0  0  0  0  0  0  0  0  0
  136.1127   71.9268  222.2533 H   0  0  0  0  0  0  0  0  0  0  0  0
  136.8816   70.4311  224.6616 H   0  0  0  0  0  0  0  0  0  0  0  0
  136.5034   69.7313  223.0784 H   0  0  0  0  0  0  0  0  0  0  0  0
  138.5496   68.1064  223.4264 H   0  0  0  0  0  0  0  0  0  0  0  0
  140.1627   68.8729  223.1887 H   0  0  0  0  0  0  0  0  0  0  0  0
  138.9016   66.7754  225.6696 H   0  0  0  0  0  0  0  0  0  0  0  0
  139.7130   67.3490  228.0790 H   0  0  0  0  0  0  0  0  0  0  0  0
  140.7771   69.5490  229.3241 H   0  0  0  0  0  0  0  0  0  0  0  0
  141.5029   71.9257  228.9116 H   0  0  0  0  0  0  0  0  0  0  0  0
  141.2630   72.9376  226.6310 H   0  0  0  0  0  0  0  0  0  0  0  0
  140.2885   71.5837  224.7421 H   0  0  0  0  0  0  0  0  0  0  0  0
  1  2  2  0
  2  3  1  0
  3  4  2  0
  4  5  1  0
  5  6  2  0
  5  7  1  0
  7  8  1  0
  8  9  1  0
  9 10  1  0
 10 11  1  0
 11 12  2  0
 12 13  1  0
 13 14  1  0
 14 15  2  0
 15 16  1  0
 16 17  2  0
 17 18  1  0
 18 19  2  0
  6  1  1  0
 19 11  1  0
  9  4  1  0
 19 14  1  0
  1 20  1  0
  2 21  1  0
  3 22  1  0
  6 23  1  0
  7 24  1  0
  7 25  1  0
  8 26  1  0
  8 27  1  0
 10 28  1  0
 10 29  1  0
 12 30  1  0
 13 31  1  0
 15 32  1  0
 16 33  1  0
 17 34  1  0
 18 35  1  0
M  END
>  <UniqueID>  (67) 
592

>  <SMILES>  (67) 
c1ccc2c(c1)CCN2Cc1c[nH]c2ccccc12

>  <Energy>  (67) 
84.1794849167093

>  <Genealogy>  (67) 
c1ccc2c(c1)CCN2Cc1c[nH]c2ccccc12 (3D coordinates assigned)
c1ccc2c(c1)CCN2Cc1c[nH]c2ccccc12 (nonaromatic ring conformer: 84.1794849167093 kcal/mol)

>  <smiles>  (67) 
c1ccc2c(c1)CCN2Cc1c[nH]c2ccccc12

>  <score_type>  (67) 
oracle

>  <origin>  (67) 
autodockgpu

>  <m_score__min__energy>  (67) 
-6.7300000000000004

>  <m_primary>  (67) 
energy

>  <meeko>  (67) 
{"free_energy": -6.73, "intermolecular_energy": -7.32, "internal_energy": -0.73, "cluster_size": 19, "cluster_id": 1, "rank_in_cluster": 7}

>  <energy>  (67) 
-6.73

>  <cluster_rmsd>  (67) 
0.04

>  <rmsd>  (67) 
273.39

>  <cluster>  (67) 
1

$$$$
HDQBLRJEPZHFRL-UHFFFAOYNA-N
     RDKit          3D

 35 38  0  0  0  0  0  0  0  0999 V2000
  139.9370   73.6770  221.5950 C   0  0  0  0  0  0  0  0  0  0  0  0
  140.8910   72.6650  221.8160 C   0  0  0  0  0  0  0  0  0  0  0  0
  140.5140   71.4560  222.4230 C   0  0  0  0  0  0  0  0  0  0  0  0
  139.1730   71.2850  222.7900 C   0  0  0  0  0  0  0  0  0  0  0  0
  138.2490   72.2740  222.5820 C   0  0  0  0  0  0  0  0  0  0  0  0
  138.6020   73.4840  221.9830 C   0  0  0  0  0  0  0  0  0  0  0  0
  136.9100   71.8590  223.0810 C   0  0  0  0  0  0  0  0  0  0  0  0
  137.1570   70.4360  223.6340 C   0  0  0  0  0  0  0  0  0  0  0  0
  138.5790   70.1570  223.4160 N   0  0  0  0  0  0  0  0  0  0  0  0
  139.2220   68.8860  223.7500 C   0  0  0  0  0  0  0  0  0  0  0  0
  139.5030   68.8180  225.2200 C   0  0  0  0  0  0  0  0  0  0  0  0
  139.3910   67.6920  226.0320 C   0  0  0  0  0  0  0  0  0  0  0  0
  139.8120   67.9720  227.2870 N   0  0  0  0  0  0  0  0  0  0  0  0
  140.1980   69.2590  227.2710 C   0  0  0  0  0  0  0  0  0  0  0  0
  140.7270   69.9940  228.3320 C   0  0  0  0  0  0  0  0  0  0  0  0
  141.0880   71.3310  228.0890 C   0  0  0  0  0  0  0  0  0  0  0  0
  140.9160   71.8980  226.8060 C   0  0  0  0  0  0  0  0  0  0  0  0
  140.3810   71.1320  225.7560 C   0  0  0  0  0  0  0  0  0  0  0  0
  140.0300   69.8100  226.0260 C   0  0  0  0  0  0  0  0  0  0  0  0
  140.2387   74.6208  221.1173 H   0  0  0  0  0  0  0  0  0  0  0  0
  141.9363   72.8222  221.5118 H   0  0  0  0  0  0  0  0  0  0  0  0
  141.2537   70.6627  222.6058 H   0  0  0  0  0  0  0  0  0  0  0  0
  137.8500   74.2698  221.8184 H   0  0  0  0  0  0  0  0  0  0  0  0
  136.5596   72.5344  223.8754 H   0  0  0  0  0  0  0  0  0  0  0  0
  136.1342   71.8875  222.3017 H   0  0  0  0  0  0  0  0  0  0  0  0
  136.9204   70.3971  224.7076 H   0  0  0  0  0  0  0  0  0  0  0  0
  136.5199   69.6932  223.1317 H   0  0  0  0  0  0  0  0  0  0  0  0
  138.5559   68.0570  223.4688 H   0  0  0  0  0  0  0  0  0  0  0  0
  140.1712   68.8088  223.1995 H   0  0  0  0  0  0  0  0  0  0  0  0
  139.0137   66.7135  225.7000 H   0  0  0  0  0  0  0  0  0  0  0  0
  139.8430   67.3120  228.0960 H   0  0  0  0  0  0  0  0  0  0  0  0
  140.8575   69.5423  229.3265 H   0  0  0  0  0  0  0  0  0  0  0  0
  141.5073   71.9400  228.9034 H   0  0  0  0  0  0  0  0  0  0  0  0
  141.2025   72.9450  226.6281 H   0  0  0  0  0  0  0  0  0  0  0  0
  140.2436   71.5620  224.7529 H   0  0  0  0  0  0  0  0  0  0  0  0
  1  2  2  0
  2  3  1  0
  3  4  2  0
  4  5  1  0
  5  6  2  0
  5  7  1  0
  7  8  1  0
  8  9  1  0
  9 10  1  0
 10 11  1  0
 11 12  2  0
 12 13  1  0
 13 14  1  0
 14 15  2  0
 15 16  1  0
 16 17  2  0
 17 18  1  0
 18 19  2  0
  6  1  1  0
 19 11  1  0
  9  4  1  0
 19 14  1  0
  1 20  1  0
  2 21  1  0
  3 22  1  0
  6 23  1  0
  7 24  1  0
  7 25  1  0
  8 26  1  0
  8 27  1  0
 10 28  1  0
 10 29  1  0
 12 30  1  0
 13 31  1  0
 15 32  1  0
 16 33  1  0
 17 34  1  0
 18 35  1  0
M  END
>  <UniqueID>  (68) 
592

>  <SMILES>  (68) 
c1ccc2c(c1)CCN2Cc1c[nH]c2ccccc12

>  <Energy>  (68) 
84.1794849167093

>  <Genealogy>  (68) 
c1ccc2c(c1)CCN2Cc1c[nH]c2ccccc12 (3D coordinates assigned)
c1ccc2c(c1)CCN2Cc1c[nH]c2ccccc12 (nonaromatic ring conformer: 84.1794849167093 kcal/mol)

>  <smiles>  (68) 
c1ccc2c(c1)CCN2Cc1c[nH]c2ccccc12

>  <score_type>  (68) 
oracle

>  <origin>  (68) 
autodockgpu

>  <m_score__min__energy>  (68) 
-6.7300000000000004

>  <m_primary>  (68) 
energy

>  <meeko>  (68) 
{"free_energy": -6.72, "intermolecular_energy": -7.32, "internal_energy": -0.73, "cluster_size": 19, "cluster_id": 1, "rank_in_cluster": 17}

>  <energy>  (68) 
-6.73

>  <cluster_rmsd>  (68) 
0.05

>  <rmsd>  (68) 
273.39

>  <cluster>  (68) 
1

$$$$
HDQBLRJEPZHFRL-UHFFFAOYNA-N
     RDKit          3D

 35 38  0  0  0  0  0  0  0  0999 V2000
  139.9190   73.6940  221.5730 C   0  0  0  0  0  0  0  0  0  0  0  0
  140.8740   72.6860  221.8010 C   0  0  0  0  0  0  0  0  0  0  0  0
  140.4960   71.4760  222.4070 C   0  0  0  0  0  0  0  0  0  0  0  0
  139.1530   71.3020  222.7650 C   0  0  0  0  0  0  0  0  0  0  0  0
  138.2280   72.2880  222.5480 C   0  0  0  0  0  0  0  0  0  0  0  0
  138.5810   73.4980  221.9510 C   0  0  0  0  0  0  0  0  0  0  0  0
  136.8860   71.8700  223.0380 C   0  0  0  0  0  0  0  0  0  0  0  0
  137.1330   70.4480  223.5950 C   0  0  0  0  0  0  0  0  0  0  0  0
  138.5570   70.1730  223.3880 N   0  0  0  0  0  0  0  0  0  0  0  0
  139.2020   68.9040  223.7280 C   0  0  0  0  0  0  0  0  0  0  0  0
  139.4670   68.8370  225.2010 C   0  0  0  0  0  0  0  0  0  0  0  0
  139.3200   67.7170  226.0160 C   0  0  0  0  0  0  0  0  0  0  0  0
  139.7350   67.9920  227.2740 N   0  0  0  0  0  0  0  0  0  0  0  0
  140.1520   69.2700  227.2570 C   0  0  0  0  0  0  0  0  0  0  0  0
  140.6880   69.9970  228.3200 C   0  0  0  0  0  0  0  0  0  0  0  0
  141.0830   71.3240  228.0750 C   0  0  0  0  0  0  0  0  0  0  0  0
  140.9370   71.8890  226.7870 C   0  0  0  0  0  0  0  0  0  0  0  0
  140.3940   71.1310  225.7350 C   0  0  0  0  0  0  0  0  0  0  0  0
  140.0090   69.8190  226.0080 C   0  0  0  0  0  0  0  0  0  0  0  0
  140.2216   74.6385  221.0972 H   0  0  0  0  0  0  0  0  0  0  0  0
  141.9209   72.8460  221.5035 H   0  0  0  0  0  0  0  0  0  0  0  0
  141.2365   70.6848  222.5957 H   0  0  0  0  0  0  0  0  0  0  0  0
  137.8279   74.2814  221.7801 H   0  0  0  0  0  0  0  0  0  0  0  0
  136.5280   72.5456  223.8289 H   0  0  0  0  0  0  0  0  0  0  0  0
  136.1158   71.8953  222.2531 H   0  0  0  0  0  0  0  0  0  0  0  0
  136.8886   70.4099  224.6668 H   0  0  0  0  0  0  0  0  0  0  0  0
  136.5018   69.7026  223.0890 H   0  0  0  0  0  0  0  0  0  0  0  0
  138.5425   68.0723  223.4392 H   0  0  0  0  0  0  0  0  0  0  0  0
  140.1573   68.8307  223.1876 H   0  0  0  0  0  0  0  0  0  0  0  0
  138.9228   66.7465  225.6839 H   0  0  0  0  0  0  0  0  0  0  0  0
  139.7430   67.3360  228.0860 H   0  0  0  0  0  0  0  0  0  0  0  0
  140.7981   69.5467  229.3176 H   0  0  0  0  0  0  0  0  0  0  0  0
  141.5085   71.9268  228.8909 H   0  0  0  0  0  0  0  0  0  0  0  0
  141.2502   72.9280  226.6071 H   0  0  0  0  0  0  0  0  0  0  0  0
  140.2766   71.5592  224.7286 H   0  0  0  0  0  0  0  0  0  0  0  0
  1  2  2  0
  2  3  1  0
  3  4  2  0
  4  5  1  0
  5  6  2  0
  5  7  1  0
  7  8  1  0
  8  9  1  0
  9 10  1  0
 10 11  1  0
 11 12  2  0
 12 13  1  0
 13 14  1  0
 14 15  2  0
 15 16  1  0
 16 17  2  0
 17 18  1  0
 18 19  2  0
  6  1  1  0
 19 11  1  0
  9  4  1  0
 19 14  1  0
  1 20  1  0
  2 21  1  0
  3 22  1  0
  6 23  1  0
  7 24  1  0
  7 25  1  0
  8 26  1  0
  8 27  1  0
 10 28  1  0
 10 29  1  0
 12 30  1  0
 13 31  1  0
 15 32  1  0
 16 33  1  0
 17 34  1  0
 18 35  1  0
M  END
>  <UniqueID>  (69) 
592

>  <SMILES>  (69) 
c1ccc2c(c1)CCN2Cc1c[nH]c2ccccc12

>  <Energy>  (69) 
84.1794849167093

>  <Genealogy>  (69) 
c1ccc2c(c1)CCN2Cc1c[nH]c2ccccc12 (3D coordinates assigned)
c1ccc2c(c1)CCN2Cc1c[nH]c2ccccc12 (nonaromatic ring conformer: 84.1794849167093 kcal/mol)

>  <smiles>  (69) 
c1ccc2c(c1)CCN2Cc1c[nH]c2ccccc12

>  <score_type>  (69) 
oracle

>  <origin>  (69) 
autodockgpu

>  <m_score__min__energy>  (69) 
-6.7300000000000004

>  <m_primary>  (69) 
energy

>  <meeko>  (69) 
{"free_energy": -6.72, "intermolecular_energy": -7.32, "internal_energy": -0.73, "cluster_size": 19, "cluster_id": 1, "rank_in_cluster": 13}

>  <energy>  (69) 
-6.72

>  <cluster_rmsd>  (69) 
0.03

>  <rmsd>  (69) 
273.4

>  <cluster>  (69) 
1

$$$$
HDQBLRJEPZHFRL-UHFFFAOYNA-N
     RDKit          3D

 35 38  0  0  0  0  0  0  0  0999 V2000
  139.9490   73.7260  221.5750 C   0  0  0  0  0  0  0  0  0  0  0  0
  140.9000   72.7150  221.8130 C   0  0  0  0  0  0  0  0  0  0  0  0
  140.5140   71.5070  222.4180 C   0  0  0  0  0  0  0  0  0  0  0  0
  139.1670   71.3370  222.7640 C   0  0  0  0  0  0  0  0  0  0  0  0
  138.2460   72.3250  222.5390 C   0  0  0  0  0  0  0  0  0  0  0  0
  138.6070   73.5330  221.9420 C   0  0  0  0  0  0  0  0  0  0  0  0
  136.8990   71.9110  223.0180 C   0  0  0  0  0  0  0  0  0  0  0  0
  137.1380   70.4890  223.5790 C   0  0  0  0  0  0  0  0  0  0  0  0
  138.5640   70.2100  223.3840 N   0  0  0  0  0  0  0  0  0  0  0  0
  139.2020   68.9400  223.7320 C   0  0  0  0  0  0  0  0  0  0  0  0
  139.4470   68.8710  225.2090 C   0  0  0  0  0  0  0  0  0  0  0  0
  139.2680   67.7570  226.0240 C   0  0  0  0  0  0  0  0  0  0  0  0
  139.6720   68.0260  227.2860 N   0  0  0  0  0  0  0  0  0  0  0  0
  140.1150   69.2950  227.2720 C   0  0  0  0  0  0  0  0  0  0  0  0
  140.6520   70.0140  228.3400 C   0  0  0  0  0  0  0  0  0  0  0  0
  141.0760   71.3330  228.0970 C   0  0  0  0  0  0  0  0  0  0  0  0
  140.9570   71.8970  226.8070 C   0  0  0  0  0  0  0  0  0  0  0  0
  140.4130   71.1480  225.7490 C   0  0  0  0  0  0  0  0  0  0  0  0
  139.9980   69.8440  226.0200 C   0  0  0  0  0  0  0  0  0  0  0  0
  140.2579   74.6691  221.1005 H   0  0  0  0  0  0  0  0  0  0  0  0
  141.9497   72.8717  221.5240 H   0  0  0  0  0  0  0  0  0  0  0  0
  141.2510   70.7145  222.6151 H   0  0  0  0  0  0  0  0  0  0  0  0
  137.8570   74.3174  221.7626 H   0  0  0  0  0  0  0  0  0  0  0  0
  136.5359   72.5885  223.8049 H   0  0  0  0  0  0  0  0  0  0  0  0
  136.1355   71.9372  222.2266 H   0  0  0  0  0  0  0  0  0  0  0  0
  136.8846   70.4530  224.6488 H   0  0  0  0  0  0  0  0  0  0  0  0
  136.5092   69.7445  223.0688 H   0  0  0  0  0  0  0  0  0  0  0  0
  138.5451   68.1097  223.4335 H   0  0  0  0  0  0  0  0  0  0  0  0
  140.1646   68.8658  223.2048 H   0  0  0  0  0  0  0  0  0  0  0  0
  138.8560   66.7937  225.6887 H   0  0  0  0  0  0  0  0  0  0  0  0
  139.6570   67.3710  228.1000 H   0  0  0  0  0  0  0  0  0  0  0  0
  140.7410   69.5641  229.3398 H   0  0  0  0  0  0  0  0  0  0  0  0
  141.5031   71.9294  228.9167 H   0  0  0  0  0  0  0  0  0  0  0  0
  141.2924   72.9294  226.6293 H   0  0  0  0  0  0  0  0  0  0  0  0
  140.3177   71.5762  224.7403 H   0  0  0  0  0  0  0  0  0  0  0  0
  1  2  2  0
  2  3  1  0
  3  4  2  0
  4  5  1  0
  5  6  2  0
  5  7  1  0
  7  8  1  0
  8  9  1  0
  9 10  1  0
 10 11  1  0
 11 12  2  0
 12 13  1  0
 13 14  1  0
 14 15  2  0
 15 16  1  0
 16 17  2  0
 17 18  1  0
 18 19  2  0
  6  1  1  0
 19 11  1  0
  9  4  1  0
 19 14  1  0
  1 20  1  0
  2 21  1  0
  3 22  1  0
  6 23  1  0
  7 24  1  0
  7 25  1  0
  8 26  1  0
  8 27  1  0
 10 28  1  0
 10 29  1  0
 12 30  1  0
 13 31  1  0
 15 32  1  0
 16 33  1  0
 17 34  1  0
 18 35  1  0
M  END
>  <UniqueID>  (70) 
592

>  <SMILES>  (70) 
c1ccc2c(c1)CCN2Cc1c[nH]c2ccccc12

>  <Energy>  (70) 
84.1794849167093

>  <Genealogy>  (70) 
c1ccc2c(c1)CCN2Cc1c[nH]c2ccccc12 (3D coordinates assigned)
c1ccc2c(c1)CCN2Cc1c[nH]c2ccccc12 (nonaromatic ring conformer: 84.1794849167093 kcal/mol)

>  <smiles>  (70) 
c1ccc2c(c1)CCN2Cc1c[nH]c2ccccc12

>  <score_type>  (70) 
oracle

>  <origin>  (70) 
autodockgpu

>  <m_score__min__energy>  (70) 
-6.7300000000000004

>  <m_primary>  (70) 
energy

>  <meeko>  (70) 
{"free_energy": -6.72, "intermolecular_energy": -7.32, "internal_energy": -0.73, "cluster_size": 19, "cluster_id": 1, "rank_in_cluster": 11}

>  <energy>  (70) 
-6.72

>  <cluster_rmsd>  (70) 
0.08

>  <rmsd>  (70) 
273.37

>  <cluster>  (70) 
1

$$$$
HDQBLRJEPZHFRL-UHFFFAOYNA-N
     RDKit          3D

 35 38  0  0  0  0  0  0  0  0999 V2000
  139.9110   73.7330  221.5940 C   0  0  0  0  0  0  0  0  0  0  0  0
  140.8700   72.7270  221.8250 C   0  0  0  0  0  0  0  0  0  0  0  0
  140.4920   71.5140  222.4230 C   0  0  0  0  0  0  0  0  0  0  0  0
  139.1470   71.3330  222.7710 C   0  0  0  0  0  0  0  0  0  0  0  0
  138.2200   72.3160  222.5530 C   0  0  0  0  0  0  0  0  0  0  0  0
  138.5720   73.5300  221.9630 C   0  0  0  0  0  0  0  0  0  0  0  0
  136.8770   71.8910  223.0330 C   0  0  0  0  0  0  0  0  0  0  0  0
  137.1260   70.4680  223.5850 C   0  0  0  0  0  0  0  0  0  0  0  0
  138.5530   70.1990  223.3860 N   0  0  0  0  0  0  0  0  0  0  0  0
  139.2000   68.9310  223.7250 C   0  0  0  0  0  0  0  0  0  0  0  0
  139.4460   68.8540  225.2020 C   0  0  0  0  0  0  0  0  0  0  0  0
  139.2630   67.7370  226.0120 C   0  0  0  0  0  0  0  0  0  0  0  0
  139.6690   68.0000  227.2750 N   0  0  0  0  0  0  0  0  0  0  0  0
  140.1180   69.2670  227.2660 C   0  0  0  0  0  0  0  0  0  0  0  0
  140.6590   69.9780  228.3370 C   0  0  0  0  0  0  0  0  0  0  0  0
  141.0890   71.2960  228.0990 C   0  0  0  0  0  0  0  0  0  0  0  0
  140.9720   71.8670  226.8120 C   0  0  0  0  0  0  0  0  0  0  0  0
  140.4220   71.1240  225.7510 C   0  0  0  0  0  0  0  0  0  0  0  0
  140.0020   69.8210  226.0160 C   0  0  0  0  0  0  0  0  0  0  0  0
  140.2125   74.6803  221.1231 H   0  0  0  0  0  0  0  0  0  0  0  0
  141.9184   72.8923  221.5359 H   0  0  0  0  0  0  0  0  0  0  0  0
  141.2342   70.7248  222.6137 H   0  0  0  0  0  0  0  0  0  0  0  0
  137.8169   74.3111  221.7907 H   0  0  0  0  0  0  0  0  0  0  0  0
  136.5118   72.5617  223.8247 H   0  0  0  0  0  0  0  0  0  0  0  0
  136.1113   71.9170  222.2436 H   0  0  0  0  0  0  0  0  0  0  0  0
  136.8748   70.4242  224.6550 H   0  0  0  0  0  0  0  0  0  0  0  0
  136.5010   69.7226  223.0715 H   0  0  0  0  0  0  0  0  0  0  0  0
  138.5488   68.0981  223.4212 H   0  0  0  0  0  0  0  0  0  0  0  0
  140.1628   68.8668  223.1969 H   0  0  0  0  0  0  0  0  0  0  0  0
  138.8472   66.7767  225.6730 H   0  0  0  0  0  0  0  0  0  0  0  0
  139.6520   67.3410  228.0860 H   0  0  0  0  0  0  0  0  0  0  0  0
  140.7465   69.5232  229.3347 H   0  0  0  0  0  0  0  0  0  0  0  0
  141.5196   71.8865  228.9211 H   0  0  0  0  0  0  0  0  0  0  0  0
  141.3128   72.8983  226.6383 H   0  0  0  0  0  0  0  0  0  0  0  0
  140.3264   71.5574  224.7445 H   0  0  0  0  0  0  0  0  0  0  0  0
  1  2  2  0
  2  3  1  0
  3  4  2  0
  4  5  1  0
  5  6  2  0
  5  7  1  0
  7  8  1  0
  8  9  1  0
  9 10  1  0
 10 11  1  0
 11 12  2  0
 12 13  1  0
 13 14  1  0
 14 15  2  0
 15 16  1  0
 16 17  2  0
 17 18  1  0
 18 19  2  0
  6  1  1  0
 19 11  1  0
  9  4  1  0
 19 14  1  0
  1 20  1  0
  2 21  1  0
  3 22  1  0
  6 23  1  0
  7 24  1  0
  7 25  1  0
  8 26  1  0
  8 27  1  0
 10 28  1  0
 10 29  1  0
 12 30  1  0
 13 31  1  0
 15 32  1  0
 16 33  1  0
 17 34  1  0
 18 35  1  0
M  END
>  <UniqueID>  (71) 
592

>  <SMILES>  (71) 
c1ccc2c(c1)CCN2Cc1c[nH]c2ccccc12

>  <Energy>  (71) 
84.1794849167093

>  <Genealogy>  (71) 
c1ccc2c(c1)CCN2Cc1c[nH]c2ccccc12 (3D coordinates assigned)
c1ccc2c(c1)CCN2Cc1c[nH]c2ccccc12 (nonaromatic ring conformer: 84.1794849167093 kcal/mol)

>  <smiles>  (71) 
c1ccc2c(c1)CCN2Cc1c[nH]c2ccccc12

>  <score_type>  (71) 
oracle

>  <origin>  (71) 
autodockgpu

>  <m_score__min__energy>  (71) 
-6.7300000000000004

>  <m_primary>  (71) 
energy

>  <meeko>  (71) 
{"free_energy": -6.72, "intermolecular_energy": -7.32, "internal_energy": -0.73, "cluster_size": 19, "cluster_id": 1, "rank_in_cluster": 16}

>  <energy>  (71) 
-6.72

>  <cluster_rmsd>  (71) 
0.04

>  <rmsd>  (71) 
273.39

>  <cluster>  (71) 
1

$$$$
HDQBLRJEPZHFRL-UHFFFAOYNA-N
     RDKit          3D

 35 38  0  0  0  0  0  0  0  0999 V2000
  139.9530   73.6560  221.5940 C   0  0  0  0  0  0  0  0  0  0  0  0
  140.9010   72.6390  221.8220 C   0  0  0  0  0  0  0  0  0  0  0  0
  140.5140   71.4340  222.4320 C   0  0  0  0  0  0  0  0  0  0  0  0
  139.1700   71.2730  222.7940 C   0  0  0  0  0  0  0  0  0  0  0  0
  138.2530   72.2660  222.5780 C   0  0  0  0  0  0  0  0  0  0  0  0
  138.6150   73.4720  221.9770 C   0  0  0  0  0  0  0  0  0  0  0  0
  136.9090   71.8610  223.0740 C   0  0  0  0  0  0  0  0  0  0  0  0
  137.1460   70.4380  223.6330 C   0  0  0  0  0  0  0  0  0  0  0  0
  138.5670   70.1500  223.4220 N   0  0  0  0  0  0  0  0  0  0  0  0
  139.2010   68.8760  223.7630 C   0  0  0  0  0  0  0  0  0  0  0  0
  139.4900   68.8190  225.2330 C   0  0  0  0  0  0  0  0  0  0  0  0
  139.3780   67.7000  226.0530 C   0  0  0  0  0  0  0  0  0  0  0  0
  139.8050   67.9870  227.3040 N   0  0  0  0  0  0  0  0  0  0  0  0
  140.1970   69.2720  227.2770 C   0  0  0  0  0  0  0  0  0  0  0  0
  140.7340   70.0140  228.3290 C   0  0  0  0  0  0  0  0  0  0  0  0
  141.0980   71.3470  228.0750 C   0  0  0  0  0  0  0  0  0  0  0  0
  140.9220   71.9050  226.7880 C   0  0  0  0  0  0  0  0  0  0  0  0
  140.3780   71.1330  225.7460 C   0  0  0  0  0  0  0  0  0  0  0  0
  140.0240   69.8140  226.0280 C   0  0  0  0  0  0  0  0  0  0  0  0
  140.2620   74.5966  221.1146 H   0  0  0  0  0  0  0  0  0  0  0  0
  141.9484   72.7890  221.5212 H   0  0  0  0  0  0  0  0  0  0  0  0
  141.2479   70.6367  222.6207 H   0  0  0  0  0  0  0  0  0  0  0  0
  137.8682   74.2615  221.8070 H   0  0  0  0  0  0  0  0  0  0  0  0
  136.5600   72.5413  223.8648 H   0  0  0  0  0  0  0  0  0  0  0  0
  136.1359   71.8916  222.2921 H   0  0  0  0  0  0  0  0  0  0  0  0
  136.9048   70.4042  224.7057 H   0  0  0  0  0  0  0  0  0  0  0  0
  136.5069   69.6972  223.1303 H   0  0  0  0  0  0  0  0  0  0  0  0
  138.5260   68.0504  223.4930 H   0  0  0  0  0  0  0  0  0  0  0  0
  140.1461   68.7852  223.2075 H   0  0  0  0  0  0  0  0  0  0  0  0
  138.9962   66.7205  225.7294 H   0  0  0  0  0  0  0  0  0  0  0  0
  139.8390   67.3330  228.1180 H   0  0  0  0  0  0  0  0  0  0  0  0
  140.8683   69.5694  229.3262 H   0  0  0  0  0  0  0  0  0  0  0  0
  141.5229   71.9607  228.8830 H   0  0  0  0  0  0  0  0  0  0  0  0
  141.2123   72.9493  226.6005 H   0  0  0  0  0  0  0  0  0  0  0  0
  140.2363   71.5561  224.7406 H   0  0  0  0  0  0  0  0  0  0  0  0
  1  2  2  0
  2  3  1  0
  3  4  2  0
  4  5  1  0
  5  6  2  0
  5  7  1  0
  7  8  1  0
  8  9  1  0
  9 10  1  0
 10 11  1  0
 11 12  2  0
 12 13  1  0
 13 14  1  0
 14 15  2  0
 15 16  1  0
 16 17  2  0
 17 18  1  0
 18 19  2  0
  6  1  1  0
 19 11  1  0
  9  4  1  0
 19 14  1  0
  1 20  1  0
  2 21  1  0
  3 22  1  0
  6 23  1  0
  7 24  1  0
  7 25  1  0
  8 26  1  0
  8 27  1  0
 10 28  1  0
 10 29  1  0
 12 30  1  0
 13 31  1  0
 15 32  1  0
 16 33  1  0
 17 34  1  0
 18 35  1  0
M  END
>  <UniqueID>  (72) 
592

>  <SMILES>  (72) 
c1ccc2c(c1)CCN2Cc1c[nH]c2ccccc12

>  <Energy>  (72) 
84.1794849167093

>  <Genealogy>  (72) 
c1ccc2c(c1)CCN2Cc1c[nH]c2ccccc12 (3D coordinates assigned)
c1ccc2c(c1)CCN2Cc1c[nH]c2ccccc12 (nonaromatic ring conformer: 84.1794849167093 kcal/mol)

>  <smiles>  (72) 
c1ccc2c(c1)CCN2Cc1c[nH]c2ccccc12

>  <score_type>  (72) 
oracle

>  <origin>  (72) 
autodockgpu

>  <m_score__min__energy>  (72) 
-6.7300000000000004

>  <m_primary>  (72) 
energy

>  <meeko>  (72) 
{"free_energy": -6.73, "intermolecular_energy": -7.33, "internal_energy": -0.72, "cluster_size": 19, "cluster_id": 1, "rank_in_cluster": 2}

>  <energy>  (72) 
-6.72

>  <cluster_rmsd>  (72) 
0.04

>  <rmsd>  (72) 
273.39

>  <cluster>  (72) 
1

$$$$
HDQBLRJEPZHFRL-UHFFFAOYNA-N
     RDKit          3D

 35 38  0  0  0  0  0  0  0  0999 V2000
  134.6450   71.2500  224.9880 C   0  0  0  0  0  0  0  0  0  0  0  0
  135.0960   69.9900  225.4260 C   0  0  0  0  0  0  0  0  0  0  0  0
  136.3270   69.4830  224.9760 C   0  0  0  0  0  0  0  0  0  0  0  0
  137.0870   70.2640  224.0950 C   0  0  0  0  0  0  0  0  0  0  0  0
  136.6410   71.4860  223.6660 C   0  0  0  0  0  0  0  0  0  0  0  0
  135.4210   72.0080  224.0980 C   0  0  0  0  0  0  0  0  0  0  0  0
  137.6130   72.1000  222.7210 C   0  0  0  0  0  0  0  0  0  0  0  0
  138.7470   71.0510  222.6390 C   0  0  0  0  0  0  0  0  0  0  0  0
  138.3450   69.9480  223.5160 N   0  0  0  0  0  0  0  0  0  0  0  0
  139.1670   68.7650  223.7690 C   0  0  0  0  0  0  0  0  0  0  0  0
  139.5490   68.7000  225.2170 C   0  0  0  0  0  0  0  0  0  0  0  0
  139.6010   67.5550  226.0070 C   0  0  0  0  0  0  0  0  0  0  0  0
  140.0730   67.8530  227.2390 N   0  0  0  0  0  0  0  0  0  0  0  0
  140.3320   69.1720  227.2290 C   0  0  0  0  0  0  0  0  0  0  0  0
  140.8560   69.9370  228.2710 C   0  0  0  0  0  0  0  0  0  0  0  0
  141.0680   71.3070  228.0370 C   0  0  0  0  0  0  0  0  0  0  0  0
  140.7590   71.8760  226.7810 C   0  0  0  0  0  0  0  0  0  0  0  0
  140.2320   71.0790  225.7490 C   0  0  0  0  0  0  0  0  0  0  0  0
  140.0290   69.7250  226.0100 C   0  0  0  0  0  0  0  0  0  0  0  0
  133.6809   71.6414  225.3448 H   0  0  0  0  0  0  0  0  0  0  0  0
  134.4824   69.4003  226.1230 H   0  0  0  0  0  0  0  0  0  0  0  0
  136.6852   68.4971  225.3072 H   0  0  0  0  0  0  0  0  0  0  0  0
  135.0753   72.9920  223.7485 H   0  0  0  0  0  0  0  0  0  0  0  0
  137.1542   72.2612  221.7343 H   0  0  0  0  0  0  0  0  0  0  0  0
  137.9660   73.0883  223.0507 H   0  0  0  0  0  0  0  0  0  0  0  0
  138.8625   70.6939  221.6050 H   0  0  0  0  0  0  0  0  0  0  0  0
  139.7125   71.4782  222.9477 H   0  0  0  0  0  0  0  0  0  0  0  0
  138.5969   67.8627  223.5028 H   0  0  0  0  0  0  0  0  0  0  0  0
  140.0805   68.8256  223.1592 H   0  0  0  0  0  0  0  0  0  0  0  0
  139.3007   66.5499  225.6761 H   0  0  0  0  0  0  0  0  0  0  0  0
  140.2220   67.1860  228.0290 H   0  0  0  0  0  0  0  0  0  0  0  0
  141.0955   69.4832  229.2440 H   0  0  0  0  0  0  0  0  0  0  0  0
  141.4774   71.9406  228.8376 H   0  0  0  0  0  0  0  0  0  0  0  0
  140.9317   72.9487  226.6094 H   0  0  0  0  0  0  0  0  0  0  0  0
  139.9878   71.5105  224.7671 H   0  0  0  0  0  0  0  0  0  0  0  0
  1  2  2  0
  2  3  1  0
  3  4  2  0
  4  5  1  0
  5  6  2  0
  5  7  1  0
  7  8  1  0
  8  9  1  0
  9 10  1  0
 10 11  1  0
 11 12  2  0
 12 13  1  0
 13 14  1  0
 14 15  2  0
 15 16  1  0
 16 17  2  0
 17 18  1  0
 18 19  2  0
  6  1  1  0
 19 11  1  0
  9  4  1  0
 19 14  1  0
  1 20  1  0
  2 21  1  0
  3 22  1  0
  6 23  1  0
  7 24  1  0
  7 25  1  0
  8 26  1  0
  8 27  1  0
 10 28  1  0
 10 29  1  0
 12 30  1  0
 13 31  1  0
 15 32  1  0
 16 33  1  0
 17 34  1  0
 18 35  1  0
M  END
>  <UniqueID>  (73) 
592

>  <SMILES>  (73) 
c1ccc2c(c1)CCN2Cc1c[nH]c2ccccc12

>  <Energy>  (73) 
84.1794849167093

>  <Genealogy>  (73) 
c1ccc2c(c1)CCN2Cc1c[nH]c2ccccc12 (3D coordinates assigned)
c1ccc2c(c1)CCN2Cc1c[nH]c2ccccc12 (nonaromatic ring conformer: 84.1794849167093 kcal/mol)

>  <smiles>  (73) 
c1ccc2c(c1)CCN2Cc1c[nH]c2ccccc12

>  <score_type>  (73) 
oracle

>  <origin>  (73) 
autodockgpu

>  <m_score__min__energy>  (73) 
-6.7300000000000004

>  <m_primary>  (73) 
energy

>  <meeko>  (73) 
{"free_energy": -6.65, "intermolecular_energy": -7.25, "internal_energy": -0.8, "cluster_size": 19, "cluster_id": 1, "rank_in_cluster": 18}

>  <energy>  (73) 
-6.72

>  <cluster_rmsd>  (73) 
0.04

>  <rmsd>  (73) 
273.38

>  <cluster>  (73) 
1

$$$$
HDQBLRJEPZHFRL-UHFFFAOYNA-N
     RDKit          3D

 35 38  0  0  0  0  0  0  0  0999 V2000
  139.8920   73.6810  221.5780 C   0  0  0  0  0  0  0  0  0  0  0  0
  140.8510   72.6720  221.7900 C   0  0  0  0  0  0  0  0  0  0  0  0
  140.4800   71.4590  222.3950 C   0  0  0  0  0  0  0  0  0  0  0  0
  139.1410   71.2830  222.7680 C   0  0  0  0  0  0  0  0  0  0  0  0
  138.2130   72.2700  222.5670 C   0  0  0  0  0  0  0  0  0  0  0  0
  138.5590   73.4830  221.9710 C   0  0  0  0  0  0  0  0  0  0  0  0
  136.8780   71.8490  223.0720 C   0  0  0  0  0  0  0  0  0  0  0  0
  137.1320   70.4240  223.6190 C   0  0  0  0  0  0  0  0  0  0  0  0
  138.5540   70.1500  223.3930 N   0  0  0  0  0  0  0  0  0  0  0  0
  139.2020   68.8800  223.7190 C   0  0  0  0  0  0  0  0  0  0  0  0
  139.4880   68.8070  225.1890 C   0  0  0  0  0  0  0  0  0  0  0  0
  139.3790   67.6780  225.9960 C   0  0  0  0  0  0  0  0  0  0  0  0
  139.8020   67.9530  227.2510 N   0  0  0  0  0  0  0  0  0  0  0  0
  140.1890   69.2400  227.2390 C   0  0  0  0  0  0  0  0  0  0  0  0
  140.7210   69.9720  228.3010 C   0  0  0  0  0  0  0  0  0  0  0  0
  141.0810   71.3100  228.0630 C   0  0  0  0  0  0  0  0  0  0  0  0
  140.9050   71.8810  226.7820 C   0  0  0  0  0  0  0  0  0  0  0  0
  140.3670   71.1190  225.7300 C   0  0  0  0  0  0  0  0  0  0  0  0
  140.0170   69.7960  225.9970 C   0  0  0  0  0  0  0  0  0  0  0  0
  140.1884   74.6277  221.1028 H   0  0  0  0  0  0  0  0  0  0  0  0
  141.8942   72.8338  221.4810 H   0  0  0  0  0  0  0  0  0  0  0  0
  141.2228   70.6671  222.5714 H   0  0  0  0  0  0  0  0  0  0  0  0
  137.8039   74.2670  221.8125 H   0  0  0  0  0  0  0  0  0  0  0  0
  136.5300   72.5206  223.8707 H   0  0  0  0  0  0  0  0  0  0  0  0
  136.0980   71.8778  222.2969 H   0  0  0  0  0  0  0  0  0  0  0  0
  136.9008   70.3806  224.6936 H   0  0  0  0  0  0  0  0  0  0  0  0
  136.4946   69.6811  223.1172 H   0  0  0  0  0  0  0  0  0  0  0  0
  138.5377   68.0501  223.4364 H   0  0  0  0  0  0  0  0  0  0  0  0
  140.1495   68.8079  223.1649 H   0  0  0  0  0  0  0  0  0  0  0  0
  139.0022   66.7005  225.6606 H   0  0  0  0  0  0  0  0  0  0  0  0
  139.8370   67.2900  228.0570 H   0  0  0  0  0  0  0  0  0  0  0  0
  140.8545   69.5165  229.2933 H   0  0  0  0  0  0  0  0  0  0  0  0
  141.5022   71.9162  228.8786 H   0  0  0  0  0  0  0  0  0  0  0  0
  141.1909   72.9287  226.6070 H   0  0  0  0  0  0  0  0  0  0  0  0
  140.2268   71.5525  224.7288 H   0  0  0  0  0  0  0  0  0  0  0  0
  1  2  2  0
  2  3  1  0
  3  4  2  0
  4  5  1  0
  5  6  2  0
  5  7  1  0
  7  8  1  0
  8  9  1  0
  9 10  1  0
 10 11  1  0
 11 12  2  0
 12 13  1  0
 13 14  1  0
 14 15  2  0
 15 16  1  0
 16 17  2  0
 17 18  1  0
 18 19  2  0
  6  1  1  0
 19 11  1  0
  9  4  1  0
 19 14  1  0
  1 20  1  0
  2 21  1  0
  3 22  1  0
  6 23  1  0
  7 24  1  0
  7 25  1  0
  8 26  1  0
  8 27  1  0
 10 28  1  0
 10 29  1  0
 12 30  1  0
 13 31  1  0
 15 32  1  0
 16 33  1  0
 17 34  1  0
 18 35  1  0
M  END
>  <UniqueID>  (74) 
592

>  <SMILES>  (74) 
c1ccc2c(c1)CCN2Cc1c[nH]c2ccccc12

>  <Energy>  (74) 
84.1794849167093

>  <Genealogy>  (74) 
c1ccc2c(c1)CCN2Cc1c[nH]c2ccccc12 (3D coordinates assigned)
c1ccc2c(c1)CCN2Cc1c[nH]c2ccccc12 (nonaromatic ring conformer: 84.1794849167093 kcal/mol)

>  <smiles>  (74) 
c1ccc2c(c1)CCN2Cc1c[nH]c2ccccc12

>  <score_type>  (74) 
oracle

>  <origin>  (74) 
autodockgpu

>  <m_score__min__energy>  (74) 
-6.7300000000000004

>  <m_primary>  (74) 
energy

>  <meeko>  (74) 
{"free_energy": -6.72, "intermolecular_energy": -7.32, "internal_energy": -0.73, "cluster_size": 19, "cluster_id": 1, "rank_in_cluster": 10}

>  <energy>  (74) 
-6.72

>  <cluster_rmsd>  (74) 
0.03

>  <rmsd>  (74) 
273.4

>  <cluster>  (74) 
1

$$$$
HDQBLRJEPZHFRL-UHFFFAOYNA-N
     RDKit          3D

 35 38  0  0  0  0  0  0  0  0999 V2000
  139.9070   73.6890  221.5850 C   0  0  0  0  0  0  0  0  0  0  0  0
  140.8620   72.6780  221.8080 C   0  0  0  0  0  0  0  0  0  0  0  0
  140.4860   71.4710  222.4180 C   0  0  0  0  0  0  0  0  0  0  0  0
  139.1450   71.2990  222.7860 C   0  0  0  0  0  0  0  0  0  0  0  0
  138.2200   72.2870  222.5750 C   0  0  0  0  0  0  0  0  0  0  0  0
  138.5720   73.4960  221.9730 C   0  0  0  0  0  0  0  0  0  0  0  0
  136.8810   71.8720  223.0760 C   0  0  0  0  0  0  0  0  0  0  0  0
  137.1300   70.4510  223.6330 C   0  0  0  0  0  0  0  0  0  0  0  0
  138.5520   70.1720  223.4150 N   0  0  0  0  0  0  0  0  0  0  0  0
  139.1960   68.9020  223.7520 C   0  0  0  0  0  0  0  0  0  0  0  0
  139.4640   68.8330  225.2250 C   0  0  0  0  0  0  0  0  0  0  0  0
  139.3230   67.7120  226.0380 C   0  0  0  0  0  0  0  0  0  0  0  0
  139.7380   67.9850  227.2960 N   0  0  0  0  0  0  0  0  0  0  0  0
  140.1520   69.2640  227.2810 C   0  0  0  0  0  0  0  0  0  0  0  0
  140.6880   69.9910  228.3440 C   0  0  0  0  0  0  0  0  0  0  0  0
  141.0780   71.3190  228.1010 C   0  0  0  0  0  0  0  0  0  0  0  0
  140.9290   71.8860  226.8150 C   0  0  0  0  0  0  0  0  0  0  0  0
  140.3860   71.1290  225.7620 C   0  0  0  0  0  0  0  0  0  0  0  0
  140.0050   69.8150  226.0320 C   0  0  0  0  0  0  0  0  0  0  0  0
  140.2082   74.6321  221.1056 H   0  0  0  0  0  0  0  0  0  0  0  0
  141.9071   72.8350  221.5028 H   0  0  0  0  0  0  0  0  0  0  0  0
  141.2266   70.6789  222.6028 H   0  0  0  0  0  0  0  0  0  0  0  0
  137.8194   74.2807  221.8062 H   0  0  0  0  0  0  0  0  0  0  0  0
  136.5302   72.5493  223.8686 H   0  0  0  0  0  0  0  0  0  0  0  0
  136.1047   71.8975  222.2971 H   0  0  0  0  0  0  0  0  0  0  0  0
  136.8943   70.4152  224.7068 H   0  0  0  0  0  0  0  0  0  0  0  0
  136.4933   69.7063  223.1330 H   0  0  0  0  0  0  0  0  0  0  0  0
  138.5349   68.0715  223.4636 H   0  0  0  0  0  0  0  0  0  0  0  0
  140.1501   68.8280  223.2095 H   0  0  0  0  0  0  0  0  0  0  0  0
  138.9294   66.7406  225.7042 H   0  0  0  0  0  0  0  0  0  0  0  0
  139.7500   67.3270  228.1070 H   0  0  0  0  0  0  0  0  0  0  0  0
  140.8018   69.5393  229.3405 H   0  0  0  0  0  0  0  0  0  0  0  0
  141.5023   71.9216  228.9176 H   0  0  0  0  0  0  0  0  0  0  0  0
  141.2398   72.9260  226.6368 H   0  0  0  0  0  0  0  0  0  0  0  0
  140.2655   71.5596  224.7570 H   0  0  0  0  0  0  0  0  0  0  0  0
  1  2  2  0
  2  3  1  0
  3  4  2  0
  4  5  1  0
  5  6  2  0
  5  7  1  0
  7  8  1  0
  8  9  1  0
  9 10  1  0
 10 11  1  0
 11 12  2  0
 12 13  1  0
 13 14  1  0
 14 15  2  0
 15 16  1  0
 16 17  2  0
 17 18  1  0
 18 19  2  0
  6  1  1  0
 19 11  1  0
  9  4  1  0
 19 14  1  0
  1 20  1  0
  2 21  1  0
  3 22  1  0
  6 23  1  0
  7 24  1  0
  7 25  1  0
  8 26  1  0
  8 27  1  0
 10 28  1  0
 10 29  1  0
 12 30  1  0
 13 31  1  0
 15 32  1  0
 16 33  1  0
 17 34  1  0
 18 35  1  0
M  END
>  <UniqueID>  (75) 
592

>  <SMILES>  (75) 
c1ccc2c(c1)CCN2Cc1c[nH]c2ccccc12

>  <Energy>  (75) 
84.1794849167093

>  <Genealogy>  (75) 
c1ccc2c(c1)CCN2Cc1c[nH]c2ccccc12 (3D coordinates assigned)
c1ccc2c(c1)CCN2Cc1c[nH]c2ccccc12 (nonaromatic ring conformer: 84.1794849167093 kcal/mol)

>  <smiles>  (75) 
c1ccc2c(c1)CCN2Cc1c[nH]c2ccccc12

>  <score_type>  (75) 
oracle

>  <origin>  (75) 
autodockgpu

>  <m_score__min__energy>  (75) 
-6.7300000000000004

>  <m_primary>  (75) 
energy

>  <meeko>  (75) 
{"free_energy": -6.73, "intermolecular_energy": -7.33, "internal_energy": -0.73, "cluster_size": 19, "cluster_id": 1, "rank_in_cluster": 4}

>  <energy>  (75) 
-6.72

>  <cluster_rmsd>  (75) 
0.04

>  <rmsd>  (75) 
273.39

>  <cluster>  (75) 
1

$$$$
HDQBLRJEPZHFRL-UHFFFAOYNA-N
     RDKit          3D

 35 38  0  0  0  0  0  0  0  0999 V2000
  139.9490   73.6820  221.5790 C   0  0  0  0  0  0  0  0  0  0  0  0
  140.8990   72.6670  221.8060 C   0  0  0  0  0  0  0  0  0  0  0  0
  140.5140   71.4620  222.4170 C   0  0  0  0  0  0  0  0  0  0  0  0
  139.1720   71.2990  222.7820 C   0  0  0  0  0  0  0  0  0  0  0  0
  138.2530   72.2910  222.5670 C   0  0  0  0  0  0  0  0  0  0  0  0
  138.6120   73.4970  221.9640 C   0  0  0  0  0  0  0  0  0  0  0  0
  136.9100   71.8850  223.0660 C   0  0  0  0  0  0  0  0  0  0  0  0
  137.1500   70.4620  223.6250 C   0  0  0  0  0  0  0  0  0  0  0  0
  138.5710   70.1760  223.4120 N   0  0  0  0  0  0  0  0  0  0  0  0
  139.2080   68.9030  223.7520 C   0  0  0  0  0  0  0  0  0  0  0  0
  139.4760   68.8370  225.2250 C   0  0  0  0  0  0  0  0  0  0  0  0
  139.3340   67.7170  226.0400 C   0  0  0  0  0  0  0  0  0  0  0  0
  139.7500   67.9930  227.2970 N   0  0  0  0  0  0  0  0  0  0  0  0
  140.1650   69.2720  227.2790 C   0  0  0  0  0  0  0  0  0  0  0  0
  140.7020   70.0000  228.3410 C   0  0  0  0  0  0  0  0  0  0  0  0
  141.0930   71.3280  228.0950 C   0  0  0  0  0  0  0  0  0  0  0  0
  140.9430   71.8920  226.8080 C   0  0  0  0  0  0  0  0  0  0  0  0
  140.3990   71.1330  225.7570 C   0  0  0  0  0  0  0  0  0  0  0  0
  140.0180   69.8200  226.0300 C   0  0  0  0  0  0  0  0  0  0  0  0
  140.2560   74.6227  221.0984 H   0  0  0  0  0  0  0  0  0  0  0  0
  141.9458   72.8184  221.5038 H   0  0  0  0  0  0  0  0  0  0  0  0
  141.2492   70.6655  222.6042 H   0  0  0  0  0  0  0  0  0  0  0  0
  137.8638   74.2853  221.7941 H   0  0  0  0  0  0  0  0  0  0  0  0
  136.5620   72.5652  223.8573 H   0  0  0  0  0  0  0  0  0  0  0  0
  136.1351   71.9148  222.2859 H   0  0  0  0  0  0  0  0  0  0  0  0
  136.9104   70.4280  224.6981 H   0  0  0  0  0  0  0  0  0  0  0  0
  136.5112   69.7202  223.1233 H   0  0  0  0  0  0  0  0  0  0  0  0
  138.5421   68.0754  223.4662 H   0  0  0  0  0  0  0  0  0  0  0  0
  140.1613   68.8217  223.2092 H   0  0  0  0  0  0  0  0  0  0  0  0
  138.9393   66.7452  225.7084 H   0  0  0  0  0  0  0  0  0  0  0  0
  139.7620   67.3370  228.1100 H   0  0  0  0  0  0  0  0  0  0  0  0
  140.8158   69.5498  229.3382 H   0  0  0  0  0  0  0  0  0  0  0  0
  141.5186   71.9320  228.9099 H   0  0  0  0  0  0  0  0  0  0  0  0
  141.2539   72.9316  226.6273 H   0  0  0  0  0  0  0  0  0  0  0  0
  140.2778   71.5615  224.7512 H   0  0  0  0  0  0  0  0  0  0  0  0
  1  2  2  0
  2  3  1  0
  3  4  2  0
  4  5  1  0
  5  6  2  0
  5  7  1  0
  7  8  1  0
  8  9  1  0
  9 10  1  0
 10 11  1  0
 11 12  2  0
 12 13  1  0
 13 14  1  0
 14 15  2  0
 15 16  1  0
 16 17  2  0
 17 18  1  0
 18 19  2  0
  6  1  1  0
 19 11  1  0
  9  4  1  0
 19 14  1  0
  1 20  1  0
  2 21  1  0
  3 22  1  0
  6 23  1  0
  7 24  1  0
  7 25  1  0
  8 26  1  0
  8 27  1  0
 10 28  1  0
 10 29  1  0
 12 30  1  0
 13 31  1  0
 15 32  1  0
 16 33  1  0
 17 34  1  0
 18 35  1  0
M  END
>  <UniqueID>  (76) 
592

>  <SMILES>  (76) 
c1ccc2c(c1)CCN2Cc1c[nH]c2ccccc12

>  <Energy>  (76) 
84.1794849167093

>  <Genealogy>  (76) 
c1ccc2c(c1)CCN2Cc1c[nH]c2ccccc12 (3D coordinates assigned)
c1ccc2c(c1)CCN2Cc1c[nH]c2ccccc12 (nonaromatic ring conformer: 84.1794849167093 kcal/mol)

>  <smiles>  (76) 
c1ccc2c(c1)CCN2Cc1c[nH]c2ccccc12

>  <score_type>  (76) 
oracle

>  <origin>  (76) 
autodockgpu

>  <m_score__min__energy>  (76) 
-6.7300000000000004

>  <m_primary>  (76) 
energy

>  <meeko>  (76) 
{"free_energy": -6.73, "intermolecular_energy": -7.32, "internal_energy": -0.73, "cluster_size": 19, "cluster_id": 1, "rank_in_cluster": 6}

>  <energy>  (76) 
-6.72

>  <cluster_rmsd>  (76) 
0.04

>  <rmsd>  (76) 
273.38

>  <cluster>  (76) 
1

$$$$
HDQBLRJEPZHFRL-UHFFFAOYNA-N
     RDKit          3D

 35 38  0  0  0  0  0  0  0  0999 V2000
  141.4300   71.7620  228.0150 C   0  0  0  0  0  0  0  0  0  0  0  0
  141.0930   72.2460  226.7360 C   0  0  0  0  0  0  0  0  0  0  0  0
  140.5200   71.3880  225.7830 C   0  0  0  0  0  0  0  0  0  0  0  0
  140.2880   70.0540  226.1420 C   0  0  0  0  0  0  0  0  0  0  0  0
  140.6240   69.5850  227.3830 C   0  0  0  0  0  0  0  0  0  0  0  0
  141.1960   70.4180  228.3450 C   0  0  0  0  0  0  0  0  0  0  0  0
  140.3030   68.1370  227.5050 C   0  0  0  0  0  0  0  0  0  0  0  0
  139.7030   67.7840  226.1240 C   0  0  0  0  0  0  0  0  0  0  0  0
  139.7290   69.0220  225.3410 N   0  0  0  0  0  0  0  0  0  0  0  0
  139.1990   69.1400  223.9820 C   0  0  0  0  0  0  0  0  0  0  0  0
  138.2170   70.2690  223.9070 C   0  0  0  0  0  0  0  0  0  0  0  0
  138.4290   71.5100  223.3110 C   0  0  0  0  0  0  0  0  0  0  0  0
  137.2980   72.2500  223.3480 N   0  0  0  0  0  0  0  0  0  0  0  0
  136.3720   71.4850  223.9500 C   0  0  0  0  0  0  0  0  0  0  0  0
  135.0380   71.8100  224.1980 C   0  0  0  0  0  0  0  0  0  0  0  0
  134.2320   70.8450  224.8260 C   0  0  0  0  0  0  0  0  0  0  0  0
  134.7690   69.5890  225.1870 C   0  0  0  0  0  0  0  0  0  0  0  0
  136.1170   69.2880  224.9240 C   0  0  0  0  0  0  0  0  0  0  0  0
  136.8930   70.2650  224.3020 C   0  0  0  0  0  0  0  0  0  0  0  0
  141.8778   72.4391  228.7573 H   0  0  0  0  0  0  0  0  0  0  0  0
  141.2793   73.3001  226.4825 H   0  0  0  0  0  0  0  0  0  0  0  0
  140.2597   71.7547  224.7791 H   0  0  0  0  0  0  0  0  0  0  0  0
  141.4579   70.0299  229.3404 H   0  0  0  0  0  0  0  0  0  0  0  0
  141.2109   67.5480  227.7017 H   0  0  0  0  0  0  0  0  0  0  0  0
  139.6193   67.9179  228.3384 H   0  0  0  0  0  0  0  0  0  0  0  0
  140.3081   67.0083  225.6319 H   0  0  0  0  0  0  0  0  0  0  0  0
  138.6803   67.3901  226.2190 H   0  0  0  0  0  0  0  0  0  0  0  0
  140.0274   69.3317  223.2841 H   0  0  0  0  0  0  0  0  0  0  0  0
  138.6904   68.2028  223.7119 H   0  0  0  0  0  0  0  0  0  0  0  0
  139.3818   71.8412  222.8723 H   0  0  0  0  0  0  0  0  0  0  0  0
  137.1700   73.2150  222.9680 H   0  0  0  0  0  0  0  0  0  0  0  0
  134.6300   72.7904  223.9111 H   0  0  0  0  0  0  0  0  0  0  0  0
  133.1761   71.0691  225.0379 H   0  0  0  0  0  0  0  0  0  0  0  0
  134.1280   68.8414  225.6772 H   0  0  0  0  0  0  0  0  0  0  0  0
  136.5455   68.3132  225.2001 H   0  0  0  0  0  0  0  0  0  0  0  0
  1  2  2  0
  2  3  1  0
  3  4  2  0
  4  5  1  0
  5  6  2  0
  5  7  1  0
  7  8  1  0
  8  9  1  0
  9 10  1  0
 10 11  1  0
 11 12  2  0
 12 13  1  0
 13 14  1  0
 14 15  2  0
 15 16  1  0
 16 17  2  0
 17 18  1  0
 18 19  2  0
  6  1  1  0
 19 11  1  0
  9  4  1  0
 19 14  1  0
  1 20  1  0
  2 21  1  0
  3 22  1  0
  6 23  1  0
  7 24  1  0
  7 25  1  0
  8 26  1  0
  8 27  1  0
 10 28  1  0
 10 29  1  0
 12 30  1  0
 13 31  1  0
 15 32  1  0
 16 33  1  0
 17 34  1  0
 18 35  1  0
M  END
>  <UniqueID>  (77) 
592

>  <SMILES>  (77) 
c1ccc2c(c1)CCN2Cc1c[nH]c2ccccc12

>  <Energy>  (77) 
84.1794849167093

>  <Genealogy>  (77) 
c1ccc2c(c1)CCN2Cc1c[nH]c2ccccc12 (3D coordinates assigned)
c1ccc2c(c1)CCN2Cc1c[nH]c2ccccc12 (nonaromatic ring conformer: 84.1794849167093 kcal/mol)

>  <smiles>  (77) 
c1ccc2c(c1)CCN2Cc1c[nH]c2ccccc12

>  <score_type>  (77) 
oracle

>  <origin>  (77) 
autodockgpu

>  <m_score__min__energy>  (77) 
-6.7300000000000004

>  <m_primary>  (77) 
energy

>  <meeko>  (77) 
{"free_energy": -6.54, "intermolecular_energy": -7.14, "internal_energy": -0.63, "cluster_size": 1, "cluster_id": 2, "rank_in_cluster": 1}

>  <energy>  (77) 
-6.72

>  <cluster_rmsd>  (77) 
0.07

>  <rmsd>  (77) 
273.41

>  <cluster>  (77) 
1

$$$$
HDQBLRJEPZHFRL-UHFFFAOYNA-N
     RDKit          3D

 35 38  0  0  0  0  0  0  0  0999 V2000
  139.9050   73.6700  221.5850 C   0  0  0  0  0  0  0  0  0  0  0  0
  140.8590   72.6580  221.8090 C   0  0  0  0  0  0  0  0  0  0  0  0
  140.4800   71.4510  222.4200 C   0  0  0  0  0  0  0  0  0  0  0  0
  139.1390   71.2830  222.7890 C   0  0  0  0  0  0  0  0  0  0  0  0
  138.2170   72.2730  222.5770 C   0  0  0  0  0  0  0  0  0  0  0  0
  138.5700   73.4800  221.9740 C   0  0  0  0  0  0  0  0  0  0  0  0
  136.8770   71.8610  223.0790 C   0  0  0  0  0  0  0  0  0  0  0  0
  137.1230   70.4390  223.6370 C   0  0  0  0  0  0  0  0  0  0  0  0
  138.5440   70.1580  223.4200 N   0  0  0  0  0  0  0  0  0  0  0  0
  139.1860   68.8870  223.7580 C   0  0  0  0  0  0  0  0  0  0  0  0
  139.4640   68.8240  225.2290 C   0  0  0  0  0  0  0  0  0  0  0  0
  139.3310   67.7040  226.0470 C   0  0  0  0  0  0  0  0  0  0  0  0
  139.7550   67.9840  227.3010 N   0  0  0  0  0  0  0  0  0  0  0  0
  140.1640   69.2640  227.2780 C   0  0  0  0  0  0  0  0  0  0  0  0
  140.7050   69.9950  228.3360 C   0  0  0  0  0  0  0  0  0  0  0  0
  141.0900   71.3240  228.0860 C   0  0  0  0  0  0  0  0  0  0  0  0
  140.9290   71.8870  226.7990 C   0  0  0  0  0  0  0  0  0  0  0  0
  140.3820   71.1240  225.7520 C   0  0  0  0  0  0  0  0  0  0  0  0
  140.0070   69.8100  226.0300 C   0  0  0  0  0  0  0  0  0  0  0  0
  140.2073   74.6119  221.1038 H   0  0  0  0  0  0  0  0  0  0  0  0
  141.9045   72.8134  221.5044 H   0  0  0  0  0  0  0  0  0  0  0  0
  141.2185   70.6569  222.6042 H   0  0  0  0  0  0  0  0  0  0  0  0
  137.8186   74.2658  221.8070 H   0  0  0  0  0  0  0  0  0  0  0  0
  136.5281   72.5396  223.8714 H   0  0  0  0  0  0  0  0  0  0  0  0
  136.1005   71.8877  222.3003 H   0  0  0  0  0  0  0  0  0  0  0  0
  136.8865   70.4040  224.7107 H   0  0  0  0  0  0  0  0  0  0  0  0
  136.4852   69.6951  223.1371 H   0  0  0  0  0  0  0  0  0  0  0  0
  138.5200   68.0575  223.4780 H   0  0  0  0  0  0  0  0  0  0  0  0
  140.1358   68.8070  223.2090 H   0  0  0  0  0  0  0  0  0  0  0  0
  138.9372   66.7304  225.7198 H   0  0  0  0  0  0  0  0  0  0  0  0
  139.7740   67.3280  228.1140 H   0  0  0  0  0  0  0  0  0  0  0  0
  140.8264   69.5464  229.3330 H   0  0  0  0  0  0  0  0  0  0  0  0
  141.5195   71.9300  228.8974 H   0  0  0  0  0  0  0  0  0  0  0  0
  141.2334   72.9280  226.6156 H   0  0  0  0  0  0  0  0  0  0  0  0
  140.2540   71.5501  224.7460 H   0  0  0  0  0  0  0  0  0  0  0  0
  1  2  2  0
  2  3  1  0
  3  4  2  0
  4  5  1  0
  5  6  2  0
  5  7  1  0
  7  8  1  0
  8  9  1  0
  9 10  1  0
 10 11  1  0
 11 12  2  0
 12 13  1  0
 13 14  1  0
 14 15  2  0
 15 16  1  0
 16 17  2  0
 17 18  1  0
 18 19  2  0
  6  1  1  0
 19 11  1  0
  9  4  1  0
 19 14  1  0
  1 20  1  0
  2 21  1  0
  3 22  1  0
  6 23  1  0
  7 24  1  0
  7 25  1  0
  8 26  1  0
  8 27  1  0
 10 28  1  0
 10 29  1  0
 12 30  1  0
 13 31  1  0
 15 32  1  0
 16 33  1  0
 17 34  1  0
 18 35  1  0
M  END
>  <UniqueID>  (78) 
592

>  <SMILES>  (78) 
c1ccc2c(c1)CCN2Cc1c[nH]c2ccccc12

>  <Energy>  (78) 
84.1794849167093

>  <Genealogy>  (78) 
c1ccc2c(c1)CCN2Cc1c[nH]c2ccccc12 (3D coordinates assigned)
c1ccc2c(c1)CCN2Cc1c[nH]c2ccccc12 (nonaromatic ring conformer: 84.1794849167093 kcal/mol)

>  <smiles>  (78) 
c1ccc2c(c1)CCN2Cc1c[nH]c2ccccc12

>  <score_type>  (78) 
oracle

>  <origin>  (78) 
autodockgpu

>  <m_score__min__energy>  (78) 
-6.7300000000000004

>  <m_primary>  (78) 
energy

>  <meeko>  (78) 
{"free_energy": -6.73, "intermolecular_energy": -7.32, "internal_energy": -0.73, "cluster_size": 19, "cluster_id": 1, "rank_in_cluster": 8}

>  <energy>  (78) 
-6.65

>  <cluster_rmsd>  (78) 
1.98

>  <rmsd>  (78) 
273.3

>  <cluster>  (78) 
1

$$$$
HDQBLRJEPZHFRL-UHFFFAOYNA-N
     RDKit          3D

 35 38  0  0  0  0  0  0  0  0999 V2000
  139.9410   73.6870  221.5950 C   0  0  0  0  0  0  0  0  0  0  0  0
  140.8940   72.6750  221.8230 C   0  0  0  0  0  0  0  0  0  0  0  0
  140.5110   71.4660  222.4270 C   0  0  0  0  0  0  0  0  0  0  0  0
  139.1670   71.2960  222.7840 C   0  0  0  0  0  0  0  0  0  0  0  0
  138.2450   72.2860  222.5680 C   0  0  0  0  0  0  0  0  0  0  0  0
  138.6030   73.4950  221.9720 C   0  0  0  0  0  0  0  0  0  0  0  0
  136.9020   71.8720  223.0580 C   0  0  0  0  0  0  0  0  0  0  0  0
  137.1440   70.4480  223.6130 C   0  0  0  0  0  0  0  0  0  0  0  0
  138.5670   70.1680  223.4060 N   0  0  0  0  0  0  0  0  0  0  0  0
  139.2070   68.8970  223.7450 C   0  0  0  0  0  0  0  0  0  0  0  0
  139.4760   68.8300  225.2180 C   0  0  0  0  0  0  0  0  0  0  0  0
  139.3370   67.7090  226.0330 C   0  0  0  0  0  0  0  0  0  0  0  0
  139.7540   67.9850  227.2900 N   0  0  0  0  0  0  0  0  0  0  0  0
  140.1650   69.2650  227.2720 C   0  0  0  0  0  0  0  0  0  0  0  0
  140.7010   69.9930  228.3340 C   0  0  0  0  0  0  0  0  0  0  0  0
  141.0900   71.3220  228.0890 C   0  0  0  0  0  0  0  0  0  0  0  0
  140.9380   71.8870  226.8020 C   0  0  0  0  0  0  0  0  0  0  0  0
  140.3950   71.1270  225.7510 C   0  0  0  0  0  0  0  0  0  0  0  0
  140.0160   69.8140  226.0240 C   0  0  0  0  0  0  0  0  0  0  0  0
  140.2466   74.6308  221.1199 H   0  0  0  0  0  0  0  0  0  0  0  0
  141.9417   72.8320  221.5270 H   0  0  0  0  0  0  0  0  0  0  0  0
  141.2486   70.6719  222.6151 H   0  0  0  0  0  0  0  0  0  0  0  0
  137.8528   74.2811  221.8011 H   0  0  0  0  0  0  0  0  0  0  0  0
  136.5468   72.5477  223.8500 H   0  0  0  0  0  0  0  0  0  0  0  0
  136.1316   71.9011  222.2734 H   0  0  0  0  0  0  0  0  0  0  0  0
  136.8992   70.4092  224.6847 H   0  0  0  0  0  0  0  0  0  0  0  0
  136.5103   69.7057  223.1056 H   0  0  0  0  0  0  0  0  0  0  0  0
  138.5430   68.0680  223.4587 H   0  0  0  0  0  0  0  0  0  0  0  0
  140.1604   68.8190  223.2019 H   0  0  0  0  0  0  0  0  0  0  0  0
  138.9437   66.7367  225.7014 H   0  0  0  0  0  0  0  0  0  0  0  0
  139.7670   67.3280  228.1010 H   0  0  0  0  0  0  0  0  0  0  0  0
  140.8158   69.5423  229.3308 H   0  0  0  0  0  0  0  0  0  0  0  0
  141.5153   71.9259  228.9041 H   0  0  0  0  0  0  0  0  0  0  0  0
  141.2464   72.9274  226.6218 H   0  0  0  0  0  0  0  0  0  0  0  0
  140.2732   71.5553  224.7451 H   0  0  0  0  0  0  0  0  0  0  0  0
  1  2  2  0
  2  3  1  0
  3  4  2  0
  4  5  1  0
  5  6  2  0
  5  7  1  0
  7  8  1  0
  8  9  1  0
  9 10  1  0
 10 11  1  0
 11 12  2  0
 12 13  1  0
 13 14  1  0
 14 15  2  0
 15 16  1  0
 16 17  2  0
 17 18  1  0
 18 19  2  0
  6  1  1  0
 19 11  1  0
  9  4  1  0
 19 14  1  0
  1 20  1  0
  2 21  1  0
  3 22  1  0
  6 23  1  0
  7 24  1  0
  7 25  1  0
  8 26  1  0
  8 27  1  0
 10 28  1  0
 10 29  1  0
 12 30  1  0
 13 31  1  0
 15 32  1  0
 16 33  1  0
 17 34  1  0
 18 35  1  0
M  END
>  <UniqueID>  (79) 
592

>  <SMILES>  (79) 
c1ccc2c(c1)CCN2Cc1c[nH]c2ccccc12

>  <Energy>  (79) 
84.1794849167093

>  <Genealogy>  (79) 
c1ccc2c(c1)CCN2Cc1c[nH]c2ccccc12 (3D coordinates assigned)
c1ccc2c(c1)CCN2Cc1c[nH]c2ccccc12 (nonaromatic ring conformer: 84.1794849167093 kcal/mol)

>  <smiles>  (79) 
c1ccc2c(c1)CCN2Cc1c[nH]c2ccccc12

>  <score_type>  (79) 
oracle

>  <origin>  (79) 
autodockgpu

>  <m_score__min__energy>  (79) 
-6.7300000000000004

>  <m_primary>  (79) 
energy

>  <meeko>  (79) 
{"free_energy": -6.73, "intermolecular_energy": -7.32, "internal_energy": -0.73, "cluster_size": 19, "cluster_id": 1, "rank_in_cluster": 5}

>  <energy>  (79) 
-6.64

>  <cluster_rmsd>  (79) 
1.97

>  <rmsd>  (79) 
273.3

>  <cluster>  (79) 
1

$$$$
HDQBLRJEPZHFRL-UHFFFAOYNA-N
     RDKit          3D

 35 38  0  0  0  0  0  0  0  0999 V2000
  139.9030   73.6840  221.5860 C   0  0  0  0  0  0  0  0  0  0  0  0
  140.8590   72.6740  221.8100 C   0  0  0  0  0  0  0  0  0  0  0  0
  140.4830   71.4660  222.4200 C   0  0  0  0  0  0  0  0  0  0  0  0
  139.1410   71.2940  222.7860 C   0  0  0  0  0  0  0  0  0  0  0  0
  138.2160   72.2810  222.5740 C   0  0  0  0  0  0  0  0  0  0  0  0
  138.5670   73.4900  221.9720 C   0  0  0  0  0  0  0  0  0  0  0  0
  136.8770   71.8650  223.0730 C   0  0  0  0  0  0  0  0  0  0  0  0
  137.1260   70.4440  223.6300 C   0  0  0  0  0  0  0  0  0  0  0  0
  138.5480   70.1660  223.4140 N   0  0  0  0  0  0  0  0  0  0  0  0
  139.1930   68.8970  223.7520 C   0  0  0  0  0  0  0  0  0  0  0  0
  139.4660   68.8310  225.2240 C   0  0  0  0  0  0  0  0  0  0  0  0
  139.3280   67.7110  226.0400 C   0  0  0  0  0  0  0  0  0  0  0  0
  139.7470   67.9880  227.2960 N   0  0  0  0  0  0  0  0  0  0  0  0
  140.1590   69.2670  227.2770 C   0  0  0  0  0  0  0  0  0  0  0  0
  140.6970   69.9970  228.3370 C   0  0  0  0  0  0  0  0  0  0  0  0
  141.0850   71.3250  228.0900 C   0  0  0  0  0  0  0  0  0  0  0  0
  140.9300   71.8890  226.8040 C   0  0  0  0  0  0  0  0  0  0  0  0
  140.3850   71.1290  225.7540 C   0  0  0  0  0  0  0  0  0  0  0  0
  140.0070   69.8150  226.0280 C   0  0  0  0  0  0  0  0  0  0  0  0
  140.2040   74.6275  221.1073 H   0  0  0  0  0  0  0  0  0  0  0  0
  141.9043   72.8320  221.5059 H   0  0  0  0  0  0  0  0  0  0  0  0
  141.2237   70.6743  222.6060 H   0  0  0  0  0  0  0  0  0  0  0  0
  137.8137   74.2737  221.8036 H   0  0  0  0  0  0  0  0  0  0  0  0
  136.5247   72.5419  223.8653 H   0  0  0  0  0  0  0  0  0  0  0  0
  136.1018   71.8901  222.2929 H   0  0  0  0  0  0  0  0  0  0  0  0
  136.8888   70.4078  224.7035 H   0  0  0  0  0  0  0  0  0  0  0  0
  136.4904   69.6990  223.1289 H   0  0  0  0  0  0  0  0  0  0  0  0
  138.5309   68.0659  223.4676 H   0  0  0  0  0  0  0  0  0  0  0  0
  140.1454   68.8221  223.2067 H   0  0  0  0  0  0  0  0  0  0  0  0
  138.9340   66.7385  225.7098 H   0  0  0  0  0  0  0  0  0  0  0  0
  139.7620   67.3310  228.1080 H   0  0  0  0  0  0  0  0  0  0  0  0
  140.8138   69.5476  229.3342 H   0  0  0  0  0  0  0  0  0  0  0  0
  141.5124   71.9295  228.9036 H   0  0  0  0  0  0  0  0  0  0  0  0
  141.2377   72.9295  226.6229 H   0  0  0  0  0  0  0  0  0  0  0  0
  140.2608   71.5573  224.7485 H   0  0  0  0  0  0  0  0  0  0  0  0
  1  2  2  0
  2  3  1  0
  3  4  2  0
  4  5  1  0
  5  6  2  0
  5  7  1  0
  7  8  1  0
  8  9  1  0
  9 10  1  0
 10 11  1  0
 11 12  2  0
 12 13  1  0
 13 14  1  0
 14 15  2  0
 15 16  1  0
 16 17  2  0
 17 18  1  0
 18 19  2  0
  6  1  1  0
 19 11  1  0
  9  4  1  0
 19 14  1  0
  1 20  1  0
  2 21  1  0
  3 22  1  0
  6 23  1  0
  7 24  1  0
  7 25  1  0
  8 26  1  0
  8 27  1  0
 10 28  1  0
 10 29  1  0
 12 30  1  0
 13 31  1  0
 15 32  1  0
 16 33  1  0
 17 34  1  0
 18 35  1  0
M  END
>  <UniqueID>  (80) 
592

>  <SMILES>  (80) 
c1ccc2c(c1)CCN2Cc1c[nH]c2ccccc12

>  <Energy>  (80) 
84.1794849167093

>  <Genealogy>  (80) 
c1ccc2c(c1)CCN2Cc1c[nH]c2ccccc12 (3D coordinates assigned)
c1ccc2c(c1)CCN2Cc1c[nH]c2ccccc12 (nonaromatic ring conformer: 84.1794849167093 kcal/mol)

>  <smiles>  (80) 
c1ccc2c(c1)CCN2Cc1c[nH]c2ccccc12

>  <score_type>  (80) 
oracle

>  <origin>  (80) 
autodockgpu

>  <m_score__min__energy>  (80) 
-6.7300000000000004

>  <m_primary>  (80) 
energy

>  <meeko>  (80) 
{"free_energy": -6.73, "intermolecular_energy": -7.33, "internal_energy": -0.73, "cluster_size": 19, "cluster_id": 1, "rank_in_cluster": 3}

>  <energy>  (80) 
-6.54

>  <cluster_rmsd>  (80) 
0.0

>  <rmsd>  (80) 
273.24

>  <cluster>  (80) 
2

$$$$
