HZXVWJKCCMCLGL-HKCMIAPXNA-N
     RDKit          3D

 61 65  0  0  0  0  0  0  0  0999 V2000
  140.5776   80.8863  224.0007 H   0  0  0  0  0  0  0  0  0  0  0  0
  140.8520   80.2220  223.1680 C   0  0  0  0  0  0  0  0  0  0  0  0
  141.3210   80.7650  221.9680 C   0  0  0  0  0  0  0  0  0  0  0  0
  141.4237   81.8549  221.8606 H   0  0  0  0  0  0  0  0  0  0  0  0
  141.6590   79.9240  220.9060 C   0  0  0  0  0  0  0  0  0  0  0  0
  142.0307   80.3530  219.9637 H   0  0  0  0  0  0  0  0  0  0  0  0
  141.5260   78.5330  221.0370 C   0  0  0  0  0  0  0  0  0  0  0  0
  141.0700   77.9810  222.2510 C   0  0  0  0  0  0  0  0  0  0  0  0
  140.7310   78.8370  223.3120 C   0  0  0  0  0  0  0  0  0  0  0  0
  140.3685   78.4151  224.2610 H   0  0  0  0  0  0  0  0  0  0  0  0
  141.0130   76.4870  222.4610 C   0  0  0  0  0  0  0  0  0  0  0  0
  140.0600   76.2413  222.9523 H   0  0  0  0  0  0  0  0  0  0  0  0
  141.8837   76.2148  223.0756 H   0  0  0  0  0  0  0  0  0  0  0  0
  141.1070   75.7090  221.2100 N   0  0  0  0  0  0  0  0  0  0  0  0
  141.0930   74.2670  221.2850 C   0  0  0  0  0  0  0  0  0  0  0  0
  140.4790   73.6390  222.3180 N   0  0  0  0  0  0  0  0  0  0  0  0
  140.4260   72.2840  222.3830 C   0  0  0  0  0  0  0  0  0  0  0  0
  139.7470   71.6560  223.4850 N   0  0  0  0  0  0  0  0  0  0  0  0
  138.3710   71.1950  223.3870 C   0  0  0  0  0  0  0  0  0  0  0  0
  137.6804   72.0512  223.3881 H   0  0  0  0  0  0  0  0  0  0  0  0
  138.1992   70.6375  222.4544 H   0  0  0  0  0  0  0  0  0  0  0  0
  138.1310   70.3210  224.6100 C   0  0  0  0  0  0  0  0  0  0  0  0
  137.1976   70.6166  225.1113 H   0  0  0  0  0  0  0  0  0  0  0  0
  138.0353   69.2616  224.3299 H   0  0  0  0  0  0  0  0  0  0  0  0
  139.3240   70.5420  225.5410 C   0  0  0  0  0  0  0  0  0  0  0  0
  139.0408   71.2038  226.3727 H   0  0  0  0  0  0  0  0  0  0  0  0
  139.6714   69.5942  225.9781 H   0  0  0  0  0  0  0  0  0  0  0  0
  140.4120   71.1940  224.6940 C   0  0  0  0  0  0  0  0  0  0  0  0
  140.8607   72.0417  225.2326 H   0  0  0  0  0  0  0  0  0  0  0  0
  141.2252   70.4893  224.4657 H   0  0  0  0  0  0  0  0  0  0  0  0
  141.0100   71.5440  221.3970 N   0  0  0  0  0  0  0  0  0  0  0  0
  140.9910   70.5000  221.4320 H   0  0  0  0  0  0  0  0  0  0  0  0
  141.6530   72.1620  220.3690 C   0  0  0  0  0  0  0  0  0  0  0  0
  142.2340   71.4480  219.4490 N   0  0  0  0  0  0  0  0  0  0  0  0
  143.6830   71.2570  219.3160 C   0  0  0  0  0  0  0  0  0  0  0  0
  143.8802   70.1778  219.3966 H   0  0  0  0  0  0  0  0  0  0  0  0
  144.4420   71.9580  220.4630 C   0  0  0  0  0  0  0  0  0  0  0  0
  143.7068   72.2240  221.2367 H   0  0  0  0  0  0  0  0  0  0  0  0
  145.2074   71.2381  220.7882 H   0  0  0  0  0  0  0  0  0  0  0  0
  145.2180   73.2400  220.0930 C   0  0  0  0  0  0  0  0  0  0  0  0
  145.6344   73.6564  221.0221 H   0  0  0  0  0  0  0  0  0  0  0  0
  145.9671   72.9190  219.3542 H   0  0  0  0  0  0  0  0  0  0  0  0
  144.4210   74.3600  219.3970 C   0  0  0  0  0  0  0  0  0  0  0  0
  143.3881   74.3316  219.7742 H   0  0  0  0  0  0  0  0  0  0  0  0
  144.9389   75.3022  219.6293 H   0  0  0  0  0  0  0  0  0  0  0  0
  144.3750   74.2540  217.8640 C   0  0  0  0  0  0  0  0  0  0  0  0
  143.8736   75.1467  217.4618 H   0  0  0  0  0  0  0  0  0  0  0  0
  145.4099   74.1783  217.4990 H   0  0  0  0  0  0  0  0  0  0  0  0
  143.6160   73.0060  217.3930 C   0  0  0  0  0  0  0  0  0  0  0  0
  142.5735   73.0828  217.7356 H   0  0  0  0  0  0  0  0  0  0  0  0
  143.6940   72.9751  216.2962 H   0  0  0  0  0  0  0  0  0  0  0  0
  144.2060   71.6930  217.9240 C   0  0  0  0  0  0  0  0  0  0  0  0
  143.9674   70.8958  217.2046 H   0  0  0  0  0  0  0  0  0  0  0  0
  145.2860   71.8659  218.0411 H   0  0  0  0  0  0  0  0  0  0  0  0
  141.6810   73.5200  220.3140 N   0  0  0  0  0  0  0  0  0  0  0  0
  141.0590   76.3790  219.8990 C   0  0  0  0  0  0  0  0  0  0  0  0
  140.0200   76.6622  219.6746 H   0  0  0  0  0  0  0  0  0  0  0  0
  141.4369   75.6878  219.1312 H   0  0  0  0  0  0  0  0  0  0  0  0
  141.9300   77.6310  219.9090 C   0  0  0  0  0  0  0  0  0  0  0  0
  141.8093   78.1654  218.9551 H   0  0  0  0  0  0  0  0  0  0  0  0
  142.9812   77.3363  220.0435 H   0  0  0  0  0  0  0  0  0  0  0  0
  1  2  1  0
  2  3  2  0
  3  4  1  0
  3  5  1  0
  5  6  1  0
  5  7  2  0
  7  8  1  0
  8  9  2  0
  9 10  1  0
  8 11  1  0
 11 12  1  0
 11 13  1  0
 11 14  1  0
 14 15  1  0
 15 16  1  0
 16 17  2  0
 17 18  1  0
 18 19  1  0
 19 20  1  0
 19 21  1  0
 19 22  1  0
 22 23  1  0
 22 24  1  0
 22 25  1  0
 25 26  1  0
 25 27  1  0
 25 28  1  0
 28 29  1  0
 28 30  1  0
 17 31  1  0
 31 32  1  0
 31 33  1  0
 33 34  2  0
 34 35  1  0
 35 36  1  0
 35 37  1  0
 37 38  1  0
 37 39  1  0
 37 40  1  0
 40 41  1  0
 40 42  1  0
 40 43  1  0
 43 44  1  0
 43 45  1  0
 43 46  1  0
 46 47  1  0
 46 48  1  0
 46 49  1  0
 49 50  1  0
 49 51  1  0
 49 52  1  0
 52 53  1  0
 52 54  1  0
 33 55  1  0
 14 56  1  0
 56 57  1  0
 56 58  1  0
 56 59  1  0
 59 60  1  0
 59 61  1  0
  9  2  1  0
 55 15  2  0
 59  7  1  0
 28 18  1  0
 52 35  1  0
M  END
>  <UniqueID>  (1) 
569

>  <SMILES>  (1) 
c1ccc2c(c1)CCN(c1nc(N3CCCC3)[nH]/c(=N/C3CCCCCC3)n1)C2

>  <Energy>  (1) 
68.04771974537705

>  <Genealogy>  (1) 
c1ccc2c(c1)CCN(c1nc(N3CCCC3)[nH]c(=NC3CCCCCC3)n1)C2 (tautomer)
c1ccc2c(c1)CCN(c1nc(N3CCCC3)[nH]/c(=N/C3CCCCCC3)n1)C2 (cis-trans isomerization)
c1ccc2c(c1)CCN(c1nc(N3CCCC3)[nH]/c(=N/C3CCCCCC3)n1)C2 (3D coordinates assigned)
c1ccc2c(c1)CCN(c1nc(N3CCCC3)[nH]/c(=N/C3CCCCCC3)n1)C2 (nonaromatic ring conformer: 68.04771974537705 kcal/mol)

>  <smiles>  (1) 
c1ccc2c(c1)CCN(c1nc(NC3CCCCCC3)nc(N3CCCC3)n1)C2

>  <score_type>  (1) 
oracle

>  <origin>  (1) 
autodockgpu

>  <m_score__min__energy>  (1) 
-6.29

>  <m_primary>  (1) 
energy

>  <meeko>  (1) 
{"free_energy": -4.16, "intermolecular_energy": -7.14, "internal_energy": -1.45, "cluster_size": 1, "cluster_id": 6, "rank_in_cluster": 1}

>  <energy>  (1) 
-6.29

>  <cluster_rmsd>  (1) 
0.0

>  <rmsd>  (1) 
270.79

>  <cluster>  (1) 
1

$$$$
HZXVWJKCCMCLGL-HKCMIAPXNA-N
     RDKit          3D

 61 65  0  0  0  0  0  0  0  0999 V2000
  133.8069   70.4380  223.2149 H   0  0  0  0  0  0  0  0  0  0  0  0
  134.9040   70.3640  223.2440 C   0  0  0  0  0  0  0  0  0  0  0  0
  135.5120   69.2110  223.7490 C   0  0  0  0  0  0  0  0  0  0  0  0
  134.8931   68.3758  224.1087 H   0  0  0  0  0  0  0  0  0  0  0  0
  136.9040   69.1190  223.7970 C   0  0  0  0  0  0  0  0  0  0  0  0
  137.3801   68.2090  224.1911 H   0  0  0  0  0  0  0  0  0  0  0  0
  137.6980   70.1840  223.3440 C   0  0  0  0  0  0  0  0  0  0  0  0
  137.0880   71.3410  222.8180 C   0  0  0  0  0  0  0  0  0  0  0  0
  135.6870   71.4230  222.7760 C   0  0  0  0  0  0  0  0  0  0  0  0
  135.2033   72.3249  222.3729 H   0  0  0  0  0  0  0  0  0  0  0  0
  137.9110   72.4620  222.2280 C   0  0  0  0  0  0  0  0  0  0  0  0
  137.5034   73.4185  222.5872 H   0  0  0  0  0  0  0  0  0  0  0  0
  137.8500   72.3647  221.1340 H   0  0  0  0  0  0  0  0  0  0  0  0
  139.3410   72.4000  222.5880 N   0  0  0  0  0  0  0  0  0  0  0  0
  140.2350   73.4020  222.0580 C   0  0  0  0  0  0  0  0  0  0  0  0
  141.4480   73.0500  221.5650 N   0  0  0  0  0  0  0  0  0  0  0  0
  142.2830   73.9760  221.0290 C   0  0  0  0  0  0  0  0  0  0  0  0
  143.5540   73.5590  220.4980 N   0  0  0  0  0  0  0  0  0  0  0  0
  144.6700   74.4790  220.3450 C   0  0  0  0  0  0  0  0  0  0  0  0
  144.4892   75.1621  219.5020 H   0  0  0  0  0  0  0  0  0  0  0  0
  144.8071   75.0985  221.2436 H   0  0  0  0  0  0  0  0  0  0  0  0
  145.8940   73.6140  220.0720 C   0  0  0  0  0  0  0  0  0  0  0  0
  146.4439   73.9978  219.2001 H   0  0  0  0  0  0  0  0  0  0  0  0
  146.5846   73.6198  220.9282 H   0  0  0  0  0  0  0  0  0  0  0  0
  145.3740   72.2040  219.7900 C   0  0  0  0  0  0  0  0  0  0  0  0
  145.3995   71.9975  218.7099 H   0  0  0  0  0  0  0  0  0  0  0  0
  145.9940   71.4424  220.2856 H   0  0  0  0  0  0  0  0  0  0  0  0
  143.9370   72.1680  220.3010 C   0  0  0  0  0  0  0  0  0  0  0  0
  143.2785   71.6900  219.5607 H   0  0  0  0  0  0  0  0  0  0  0  0
  143.8513   71.5876  221.2315 H   0  0  0  0  0  0  0  0  0  0  0  0
  141.8980   75.2840  220.9960 N   0  0  0  0  0  0  0  0  0  0  0  0
  142.5290   76.0150  220.5980 H   0  0  0  0  0  0  0  0  0  0  0  0
  140.6950   75.6550  221.5120 C   0  0  0  0  0  0  0  0  0  0  0  0
  140.3490   76.9090  221.5040 N   0  0  0  0  0  0  0  0  0  0  0  0
  140.2000   77.7540  222.6960 C   0  0  0  0  0  0  0  0  0  0  0  0
  139.7373   77.1370  223.4803 H   0  0  0  0  0  0  0  0  0  0  0  0
  139.2550   78.9430  222.4170 C   0  0  0  0  0  0  0  0  0  0  0  0
  139.2883   79.1502  221.3372 H   0  0  0  0  0  0  0  0  0  0  0  0
  138.2703   78.6264  222.7912 H   0  0  0  0  0  0  0  0  0  0  0  0
  139.5690   80.2600  223.1570 C   0  0  0  0  0  0  0  0  0  0  0  0
  138.6393   80.8463  223.2003 H   0  0  0  0  0  0  0  0  0  0  0  0
  139.9676   79.9509  224.1345 H   0  0  0  0  0  0  0  0  0  0  0  0
  140.6600   81.1620  222.5460 C   0  0  0  0  0  0  0  0  0  0  0  0
  140.5040   81.2005  221.4578 H   0  0  0  0  0  0  0  0  0  0  0  0
  140.5604   82.1446  223.0304 H   0  0  0  0  0  0  0  0  0  0  0  0
  142.0990   80.6900  222.8080 C   0  0  0  0  0  0  0  0  0  0  0  0
  142.7909   81.3313  222.2424 H   0  0  0  0  0  0  0  0  0  0  0  0
  142.2854   80.7576  223.8900 H   0  0  0  0  0  0  0  0  0  0  0  0
  142.3160   79.2320  222.3820 C   0  0  0  0  0  0  0  0  0  0  0  0
  141.9707   79.1177  221.3439 H   0  0  0  0  0  0  0  0  0  0  0  0
  143.3899   79.0199  222.4907 H   0  0  0  0  0  0  0  0  0  0  0  0
  141.5660   78.2200  223.2570 C   0  0  0  0  0  0  0  0  0  0  0  0
  142.2056   77.3332  223.3775 H   0  0  0  0  0  0  0  0  0  0  0  0
  141.3492   78.7348  224.2046 H   0  0  0  0  0  0  0  0  0  0  0  0
  139.8660   74.7090  222.0300 N   0  0  0  0  0  0  0  0  0  0  0  0
  139.8260   71.4340  223.5880 C   0  0  0  0  0  0  0  0  0  0  0  0
  139.5615   71.7909  224.5943 H   0  0  0  0  0  0  0  0  0  0  0  0
  140.9181   71.3418  223.4937 H   0  0  0  0  0  0  0  0  0  0  0  0
  139.1930   70.0650  223.3580 C   0  0  0  0  0  0  0  0  0  0  0  0
  139.4961   69.3836  224.1666 H   0  0  0  0  0  0  0  0  0  0  0  0
  139.5317   69.6701  222.3888 H   0  0  0  0  0  0  0  0  0  0  0  0
  1  2  1  0
  2  3  2  0
  3  4  1  0
  3  5  1  0
  5  6  1  0
  5  7  2  0
  7  8  1  0
  8  9  2  0
  9 10  1  0
  8 11  1  0
 11 12  1  0
 11 13  1  0
 11 14  1  0
 14 15  1  0
 15 16  1  0
 16 17  2  0
 17 18  1  0
 18 19  1  0
 19 20  1  0
 19 21  1  0
 19 22  1  0
 22 23  1  0
 22 24  1  0
 22 25  1  0
 25 26  1  0
 25 27  1  0
 25 28  1  0
 28 29  1  0
 28 30  1  0
 17 31  1  0
 31 32  1  0
 31 33  1  0
 33 34  2  0
 34 35  1  0
 35 36  1  0
 35 37  1  0
 37 38  1  0
 37 39  1  0
 37 40  1  0
 40 41  1  0
 40 42  1  0
 40 43  1  0
 43 44  1  0
 43 45  1  0
 43 46  1  0
 46 47  1  0
 46 48  1  0
 46 49  1  0
 49 50  1  0
 49 51  1  0
 49 52  1  0
 52 53  1  0
 52 54  1  0
 33 55  1  0
 14 56  1  0
 56 57  1  0
 56 58  1  0
 56 59  1  0
 59 60  1  0
 59 61  1  0
  9  2  1  0
 55 15  2  0
 59  7  1  0
 28 18  1  0
 52 35  1  0
M  END
>  <UniqueID>  (2) 
569

>  <SMILES>  (2) 
c1ccc2c(c1)CCN(c1nc(N3CCCC3)[nH]/c(=N/C3CCCCCC3)n1)C2

>  <Energy>  (2) 
68.04771974537705

>  <Genealogy>  (2) 
c1ccc2c(c1)CCN(c1nc(N3CCCC3)[nH]c(=NC3CCCCCC3)n1)C2 (tautomer)
c1ccc2c(c1)CCN(c1nc(N3CCCC3)[nH]/c(=N/C3CCCCCC3)n1)C2 (cis-trans isomerization)
c1ccc2c(c1)CCN(c1nc(N3CCCC3)[nH]/c(=N/C3CCCCCC3)n1)C2 (3D coordinates assigned)
c1ccc2c(c1)CCN(c1nc(N3CCCC3)[nH]/c(=N/C3CCCCCC3)n1)C2 (nonaromatic ring conformer: 68.04771974537705 kcal/mol)

>  <smiles>  (2) 
c1ccc2c(c1)CCN(c1nc(NC3CCCCCC3)nc(N3CCCC3)n1)C2

>  <score_type>  (2) 
oracle

>  <origin>  (2) 
autodockgpu

>  <m_score__min__energy>  (2) 
-6.29

>  <m_primary>  (2) 
energy

>  <meeko>  (2) 
{"free_energy": -5.17, "intermolecular_energy": -8.15, "internal_energy": -0.87, "cluster_size": 9, "cluster_id": 1, "rank_in_cluster": 7}

>  <energy>  (2) 
-6.28

>  <cluster_rmsd>  (2) 
0.35

>  <rmsd>  (2) 
270.88

>  <cluster>  (2) 
1

$$$$
HZXVWJKCCMCLGL-HKCMIAPXNA-N
     RDKit          3D

 61 65  0  0  0  0  0  0  0  0999 V2000
  140.1479   81.3689  223.2371 H   0  0  0  0  0  0  0  0  0  0  0  0
  140.4510   80.4610  222.6950 C   0  0  0  0  0  0  0  0  0  0  0  0
  141.4530   80.5310  221.7220 C   0  0  0  0  0  0  0  0  0  0  0  0
  141.9437   81.4916  221.5066 H   0  0  0  0  0  0  0  0  0  0  0  0
  141.8310   79.3830  221.0240 C   0  0  0  0  0  0  0  0  0  0  0  0
  142.6211   79.4404  220.2608 H   0  0  0  0  0  0  0  0  0  0  0  0
  141.2060   78.1560  221.2930 C   0  0  0  0  0  0  0  0  0  0  0  0
  140.2080   78.0770  222.2860 C   0  0  0  0  0  0  0  0  0  0  0  0
  139.8340   79.2400  222.9800 C   0  0  0  0  0  0  0  0  0  0  0  0
  139.0516   79.1891  223.7515 H   0  0  0  0  0  0  0  0  0  0  0  0
  139.5880   76.7550  222.6720 C   0  0  0  0  0  0  0  0  0  0  0  0
  138.5011   76.8953  222.7663 H   0  0  0  0  0  0  0  0  0  0  0  0
  140.0542   76.4450  223.6189 H   0  0  0  0  0  0  0  0  0  0  0  0
  139.8360   75.6770  221.6950 N   0  0  0  0  0  0  0  0  0  0  0  0
  139.3180   74.3580  221.9700 C   0  0  0  0  0  0  0  0  0  0  0  0
  138.0880   73.9960  221.5270 N   0  0  0  0  0  0  0  0  0  0  0  0
  137.6030   72.7480  221.7460 C   0  0  0  0  0  0  0  0  0  0  0  0
  136.3010   72.3980  221.2430 N   0  0  0  0  0  0  0  0  0  0  0  0
  135.2700   71.8240  222.0930 C   0  0  0  0  0  0  0  0  0  0  0  0
  135.5114   70.7780  222.3330 H   0  0  0  0  0  0  0  0  0  0  0  0
  135.1860   72.3669  223.0460 H   0  0  0  0  0  0  0  0  0  0  0  0
  133.9760   71.8980  221.2940 C   0  0  0  0  0  0  0  0  0  0  0  0
  133.4635   70.9248  221.3093 H   0  0  0  0  0  0  0  0  0  0  0  0
  133.2868   72.6419  221.7201 H   0  0  0  0  0  0  0  0  0  0  0  0
  134.3710   72.2650  219.8630 C   0  0  0  0  0  0  0  0  0  0  0  0
  134.3285   71.3762  219.2163 H   0  0  0  0  0  0  0  0  0  0  0  0
  133.6862   73.0142  219.4389 H   0  0  0  0  0  0  0  0  0  0  0  0
  135.7980   72.7970  219.9360 C   0  0  0  0  0  0  0  0  0  0  0  0
  136.4129   72.3562  219.1375 H   0  0  0  0  0  0  0  0  0  0  0  0
  135.8316   73.8885  219.8040 H   0  0  0  0  0  0  0  0  0  0  0  0
  138.3630   71.8460  222.4310 N   0  0  0  0  0  0  0  0  0  0  0  0
  138.0050   70.8830  222.6200 H   0  0  0  0  0  0  0  0  0  0  0  0
  139.5880   72.2040  222.9040 C   0  0  0  0  0  0  0  0  0  0  0  0
  140.2930   71.3460  223.5830 N   0  0  0  0  0  0  0  0  0  0  0  0
  140.0650   70.9880  224.9880 C   0  0  0  0  0  0  0  0  0  0  0  0
  139.3163   71.6879  225.3874 H   0  0  0  0  0  0  0  0  0  0  0  0
  141.3550   71.1580  225.8200 C   0  0  0  0  0  0  0  0  0  0  0  0
  142.0237   70.3197  225.5749 H   0  0  0  0  0  0  0  0  0  0  0  0
  141.7473   72.1494  225.5496 H   0  0  0  0  0  0  0  0  0  0  0  0
  141.1860   71.1900  227.3530 C   0  0  0  0  0  0  0  0  0  0  0  0
  141.9857   70.5723  227.7877 H   0  0  0  0  0  0  0  0  0  0  0  0
  141.2243   72.2560  227.6218 H   0  0  0  0  0  0  0  0  0  0  0  0
  139.8470   70.6830  227.9210 C   0  0  0  0  0  0  0  0  0  0  0  0
  139.8465   70.8588  229.0069 H   0  0  0  0  0  0  0  0  0  0  0  0
  139.0556   71.2359  227.3938 H   0  0  0  0  0  0  0  0  0  0  0  0
  139.5720   69.1910  227.6770 C   0  0  0  0  0  0  0  0  0  0  0  0
  140.1011   68.6032  228.4415 H   0  0  0  0  0  0  0  0  0  0  0  0
  138.4849   69.0333  227.7338 H   0  0  0  0  0  0  0  0  0  0  0  0
  140.0440   68.7360  226.2880 C   0  0  0  0  0  0  0  0  0  0  0  0
  141.1408   68.8118  226.2510 H   0  0  0  0  0  0  0  0  0  0  0  0
  139.6920   67.7031  226.1492 H   0  0  0  0  0  0  0  0  0  0  0  0
  139.4610   69.5690  225.1400 C   0  0  0  0  0  0  0  0  0  0  0  0
  139.6325   69.0228  224.2007 H   0  0  0  0  0  0  0  0  0  0  0  0
  138.3957   69.7118  225.3740 H   0  0  0  0  0  0  0  0  0  0  0  0
  140.0620   73.4550  222.6600 N   0  0  0  0  0  0  0  0  0  0  0  0
  140.4640   75.9670  220.3940 C   0  0  0  0  0  0  0  0  0  0  0  0
  139.7216   76.4328  219.7292 H   0  0  0  0  0  0  0  0  0  0  0  0
  140.8268   75.0256  219.9556 H   0  0  0  0  0  0  0  0  0  0  0  0
  141.6440   76.9160  220.5720 C   0  0  0  0  0  0  0  0  0  0  0  0
  142.0414   77.1912  219.5839 H   0  0  0  0  0  0  0  0  0  0  0  0
  142.4236   76.4131  221.1631 H   0  0  0  0  0  0  0  0  0  0  0  0
  1  2  1  0
  2  3  2  0
  3  4  1  0
  3  5  1  0
  5  6  1  0
  5  7  2  0
  7  8  1  0
  8  9  2  0
  9 10  1  0
  8 11  1  0
 11 12  1  0
 11 13  1  0
 11 14  1  0
 14 15  1  0
 15 16  1  0
 16 17  2  0
 17 18  1  0
 18 19  1  0
 19 20  1  0
 19 21  1  0
 19 22  1  0
 22 23  1  0
 22 24  1  0
 22 25  1  0
 25 26  1  0
 25 27  1  0
 25 28  1  0
 28 29  1  0
 28 30  1  0
 17 31  1  0
 31 32  1  0
 31 33  1  0
 33 34  2  0
 34 35  1  0
 35 36  1  0
 35 37  1  0
 37 38  1  0
 37 39  1  0
 37 40  1  0
 40 41  1  0
 40 42  1  0
 40 43  1  0
 43 44  1  0
 43 45  1  0
 43 46  1  0
 46 47  1  0
 46 48  1  0
 46 49  1  0
 49 50  1  0
 49 51  1  0
 49 52  1  0
 52 53  1  0
 52 54  1  0
 33 55  1  0
 14 56  1  0
 56 57  1  0
 56 58  1  0
 56 59  1  0
 59 60  1  0
 59 61  1  0
  9  2  1  0
 55 15  2  0
 59  7  1  0
 28 18  1  0
 52 35  1  0
M  END
>  <UniqueID>  (3) 
569

>  <SMILES>  (3) 
c1ccc2c(c1)CCN(c1nc(N3CCCC3)[nH]/c(=N/C3CCCCCC3)n1)C2

>  <Energy>  (3) 
68.04771974537705

>  <Genealogy>  (3) 
c1ccc2c(c1)CCN(c1nc(N3CCCC3)[nH]c(=NC3CCCCCC3)n1)C2 (tautomer)
c1ccc2c(c1)CCN(c1nc(N3CCCC3)[nH]/c(=N/C3CCCCCC3)n1)C2 (cis-trans isomerization)
c1ccc2c(c1)CCN(c1nc(N3CCCC3)[nH]/c(=N/C3CCCCCC3)n1)C2 (3D coordinates assigned)
c1ccc2c(c1)CCN(c1nc(N3CCCC3)[nH]/c(=N/C3CCCCCC3)n1)C2 (nonaromatic ring conformer: 68.04771974537705 kcal/mol)

>  <smiles>  (3) 
c1ccc2c(c1)CCN(c1nc(NC3CCCCCC3)nc(N3CCCC3)n1)C2

>  <score_type>  (3) 
oracle

>  <origin>  (3) 
autodockgpu

>  <m_score__min__energy>  (3) 
-6.29

>  <m_primary>  (3) 
energy

>  <meeko>  (3) 
{"free_energy": -4.79, "intermolecular_energy": -7.78, "internal_energy": -0.81, "cluster_size": 1, "cluster_id": 5, "rank_in_cluster": 1}

>  <energy>  (3) 
-6.19

>  <cluster_rmsd>  (3) 
0.68

>  <rmsd>  (3) 
270.8

>  <cluster>  (3) 
1

$$$$
HZXVWJKCCMCLGL-HKCMIAPXNA-N
     RDKit          3D

 61 65  0  0  0  0  0  0  0  0999 V2000
  141.1630   81.5465  223.8671 H   0  0  0  0  0  0  0  0  0  0  0  0
  140.5710   80.7220  223.4430 C   0  0  0  0  0  0  0  0  0  0  0  0
  139.2400   80.9370  223.0730 C   0  0  0  0  0  0  0  0  0  0  0  0
  138.7887   81.9322  223.1988 H   0  0  0  0  0  0  0  0  0  0  0  0
  138.4830   79.8900  222.5440 C   0  0  0  0  0  0  0  0  0  0  0  0
  137.4372   80.0631  222.2503 H   0  0  0  0  0  0  0  0  0  0  0  0
  139.0530   78.6170  222.3860 C   0  0  0  0  0  0  0  0  0  0  0  0
  140.4000   78.4010  222.7410 C   0  0  0  0  0  0  0  0  0  0  0  0
  141.1510   79.4610  223.2750 C   0  0  0  0  0  0  0  0  0  0  0  0
  142.2003   79.2983  223.5623 H   0  0  0  0  0  0  0  0  0  0  0  0
  141.0740   77.0730  222.4890 C   0  0  0  0  0  0  0  0  0  0  0  0
  141.6618   76.8070  223.3799 H   0  0  0  0  0  0  0  0  0  0  0  0
  141.7018   77.1951  221.5940 H   0  0  0  0  0  0  0  0  0  0  0  0
  140.1300   75.9740  222.2080 N   0  0  0  0  0  0  0  0  0  0  0  0
  140.6580   74.6610  221.9210 C   0  0  0  0  0  0  0  0  0  0  0  0
  141.8030   74.5210  221.2070 N   0  0  0  0  0  0  0  0  0  0  0  0
  142.3310   73.2960  220.9610 C   0  0  0  0  0  0  0  0  0  0  0  0
  143.5580   73.1910  220.2160 N   0  0  0  0  0  0  0  0  0  0  0  0
  144.8100   73.7470  220.7030 C   0  0  0  0  0  0  0  0  0  0  0  0
  144.7980   74.8439  220.6216 H   0  0  0  0  0  0  0  0  0  0  0  0
  144.9750   73.4996  221.7621 H   0  0  0  0  0  0  0  0  0  0  0  0
  145.9030   73.1630  219.8180 C   0  0  0  0  0  0  0  0  0  0  0  0
  146.5671   73.9620  219.4565 H   0  0  0  0  0  0  0  0  0  0  0  0
  146.5227   72.4432  220.3727 H   0  0  0  0  0  0  0  0  0  0  0  0
  145.1940   72.4920  218.6410 C   0  0  0  0  0  0  0  0  0  0  0  0
  145.2667   73.1228  217.7428 H   0  0  0  0  0  0  0  0  0  0  0  0
  145.6512   71.5210  218.3997 H   0  0  0  0  0  0  0  0  0  0  0  0
  143.7350   72.3300  219.0560 C   0  0  0  0  0  0  0  0  0  0  0  0
  143.0671   72.6434  218.2401 H   0  0  0  0  0  0  0  0  0  0  0  0
  143.4924   71.2823  219.2870 H   0  0  0  0  0  0  0  0  0  0  0  0
  141.6940   72.1860  221.4330 N   0  0  0  0  0  0  0  0  0  0  0  0
  142.0760   71.2320  221.2460 H   0  0  0  0  0  0  0  0  0  0  0  0
  140.5300   72.3110  222.1280 C   0  0  0  0  0  0  0  0  0  0  0  0
  139.9130   71.2440  222.5480 N   0  0  0  0  0  0  0  0  0  0  0  0
  140.2010   70.5390  223.8030 C   0  0  0  0  0  0  0  0  0  0  0  0
  141.1910   70.0714  223.6968 H   0  0  0  0  0  0  0  0  0  0  0  0
  139.1750   69.4120  224.0530 C   0  0  0  0  0  0  0  0  0  0  0  0
  138.1697   69.8474  223.9546 H   0  0  0  0  0  0  0  0  0  0  0  0
  139.4106   68.6342  223.3117 H   0  0  0  0  0  0  0  0  0  0  0  0
  139.2480   68.7060  225.4230 C   0  0  0  0  0  0  0  0  0  0  0  0
  138.3750   68.0414  225.5010 H   0  0  0  0  0  0  0  0  0  0  0  0
  140.2217   68.1943  225.4297 H   0  0  0  0  0  0  0  0  0  0  0  0
  139.2600   69.6080  226.6750 C   0  0  0  0  0  0  0  0  0  0  0  0
  138.6504   70.4987  226.4625 H   0  0  0  0  0  0  0  0  0  0  0  0
  138.8618   69.0010  227.5014 H   0  0  0  0  0  0  0  0  0  0  0  0
  140.6580   70.0760  227.1110 C   0  0  0  0  0  0  0  0  0  0  0  0
  140.5777   70.5672  228.0919 H   0  0  0  0  0  0  0  0  0  0  0  0
  141.3112   69.1923  227.1594 H   0  0  0  0  0  0  0  0  0  0  0  0
  141.2740   71.0650  226.1110 C   0  0  0  0  0  0  0  0  0  0  0  0
  141.6028   71.9581  226.6626 H   0  0  0  0  0  0  0  0  0  0  0  0
  142.1098   70.5471  225.6178 H   0  0  0  0  0  0  0  0  0  0  0  0
  140.3040   71.5060  225.0080 C   0  0  0  0  0  0  0  0  0  0  0  0
  139.3029   71.6045  225.4531 H   0  0  0  0  0  0  0  0  0  0  0  0
  140.6998   72.4521  224.6103 H   0  0  0  0  0  0  0  0  0  0  0  0
  140.0260   73.5480  222.3770 N   0  0  0  0  0  0  0  0  0  0  0  0
  138.6780   76.1660  222.3670 C   0  0  0  0  0  0  0  0  0  0  0  0
  138.4245   76.1440  223.4372 H   0  0  0  0  0  0  0  0  0  0  0  0
  138.1512   75.3587  221.8370 H   0  0  0  0  0  0  0  0  0  0  0  0
  138.2510   77.5060  221.7770 C   0  0  0  0  0  0  0  0  0  0  0  0
  137.1836   77.6715  221.9852 H   0  0  0  0  0  0  0  0  0  0  0  0
  138.4230   77.4919  220.6906 H   0  0  0  0  0  0  0  0  0  0  0  0
  1  2  1  0
  2  3  2  0
  3  4  1  0
  3  5  1  0
  5  6  1  0
  5  7  2  0
  7  8  1  0
  8  9  2  0
  9 10  1  0
  8 11  1  0
 11 12  1  0
 11 13  1  0
 11 14  1  0
 14 15  1  0
 15 16  1  0
 16 17  2  0
 17 18  1  0
 18 19  1  0
 19 20  1  0
 19 21  1  0
 19 22  1  0
 22 23  1  0
 22 24  1  0
 22 25  1  0
 25 26  1  0
 25 27  1  0
 25 28  1  0
 28 29  1  0
 28 30  1  0
 17 31  1  0
 31 32  1  0
 31 33  1  0
 33 34  2  0
 34 35  1  0
 35 36  1  0
 35 37  1  0
 37 38  1  0
 37 39  1  0
 37 40  1  0
 40 41  1  0
 40 42  1  0
 40 43  1  0
 43 44  1  0
 43 45  1  0
 43 46  1  0
 46 47  1  0
 46 48  1  0
 46 49  1  0
 49 50  1  0
 49 51  1  0
 49 52  1  0
 52 53  1  0
 52 54  1  0
 33 55  1  0
 14 56  1  0
 56 57  1  0
 56 58  1  0
 56 59  1  0
 59 60  1  0
 59 61  1  0
  9  2  1  0
 55 15  2  0
 59  7  1  0
 28 18  1  0
 52 35  1  0
M  END
>  <UniqueID>  (4) 
569

>  <SMILES>  (4) 
c1ccc2c(c1)CCN(c1nc(N3CCCC3)[nH]/c(=N/C3CCCCCC3)n1)C2

>  <Energy>  (4) 
68.04771974537705

>  <Genealogy>  (4) 
c1ccc2c(c1)CCN(c1nc(N3CCCC3)[nH]c(=NC3CCCCCC3)n1)C2 (tautomer)
c1ccc2c(c1)CCN(c1nc(N3CCCC3)[nH]/c(=N/C3CCCCCC3)n1)C2 (cis-trans isomerization)
c1ccc2c(c1)CCN(c1nc(N3CCCC3)[nH]/c(=N/C3CCCCCC3)n1)C2 (3D coordinates assigned)
c1ccc2c(c1)CCN(c1nc(N3CCCC3)[nH]/c(=N/C3CCCCCC3)n1)C2 (nonaromatic ring conformer: 68.04771974537705 kcal/mol)

>  <smiles>  (4) 
c1ccc2c(c1)CCN(c1nc(NC3CCCCCC3)nc(N3CCCC3)n1)C2

>  <score_type>  (4) 
oracle

>  <origin>  (4) 
autodockgpu

>  <m_score__min__energy>  (4) 
-6.29

>  <m_primary>  (4) 
energy

>  <meeko>  (4) 
{"free_energy": -6.18, "intermolecular_energy": -9.16, "internal_energy": -0.88, "cluster_size": 7, "cluster_id": 2, "rank_in_cluster": 1}

>  <energy>  (4) 
-6.03

>  <cluster_rmsd>  (4) 
0.32

>  <rmsd>  (4) 
270.82

>  <cluster>  (4) 
1

$$$$
HZXVWJKCCMCLGL-HKCMIAPXNA-N
     RDKit          3D

 61 65  0  0  0  0  0  0  0  0999 V2000
  147.3720   69.2680  217.7824 H   0  0  0  0  0  0  0  0  0  0  0  0
  146.3350   69.0760  218.0950 C   0  0  0  0  0  0  0  0  0  0  0  0
  145.7230   67.8610  217.7740 C   0  0  0  0  0  0  0  0  0  0  0  0
  146.2817   67.0948  217.2165 H   0  0  0  0  0  0  0  0  0  0  0  0
  144.4040   67.6190  218.1600 C   0  0  0  0  0  0  0  0  0  0  0  0
  143.9262   66.6606  217.9088 H   0  0  0  0  0  0  0  0  0  0  0  0
  143.6850   68.5950  218.8680 C   0  0  0  0  0  0  0  0  0  0  0  0
  144.3040   69.8150  219.2090 C   0  0  0  0  0  0  0  0  0  0  0  0
  145.6310   70.0480  218.8130 C   0  0  0  0  0  0  0  0  0  0  0  0
  146.1192   70.9999  219.0689 H   0  0  0  0  0  0  0  0  0  0  0  0
  143.5950   70.8440  220.0570 C   0  0  0  0  0  0  0  0  0  0  0  0
  143.7667   71.8366  219.6150 H   0  0  0  0  0  0  0  0  0  0  0  0
  144.0058   70.7614  221.0741 H   0  0  0  0  0  0  0  0  0  0  0  0
  142.1390   70.6250  220.1600 N   0  0  0  0  0  0  0  0  0  0  0  0
  141.3570   71.5280  220.9710 C   0  0  0  0  0  0  0  0  0  0  0  0
  141.4200   72.8670  220.7640 N   0  0  0  0  0  0  0  0  0  0  0  0
  140.6620   73.7250  221.4930 C   0  0  0  0  0  0  0  0  0  0  0  0
  140.7440   75.1380  221.2300 N   0  0  0  0  0  0  0  0  0  0  0  0
  139.9980   76.1150  222.0070 C   0  0  0  0  0  0  0  0  0  0  0  0
  138.9308   76.0791  221.7427 H   0  0  0  0  0  0  0  0  0  0  0  0
  140.0741   75.9143  223.0859 H   0  0  0  0  0  0  0  0  0  0  0  0
  140.5860   77.4740  221.6500 C   0  0  0  0  0  0  0  0  0  0  0  0
  139.7821   78.1830  221.4030 H   0  0  0  0  0  0  0  0  0  0  0  0
  141.1529   77.8963  222.4928 H   0  0  0  0  0  0  0  0  0  0  0  0
  141.4860   77.2510  220.4340 C   0  0  0  0  0  0  0  0  0  0  0  0
  140.9839   77.5993  219.5193 H   0  0  0  0  0  0  0  0  0  0  0  0
  142.4285   77.8108  220.5256 H   0  0  0  0  0  0  0  0  0  0  0  0
  141.7380   75.7480  220.3590 C   0  0  0  0  0  0  0  0  0  0  0  0
  141.6148   75.3895  219.3264 H   0  0  0  0  0  0  0  0  0  0  0  0
  142.7617   75.4920  220.6695 H   0  0  0  0  0  0  0  0  0  0  0  0
  139.8310   73.2320  222.4550 N   0  0  0  0  0  0  0  0  0  0  0  0
  139.2470   73.8750  223.0360 H   0  0  0  0  0  0  0  0  0  0  0  0
  139.7780   71.8930  222.6910 C   0  0  0  0  0  0  0  0  0  0  0  0
  139.0050   71.4340  223.6320 N   0  0  0  0  0  0  0  0  0  0  0  0
  139.4350   71.1110  224.9980 C   0  0  0  0  0  0  0  0  0  0  0  0
  138.8033   71.6916  225.6864 H   0  0  0  0  0  0  0  0  0  0  0  0
  140.9010   71.5380  225.2330 C   0  0  0  0  0  0  0  0  0  0  0  0
  141.5434   70.8629  224.6486 H   0  0  0  0  0  0  0  0  0  0  0  0
  140.9492   72.5935  224.9271 H   0  0  0  0  0  0  0  0  0  0  0  0
  141.4000   71.5130  226.6920 C   0  0  0  0  0  0  0  0  0  0  0  0
  142.1330   70.6973  226.7777 H   0  0  0  0  0  0  0  0  0  0  0  0
  141.8028   72.5205  226.8726 H   0  0  0  0  0  0  0  0  0  0  0  0
  140.3390   71.3030  227.7940 C   0  0  0  0  0  0  0  0  0  0  0  0
  140.8081   71.5119  228.7668 H   0  0  0  0  0  0  0  0  0  0  0  0
  139.5078   71.9850  227.5619 H   0  0  0  0  0  0  0  0  0  0  0  0
  139.7420   69.8870  227.8430 C   0  0  0  0  0  0  0  0  0  0  0  0
  140.1921   69.3413  228.6854 H   0  0  0  0  0  0  0  0  0  0  0  0
  138.6530   69.9827  227.9655 H   0  0  0  0  0  0  0  0  0  0  0  0
  140.0050   69.1040  226.5490 C   0  0  0  0  0  0  0  0  0  0  0  0
  141.0764   69.1762  226.3104 H   0  0  0  0  0  0  0  0  0  0  0  0
  139.6855   68.0669  226.7288 H   0  0  0  0  0  0  0  0  0  0  0  0
  139.2050   69.6190  225.3470 C   0  0  0  0  0  0  0  0  0  0  0  0
  139.4821   69.0166  224.4693 H   0  0  0  0  0  0  0  0  0  0  0  0
  138.1439   69.5277  225.6221 H   0  0  0  0  0  0  0  0  0  0  0  0
  140.5340   71.0490  221.9390 N   0  0  0  0  0  0  0  0  0  0  0  0
  141.4690   69.6050  219.3350 C   0  0  0  0  0  0  0  0  0  0  0  0
  141.3656   69.9816  218.3067 H   0  0  0  0  0  0  0  0  0  0  0  0
  140.4776   69.3956  219.7630 H   0  0  0  0  0  0  0  0  0  0  0  0
  142.2820   68.3150  219.3180 C   0  0  0  0  0  0  0  0  0  0  0  0
  141.8141   67.5993  218.6260 H   0  0  0  0  0  0  0  0  0  0  0  0
  142.3075   67.8925  220.3333 H   0  0  0  0  0  0  0  0  0  0  0  0
  1  2  1  0
  2  3  2  0
  3  4  1  0
  3  5  1  0
  5  6  1  0
  5  7  2  0
  7  8  1  0
  8  9  2  0
  9 10  1  0
  8 11  1  0
 11 12  1  0
 11 13  1  0
 11 14  1  0
 14 15  1  0
 15 16  1  0
 16 17  2  0
 17 18  1  0
 18 19  1  0
 19 20  1  0
 19 21  1  0
 19 22  1  0
 22 23  1  0
 22 24  1  0
 22 25  1  0
 25 26  1  0
 25 27  1  0
 25 28  1  0
 28 29  1  0
 28 30  1  0
 17 31  1  0
 31 32  1  0
 31 33  1  0
 33 34  2  0
 34 35  1  0
 35 36  1  0
 35 37  1  0
 37 38  1  0
 37 39  1  0
 37 40  1  0
 40 41  1  0
 40 42  1  0
 40 43  1  0
 43 44  1  0
 43 45  1  0
 43 46  1  0
 46 47  1  0
 46 48  1  0
 46 49  1  0
 49 50  1  0
 49 51  1  0
 49 52  1  0
 52 53  1  0
 52 54  1  0
 33 55  1  0
 14 56  1  0
 56 57  1  0
 56 58  1  0
 56 59  1  0
 59 60  1  0
 59 61  1  0
  9  2  1  0
 55 15  2  0
 59  7  1  0
 28 18  1  0
 52 35  1  0
M  END
>  <UniqueID>  (5) 
569

>  <SMILES>  (5) 
c1ccc2c(c1)CCN(c1nc(N3CCCC3)[nH]/c(=N/C3CCCCCC3)n1)C2

>  <Energy>  (5) 
68.04771974537705

>  <Genealogy>  (5) 
c1ccc2c(c1)CCN(c1nc(N3CCCC3)[nH]c(=NC3CCCCCC3)n1)C2 (tautomer)
c1ccc2c(c1)CCN(c1nc(N3CCCC3)[nH]/c(=N/C3CCCCCC3)n1)C2 (cis-trans isomerization)
c1ccc2c(c1)CCN(c1nc(N3CCCC3)[nH]/c(=N/C3CCCCCC3)n1)C2 (3D coordinates assigned)
c1ccc2c(c1)CCN(c1nc(N3CCCC3)[nH]/c(=N/C3CCCCCC3)n1)C2 (nonaromatic ring conformer: 68.04771974537705 kcal/mol)

>  <smiles>  (5) 
c1ccc2c(c1)CCN(c1nc(NC3CCCCCC3)nc(N3CCCC3)n1)C2

>  <score_type>  (5) 
oracle

>  <origin>  (5) 
autodockgpu

>  <m_score__min__energy>  (5) 
-6.29

>  <m_primary>  (5) 
energy

>  <meeko>  (5) 
{"free_energy": -5.28, "intermolecular_energy": -8.26, "internal_energy": -0.95, "cluster_size": 1, "cluster_id": 4, "rank_in_cluster": 1}

>  <energy>  (5) 
-5.8

>  <cluster_rmsd>  (5) 
1.25

>  <rmsd>  (5) 
270.67

>  <cluster>  (5) 
1

$$$$
HZXVWJKCCMCLGL-HKCMIAPXNA-N
     RDKit          3D

 61 65  0  0  0  0  0  0  0  0999 V2000
  140.4642   68.0523  227.4333 H   0  0  0  0  0  0  0  0  0  0  0  0
  139.9870   68.5730  226.5900 C   0  0  0  0  0  0  0  0  0  0  0  0
  138.7100   68.1930  226.1680 C   0  0  0  0  0  0  0  0  0  0  0  0
  138.1803   67.3793  226.6851 H   0  0  0  0  0  0  0  0  0  0  0  0
  138.1060   68.8440  225.0920 C   0  0  0  0  0  0  0  0  0  0  0  0
  137.0997   68.5441  224.7644 H   0  0  0  0  0  0  0  0  0  0  0  0
  138.7790   69.8810  224.4260 C   0  0  0  0  0  0  0  0  0  0  0  0
  140.0600   70.2790  224.8600 C   0  0  0  0  0  0  0  0  0  0  0  0
  140.6590   69.6140  225.9420 C   0  0  0  0  0  0  0  0  0  0  0  0
  141.6616   69.9134  226.2814 H   0  0  0  0  0  0  0  0  0  0  0  0
  140.7690   71.4560  224.2330 C   0  0  0  0  0  0  0  0  0  0  0  0
  141.8210   71.1802  224.0678 H   0  0  0  0  0  0  0  0  0  0  0  0
  140.6618   72.3032  224.9264 H   0  0  0  0  0  0  0  0  0  0  0  0
  140.1890   71.8780  222.9420 N   0  0  0  0  0  0  0  0  0  0  0  0
  140.7640   73.0140  222.2610 C   0  0  0  0  0  0  0  0  0  0  0  0
  141.9200   72.8850  221.5650 N   0  0  0  0  0  0  0  0  0  0  0  0
  142.4520   73.9340  220.8890 C   0  0  0  0  0  0  0  0  0  0  0  0
  143.6710   73.7510  220.1460 N   0  0  0  0  0  0  0  0  0  0  0  0
  144.9720   73.6930  220.7930 C   0  0  0  0  0  0  0  0  0  0  0  0
  145.2741   74.6944  221.1335 H   0  0  0  0  0  0  0  0  0  0  0  0
  144.9526   73.0390  221.6772 H   0  0  0  0  0  0  0  0  0  0  0  0
  145.9440   73.1770  219.7400 C   0  0  0  0  0  0  0  0  0  0  0  0
  146.8376   73.8172  219.7013 H   0  0  0  0  0  0  0  0  0  0  0  0
  146.2783   72.1553  219.9733 H   0  0  0  0  0  0  0  0  0  0  0  0
  145.2010   73.2250  218.4040 C   0  0  0  0  0  0  0  0  0  0  0  0
  145.5375   74.0886  217.8116 H   0  0  0  0  0  0  0  0  0  0  0  0
  145.3927   72.3215  217.8066 H   0  0  0  0  0  0  0  0  0  0  0  0
  143.7200   73.3620  218.7440 C   0  0  0  0  0  0  0  0  0  0  0  0
  143.2522   74.1340  218.1154 H   0  0  0  0  0  0  0  0  0  0  0  0
  143.1741   72.4241  218.5640 H   0  0  0  0  0  0  0  0  0  0  0  0
  141.8170   75.1410  220.9190 N   0  0  0  0  0  0  0  0  0  0  0  0
  142.2150   75.9650  220.4140 H   0  0  0  0  0  0  0  0  0  0  0  0
  140.6700   75.2900  221.6350 C   0  0  0  0  0  0  0  0  0  0  0  0
  140.0870   76.4530  221.6840 N   0  0  0  0  0  0  0  0  0  0  0  0
  140.5280   77.6510  220.9590 C   0  0  0  0  0  0  0  0  0  0  0  0
  141.2050   77.3184  220.1583 H   0  0  0  0  0  0  0  0  0  0  0  0
  141.3250   78.5970  221.8840 C   0  0  0  0  0  0  0  0  0  0  0  0
  142.3024   78.1308  222.0770 H   0  0  0  0  0  0  0  0  0  0  0  0
  141.3748   79.5559  221.3473 H   0  0  0  0  0  0  0  0  0  0  0  0
  140.6840   78.9250  223.2490 C   0  0  0  0  0  0  0  0  0  0  0  0
  141.2124   78.3354  224.0126 H   0  0  0  0  0  0  0  0  0  0  0  0
  140.7801   80.0160  223.3518 H   0  0  0  0  0  0  0  0  0  0  0  0
  139.1760   78.6430  223.4070 C   0  0  0  0  0  0  0  0  0  0  0  0
  139.0175   77.5591  223.3069 H   0  0  0  0  0  0  0  0  0  0  0  0
  138.8883   79.0323  224.3948 H   0  0  0  0  0  0  0  0  0  0  0  0
  138.2800   79.3550  222.3810 C   0  0  0  0  0  0  0  0  0  0  0  0
  137.2975   79.5435  222.8383 H   0  0  0  0  0  0  0  0  0  0  0  0
  138.7735   80.2955  222.0947 H   0  0  0  0  0  0  0  0  0  0  0  0
  138.0820   78.5180  221.1090 C   0  0  0  0  0  0  0  0  0  0  0  0
  137.7490   77.5117  221.4031 H   0  0  0  0  0  0  0  0  0  0  0  0
  137.3372   79.0410  220.4911 H   0  0  0  0  0  0  0  0  0  0  0  0
  139.3520   78.3800  220.2620 C   0  0  0  0  0  0  0  0  0  0  0  0
  139.0953   77.8198  219.3508 H   0  0  0  0  0  0  0  0  0  0  0  0
  139.7006   79.4039  220.0616 H   0  0  0  0  0  0  0  0  0  0  0  0
  140.1450   74.2230  222.2930 N   0  0  0  0  0  0  0  0  0  0  0  0
  139.1490   71.0710  222.2820 C   0  0  0  0  0  0  0  0  0  0  0  0
  139.6154   70.1914  221.8141 H   0  0  0  0  0  0  0  0  0  0  0  0
  138.6513   71.6864  221.5181 H   0  0  0  0  0  0  0  0  0  0  0  0
  138.1100   70.6080  223.2980 C   0  0  0  0  0  0  0  0  0  0  0  0
  137.3942   69.9340  222.8047 H   0  0  0  0  0  0  0  0  0  0  0  0
  137.5827   71.4863  223.6988 H   0  0  0  0  0  0  0  0  0  0  0  0
  1  2  1  0
  2  3  2  0
  3  4  1  0
  3  5  1  0
  5  6  1  0
  5  7  2  0
  7  8  1  0
  8  9  2  0
  9 10  1  0
  8 11  1  0
 11 12  1  0
 11 13  1  0
 11 14  1  0
 14 15  1  0
 15 16  1  0
 16 17  2  0
 17 18  1  0
 18 19  1  0
 19 20  1  0
 19 21  1  0
 19 22  1  0
 22 23  1  0
 22 24  1  0
 22 25  1  0
 25 26  1  0
 25 27  1  0
 25 28  1  0
 28 29  1  0
 28 30  1  0
 17 31  1  0
 31 32  1  0
 31 33  1  0
 33 34  2  0
 34 35  1  0
 35 36  1  0
 35 37  1  0
 37 38  1  0
 37 39  1  0
 37 40  1  0
 40 41  1  0
 40 42  1  0
 40 43  1  0
 43 44  1  0
 43 45  1  0
 43 46  1  0
 46 47  1  0
 46 48  1  0
 46 49  1  0
 49 50  1  0
 49 51  1  0
 49 52  1  0
 52 53  1  0
 52 54  1  0
 33 55  1  0
 14 56  1  0
 56 57  1  0
 56 58  1  0
 56 59  1  0
 59 60  1  0
 59 61  1  0
  9  2  1  0
 55 15  2  0
 59  7  1  0
 28 18  1  0
 52 35  1  0
M  END
>  <UniqueID>  (6) 
569

>  <SMILES>  (6) 
c1ccc2c(c1)CCN(c1nc(N3CCCC3)[nH]/c(=N/C3CCCCCC3)n1)C2

>  <Energy>  (6) 
68.04771974537705

>  <Genealogy>  (6) 
c1ccc2c(c1)CCN(c1nc(N3CCCC3)[nH]c(=NC3CCCCCC3)n1)C2 (tautomer)
c1ccc2c(c1)CCN(c1nc(N3CCCC3)[nH]/c(=N/C3CCCCCC3)n1)C2 (cis-trans isomerization)
c1ccc2c(c1)CCN(c1nc(N3CCCC3)[nH]/c(=N/C3CCCCCC3)n1)C2 (3D coordinates assigned)
c1ccc2c(c1)CCN(c1nc(N3CCCC3)[nH]/c(=N/C3CCCCCC3)n1)C2 (nonaromatic ring conformer: 68.04771974537705 kcal/mol)

>  <smiles>  (6) 
c1ccc2c(c1)CCN(c1nc(NC3CCCCCC3)nc(N3CCCC3)n1)C2

>  <score_type>  (6) 
oracle

>  <origin>  (6) 
autodockgpu

>  <m_score__min__energy>  (6) 
-6.29

>  <m_primary>  (6) 
energy

>  <meeko>  (6) 
{"free_energy": -4.86, "intermolecular_energy": -7.85, "internal_energy": -0.85, "cluster_size": 9, "cluster_id": 1, "rank_in_cluster": 8}

>  <energy>  (6) 
-5.46

>  <cluster_rmsd>  (6) 
1.13

>  <rmsd>  (6) 
270.69

>  <cluster>  (6) 
1

$$$$
HZXVWJKCCMCLGL-HKCMIAPXNA-N
     RDKit          3D

 61 65  0  0  0  0  0  0  0  0999 V2000
  140.6423   68.1590  227.5875 H   0  0  0  0  0  0  0  0  0  0  0  0
  140.1550   68.6070  226.7090 C   0  0  0  0  0  0  0  0  0  0  0  0
  138.9350   68.0980  226.2530 C   0  0  0  0  0  0  0  0  0  0  0  0
  138.4588   67.2576  226.7793 H   0  0  0  0  0  0  0  0  0  0  0  0
  138.3210   68.6560  225.1300 C   0  0  0  0  0  0  0  0  0  0  0  0
  137.3605   68.2551  224.7741 H   0  0  0  0  0  0  0  0  0  0  0  0
  138.9260   69.7270  224.4540 C   0  0  0  0  0  0  0  0  0  0  0  0
  140.1470   70.2550  224.9220 C   0  0  0  0  0  0  0  0  0  0  0  0
  140.7570   69.6840  226.0510 C   0  0  0  0  0  0  0  0  0  0  0  0
  141.7125   70.0858  226.4192 H   0  0  0  0  0  0  0  0  0  0  0  0
  140.7720   71.4710  224.2800 C   0  0  0  0  0  0  0  0  0  0  0  0
  141.8508   71.2882  224.1665 H   0  0  0  0  0  0  0  0  0  0  0  0
  140.5588   72.3273  224.9368 H   0  0  0  0  0  0  0  0  0  0  0  0
  140.2120   71.7940  222.9540 N   0  0  0  0  0  0  0  0  0  0  0  0
  140.7110   72.9550  222.2540 C   0  0  0  0  0  0  0  0  0  0  0  0
  141.8600   72.8850  221.5380 N   0  0  0  0  0  0  0  0  0  0  0  0
  142.3210   73.9560  220.8450 C   0  0  0  0  0  0  0  0  0  0  0  0
  143.5350   73.8350  220.0810 N   0  0  0  0  0  0  0  0  0  0  0  0
  144.8480   73.8300  220.7060 C   0  0  0  0  0  0  0  0  0  0  0  0
  145.1105   74.8409  221.0512 H   0  0  0  0  0  0  0  0  0  0  0  0
  144.8728   73.1679  221.5841 H   0  0  0  0  0  0  0  0  0  0  0  0
  145.8240   73.3680  219.6330 C   0  0  0  0  0  0  0  0  0  0  0  0
  146.6874   74.0480  219.5860 H   0  0  0  0  0  0  0  0  0  0  0  0
  146.2078   72.3603  219.8506 H   0  0  0  0  0  0  0  0  0  0  0  0
  145.0570   73.3950  218.3100 C   0  0  0  0  0  0  0  0  0  0  0  0
  145.3447   74.2783  217.7210 H   0  0  0  0  0  0  0  0  0  0  0  0
  145.2790   72.5062  217.7010 H   0  0  0  0  0  0  0  0  0  0  0  0
  143.5780   73.4620  218.6740 C   0  0  0  0  0  0  0  0  0  0  0  0
  143.0660   74.2183  218.0609 H   0  0  0  0  0  0  0  0  0  0  0  0
  143.0714   72.5026  218.4926 H   0  0  0  0  0  0  0  0  0  0  0  0
  141.6210   75.1260  220.8780 N   0  0  0  0  0  0  0  0  0  0  0  0
  141.9630   75.9670  220.3610 H   0  0  0  0  0  0  0  0  0  0  0  0
  140.4800   75.2180  221.6150 C   0  0  0  0  0  0  0  0  0  0  0  0
  139.8350   76.3470  221.6660 N   0  0  0  0  0  0  0  0  0  0  0  0
  140.1720   77.4760  222.5420 C   0  0  0  0  0  0  0  0  0  0  0  0
  140.4045   77.0630  223.5347 H   0  0  0  0  0  0  0  0  0  0  0  0
  138.9690   78.4310  222.7030 C   0  0  0  0  0  0  0  0  0  0  0  0
  138.5939   78.6687  221.6966 H   0  0  0  0  0  0  0  0  0  0  0  0
  138.2532   77.8928  223.3417 H   0  0  0  0  0  0  0  0  0  0  0  0
  139.2420   79.7650  223.4290 C   0  0  0  0  0  0  0  0  0  0  0  0
  138.2688   80.1989  223.7021 H   0  0  0  0  0  0  0  0  0  0  0  0
  139.8877   79.4996  224.2791 H   0  0  0  0  0  0  0  0  0  0  0  0
  140.0260   80.8370  222.6530 C   0  0  0  0  0  0  0  0  0  0  0  0
  139.7338   80.7764  221.5942 H   0  0  0  0  0  0  0  0  0  0  0  0
  139.7746   81.8027  223.1158 H   0  0  0  0  0  0  0  0  0  0  0  0
  141.5550   80.6990  222.7370 C   0  0  0  0  0  0  0  0  0  0  0  0
  141.9912   80.9928  221.7709 H   0  0  0  0  0  0  0  0  0  0  0  0
  141.9097   81.3500  223.5496 H   0  0  0  0  0  0  0  0  0  0  0  0
  141.9880   79.2630  223.0590 C   0  0  0  0  0  0  0  0  0  0  0  0
  143.0870   79.2189  223.0413 H   0  0  0  0  0  0  0  0  0  0  0  0
  141.5753   79.0157  224.0482 H   0  0  0  0  0  0  0  0  0  0  0  0
  141.4450   78.2220  222.0720 C   0  0  0  0  0  0  0  0  0  0  0  0
  141.2103   78.7363  221.1284 H   0  0  0  0  0  0  0  0  0  0  0  0
  142.2291   77.4574  221.9694 H   0  0  0  0  0  0  0  0  0  0  0  0
  140.0270   74.1280  222.2890 N   0  0  0  0  0  0  0  0  0  0  0  0
  139.2780   70.8740  222.2840 C   0  0  0  0  0  0  0  0  0  0  0  0
  139.8411   70.0258  221.8676 H   0  0  0  0  0  0  0  0  0  0  0  0
  138.7598   71.4158  221.4791 H   0  0  0  0  0  0  0  0  0  0  0  0
  138.2430   70.3520  223.2740 C   0  0  0  0  0  0  0  0  0  0  0  0
  137.6127   69.5992  222.7780 H   0  0  0  0  0  0  0  0  0  0  0  0
  137.6221   71.1911  223.6209 H   0  0  0  0  0  0  0  0  0  0  0  0
  1  2  1  0
  2  3  2  0
  3  4  1  0
  3  5  1  0
  5  6  1  0
  5  7  2  0
  7  8  1  0
  8  9  2  0
  9 10  1  0
  8 11  1  0
 11 12  1  0
 11 13  1  0
 11 14  1  0
 14 15  1  0
 15 16  1  0
 16 17  2  0
 17 18  1  0
 18 19  1  0
 19 20  1  0
 19 21  1  0
 19 22  1  0
 22 23  1  0
 22 24  1  0
 22 25  1  0
 25 26  1  0
 25 27  1  0
 25 28  1  0
 28 29  1  0
 28 30  1  0
 17 31  1  0
 31 32  1  0
 31 33  1  0
 33 34  2  0
 34 35  1  0
 35 36  1  0
 35 37  1  0
 37 38  1  0
 37 39  1  0
 37 40  1  0
 40 41  1  0
 40 42  1  0
 40 43  1  0
 43 44  1  0
 43 45  1  0
 43 46  1  0
 46 47  1  0
 46 48  1  0
 46 49  1  0
 49 50  1  0
 49 51  1  0
 49 52  1  0
 52 53  1  0
 52 54  1  0
 33 55  1  0
 14 56  1  0
 56 57  1  0
 56 58  1  0
 56 59  1  0
 59 60  1  0
 59 61  1  0
  9  2  1  0
 55 15  2  0
 59  7  1  0
 28 18  1  0
 52 35  1  0
M  END
>  <UniqueID>  (7) 
569

>  <SMILES>  (7) 
c1ccc2c(c1)CCN(c1nc(N3CCCC3)[nH]/c(=N/C3CCCCCC3)n1)C2

>  <Energy>  (7) 
68.04771974537705

>  <Genealogy>  (7) 
c1ccc2c(c1)CCN(c1nc(N3CCCC3)[nH]c(=NC3CCCCCC3)n1)C2 (tautomer)
c1ccc2c(c1)CCN(c1nc(N3CCCC3)[nH]/c(=N/C3CCCCCC3)n1)C2 (cis-trans isomerization)
c1ccc2c(c1)CCN(c1nc(N3CCCC3)[nH]/c(=N/C3CCCCCC3)n1)C2 (3D coordinates assigned)
c1ccc2c(c1)CCN(c1nc(N3CCCC3)[nH]/c(=N/C3CCCCCC3)n1)C2 (nonaromatic ring conformer: 68.04771974537705 kcal/mol)

>  <smiles>  (7) 
c1ccc2c(c1)CCN(c1nc(NC3CCCCCC3)nc(N3CCCC3)n1)C2

>  <score_type>  (7) 
oracle

>  <origin>  (7) 
autodockgpu

>  <m_score__min__energy>  (7) 
-6.29

>  <m_primary>  (7) 
energy

>  <meeko>  (7) 
{"free_energy": -6.28, "intermolecular_energy": -9.26, "internal_energy": -0.82, "cluster_size": 9, "cluster_id": 1, "rank_in_cluster": 2}

>  <energy>  (7) 
-5.17

>  <cluster_rmsd>  (7) 
1.75

>  <rmsd>  (7) 
270.41

>  <cluster>  (7) 
1

$$$$
HZXVWJKCCMCLGL-HKCMIAPXNA-N
     RDKit          3D

 61 65  0  0  0  0  0  0  0  0999 V2000
  139.0148   67.9911  226.2321 H   0  0  0  0  0  0  0  0  0  0  0  0
  138.6930   68.7770  225.5330 C   0  0  0  0  0  0  0  0  0  0  0  0
  137.3450   68.8850  225.1780 C   0  0  0  0  0  0  0  0  0  0  0  0
  136.6066   68.1904  225.6049 H   0  0  0  0  0  0  0  0  0  0  0  0
  136.9360   69.8740  224.2820 C   0  0  0  0  0  0  0  0  0  0  0  0
  135.8745   69.9592  224.0064 H   0  0  0  0  0  0  0  0  0  0  0  0
  137.8760   70.7610  223.7310 C   0  0  0  0  0  0  0  0  0  0  0  0
  139.2330   70.6660  224.1020 C   0  0  0  0  0  0  0  0  0  0  0  0
  139.6330   69.6650  225.0020 C   0  0  0  0  0  0  0  0  0  0  0  0
  140.6910   69.5793  225.2905 H   0  0  0  0  0  0  0  0  0  0  0  0
  140.2510   71.6660  223.6090 C   0  0  0  0  0  0  0  0  0  0  0  0
  141.1556   71.1193  223.3044 H   0  0  0  0  0  0  0  0  0  0  0  0
  140.4419   72.3651  224.4365 H   0  0  0  0  0  0  0  0  0  0  0  0
  139.7850   72.4710  222.4630 N   0  0  0  0  0  0  0  0  0  0  0  0
  140.6620   73.4830  221.9230 C   0  0  0  0  0  0  0  0  0  0  0  0
  141.8290   73.1350  221.3270 N   0  0  0  0  0  0  0  0  0  0  0  0
  142.6450   74.0720  220.7820 C   0  0  0  0  0  0  0  0  0  0  0  0
  143.8660   73.6600  220.1420 N   0  0  0  0  0  0  0  0  0  0  0  0
  143.9310   73.3520  218.7210 C   0  0  0  0  0  0  0  0  0  0  0  0
  143.4420   72.3882  218.5162 H   0  0  0  0  0  0  0  0  0  0  0  0
  143.4143   74.1145  218.1197 H   0  0  0  0  0  0  0  0  0  0  0  0
  145.4120   73.2780  218.3740 C   0  0  0  0  0  0  0  0  0  0  0  0
  145.6244   72.3586  217.8086 H   0  0  0  0  0  0  0  0  0  0  0  0
  145.7172   74.1298  217.7485 H   0  0  0  0  0  0  0  0  0  0  0  0
  146.1690   73.2680  219.7030 C   0  0  0  0  0  0  0  0  0  0  0  0
  146.5150   72.2504  219.9369 H   0  0  0  0  0  0  0  0  0  0  0  0
  147.0568   73.9162  219.6629 H   0  0  0  0  0  0  0  0  0  0  0  0
  145.1800   73.7460  220.7610 C   0  0  0  0  0  0  0  0  0  0  0  0
  145.2278   73.0999  221.6500 H   0  0  0  0  0  0  0  0  0  0  0  0
  145.4053   74.7703  221.0928 H   0  0  0  0  0  0  0  0  0  0  0  0
  142.2880   75.3870  220.8430 N   0  0  0  0  0  0  0  0  0  0  0  0
  142.9060   76.1260  220.4400 H   0  0  0  0  0  0  0  0  0  0  0  0
  141.1320   75.7520  221.4620 C   0  0  0  0  0  0  0  0  0  0  0  0
  140.8150   77.0120  221.5430 N   0  0  0  0  0  0  0  0  0  0  0  0
  140.5730   77.7450  222.7910 C   0  0  0  0  0  0  0  0  0  0  0  0
  140.3837   76.9993  223.5772 H   0  0  0  0  0  0  0  0  0  0  0  0
  139.3150   78.6350  222.6770 C   0  0  0  0  0  0  0  0  0  0  0  0
  139.0991   78.7731  221.6073 H   0  0  0  0  0  0  0  0  0  0  0  0
  138.5308   78.1039  223.2363 H   0  0  0  0  0  0  0  0  0  0  0  0
  139.4010   80.0330  223.3220 C   0  0  0  0  0  0  0  0  0  0  0  0
  138.3720   80.3941  223.4659 H   0  0  0  0  0  0  0  0  0  0  0  0
  139.9780   79.8820  224.2463 H   0  0  0  0  0  0  0  0  0  0  0  0
  140.1730   81.1270  222.5470 C   0  0  0  0  0  0  0  0  0  0  0  0
  139.9122   81.0392  221.4820 H   0  0  0  0  0  0  0  0  0  0  0  0
  139.8745   82.0877  222.9918 H   0  0  0  0  0  0  0  0  0  0  0  0
  141.7040   81.0530  222.6710 C   0  0  0  0  0  0  0  0  0  0  0  0
  142.1508   81.8062  222.0054 H   0  0  0  0  0  0  0  0  0  0  0  0
  141.9688   81.2425  223.7217 H   0  0  0  0  0  0  0  0  0  0  0  0
  142.2470   79.6690  222.2880 C   0  0  0  0  0  0  0  0  0  0  0  0
  141.8858   79.4208  221.2791 H   0  0  0  0  0  0  0  0  0  0  0  0
  143.3443   79.7282  222.3368 H   0  0  0  0  0  0  0  0  0  0  0  0
  141.8140   78.5530  223.2460 C   0  0  0  0  0  0  0  0  0  0  0  0
  142.6552   77.8529  223.3569 H   0  0  0  0  0  0  0  0  0  0  0  0
  141.5309   79.0478  224.1868 H   0  0  0  0  0  0  0  0  0  0  0  0
  140.3210   74.7970  221.9880 N   0  0  0  0  0  0  0  0  0  0  0  0
  138.5190   72.1520  221.7820 C   0  0  0  0  0  0  0  0  0  0  0  0
  138.6659   71.2731  221.1370 H   0  0  0  0  0  0  0  0  0  0  0  0
  138.2114   73.0178  221.1773 H   0  0  0  0  0  0  0  0  0  0  0  0
  137.4270   71.8490  222.8030 C   0  0  0  0  0  0  0  0  0  0  0  0
  136.5168   71.5256  222.2768 H   0  0  0  0  0  0  0  0  0  0  0  0
  137.2191   72.7573  223.3876 H   0  0  0  0  0  0  0  0  0  0  0  0
  1  2  1  0
  2  3  2  0
  3  4  1  0
  3  5  1  0
  5  6  1  0
  5  7  2  0
  7  8  1  0
  8  9  2  0
  9 10  1  0
  8 11  1  0
 11 12  1  0
 11 13  1  0
 11 14  1  0
 14 15  1  0
 15 16  1  0
 16 17  2  0
 17 18  1  0
 18 19  1  0
 19 20  1  0
 19 21  1  0
 19 22  1  0
 22 23  1  0
 22 24  1  0
 22 25  1  0
 25 26  1  0
 25 27  1  0
 25 28  1  0
 28 29  1  0
 28 30  1  0
 17 31  1  0
 31 32  1  0
 31 33  1  0
 33 34  2  0
 34 35  1  0
 35 36  1  0
 35 37  1  0
 37 38  1  0
 37 39  1  0
 37 40  1  0
 40 41  1  0
 40 42  1  0
 40 43  1  0
 43 44  1  0
 43 45  1  0
 43 46  1  0
 46 47  1  0
 46 48  1  0
 46 49  1  0
 49 50  1  0
 49 51  1  0
 49 52  1  0
 52 53  1  0
 52 54  1  0
 33 55  1  0
 14 56  1  0
 56 57  1  0
 56 58  1  0
 56 59  1  0
 59 60  1  0
 59 61  1  0
  9  2  1  0
 55 15  2  0
 59  7  1  0
 28 18  1  0
 52 35  1  0
M  END
>  <UniqueID>  (8) 
569

>  <SMILES>  (8) 
c1ccc2c(c1)CCN(c1nc(N3CCCC3)[nH]/c(=N/C3CCCCCC3)n1)C2

>  <Energy>  (8) 
68.04771974537705

>  <Genealogy>  (8) 
c1ccc2c(c1)CCN(c1nc(N3CCCC3)[nH]c(=NC3CCCCCC3)n1)C2 (tautomer)
c1ccc2c(c1)CCN(c1nc(N3CCCC3)[nH]/c(=N/C3CCCCCC3)n1)C2 (cis-trans isomerization)
c1ccc2c(c1)CCN(c1nc(N3CCCC3)[nH]/c(=N/C3CCCCCC3)n1)C2 (3D coordinates assigned)
c1ccc2c(c1)CCN(c1nc(N3CCCC3)[nH]/c(=N/C3CCCCCC3)n1)C2 (nonaromatic ring conformer: 68.04771974537705 kcal/mol)

>  <smiles>  (8) 
c1ccc2c(c1)CCN(c1nc(NC3CCCCCC3)nc(N3CCCC3)n1)C2

>  <score_type>  (8) 
oracle

>  <origin>  (8) 
autodockgpu

>  <m_score__min__energy>  (8) 
-6.29

>  <m_primary>  (8) 
energy

>  <meeko>  (8) 
{"free_energy": -4.81, "intermolecular_energy": -7.79, "internal_energy": -0.83, "cluster_size": 9, "cluster_id": 1, "rank_in_cluster": 9}

>  <energy>  (8) 
-4.86

>  <cluster_rmsd>  (8) 
0.91

>  <rmsd>  (8) 
270.61

>  <cluster>  (8) 
1

$$$$
HZXVWJKCCMCLGL-HKCMIAPXNA-N
     RDKit          3D

 61 65  0  0  0  0  0  0  0  0999 V2000
  140.9423   68.2898  227.8178 H   0  0  0  0  0  0  0  0  0  0  0  0
  140.4050   68.6870  226.9440 C   0  0  0  0  0  0  0  0  0  0  0  0
  139.1940   68.1110  226.5480 C   0  0  0  0  0  0  0  0  0  0  0  0
  138.7746   67.2679  227.1165 H   0  0  0  0  0  0  0  0  0  0  0  0
  138.5170   68.6050  225.4320 C   0  0  0  0  0  0  0  0  0  0  0  0
  137.5634   68.1513  225.1242 H   0  0  0  0  0  0  0  0  0  0  0  0
  139.0490   69.6790  224.7010 C   0  0  0  0  0  0  0  0  0  0  0  0
  140.2600   70.2740  225.1080 C   0  0  0  0  0  0  0  0  0  0  0  0
  140.9340   69.7670  226.2310 C   0  0  0  0  0  0  0  0  0  0  0  0
  141.8829   70.2219  226.5512 H   0  0  0  0  0  0  0  0  0  0  0  0
  140.8080   71.4950  224.4070 C   0  0  0  0  0  0  0  0  0  0  0  0
  141.8891   71.3553  224.2599 H   0  0  0  0  0  0  0  0  0  0  0  0
  140.5805   72.3618  225.0448 H   0  0  0  0  0  0  0  0  0  0  0  0
  140.1880   71.7510  223.0930 N   0  0  0  0  0  0  0  0  0  0  0  0
  140.6100   72.9090  222.3400 C   0  0  0  0  0  0  0  0  0  0  0  0
  141.7410   72.8690  221.5930 N   0  0  0  0  0  0  0  0  0  0  0  0
  142.1290   73.9370  220.8520 C   0  0  0  0  0  0  0  0  0  0  0  0
  143.3260   73.8480  220.0570 N   0  0  0  0  0  0  0  0  0  0  0  0
  144.6380   73.6480  220.6520 C   0  0  0  0  0  0  0  0  0  0  0  0
  144.9779   74.5701  221.1462 H   0  0  0  0  0  0  0  0  0  0  0  0
  144.6171   72.8566  221.4157 H   0  0  0  0  0  0  0  0  0  0  0  0
  145.5710   73.2890  219.5030 C   0  0  0  0  0  0  0  0  0  0  0  0
  146.4829   73.9025  219.5479 H   0  0  0  0  0  0  0  0  0  0  0  0
  145.8785   72.2341  219.5545 H   0  0  0  0  0  0  0  0  0  0  0  0
  144.8020   73.5790  218.2140 C   0  0  0  0  0  0  0  0  0  0  0  0
  145.1523   74.5200  217.7648 H   0  0  0  0  0  0  0  0  0  0  0  0
  144.9532   72.7829  217.4701 H   0  0  0  0  0  0  0  0  0  0  0  0
  143.3330   73.6970  218.6100 C   0  0  0  0  0  0  0  0  0  0  0  0
  142.8759   74.5752  218.1306 H   0  0  0  0  0  0  0  0  0  0  0  0
  142.7547   72.8174  218.2909 H   0  0  0  0  0  0  0  0  0  0  0  0
  141.3730   75.0720  220.8660 N   0  0  0  0  0  0  0  0  0  0  0  0
  141.6590   75.9100  220.3110 H   0  0  0  0  0  0  0  0  0  0  0  0
  140.2500   75.1340  221.6310 C   0  0  0  0  0  0  0  0  0  0  0  0
  139.5510   76.2310  221.6630 N   0  0  0  0  0  0  0  0  0  0  0  0
  139.6730   77.2840  222.6790 C   0  0  0  0  0  0  0  0  0  0  0  0
  139.2394   76.8926  223.6111 H   0  0  0  0  0  0  0  0  0  0  0  0
  138.8650   78.5380  222.2780 C   0  0  0  0  0  0  0  0  0  0  0  0
  138.9785   78.6758  221.1926 H   0  0  0  0  0  0  0  0  0  0  0  0
  137.8348   78.3384  222.6078 H   0  0  0  0  0  0  0  0  0  0  0  0
  139.2640   79.8620  222.9630 C   0  0  0  0  0  0  0  0  0  0  0  0
  138.3710   80.5037  222.9914 H   0  0  0  0  0  0  0  0  0  0  0  0
  139.6541   79.5687  223.9488 H   0  0  0  0  0  0  0  0  0  0  0  0
  140.4000   80.6730  222.3060 C   0  0  0  0  0  0  0  0  0  0  0  0
  140.1760   80.7706  221.2335 H   0  0  0  0  0  0  0  0  0  0  0  0
  140.4355   81.6400  222.8291 H   0  0  0  0  0  0  0  0  0  0  0  0
  141.7970   80.0490  222.4490 C   0  0  0  0  0  0  0  0  0  0  0  0
  142.5057   80.6205  221.8316 H   0  0  0  0  0  0  0  0  0  0  0  0
  142.0763   80.0836  223.5124 H   0  0  0  0  0  0  0  0  0  0  0  0
  141.8220   78.5810  222.0010 C   0  0  0  0  0  0  0  0  0  0  0  0
  141.2998   78.5031  221.0360 H   0  0  0  0  0  0  0  0  0  0  0  0
  142.8786   78.2835  221.9304 H   0  0  0  0  0  0  0  0  0  0  0  0
  141.1510   77.6240  222.9940 C   0  0  0  0  0  0  0  0  0  0  0  0
  141.7230   76.6845  223.0020 H   0  0  0  0  0  0  0  0  0  0  0  0
  141.1472   78.1414  223.9647 H   0  0  0  0  0  0  0  0  0  0  0  0
  139.8690   74.0480  222.3550 N   0  0  0  0  0  0  0  0  0  0  0  0
  139.2730   70.7700  222.4860 C   0  0  0  0  0  0  0  0  0  0  0  0
  139.8585   69.9342  222.0755 H   0  0  0  0  0  0  0  0  0  0  0  0
  138.7031   71.2627  221.6844 H   0  0  0  0  0  0  0  0  0  0  0  0
  138.2970   70.2350  223.5290 C   0  0  0  0  0  0  0  0  0  0  0  0
  137.6840   69.4398  223.0796 H   0  0  0  0  0  0  0  0  0  0  0  0
  137.6511   71.0565  223.8725 H   0  0  0  0  0  0  0  0  0  0  0  0
  1  2  1  0
  2  3  2  0
  3  4  1  0
  3  5  1  0
  5  6  1  0
  5  7  2  0
  7  8  1  0
  8  9  2  0
  9 10  1  0
  8 11  1  0
 11 12  1  0
 11 13  1  0
 11 14  1  0
 14 15  1  0
 15 16  1  0
 16 17  2  0
 17 18  1  0
 18 19  1  0
 19 20  1  0
 19 21  1  0
 19 22  1  0
 22 23  1  0
 22 24  1  0
 22 25  1  0
 25 26  1  0
 25 27  1  0
 25 28  1  0
 28 29  1  0
 28 30  1  0
 17 31  1  0
 31 32  1  0
 31 33  1  0
 33 34  2  0
 34 35  1  0
 35 36  1  0
 35 37  1  0
 37 38  1  0
 37 39  1  0
 37 40  1  0
 40 41  1  0
 40 42  1  0
 40 43  1  0
 43 44  1  0
 43 45  1  0
 43 46  1  0
 46 47  1  0
 46 48  1  0
 46 49  1  0
 49 50  1  0
 49 51  1  0
 49 52  1  0
 52 53  1  0
 52 54  1  0
 33 55  1  0
 14 56  1  0
 56 57  1  0
 56 58  1  0
 56 59  1  0
 59 60  1  0
 59 61  1  0
  9  2  1  0
 55 15  2  0
 59  7  1  0
 28 18  1  0
 52 35  1  0
M  END
>  <UniqueID>  (9) 
569

>  <SMILES>  (9) 
c1ccc2c(c1)CCN(c1nc(N3CCCC3)[nH]/c(=N/C3CCCCCC3)n1)C2

>  <Energy>  (9) 
68.04771974537705

>  <Genealogy>  (9) 
c1ccc2c(c1)CCN(c1nc(N3CCCC3)[nH]c(=NC3CCCCCC3)n1)C2 (tautomer)
c1ccc2c(c1)CCN(c1nc(N3CCCC3)[nH]/c(=N/C3CCCCCC3)n1)C2 (cis-trans isomerization)
c1ccc2c(c1)CCN(c1nc(N3CCCC3)[nH]/c(=N/C3CCCCCC3)n1)C2 (3D coordinates assigned)
c1ccc2c(c1)CCN(c1nc(N3CCCC3)[nH]/c(=N/C3CCCCCC3)n1)C2 (nonaromatic ring conformer: 68.04771974537705 kcal/mol)

>  <smiles>  (9) 
c1ccc2c(c1)CCN(c1nc(NC3CCCCCC3)nc(N3CCCC3)n1)C2

>  <score_type>  (9) 
oracle

>  <origin>  (9) 
autodockgpu

>  <m_score__min__energy>  (9) 
-6.29

>  <m_primary>  (9) 
energy

>  <meeko>  (9) 
{"free_energy": -6.03, "intermolecular_energy": -9.01, "internal_energy": -0.93, "cluster_size": 9, "cluster_id": 1, "rank_in_cluster": 4}

>  <energy>  (9) 
-4.81

>  <cluster_rmsd>  (9) 
1.1

>  <rmsd>  (9) 
270.73

>  <cluster>  (9) 
1

$$$$
HZXVWJKCCMCLGL-HKCMIAPXNA-N
     RDKit          3D

 61 65  0  0  0  0  0  0  0  0999 V2000
  140.8640   81.4890  224.4192 H   0  0  0  0  0  0  0  0  0  0  0  0
  140.4700   80.7720  223.6840 C   0  0  0  0  0  0  0  0  0  0  0  0
  139.5280   81.1890  222.7380 C   0  0  0  0  0  0  0  0  0  0  0  0
  139.1890   82.2354  222.7239 H   0  0  0  0  0  0  0  0  0  0  0  0
  139.0180   80.2780  221.8120 C   0  0  0  0  0  0  0  0  0  0  0  0
  138.2787   80.6089  221.0677 H   0  0  0  0  0  0  0  0  0  0  0  0
  139.4450   78.9410  221.8270 C   0  0  0  0  0  0  0  0  0  0  0  0
  140.4070   78.5210  222.7680 C   0  0  0  0  0  0  0  0  0  0  0  0
  140.9120   79.4450  223.6970 C   0  0  0  0  0  0  0  0  0  0  0  0
  141.6585   79.1238  224.4383 H   0  0  0  0  0  0  0  0  0  0  0  0
  140.9630   77.1170  222.7470 C   0  0  0  0  0  0  0  0  0  0  0  0
  141.0021   76.7433  223.7808 H   0  0  0  0  0  0  0  0  0  0  0  0
  141.9589   77.1722  222.2831 H   0  0  0  0  0  0  0  0  0  0  0  0
  140.1630   76.1750  221.9410 N   0  0  0  0  0  0  0  0  0  0  0  0
  140.6130   74.8080  221.8210 C   0  0  0  0  0  0  0  0  0  0  0  0
  141.7880   74.5220  221.2080 N   0  0  0  0  0  0  0  0  0  0  0  0
  142.2410   73.2460  221.1210 C   0  0  0  0  0  0  0  0  0  0  0  0
  143.5030   72.9860  220.4800 N   0  0  0  0  0  0  0  0  0  0  0  0
  144.6990   73.7570  220.7810 C   0  0  0  0  0  0  0  0  0  0  0  0
  144.6272   74.7616  220.3386 H   0  0  0  0  0  0  0  0  0  0  0  0
  144.8320   73.8860  221.8653 H   0  0  0  0  0  0  0  0  0  0  0  0
  145.8610   72.9900  220.1650 C   0  0  0  0  0  0  0  0  0  0  0  0
  146.4924   73.6681  219.5720 H   0  0  0  0  0  0  0  0  0  0  0  0
  146.4968   72.5394  220.9413 H   0  0  0  0  0  0  0  0  0  0  0  0
  145.2440   71.9190  219.2640 C   0  0  0  0  0  0  0  0  0  0  0  0
  145.3180   72.2200  218.2086 H   0  0  0  0  0  0  0  0  0  0  0  0
  145.7674   70.9572  219.3693 H   0  0  0  0  0  0  0  0  0  0  0  0
  143.7810   71.8030  219.6790 C   0  0  0  0  0  0  0  0  0  0  0  0
  143.1315   71.7796  218.7916 H   0  0  0  0  0  0  0  0  0  0  0  0
  143.5914   70.8777  220.2427 H   0  0  0  0  0  0  0  0  0  0  0  0
  141.4960   72.2340  221.6510 N   0  0  0  0  0  0  0  0  0  0  0  0
  141.8200   71.2420  221.5860 H   0  0  0  0  0  0  0  0  0  0  0  0
  140.3020   72.5040  222.2450 C   0  0  0  0  0  0  0  0  0  0  0  0
  139.5820   71.5290  222.7210 N   0  0  0  0  0  0  0  0  0  0  0  0
  139.5060   71.1470  224.1360 C   0  0  0  0  0  0  0  0  0  0  0  0
  138.5356   71.4967  224.5182 H   0  0  0  0  0  0  0  0  0  0  0  0
  140.6110   71.8440  224.9590 C   0  0  0  0  0  0  0  0  0  0  0  0
  141.5698   71.6641  224.4508 H   0  0  0  0  0  0  0  0  0  0  0  0
  140.3123   72.9014  225.0104 H   0  0  0  0  0  0  0  0  0  0  0  0
  140.7660   71.3920  226.4260 C   0  0  0  0  0  0  0  0  0  0  0  0
  141.6522   71.8959  226.8393 H   0  0  0  0  0  0  0  0  0  0  0  0
  139.8184   71.6608  226.9157 H   0  0  0  0  0  0  0  0  0  0  0  0
  140.9340   69.8780  226.6640 C   0  0  0  0  0  0  0  0  0  0  0  0
  141.4636   69.4513  225.7994 H   0  0  0  0  0  0  0  0  0  0  0  0
  141.4906   69.7702  227.6066 H   0  0  0  0  0  0  0  0  0  0  0  0
  139.6150   69.1090  226.8460 C   0  0  0  0  0  0  0  0  0  0  0  0
  139.8456   68.0699  227.1237 H   0  0  0  0  0  0  0  0  0  0  0  0
  139.0347   69.6129  227.6330 H   0  0  0  0  0  0  0  0  0  0  0  0
  138.7690   69.1030  225.5650 C   0  0  0  0  0  0  0  0  0  0  0  0
  138.4378   68.0720  225.3717 H   0  0  0  0  0  0  0  0  0  0  0  0
  137.9254   69.7888  225.7322 H   0  0  0  0  0  0  0  0  0  0  0  0
  139.5230   69.6100  224.3290 C   0  0  0  0  0  0  0  0  0  0  0  0
  140.5715   69.2883  224.4133 H   0  0  0  0  0  0  0  0  0  0  0  0
  139.0043   69.1851  223.4570 H   0  0  0  0  0  0  0  0  0  0  0  0
  139.8730   73.7910  222.3360 N   0  0  0  0  0  0  0  0  0  0  0  0
  138.8540   76.5710  221.3950 C   0  0  0  0  0  0  0  0  0  0  0  0
  138.1056   76.5561  222.2011 H   0  0  0  0  0  0  0  0  0  0  0  0
  138.5697   75.8638  220.6018 H   0  0  0  0  0  0  0  0  0  0  0  0
  138.9270   77.9750  220.8030 C   0  0  0  0  0  0  0  0  0  0  0  0
  137.9219   78.2877  220.4837 H   0  0  0  0  0  0  0  0  0  0  0  0
  139.6086   77.9662  219.9397 H   0  0  0  0  0  0  0  0  0  0  0  0
  1  2  1  0
  2  3  2  0
  3  4  1  0
  3  5  1  0
  5  6  1  0
  5  7  2  0
  7  8  1  0
  8  9  2  0
  9 10  1  0
  8 11  1  0
 11 12  1  0
 11 13  1  0
 11 14  1  0
 14 15  1  0
 15 16  1  0
 16 17  2  0
 17 18  1  0
 18 19  1  0
 19 20  1  0
 19 21  1  0
 19 22  1  0
 22 23  1  0
 22 24  1  0
 22 25  1  0
 25 26  1  0
 25 27  1  0
 25 28  1  0
 28 29  1  0
 28 30  1  0
 17 31  1  0
 31 32  1  0
 31 33  1  0
 33 34  2  0
 34 35  1  0
 35 36  1  0
 35 37  1  0
 37 38  1  0
 37 39  1  0
 37 40  1  0
 40 41  1  0
 40 42  1  0
 40 43  1  0
 43 44  1  0
 43 45  1  0
 43 46  1  0
 46 47  1  0
 46 48  1  0
 46 49  1  0
 49 50  1  0
 49 51  1  0
 49 52  1  0
 52 53  1  0
 52 54  1  0
 33 55  1  0
 14 56  1  0
 56 57  1  0
 56 58  1  0
 56 59  1  0
 59 60  1  0
 59 61  1  0
  9  2  1  0
 55 15  2  0
 59  7  1  0
 28 18  1  0
 52 35  1  0
M  END
>  <UniqueID>  (10) 
569

>  <SMILES>  (10) 
c1ccc2c(c1)CCN(c1nc(N3CCCC3)[nH]/c(=N/C3CCCCCC3)n1)C2

>  <Energy>  (10) 
68.04771974537705

>  <Genealogy>  (10) 
c1ccc2c(c1)CCN(c1nc(N3CCCC3)[nH]c(=NC3CCCCCC3)n1)C2 (tautomer)
c1ccc2c(c1)CCN(c1nc(N3CCCC3)[nH]/c(=N/C3CCCCCC3)n1)C2 (cis-trans isomerization)
c1ccc2c(c1)CCN(c1nc(N3CCCC3)[nH]/c(=N/C3CCCCCC3)n1)C2 (3D coordinates assigned)
c1ccc2c(c1)CCN(c1nc(N3CCCC3)[nH]/c(=N/C3CCCCCC3)n1)C2 (nonaromatic ring conformer: 68.04771974537705 kcal/mol)

>  <smiles>  (10) 
c1ccc2c(c1)CCN(c1nc(NC3CCCCCC3)nc(N3CCCC3)n1)C2

>  <score_type>  (10) 
oracle

>  <origin>  (10) 
autodockgpu

>  <m_score__min__energy>  (10) 
-6.29

>  <m_primary>  (10) 
energy

>  <meeko>  (10) 
{"free_energy": -5.57, "intermolecular_energy": -8.55, "internal_energy": -0.9, "cluster_size": 7, "cluster_id": 2, "rank_in_cluster": 5}

>  <energy>  (10) 
-6.18

>  <cluster_rmsd>  (10) 
0.0

>  <rmsd>  (10) 
270.91

>  <cluster>  (10) 
2

$$$$
HZXVWJKCCMCLGL-HKCMIAPXNA-N
     RDKit          3D

 61 65  0  0  0  0  0  0  0  0999 V2000
  135.6245   79.8495  223.0566 H   0  0  0  0  0  0  0  0  0  0  0  0
  136.6830   79.5600  222.9810 C   0  0  0  0  0  0  0  0  0  0  0  0
  137.6820   80.5270  223.1220 C   0  0  0  0  0  0  0  0  0  0  0  0
  137.4090   81.5745  223.3175 H   0  0  0  0  0  0  0  0  0  0  0  0
  139.0260   80.1650  223.0150 C   0  0  0  0  0  0  0  0  0  0  0  0
  139.8104   80.9276  223.1300 H   0  0  0  0  0  0  0  0  0  0  0  0
  139.3790   78.8300  222.7610 C   0  0  0  0  0  0  0  0  0  0  0  0
  138.3740   77.8480  222.6360 C   0  0  0  0  0  0  0  0  0  0  0  0
  137.0260   78.2250  222.7440 C   0  0  0  0  0  0  0  0  0  0  0  0
  136.2357   77.4667  222.6417 H   0  0  0  0  0  0  0  0  0  0  0  0
  138.7210   76.3890  222.4660 C   0  0  0  0  0  0  0  0  0  0  0  0
  138.0698   75.9655  221.6872 H   0  0  0  0  0  0  0  0  0  0  0  0
  138.5734   75.9072  223.4438 H   0  0  0  0  0  0  0  0  0  0  0  0
  140.1260   76.1550  222.0770 N   0  0  0  0  0  0  0  0  0  0  0  0
  140.5840   74.7960  221.9130 C   0  0  0  0  0  0  0  0  0  0  0  0
  141.6680   74.5240  221.1460 N   0  0  0  0  0  0  0  0  0  0  0  0
  142.1330   73.2560  221.0130 C   0  0  0  0  0  0  0  0  0  0  0  0
  143.2980   73.0110  220.2040 N   0  0  0  0  0  0  0  0  0  0  0  0
  143.2040   72.6010  218.8120 C   0  0  0  0  0  0  0  0  0  0  0  0
  142.8782   71.5526  218.7438 H   0  0  0  0  0  0  0  0  0  0  0  0
  142.4692   73.2078  218.2626 H   0  0  0  0  0  0  0  0  0  0  0  0
  144.6030   72.7590  218.2310 C   0  0  0  0  0  0  0  0  0  0  0  0
  144.8951   71.8471  217.6896 H   0  0  0  0  0  0  0  0  0  0  0  0
  144.6460   73.5956  217.5181 H   0  0  0  0  0  0  0  0  0  0  0  0
  145.5400   72.9930  219.4160 C   0  0  0  0  0  0  0  0  0  0  0  0
  146.0999   72.0745  219.6460 H   0  0  0  0  0  0  0  0  0  0  0  0
  146.2754   73.7805  219.1948 H   0  0  0  0  0  0  0  0  0  0  0  0
  144.6520   73.3790  220.5940 C   0  0  0  0  0  0  0  0  0  0  0  0
  144.9535   72.8294  221.4979 H   0  0  0  0  0  0  0  0  0  0  0  0
  144.7301   74.4512  220.8271 H   0  0  0  0  0  0  0  0  0  0  0  0
  141.4920   72.2370  221.6550 N   0  0  0  0  0  0  0  0  0  0  0  0
  141.8260   71.2520  221.5580 H   0  0  0  0  0  0  0  0  0  0  0  0
  140.3870   72.4940  222.4070 C   0  0  0  0  0  0  0  0  0  0  0  0
  139.7640   71.5120  222.9920 N   0  0  0  0  0  0  0  0  0  0  0  0
  140.2780   70.7420  224.1310 C   0  0  0  0  0  0  0  0  0  0  0  0
  141.3331   70.5117  223.9219 H   0  0  0  0  0  0  0  0  0  0  0  0
  139.5260   69.4010  224.2780 C   0  0  0  0  0  0  0  0  0  0  0  0
  138.4482   69.6149  224.2263 H   0  0  0  0  0  0  0  0  0  0  0  0
  139.9053   68.7642  223.4652 H   0  0  0  0  0  0  0  0  0  0  0  0
  139.7840   68.6050  225.5740 C   0  0  0  0  0  0  0  0  0  0  0  0
  139.2300   67.6578  225.4976 H   0  0  0  0  0  0  0  0  0  0  0  0
  140.8774   68.4992  225.6316 H   0  0  0  0  0  0  0  0  0  0  0  0
  139.3760   69.2770  226.9010 C   0  0  0  0  0  0  0  0  0  0  0  0
  138.5168   69.9346  226.7028 H   0  0  0  0  0  0  0  0  0  0  0  0
  139.1432   68.4636  227.6040 H   0  0  0  0  0  0  0  0  0  0  0  0
  140.4820   70.1180  227.5580 C   0  0  0  0  0  0  0  0  0  0  0  0
  140.0336   70.7393  228.3473 H   0  0  0  0  0  0  0  0  0  0  0  0
  141.2321   69.4277  227.9713 H   0  0  0  0  0  0  0  0  0  0  0  0
  141.1880   71.0340  226.5480 C   0  0  0  0  0  0  0  0  0  0  0  0
  141.6062   71.8940  227.0916 H   0  0  0  0  0  0  0  0  0  0  0  0
  141.9658   70.4321  226.0554 H   0  0  0  0  0  0  0  0  0  0  0  0
  140.2620   71.5610  225.4460 C   0  0  0  0  0  0  0  0  0  0  0  0
  139.2333   71.5610  225.8356 H   0  0  0  0  0  0  0  0  0  0  0  0
  140.6310   72.5646  225.1879 H   0  0  0  0  0  0  0  0  0  0  0  0
  139.9470   73.7730  222.5400 N   0  0  0  0  0  0  0  0  0  0  0  0
  141.0050   77.2790  221.7120 C   0  0  0  0  0  0  0  0  0  0  0  0
  140.7545   77.6198  220.6966 H   0  0  0  0  0  0  0  0  0  0  0  0
  142.0509   76.9405  221.7505 H   0  0  0  0  0  0  0  0  0  0  0  0
  140.8240   78.4360  222.6890 C   0  0  0  0  0  0  0  0  0  0  0  0
  141.4189   79.2962  222.3481 H   0  0  0  0  0  0  0  0  0  0  0  0
  141.1605   78.1195  223.6873 H   0  0  0  0  0  0  0  0  0  0  0  0
  1  2  1  0
  2  3  2  0
  3  4  1  0
  3  5  1  0
  5  6  1  0
  5  7  2  0
  7  8  1  0
  8  9  2  0
  9 10  1  0
  8 11  1  0
 11 12  1  0
 11 13  1  0
 11 14  1  0
 14 15  1  0
 15 16  1  0
 16 17  2  0
 17 18  1  0
 18 19  1  0
 19 20  1  0
 19 21  1  0
 19 22  1  0
 22 23  1  0
 22 24  1  0
 22 25  1  0
 25 26  1  0
 25 27  1  0
 25 28  1  0
 28 29  1  0
 28 30  1  0
 17 31  1  0
 31 32  1  0
 31 33  1  0
 33 34  2  0
 34 35  1  0
 35 36  1  0
 35 37  1  0
 37 38  1  0
 37 39  1  0
 37 40  1  0
 40 41  1  0
 40 42  1  0
 40 43  1  0
 43 44  1  0
 43 45  1  0
 43 46  1  0
 46 47  1  0
 46 48  1  0
 46 49  1  0
 49 50  1  0
 49 51  1  0
 49 52  1  0
 52 53  1  0
 52 54  1  0
 33 55  1  0
 14 56  1  0
 56 57  1  0
 56 58  1  0
 56 59  1  0
 59 60  1  0
 59 61  1  0
  9  2  1  0
 55 15  2  0
 59  7  1  0
 28 18  1  0
 52 35  1  0
M  END
>  <UniqueID>  (11) 
569

>  <SMILES>  (11) 
c1ccc2c(c1)CCN(c1nc(N3CCCC3)[nH]/c(=N/C3CCCCCC3)n1)C2

>  <Energy>  (11) 
68.04771974537705

>  <Genealogy>  (11) 
c1ccc2c(c1)CCN(c1nc(N3CCCC3)[nH]c(=NC3CCCCCC3)n1)C2 (tautomer)
c1ccc2c(c1)CCN(c1nc(N3CCCC3)[nH]/c(=N/C3CCCCCC3)n1)C2 (cis-trans isomerization)
c1ccc2c(c1)CCN(c1nc(N3CCCC3)[nH]/c(=N/C3CCCCCC3)n1)C2 (3D coordinates assigned)
c1ccc2c(c1)CCN(c1nc(N3CCCC3)[nH]/c(=N/C3CCCCCC3)n1)C2 (nonaromatic ring conformer: 68.04771974537705 kcal/mol)

>  <smiles>  (11) 
c1ccc2c(c1)CCN(c1nc(NC3CCCCCC3)nc(N3CCCC3)n1)C2

>  <score_type>  (11) 
oracle

>  <origin>  (11) 
autodockgpu

>  <m_score__min__energy>  (11) 
-6.29

>  <m_primary>  (11) 
energy

>  <meeko>  (11) 
{"free_energy": -5.89, "intermolecular_energy": -8.87, "internal_energy": -0.83, "cluster_size": 7, "cluster_id": 2, "rank_in_cluster": 2}

>  <energy>  (11) 
-5.89

>  <cluster_rmsd>  (11) 
0.76

>  <rmsd>  (11) 
270.82

>  <cluster>  (11) 
2

$$$$
HZXVWJKCCMCLGL-HKCMIAPXNA-N
     RDKit          3D

 61 65  0  0  0  0  0  0  0  0999 V2000
  138.7320   68.1294  226.0050 H   0  0  0  0  0  0  0  0  0  0  0  0
  138.4250   68.9460  225.3350 C   0  0  0  0  0  0  0  0  0  0  0  0
  137.0760   69.1110  225.0090 C   0  0  0  0  0  0  0  0  0  0  0  0
  136.3217   68.4299  225.4299 H   0  0  0  0  0  0  0  0  0  0  0  0
  136.6850   70.1390  224.1500 C   0  0  0  0  0  0  0  0  0  0  0  0
  135.6222   70.2681  223.8975 H   0  0  0  0  0  0  0  0  0  0  0  0
  137.6440   71.0090  223.6070 C   0  0  0  0  0  0  0  0  0  0  0  0
  139.0030   70.8570  223.9470 C   0  0  0  0  0  0  0  0  0  0  0  0
  139.3850   69.8170  224.8110 C   0  0  0  0  0  0  0  0  0  0  0  0
  140.4446   69.6874  225.0765 H   0  0  0  0  0  0  0  0  0  0  0  0
  140.0460   71.8360  223.4630 C   0  0  0  0  0  0  0  0  0  0  0  0
  140.9250   71.2680  223.1242 H   0  0  0  0  0  0  0  0  0  0  0  0
  140.2774   72.5030  224.3066 H   0  0  0  0  0  0  0  0  0  0  0  0
  139.5860   72.6900  222.3510 N   0  0  0  0  0  0  0  0  0  0  0  0
  140.4870   73.6870  221.8230 C   0  0  0  0  0  0  0  0  0  0  0  0
  141.6580   73.3190  221.2450 N   0  0  0  0  0  0  0  0  0  0  0  0
  142.4970   74.2430  220.7110 C   0  0  0  0  0  0  0  0  0  0  0  0
  143.7200   73.8100  220.0900 N   0  0  0  0  0  0  0  0  0  0  0  0
  143.8030   73.5020  218.6700 C   0  0  0  0  0  0  0  0  0  0  0  0
  143.3016   72.5465  218.4566 H   0  0  0  0  0  0  0  0  0  0  0  0
  143.3087   74.2737  218.0616 H   0  0  0  0  0  0  0  0  0  0  0  0
  145.2870   73.4040  218.3460 C   0  0  0  0  0  0  0  0  0  0  0  0
  145.4929   72.4822  217.7821 H   0  0  0  0  0  0  0  0  0  0  0  0
  145.6161   74.2517  217.7270 H   0  0  0  0  0  0  0  0  0  0  0  0
  146.0230   73.3790  219.6870 C   0  0  0  0  0  0  0  0  0  0  0  0
  146.3474   72.3551  219.9247 H   0  0  0  0  0  0  0  0  0  0  0  0
  146.9226   74.0115  219.6619 H   0  0  0  0  0  0  0  0  0  0  0  0
  145.0260   73.8730  220.7300 C   0  0  0  0  0  0  0  0  0  0  0  0
  145.0488   73.2254  221.6189 H   0  0  0  0  0  0  0  0  0  0  0  0
  145.2636   74.8929  221.0666 H   0  0  0  0  0  0  0  0  0  0  0  0
  142.1600   75.5630  220.7650 N   0  0  0  0  0  0  0  0  0  0  0  0
  142.7960   76.2920  220.3700 H   0  0  0  0  0  0  0  0  0  0  0  0
  141.0010   75.9480  221.3660 C   0  0  0  0  0  0  0  0  0  0  0  0
  140.7030   77.2130  221.4410 N   0  0  0  0  0  0  0  0  0  0  0  0
  140.3020   77.9170  222.6650 C   0  0  0  0  0  0  0  0  0  0  0  0
  139.7623   77.1957  223.2962 H   0  0  0  0  0  0  0  0  0  0  0  0
  139.3330   79.0760  222.3460 C   0  0  0  0  0  0  0  0  0  0  0  0
  139.2666   79.1644  221.2516 H   0  0  0  0  0  0  0  0  0  0  0  0
  138.3877   78.8095  222.8413 H   0  0  0  0  0  0  0  0  0  0  0  0
  139.7100   80.4630  222.9060 C   0  0  0  0  0  0  0  0  0  0  0  0
  138.8368   81.1202  222.7813 H   0  0  0  0  0  0  0  0  0  0  0  0
  140.0059   80.2799  223.9495 H   0  0  0  0  0  0  0  0  0  0  0  0
  140.9190   81.1690  222.2640 C   0  0  0  0  0  0  0  0  0  0  0  0
  140.9206   80.9371  221.1887 H   0  0  0  0  0  0  0  0  0  0  0  0
  140.8008   82.2424  222.4736 H   0  0  0  0  0  0  0  0  0  0  0  0
  142.2820   80.7590  222.8450 C   0  0  0  0  0  0  0  0  0  0  0  0
  143.0745   81.2968  222.3039 H   0  0  0  0  0  0  0  0  0  0  0  0
  142.2850   81.0147  223.9149 H   0  0  0  0  0  0  0  0  0  0  0  0
  142.5330   79.2500  222.7190 C   0  0  0  0  0  0  0  0  0  0  0  0
  142.4794   78.9760  221.6550 H   0  0  0  0  0  0  0  0  0  0  0  0
  143.5240   79.0500  223.1525 H   0  0  0  0  0  0  0  0  0  0  0  0
  141.5220   78.3940  223.4920 C   0  0  0  0  0  0  0  0  0  0  0  0
  142.0467   77.5044  223.8706 H   0  0  0  0  0  0  0  0  0  0  0  0
  141.1210   79.0364  224.2898 H   0  0  0  0  0  0  0  0  0  0  0  0
  140.1670   75.0060  221.8810 N   0  0  0  0  0  0  0  0  0  0  0  0
  138.2980   72.4340  221.6860 C   0  0  0  0  0  0  0  0  0  0  0  0
  138.4027   71.5696  221.0139 H   0  0  0  0  0  0  0  0  0  0  0  0
  138.0095   73.3268  221.1118 H   0  0  0  0  0  0  0  0  0  0  0  0
  137.2150   72.1390  222.7190 C   0  0  0  0  0  0  0  0  0  0  0  0
  136.2845   71.8622  222.2017 H   0  0  0  0  0  0  0  0  0  0  0  0
  137.0490   73.0365  223.3330 H   0  0  0  0  0  0  0  0  0  0  0  0
  1  2  1  0
  2  3  2  0
  3  4  1  0
  3  5  1  0
  5  6  1  0
  5  7  2  0
  7  8  1  0
  8  9  2  0
  9 10  1  0
  8 11  1  0
 11 12  1  0
 11 13  1  0
 11 14  1  0
 14 15  1  0
 15 16  1  0
 16 17  2  0
 17 18  1  0
 18 19  1  0
 19 20  1  0
 19 21  1  0
 19 22  1  0
 22 23  1  0
 22 24  1  0
 22 25  1  0
 25 26  1  0
 25 27  1  0
 25 28  1  0
 28 29  1  0
 28 30  1  0
 17 31  1  0
 31 32  1  0
 31 33  1  0
 33 34  2  0
 34 35  1  0
 35 36  1  0
 35 37  1  0
 37 38  1  0
 37 39  1  0
 37 40  1  0
 40 41  1  0
 40 42  1  0
 40 43  1  0
 43 44  1  0
 43 45  1  0
 43 46  1  0
 46 47  1  0
 46 48  1  0
 46 49  1  0
 49 50  1  0
 49 51  1  0
 49 52  1  0
 52 53  1  0
 52 54  1  0
 33 55  1  0
 14 56  1  0
 56 57  1  0
 56 58  1  0
 56 59  1  0
 59 60  1  0
 59 61  1  0
  9  2  1  0
 55 15  2  0
 59  7  1  0
 28 18  1  0
 52 35  1  0
M  END
>  <UniqueID>  (12) 
569

>  <SMILES>  (12) 
c1ccc2c(c1)CCN(c1nc(N3CCCC3)[nH]/c(=N/C3CCCCCC3)n1)C2

>  <Energy>  (12) 
68.04771974537705

>  <Genealogy>  (12) 
c1ccc2c(c1)CCN(c1nc(N3CCCC3)[nH]c(=NC3CCCCCC3)n1)C2 (tautomer)
c1ccc2c(c1)CCN(c1nc(N3CCCC3)[nH]/c(=N/C3CCCCCC3)n1)C2 (cis-trans isomerization)
c1ccc2c(c1)CCN(c1nc(N3CCCC3)[nH]/c(=N/C3CCCCCC3)n1)C2 (3D coordinates assigned)
c1ccc2c(c1)CCN(c1nc(N3CCCC3)[nH]/c(=N/C3CCCCCC3)n1)C2 (nonaromatic ring conformer: 68.04771974537705 kcal/mol)

>  <smiles>  (12) 
c1ccc2c(c1)CCN(c1nc(NC3CCCCCC3)nc(N3CCCC3)n1)C2

>  <score_type>  (12) 
oracle

>  <origin>  (12) 
autodockgpu

>  <m_score__min__energy>  (12) 
-6.29

>  <m_primary>  (12) 
energy

>  <meeko>  (12) 
{"free_energy": -5.8, "intermolecular_energy": -8.78, "internal_energy": -0.88, "cluster_size": 9, "cluster_id": 1, "rank_in_cluster": 5}

>  <energy>  (12) 
-5.78

>  <cluster_rmsd>  (12) 
1.16

>  <rmsd>  (12) 
271.02

>  <cluster>  (12) 
2

$$$$
HZXVWJKCCMCLGL-HKCMIAPXNA-N
     RDKit          3D

 61 65  0  0  0  0  0  0  0  0999 V2000
  141.4771   81.4180  223.4292 H   0  0  0  0  0  0  0  0  0  0  0  0
  140.8600   80.6340  222.9660 C   0  0  0  0  0  0  0  0  0  0  0  0
  139.6510   80.9710  222.3510 C   0  0  0  0  0  0  0  0  0  0  0  0
  139.3227   82.0205  222.3225 H   0  0  0  0  0  0  0  0  0  0  0  0
  138.8600   79.9770  221.7730 C   0  0  0  0  0  0  0  0  0  0  0  0
  137.9103   80.2452  221.2871 H   0  0  0  0  0  0  0  0  0  0  0  0
  139.2730   78.6360  221.8100 C   0  0  0  0  0  0  0  0  0  0  0  0
  140.5000   78.2950  222.4130 C   0  0  0  0  0  0  0  0  0  0  0  0
  141.2870   79.3030  222.9940 C   0  0  0  0  0  0  0  0  0  0  0  0
  142.2429   79.0442  223.4728 H   0  0  0  0  0  0  0  0  0  0  0  0
  141.0230   76.8780  222.3810 C   0  0  0  0  0  0  0  0  0  0  0  0
  141.4125   76.6286  223.3790 H   0  0  0  0  0  0  0  0  0  0  0  0
  141.8025   76.8395  221.6058 H   0  0  0  0  0  0  0  0  0  0  0  0
  140.0000   75.8780  222.0160 N   0  0  0  0  0  0  0  0  0  0  0  0
  140.3880   74.4900  221.9220 C   0  0  0  0  0  0  0  0  0  0  0  0
  141.4670   74.1270  221.1860 N   0  0  0  0  0  0  0  0  0  0  0  0
  141.8660   72.8310  221.1190 C   0  0  0  0  0  0  0  0  0  0  0  0
  143.0280   72.4890  220.3430 N   0  0  0  0  0  0  0  0  0  0  0  0
  144.0580   73.4640  220.0170 C   0  0  0  0  0  0  0  0  0  0  0  0
  143.6933   74.1632  219.2501 H   0  0  0  0  0  0  0  0  0  0  0  0
  144.3393   74.0618  220.8965 H   0  0  0  0  0  0  0  0  0  0  0  0
  145.2400   72.6650  219.4850 C   0  0  0  0  0  0  0  0  0  0  0  0
  145.5984   73.1000  218.5404 H   0  0  0  0  0  0  0  0  0  0  0  0
  146.0799   72.6765  220.1952 H   0  0  0  0  0  0  0  0  0  0  0  0
  144.7320   71.2410  219.2520 C   0  0  0  0  0  0  0  0  0  0  0  0
  144.5600   71.0685  218.1793 H   0  0  0  0  0  0  0  0  0  0  0  0
  145.4644   70.4940  219.5920 H   0  0  0  0  0  0  0  0  0  0  0  0
  143.4210   71.1240  220.0230 C   0  0  0  0  0  0  0  0  0  0  0  0
  142.6530   70.6395  219.4021 H   0  0  0  0  0  0  0  0  0  0  0  0
  143.5369   70.5121  220.9297 H   0  0  0  0  0  0  0  0  0  0  0  0
  141.1630   71.8790  221.7960 N   0  0  0  0  0  0  0  0  0  0  0  0
  141.4450   70.8740  221.7500 H   0  0  0  0  0  0  0  0  0  0  0  0
  140.0620   72.2270  222.5170 C   0  0  0  0  0  0  0  0  0  0  0  0
  139.3790   71.3070  223.1350 N   0  0  0  0  0  0  0  0  0  0  0  0
  139.9460   70.2870  224.0250 C   0  0  0  0  0  0  0  0  0  0  0  0
  140.2599   69.4417  223.3950 H   0  0  0  0  0  0  0  0  0  0  0  0
  138.8840   69.7640  225.0170 C   0  0  0  0  0  0  0  0  0  0  0  0
  138.1661   70.5777  225.1975 H   0  0  0  0  0  0  0  0  0  0  0  0
  138.4535   68.8720  224.5384 H   0  0  0  0  0  0  0  0  0  0  0  0
  139.4000   69.2820  226.3880 C   0  0  0  0  0  0  0  0  0  0  0  0
  138.6658   68.5665  226.7869 H   0  0  0  0  0  0  0  0  0  0  0  0
  140.3953   68.8587  226.1878 H   0  0  0  0  0  0  0  0  0  0  0  0
  139.6310   70.3640  227.4660 C   0  0  0  0  0  0  0  0  0  0  0  0
  138.7649   71.0422  227.4625 H   0  0  0  0  0  0  0  0  0  0  0  0
  139.7582   69.8314  228.4200 H   0  0  0  0  0  0  0  0  0  0  0  0
  140.9010   71.2070  227.2650 C   0  0  0  0  0  0  0  0  0  0  0  0
  140.9081   72.0197  228.0062 H   0  0  0  0  0  0  0  0  0  0  0  0
  141.7703   70.5446  227.3901 H   0  0  0  0  0  0  0  0  0  0  0  0
  140.9720   71.8190  225.8590 C   0  0  0  0  0  0  0  0  0  0  0  0
  140.0189   72.3280  225.6525 H   0  0  0  0  0  0  0  0  0  0  0  0
  141.8260   72.5123  225.8511 H   0  0  0  0  0  0  0  0  0  0  0  0
  141.2200   70.7860  224.7530 C   0  0  0  0  0  0  0  0  0  0  0  0
  141.8849   71.2410  224.0040 H   0  0  0  0  0  0  0  0  0  0  0  0
  141.6564   69.9055  225.2471 H   0  0  0  0  0  0  0  0  0  0  0  0
  139.6880   73.5320  222.5840 N   0  0  0  0  0  0  0  0  0  0  0  0
  138.5810   76.2560  221.9010 C   0  0  0  0  0  0  0  0  0  0  0  0
  138.1521   76.3650  222.9081 H   0  0  0  0  0  0  0  0  0  0  0  0
  138.0464   75.4713  221.3456 H   0  0  0  0  0  0  0  0  0  0  0  0
  138.4420   77.5760  221.1500 C   0  0  0  0  0  0  0  0  0  0  0  0
  137.3868   77.8868  221.1532 H   0  0  0  0  0  0  0  0  0  0  0  0
  138.7894   77.4392  220.1153 H   0  0  0  0  0  0  0  0  0  0  0  0
  1  2  1  0
  2  3  2  0
  3  4  1  0
  3  5  1  0
  5  6  1  0
  5  7  2  0
  7  8  1  0
  8  9  2  0
  9 10  1  0
  8 11  1  0
 11 12  1  0
 11 13  1  0
 11 14  1  0
 14 15  1  0
 15 16  1  0
 16 17  2  0
 17 18  1  0
 18 19  1  0
 19 20  1  0
 19 21  1  0
 19 22  1  0
 22 23  1  0
 22 24  1  0
 22 25  1  0
 25 26  1  0
 25 27  1  0
 25 28  1  0
 28 29  1  0
 28 30  1  0
 17 31  1  0
 31 32  1  0
 31 33  1  0
 33 34  2  0
 34 35  1  0
 35 36  1  0
 35 37  1  0
 37 38  1  0
 37 39  1  0
 37 40  1  0
 40 41  1  0
 40 42  1  0
 40 43  1  0
 43 44  1  0
 43 45  1  0
 43 46  1  0
 46 47  1  0
 46 48  1  0
 46 49  1  0
 49 50  1  0
 49 51  1  0
 49 52  1  0
 52 53  1  0
 52 54  1  0
 33 55  1  0
 14 56  1  0
 56 57  1  0
 56 58  1  0
 56 59  1  0
 59 60  1  0
 59 61  1  0
  9  2  1  0
 55 15  2  0
 59  7  1  0
 28 18  1  0
 52 35  1  0
M  END
>  <UniqueID>  (13) 
569

>  <SMILES>  (13) 
c1ccc2c(c1)CCN(c1nc(N3CCCC3)[nH]/c(=N/C3CCCCCC3)n1)C2

>  <Energy>  (13) 
68.04771974537705

>  <Genealogy>  (13) 
c1ccc2c(c1)CCN(c1nc(N3CCCC3)[nH]c(=NC3CCCCCC3)n1)C2 (tautomer)
c1ccc2c(c1)CCN(c1nc(N3CCCC3)[nH]/c(=N/C3CCCCCC3)n1)C2 (cis-trans isomerization)
c1ccc2c(c1)CCN(c1nc(N3CCCC3)[nH]/c(=N/C3CCCCCC3)n1)C2 (3D coordinates assigned)
c1ccc2c(c1)CCN(c1nc(N3CCCC3)[nH]/c(=N/C3CCCCCC3)n1)C2 (nonaromatic ring conformer: 68.04771974537705 kcal/mol)

>  <smiles>  (13) 
c1ccc2c(c1)CCN(c1nc(NC3CCCCCC3)nc(N3CCCC3)n1)C2

>  <score_type>  (13) 
oracle

>  <origin>  (13) 
autodockgpu

>  <m_score__min__energy>  (13) 
-6.29

>  <m_primary>  (13) 
energy

>  <meeko>  (13) 
{"free_energy": -5.29, "intermolecular_energy": -8.27, "internal_energy": -0.97, "cluster_size": 7, "cluster_id": 2, "rank_in_cluster": 6}

>  <energy>  (13) 
-5.67

>  <cluster_rmsd>  (13) 
0.8

>  <rmsd>  (13) 
270.83

>  <cluster>  (13) 
2

$$$$
HZXVWJKCCMCLGL-HKCMIAPXNA-N
     RDKit          3D

 61 65  0  0  0  0  0  0  0  0999 V2000
  140.2068   68.1456  227.1860 H   0  0  0  0  0  0  0  0  0  0  0  0
  139.8050   68.6520  226.2960 C   0  0  0  0  0  0  0  0  0  0  0  0
  138.5970   68.2250  225.7370 C   0  0  0  0  0  0  0  0  0  0  0  0
  138.0452   67.3894  226.1923 H   0  0  0  0  0  0  0  0  0  0  0  0
  138.0910   68.8590  224.6010 C   0  0  0  0  0  0  0  0  0  0  0  0
  137.1386   68.5239  224.1644 H   0  0  0  0  0  0  0  0  0  0  0  0
  138.7940   69.9230  224.0140 C   0  0  0  0  0  0  0  0  0  0  0  0
  140.0030   70.3670  224.5860 C   0  0  0  0  0  0  0  0  0  0  0  0
  140.5040   69.7210  225.7270 C   0  0  0  0  0  0  0  0  0  0  0  0
  141.4505   70.0571  226.1755 H   0  0  0  0  0  0  0  0  0  0  0  0
  140.7310   71.5730  224.0410 C   0  0  0  0  0  0  0  0  0  0  0  0
  141.8045   71.3381  223.9928 H   0  0  0  0  0  0  0  0  0  0  0  0
  140.5149   72.4122  224.7186 H   0  0  0  0  0  0  0  0  0  0  0  0
  140.2820   71.9790  222.6950 N   0  0  0  0  0  0  0  0  0  0  0  0
  140.8850   73.1390  222.0810 C   0  0  0  0  0  0  0  0  0  0  0  0
  141.9300   73.0000  221.2290 N   0  0  0  0  0  0  0  0  0  0  0  0
  142.4830   74.0780  220.6170 C   0  0  0  0  0  0  0  0  0  0  0  0
  143.5790   73.8870  219.7040 N   0  0  0  0  0  0  0  0  0  0  0  0
  144.9480   73.7110  220.1630 C   0  0  0  0  0  0  0  0  0  0  0  0
  145.3548   74.6662  220.5263 H   0  0  0  0  0  0  0  0  0  0  0  0
  145.0042   72.9942  220.9955 H   0  0  0  0  0  0  0  0  0  0  0  0
  145.7380   73.2250  218.9550 C   0  0  0  0  0  0  0  0  0  0  0  0
  146.6571   73.8180  218.8380 H   0  0  0  0  0  0  0  0  0  0  0  0
  146.0356   72.1724  219.0709 H   0  0  0  0  0  0  0  0  0  0  0  0
  144.8290   73.4130  217.7390 C   0  0  0  0  0  0  0  0  0  0  0  0
  145.1376   74.2998  217.1660 H   0  0  0  0  0  0  0  0  0  0  0  0
  144.8831   72.5483  217.0613 H   0  0  0  0  0  0  0  0  0  0  0  0
  143.4180   73.6020  218.2860 C   0  0  0  0  0  0  0  0  0  0  0  0
  142.9202   74.4424  217.7802 H   0  0  0  0  0  0  0  0  0  0  0  0
  142.7958   72.7102  218.1197 H   0  0  0  0  0  0  0  0  0  0  0  0
  141.9830   75.3210  220.8710 N   0  0  0  0  0  0  0  0  0  0  0  0
  142.4000   76.1660  220.4190 H   0  0  0  0  0  0  0  0  0  0  0  0
  140.9510   75.4760  221.7440 C   0  0  0  0  0  0  0  0  0  0  0  0
  140.5010   76.6690  222.0040 N   0  0  0  0  0  0  0  0  0  0  0  0
  141.2360   77.9200  221.7770 C   0  0  0  0  0  0  0  0  0  0  0  0
  142.2823   77.6519  221.5686 H   0  0  0  0  0  0  0  0  0  0  0  0
  141.2230   78.8080  223.0410 C   0  0  0  0  0  0  0  0  0  0  0  0
  140.1848   78.8623  223.4005 H   0  0  0  0  0  0  0  0  0  0  0  0
  141.9244   78.3292  223.7401 H   0  0  0  0  0  0  0  0  0  0  0  0
  141.7370   80.2530  222.8730 C   0  0  0  0  0  0  0  0  0  0  0  0
  141.7104   80.7325  223.8626 H   0  0  0  0  0  0  0  0  0  0  0  0
  142.7413   80.1515  222.4358 H   0  0  0  0  0  0  0  0  0  0  0  0
  140.9610   81.1600  221.8940 C   0  0  0  0  0  0  0  0  0  0  0  0
  139.9099   80.8359  221.8848 H   0  0  0  0  0  0  0  0  0  0  0  0
  141.0894   82.1915  222.2539 H   0  0  0  0  0  0  0  0  0  0  0  0
  141.4850   81.1320  220.4490 C   0  0  0  0  0  0  0  0  0  0  0  0
  140.7517   81.6281  219.7963 H   0  0  0  0  0  0  0  0  0  0  0  0
  142.4536   81.6530  220.4302 H   0  0  0  0  0  0  0  0  0  0  0  0
  141.7090   79.7010  219.9430 C   0  0  0  0  0  0  0  0  0  0  0  0
  141.6016   79.6984  218.8483 H   0  0  0  0  0  0  0  0  0  0  0  0
  142.7164   79.3988  220.2651 H   0  0  0  0  0  0  0  0  0  0  0  0
  140.7250   78.6820  220.5290 C   0  0  0  0  0  0  0  0  0  0  0  0
  139.8059   79.2175  220.8090 H   0  0  0  0  0  0  0  0  0  0  0  0
  140.5682   77.9228  219.7486 H   0  0  0  0  0  0  0  0  0  0  0  0
  140.4020   74.3830  222.3360 N   0  0  0  0  0  0  0  0  0  0  0  0
  139.3520   71.1360  221.9240 C   0  0  0  0  0  0  0  0  0  0  0  0
  139.9000   70.2766  221.5103 H   0  0  0  0  0  0  0  0  0  0  0  0
  138.9185   71.7356  221.1100 H   0  0  0  0  0  0  0  0  0  0  0  0
  138.2260   70.6300  222.8190 C   0  0  0  0  0  0  0  0  0  0  0  0
  137.5947   69.9320  222.2496 H   0  0  0  0  0  0  0  0  0  0  0  0
  137.6252   71.4861  223.1597 H   0  0  0  0  0  0  0  0  0  0  0  0
  1  2  1  0
  2  3  2  0
  3  4  1  0
  3  5  1  0
  5  6  1  0
  5  7  2  0
  7  8  1  0
  8  9  2  0
  9 10  1  0
  8 11  1  0
 11 12  1  0
 11 13  1  0
 11 14  1  0
 14 15  1  0
 15 16  1  0
 16 17  2  0
 17 18  1  0
 18 19  1  0
 19 20  1  0
 19 21  1  0
 19 22  1  0
 22 23  1  0
 22 24  1  0
 22 25  1  0
 25 26  1  0
 25 27  1  0
 25 28  1  0
 28 29  1  0
 28 30  1  0
 17 31  1  0
 31 32  1  0
 31 33  1  0
 33 34  2  0
 34 35  1  0
 35 36  1  0
 35 37  1  0
 37 38  1  0
 37 39  1  0
 37 40  1  0
 40 41  1  0
 40 42  1  0
 40 43  1  0
 43 44  1  0
 43 45  1  0
 43 46  1  0
 46 47  1  0
 46 48  1  0
 46 49  1  0
 49 50  1  0
 49 51  1  0
 49 52  1  0
 52 53  1  0
 52 54  1  0
 33 55  1  0
 14 56  1  0
 56 57  1  0
 56 58  1  0
 56 59  1  0
 59 60  1  0
 59 61  1  0
  9  2  1  0
 55 15  2  0
 59  7  1  0
 28 18  1  0
 52 35  1  0
M  END
>  <UniqueID>  (14) 
569

>  <SMILES>  (14) 
c1ccc2c(c1)CCN(c1nc(N3CCCC3)[nH]/c(=N/C3CCCCCC3)n1)C2

>  <Energy>  (14) 
68.04771974537705

>  <Genealogy>  (14) 
c1ccc2c(c1)CCN(c1nc(N3CCCC3)[nH]c(=NC3CCCCCC3)n1)C2 (tautomer)
c1ccc2c(c1)CCN(c1nc(N3CCCC3)[nH]/c(=N/C3CCCCCC3)n1)C2 (cis-trans isomerization)
c1ccc2c(c1)CCN(c1nc(N3CCCC3)[nH]/c(=N/C3CCCCCC3)n1)C2 (3D coordinates assigned)
c1ccc2c(c1)CCN(c1nc(N3CCCC3)[nH]/c(=N/C3CCCCCC3)n1)C2 (nonaromatic ring conformer: 68.04771974537705 kcal/mol)

>  <smiles>  (14) 
c1ccc2c(c1)CCN(c1nc(NC3CCCCCC3)nc(N3CCCC3)n1)C2

>  <score_type>  (14) 
oracle

>  <origin>  (14) 
autodockgpu

>  <m_score__min__energy>  (14) 
-6.29

>  <m_primary>  (14) 
energy

>  <meeko>  (14) 
{"free_energy": -5.46, "intermolecular_energy": -8.44, "internal_energy": -0.79, "cluster_size": 9, "cluster_id": 1, "rank_in_cluster": 6}

>  <energy>  (14) 
-5.57

>  <cluster_rmsd>  (14) 
0.97

>  <rmsd>  (14) 
271.06

>  <cluster>  (14) 
2

$$$$
HZXVWJKCCMCLGL-HKCMIAPXNA-N
     RDKit          3D

 61 65  0  0  0  0  0  0  0  0999 V2000
  140.4185   81.2735  224.5838 H   0  0  0  0  0  0  0  0  0  0  0  0
  140.6440   80.6870  223.6810 C   0  0  0  0  0  0  0  0  0  0  0  0
  140.8900   81.3390  222.4690 C   0  0  0  0  0  0  0  0  0  0  0  0
  140.8667   82.4377  222.4213 H   0  0  0  0  0  0  0  0  0  0  0  0
  141.1650   80.5970  221.3200 C   0  0  0  0  0  0  0  0  0  0  0  0
  141.3613   81.1127  220.3684 H   0  0  0  0  0  0  0  0  0  0  0  0
  141.1920   79.1950  221.3740 C   0  0  0  0  0  0  0  0  0  0  0  0
  140.9620   78.5340  222.5980 C   0  0  0  0  0  0  0  0  0  0  0  0
  140.6840   79.2910  223.7480 C   0  0  0  0  0  0  0  0  0  0  0  0
  140.4969   78.7833  224.7057 H   0  0  0  0  0  0  0  0  0  0  0  0
  141.0840   77.0330  222.7140 C   0  0  0  0  0  0  0  0  0  0  0  0
  140.2350   76.6600  223.3057 H   0  0  0  0  0  0  0  0  0  0  0  0
  142.0522   76.8247  223.1928 H   0  0  0  0  0  0  0  0  0  0  0  0
  141.0870   76.3370  221.4130 N   0  0  0  0  0  0  0  0  0  0  0  0
  141.2290   74.9000  221.3950 C   0  0  0  0  0  0  0  0  0  0  0  0
  142.2110   74.3160  220.6640 N   0  0  0  0  0  0  0  0  0  0  0  0
  142.3800   72.9700  220.6670 C   0  0  0  0  0  0  0  0  0  0  0  0
  143.4460   72.3900  219.8940 N   0  0  0  0  0  0  0  0  0  0  0  0
  144.8460   72.5800  220.2390 C   0  0  0  0  0  0  0  0  0  0  0  0
  145.1635   73.6048  219.9963 H   0  0  0  0  0  0  0  0  0  0  0  0
  145.0191   72.4304  221.3149 H   0  0  0  0  0  0  0  0  0  0  0  0
  145.6260   71.5730  219.4040 C   0  0  0  0  0  0  0  0  0  0  0  0
  146.4687   72.0689  218.9000 H   0  0  0  0  0  0  0  0  0  0  0  0
  146.0408   70.7713  220.0327 H   0  0  0  0  0  0  0  0  0  0  0  0
  144.6470   71.0150  218.3710 C   0  0  0  0  0  0  0  0  0  0  0  0
  144.8306   71.4709  217.3869 H   0  0  0  0  0  0  0  0  0  0  0  0
  144.7630   69.9271  218.2566 H   0  0  0  0  0  0  0  0  0  0  0  0
  143.2500   71.3750  218.8680 C   0  0  0  0  0  0  0  0  0  0  0  0
  142.6411   71.7752  218.0440 H   0  0  0  0  0  0  0  0  0  0  0  0
  142.7205   70.4955  219.2630 H   0  0  0  0  0  0  0  0  0  0  0  0
  141.5410   72.1910  221.4090 N   0  0  0  0  0  0  0  0  0  0  0  0
  141.6460   71.1520  221.4180 H   0  0  0  0  0  0  0  0  0  0  0  0
  140.5350   72.7630  222.1260 C   0  0  0  0  0  0  0  0  0  0  0  0
  139.7210   72.0110  222.8070 N   0  0  0  0  0  0  0  0  0  0  0  0
  140.1260   71.0110  223.8030 C   0  0  0  0  0  0  0  0  0  0  0  0
  141.1305   70.6595  223.5248 H   0  0  0  0  0  0  0  0  0  0  0  0
  139.1790   69.7910  223.7800 C   0  0  0  0  0  0  0  0  0  0  0  0
  138.1781   70.1502  223.4985 H   0  0  0  0  0  0  0  0  0  0  0  0
  139.6296   69.0865  223.0654 H   0  0  0  0  0  0  0  0  0  0  0  0
  139.0400   69.0020  225.0980 C   0  0  0  0  0  0  0  0  0  0  0  0
  138.4342   69.6094  225.7866 H   0  0  0  0  0  0  0  0  0  0  0  0
  138.5891   68.0408  224.8104 H   0  0  0  0  0  0  0  0  0  0  0  0
  140.3470   68.6300  225.8310 C   0  0  0  0  0  0  0  0  0  0  0  0
  140.1774   67.6953  226.3857 H   0  0  0  0  0  0  0  0  0  0  0  0
  141.1252   68.5327  225.0597 H   0  0  0  0  0  0  0  0  0  0  0  0
  140.8390   69.6970  226.8230 C   0  0  0  0  0  0  0  0  0  0  0  0
  140.0122   69.9613  227.4986 H   0  0  0  0  0  0  0  0  0  0  0  0
  141.6897   69.2761  227.3791 H   0  0  0  0  0  0  0  0  0  0  0  0
  141.3220   70.9680  226.1110 C   0  0  0  0  0  0  0  0  0  0  0  0
  141.6309   71.6980  226.8736 H   0  0  0  0  0  0  0  0  0  0  0  0
  142.1532   70.6738  225.4533 H   0  0  0  0  0  0  0  0  0  0  0  0
  140.2530   71.6170  225.2230 C   0  0  0  0  0  0  0  0  0  0  0  0
  139.2809   71.5121  225.7271 H   0  0  0  0  0  0  0  0  0  0  0  0
  140.5622   72.6635  225.0843 H   0  0  0  0  0  0  0  0  0  0  0  0
  140.3920   74.1150  222.1220 N   0  0  0  0  0  0  0  0  0  0  0  0
  140.7960   77.0650  220.1660 C   0  0  0  0  0  0  0  0  0  0  0  0
  139.7131   77.2450  220.0957 H   0  0  0  0  0  0  0  0  0  0  0  0
  141.1349   76.4598  219.3122 H   0  0  0  0  0  0  0  0  0  0  0  0
  141.5300   78.4020  220.1470 C   0  0  0  0  0  0  0  0  0  0  0  0
  141.2295   78.9690  219.2536 H   0  0  0  0  0  0  0  0  0  0  0  0
  142.6140   78.2164  220.1265 H   0  0  0  0  0  0  0  0  0  0  0  0
  1  2  1  0
  2  3  2  0
  3  4  1  0
  3  5  1  0
  5  6  1  0
  5  7  2  0
  7  8  1  0
  8  9  2  0
  9 10  1  0
  8 11  1  0
 11 12  1  0
 11 13  1  0
 11 14  1  0
 14 15  1  0
 15 16  1  0
 16 17  2  0
 17 18  1  0
 18 19  1  0
 19 20  1  0
 19 21  1  0
 19 22  1  0
 22 23  1  0
 22 24  1  0
 22 25  1  0
 25 26  1  0
 25 27  1  0
 25 28  1  0
 28 29  1  0
 28 30  1  0
 17 31  1  0
 31 32  1  0
 31 33  1  0
 33 34  2  0
 34 35  1  0
 35 36  1  0
 35 37  1  0
 37 38  1  0
 37 39  1  0
 37 40  1  0
 40 41  1  0
 40 42  1  0
 40 43  1  0
 43 44  1  0
 43 45  1  0
 43 46  1  0
 46 47  1  0
 46 48  1  0
 46 49  1  0
 49 50  1  0
 49 51  1  0
 49 52  1  0
 52 53  1  0
 52 54  1  0
 33 55  1  0
 14 56  1  0
 56 57  1  0
 56 58  1  0
 56 59  1  0
 59 60  1  0
 59 61  1  0
  9  2  1  0
 55 15  2  0
 59  7  1  0
 28 18  1  0
 52 35  1  0
M  END
>  <UniqueID>  (15) 
569

>  <SMILES>  (15) 
c1ccc2c(c1)CCN(c1nc(N3CCCC3)[nH]/c(=N/C3CCCCCC3)n1)C2

>  <Energy>  (15) 
68.04771974537705

>  <Genealogy>  (15) 
c1ccc2c(c1)CCN(c1nc(N3CCCC3)[nH]c(=NC3CCCCCC3)n1)C2 (tautomer)
c1ccc2c(c1)CCN(c1nc(N3CCCC3)[nH]/c(=N/C3CCCCCC3)n1)C2 (cis-trans isomerization)
c1ccc2c(c1)CCN(c1nc(N3CCCC3)[nH]/c(=N/C3CCCCCC3)n1)C2 (3D coordinates assigned)
c1ccc2c(c1)CCN(c1nc(N3CCCC3)[nH]/c(=N/C3CCCCCC3)n1)C2 (nonaromatic ring conformer: 68.04771974537705 kcal/mol)

>  <smiles>  (15) 
c1ccc2c(c1)CCN(c1nc(NC3CCCCCC3)nc(N3CCCC3)n1)C2

>  <score_type>  (15) 
oracle

>  <origin>  (15) 
autodockgpu

>  <m_score__min__energy>  (15) 
-6.29

>  <m_primary>  (15) 
energy

>  <meeko>  (15) 
{"free_energy": -5.28, "intermolecular_energy": -8.26, "internal_energy": -0.82, "cluster_size": 7, "cluster_id": 2, "rank_in_cluster": 7}

>  <energy>  (15) 
-5.29

>  <cluster_rmsd>  (15) 
0.82

>  <rmsd>  (15) 
270.91

>  <cluster>  (15) 
2

$$$$
HZXVWJKCCMCLGL-HKCMIAPXNA-N
     RDKit          3D

 61 65  0  0  0  0  0  0  0  0999 V2000
  141.5716   69.7925  228.9304 H   0  0  0  0  0  0  0  0  0  0  0  0
  141.0050   69.6670  227.9960 C   0  0  0  0  0  0  0  0  0  0  0  0
  140.2590   68.5040  227.7830 C   0  0  0  0  0  0  0  0  0  0  0  0
  140.2318   67.7201  228.5542 H   0  0  0  0  0  0  0  0  0  0  0  0
  139.5490   68.3360  226.5940 C   0  0  0  0  0  0  0  0  0  0  0  0
  138.9607   67.4209  226.4312 H   0  0  0  0  0  0  0  0  0  0  0  0
  139.5830   69.3310  225.6050 C   0  0  0  0  0  0  0  0  0  0  0  0
  140.3190   70.5140  225.8230 C   0  0  0  0  0  0  0  0  0  0  0  0
  141.0320   70.6710  227.0230 C   0  0  0  0  0  0  0  0  0  0  0  0
  141.6142   71.5877  227.1981 H   0  0  0  0  0  0  0  0  0  0  0  0
  140.2940   71.6480  224.8250 C   0  0  0  0  0  0  0  0  0  0  0  0
  141.3213   72.0190  224.6948 H   0  0  0  0  0  0  0  0  0  0  0  0
  139.6186   72.4169  225.2282 H   0  0  0  0  0  0  0  0  0  0  0  0
  139.7670   71.2610  223.5020 N   0  0  0  0  0  0  0  0  0  0  0  0
  139.6670   72.2690  222.4720 C   0  0  0  0  0  0  0  0  0  0  0  0
  138.7980   72.1150  221.4430 N   0  0  0  0  0  0  0  0  0  0  0  0
  138.6650   73.0710  220.4890 C   0  0  0  0  0  0  0  0  0  0  0  0
  137.7180   72.8800  219.4230 N   0  0  0  0  0  0  0  0  0  0  0  0
  137.3200   73.9610  218.5350 C   0  0  0  0  0  0  0  0  0  0  0  0
  136.6575   74.6636  219.0618 H   0  0  0  0  0  0  0  0  0  0  0  0
  138.1908   74.5337  218.1834 H   0  0  0  0  0  0  0  0  0  0  0  0
  136.5810   73.3050  217.3770 C   0  0  0  0  0  0  0  0  0  0  0  0
  135.6271   73.8213  217.1936 H   0  0  0  0  0  0  0  0  0  0  0  0
  137.1695   73.3564  216.4491 H   0  0  0  0  0  0  0  0  0  0  0  0
  136.3260   71.8550  217.7910 C   0  0  0  0  0  0  0  0  0  0  0  0
  135.2775   71.7249  218.0971 H   0  0  0  0  0  0  0  0  0  0  0  0
  136.5140   71.1619  216.9577 H   0  0  0  0  0  0  0  0  0  0  0  0
  137.2580   71.5760  218.9660 C   0  0  0  0  0  0  0  0  0  0  0  0
  136.7161   71.0570  219.7704 H   0  0  0  0  0  0  0  0  0  0  0  0
  138.0981   70.9292  218.6729 H   0  0  0  0  0  0  0  0  0  0  0  0
  139.4270   74.2000  220.5630 N   0  0  0  0  0  0  0  0  0  0  0  0
  139.3500   74.9440  219.8340 H   0  0  0  0  0  0  0  0  0  0  0  0
  140.3220   74.3540  221.5760 C   0  0  0  0  0  0  0  0  0  0  0  0
  141.0670   75.4210  221.6220 N   0  0  0  0  0  0  0  0  0  0  0  0
  140.6040   76.7890  221.3580 C   0  0  0  0  0  0  0  0  0  0  0  0
  139.6814   76.7142  220.7637 H   0  0  0  0  0  0  0  0  0  0  0  0
  141.6380   77.5720  220.5200 C   0  0  0  0  0  0  0  0  0  0  0  0
  142.6361   77.3433  220.9219 H   0  0  0  0  0  0  0  0  0  0  0  0
  141.4782   77.2462  219.4816 H   0  0  0  0  0  0  0  0  0  0  0  0
  141.4830   79.1070  220.4950 C   0  0  0  0  0  0  0  0  0  0  0  0
  141.8899   79.4663  219.5383 H   0  0  0  0  0  0  0  0  0  0  0  0
  140.4075   79.2884  220.6381 H   0  0  0  0  0  0  0  0  0  0  0  0
  142.1760   79.8970  221.6210 C   0  0  0  0  0  0  0  0  0  0  0  0
  143.2275   79.5773  221.6669 H   0  0  0  0  0  0  0  0  0  0  0  0
  142.0581   80.9619  221.3716 H   0  0  0  0  0  0  0  0  0  0  0  0
  141.5560   79.7060  223.0150 C   0  0  0  0  0  0  0  0  0  0  0  0
  142.2070   80.1847  223.7614 H   0  0  0  0  0  0  0  0  0  0  0  0
  140.5555   80.1631  223.0063 H   0  0  0  0  0  0  0  0  0  0  0  0
  141.3950   78.2230  223.3770 C   0  0  0  0  0  0  0  0  0  0  0  0
  142.3229   77.6967  223.1085 H   0  0  0  0  0  0  0  0  0  0  0  0
  141.1842   78.1750  224.4555 H   0  0  0  0  0  0  0  0  0  0  0  0
  140.2250   77.5400  222.6590 C   0  0  0  0  0  0  0  0  0  0  0  0
  139.7753   76.8147  223.3530 H   0  0  0  0  0  0  0  0  0  0  0  0
  139.5360   78.3438  222.3604 H   0  0  0  0  0  0  0  0  0  0  0  0
  140.4280   73.3920  222.5310 N   0  0  0  0  0  0  0  0  0  0  0  0
  139.4940   69.8490  223.1810 C   0  0  0  0  0  0  0  0  0  0  0  0
  140.4444   69.3321  222.9823 H   0  0  0  0  0  0  0  0  0  0  0  0
  138.8464   69.8035  222.2930 H   0  0  0  0  0  0  0  0  0  0  0  0
  138.7850   69.1670  224.3460 C   0  0  0  0  0  0  0  0  0  0  0  0
  138.6710   68.0955  224.1250 H   0  0  0  0  0  0  0  0  0  0  0  0
  137.7964   69.6289  224.4847 H   0  0  0  0  0  0  0  0  0  0  0  0
  1  2  1  0
  2  3  2  0
  3  4  1  0
  3  5  1  0
  5  6  1  0
  5  7  2  0
  7  8  1  0
  8  9  2  0
  9 10  1  0
  8 11  1  0
 11 12  1  0
 11 13  1  0
 11 14  1  0
 14 15  1  0
 15 16  1  0
 16 17  2  0
 17 18  1  0
 18 19  1  0
 19 20  1  0
 19 21  1  0
 19 22  1  0
 22 23  1  0
 22 24  1  0
 22 25  1  0
 25 26  1  0
 25 27  1  0
 25 28  1  0
 28 29  1  0
 28 30  1  0
 17 31  1  0
 31 32  1  0
 31 33  1  0
 33 34  2  0
 34 35  1  0
 35 36  1  0
 35 37  1  0
 37 38  1  0
 37 39  1  0
 37 40  1  0
 40 41  1  0
 40 42  1  0
 40 43  1  0
 43 44  1  0
 43 45  1  0
 43 46  1  0
 46 47  1  0
 46 48  1  0
 46 49  1  0
 49 50  1  0
 49 51  1  0
 49 52  1  0
 52 53  1  0
 52 54  1  0
 33 55  1  0
 14 56  1  0
 56 57  1  0
 56 58  1  0
 56 59  1  0
 59 60  1  0
 59 61  1  0
  9  2  1  0
 55 15  2  0
 59  7  1  0
 28 18  1  0
 52 35  1  0
M  END
>  <UniqueID>  (16) 
569

>  <SMILES>  (16) 
c1ccc2c(c1)CCN(c1nc(N3CCCC3)[nH]/c(=N/C3CCCCCC3)n1)C2

>  <Energy>  (16) 
68.04771974537705

>  <Genealogy>  (16) 
c1ccc2c(c1)CCN(c1nc(N3CCCC3)[nH]c(=NC3CCCCCC3)n1)C2 (tautomer)
c1ccc2c(c1)CCN(c1nc(N3CCCC3)[nH]/c(=N/C3CCCCCC3)n1)C2 (cis-trans isomerization)
c1ccc2c(c1)CCN(c1nc(N3CCCC3)[nH]/c(=N/C3CCCCCC3)n1)C2 (3D coordinates assigned)
c1ccc2c(c1)CCN(c1nc(N3CCCC3)[nH]/c(=N/C3CCCCCC3)n1)C2 (nonaromatic ring conformer: 68.04771974537705 kcal/mol)

>  <smiles>  (16) 
c1ccc2c(c1)CCN(c1nc(NC3CCCCCC3)nc(N3CCCC3)n1)C2

>  <score_type>  (16) 
oracle

>  <origin>  (16) 
autodockgpu

>  <m_score__min__energy>  (16) 
-6.29

>  <m_primary>  (16) 
energy

>  <meeko>  (16) 
{"free_energy": -5.46, "intermolecular_energy": -8.44, "internal_energy": -0.81, "cluster_size": 1, "cluster_id": 3, "rank_in_cluster": 1}

>  <energy>  (16) 
-5.28

>  <cluster_rmsd>  (16) 
1.11

>  <rmsd>  (16) 
270.81

>  <cluster>  (16) 
2

$$$$
HZXVWJKCCMCLGL-HKCMIAPXNA-N
     RDKit          3D

 61 65  0  0  0  0  0  0  0  0999 V2000
  140.4955   81.3328  224.5328 H   0  0  0  0  0  0  0  0  0  0  0  0
  140.7540   80.7110  223.6630 C   0  0  0  0  0  0  0  0  0  0  0  0
  141.0980   81.3160  222.4500 C   0  0  0  0  0  0  0  0  0  0  0  0
  141.1179   82.4129  222.3694 H   0  0  0  0  0  0  0  0  0  0  0  0
  141.4160   80.5300  221.3420 C   0  0  0  0  0  0  0  0  0  0  0  0
  141.6902   81.0089  220.3904 H   0  0  0  0  0  0  0  0  0  0  0  0
  141.3870   79.1300  221.4380 C   0  0  0  0  0  0  0  0  0  0  0  0
  141.0580   78.5160  222.6630 C   0  0  0  0  0  0  0  0  0  0  0  0
  140.7380   79.3170  223.7720 C   0  0  0  0  0  0  0  0  0  0  0  0
  140.4738   78.8456  224.7301 H   0  0  0  0  0  0  0  0  0  0  0  0
  141.1180   77.0160  222.8290 C   0  0  0  0  0  0  0  0  0  0  0  0
  140.2219   76.6911  223.3780 H   0  0  0  0  0  0  0  0  0  0  0  0
  142.0475   76.7893  223.3718 H   0  0  0  0  0  0  0  0  0  0  0  0
  141.1740   76.2800  221.5510 N   0  0  0  0  0  0  0  0  0  0  0  0
  141.2640   74.8390  221.5820 C   0  0  0  0  0  0  0  0  0  0  0  0
  142.2280   74.1950  220.8790 N   0  0  0  0  0  0  0  0  0  0  0  0
  142.3480   72.8440  220.9290 C   0  0  0  0  0  0  0  0  0  0  0  0
  143.3960   72.2000  220.1830 N   0  0  0  0  0  0  0  0  0  0  0  0
  144.6850   72.8340  219.9510 C   0  0  0  0  0  0  0  0  0  0  0  0
  144.5866   73.6390  219.2079 H   0  0  0  0  0  0  0  0  0  0  0  0
  145.0826   73.2862  220.8715 H   0  0  0  0  0  0  0  0  0  0  0  0
  145.6040   71.7390  219.4260 C   0  0  0  0  0  0  0  0  0  0  0  0
  146.1263   72.0826  218.5210 H   0  0  0  0  0  0  0  0  0  0  0  0
  146.3696   71.4717  220.1692 H   0  0  0  0  0  0  0  0  0  0  0  0
  144.7100   70.5430  219.0980 C   0  0  0  0  0  0  0  0  0  0  0  0
  144.5533   70.4710  218.0116 H   0  0  0  0  0  0  0  0  0  0  0  0
  145.1679   69.5988  219.4277 H   0  0  0  0  0  0  0  0  0  0  0  0
  143.3830   70.7940  219.8080 C   0  0  0  0  0  0  0  0  0  0  0  0
  142.5409   70.5853  219.1318 H   0  0  0  0  0  0  0  0  0  0  0  0
  143.2624   70.1413  220.6852 H   0  0  0  0  0  0  0  0  0  0  0  0
  141.4770   72.1230  221.6920 N   0  0  0  0  0  0  0  0  0  0  0  0
  141.5440   71.0810  221.7360 H   0  0  0  0  0  0  0  0  0  0  0  0
  140.4890   72.7550  222.3810 C   0  0  0  0  0  0  0  0  0  0  0  0
  139.6430   72.0560  223.0820 N   0  0  0  0  0  0  0  0  0  0  0  0
  139.9980   70.9390  223.9660 C   0  0  0  0  0  0  0  0  0  0  0  0
  140.4232   70.1447  223.3348 H   0  0  0  0  0  0  0  0  0  0  0  0
  138.7440   70.3650  224.6640 C   0  0  0  0  0  0  0  0  0  0  0  0
  138.3396   71.1485  225.3217 H   0  0  0  0  0  0  0  0  0  0  0  0
  138.0711   70.0602  223.8489 H   0  0  0  0  0  0  0  0  0  0  0  0
  138.9510   69.0970  225.5180 C   0  0  0  0  0  0  0  0  0  0  0  0
  138.0074   68.5318  225.5056 H   0  0  0  0  0  0  0  0  0  0  0  0
  139.8084   68.5828  225.0592 H   0  0  0  0  0  0  0  0  0  0  0  0
  139.3510   69.2990  226.9920 C   0  0  0  0  0  0  0  0  0  0  0  0
  138.5359   69.8357  227.4994 H   0  0  0  0  0  0  0  0  0  0  0  0
  139.5292   68.2970  227.4095 H   0  0  0  0  0  0  0  0  0  0  0  0
  140.6500   70.0960  227.1930 C   0  0  0  0  0  0  0  0  0  0  0  0
  140.7807   70.2963  228.2667 H   0  0  0  0  0  0  0  0  0  0  0  0
  141.4810   69.4951  226.7949 H   0  0  0  0  0  0  0  0  0  0  0  0
  140.6300   71.4330  226.4390 C   0  0  0  0  0  0  0  0  0  0  0  0
  139.6001   71.8194  226.4431 H   0  0  0  0  0  0  0  0  0  0  0  0
  141.3307   72.1056  226.9554 H   0  0  0  0  0  0  0  0  0  0  0  0
  141.1010   71.3230  224.9840 C   0  0  0  0  0  0  0  0  0  0  0  0
  141.5169   72.2966  224.6854 H   0  0  0  0  0  0  0  0  0  0  0  0
  141.8385   70.5072  224.9604 H   0  0  0  0  0  0  0  0  0  0  0  0
  140.3950   74.1100  222.3310 N   0  0  0  0  0  0  0  0  0  0  0  0
  140.9870   76.9800  220.2690 C   0  0  0  0  0  0  0  0  0  0  0  0
  139.9179   77.1965  220.1271 H   0  0  0  0  0  0  0  0  0  0  0  0
  141.3544   76.3374  219.4553 H   0  0  0  0  0  0  0  0  0  0  0  0
  141.7700   78.2880  220.2570 C   0  0  0  0  0  0  0  0  0  0  0  0
  141.5460   78.8374  219.3307 H   0  0  0  0  0  0  0  0  0  0  0  0
  142.8456   78.0637  220.3089 H   0  0  0  0  0  0  0  0  0  0  0  0
  1  2  1  0
  2  3  2  0
  3  4  1  0
  3  5  1  0
  5  6  1  0
  5  7  2  0
  7  8  1  0
  8  9  2  0
  9 10  1  0
  8 11  1  0
 11 12  1  0
 11 13  1  0
 11 14  1  0
 14 15  1  0
 15 16  1  0
 16 17  2  0
 17 18  1  0
 18 19  1  0
 19 20  1  0
 19 21  1  0
 19 22  1  0
 22 23  1  0
 22 24  1  0
 22 25  1  0
 25 26  1  0
 25 27  1  0
 25 28  1  0
 28 29  1  0
 28 30  1  0
 17 31  1  0
 31 32  1  0
 31 33  1  0
 33 34  2  0
 34 35  1  0
 35 36  1  0
 35 37  1  0
 37 38  1  0
 37 39  1  0
 37 40  1  0
 40 41  1  0
 40 42  1  0
 40 43  1  0
 43 44  1  0
 43 45  1  0
 43 46  1  0
 46 47  1  0
 46 48  1  0
 46 49  1  0
 49 50  1  0
 49 51  1  0
 49 52  1  0
 52 53  1  0
 52 54  1  0
 33 55  1  0
 14 56  1  0
 56 57  1  0
 56 58  1  0
 56 59  1  0
 59 60  1  0
 59 61  1  0
  9  2  1  0
 55 15  2  0
 59  7  1  0
 28 18  1  0
 52 35  1  0
M  END
>  <UniqueID>  (17) 
569

>  <SMILES>  (17) 
c1ccc2c(c1)CCN(c1nc(N3CCCC3)[nH]/c(=N/C3CCCCCC3)n1)C2

>  <Energy>  (17) 
68.04771974537705

>  <Genealogy>  (17) 
c1ccc2c(c1)CCN(c1nc(N3CCCC3)[nH]c(=NC3CCCCCC3)n1)C2 (tautomer)
c1ccc2c(c1)CCN(c1nc(N3CCCC3)[nH]/c(=N/C3CCCCCC3)n1)C2 (cis-trans isomerization)
c1ccc2c(c1)CCN(c1nc(N3CCCC3)[nH]/c(=N/C3CCCCCC3)n1)C2 (3D coordinates assigned)
c1ccc2c(c1)CCN(c1nc(N3CCCC3)[nH]/c(=N/C3CCCCCC3)n1)C2 (nonaromatic ring conformer: 68.04771974537705 kcal/mol)

>  <smiles>  (17) 
c1ccc2c(c1)CCN(c1nc(NC3CCCCCC3)nc(N3CCCC3)n1)C2

>  <score_type>  (17) 
oracle

>  <origin>  (17) 
autodockgpu

>  <m_score__min__energy>  (17) 
-6.29

>  <m_primary>  (17) 
energy

>  <meeko>  (17) 
{"free_energy": -5.78, "intermolecular_energy": -8.76, "internal_energy": -0.84, "cluster_size": 7, "cluster_id": 2, "rank_in_cluster": 3}

>  <energy>  (17) 
-5.46

>  <cluster_rmsd>  (17) 
0.0

>  <rmsd>  (17) 
270.02

>  <cluster>  (17) 
3

$$$$
HZXVWJKCCMCLGL-HKCMIAPXNA-N
     RDKit          3D

 61 65  0  0  0  0  0  0  0  0999 V2000
  141.6970   81.7523  223.6527 H   0  0  0  0  0  0  0  0  0  0  0  0
  141.0240   81.0050  223.2070 C   0  0  0  0  0  0  0  0  0  0  0  0
  139.7820   81.3990  222.7010 C   0  0  0  0  0  0  0  0  0  0  0  0
  139.4830   82.4569  222.7402 H   0  0  0  0  0  0  0  0  0  0  0  0
  138.9210   80.4510  222.1460 C   0  0  0  0  0  0  0  0  0  0  0  0
  137.9447   80.7638  221.7473 H   0  0  0  0  0  0  0  0  0  0  0  0
  139.2970   79.1000  222.0950 C   0  0  0  0  0  0  0  0  0  0  0  0
  140.5560   78.7010  222.5880 C   0  0  0  0  0  0  0  0  0  0  0  0
  141.4130   79.6630  223.1480 C   0  0  0  0  0  0  0  0  0  0  0  0
  142.3942   79.3594  223.5418 H   0  0  0  0  0  0  0  0  0  0  0  0
  141.0330   77.2740  222.4570 C   0  0  0  0  0  0  0  0  0  0  0  0
  141.4906   76.9717  223.4105 H   0  0  0  0  0  0  0  0  0  0  0  0
  141.7488   77.2493  221.6221 H   0  0  0  0  0  0  0  0  0  0  0  0
  139.9570   76.3170  222.1320 N   0  0  0  0  0  0  0  0  0  0  0  0
  140.2970   74.9250  221.9520 C   0  0  0  0  0  0  0  0  0  0  0  0
  141.4630   74.5740  221.3560 N   0  0  0  0  0  0  0  0  0  0  0  0
  141.8130   73.2710  221.2130 C   0  0  0  0  0  0  0  0  0  0  0  0
  143.0680   72.9390  220.5930 N   0  0  0  0  0  0  0  0  0  0  0  0
  144.1310   73.9180  220.4240 C   0  0  0  0  0  0  0  0  0  0  0  0
  143.8712   74.6304  219.6271 H   0  0  0  0  0  0  0  0  0  0  0  0
  144.2917   74.5007  221.3430 H   0  0  0  0  0  0  0  0  0  0  0  0
  145.3750   73.1260  220.0410 C   0  0  0  0  0  0  0  0  0  0  0  0
  145.8555   73.5756  219.1595 H   0  0  0  0  0  0  0  0  0  0  0  0
  146.1131   73.1252  220.8566 H   0  0  0  0  0  0  0  0  0  0  0  0
  144.9040   71.7080  219.7200 C   0  0  0  0  0  0  0  0  0  0  0  0
  144.8768   71.5529  218.6313 H   0  0  0  0  0  0  0  0  0  0  0  0
  145.5851   70.9549  220.1430 H   0  0  0  0  0  0  0  0  0  0  0  0
  143.5020   71.5800  220.3070 C   0  0  0  0  0  0  0  0  0  0  0  0
  142.8245   71.1059  219.5816 H   0  0  0  0  0  0  0  0  0  0  0  0
  143.4967   70.9539  221.2114 H   0  0  0  0  0  0  0  0  0  0  0  0
  140.9710   72.2980  221.6690 N   0  0  0  0  0  0  0  0  0  0  0  0
  141.2150   71.2880  221.5600 H   0  0  0  0  0  0  0  0  0  0  0  0
  139.7850   72.6370  222.2440 C   0  0  0  0  0  0  0  0  0  0  0  0
  138.9740   71.7030  222.6480 N   0  0  0  0  0  0  0  0  0  0  0  0
  139.3540   70.5560  223.4830 C   0  0  0  0  0  0  0  0  0  0  0  0
  139.4852   69.6928  222.8139 H   0  0  0  0  0  0  0  0  0  0  0  0
  138.2330   70.2060  224.4860 C   0  0  0  0  0  0  0  0  0  0  0  0
  137.8869   71.1455  224.9415 H   0  0  0  0  0  0  0  0  0  0  0  0
  137.4704   69.6757  223.8967 H   0  0  0  0  0  0  0  0  0  0  0  0
  138.6090   69.2410  225.6300 C   0  0  0  0  0  0  0  0  0  0  0  0
  137.7322   69.1487  226.2878 H   0  0  0  0  0  0  0  0  0  0  0  0
  138.9137   68.3100  225.1296 H   0  0  0  0  0  0  0  0  0  0  0  0
  139.8120   69.6340  226.5110 C   0  0  0  0  0  0  0  0  0  0  0  0
  139.6458   69.2272  227.5194 H   0  0  0  0  0  0  0  0  0  0  0  0
  140.7053   69.2208  226.0198 H   0  0  0  0  0  0  0  0  0  0  0  0
  140.0470   71.1480  226.6380 C   0  0  0  0  0  0  0  0  0  0  0  0
  139.0806   71.6435  226.8127 H   0  0  0  0  0  0  0  0  0  0  0  0
  140.7383   71.3143  227.4774 H   0  0  0  0  0  0  0  0  0  0  0  0
  140.6860   71.7410  225.3750 C   0  0  0  0  0  0  0  0  0  0  0  0
  140.1123   72.6321  225.0805 H   0  0  0  0  0  0  0  0  0  0  0  0
  141.7307   71.9795  225.6234 H   0  0  0  0  0  0  0  0  0  0  0  0
  140.7160   70.7700  224.1890 C   0  0  0  0  0  0  0  0  0  0  0  0
  141.4276   71.1603  223.4465 H   0  0  0  0  0  0  0  0  0  0  0  0
  141.0060   69.7918  224.6001 H   0  0  0  0  0  0  0  0  0  0  0  0
  139.4610   73.9490  222.3920 N   0  0  0  0  0  0  0  0  0  0  0  0
  138.5450   76.7370  222.1420 C   0  0  0  0  0  0  0  0  0  0  0  0
  138.1972   76.8135  223.1828 H   0  0  0  0  0  0  0  0  0  0  0  0
  137.9476   75.9912  221.5970 H   0  0  0  0  0  0  0  0  0  0  0  0
  138.3870   78.0910  221.4590 C   0  0  0  0  0  0  0  0  0  0  0  0
  137.3447   78.4284  221.5574 H   0  0  0  0  0  0  0  0  0  0  0  0
  138.6496   77.9900  220.3956 H   0  0  0  0  0  0  0  0  0  0  0  0
  1  2  1  0
  2  3  2  0
  3  4  1  0
  3  5  1  0
  5  6  1  0
  5  7  2  0
  7  8  1  0
  8  9  2  0
  9 10  1  0
  8 11  1  0
 11 12  1  0
 11 13  1  0
 11 14  1  0
 14 15  1  0
 15 16  1  0
 16 17  2  0
 17 18  1  0
 18 19  1  0
 19 20  1  0
 19 21  1  0
 19 22  1  0
 22 23  1  0
 22 24  1  0
 22 25  1  0
 25 26  1  0
 25 27  1  0
 25 28  1  0
 28 29  1  0
 28 30  1  0
 17 31  1  0
 31 32  1  0
 31 33  1  0
 33 34  2  0
 34 35  1  0
 35 36  1  0
 35 37  1  0
 37 38  1  0
 37 39  1  0
 37 40  1  0
 40 41  1  0
 40 42  1  0
 40 43  1  0
 43 44  1  0
 43 45  1  0
 43 46  1  0
 46 47  1  0
 46 48  1  0
 46 49  1  0
 49 50  1  0
 49 51  1  0
 49 52  1  0
 52 53  1  0
 52 54  1  0
 33 55  1  0
 14 56  1  0
 56 57  1  0
 56 58  1  0
 56 59  1  0
 59 60  1  0
 59 61  1  0
  9  2  1  0
 55 15  2  0
 59  7  1  0
 28 18  1  0
 52 35  1  0
M  END
>  <UniqueID>  (18) 
569

>  <SMILES>  (18) 
c1ccc2c(c1)CCN(c1nc(N3CCCC3)[nH]/c(=N/C3CCCCCC3)n1)C2

>  <Energy>  (18) 
68.04771974537705

>  <Genealogy>  (18) 
c1ccc2c(c1)CCN(c1nc(N3CCCC3)[nH]c(=NC3CCCCCC3)n1)C2 (tautomer)
c1ccc2c(c1)CCN(c1nc(N3CCCC3)[nH]/c(=N/C3CCCCCC3)n1)C2 (cis-trans isomerization)
c1ccc2c(c1)CCN(c1nc(N3CCCC3)[nH]/c(=N/C3CCCCCC3)n1)C2 (3D coordinates assigned)
c1ccc2c(c1)CCN(c1nc(N3CCCC3)[nH]/c(=N/C3CCCCCC3)n1)C2 (nonaromatic ring conformer: 68.04771974537705 kcal/mol)

>  <smiles>  (18) 
c1ccc2c(c1)CCN(c1nc(NC3CCCCCC3)nc(N3CCCC3)n1)C2

>  <score_type>  (18) 
oracle

>  <origin>  (18) 
autodockgpu

>  <m_score__min__energy>  (18) 
-6.29

>  <m_primary>  (18) 
energy

>  <meeko>  (18) 
{"free_energy": -5.67, "intermolecular_energy": -8.65, "internal_energy": -0.98, "cluster_size": 7, "cluster_id": 2, "rank_in_cluster": 4}

>  <energy>  (18) 
-5.28

>  <cluster_rmsd>  (18) 
0.0

>  <rmsd>  (18) 
270.22

>  <cluster>  (18) 
4

$$$$
HZXVWJKCCMCLGL-HKCMIAPXNA-N
     RDKit          3D

 61 65  0  0  0  0  0  0  0  0999 V2000
  140.7294   68.4824  227.9695 H   0  0  0  0  0  0  0  0  0  0  0  0
  140.2740   68.7880  227.0160 C   0  0  0  0  0  0  0  0  0  0  0  0
  139.1850   68.0770  226.5040 C   0  0  0  0  0  0  0  0  0  0  0  0
  138.7784   67.2191  227.0596 H   0  0  0  0  0  0  0  0  0  0  0  0
  138.6130   68.4550  225.2880 C   0  0  0  0  0  0  0  0  0  0  0  0
  137.7543   67.8954  224.8887 H   0  0  0  0  0  0  0  0  0  0  0  0
  139.1300   69.5470  224.5730 C   0  0  0  0  0  0  0  0  0  0  0  0
  140.2170   70.2770  225.0960 C   0  0  0  0  0  0  0  0  0  0  0  0
  140.7860   69.8870  226.3190 C   0  0  0  0  0  0  0  0  0  0  0  0
  141.6379   70.4482  226.7305 H   0  0  0  0  0  0  0  0  0  0  0  0
  140.7320   71.5180  224.4050 C   0  0  0  0  0  0  0  0  0  0  0  0
  141.8314   71.4826  224.4010 H   0  0  0  0  0  0  0  0  0  0  0  0
  140.3425   72.3823  224.9629 H   0  0  0  0  0  0  0  0  0  0  0  0
  140.2650   71.6570  223.0120 N   0  0  0  0  0  0  0  0  0  0  0  0
  140.6680   72.8200  222.2570 C   0  0  0  0  0  0  0  0  0  0  0  0
  141.7900   72.7910  221.4960 N   0  0  0  0  0  0  0  0  0  0  0  0
  142.1600   73.8640  220.7520 C   0  0  0  0  0  0  0  0  0  0  0  0
  143.3470   73.7870  219.9430 N   0  0  0  0  0  0  0  0  0  0  0  0
  144.6670   73.5820  220.5190 C   0  0  0  0  0  0  0  0  0  0  0  0
  145.0116   74.4985  221.0203 H   0  0  0  0  0  0  0  0  0  0  0  0
  144.6571   72.7812  221.2731 H   0  0  0  0  0  0  0  0  0  0  0  0
  145.5860   73.2390  219.3540 C   0  0  0  0  0  0  0  0  0  0  0  0
  146.4970   73.8541  219.3948 H   0  0  0  0  0  0  0  0  0  0  0  0
  145.8960   72.1842  219.3892 H   0  0  0  0  0  0  0  0  0  0  0  0
  144.8010   73.5420  218.0780 C   0  0  0  0  0  0  0  0  0  0  0  0
  145.1438   74.4889  217.6355 H   0  0  0  0  0  0  0  0  0  0  0  0
  144.9449   72.7549  217.3232 H   0  0  0  0  0  0  0  0  0  0  0  0
  143.3370   73.6520  218.4930 C   0  0  0  0  0  0  0  0  0  0  0  0
  142.8722   74.5344  218.0289 H   0  0  0  0  0  0  0  0  0  0  0  0
  142.7570   72.7745  218.1711 H   0  0  0  0  0  0  0  0  0  0  0  0
  141.3960   74.9930  220.7790 N   0  0  0  0  0  0  0  0  0  0  0  0
  141.6680   75.8350  220.2230 H   0  0  0  0  0  0  0  0  0  0  0  0
  140.2820   75.0440  221.5600 C   0  0  0  0  0  0  0  0  0  0  0  0
  139.5750   76.1370  221.6030 N   0  0  0  0  0  0  0  0  0  0  0  0
  139.8110   77.2620  222.5170 C   0  0  0  0  0  0  0  0  0  0  0  0
  139.7232   76.8754  223.5431 H   0  0  0  0  0  0  0  0  0  0  0  0
  138.7380   78.3570  222.3360 C   0  0  0  0  0  0  0  0  0  0  0  0
  138.6802   78.5940  221.2634 H   0  0  0  0  0  0  0  0  0  0  0  0
  137.8160   77.9338  222.7611 H   0  0  0  0  0  0  0  0  0  0  0  0
  138.9680   79.6790  223.0960 C   0  0  0  0  0  0  0  0  0  0  0  0
  138.0111   80.2211  223.1163 H   0  0  0  0  0  0  0  0  0  0  0  0
  139.3513   79.3790  224.0824 H   0  0  0  0  0  0  0  0  0  0  0  0
  140.0350   80.6380  222.5250 C   0  0  0  0  0  0  0  0  0  0  0  0
  139.9891   80.5883  221.4271 H   0  0  0  0  0  0  0  0  0  0  0  0
  139.8010   81.6373  222.9208 H   0  0  0  0  0  0  0  0  0  0  0  0
  141.4750   80.3220  222.9600 C   0  0  0  0  0  0  0  0  0  0  0  0
  142.1473   80.4838  222.1045 H   0  0  0  0  0  0  0  0  0  0  0  0
  141.7284   80.9868  223.7990 H   0  0  0  0  0  0  0  0  0  0  0  0
  141.6290   78.8730  223.4430 C   0  0  0  0  0  0  0  0  0  0  0  0
  142.6792   78.7107  223.7271 H   0  0  0  0  0  0  0  0  0  0  0  0
  140.9414   78.7404  224.2913 H   0  0  0  0  0  0  0  0  0  0  0  0
  141.2460   77.8310  222.3860 C   0  0  0  0  0  0  0  0  0  0  0  0
  141.3379   78.3002  221.3954 H   0  0  0  0  0  0  0  0  0  0  0  0
  141.9283   76.9805  222.5315 H   0  0  0  0  0  0  0  0  0  0  0  0
  139.9190   73.9530  222.2850 N   0  0  0  0  0  0  0  0  0  0  0  0
  139.5330   70.5640  222.3480 C   0  0  0  0  0  0  0  0  0  0  0  0
  140.2434   69.7759  222.0579 H   0  0  0  0  0  0  0  0  0  0  0  0
  139.0268   70.9634  221.4568 H   0  0  0  0  0  0  0  0  0  0  0  0
  138.4870   69.9760  223.2890 C   0  0  0  0  0  0  0  0  0  0  0  0
  138.0155   69.1053  222.8099 H   0  0  0  0  0  0  0  0  0  0  0  0
  137.7277   70.7418  223.5057 H   0  0  0  0  0  0  0  0  0  0  0  0
  1  2  1  0
  2  3  2  0
  3  4  1  0
  3  5  1  0
  5  6  1  0
  5  7  2  0
  7  8  1  0
  8  9  2  0
  9 10  1  0
  8 11  1  0
 11 12  1  0
 11 13  1  0
 11 14  1  0
 14 15  1  0
 15 16  1  0
 16 17  2  0
 17 18  1  0
 18 19  1  0
 19 20  1  0
 19 21  1  0
 19 22  1  0
 22 23  1  0
 22 24  1  0
 22 25  1  0
 25 26  1  0
 25 27  1  0
 25 28  1  0
 28 29  1  0
 28 30  1  0
 17 31  1  0
 31 32  1  0
 31 33  1  0
 33 34  2  0
 34 35  1  0
 35 36  1  0
 35 37  1  0
 37 38  1  0
 37 39  1  0
 37 40  1  0
 40 41  1  0
 40 42  1  0
 40 43  1  0
 43 44  1  0
 43 45  1  0
 43 46  1  0
 46 47  1  0
 46 48  1  0
 46 49  1  0
 49 50  1  0
 49 51  1  0
 49 52  1  0
 52 53  1  0
 52 54  1  0
 33 55  1  0
 14 56  1  0
 56 57  1  0
 56 58  1  0
 56 59  1  0
 59 60  1  0
 59 61  1  0
  9  2  1  0
 55 15  2  0
 59  7  1  0
 28 18  1  0
 52 35  1  0
M  END
>  <UniqueID>  (19) 
569

>  <SMILES>  (19) 
c1ccc2c(c1)CCN(c1nc(N3CCCC3)[nH]/c(=N/C3CCCCCC3)n1)C2

>  <Energy>  (19) 
68.04771974537705

>  <Genealogy>  (19) 
c1ccc2c(c1)CCN(c1nc(N3CCCC3)[nH]c(=NC3CCCCCC3)n1)C2 (tautomer)
c1ccc2c(c1)CCN(c1nc(N3CCCC3)[nH]/c(=N/C3CCCCCC3)n1)C2 (cis-trans isomerization)
c1ccc2c(c1)CCN(c1nc(N3CCCC3)[nH]/c(=N/C3CCCCCC3)n1)C2 (3D coordinates assigned)
c1ccc2c(c1)CCN(c1nc(N3CCCC3)[nH]/c(=N/C3CCCCCC3)n1)C2 (nonaromatic ring conformer: 68.04771974537705 kcal/mol)

>  <smiles>  (19) 
c1ccc2c(c1)CCN(c1nc(NC3CCCCCC3)nc(N3CCCC3)n1)C2

>  <score_type>  (19) 
oracle

>  <origin>  (19) 
autodockgpu

>  <m_score__min__energy>  (19) 
-6.29

>  <m_primary>  (19) 
energy

>  <meeko>  (19) 
{"free_energy": -6.29, "intermolecular_energy": -9.27, "internal_energy": -0.83, "cluster_size": 9, "cluster_id": 1, "rank_in_cluster": 1}

>  <energy>  (19) 
-4.79

>  <cluster_rmsd>  (19) 
0.0

>  <rmsd>  (19) 
270.38

>  <cluster>  (19) 
5

$$$$
HZXVWJKCCMCLGL-HKCMIAPXNA-N
     RDKit          3D

 61 65  0  0  0  0  0  0  0  0999 V2000
  141.4876   68.3651  228.3726 H   0  0  0  0  0  0  0  0  0  0  0  0
  140.8730   68.6650  227.5110 C   0  0  0  0  0  0  0  0  0  0  0  0
  139.6450   68.0390  227.2790 C   0  0  0  0  0  0  0  0  0  0  0  0
  139.2902   67.2538  227.9628 H   0  0  0  0  0  0  0  0  0  0  0  0
  138.8690   68.4100  226.1800 C   0  0  0  0  0  0  0  0  0  0  0  0
  137.9017   67.9177  226.0011 H   0  0  0  0  0  0  0  0  0  0  0  0
  139.3180   69.4090  225.3020 C   0  0  0  0  0  0  0  0  0  0  0  0
  140.5480   70.0550  225.5430 C   0  0  0  0  0  0  0  0  0  0  0  0
  141.3220   69.6710  226.6510 C   0  0  0  0  0  0  0  0  0  0  0  0
  142.2862   70.1646  226.8425 H   0  0  0  0  0  0  0  0  0  0  0  0
  141.0130   71.2020  224.6790 C   0  0  0  0  0  0  0  0  0  0  0  0
  142.0806   71.0585  224.4563 H   0  0  0  0  0  0  0  0  0  0  0  0
  140.8226   72.1271  225.2429 H   0  0  0  0  0  0  0  0  0  0  0  0
  140.2820   71.3170  223.4020 N   0  0  0  0  0  0  0  0  0  0  0  0
  140.6180   72.3960  222.5040 C   0  0  0  0  0  0  0  0  0  0  0  0
  141.6720   72.2840  221.6590 N   0  0  0  0  0  0  0  0  0  0  0  0
  141.9770   73.2740  220.7830 C   0  0  0  0  0  0  0  0  0  0  0  0
  143.0930   73.1090  219.8890 N   0  0  0  0  0  0  0  0  0  0  0  0
  143.3810   74.0570  218.8250 C   0  0  0  0  0  0  0  0  0  0  0  0
  142.6502   73.9499  218.0098 H   0  0  0  0  0  0  0  0  0  0  0  0
  143.3205   75.0951  219.1838 H   0  0  0  0  0  0  0  0  0  0  0  0
  144.7810   73.7200  218.3280 C   0  0  0  0  0  0  0  0  0  0  0  0
  144.7872   73.6457  217.2305 H   0  0  0  0  0  0  0  0  0  0  0  0
  145.5027   74.5003  218.6113 H   0  0  0  0  0  0  0  0  0  0  0  0
  145.1490   72.3730  218.9510 C   0  0  0  0  0  0  0  0  0  0  0  0
  145.0532   71.5696  218.2057 H   0  0  0  0  0  0  0  0  0  0  0  0
  146.1894   72.3683  219.3083 H   0  0  0  0  0  0  0  0  0  0  0  0
  144.1680   72.1500  220.0970 C   0  0  0  0  0  0  0  0  0  0  0  0
  143.7756   71.1227  220.0712 H   0  0  0  0  0  0  0  0  0  0  0  0
  144.6502   72.2874  221.0761 H   0  0  0  0  0  0  0  0  0  0  0  0
  141.2150   74.4050  220.7600 N   0  0  0  0  0  0  0  0  0  0  0  0
  141.4380   75.1850  220.1020 H   0  0  0  0  0  0  0  0  0  0  0  0
  140.1710   74.5420  221.6210 C   0  0  0  0  0  0  0  0  0  0  0  0
  139.4670   75.6370  221.6140 N   0  0  0  0  0  0  0  0  0  0  0  0
  139.6540   76.7680  222.5310 C   0  0  0  0  0  0  0  0  0  0  0  0
  139.6366   76.3660  223.5548 H   0  0  0  0  0  0  0  0  0  0  0  0
  138.4950   77.7810  222.4040 C   0  0  0  0  0  0  0  0  0  0  0  0
  138.3620   78.0043  221.3352 H   0  0  0  0  0  0  0  0  0  0  0  0
  137.6306   77.2954  222.8805 H   0  0  0  0  0  0  0  0  0  0  0  0
  138.6690   79.1230  223.1450 C   0  0  0  0  0  0  0  0  0  0  0  0
  137.6900   79.6243  223.1580 H   0  0  0  0  0  0  0  0  0  0  0  0
  139.0649   78.8535  224.1353 H   0  0  0  0  0  0  0  0  0  0  0  0
  139.6930   80.1170  222.5610 C   0  0  0  0  0  0  0  0  0  0  0  0
  139.6878   80.0118  221.4661 H   0  0  0  0  0  0  0  0  0  0  0  0
  139.3851   81.1176  222.8988 H   0  0  0  0  0  0  0  0  0  0  0  0
  141.1340   79.9130  223.0560 C   0  0  0  0  0  0  0  0  0  0  0  0
  141.8290   80.2029  222.2541 H   0  0  0  0  0  0  0  0  0  0  0  0
  141.2761   80.5358  223.9515 H   0  0  0  0  0  0  0  0  0  0  0  0
  141.4090   78.4540  223.4460 C   0  0  0  0  0  0  0  0  0  0  0  0
  142.4818   78.3487  223.6649 H   0  0  0  0  0  0  0  0  0  0  0  0
  140.7800   78.2294  224.3200 H   0  0  0  0  0  0  0  0  0  0  0  0
  141.0360   77.4460  222.3520 C   0  0  0  0  0  0  0  0  0  0  0  0
  141.0347   77.9742  221.3871 H   0  0  0  0  0  0  0  0  0  0  0  0
  141.7834   76.6408  222.4076 H   0  0  0  0  0  0  0  0  0  0  0  0
  139.8720   73.5310  222.4800 N   0  0  0  0  0  0  0  0  0  0  0  0
  139.3380   70.2700  222.9770 C   0  0  0  0  0  0  0  0  0  0  0  0
  139.9029   69.4026  222.6048 H   0  0  0  0  0  0  0  0  0  0  0  0
  138.6942   70.6730  222.1813 H   0  0  0  0  0  0  0  0  0  0  0  0
  138.4620   69.8340  224.1470 C   0  0  0  0  0  0  0  0  0  0  0  0
  137.8296   68.9904  223.8333 H   0  0  0  0  0  0  0  0  0  0  0  0
  137.8312   70.6795  224.4587 H   0  0  0  0  0  0  0  0  0  0  0  0
  1  2  1  0
  2  3  2  0
  3  4  1  0
  3  5  1  0
  5  6  1  0
  5  7  2  0
  7  8  1  0
  8  9  2  0
  9 10  1  0
  8 11  1  0
 11 12  1  0
 11 13  1  0
 11 14  1  0
 14 15  1  0
 15 16  1  0
 16 17  2  0
 17 18  1  0
 18 19  1  0
 19 20  1  0
 19 21  1  0
 19 22  1  0
 22 23  1  0
 22 24  1  0
 22 25  1  0
 25 26  1  0
 25 27  1  0
 25 28  1  0
 28 29  1  0
 28 30  1  0
 17 31  1  0
 31 32  1  0
 31 33  1  0
 33 34  2  0
 34 35  1  0
 35 36  1  0
 35 37  1  0
 37 38  1  0
 37 39  1  0
 37 40  1  0
 40 41  1  0
 40 42  1  0
 40 43  1  0
 43 44  1  0
 43 45  1  0
 43 46  1  0
 46 47  1  0
 46 48  1  0
 46 49  1  0
 49 50  1  0
 49 51  1  0
 49 52  1  0
 52 53  1  0
 52 54  1  0
 33 55  1  0
 14 56  1  0
 56 57  1  0
 56 58  1  0
 56 59  1  0
 59 60  1  0
 59 61  1  0
  9  2  1  0
 55 15  2  0
 59  7  1  0
 28 18  1  0
 52 35  1  0
M  END
>  <UniqueID>  (20) 
569

>  <SMILES>  (20) 
c1ccc2c(c1)CCN(c1nc(N3CCCC3)[nH]/c(=N/C3CCCCCC3)n1)C2

>  <Energy>  (20) 
68.04771974537705

>  <Genealogy>  (20) 
c1ccc2c(c1)CCN(c1nc(N3CCCC3)[nH]c(=NC3CCCCCC3)n1)C2 (tautomer)
c1ccc2c(c1)CCN(c1nc(N3CCCC3)[nH]/c(=N/C3CCCCCC3)n1)C2 (cis-trans isomerization)
c1ccc2c(c1)CCN(c1nc(N3CCCC3)[nH]/c(=N/C3CCCCCC3)n1)C2 (3D coordinates assigned)
c1ccc2c(c1)CCN(c1nc(N3CCCC3)[nH]/c(=N/C3CCCCCC3)n1)C2 (nonaromatic ring conformer: 68.04771974537705 kcal/mol)

>  <smiles>  (20) 
c1ccc2c(c1)CCN(c1nc(NC3CCCCCC3)nc(N3CCCC3)n1)C2

>  <score_type>  (20) 
oracle

>  <origin>  (20) 
autodockgpu

>  <m_score__min__energy>  (20) 
-6.29

>  <m_primary>  (20) 
energy

>  <meeko>  (20) 
{"free_energy": -6.19, "intermolecular_energy": -9.17, "internal_energy": -0.83, "cluster_size": 9, "cluster_id": 1, "rank_in_cluster": 3}

>  <energy>  (20) 
-4.16

>  <cluster_rmsd>  (20) 
0.0

>  <rmsd>  (20) 
270.22

>  <cluster>  (20) 
6

$$$$
HZXVWJKCCMCLGL-HKCMIAPXNA-N
     RDKit          3D

 61 65  0  0  0  0  0  0  0  0999 V2000
  140.5776   80.8863  224.0007 H   0  0  0  0  0  0  0  0  0  0  0  0
  140.8520   80.2220  223.1680 C   0  0  0  0  0  0  0  0  0  0  0  0
  141.3210   80.7650  221.9680 C   0  0  0  0  0  0  0  0  0  0  0  0
  141.4237   81.8549  221.8606 H   0  0  0  0  0  0  0  0  0  0  0  0
  141.6590   79.9240  220.9060 C   0  0  0  0  0  0  0  0  0  0  0  0
  142.0307   80.3530  219.9637 H   0  0  0  0  0  0  0  0  0  0  0  0
  141.5260   78.5330  221.0370 C   0  0  0  0  0  0  0  0  0  0  0  0
  141.0700   77.9810  222.2510 C   0  0  0  0  0  0  0  0  0  0  0  0
  140.7310   78.8370  223.3120 C   0  0  0  0  0  0  0  0  0  0  0  0
  140.3685   78.4151  224.2610 H   0  0  0  0  0  0  0  0  0  0  0  0
  141.0130   76.4870  222.4610 C   0  0  0  0  0  0  0  0  0  0  0  0
  140.0600   76.2413  222.9523 H   0  0  0  0  0  0  0  0  0  0  0  0
  141.8837   76.2148  223.0756 H   0  0  0  0  0  0  0  0  0  0  0  0
  141.1070   75.7090  221.2100 N   0  0  0  0  0  0  0  0  0  0  0  0
  141.0930   74.2670  221.2850 C   0  0  0  0  0  0  0  0  0  0  0  0
  140.4790   73.6390  222.3180 N   0  0  0  0  0  0  0  0  0  0  0  0
  140.4260   72.2840  222.3830 C   0  0  0  0  0  0  0  0  0  0  0  0
  139.7470   71.6560  223.4850 N   0  0  0  0  0  0  0  0  0  0  0  0
  138.3710   71.1950  223.3870 C   0  0  0  0  0  0  0  0  0  0  0  0
  137.6804   72.0512  223.3881 H   0  0  0  0  0  0  0  0  0  0  0  0
  138.1992   70.6375  222.4544 H   0  0  0  0  0  0  0  0  0  0  0  0
  138.1310   70.3210  224.6100 C   0  0  0  0  0  0  0  0  0  0  0  0
  137.1976   70.6166  225.1113 H   0  0  0  0  0  0  0  0  0  0  0  0
  138.0353   69.2616  224.3299 H   0  0  0  0  0  0  0  0  0  0  0  0
  139.3240   70.5420  225.5410 C   0  0  0  0  0  0  0  0  0  0  0  0
  139.0408   71.2038  226.3727 H   0  0  0  0  0  0  0  0  0  0  0  0
  139.6714   69.5942  225.9781 H   0  0  0  0  0  0  0  0  0  0  0  0
  140.4120   71.1940  224.6940 C   0  0  0  0  0  0  0  0  0  0  0  0
  140.8607   72.0417  225.2326 H   0  0  0  0  0  0  0  0  0  0  0  0
  141.2252   70.4893  224.4657 H   0  0  0  0  0  0  0  0  0  0  0  0
  141.0100   71.5440  221.3970 N   0  0  0  0  0  0  0  0  0  0  0  0
  140.9910   70.5000  221.4320 H   0  0  0  0  0  0  0  0  0  0  0  0
  141.6530   72.1620  220.3690 C   0  0  0  0  0  0  0  0  0  0  0  0
  142.2340   71.4480  219.4490 N   0  0  0  0  0  0  0  0  0  0  0  0
  143.6830   71.2570  219.3160 C   0  0  0  0  0  0  0  0  0  0  0  0
  143.8802   70.1778  219.3966 H   0  0  0  0  0  0  0  0  0  0  0  0
  144.4420   71.9580  220.4630 C   0  0  0  0  0  0  0  0  0  0  0  0
  143.7068   72.2240  221.2367 H   0  0  0  0  0  0  0  0  0  0  0  0
  145.2074   71.2381  220.7882 H   0  0  0  0  0  0  0  0  0  0  0  0
  145.2180   73.2400  220.0930 C   0  0  0  0  0  0  0  0  0  0  0  0
  145.6344   73.6564  221.0221 H   0  0  0  0  0  0  0  0  0  0  0  0
  145.9671   72.9190  219.3542 H   0  0  0  0  0  0  0  0  0  0  0  0
  144.4210   74.3600  219.3970 C   0  0  0  0  0  0  0  0  0  0  0  0
  143.3881   74.3316  219.7742 H   0  0  0  0  0  0  0  0  0  0  0  0
  144.9389   75.3022  219.6293 H   0  0  0  0  0  0  0  0  0  0  0  0
  144.3750   74.2540  217.8640 C   0  0  0  0  0  0  0  0  0  0  0  0
  143.8736   75.1467  217.4618 H   0  0  0  0  0  0  0  0  0  0  0  0
  145.4099   74.1783  217.4990 H   0  0  0  0  0  0  0  0  0  0  0  0
  143.6160   73.0060  217.3930 C   0  0  0  0  0  0  0  0  0  0  0  0
  142.5735   73.0828  217.7356 H   0  0  0  0  0  0  0  0  0  0  0  0
  143.6940   72.9751  216.2962 H   0  0  0  0  0  0  0  0  0  0  0  0
  144.2060   71.6930  217.9240 C   0  0  0  0  0  0  0  0  0  0  0  0
  143.9674   70.8958  217.2046 H   0  0  0  0  0  0  0  0  0  0  0  0
  145.2860   71.8659  218.0411 H   0  0  0  0  0  0  0  0  0  0  0  0
  141.6810   73.5200  220.3140 N   0  0  0  0  0  0  0  0  0  0  0  0
  141.0590   76.3790  219.8990 C   0  0  0  0  0  0  0  0  0  0  0  0
  140.0200   76.6622  219.6746 H   0  0  0  0  0  0  0  0  0  0  0  0
  141.4369   75.6878  219.1312 H   0  0  0  0  0  0  0  0  0  0  0  0
  141.9300   77.6310  219.9090 C   0  0  0  0  0  0  0  0  0  0  0  0
  141.8093   78.1654  218.9551 H   0  0  0  0  0  0  0  0  0  0  0  0
  142.9812   77.3363  220.0435 H   0  0  0  0  0  0  0  0  0  0  0  0
  1  2  1  0
  2  3  2  0
  3  4  1  0
  3  5  1  0
  5  6  1  0
  5  7  2  0
  7  8  1  0
  8  9  2  0
  9 10  1  0
  8 11  1  0
 11 12  1  0
 11 13  1  0
 11 14  1  0
 14 15  1  0
 15 16  1  0
 16 17  2  0
 17 18  1  0
 18 19  1  0
 19 20  1  0
 19 21  1  0
 19 22  1  0
 22 23  1  0
 22 24  1  0
 22 25  1  0
 25 26  1  0
 25 27  1  0
 25 28  1  0
 28 29  1  0
 28 30  1  0
 17 31  1  0
 31 32  1  0
 31 33  1  0
 33 34  2  0
 34 35  1  0
 35 36  1  0
 35 37  1  0
 37 38  1  0
 37 39  1  0
 37 40  1  0
 40 41  1  0
 40 42  1  0
 40 43  1  0
 43 44  1  0
 43 45  1  0
 43 46  1  0
 46 47  1  0
 46 48  1  0
 46 49  1  0
 49 50  1  0
 49 51  1  0
 49 52  1  0
 52 53  1  0
 52 54  1  0
 33 55  1  0
 14 56  1  0
 56 57  1  0
 56 58  1  0
 56 59  1  0
 59 60  1  0
 59 61  1  0
  9  2  1  0
 55 15  2  0
 59  7  1  0
 28 18  1  0
 52 35  1  0
M  END
>  <UniqueID>  (21) 
570

>  <SMILES>  (21) 
c1ccc2c(c1)CCN(c1nc(N3CCCC3)[nH]/c(=N/C3CCCCCC3)n1)C2

>  <Energy>  (21) 
68.13884172037191

>  <Genealogy>  (21) 
c1ccc2c(c1)CCN(c1nc(N3CCCC3)[nH]c(=NC3CCCCCC3)n1)C2 (tautomer)
c1ccc2c(c1)CCN(c1nc(N3CCCC3)[nH]/c(=N/C3CCCCCC3)n1)C2 (cis-trans isomerization)
c1ccc2c(c1)CCN(c1nc(N3CCCC3)[nH]/c(=N/C3CCCCCC3)n1)C2 (3D coordinates assigned)
c1ccc2c(c1)CCN(c1nc(N3CCCC3)[nH]/c(=N/C3CCCCCC3)n1)C2 (nonaromatic ring conformer: 68.13884172037191 kcal/mol)

>  <smiles>  (21) 
c1ccc2c(c1)CCN(c1nc(NC3CCCCCC3)nc(N3CCCC3)n1)C2

>  <score_type>  (21) 
oracle

>  <origin>  (21) 
autodockgpu

>  <m_score__min__energy>  (21) 
-6.29

>  <m_primary>  (21) 
energy

>  <meeko>  (21) 
{"free_energy": -4.16, "intermolecular_energy": -7.14, "internal_energy": -1.45, "cluster_size": 1, "cluster_id": 6, "rank_in_cluster": 1}

>  <energy>  (21) 
-6.29

>  <cluster_rmsd>  (21) 
0.0

>  <rmsd>  (21) 
270.79

>  <cluster>  (21) 
1

$$$$
HZXVWJKCCMCLGL-HKCMIAPXNA-N
     RDKit          3D

 61 65  0  0  0  0  0  0  0  0999 V2000
  133.8069   70.4380  223.2149 H   0  0  0  0  0  0  0  0  0  0  0  0
  134.9040   70.3640  223.2440 C   0  0  0  0  0  0  0  0  0  0  0  0
  135.5120   69.2110  223.7490 C   0  0  0  0  0  0  0  0  0  0  0  0
  134.8931   68.3758  224.1087 H   0  0  0  0  0  0  0  0  0  0  0  0
  136.9040   69.1190  223.7970 C   0  0  0  0  0  0  0  0  0  0  0  0
  137.3801   68.2090  224.1911 H   0  0  0  0  0  0  0  0  0  0  0  0
  137.6980   70.1840  223.3440 C   0  0  0  0  0  0  0  0  0  0  0  0
  137.0880   71.3410  222.8180 C   0  0  0  0  0  0  0  0  0  0  0  0
  135.6870   71.4230  222.7760 C   0  0  0  0  0  0  0  0  0  0  0  0
  135.2033   72.3249  222.3729 H   0  0  0  0  0  0  0  0  0  0  0  0
  137.9110   72.4620  222.2280 C   0  0  0  0  0  0  0  0  0  0  0  0
  137.5034   73.4185  222.5872 H   0  0  0  0  0  0  0  0  0  0  0  0
  137.8500   72.3647  221.1340 H   0  0  0  0  0  0  0  0  0  0  0  0
  139.3410   72.4000  222.5880 N   0  0  0  0  0  0  0  0  0  0  0  0
  140.2350   73.4020  222.0580 C   0  0  0  0  0  0  0  0  0  0  0  0
  141.4480   73.0500  221.5650 N   0  0  0  0  0  0  0  0  0  0  0  0
  142.2830   73.9760  221.0290 C   0  0  0  0  0  0  0  0  0  0  0  0
  143.5540   73.5590  220.4980 N   0  0  0  0  0  0  0  0  0  0  0  0
  144.6700   74.4790  220.3450 C   0  0  0  0  0  0  0  0  0  0  0  0
  144.4892   75.1621  219.5020 H   0  0  0  0  0  0  0  0  0  0  0  0
  144.8071   75.0985  221.2436 H   0  0  0  0  0  0  0  0  0  0  0  0
  145.8940   73.6140  220.0720 C   0  0  0  0  0  0  0  0  0  0  0  0
  146.4439   73.9978  219.2001 H   0  0  0  0  0  0  0  0  0  0  0  0
  146.5846   73.6198  220.9282 H   0  0  0  0  0  0  0  0  0  0  0  0
  145.3740   72.2040  219.7900 C   0  0  0  0  0  0  0  0  0  0  0  0
  145.3995   71.9975  218.7099 H   0  0  0  0  0  0  0  0  0  0  0  0
  145.9940   71.4424  220.2856 H   0  0  0  0  0  0  0  0  0  0  0  0
  143.9370   72.1680  220.3010 C   0  0  0  0  0  0  0  0  0  0  0  0
  143.2785   71.6900  219.5607 H   0  0  0  0  0  0  0  0  0  0  0  0
  143.8513   71.5876  221.2315 H   0  0  0  0  0  0  0  0  0  0  0  0
  141.8980   75.2840  220.9960 N   0  0  0  0  0  0  0  0  0  0  0  0
  142.5290   76.0150  220.5980 H   0  0  0  0  0  0  0  0  0  0  0  0
  140.6950   75.6550  221.5120 C   0  0  0  0  0  0  0  0  0  0  0  0
  140.3490   76.9090  221.5040 N   0  0  0  0  0  0  0  0  0  0  0  0
  140.2000   77.7540  222.6960 C   0  0  0  0  0  0  0  0  0  0  0  0
  139.7373   77.1370  223.4803 H   0  0  0  0  0  0  0  0  0  0  0  0
  139.2550   78.9430  222.4170 C   0  0  0  0  0  0  0  0  0  0  0  0
  139.2883   79.1502  221.3372 H   0  0  0  0  0  0  0  0  0  0  0  0
  138.2703   78.6264  222.7912 H   0  0  0  0  0  0  0  0  0  0  0  0
  139.5690   80.2600  223.1570 C   0  0  0  0  0  0  0  0  0  0  0  0
  138.6393   80.8463  223.2003 H   0  0  0  0  0  0  0  0  0  0  0  0
  139.9676   79.9509  224.1345 H   0  0  0  0  0  0  0  0  0  0  0  0
  140.6600   81.1620  222.5460 C   0  0  0  0  0  0  0  0  0  0  0  0
  140.5040   81.2005  221.4578 H   0  0  0  0  0  0  0  0  0  0  0  0
  140.5604   82.1446  223.0304 H   0  0  0  0  0  0  0  0  0  0  0  0
  142.0990   80.6900  222.8080 C   0  0  0  0  0  0  0  0  0  0  0  0
  142.7909   81.3313  222.2424 H   0  0  0  0  0  0  0  0  0  0  0  0
  142.2854   80.7576  223.8900 H   0  0  0  0  0  0  0  0  0  0  0  0
  142.3160   79.2320  222.3820 C   0  0  0  0  0  0  0  0  0  0  0  0
  141.9707   79.1177  221.3439 H   0  0  0  0  0  0  0  0  0  0  0  0
  143.3899   79.0199  222.4907 H   0  0  0  0  0  0  0  0  0  0  0  0
  141.5660   78.2200  223.2570 C   0  0  0  0  0  0  0  0  0  0  0  0
  142.2056   77.3332  223.3775 H   0  0  0  0  0  0  0  0  0  0  0  0
  141.3492   78.7348  224.2046 H   0  0  0  0  0  0  0  0  0  0  0  0
  139.8660   74.7090  222.0300 N   0  0  0  0  0  0  0  0  0  0  0  0
  139.8260   71.4340  223.5880 C   0  0  0  0  0  0  0  0  0  0  0  0
  139.5615   71.7909  224.5943 H   0  0  0  0  0  0  0  0  0  0  0  0
  140.9181   71.3418  223.4937 H   0  0  0  0  0  0  0  0  0  0  0  0
  139.1930   70.0650  223.3580 C   0  0  0  0  0  0  0  0  0  0  0  0
  139.4961   69.3836  224.1666 H   0  0  0  0  0  0  0  0  0  0  0  0
  139.5317   69.6701  222.3888 H   0  0  0  0  0  0  0  0  0  0  0  0
  1  2  1  0
  2  3  2  0
  3  4  1  0
  3  5  1  0
  5  6  1  0
  5  7  2  0
  7  8  1  0
  8  9  2  0
  9 10  1  0
  8 11  1  0
 11 12  1  0
 11 13  1  0
 11 14  1  0
 14 15  1  0
 15 16  1  0
 16 17  2  0
 17 18  1  0
 18 19  1  0
 19 20  1  0
 19 21  1  0
 19 22  1  0
 22 23  1  0
 22 24  1  0
 22 25  1  0
 25 26  1  0
 25 27  1  0
 25 28  1  0
 28 29  1  0
 28 30  1  0
 17 31  1  0
 31 32  1  0
 31 33  1  0
 33 34  2  0
 34 35  1  0
 35 36  1  0
 35 37  1  0
 37 38  1  0
 37 39  1  0
 37 40  1  0
 40 41  1  0
 40 42  1  0
 40 43  1  0
 43 44  1  0
 43 45  1  0
 43 46  1  0
 46 47  1  0
 46 48  1  0
 46 49  1  0
 49 50  1  0
 49 51  1  0
 49 52  1  0
 52 53  1  0
 52 54  1  0
 33 55  1  0
 14 56  1  0
 56 57  1  0
 56 58  1  0
 56 59  1  0
 59 60  1  0
 59 61  1  0
  9  2  1  0
 55 15  2  0
 59  7  1  0
 28 18  1  0
 52 35  1  0
M  END
>  <UniqueID>  (22) 
570

>  <SMILES>  (22) 
c1ccc2c(c1)CCN(c1nc(N3CCCC3)[nH]/c(=N/C3CCCCCC3)n1)C2

>  <Energy>  (22) 
68.13884172037191

>  <Genealogy>  (22) 
c1ccc2c(c1)CCN(c1nc(N3CCCC3)[nH]c(=NC3CCCCCC3)n1)C2 (tautomer)
c1ccc2c(c1)CCN(c1nc(N3CCCC3)[nH]/c(=N/C3CCCCCC3)n1)C2 (cis-trans isomerization)
c1ccc2c(c1)CCN(c1nc(N3CCCC3)[nH]/c(=N/C3CCCCCC3)n1)C2 (3D coordinates assigned)
c1ccc2c(c1)CCN(c1nc(N3CCCC3)[nH]/c(=N/C3CCCCCC3)n1)C2 (nonaromatic ring conformer: 68.13884172037191 kcal/mol)

>  <smiles>  (22) 
c1ccc2c(c1)CCN(c1nc(NC3CCCCCC3)nc(N3CCCC3)n1)C2

>  <score_type>  (22) 
oracle

>  <origin>  (22) 
autodockgpu

>  <m_score__min__energy>  (22) 
-6.29

>  <m_primary>  (22) 
energy

>  <meeko>  (22) 
{"free_energy": -5.17, "intermolecular_energy": -8.15, "internal_energy": -0.87, "cluster_size": 9, "cluster_id": 1, "rank_in_cluster": 7}

>  <energy>  (22) 
-6.28

>  <cluster_rmsd>  (22) 
0.35

>  <rmsd>  (22) 
270.88

>  <cluster>  (22) 
1

$$$$
HZXVWJKCCMCLGL-HKCMIAPXNA-N
     RDKit          3D

 61 65  0  0  0  0  0  0  0  0999 V2000
  140.1479   81.3689  223.2371 H   0  0  0  0  0  0  0  0  0  0  0  0
  140.4510   80.4610  222.6950 C   0  0  0  0  0  0  0  0  0  0  0  0
  141.4530   80.5310  221.7220 C   0  0  0  0  0  0  0  0  0  0  0  0
  141.9437   81.4916  221.5066 H   0  0  0  0  0  0  0  0  0  0  0  0
  141.8310   79.3830  221.0240 C   0  0  0  0  0  0  0  0  0  0  0  0
  142.6211   79.4404  220.2608 H   0  0  0  0  0  0  0  0  0  0  0  0
  141.2060   78.1560  221.2930 C   0  0  0  0  0  0  0  0  0  0  0  0
  140.2080   78.0770  222.2860 C   0  0  0  0  0  0  0  0  0  0  0  0
  139.8340   79.2400  222.9800 C   0  0  0  0  0  0  0  0  0  0  0  0
  139.0516   79.1891  223.7515 H   0  0  0  0  0  0  0  0  0  0  0  0
  139.5880   76.7550  222.6720 C   0  0  0  0  0  0  0  0  0  0  0  0
  138.5011   76.8953  222.7663 H   0  0  0  0  0  0  0  0  0  0  0  0
  140.0542   76.4450  223.6189 H   0  0  0  0  0  0  0  0  0  0  0  0
  139.8360   75.6770  221.6950 N   0  0  0  0  0  0  0  0  0  0  0  0
  139.3180   74.3580  221.9700 C   0  0  0  0  0  0  0  0  0  0  0  0
  138.0880   73.9960  221.5270 N   0  0  0  0  0  0  0  0  0  0  0  0
  137.6030   72.7480  221.7460 C   0  0  0  0  0  0  0  0  0  0  0  0
  136.3010   72.3980  221.2430 N   0  0  0  0  0  0  0  0  0  0  0  0
  135.2700   71.8240  222.0930 C   0  0  0  0  0  0  0  0  0  0  0  0
  135.5114   70.7780  222.3330 H   0  0  0  0  0  0  0  0  0  0  0  0
  135.1860   72.3669  223.0460 H   0  0  0  0  0  0  0  0  0  0  0  0
  133.9760   71.8980  221.2940 C   0  0  0  0  0  0  0  0  0  0  0  0
  133.4635   70.9248  221.3093 H   0  0  0  0  0  0  0  0  0  0  0  0
  133.2868   72.6419  221.7201 H   0  0  0  0  0  0  0  0  0  0  0  0
  134.3710   72.2650  219.8630 C   0  0  0  0  0  0  0  0  0  0  0  0
  134.3285   71.3762  219.2163 H   0  0  0  0  0  0  0  0  0  0  0  0
  133.6862   73.0142  219.4389 H   0  0  0  0  0  0  0  0  0  0  0  0
  135.7980   72.7970  219.9360 C   0  0  0  0  0  0  0  0  0  0  0  0
  136.4129   72.3562  219.1375 H   0  0  0  0  0  0  0  0  0  0  0  0
  135.8316   73.8885  219.8040 H   0  0  0  0  0  0  0  0  0  0  0  0
  138.3630   71.8460  222.4310 N   0  0  0  0  0  0  0  0  0  0  0  0
  138.0050   70.8830  222.6200 H   0  0  0  0  0  0  0  0  0  0  0  0
  139.5880   72.2040  222.9040 C   0  0  0  0  0  0  0  0  0  0  0  0
  140.2930   71.3460  223.5830 N   0  0  0  0  0  0  0  0  0  0  0  0
  140.0650   70.9880  224.9880 C   0  0  0  0  0  0  0  0  0  0  0  0
  139.3163   71.6879  225.3874 H   0  0  0  0  0  0  0  0  0  0  0  0
  141.3550   71.1580  225.8200 C   0  0  0  0  0  0  0  0  0  0  0  0
  142.0237   70.3197  225.5749 H   0  0  0  0  0  0  0  0  0  0  0  0
  141.7473   72.1494  225.5496 H   0  0  0  0  0  0  0  0  0  0  0  0
  141.1860   71.1900  227.3530 C   0  0  0  0  0  0  0  0  0  0  0  0
  141.9857   70.5723  227.7877 H   0  0  0  0  0  0  0  0  0  0  0  0
  141.2243   72.2560  227.6218 H   0  0  0  0  0  0  0  0  0  0  0  0
  139.8470   70.6830  227.9210 C   0  0  0  0  0  0  0  0  0  0  0  0
  139.8465   70.8588  229.0069 H   0  0  0  0  0  0  0  0  0  0  0  0
  139.0556   71.2359  227.3938 H   0  0  0  0  0  0  0  0  0  0  0  0
  139.5720   69.1910  227.6770 C   0  0  0  0  0  0  0  0  0  0  0  0
  140.1011   68.6032  228.4415 H   0  0  0  0  0  0  0  0  0  0  0  0
  138.4849   69.0333  227.7338 H   0  0  0  0  0  0  0  0  0  0  0  0
  140.0440   68.7360  226.2880 C   0  0  0  0  0  0  0  0  0  0  0  0
  141.1408   68.8118  226.2510 H   0  0  0  0  0  0  0  0  0  0  0  0
  139.6920   67.7031  226.1492 H   0  0  0  0  0  0  0  0  0  0  0  0
  139.4610   69.5690  225.1400 C   0  0  0  0  0  0  0  0  0  0  0  0
  139.6325   69.0228  224.2007 H   0  0  0  0  0  0  0  0  0  0  0  0
  138.3957   69.7118  225.3740 H   0  0  0  0  0  0  0  0  0  0  0  0
  140.0620   73.4550  222.6600 N   0  0  0  0  0  0  0  0  0  0  0  0
  140.4640   75.9670  220.3940 C   0  0  0  0  0  0  0  0  0  0  0  0
  139.7216   76.4328  219.7292 H   0  0  0  0  0  0  0  0  0  0  0  0
  140.8268   75.0256  219.9556 H   0  0  0  0  0  0  0  0  0  0  0  0
  141.6440   76.9160  220.5720 C   0  0  0  0  0  0  0  0  0  0  0  0
  142.0414   77.1912  219.5839 H   0  0  0  0  0  0  0  0  0  0  0  0
  142.4236   76.4131  221.1631 H   0  0  0  0  0  0  0  0  0  0  0  0
  1  2  1  0
  2  3  2  0
  3  4  1  0
  3  5  1  0
  5  6  1  0
  5  7  2  0
  7  8  1  0
  8  9  2  0
  9 10  1  0
  8 11  1  0
 11 12  1  0
 11 13  1  0
 11 14  1  0
 14 15  1  0
 15 16  1  0
 16 17  2  0
 17 18  1  0
 18 19  1  0
 19 20  1  0
 19 21  1  0
 19 22  1  0
 22 23  1  0
 22 24  1  0
 22 25  1  0
 25 26  1  0
 25 27  1  0
 25 28  1  0
 28 29  1  0
 28 30  1  0
 17 31  1  0
 31 32  1  0
 31 33  1  0
 33 34  2  0
 34 35  1  0
 35 36  1  0
 35 37  1  0
 37 38  1  0
 37 39  1  0
 37 40  1  0
 40 41  1  0
 40 42  1  0
 40 43  1  0
 43 44  1  0
 43 45  1  0
 43 46  1  0
 46 47  1  0
 46 48  1  0
 46 49  1  0
 49 50  1  0
 49 51  1  0
 49 52  1  0
 52 53  1  0
 52 54  1  0
 33 55  1  0
 14 56  1  0
 56 57  1  0
 56 58  1  0
 56 59  1  0
 59 60  1  0
 59 61  1  0
  9  2  1  0
 55 15  2  0
 59  7  1  0
 28 18  1  0
 52 35  1  0
M  END
>  <UniqueID>  (23) 
570

>  <SMILES>  (23) 
c1ccc2c(c1)CCN(c1nc(N3CCCC3)[nH]/c(=N/C3CCCCCC3)n1)C2

>  <Energy>  (23) 
68.13884172037191

>  <Genealogy>  (23) 
c1ccc2c(c1)CCN(c1nc(N3CCCC3)[nH]c(=NC3CCCCCC3)n1)C2 (tautomer)
c1ccc2c(c1)CCN(c1nc(N3CCCC3)[nH]/c(=N/C3CCCCCC3)n1)C2 (cis-trans isomerization)
c1ccc2c(c1)CCN(c1nc(N3CCCC3)[nH]/c(=N/C3CCCCCC3)n1)C2 (3D coordinates assigned)
c1ccc2c(c1)CCN(c1nc(N3CCCC3)[nH]/c(=N/C3CCCCCC3)n1)C2 (nonaromatic ring conformer: 68.13884172037191 kcal/mol)

>  <smiles>  (23) 
c1ccc2c(c1)CCN(c1nc(NC3CCCCCC3)nc(N3CCCC3)n1)C2

>  <score_type>  (23) 
oracle

>  <origin>  (23) 
autodockgpu

>  <m_score__min__energy>  (23) 
-6.29

>  <m_primary>  (23) 
energy

>  <meeko>  (23) 
{"free_energy": -4.79, "intermolecular_energy": -7.78, "internal_energy": -0.81, "cluster_size": 1, "cluster_id": 5, "rank_in_cluster": 1}

>  <energy>  (23) 
-6.19

>  <cluster_rmsd>  (23) 
0.68

>  <rmsd>  (23) 
270.8

>  <cluster>  (23) 
1

$$$$
HZXVWJKCCMCLGL-HKCMIAPXNA-N
     RDKit          3D

 61 65  0  0  0  0  0  0  0  0999 V2000
  141.1630   81.5465  223.8671 H   0  0  0  0  0  0  0  0  0  0  0  0
  140.5710   80.7220  223.4430 C   0  0  0  0  0  0  0  0  0  0  0  0
  139.2400   80.9370  223.0730 C   0  0  0  0  0  0  0  0  0  0  0  0
  138.7887   81.9322  223.1988 H   0  0  0  0  0  0  0  0  0  0  0  0
  138.4830   79.8900  222.5440 C   0  0  0  0  0  0  0  0  0  0  0  0
  137.4372   80.0631  222.2503 H   0  0  0  0  0  0  0  0  0  0  0  0
  139.0530   78.6170  222.3860 C   0  0  0  0  0  0  0  0  0  0  0  0
  140.4000   78.4010  222.7410 C   0  0  0  0  0  0  0  0  0  0  0  0
  141.1510   79.4610  223.2750 C   0  0  0  0  0  0  0  0  0  0  0  0
  142.2003   79.2983  223.5623 H   0  0  0  0  0  0  0  0  0  0  0  0
  141.0740   77.0730  222.4890 C   0  0  0  0  0  0  0  0  0  0  0  0
  141.6618   76.8070  223.3799 H   0  0  0  0  0  0  0  0  0  0  0  0
  141.7018   77.1951  221.5940 H   0  0  0  0  0  0  0  0  0  0  0  0
  140.1300   75.9740  222.2080 N   0  0  0  0  0  0  0  0  0  0  0  0
  140.6580   74.6610  221.9210 C   0  0  0  0  0  0  0  0  0  0  0  0
  141.8030   74.5210  221.2070 N   0  0  0  0  0  0  0  0  0  0  0  0
  142.3310   73.2960  220.9610 C   0  0  0  0  0  0  0  0  0  0  0  0
  143.5580   73.1910  220.2160 N   0  0  0  0  0  0  0  0  0  0  0  0
  144.8100   73.7470  220.7030 C   0  0  0  0  0  0  0  0  0  0  0  0
  144.7980   74.8439  220.6216 H   0  0  0  0  0  0  0  0  0  0  0  0
  144.9750   73.4996  221.7621 H   0  0  0  0  0  0  0  0  0  0  0  0
  145.9030   73.1630  219.8180 C   0  0  0  0  0  0  0  0  0  0  0  0
  146.5671   73.9620  219.4565 H   0  0  0  0  0  0  0  0  0  0  0  0
  146.5227   72.4432  220.3727 H   0  0  0  0  0  0  0  0  0  0  0  0
  145.1940   72.4920  218.6410 C   0  0  0  0  0  0  0  0  0  0  0  0
  145.2667   73.1228  217.7428 H   0  0  0  0  0  0  0  0  0  0  0  0
  145.6512   71.5210  218.3997 H   0  0  0  0  0  0  0  0  0  0  0  0
  143.7350   72.3300  219.0560 C   0  0  0  0  0  0  0  0  0  0  0  0
  143.0671   72.6434  218.2401 H   0  0  0  0  0  0  0  0  0  0  0  0
  143.4924   71.2823  219.2870 H   0  0  0  0  0  0  0  0  0  0  0  0
  141.6940   72.1860  221.4330 N   0  0  0  0  0  0  0  0  0  0  0  0
  142.0760   71.2320  221.2460 H   0  0  0  0  0  0  0  0  0  0  0  0
  140.5300   72.3110  222.1280 C   0  0  0  0  0  0  0  0  0  0  0  0
  139.9130   71.2440  222.5480 N   0  0  0  0  0  0  0  0  0  0  0  0
  140.2010   70.5390  223.8030 C   0  0  0  0  0  0  0  0  0  0  0  0
  141.1910   70.0714  223.6968 H   0  0  0  0  0  0  0  0  0  0  0  0
  139.1750   69.4120  224.0530 C   0  0  0  0  0  0  0  0  0  0  0  0
  138.1697   69.8474  223.9546 H   0  0  0  0  0  0  0  0  0  0  0  0
  139.4106   68.6342  223.3117 H   0  0  0  0  0  0  0  0  0  0  0  0
  139.2480   68.7060  225.4230 C   0  0  0  0  0  0  0  0  0  0  0  0
  138.3750   68.0414  225.5010 H   0  0  0  0  0  0  0  0  0  0  0  0
  140.2217   68.1943  225.4297 H   0  0  0  0  0  0  0  0  0  0  0  0
  139.2600   69.6080  226.6750 C   0  0  0  0  0  0  0  0  0  0  0  0
  138.6504   70.4987  226.4625 H   0  0  0  0  0  0  0  0  0  0  0  0
  138.8618   69.0010  227.5014 H   0  0  0  0  0  0  0  0  0  0  0  0
  140.6580   70.0760  227.1110 C   0  0  0  0  0  0  0  0  0  0  0  0
  140.5777   70.5672  228.0919 H   0  0  0  0  0  0  0  0  0  0  0  0
  141.3112   69.1923  227.1594 H   0  0  0  0  0  0  0  0  0  0  0  0
  141.2740   71.0650  226.1110 C   0  0  0  0  0  0  0  0  0  0  0  0
  141.6028   71.9581  226.6626 H   0  0  0  0  0  0  0  0  0  0  0  0
  142.1098   70.5471  225.6178 H   0  0  0  0  0  0  0  0  0  0  0  0
  140.3040   71.5060  225.0080 C   0  0  0  0  0  0  0  0  0  0  0  0
  139.3029   71.6045  225.4531 H   0  0  0  0  0  0  0  0  0  0  0  0
  140.6998   72.4521  224.6103 H   0  0  0  0  0  0  0  0  0  0  0  0
  140.0260   73.5480  222.3770 N   0  0  0  0  0  0  0  0  0  0  0  0
  138.6780   76.1660  222.3670 C   0  0  0  0  0  0  0  0  0  0  0  0
  138.4245   76.1440  223.4372 H   0  0  0  0  0  0  0  0  0  0  0  0
  138.1512   75.3587  221.8370 H   0  0  0  0  0  0  0  0  0  0  0  0
  138.2510   77.5060  221.7770 C   0  0  0  0  0  0  0  0  0  0  0  0
  137.1836   77.6715  221.9852 H   0  0  0  0  0  0  0  0  0  0  0  0
  138.4230   77.4919  220.6906 H   0  0  0  0  0  0  0  0  0  0  0  0
  1  2  1  0
  2  3  2  0
  3  4  1  0
  3  5  1  0
  5  6  1  0
  5  7  2  0
  7  8  1  0
  8  9  2  0
  9 10  1  0
  8 11  1  0
 11 12  1  0
 11 13  1  0
 11 14  1  0
 14 15  1  0
 15 16  1  0
 16 17  2  0
 17 18  1  0
 18 19  1  0
 19 20  1  0
 19 21  1  0
 19 22  1  0
 22 23  1  0
 22 24  1  0
 22 25  1  0
 25 26  1  0
 25 27  1  0
 25 28  1  0
 28 29  1  0
 28 30  1  0
 17 31  1  0
 31 32  1  0
 31 33  1  0
 33 34  2  0
 34 35  1  0
 35 36  1  0
 35 37  1  0
 37 38  1  0
 37 39  1  0
 37 40  1  0
 40 41  1  0
 40 42  1  0
 40 43  1  0
 43 44  1  0
 43 45  1  0
 43 46  1  0
 46 47  1  0
 46 48  1  0
 46 49  1  0
 49 50  1  0
 49 51  1  0
 49 52  1  0
 52 53  1  0
 52 54  1  0
 33 55  1  0
 14 56  1  0
 56 57  1  0
 56 58  1  0
 56 59  1  0
 59 60  1  0
 59 61  1  0
  9  2  1  0
 55 15  2  0
 59  7  1  0
 28 18  1  0
 52 35  1  0
M  END
>  <UniqueID>  (24) 
570

>  <SMILES>  (24) 
c1ccc2c(c1)CCN(c1nc(N3CCCC3)[nH]/c(=N/C3CCCCCC3)n1)C2

>  <Energy>  (24) 
68.13884172037191

>  <Genealogy>  (24) 
c1ccc2c(c1)CCN(c1nc(N3CCCC3)[nH]c(=NC3CCCCCC3)n1)C2 (tautomer)
c1ccc2c(c1)CCN(c1nc(N3CCCC3)[nH]/c(=N/C3CCCCCC3)n1)C2 (cis-trans isomerization)
c1ccc2c(c1)CCN(c1nc(N3CCCC3)[nH]/c(=N/C3CCCCCC3)n1)C2 (3D coordinates assigned)
c1ccc2c(c1)CCN(c1nc(N3CCCC3)[nH]/c(=N/C3CCCCCC3)n1)C2 (nonaromatic ring conformer: 68.13884172037191 kcal/mol)

>  <smiles>  (24) 
c1ccc2c(c1)CCN(c1nc(NC3CCCCCC3)nc(N3CCCC3)n1)C2

>  <score_type>  (24) 
oracle

>  <origin>  (24) 
autodockgpu

>  <m_score__min__energy>  (24) 
-6.29

>  <m_primary>  (24) 
energy

>  <meeko>  (24) 
{"free_energy": -6.18, "intermolecular_energy": -9.16, "internal_energy": -0.88, "cluster_size": 7, "cluster_id": 2, "rank_in_cluster": 1}

>  <energy>  (24) 
-6.03

>  <cluster_rmsd>  (24) 
0.32

>  <rmsd>  (24) 
270.82

>  <cluster>  (24) 
1

$$$$
HZXVWJKCCMCLGL-HKCMIAPXNA-N
     RDKit          3D

 61 65  0  0  0  0  0  0  0  0999 V2000
  147.3720   69.2680  217.7824 H   0  0  0  0  0  0  0  0  0  0  0  0
  146.3350   69.0760  218.0950 C   0  0  0  0  0  0  0  0  0  0  0  0
  145.7230   67.8610  217.7740 C   0  0  0  0  0  0  0  0  0  0  0  0
  146.2817   67.0948  217.2165 H   0  0  0  0  0  0  0  0  0  0  0  0
  144.4040   67.6190  218.1600 C   0  0  0  0  0  0  0  0  0  0  0  0
  143.9262   66.6606  217.9088 H   0  0  0  0  0  0  0  0  0  0  0  0
  143.6850   68.5950  218.8680 C   0  0  0  0  0  0  0  0  0  0  0  0
  144.3040   69.8150  219.2090 C   0  0  0  0  0  0  0  0  0  0  0  0
  145.6310   70.0480  218.8130 C   0  0  0  0  0  0  0  0  0  0  0  0
  146.1192   70.9999  219.0689 H   0  0  0  0  0  0  0  0  0  0  0  0
  143.5950   70.8440  220.0570 C   0  0  0  0  0  0  0  0  0  0  0  0
  143.7667   71.8366  219.6150 H   0  0  0  0  0  0  0  0  0  0  0  0
  144.0058   70.7614  221.0741 H   0  0  0  0  0  0  0  0  0  0  0  0
  142.1390   70.6250  220.1600 N   0  0  0  0  0  0  0  0  0  0  0  0
  141.3570   71.5280  220.9710 C   0  0  0  0  0  0  0  0  0  0  0  0
  141.4200   72.8670  220.7640 N   0  0  0  0  0  0  0  0  0  0  0  0
  140.6620   73.7250  221.4930 C   0  0  0  0  0  0  0  0  0  0  0  0
  140.7440   75.1380  221.2300 N   0  0  0  0  0  0  0  0  0  0  0  0
  139.9980   76.1150  222.0070 C   0  0  0  0  0  0  0  0  0  0  0  0
  138.9308   76.0791  221.7427 H   0  0  0  0  0  0  0  0  0  0  0  0
  140.0741   75.9143  223.0859 H   0  0  0  0  0  0  0  0  0  0  0  0
  140.5860   77.4740  221.6500 C   0  0  0  0  0  0  0  0  0  0  0  0
  139.7821   78.1830  221.4030 H   0  0  0  0  0  0  0  0  0  0  0  0
  141.1529   77.8963  222.4928 H   0  0  0  0  0  0  0  0  0  0  0  0
  141.4860   77.2510  220.4340 C   0  0  0  0  0  0  0  0  0  0  0  0
  140.9839   77.5993  219.5193 H   0  0  0  0  0  0  0  0  0  0  0  0
  142.4285   77.8108  220.5256 H   0  0  0  0  0  0  0  0  0  0  0  0
  141.7380   75.7480  220.3590 C   0  0  0  0  0  0  0  0  0  0  0  0
  141.6148   75.3895  219.3264 H   0  0  0  0  0  0  0  0  0  0  0  0
  142.7617   75.4920  220.6695 H   0  0  0  0  0  0  0  0  0  0  0  0
  139.8310   73.2320  222.4550 N   0  0  0  0  0  0  0  0  0  0  0  0
  139.2470   73.8750  223.0360 H   0  0  0  0  0  0  0  0  0  0  0  0
  139.7780   71.8930  222.6910 C   0  0  0  0  0  0  0  0  0  0  0  0
  139.0050   71.4340  223.6320 N   0  0  0  0  0  0  0  0  0  0  0  0
  139.4350   71.1110  224.9980 C   0  0  0  0  0  0  0  0  0  0  0  0
  138.8033   71.6916  225.6864 H   0  0  0  0  0  0  0  0  0  0  0  0
  140.9010   71.5380  225.2330 C   0  0  0  0  0  0  0  0  0  0  0  0
  141.5434   70.8629  224.6486 H   0  0  0  0  0  0  0  0  0  0  0  0
  140.9492   72.5935  224.9271 H   0  0  0  0  0  0  0  0  0  0  0  0
  141.4000   71.5130  226.6920 C   0  0  0  0  0  0  0  0  0  0  0  0
  142.1330   70.6973  226.7777 H   0  0  0  0  0  0  0  0  0  0  0  0
  141.8028   72.5205  226.8726 H   0  0  0  0  0  0  0  0  0  0  0  0
  140.3390   71.3030  227.7940 C   0  0  0  0  0  0  0  0  0  0  0  0
  140.8081   71.5119  228.7668 H   0  0  0  0  0  0  0  0  0  0  0  0
  139.5078   71.9850  227.5619 H   0  0  0  0  0  0  0  0  0  0  0  0
  139.7420   69.8870  227.8430 C   0  0  0  0  0  0  0  0  0  0  0  0
  140.1921   69.3413  228.6854 H   0  0  0  0  0  0  0  0  0  0  0  0
  138.6530   69.9827  227.9655 H   0  0  0  0  0  0  0  0  0  0  0  0
  140.0050   69.1040  226.5490 C   0  0  0  0  0  0  0  0  0  0  0  0
  141.0764   69.1762  226.3104 H   0  0  0  0  0  0  0  0  0  0  0  0
  139.6855   68.0669  226.7288 H   0  0  0  0  0  0  0  0  0  0  0  0
  139.2050   69.6190  225.3470 C   0  0  0  0  0  0  0  0  0  0  0  0
  139.4821   69.0166  224.4693 H   0  0  0  0  0  0  0  0  0  0  0  0
  138.1439   69.5277  225.6221 H   0  0  0  0  0  0  0  0  0  0  0  0
  140.5340   71.0490  221.9390 N   0  0  0  0  0  0  0  0  0  0  0  0
  141.4690   69.6050  219.3350 C   0  0  0  0  0  0  0  0  0  0  0  0
  141.3656   69.9816  218.3067 H   0  0  0  0  0  0  0  0  0  0  0  0
  140.4776   69.3956  219.7630 H   0  0  0  0  0  0  0  0  0  0  0  0
  142.2820   68.3150  219.3180 C   0  0  0  0  0  0  0  0  0  0  0  0
  141.8141   67.5993  218.6260 H   0  0  0  0  0  0  0  0  0  0  0  0
  142.3075   67.8925  220.3333 H   0  0  0  0  0  0  0  0  0  0  0  0
  1  2  1  0
  2  3  2  0
  3  4  1  0
  3  5  1  0
  5  6  1  0
  5  7  2  0
  7  8  1  0
  8  9  2  0
  9 10  1  0
  8 11  1  0
 11 12  1  0
 11 13  1  0
 11 14  1  0
 14 15  1  0
 15 16  1  0
 16 17  2  0
 17 18  1  0
 18 19  1  0
 19 20  1  0
 19 21  1  0
 19 22  1  0
 22 23  1  0
 22 24  1  0
 22 25  1  0
 25 26  1  0
 25 27  1  0
 25 28  1  0
 28 29  1  0
 28 30  1  0
 17 31  1  0
 31 32  1  0
 31 33  1  0
 33 34  2  0
 34 35  1  0
 35 36  1  0
 35 37  1  0
 37 38  1  0
 37 39  1  0
 37 40  1  0
 40 41  1  0
 40 42  1  0
 40 43  1  0
 43 44  1  0
 43 45  1  0
 43 46  1  0
 46 47  1  0
 46 48  1  0
 46 49  1  0
 49 50  1  0
 49 51  1  0
 49 52  1  0
 52 53  1  0
 52 54  1  0
 33 55  1  0
 14 56  1  0
 56 57  1  0
 56 58  1  0
 56 59  1  0
 59 60  1  0
 59 61  1  0
  9  2  1  0
 55 15  2  0
 59  7  1  0
 28 18  1  0
 52 35  1  0
M  END
>  <UniqueID>  (25) 
570

>  <SMILES>  (25) 
c1ccc2c(c1)CCN(c1nc(N3CCCC3)[nH]/c(=N/C3CCCCCC3)n1)C2

>  <Energy>  (25) 
68.13884172037191

>  <Genealogy>  (25) 
c1ccc2c(c1)CCN(c1nc(N3CCCC3)[nH]c(=NC3CCCCCC3)n1)C2 (tautomer)
c1ccc2c(c1)CCN(c1nc(N3CCCC3)[nH]/c(=N/C3CCCCCC3)n1)C2 (cis-trans isomerization)
c1ccc2c(c1)CCN(c1nc(N3CCCC3)[nH]/c(=N/C3CCCCCC3)n1)C2 (3D coordinates assigned)
c1ccc2c(c1)CCN(c1nc(N3CCCC3)[nH]/c(=N/C3CCCCCC3)n1)C2 (nonaromatic ring conformer: 68.13884172037191 kcal/mol)

>  <smiles>  (25) 
c1ccc2c(c1)CCN(c1nc(NC3CCCCCC3)nc(N3CCCC3)n1)C2

>  <score_type>  (25) 
oracle

>  <origin>  (25) 
autodockgpu

>  <m_score__min__energy>  (25) 
-6.29

>  <m_primary>  (25) 
energy

>  <meeko>  (25) 
{"free_energy": -5.28, "intermolecular_energy": -8.26, "internal_energy": -0.95, "cluster_size": 1, "cluster_id": 4, "rank_in_cluster": 1}

>  <energy>  (25) 
-5.8

>  <cluster_rmsd>  (25) 
1.25

>  <rmsd>  (25) 
270.67

>  <cluster>  (25) 
1

$$$$
HZXVWJKCCMCLGL-HKCMIAPXNA-N
     RDKit          3D

 61 65  0  0  0  0  0  0  0  0999 V2000
  140.4642   68.0523  227.4333 H   0  0  0  0  0  0  0  0  0  0  0  0
  139.9870   68.5730  226.5900 C   0  0  0  0  0  0  0  0  0  0  0  0
  138.7100   68.1930  226.1680 C   0  0  0  0  0  0  0  0  0  0  0  0
  138.1803   67.3793  226.6851 H   0  0  0  0  0  0  0  0  0  0  0  0
  138.1060   68.8440  225.0920 C   0  0  0  0  0  0  0  0  0  0  0  0
  137.0997   68.5441  224.7644 H   0  0  0  0  0  0  0  0  0  0  0  0
  138.7790   69.8810  224.4260 C   0  0  0  0  0  0  0  0  0  0  0  0
  140.0600   70.2790  224.8600 C   0  0  0  0  0  0  0  0  0  0  0  0
  140.6590   69.6140  225.9420 C   0  0  0  0  0  0  0  0  0  0  0  0
  141.6616   69.9134  226.2814 H   0  0  0  0  0  0  0  0  0  0  0  0
  140.7690   71.4560  224.2330 C   0  0  0  0  0  0  0  0  0  0  0  0
  141.8210   71.1802  224.0678 H   0  0  0  0  0  0  0  0  0  0  0  0
  140.6618   72.3032  224.9264 H   0  0  0  0  0  0  0  0  0  0  0  0
  140.1890   71.8780  222.9420 N   0  0  0  0  0  0  0  0  0  0  0  0
  140.7640   73.0140  222.2610 C   0  0  0  0  0  0  0  0  0  0  0  0
  141.9200   72.8850  221.5650 N   0  0  0  0  0  0  0  0  0  0  0  0
  142.4520   73.9340  220.8890 C   0  0  0  0  0  0  0  0  0  0  0  0
  143.6710   73.7510  220.1460 N   0  0  0  0  0  0  0  0  0  0  0  0
  144.9720   73.6930  220.7930 C   0  0  0  0  0  0  0  0  0  0  0  0
  145.2741   74.6944  221.1335 H   0  0  0  0  0  0  0  0  0  0  0  0
  144.9526   73.0390  221.6772 H   0  0  0  0  0  0  0  0  0  0  0  0
  145.9440   73.1770  219.7400 C   0  0  0  0  0  0  0  0  0  0  0  0
  146.8376   73.8172  219.7013 H   0  0  0  0  0  0  0  0  0  0  0  0
  146.2783   72.1553  219.9733 H   0  0  0  0  0  0  0  0  0  0  0  0
  145.2010   73.2250  218.4040 C   0  0  0  0  0  0  0  0  0  0  0  0
  145.5375   74.0886  217.8116 H   0  0  0  0  0  0  0  0  0  0  0  0
  145.3927   72.3215  217.8066 H   0  0  0  0  0  0  0  0  0  0  0  0
  143.7200   73.3620  218.7440 C   0  0  0  0  0  0  0  0  0  0  0  0
  143.2522   74.1340  218.1154 H   0  0  0  0  0  0  0  0  0  0  0  0
  143.1741   72.4241  218.5640 H   0  0  0  0  0  0  0  0  0  0  0  0
  141.8170   75.1410  220.9190 N   0  0  0  0  0  0  0  0  0  0  0  0
  142.2150   75.9650  220.4140 H   0  0  0  0  0  0  0  0  0  0  0  0
  140.6700   75.2900  221.6350 C   0  0  0  0  0  0  0  0  0  0  0  0
  140.0870   76.4530  221.6840 N   0  0  0  0  0  0  0  0  0  0  0  0
  140.5280   77.6510  220.9590 C   0  0  0  0  0  0  0  0  0  0  0  0
  141.2050   77.3184  220.1583 H   0  0  0  0  0  0  0  0  0  0  0  0
  141.3250   78.5970  221.8840 C   0  0  0  0  0  0  0  0  0  0  0  0
  142.3024   78.1308  222.0770 H   0  0  0  0  0  0  0  0  0  0  0  0
  141.3748   79.5559  221.3473 H   0  0  0  0  0  0  0  0  0  0  0  0
  140.6840   78.9250  223.2490 C   0  0  0  0  0  0  0  0  0  0  0  0
  141.2124   78.3354  224.0126 H   0  0  0  0  0  0  0  0  0  0  0  0
  140.7801   80.0160  223.3518 H   0  0  0  0  0  0  0  0  0  0  0  0
  139.1760   78.6430  223.4070 C   0  0  0  0  0  0  0  0  0  0  0  0
  139.0175   77.5591  223.3069 H   0  0  0  0  0  0  0  0  0  0  0  0
  138.8883   79.0323  224.3948 H   0  0  0  0  0  0  0  0  0  0  0  0
  138.2800   79.3550  222.3810 C   0  0  0  0  0  0  0  0  0  0  0  0
  137.2975   79.5435  222.8383 H   0  0  0  0  0  0  0  0  0  0  0  0
  138.7735   80.2955  222.0947 H   0  0  0  0  0  0  0  0  0  0  0  0
  138.0820   78.5180  221.1090 C   0  0  0  0  0  0  0  0  0  0  0  0
  137.7490   77.5117  221.4031 H   0  0  0  0  0  0  0  0  0  0  0  0
  137.3372   79.0410  220.4911 H   0  0  0  0  0  0  0  0  0  0  0  0
  139.3520   78.3800  220.2620 C   0  0  0  0  0  0  0  0  0  0  0  0
  139.0953   77.8198  219.3508 H   0  0  0  0  0  0  0  0  0  0  0  0
  139.7006   79.4039  220.0616 H   0  0  0  0  0  0  0  0  0  0  0  0
  140.1450   74.2230  222.2930 N   0  0  0  0  0  0  0  0  0  0  0  0
  139.1490   71.0710  222.2820 C   0  0  0  0  0  0  0  0  0  0  0  0
  139.6154   70.1914  221.8141 H   0  0  0  0  0  0  0  0  0  0  0  0
  138.6513   71.6864  221.5181 H   0  0  0  0  0  0  0  0  0  0  0  0
  138.1100   70.6080  223.2980 C   0  0  0  0  0  0  0  0  0  0  0  0
  137.3942   69.9340  222.8047 H   0  0  0  0  0  0  0  0  0  0  0  0
  137.5827   71.4863  223.6988 H   0  0  0  0  0  0  0  0  0  0  0  0
  1  2  1  0
  2  3  2  0
  3  4  1  0
  3  5  1  0
  5  6  1  0
  5  7  2  0
  7  8  1  0
  8  9  2  0
  9 10  1  0
  8 11  1  0
 11 12  1  0
 11 13  1  0
 11 14  1  0
 14 15  1  0
 15 16  1  0
 16 17  2  0
 17 18  1  0
 18 19  1  0
 19 20  1  0
 19 21  1  0
 19 22  1  0
 22 23  1  0
 22 24  1  0
 22 25  1  0
 25 26  1  0
 25 27  1  0
 25 28  1  0
 28 29  1  0
 28 30  1  0
 17 31  1  0
 31 32  1  0
 31 33  1  0
 33 34  2  0
 34 35  1  0
 35 36  1  0
 35 37  1  0
 37 38  1  0
 37 39  1  0
 37 40  1  0
 40 41  1  0
 40 42  1  0
 40 43  1  0
 43 44  1  0
 43 45  1  0
 43 46  1  0
 46 47  1  0
 46 48  1  0
 46 49  1  0
 49 50  1  0
 49 51  1  0
 49 52  1  0
 52 53  1  0
 52 54  1  0
 33 55  1  0
 14 56  1  0
 56 57  1  0
 56 58  1  0
 56 59  1  0
 59 60  1  0
 59 61  1  0
  9  2  1  0
 55 15  2  0
 59  7  1  0
 28 18  1  0
 52 35  1  0
M  END
>  <UniqueID>  (26) 
570

>  <SMILES>  (26) 
c1ccc2c(c1)CCN(c1nc(N3CCCC3)[nH]/c(=N/C3CCCCCC3)n1)C2

>  <Energy>  (26) 
68.13884172037191

>  <Genealogy>  (26) 
c1ccc2c(c1)CCN(c1nc(N3CCCC3)[nH]c(=NC3CCCCCC3)n1)C2 (tautomer)
c1ccc2c(c1)CCN(c1nc(N3CCCC3)[nH]/c(=N/C3CCCCCC3)n1)C2 (cis-trans isomerization)
c1ccc2c(c1)CCN(c1nc(N3CCCC3)[nH]/c(=N/C3CCCCCC3)n1)C2 (3D coordinates assigned)
c1ccc2c(c1)CCN(c1nc(N3CCCC3)[nH]/c(=N/C3CCCCCC3)n1)C2 (nonaromatic ring conformer: 68.13884172037191 kcal/mol)

>  <smiles>  (26) 
c1ccc2c(c1)CCN(c1nc(NC3CCCCCC3)nc(N3CCCC3)n1)C2

>  <score_type>  (26) 
oracle

>  <origin>  (26) 
autodockgpu

>  <m_score__min__energy>  (26) 
-6.29

>  <m_primary>  (26) 
energy

>  <meeko>  (26) 
{"free_energy": -4.86, "intermolecular_energy": -7.85, "internal_energy": -0.85, "cluster_size": 9, "cluster_id": 1, "rank_in_cluster": 8}

>  <energy>  (26) 
-5.46

>  <cluster_rmsd>  (26) 
1.13

>  <rmsd>  (26) 
270.69

>  <cluster>  (26) 
1

$$$$
HZXVWJKCCMCLGL-HKCMIAPXNA-N
     RDKit          3D

 61 65  0  0  0  0  0  0  0  0999 V2000
  140.6423   68.1590  227.5875 H   0  0  0  0  0  0  0  0  0  0  0  0
  140.1550   68.6070  226.7090 C   0  0  0  0  0  0  0  0  0  0  0  0
  138.9350   68.0980  226.2530 C   0  0  0  0  0  0  0  0  0  0  0  0
  138.4588   67.2576  226.7793 H   0  0  0  0  0  0  0  0  0  0  0  0
  138.3210   68.6560  225.1300 C   0  0  0  0  0  0  0  0  0  0  0  0
  137.3605   68.2551  224.7741 H   0  0  0  0  0  0  0  0  0  0  0  0
  138.9260   69.7270  224.4540 C   0  0  0  0  0  0  0  0  0  0  0  0
  140.1470   70.2550  224.9220 C   0  0  0  0  0  0  0  0  0  0  0  0
  140.7570   69.6840  226.0510 C   0  0  0  0  0  0  0  0  0  0  0  0
  141.7125   70.0858  226.4192 H   0  0  0  0  0  0  0  0  0  0  0  0
  140.7720   71.4710  224.2800 C   0  0  0  0  0  0  0  0  0  0  0  0
  141.8508   71.2882  224.1665 H   0  0  0  0  0  0  0  0  0  0  0  0
  140.5588   72.3273  224.9368 H   0  0  0  0  0  0  0  0  0  0  0  0
  140.2120   71.7940  222.9540 N   0  0  0  0  0  0  0  0  0  0  0  0
  140.7110   72.9550  222.2540 C   0  0  0  0  0  0  0  0  0  0  0  0
  141.8600   72.8850  221.5380 N   0  0  0  0  0  0  0  0  0  0  0  0
  142.3210   73.9560  220.8450 C   0  0  0  0  0  0  0  0  0  0  0  0
  143.5350   73.8350  220.0810 N   0  0  0  0  0  0  0  0  0  0  0  0
  144.8480   73.8300  220.7060 C   0  0  0  0  0  0  0  0  0  0  0  0
  145.1105   74.8409  221.0512 H   0  0  0  0  0  0  0  0  0  0  0  0
  144.8728   73.1679  221.5841 H   0  0  0  0  0  0  0  0  0  0  0  0
  145.8240   73.3680  219.6330 C   0  0  0  0  0  0  0  0  0  0  0  0
  146.6874   74.0480  219.5860 H   0  0  0  0  0  0  0  0  0  0  0  0
  146.2078   72.3603  219.8506 H   0  0  0  0  0  0  0  0  0  0  0  0
  145.0570   73.3950  218.3100 C   0  0  0  0  0  0  0  0  0  0  0  0
  145.3447   74.2783  217.7210 H   0  0  0  0  0  0  0  0  0  0  0  0
  145.2790   72.5062  217.7010 H   0  0  0  0  0  0  0  0  0  0  0  0
  143.5780   73.4620  218.6740 C   0  0  0  0  0  0  0  0  0  0  0  0
  143.0660   74.2183  218.0609 H   0  0  0  0  0  0  0  0  0  0  0  0
  143.0714   72.5026  218.4926 H   0  0  0  0  0  0  0  0  0  0  0  0
  141.6210   75.1260  220.8780 N   0  0  0  0  0  0  0  0  0  0  0  0
  141.9630   75.9670  220.3610 H   0  0  0  0  0  0  0  0  0  0  0  0
  140.4800   75.2180  221.6150 C   0  0  0  0  0  0  0  0  0  0  0  0
  139.8350   76.3470  221.6660 N   0  0  0  0  0  0  0  0  0  0  0  0
  140.1720   77.4760  222.5420 C   0  0  0  0  0  0  0  0  0  0  0  0
  140.4045   77.0630  223.5347 H   0  0  0  0  0  0  0  0  0  0  0  0
  138.9690   78.4310  222.7030 C   0  0  0  0  0  0  0  0  0  0  0  0
  138.5939   78.6687  221.6966 H   0  0  0  0  0  0  0  0  0  0  0  0
  138.2532   77.8928  223.3417 H   0  0  0  0  0  0  0  0  0  0  0  0
  139.2420   79.7650  223.4290 C   0  0  0  0  0  0  0  0  0  0  0  0
  138.2688   80.1989  223.7021 H   0  0  0  0  0  0  0  0  0  0  0  0
  139.8877   79.4996  224.2791 H   0  0  0  0  0  0  0  0  0  0  0  0
  140.0260   80.8370  222.6530 C   0  0  0  0  0  0  0  0  0  0  0  0
  139.7338   80.7764  221.5942 H   0  0  0  0  0  0  0  0  0  0  0  0
  139.7746   81.8027  223.1158 H   0  0  0  0  0  0  0  0  0  0  0  0
  141.5550   80.6990  222.7370 C   0  0  0  0  0  0  0  0  0  0  0  0
  141.9912   80.9928  221.7709 H   0  0  0  0  0  0  0  0  0  0  0  0
  141.9097   81.3500  223.5496 H   0  0  0  0  0  0  0  0  0  0  0  0
  141.9880   79.2630  223.0590 C   0  0  0  0  0  0  0  0  0  0  0  0
  143.0870   79.2189  223.0413 H   0  0  0  0  0  0  0  0  0  0  0  0
  141.5753   79.0157  224.0482 H   0  0  0  0  0  0  0  0  0  0  0  0
  141.4450   78.2220  222.0720 C   0  0  0  0  0  0  0  0  0  0  0  0
  141.2103   78.7363  221.1284 H   0  0  0  0  0  0  0  0  0  0  0  0
  142.2291   77.4574  221.9694 H   0  0  0  0  0  0  0  0  0  0  0  0
  140.0270   74.1280  222.2890 N   0  0  0  0  0  0  0  0  0  0  0  0
  139.2780   70.8740  222.2840 C   0  0  0  0  0  0  0  0  0  0  0  0
  139.8411   70.0258  221.8676 H   0  0  0  0  0  0  0  0  0  0  0  0
  138.7598   71.4158  221.4791 H   0  0  0  0  0  0  0  0  0  0  0  0
  138.2430   70.3520  223.2740 C   0  0  0  0  0  0  0  0  0  0  0  0
  137.6127   69.5992  222.7780 H   0  0  0  0  0  0  0  0  0  0  0  0
  137.6221   71.1911  223.6209 H   0  0  0  0  0  0  0  0  0  0  0  0
  1  2  1  0
  2  3  2  0
  3  4  1  0
  3  5  1  0
  5  6  1  0
  5  7  2  0
  7  8  1  0
  8  9  2  0
  9 10  1  0
  8 11  1  0
 11 12  1  0
 11 13  1  0
 11 14  1  0
 14 15  1  0
 15 16  1  0
 16 17  2  0
 17 18  1  0
 18 19  1  0
 19 20  1  0
 19 21  1  0
 19 22  1  0
 22 23  1  0
 22 24  1  0
 22 25  1  0
 25 26  1  0
 25 27  1  0
 25 28  1  0
 28 29  1  0
 28 30  1  0
 17 31  1  0
 31 32  1  0
 31 33  1  0
 33 34  2  0
 34 35  1  0
 35 36  1  0
 35 37  1  0
 37 38  1  0
 37 39  1  0
 37 40  1  0
 40 41  1  0
 40 42  1  0
 40 43  1  0
 43 44  1  0
 43 45  1  0
 43 46  1  0
 46 47  1  0
 46 48  1  0
 46 49  1  0
 49 50  1  0
 49 51  1  0
 49 52  1  0
 52 53  1  0
 52 54  1  0
 33 55  1  0
 14 56  1  0
 56 57  1  0
 56 58  1  0
 56 59  1  0
 59 60  1  0
 59 61  1  0
  9  2  1  0
 55 15  2  0
 59  7  1  0
 28 18  1  0
 52 35  1  0
M  END
>  <UniqueID>  (27) 
570

>  <SMILES>  (27) 
c1ccc2c(c1)CCN(c1nc(N3CCCC3)[nH]/c(=N/C3CCCCCC3)n1)C2

>  <Energy>  (27) 
68.13884172037191

>  <Genealogy>  (27) 
c1ccc2c(c1)CCN(c1nc(N3CCCC3)[nH]c(=NC3CCCCCC3)n1)C2 (tautomer)
c1ccc2c(c1)CCN(c1nc(N3CCCC3)[nH]/c(=N/C3CCCCCC3)n1)C2 (cis-trans isomerization)
c1ccc2c(c1)CCN(c1nc(N3CCCC3)[nH]/c(=N/C3CCCCCC3)n1)C2 (3D coordinates assigned)
c1ccc2c(c1)CCN(c1nc(N3CCCC3)[nH]/c(=N/C3CCCCCC3)n1)C2 (nonaromatic ring conformer: 68.13884172037191 kcal/mol)

>  <smiles>  (27) 
c1ccc2c(c1)CCN(c1nc(NC3CCCCCC3)nc(N3CCCC3)n1)C2

>  <score_type>  (27) 
oracle

>  <origin>  (27) 
autodockgpu

>  <m_score__min__energy>  (27) 
-6.29

>  <m_primary>  (27) 
energy

>  <meeko>  (27) 
{"free_energy": -6.28, "intermolecular_energy": -9.26, "internal_energy": -0.82, "cluster_size": 9, "cluster_id": 1, "rank_in_cluster": 2}

>  <energy>  (27) 
-5.17

>  <cluster_rmsd>  (27) 
1.75

>  <rmsd>  (27) 
270.41

>  <cluster>  (27) 
1

$$$$
HZXVWJKCCMCLGL-HKCMIAPXNA-N
     RDKit          3D

 61 65  0  0  0  0  0  0  0  0999 V2000
  139.0148   67.9911  226.2321 H   0  0  0  0  0  0  0  0  0  0  0  0
  138.6930   68.7770  225.5330 C   0  0  0  0  0  0  0  0  0  0  0  0
  137.3450   68.8850  225.1780 C   0  0  0  0  0  0  0  0  0  0  0  0
  136.6066   68.1904  225.6049 H   0  0  0  0  0  0  0  0  0  0  0  0
  136.9360   69.8740  224.2820 C   0  0  0  0  0  0  0  0  0  0  0  0
  135.8745   69.9592  224.0064 H   0  0  0  0  0  0  0  0  0  0  0  0
  137.8760   70.7610  223.7310 C   0  0  0  0  0  0  0  0  0  0  0  0
  139.2330   70.6660  224.1020 C   0  0  0  0  0  0  0  0  0  0  0  0
  139.6330   69.6650  225.0020 C   0  0  0  0  0  0  0  0  0  0  0  0
  140.6910   69.5793  225.2905 H   0  0  0  0  0  0  0  0  0  0  0  0
  140.2510   71.6660  223.6090 C   0  0  0  0  0  0  0  0  0  0  0  0
  141.1556   71.1193  223.3044 H   0  0  0  0  0  0  0  0  0  0  0  0
  140.4419   72.3651  224.4365 H   0  0  0  0  0  0  0  0  0  0  0  0
  139.7850   72.4710  222.4630 N   0  0  0  0  0  0  0  0  0  0  0  0
  140.6620   73.4830  221.9230 C   0  0  0  0  0  0  0  0  0  0  0  0
  141.8290   73.1350  221.3270 N   0  0  0  0  0  0  0  0  0  0  0  0
  142.6450   74.0720  220.7820 C   0  0  0  0  0  0  0  0  0  0  0  0
  143.8660   73.6600  220.1420 N   0  0  0  0  0  0  0  0  0  0  0  0
  143.9310   73.3520  218.7210 C   0  0  0  0  0  0  0  0  0  0  0  0
  143.4420   72.3882  218.5162 H   0  0  0  0  0  0  0  0  0  0  0  0
  143.4143   74.1145  218.1197 H   0  0  0  0  0  0  0  0  0  0  0  0
  145.4120   73.2780  218.3740 C   0  0  0  0  0  0  0  0  0  0  0  0
  145.6244   72.3586  217.8086 H   0  0  0  0  0  0  0  0  0  0  0  0
  145.7172   74.1298  217.7485 H   0  0  0  0  0  0  0  0  0  0  0  0
  146.1690   73.2680  219.7030 C   0  0  0  0  0  0  0  0  0  0  0  0
  146.5150   72.2504  219.9369 H   0  0  0  0  0  0  0  0  0  0  0  0
  147.0568   73.9162  219.6629 H   0  0  0  0  0  0  0  0  0  0  0  0
  145.1800   73.7460  220.7610 C   0  0  0  0  0  0  0  0  0  0  0  0
  145.2278   73.0999  221.6500 H   0  0  0  0  0  0  0  0  0  0  0  0
  145.4053   74.7703  221.0928 H   0  0  0  0  0  0  0  0  0  0  0  0
  142.2880   75.3870  220.8430 N   0  0  0  0  0  0  0  0  0  0  0  0
  142.9060   76.1260  220.4400 H   0  0  0  0  0  0  0  0  0  0  0  0
  141.1320   75.7520  221.4620 C   0  0  0  0  0  0  0  0  0  0  0  0
  140.8150   77.0120  221.5430 N   0  0  0  0  0  0  0  0  0  0  0  0
  140.5730   77.7450  222.7910 C   0  0  0  0  0  0  0  0  0  0  0  0
  140.3837   76.9993  223.5772 H   0  0  0  0  0  0  0  0  0  0  0  0
  139.3150   78.6350  222.6770 C   0  0  0  0  0  0  0  0  0  0  0  0
  139.0991   78.7731  221.6073 H   0  0  0  0  0  0  0  0  0  0  0  0
  138.5308   78.1039  223.2363 H   0  0  0  0  0  0  0  0  0  0  0  0
  139.4010   80.0330  223.3220 C   0  0  0  0  0  0  0  0  0  0  0  0
  138.3720   80.3941  223.4659 H   0  0  0  0  0  0  0  0  0  0  0  0
  139.9780   79.8820  224.2463 H   0  0  0  0  0  0  0  0  0  0  0  0
  140.1730   81.1270  222.5470 C   0  0  0  0  0  0  0  0  0  0  0  0
  139.9122   81.0392  221.4820 H   0  0  0  0  0  0  0  0  0  0  0  0
  139.8745   82.0877  222.9918 H   0  0  0  0  0  0  0  0  0  0  0  0
  141.7040   81.0530  222.6710 C   0  0  0  0  0  0  0  0  0  0  0  0
  142.1508   81.8062  222.0054 H   0  0  0  0  0  0  0  0  0  0  0  0
  141.9688   81.2425  223.7217 H   0  0  0  0  0  0  0  0  0  0  0  0
  142.2470   79.6690  222.2880 C   0  0  0  0  0  0  0  0  0  0  0  0
  141.8858   79.4208  221.2791 H   0  0  0  0  0  0  0  0  0  0  0  0
  143.3443   79.7282  222.3368 H   0  0  0  0  0  0  0  0  0  0  0  0
  141.8140   78.5530  223.2460 C   0  0  0  0  0  0  0  0  0  0  0  0
  142.6552   77.8529  223.3569 H   0  0  0  0  0  0  0  0  0  0  0  0
  141.5309   79.0478  224.1868 H   0  0  0  0  0  0  0  0  0  0  0  0
  140.3210   74.7970  221.9880 N   0  0  0  0  0  0  0  0  0  0  0  0
  138.5190   72.1520  221.7820 C   0  0  0  0  0  0  0  0  0  0  0  0
  138.6659   71.2731  221.1370 H   0  0  0  0  0  0  0  0  0  0  0  0
  138.2114   73.0178  221.1773 H   0  0  0  0  0  0  0  0  0  0  0  0
  137.4270   71.8490  222.8030 C   0  0  0  0  0  0  0  0  0  0  0  0
  136.5168   71.5256  222.2768 H   0  0  0  0  0  0  0  0  0  0  0  0
  137.2191   72.7573  223.3876 H   0  0  0  0  0  0  0  0  0  0  0  0
  1  2  1  0
  2  3  2  0
  3  4  1  0
  3  5  1  0
  5  6  1  0
  5  7  2  0
  7  8  1  0
  8  9  2  0
  9 10  1  0
  8 11  1  0
 11 12  1  0
 11 13  1  0
 11 14  1  0
 14 15  1  0
 15 16  1  0
 16 17  2  0
 17 18  1  0
 18 19  1  0
 19 20  1  0
 19 21  1  0
 19 22  1  0
 22 23  1  0
 22 24  1  0
 22 25  1  0
 25 26  1  0
 25 27  1  0
 25 28  1  0
 28 29  1  0
 28 30  1  0
 17 31  1  0
 31 32  1  0
 31 33  1  0
 33 34  2  0
 34 35  1  0
 35 36  1  0
 35 37  1  0
 37 38  1  0
 37 39  1  0
 37 40  1  0
 40 41  1  0
 40 42  1  0
 40 43  1  0
 43 44  1  0
 43 45  1  0
 43 46  1  0
 46 47  1  0
 46 48  1  0
 46 49  1  0
 49 50  1  0
 49 51  1  0
 49 52  1  0
 52 53  1  0
 52 54  1  0
 33 55  1  0
 14 56  1  0
 56 57  1  0
 56 58  1  0
 56 59  1  0
 59 60  1  0
 59 61  1  0
  9  2  1  0
 55 15  2  0
 59  7  1  0
 28 18  1  0
 52 35  1  0
M  END
>  <UniqueID>  (28) 
570

>  <SMILES>  (28) 
c1ccc2c(c1)CCN(c1nc(N3CCCC3)[nH]/c(=N/C3CCCCCC3)n1)C2

>  <Energy>  (28) 
68.13884172037191

>  <Genealogy>  (28) 
c1ccc2c(c1)CCN(c1nc(N3CCCC3)[nH]c(=NC3CCCCCC3)n1)C2 (tautomer)
c1ccc2c(c1)CCN(c1nc(N3CCCC3)[nH]/c(=N/C3CCCCCC3)n1)C2 (cis-trans isomerization)
c1ccc2c(c1)CCN(c1nc(N3CCCC3)[nH]/c(=N/C3CCCCCC3)n1)C2 (3D coordinates assigned)
c1ccc2c(c1)CCN(c1nc(N3CCCC3)[nH]/c(=N/C3CCCCCC3)n1)C2 (nonaromatic ring conformer: 68.13884172037191 kcal/mol)

>  <smiles>  (28) 
c1ccc2c(c1)CCN(c1nc(NC3CCCCCC3)nc(N3CCCC3)n1)C2

>  <score_type>  (28) 
oracle

>  <origin>  (28) 
autodockgpu

>  <m_score__min__energy>  (28) 
-6.29

>  <m_primary>  (28) 
energy

>  <meeko>  (28) 
{"free_energy": -4.81, "intermolecular_energy": -7.79, "internal_energy": -0.83, "cluster_size": 9, "cluster_id": 1, "rank_in_cluster": 9}

>  <energy>  (28) 
-4.86

>  <cluster_rmsd>  (28) 
0.91

>  <rmsd>  (28) 
270.61

>  <cluster>  (28) 
1

$$$$
HZXVWJKCCMCLGL-HKCMIAPXNA-N
     RDKit          3D

 61 65  0  0  0  0  0  0  0  0999 V2000
  140.9423   68.2898  227.8178 H   0  0  0  0  0  0  0  0  0  0  0  0
  140.4050   68.6870  226.9440 C   0  0  0  0  0  0  0  0  0  0  0  0
  139.1940   68.1110  226.5480 C   0  0  0  0  0  0  0  0  0  0  0  0
  138.7746   67.2679  227.1165 H   0  0  0  0  0  0  0  0  0  0  0  0
  138.5170   68.6050  225.4320 C   0  0  0  0  0  0  0  0  0  0  0  0
  137.5634   68.1513  225.1242 H   0  0  0  0  0  0  0  0  0  0  0  0
  139.0490   69.6790  224.7010 C   0  0  0  0  0  0  0  0  0  0  0  0
  140.2600   70.2740  225.1080 C   0  0  0  0  0  0  0  0  0  0  0  0
  140.9340   69.7670  226.2310 C   0  0  0  0  0  0  0  0  0  0  0  0
  141.8829   70.2219  226.5512 H   0  0  0  0  0  0  0  0  0  0  0  0
  140.8080   71.4950  224.4070 C   0  0  0  0  0  0  0  0  0  0  0  0
  141.8891   71.3553  224.2599 H   0  0  0  0  0  0  0  0  0  0  0  0
  140.5805   72.3618  225.0448 H   0  0  0  0  0  0  0  0  0  0  0  0
  140.1880   71.7510  223.0930 N   0  0  0  0  0  0  0  0  0  0  0  0
  140.6100   72.9090  222.3400 C   0  0  0  0  0  0  0  0  0  0  0  0
  141.7410   72.8690  221.5930 N   0  0  0  0  0  0  0  0  0  0  0  0
  142.1290   73.9370  220.8520 C   0  0  0  0  0  0  0  0  0  0  0  0
  143.3260   73.8480  220.0570 N   0  0  0  0  0  0  0  0  0  0  0  0
  144.6380   73.6480  220.6520 C   0  0  0  0  0  0  0  0  0  0  0  0
  144.9779   74.5701  221.1462 H   0  0  0  0  0  0  0  0  0  0  0  0
  144.6171   72.8566  221.4157 H   0  0  0  0  0  0  0  0  0  0  0  0
  145.5710   73.2890  219.5030 C   0  0  0  0  0  0  0  0  0  0  0  0
  146.4829   73.9025  219.5479 H   0  0  0  0  0  0  0  0  0  0  0  0
  145.8785   72.2341  219.5545 H   0  0  0  0  0  0  0  0  0  0  0  0
  144.8020   73.5790  218.2140 C   0  0  0  0  0  0  0  0  0  0  0  0
  145.1523   74.5200  217.7648 H   0  0  0  0  0  0  0  0  0  0  0  0
  144.9532   72.7829  217.4701 H   0  0  0  0  0  0  0  0  0  0  0  0
  143.3330   73.6970  218.6100 C   0  0  0  0  0  0  0  0  0  0  0  0
  142.8759   74.5752  218.1306 H   0  0  0  0  0  0  0  0  0  0  0  0
  142.7547   72.8174  218.2909 H   0  0  0  0  0  0  0  0  0  0  0  0
  141.3730   75.0720  220.8660 N   0  0  0  0  0  0  0  0  0  0  0  0
  141.6590   75.9100  220.3110 H   0  0  0  0  0  0  0  0  0  0  0  0
  140.2500   75.1340  221.6310 C   0  0  0  0  0  0  0  0  0  0  0  0
  139.5510   76.2310  221.6630 N   0  0  0  0  0  0  0  0  0  0  0  0
  139.6730   77.2840  222.6790 C   0  0  0  0  0  0  0  0  0  0  0  0
  139.2394   76.8926  223.6111 H   0  0  0  0  0  0  0  0  0  0  0  0
  138.8650   78.5380  222.2780 C   0  0  0  0  0  0  0  0  0  0  0  0
  138.9785   78.6758  221.1926 H   0  0  0  0  0  0  0  0  0  0  0  0
  137.8348   78.3384  222.6078 H   0  0  0  0  0  0  0  0  0  0  0  0
  139.2640   79.8620  222.9630 C   0  0  0  0  0  0  0  0  0  0  0  0
  138.3710   80.5037  222.9914 H   0  0  0  0  0  0  0  0  0  0  0  0
  139.6541   79.5687  223.9488 H   0  0  0  0  0  0  0  0  0  0  0  0
  140.4000   80.6730  222.3060 C   0  0  0  0  0  0  0  0  0  0  0  0
  140.1760   80.7706  221.2335 H   0  0  0  0  0  0  0  0  0  0  0  0
  140.4355   81.6400  222.8291 H   0  0  0  0  0  0  0  0  0  0  0  0
  141.7970   80.0490  222.4490 C   0  0  0  0  0  0  0  0  0  0  0  0
  142.5057   80.6205  221.8316 H   0  0  0  0  0  0  0  0  0  0  0  0
  142.0763   80.0836  223.5124 H   0  0  0  0  0  0  0  0  0  0  0  0
  141.8220   78.5810  222.0010 C   0  0  0  0  0  0  0  0  0  0  0  0
  141.2998   78.5031  221.0360 H   0  0  0  0  0  0  0  0  0  0  0  0
  142.8786   78.2835  221.9304 H   0  0  0  0  0  0  0  0  0  0  0  0
  141.1510   77.6240  222.9940 C   0  0  0  0  0  0  0  0  0  0  0  0
  141.7230   76.6845  223.0020 H   0  0  0  0  0  0  0  0  0  0  0  0
  141.1472   78.1414  223.9647 H   0  0  0  0  0  0  0  0  0  0  0  0
  139.8690   74.0480  222.3550 N   0  0  0  0  0  0  0  0  0  0  0  0
  139.2730   70.7700  222.4860 C   0  0  0  0  0  0  0  0  0  0  0  0
  139.8585   69.9342  222.0755 H   0  0  0  0  0  0  0  0  0  0  0  0
  138.7031   71.2627  221.6844 H   0  0  0  0  0  0  0  0  0  0  0  0
  138.2970   70.2350  223.5290 C   0  0  0  0  0  0  0  0  0  0  0  0
  137.6840   69.4398  223.0796 H   0  0  0  0  0  0  0  0  0  0  0  0
  137.6511   71.0565  223.8725 H   0  0  0  0  0  0  0  0  0  0  0  0
  1  2  1  0
  2  3  2  0
  3  4  1  0
  3  5  1  0
  5  6  1  0
  5  7  2  0
  7  8  1  0
  8  9  2  0
  9 10  1  0
  8 11  1  0
 11 12  1  0
 11 13  1  0
 11 14  1  0
 14 15  1  0
 15 16  1  0
 16 17  2  0
 17 18  1  0
 18 19  1  0
 19 20  1  0
 19 21  1  0
 19 22  1  0
 22 23  1  0
 22 24  1  0
 22 25  1  0
 25 26  1  0
 25 27  1  0
 25 28  1  0
 28 29  1  0
 28 30  1  0
 17 31  1  0
 31 32  1  0
 31 33  1  0
 33 34  2  0
 34 35  1  0
 35 36  1  0
 35 37  1  0
 37 38  1  0
 37 39  1  0
 37 40  1  0
 40 41  1  0
 40 42  1  0
 40 43  1  0
 43 44  1  0
 43 45  1  0
 43 46  1  0
 46 47  1  0
 46 48  1  0
 46 49  1  0
 49 50  1  0
 49 51  1  0
 49 52  1  0
 52 53  1  0
 52 54  1  0
 33 55  1  0
 14 56  1  0
 56 57  1  0
 56 58  1  0
 56 59  1  0
 59 60  1  0
 59 61  1  0
  9  2  1  0
 55 15  2  0
 59  7  1  0
 28 18  1  0
 52 35  1  0
M  END
>  <UniqueID>  (29) 
570

>  <SMILES>  (29) 
c1ccc2c(c1)CCN(c1nc(N3CCCC3)[nH]/c(=N/C3CCCCCC3)n1)C2

>  <Energy>  (29) 
68.13884172037191

>  <Genealogy>  (29) 
c1ccc2c(c1)CCN(c1nc(N3CCCC3)[nH]c(=NC3CCCCCC3)n1)C2 (tautomer)
c1ccc2c(c1)CCN(c1nc(N3CCCC3)[nH]/c(=N/C3CCCCCC3)n1)C2 (cis-trans isomerization)
c1ccc2c(c1)CCN(c1nc(N3CCCC3)[nH]/c(=N/C3CCCCCC3)n1)C2 (3D coordinates assigned)
c1ccc2c(c1)CCN(c1nc(N3CCCC3)[nH]/c(=N/C3CCCCCC3)n1)C2 (nonaromatic ring conformer: 68.13884172037191 kcal/mol)

>  <smiles>  (29) 
c1ccc2c(c1)CCN(c1nc(NC3CCCCCC3)nc(N3CCCC3)n1)C2

>  <score_type>  (29) 
oracle

>  <origin>  (29) 
autodockgpu

>  <m_score__min__energy>  (29) 
-6.29

>  <m_primary>  (29) 
energy

>  <meeko>  (29) 
{"free_energy": -6.03, "intermolecular_energy": -9.01, "internal_energy": -0.93, "cluster_size": 9, "cluster_id": 1, "rank_in_cluster": 4}

>  <energy>  (29) 
-4.81

>  <cluster_rmsd>  (29) 
1.1

>  <rmsd>  (29) 
270.73

>  <cluster>  (29) 
1

$$$$
HZXVWJKCCMCLGL-HKCMIAPXNA-N
     RDKit          3D

 61 65  0  0  0  0  0  0  0  0999 V2000
  140.8640   81.4890  224.4192 H   0  0  0  0  0  0  0  0  0  0  0  0
  140.4700   80.7720  223.6840 C   0  0  0  0  0  0  0  0  0  0  0  0
  139.5280   81.1890  222.7380 C   0  0  0  0  0  0  0  0  0  0  0  0
  139.1890   82.2354  222.7239 H   0  0  0  0  0  0  0  0  0  0  0  0
  139.0180   80.2780  221.8120 C   0  0  0  0  0  0  0  0  0  0  0  0
  138.2787   80.6089  221.0677 H   0  0  0  0  0  0  0  0  0  0  0  0
  139.4450   78.9410  221.8270 C   0  0  0  0  0  0  0  0  0  0  0  0
  140.4070   78.5210  222.7680 C   0  0  0  0  0  0  0  0  0  0  0  0
  140.9120   79.4450  223.6970 C   0  0  0  0  0  0  0  0  0  0  0  0
  141.6585   79.1238  224.4383 H   0  0  0  0  0  0  0  0  0  0  0  0
  140.9630   77.1170  222.7470 C   0  0  0  0  0  0  0  0  0  0  0  0
  141.0021   76.7433  223.7808 H   0  0  0  0  0  0  0  0  0  0  0  0
  141.9589   77.1722  222.2831 H   0  0  0  0  0  0  0  0  0  0  0  0
  140.1630   76.1750  221.9410 N   0  0  0  0  0  0  0  0  0  0  0  0
  140.6130   74.8080  221.8210 C   0  0  0  0  0  0  0  0  0  0  0  0
  141.7880   74.5220  221.2080 N   0  0  0  0  0  0  0  0  0  0  0  0
  142.2410   73.2460  221.1210 C   0  0  0  0  0  0  0  0  0  0  0  0
  143.5030   72.9860  220.4800 N   0  0  0  0  0  0  0  0  0  0  0  0
  144.6990   73.7570  220.7810 C   0  0  0  0  0  0  0  0  0  0  0  0
  144.6272   74.7616  220.3386 H   0  0  0  0  0  0  0  0  0  0  0  0
  144.8320   73.8860  221.8653 H   0  0  0  0  0  0  0  0  0  0  0  0
  145.8610   72.9900  220.1650 C   0  0  0  0  0  0  0  0  0  0  0  0
  146.4924   73.6681  219.5720 H   0  0  0  0  0  0  0  0  0  0  0  0
  146.4968   72.5394  220.9413 H   0  0  0  0  0  0  0  0  0  0  0  0
  145.2440   71.9190  219.2640 C   0  0  0  0  0  0  0  0  0  0  0  0
  145.3180   72.2200  218.2086 H   0  0  0  0  0  0  0  0  0  0  0  0
  145.7674   70.9572  219.3693 H   0  0  0  0  0  0  0  0  0  0  0  0
  143.7810   71.8030  219.6790 C   0  0  0  0  0  0  0  0  0  0  0  0
  143.1315   71.7796  218.7916 H   0  0  0  0  0  0  0  0  0  0  0  0
  143.5914   70.8777  220.2427 H   0  0  0  0  0  0  0  0  0  0  0  0
  141.4960   72.2340  221.6510 N   0  0  0  0  0  0  0  0  0  0  0  0
  141.8200   71.2420  221.5860 H   0  0  0  0  0  0  0  0  0  0  0  0
  140.3020   72.5040  222.2450 C   0  0  0  0  0  0  0  0  0  0  0  0
  139.5820   71.5290  222.7210 N   0  0  0  0  0  0  0  0  0  0  0  0
  139.5060   71.1470  224.1360 C   0  0  0  0  0  0  0  0  0  0  0  0
  138.5356   71.4967  224.5182 H   0  0  0  0  0  0  0  0  0  0  0  0
  140.6110   71.8440  224.9590 C   0  0  0  0  0  0  0  0  0  0  0  0
  141.5698   71.6641  224.4508 H   0  0  0  0  0  0  0  0  0  0  0  0
  140.3123   72.9014  225.0104 H   0  0  0  0  0  0  0  0  0  0  0  0
  140.7660   71.3920  226.4260 C   0  0  0  0  0  0  0  0  0  0  0  0
  141.6522   71.8959  226.8393 H   0  0  0  0  0  0  0  0  0  0  0  0
  139.8184   71.6608  226.9157 H   0  0  0  0  0  0  0  0  0  0  0  0
  140.9340   69.8780  226.6640 C   0  0  0  0  0  0  0  0  0  0  0  0
  141.4636   69.4513  225.7994 H   0  0  0  0  0  0  0  0  0  0  0  0
  141.4906   69.7702  227.6066 H   0  0  0  0  0  0  0  0  0  0  0  0
  139.6150   69.1090  226.8460 C   0  0  0  0  0  0  0  0  0  0  0  0
  139.8456   68.0699  227.1237 H   0  0  0  0  0  0  0  0  0  0  0  0
  139.0347   69.6129  227.6330 H   0  0  0  0  0  0  0  0  0  0  0  0
  138.7690   69.1030  225.5650 C   0  0  0  0  0  0  0  0  0  0  0  0
  138.4378   68.0720  225.3717 H   0  0  0  0  0  0  0  0  0  0  0  0
  137.9254   69.7888  225.7322 H   0  0  0  0  0  0  0  0  0  0  0  0
  139.5230   69.6100  224.3290 C   0  0  0  0  0  0  0  0  0  0  0  0
  140.5715   69.2883  224.4133 H   0  0  0  0  0  0  0  0  0  0  0  0
  139.0043   69.1851  223.4570 H   0  0  0  0  0  0  0  0  0  0  0  0
  139.8730   73.7910  222.3360 N   0  0  0  0  0  0  0  0  0  0  0  0
  138.8540   76.5710  221.3950 C   0  0  0  0  0  0  0  0  0  0  0  0
  138.1056   76.5561  222.2011 H   0  0  0  0  0  0  0  0  0  0  0  0
  138.5697   75.8638  220.6018 H   0  0  0  0  0  0  0  0  0  0  0  0
  138.9270   77.9750  220.8030 C   0  0  0  0  0  0  0  0  0  0  0  0
  137.9219   78.2877  220.4837 H   0  0  0  0  0  0  0  0  0  0  0  0
  139.6086   77.9662  219.9397 H   0  0  0  0  0  0  0  0  0  0  0  0
  1  2  1  0
  2  3  2  0
  3  4  1  0
  3  5  1  0
  5  6  1  0
  5  7  2  0
  7  8  1  0
  8  9  2  0
  9 10  1  0
  8 11  1  0
 11 12  1  0
 11 13  1  0
 11 14  1  0
 14 15  1  0
 15 16  1  0
 16 17  2  0
 17 18  1  0
 18 19  1  0
 19 20  1  0
 19 21  1  0
 19 22  1  0
 22 23  1  0
 22 24  1  0
 22 25  1  0
 25 26  1  0
 25 27  1  0
 25 28  1  0
 28 29  1  0
 28 30  1  0
 17 31  1  0
 31 32  1  0
 31 33  1  0
 33 34  2  0
 34 35  1  0
 35 36  1  0
 35 37  1  0
 37 38  1  0
 37 39  1  0
 37 40  1  0
 40 41  1  0
 40 42  1  0
 40 43  1  0
 43 44  1  0
 43 45  1  0
 43 46  1  0
 46 47  1  0
 46 48  1  0
 46 49  1  0
 49 50  1  0
 49 51  1  0
 49 52  1  0
 52 53  1  0
 52 54  1  0
 33 55  1  0
 14 56  1  0
 56 57  1  0
 56 58  1  0
 56 59  1  0
 59 60  1  0
 59 61  1  0
  9  2  1  0
 55 15  2  0
 59  7  1  0
 28 18  1  0
 52 35  1  0
M  END
>  <UniqueID>  (30) 
570

>  <SMILES>  (30) 
c1ccc2c(c1)CCN(c1nc(N3CCCC3)[nH]/c(=N/C3CCCCCC3)n1)C2

>  <Energy>  (30) 
68.13884172037191

>  <Genealogy>  (30) 
c1ccc2c(c1)CCN(c1nc(N3CCCC3)[nH]c(=NC3CCCCCC3)n1)C2 (tautomer)
c1ccc2c(c1)CCN(c1nc(N3CCCC3)[nH]/c(=N/C3CCCCCC3)n1)C2 (cis-trans isomerization)
c1ccc2c(c1)CCN(c1nc(N3CCCC3)[nH]/c(=N/C3CCCCCC3)n1)C2 (3D coordinates assigned)
c1ccc2c(c1)CCN(c1nc(N3CCCC3)[nH]/c(=N/C3CCCCCC3)n1)C2 (nonaromatic ring conformer: 68.13884172037191 kcal/mol)

>  <smiles>  (30) 
c1ccc2c(c1)CCN(c1nc(NC3CCCCCC3)nc(N3CCCC3)n1)C2

>  <score_type>  (30) 
oracle

>  <origin>  (30) 
autodockgpu

>  <m_score__min__energy>  (30) 
-6.29

>  <m_primary>  (30) 
energy

>  <meeko>  (30) 
{"free_energy": -5.57, "intermolecular_energy": -8.55, "internal_energy": -0.9, "cluster_size": 7, "cluster_id": 2, "rank_in_cluster": 5}

>  <energy>  (30) 
-6.18

>  <cluster_rmsd>  (30) 
0.0

>  <rmsd>  (30) 
270.91

>  <cluster>  (30) 
2

$$$$
HZXVWJKCCMCLGL-HKCMIAPXNA-N
     RDKit          3D

 61 65  0  0  0  0  0  0  0  0999 V2000
  135.6245   79.8495  223.0566 H   0  0  0  0  0  0  0  0  0  0  0  0
  136.6830   79.5600  222.9810 C   0  0  0  0  0  0  0  0  0  0  0  0
  137.6820   80.5270  223.1220 C   0  0  0  0  0  0  0  0  0  0  0  0
  137.4090   81.5745  223.3175 H   0  0  0  0  0  0  0  0  0  0  0  0
  139.0260   80.1650  223.0150 C   0  0  0  0  0  0  0  0  0  0  0  0
  139.8104   80.9276  223.1300 H   0  0  0  0  0  0  0  0  0  0  0  0
  139.3790   78.8300  222.7610 C   0  0  0  0  0  0  0  0  0  0  0  0
  138.3740   77.8480  222.6360 C   0  0  0  0  0  0  0  0  0  0  0  0
  137.0260   78.2250  222.7440 C   0  0  0  0  0  0  0  0  0  0  0  0
  136.2357   77.4667  222.6417 H   0  0  0  0  0  0  0  0  0  0  0  0
  138.7210   76.3890  222.4660 C   0  0  0  0  0  0  0  0  0  0  0  0
  138.0698   75.9655  221.6872 H   0  0  0  0  0  0  0  0  0  0  0  0
  138.5734   75.9072  223.4438 H   0  0  0  0  0  0  0  0  0  0  0  0
  140.1260   76.1550  222.0770 N   0  0  0  0  0  0  0  0  0  0  0  0
  140.5840   74.7960  221.9130 C   0  0  0  0  0  0  0  0  0  0  0  0
  141.6680   74.5240  221.1460 N   0  0  0  0  0  0  0  0  0  0  0  0
  142.1330   73.2560  221.0130 C   0  0  0  0  0  0  0  0  0  0  0  0
  143.2980   73.0110  220.2040 N   0  0  0  0  0  0  0  0  0  0  0  0
  143.2040   72.6010  218.8120 C   0  0  0  0  0  0  0  0  0  0  0  0
  142.8782   71.5526  218.7438 H   0  0  0  0  0  0  0  0  0  0  0  0
  142.4692   73.2078  218.2626 H   0  0  0  0  0  0  0  0  0  0  0  0
  144.6030   72.7590  218.2310 C   0  0  0  0  0  0  0  0  0  0  0  0
  144.8951   71.8471  217.6896 H   0  0  0  0  0  0  0  0  0  0  0  0
  144.6460   73.5956  217.5181 H   0  0  0  0  0  0  0  0  0  0  0  0
  145.5400   72.9930  219.4160 C   0  0  0  0  0  0  0  0  0  0  0  0
  146.0999   72.0745  219.6460 H   0  0  0  0  0  0  0  0  0  0  0  0
  146.2754   73.7805  219.1948 H   0  0  0  0  0  0  0  0  0  0  0  0
  144.6520   73.3790  220.5940 C   0  0  0  0  0  0  0  0  0  0  0  0
  144.9535   72.8294  221.4979 H   0  0  0  0  0  0  0  0  0  0  0  0
  144.7301   74.4512  220.8271 H   0  0  0  0  0  0  0  0  0  0  0  0
  141.4920   72.2370  221.6550 N   0  0  0  0  0  0  0  0  0  0  0  0
  141.8260   71.2520  221.5580 H   0  0  0  0  0  0  0  0  0  0  0  0
  140.3870   72.4940  222.4070 C   0  0  0  0  0  0  0  0  0  0  0  0
  139.7640   71.5120  222.9920 N   0  0  0  0  0  0  0  0  0  0  0  0
  140.2780   70.7420  224.1310 C   0  0  0  0  0  0  0  0  0  0  0  0
  141.3331   70.5117  223.9219 H   0  0  0  0  0  0  0  0  0  0  0  0
  139.5260   69.4010  224.2780 C   0  0  0  0  0  0  0  0  0  0  0  0
  138.4482   69.6149  224.2263 H   0  0  0  0  0  0  0  0  0  0  0  0
  139.9053   68.7642  223.4652 H   0  0  0  0  0  0  0  0  0  0  0  0
  139.7840   68.6050  225.5740 C   0  0  0  0  0  0  0  0  0  0  0  0
  139.2300   67.6578  225.4976 H   0  0  0  0  0  0  0  0  0  0  0  0
  140.8774   68.4992  225.6316 H   0  0  0  0  0  0  0  0  0  0  0  0
  139.3760   69.2770  226.9010 C   0  0  0  0  0  0  0  0  0  0  0  0
  138.5168   69.9346  226.7028 H   0  0  0  0  0  0  0  0  0  0  0  0
  139.1432   68.4636  227.6040 H   0  0  0  0  0  0  0  0  0  0  0  0
  140.4820   70.1180  227.5580 C   0  0  0  0  0  0  0  0  0  0  0  0
  140.0336   70.7393  228.3473 H   0  0  0  0  0  0  0  0  0  0  0  0
  141.2321   69.4277  227.9713 H   0  0  0  0  0  0  0  0  0  0  0  0
  141.1880   71.0340  226.5480 C   0  0  0  0  0  0  0  0  0  0  0  0
  141.6062   71.8940  227.0916 H   0  0  0  0  0  0  0  0  0  0  0  0
  141.9658   70.4321  226.0554 H   0  0  0  0  0  0  0  0  0  0  0  0
  140.2620   71.5610  225.4460 C   0  0  0  0  0  0  0  0  0  0  0  0
  139.2333   71.5610  225.8356 H   0  0  0  0  0  0  0  0  0  0  0  0
  140.6310   72.5646  225.1879 H   0  0  0  0  0  0  0  0  0  0  0  0
  139.9470   73.7730  222.5400 N   0  0  0  0  0  0  0  0  0  0  0  0
  141.0050   77.2790  221.7120 C   0  0  0  0  0  0  0  0  0  0  0  0
  140.7545   77.6198  220.6966 H   0  0  0  0  0  0  0  0  0  0  0  0
  142.0509   76.9405  221.7505 H   0  0  0  0  0  0  0  0  0  0  0  0
  140.8240   78.4360  222.6890 C   0  0  0  0  0  0  0  0  0  0  0  0
  141.4189   79.2962  222.3481 H   0  0  0  0  0  0  0  0  0  0  0  0
  141.1605   78.1195  223.6873 H   0  0  0  0  0  0  0  0  0  0  0  0
  1  2  1  0
  2  3  2  0
  3  4  1  0
  3  5  1  0
  5  6  1  0
  5  7  2  0
  7  8  1  0
  8  9  2  0
  9 10  1  0
  8 11  1  0
 11 12  1  0
 11 13  1  0
 11 14  1  0
 14 15  1  0
 15 16  1  0
 16 17  2  0
 17 18  1  0
 18 19  1  0
 19 20  1  0
 19 21  1  0
 19 22  1  0
 22 23  1  0
 22 24  1  0
 22 25  1  0
 25 26  1  0
 25 27  1  0
 25 28  1  0
 28 29  1  0
 28 30  1  0
 17 31  1  0
 31 32  1  0
 31 33  1  0
 33 34  2  0
 34 35  1  0
 35 36  1  0
 35 37  1  0
 37 38  1  0
 37 39  1  0
 37 40  1  0
 40 41  1  0
 40 42  1  0
 40 43  1  0
 43 44  1  0
 43 45  1  0
 43 46  1  0
 46 47  1  0
 46 48  1  0
 46 49  1  0
 49 50  1  0
 49 51  1  0
 49 52  1  0
 52 53  1  0
 52 54  1  0
 33 55  1  0
 14 56  1  0
 56 57  1  0
 56 58  1  0
 56 59  1  0
 59 60  1  0
 59 61  1  0
  9  2  1  0
 55 15  2  0
 59  7  1  0
 28 18  1  0
 52 35  1  0
M  END
>  <UniqueID>  (31) 
570

>  <SMILES>  (31) 
c1ccc2c(c1)CCN(c1nc(N3CCCC3)[nH]/c(=N/C3CCCCCC3)n1)C2

>  <Energy>  (31) 
68.13884172037191

>  <Genealogy>  (31) 
c1ccc2c(c1)CCN(c1nc(N3CCCC3)[nH]c(=NC3CCCCCC3)n1)C2 (tautomer)
c1ccc2c(c1)CCN(c1nc(N3CCCC3)[nH]/c(=N/C3CCCCCC3)n1)C2 (cis-trans isomerization)
c1ccc2c(c1)CCN(c1nc(N3CCCC3)[nH]/c(=N/C3CCCCCC3)n1)C2 (3D coordinates assigned)
c1ccc2c(c1)CCN(c1nc(N3CCCC3)[nH]/c(=N/C3CCCCCC3)n1)C2 (nonaromatic ring conformer: 68.13884172037191 kcal/mol)

>  <smiles>  (31) 
c1ccc2c(c1)CCN(c1nc(NC3CCCCCC3)nc(N3CCCC3)n1)C2

>  <score_type>  (31) 
oracle

>  <origin>  (31) 
autodockgpu

>  <m_score__min__energy>  (31) 
-6.29

>  <m_primary>  (31) 
energy

>  <meeko>  (31) 
{"free_energy": -5.89, "intermolecular_energy": -8.87, "internal_energy": -0.83, "cluster_size": 7, "cluster_id": 2, "rank_in_cluster": 2}

>  <energy>  (31) 
-5.89

>  <cluster_rmsd>  (31) 
0.76

>  <rmsd>  (31) 
270.82

>  <cluster>  (31) 
2

$$$$
HZXVWJKCCMCLGL-HKCMIAPXNA-N
     RDKit          3D

 61 65  0  0  0  0  0  0  0  0999 V2000
  138.7320   68.1294  226.0050 H   0  0  0  0  0  0  0  0  0  0  0  0
  138.4250   68.9460  225.3350 C   0  0  0  0  0  0  0  0  0  0  0  0
  137.0760   69.1110  225.0090 C   0  0  0  0  0  0  0  0  0  0  0  0
  136.3217   68.4299  225.4299 H   0  0  0  0  0  0  0  0  0  0  0  0
  136.6850   70.1390  224.1500 C   0  0  0  0  0  0  0  0  0  0  0  0
  135.6222   70.2681  223.8975 H   0  0  0  0  0  0  0  0  0  0  0  0
  137.6440   71.0090  223.6070 C   0  0  0  0  0  0  0  0  0  0  0  0
  139.0030   70.8570  223.9470 C   0  0  0  0  0  0  0  0  0  0  0  0
  139.3850   69.8170  224.8110 C   0  0  0  0  0  0  0  0  0  0  0  0
  140.4446   69.6874  225.0765 H   0  0  0  0  0  0  0  0  0  0  0  0
  140.0460   71.8360  223.4630 C   0  0  0  0  0  0  0  0  0  0  0  0
  140.9250   71.2680  223.1242 H   0  0  0  0  0  0  0  0  0  0  0  0
  140.2774   72.5030  224.3066 H   0  0  0  0  0  0  0  0  0  0  0  0
  139.5860   72.6900  222.3510 N   0  0  0  0  0  0  0  0  0  0  0  0
  140.4870   73.6870  221.8230 C   0  0  0  0  0  0  0  0  0  0  0  0
  141.6580   73.3190  221.2450 N   0  0  0  0  0  0  0  0  0  0  0  0
  142.4970   74.2430  220.7110 C   0  0  0  0  0  0  0  0  0  0  0  0
  143.7200   73.8100  220.0900 N   0  0  0  0  0  0  0  0  0  0  0  0
  143.8030   73.5020  218.6700 C   0  0  0  0  0  0  0  0  0  0  0  0
  143.3016   72.5465  218.4566 H   0  0  0  0  0  0  0  0  0  0  0  0
  143.3087   74.2737  218.0616 H   0  0  0  0  0  0  0  0  0  0  0  0
  145.2870   73.4040  218.3460 C   0  0  0  0  0  0  0  0  0  0  0  0
  145.4929   72.4822  217.7821 H   0  0  0  0  0  0  0  0  0  0  0  0
  145.6161   74.2517  217.7270 H   0  0  0  0  0  0  0  0  0  0  0  0
  146.0230   73.3790  219.6870 C   0  0  0  0  0  0  0  0  0  0  0  0
  146.3474   72.3551  219.9247 H   0  0  0  0  0  0  0  0  0  0  0  0
  146.9226   74.0115  219.6619 H   0  0  0  0  0  0  0  0  0  0  0  0
  145.0260   73.8730  220.7300 C   0  0  0  0  0  0  0  0  0  0  0  0
  145.0488   73.2254  221.6189 H   0  0  0  0  0  0  0  0  0  0  0  0
  145.2636   74.8929  221.0666 H   0  0  0  0  0  0  0  0  0  0  0  0
  142.1600   75.5630  220.7650 N   0  0  0  0  0  0  0  0  0  0  0  0
  142.7960   76.2920  220.3700 H   0  0  0  0  0  0  0  0  0  0  0  0
  141.0010   75.9480  221.3660 C   0  0  0  0  0  0  0  0  0  0  0  0
  140.7030   77.2130  221.4410 N   0  0  0  0  0  0  0  0  0  0  0  0
  140.3020   77.9170  222.6650 C   0  0  0  0  0  0  0  0  0  0  0  0
  139.7623   77.1957  223.2962 H   0  0  0  0  0  0  0  0  0  0  0  0
  139.3330   79.0760  222.3460 C   0  0  0  0  0  0  0  0  0  0  0  0
  139.2666   79.1644  221.2516 H   0  0  0  0  0  0  0  0  0  0  0  0
  138.3877   78.8095  222.8413 H   0  0  0  0  0  0  0  0  0  0  0  0
  139.7100   80.4630  222.9060 C   0  0  0  0  0  0  0  0  0  0  0  0
  138.8368   81.1202  222.7813 H   0  0  0  0  0  0  0  0  0  0  0  0
  140.0059   80.2799  223.9495 H   0  0  0  0  0  0  0  0  0  0  0  0
  140.9190   81.1690  222.2640 C   0  0  0  0  0  0  0  0  0  0  0  0
  140.9206   80.9371  221.1887 H   0  0  0  0  0  0  0  0  0  0  0  0
  140.8008   82.2424  222.4736 H   0  0  0  0  0  0  0  0  0  0  0  0
  142.2820   80.7590  222.8450 C   0  0  0  0  0  0  0  0  0  0  0  0
  143.0745   81.2968  222.3039 H   0  0  0  0  0  0  0  0  0  0  0  0
  142.2850   81.0147  223.9149 H   0  0  0  0  0  0  0  0  0  0  0  0
  142.5330   79.2500  222.7190 C   0  0  0  0  0  0  0  0  0  0  0  0
  142.4794   78.9760  221.6550 H   0  0  0  0  0  0  0  0  0  0  0  0
  143.5240   79.0500  223.1525 H   0  0  0  0  0  0  0  0  0  0  0  0
  141.5220   78.3940  223.4920 C   0  0  0  0  0  0  0  0  0  0  0  0
  142.0467   77.5044  223.8706 H   0  0  0  0  0  0  0  0  0  0  0  0
  141.1210   79.0364  224.2898 H   0  0  0  0  0  0  0  0  0  0  0  0
  140.1670   75.0060  221.8810 N   0  0  0  0  0  0  0  0  0  0  0  0
  138.2980   72.4340  221.6860 C   0  0  0  0  0  0  0  0  0  0  0  0
  138.4027   71.5696  221.0139 H   0  0  0  0  0  0  0  0  0  0  0  0
  138.0095   73.3268  221.1118 H   0  0  0  0  0  0  0  0  0  0  0  0
  137.2150   72.1390  222.7190 C   0  0  0  0  0  0  0  0  0  0  0  0
  136.2845   71.8622  222.2017 H   0  0  0  0  0  0  0  0  0  0  0  0
  137.0490   73.0365  223.3330 H   0  0  0  0  0  0  0  0  0  0  0  0
  1  2  1  0
  2  3  2  0
  3  4  1  0
  3  5  1  0
  5  6  1  0
  5  7  2  0
  7  8  1  0
  8  9  2  0
  9 10  1  0
  8 11  1  0
 11 12  1  0
 11 13  1  0
 11 14  1  0
 14 15  1  0
 15 16  1  0
 16 17  2  0
 17 18  1  0
 18 19  1  0
 19 20  1  0
 19 21  1  0
 19 22  1  0
 22 23  1  0
 22 24  1  0
 22 25  1  0
 25 26  1  0
 25 27  1  0
 25 28  1  0
 28 29  1  0
 28 30  1  0
 17 31  1  0
 31 32  1  0
 31 33  1  0
 33 34  2  0
 34 35  1  0
 35 36  1  0
 35 37  1  0
 37 38  1  0
 37 39  1  0
 37 40  1  0
 40 41  1  0
 40 42  1  0
 40 43  1  0
 43 44  1  0
 43 45  1  0
 43 46  1  0
 46 47  1  0
 46 48  1  0
 46 49  1  0
 49 50  1  0
 49 51  1  0
 49 52  1  0
 52 53  1  0
 52 54  1  0
 33 55  1  0
 14 56  1  0
 56 57  1  0
 56 58  1  0
 56 59  1  0
 59 60  1  0
 59 61  1  0
  9  2  1  0
 55 15  2  0
 59  7  1  0
 28 18  1  0
 52 35  1  0
M  END
>  <UniqueID>  (32) 
570

>  <SMILES>  (32) 
c1ccc2c(c1)CCN(c1nc(N3CCCC3)[nH]/c(=N/C3CCCCCC3)n1)C2

>  <Energy>  (32) 
68.13884172037191

>  <Genealogy>  (32) 
c1ccc2c(c1)CCN(c1nc(N3CCCC3)[nH]c(=NC3CCCCCC3)n1)C2 (tautomer)
c1ccc2c(c1)CCN(c1nc(N3CCCC3)[nH]/c(=N/C3CCCCCC3)n1)C2 (cis-trans isomerization)
c1ccc2c(c1)CCN(c1nc(N3CCCC3)[nH]/c(=N/C3CCCCCC3)n1)C2 (3D coordinates assigned)
c1ccc2c(c1)CCN(c1nc(N3CCCC3)[nH]/c(=N/C3CCCCCC3)n1)C2 (nonaromatic ring conformer: 68.13884172037191 kcal/mol)

>  <smiles>  (32) 
c1ccc2c(c1)CCN(c1nc(NC3CCCCCC3)nc(N3CCCC3)n1)C2

>  <score_type>  (32) 
oracle

>  <origin>  (32) 
autodockgpu

>  <m_score__min__energy>  (32) 
-6.29

>  <m_primary>  (32) 
energy

>  <meeko>  (32) 
{"free_energy": -5.8, "intermolecular_energy": -8.78, "internal_energy": -0.88, "cluster_size": 9, "cluster_id": 1, "rank_in_cluster": 5}

>  <energy>  (32) 
-5.78

>  <cluster_rmsd>  (32) 
1.16

>  <rmsd>  (32) 
271.02

>  <cluster>  (32) 
2

$$$$
HZXVWJKCCMCLGL-HKCMIAPXNA-N
     RDKit          3D

 61 65  0  0  0  0  0  0  0  0999 V2000
  141.4771   81.4180  223.4292 H   0  0  0  0  0  0  0  0  0  0  0  0
  140.8600   80.6340  222.9660 C   0  0  0  0  0  0  0  0  0  0  0  0
  139.6510   80.9710  222.3510 C   0  0  0  0  0  0  0  0  0  0  0  0
  139.3227   82.0205  222.3225 H   0  0  0  0  0  0  0  0  0  0  0  0
  138.8600   79.9770  221.7730 C   0  0  0  0  0  0  0  0  0  0  0  0
  137.9103   80.2452  221.2871 H   0  0  0  0  0  0  0  0  0  0  0  0
  139.2730   78.6360  221.8100 C   0  0  0  0  0  0  0  0  0  0  0  0
  140.5000   78.2950  222.4130 C   0  0  0  0  0  0  0  0  0  0  0  0
  141.2870   79.3030  222.9940 C   0  0  0  0  0  0  0  0  0  0  0  0
  142.2429   79.0442  223.4728 H   0  0  0  0  0  0  0  0  0  0  0  0
  141.0230   76.8780  222.3810 C   0  0  0  0  0  0  0  0  0  0  0  0
  141.4125   76.6286  223.3790 H   0  0  0  0  0  0  0  0  0  0  0  0
  141.8025   76.8395  221.6058 H   0  0  0  0  0  0  0  0  0  0  0  0
  140.0000   75.8780  222.0160 N   0  0  0  0  0  0  0  0  0  0  0  0
  140.3880   74.4900  221.9220 C   0  0  0  0  0  0  0  0  0  0  0  0
  141.4670   74.1270  221.1860 N   0  0  0  0  0  0  0  0  0  0  0  0
  141.8660   72.8310  221.1190 C   0  0  0  0  0  0  0  0  0  0  0  0
  143.0280   72.4890  220.3430 N   0  0  0  0  0  0  0  0  0  0  0  0
  144.0580   73.4640  220.0170 C   0  0  0  0  0  0  0  0  0  0  0  0
  143.6933   74.1632  219.2501 H   0  0  0  0  0  0  0  0  0  0  0  0
  144.3393   74.0618  220.8965 H   0  0  0  0  0  0  0  0  0  0  0  0
  145.2400   72.6650  219.4850 C   0  0  0  0  0  0  0  0  0  0  0  0
  145.5984   73.1000  218.5404 H   0  0  0  0  0  0  0  0  0  0  0  0
  146.0799   72.6765  220.1952 H   0  0  0  0  0  0  0  0  0  0  0  0
  144.7320   71.2410  219.2520 C   0  0  0  0  0  0  0  0  0  0  0  0
  144.5600   71.0685  218.1793 H   0  0  0  0  0  0  0  0  0  0  0  0
  145.4644   70.4940  219.5920 H   0  0  0  0  0  0  0  0  0  0  0  0
  143.4210   71.1240  220.0230 C   0  0  0  0  0  0  0  0  0  0  0  0
  142.6530   70.6395  219.4021 H   0  0  0  0  0  0  0  0  0  0  0  0
  143.5369   70.5121  220.9297 H   0  0  0  0  0  0  0  0  0  0  0  0
  141.1630   71.8790  221.7960 N   0  0  0  0  0  0  0  0  0  0  0  0
  141.4450   70.8740  221.7500 H   0  0  0  0  0  0  0  0  0  0  0  0
  140.0620   72.2270  222.5170 C   0  0  0  0  0  0  0  0  0  0  0  0
  139.3790   71.3070  223.1350 N   0  0  0  0  0  0  0  0  0  0  0  0
  139.9460   70.2870  224.0250 C   0  0  0  0  0  0  0  0  0  0  0  0
  140.2599   69.4417  223.3950 H   0  0  0  0  0  0  0  0  0  0  0  0
  138.8840   69.7640  225.0170 C   0  0  0  0  0  0  0  0  0  0  0  0
  138.1661   70.5777  225.1975 H   0  0  0  0  0  0  0  0  0  0  0  0
  138.4535   68.8720  224.5384 H   0  0  0  0  0  0  0  0  0  0  0  0
  139.4000   69.2820  226.3880 C   0  0  0  0  0  0  0  0  0  0  0  0
  138.6658   68.5665  226.7869 H   0  0  0  0  0  0  0  0  0  0  0  0
  140.3953   68.8587  226.1878 H   0  0  0  0  0  0  0  0  0  0  0  0
  139.6310   70.3640  227.4660 C   0  0  0  0  0  0  0  0  0  0  0  0
  138.7649   71.0422  227.4625 H   0  0  0  0  0  0  0  0  0  0  0  0
  139.7582   69.8314  228.4200 H   0  0  0  0  0  0  0  0  0  0  0  0
  140.9010   71.2070  227.2650 C   0  0  0  0  0  0  0  0  0  0  0  0
  140.9081   72.0197  228.0062 H   0  0  0  0  0  0  0  0  0  0  0  0
  141.7703   70.5446  227.3901 H   0  0  0  0  0  0  0  0  0  0  0  0
  140.9720   71.8190  225.8590 C   0  0  0  0  0  0  0  0  0  0  0  0
  140.0189   72.3280  225.6525 H   0  0  0  0  0  0  0  0  0  0  0  0
  141.8260   72.5123  225.8511 H   0  0  0  0  0  0  0  0  0  0  0  0
  141.2200   70.7860  224.7530 C   0  0  0  0  0  0  0  0  0  0  0  0
  141.8849   71.2410  224.0040 H   0  0  0  0  0  0  0  0  0  0  0  0
  141.6564   69.9055  225.2471 H   0  0  0  0  0  0  0  0  0  0  0  0
  139.6880   73.5320  222.5840 N   0  0  0  0  0  0  0  0  0  0  0  0
  138.5810   76.2560  221.9010 C   0  0  0  0  0  0  0  0  0  0  0  0
  138.1521   76.3650  222.9081 H   0  0  0  0  0  0  0  0  0  0  0  0
  138.0464   75.4713  221.3456 H   0  0  0  0  0  0  0  0  0  0  0  0
  138.4420   77.5760  221.1500 C   0  0  0  0  0  0  0  0  0  0  0  0
  137.3868   77.8868  221.1532 H   0  0  0  0  0  0  0  0  0  0  0  0
  138.7894   77.4392  220.1153 H   0  0  0  0  0  0  0  0  0  0  0  0
  1  2  1  0
  2  3  2  0
  3  4  1  0
  3  5  1  0
  5  6  1  0
  5  7  2  0
  7  8  1  0
  8  9  2  0
  9 10  1  0
  8 11  1  0
 11 12  1  0
 11 13  1  0
 11 14  1  0
 14 15  1  0
 15 16  1  0
 16 17  2  0
 17 18  1  0
 18 19  1  0
 19 20  1  0
 19 21  1  0
 19 22  1  0
 22 23  1  0
 22 24  1  0
 22 25  1  0
 25 26  1  0
 25 27  1  0
 25 28  1  0
 28 29  1  0
 28 30  1  0
 17 31  1  0
 31 32  1  0
 31 33  1  0
 33 34  2  0
 34 35  1  0
 35 36  1  0
 35 37  1  0
 37 38  1  0
 37 39  1  0
 37 40  1  0
 40 41  1  0
 40 42  1  0
 40 43  1  0
 43 44  1  0
 43 45  1  0
 43 46  1  0
 46 47  1  0
 46 48  1  0
 46 49  1  0
 49 50  1  0
 49 51  1  0
 49 52  1  0
 52 53  1  0
 52 54  1  0
 33 55  1  0
 14 56  1  0
 56 57  1  0
 56 58  1  0
 56 59  1  0
 59 60  1  0
 59 61  1  0
  9  2  1  0
 55 15  2  0
 59  7  1  0
 28 18  1  0
 52 35  1  0
M  END
>  <UniqueID>  (33) 
570

>  <SMILES>  (33) 
c1ccc2c(c1)CCN(c1nc(N3CCCC3)[nH]/c(=N/C3CCCCCC3)n1)C2

>  <Energy>  (33) 
68.13884172037191

>  <Genealogy>  (33) 
c1ccc2c(c1)CCN(c1nc(N3CCCC3)[nH]c(=NC3CCCCCC3)n1)C2 (tautomer)
c1ccc2c(c1)CCN(c1nc(N3CCCC3)[nH]/c(=N/C3CCCCCC3)n1)C2 (cis-trans isomerization)
c1ccc2c(c1)CCN(c1nc(N3CCCC3)[nH]/c(=N/C3CCCCCC3)n1)C2 (3D coordinates assigned)
c1ccc2c(c1)CCN(c1nc(N3CCCC3)[nH]/c(=N/C3CCCCCC3)n1)C2 (nonaromatic ring conformer: 68.13884172037191 kcal/mol)

>  <smiles>  (33) 
c1ccc2c(c1)CCN(c1nc(NC3CCCCCC3)nc(N3CCCC3)n1)C2

>  <score_type>  (33) 
oracle

>  <origin>  (33) 
autodockgpu

>  <m_score__min__energy>  (33) 
-6.29

>  <m_primary>  (33) 
energy

>  <meeko>  (33) 
{"free_energy": -5.29, "intermolecular_energy": -8.27, "internal_energy": -0.97, "cluster_size": 7, "cluster_id": 2, "rank_in_cluster": 6}

>  <energy>  (33) 
-5.67

>  <cluster_rmsd>  (33) 
0.8

>  <rmsd>  (33) 
270.83

>  <cluster>  (33) 
2

$$$$
HZXVWJKCCMCLGL-HKCMIAPXNA-N
     RDKit          3D

 61 65  0  0  0  0  0  0  0  0999 V2000
  140.2068   68.1456  227.1860 H   0  0  0  0  0  0  0  0  0  0  0  0
  139.8050   68.6520  226.2960 C   0  0  0  0  0  0  0  0  0  0  0  0
  138.5970   68.2250  225.7370 C   0  0  0  0  0  0  0  0  0  0  0  0
  138.0452   67.3894  226.1923 H   0  0  0  0  0  0  0  0  0  0  0  0
  138.0910   68.8590  224.6010 C   0  0  0  0  0  0  0  0  0  0  0  0
  137.1386   68.5239  224.1644 H   0  0  0  0  0  0  0  0  0  0  0  0
  138.7940   69.9230  224.0140 C   0  0  0  0  0  0  0  0  0  0  0  0
  140.0030   70.3670  224.5860 C   0  0  0  0  0  0  0  0  0  0  0  0
  140.5040   69.7210  225.7270 C   0  0  0  0  0  0  0  0  0  0  0  0
  141.4505   70.0571  226.1755 H   0  0  0  0  0  0  0  0  0  0  0  0
  140.7310   71.5730  224.0410 C   0  0  0  0  0  0  0  0  0  0  0  0
  141.8045   71.3381  223.9928 H   0  0  0  0  0  0  0  0  0  0  0  0
  140.5149   72.4122  224.7186 H   0  0  0  0  0  0  0  0  0  0  0  0
  140.2820   71.9790  222.6950 N   0  0  0  0  0  0  0  0  0  0  0  0
  140.8850   73.1390  222.0810 C   0  0  0  0  0  0  0  0  0  0  0  0
  141.9300   73.0000  221.2290 N   0  0  0  0  0  0  0  0  0  0  0  0
  142.4830   74.0780  220.6170 C   0  0  0  0  0  0  0  0  0  0  0  0
  143.5790   73.8870  219.7040 N   0  0  0  0  0  0  0  0  0  0  0  0
  144.9480   73.7110  220.1630 C   0  0  0  0  0  0  0  0  0  0  0  0
  145.3548   74.6662  220.5263 H   0  0  0  0  0  0  0  0  0  0  0  0
  145.0042   72.9942  220.9955 H   0  0  0  0  0  0  0  0  0  0  0  0
  145.7380   73.2250  218.9550 C   0  0  0  0  0  0  0  0  0  0  0  0
  146.6571   73.8180  218.8380 H   0  0  0  0  0  0  0  0  0  0  0  0
  146.0356   72.1724  219.0709 H   0  0  0  0  0  0  0  0  0  0  0  0
  144.8290   73.4130  217.7390 C   0  0  0  0  0  0  0  0  0  0  0  0
  145.1376   74.2998  217.1660 H   0  0  0  0  0  0  0  0  0  0  0  0
  144.8831   72.5483  217.0613 H   0  0  0  0  0  0  0  0  0  0  0  0
  143.4180   73.6020  218.2860 C   0  0  0  0  0  0  0  0  0  0  0  0
  142.9202   74.4424  217.7802 H   0  0  0  0  0  0  0  0  0  0  0  0
  142.7958   72.7102  218.1197 H   0  0  0  0  0  0  0  0  0  0  0  0
  141.9830   75.3210  220.8710 N   0  0  0  0  0  0  0  0  0  0  0  0
  142.4000   76.1660  220.4190 H   0  0  0  0  0  0  0  0  0  0  0  0
  140.9510   75.4760  221.7440 C   0  0  0  0  0  0  0  0  0  0  0  0
  140.5010   76.6690  222.0040 N   0  0  0  0  0  0  0  0  0  0  0  0
  141.2360   77.9200  221.7770 C   0  0  0  0  0  0  0  0  0  0  0  0
  142.2823   77.6519  221.5686 H   0  0  0  0  0  0  0  0  0  0  0  0
  141.2230   78.8080  223.0410 C   0  0  0  0  0  0  0  0  0  0  0  0
  140.1848   78.8623  223.4005 H   0  0  0  0  0  0  0  0  0  0  0  0
  141.9244   78.3292  223.7401 H   0  0  0  0  0  0  0  0  0  0  0  0
  141.7370   80.2530  222.8730 C   0  0  0  0  0  0  0  0  0  0  0  0
  141.7104   80.7325  223.8626 H   0  0  0  0  0  0  0  0  0  0  0  0
  142.7413   80.1515  222.4358 H   0  0  0  0  0  0  0  0  0  0  0  0
  140.9610   81.1600  221.8940 C   0  0  0  0  0  0  0  0  0  0  0  0
  139.9099   80.8359  221.8848 H   0  0  0  0  0  0  0  0  0  0  0  0
  141.0894   82.1915  222.2539 H   0  0  0  0  0  0  0  0  0  0  0  0
  141.4850   81.1320  220.4490 C   0  0  0  0  0  0  0  0  0  0  0  0
  140.7517   81.6281  219.7963 H   0  0  0  0  0  0  0  0  0  0  0  0
  142.4536   81.6530  220.4302 H   0  0  0  0  0  0  0  0  0  0  0  0
  141.7090   79.7010  219.9430 C   0  0  0  0  0  0  0  0  0  0  0  0
  141.6016   79.6984  218.8483 H   0  0  0  0  0  0  0  0  0  0  0  0
  142.7164   79.3988  220.2651 H   0  0  0  0  0  0  0  0  0  0  0  0
  140.7250   78.6820  220.5290 C   0  0  0  0  0  0  0  0  0  0  0  0
  139.8059   79.2175  220.8090 H   0  0  0  0  0  0  0  0  0  0  0  0
  140.5682   77.9228  219.7486 H   0  0  0  0  0  0  0  0  0  0  0  0
  140.4020   74.3830  222.3360 N   0  0  0  0  0  0  0  0  0  0  0  0
  139.3520   71.1360  221.9240 C   0  0  0  0  0  0  0  0  0  0  0  0
  139.9000   70.2766  221.5103 H   0  0  0  0  0  0  0  0  0  0  0  0
  138.9185   71.7356  221.1100 H   0  0  0  0  0  0  0  0  0  0  0  0
  138.2260   70.6300  222.8190 C   0  0  0  0  0  0  0  0  0  0  0  0
  137.5947   69.9320  222.2496 H   0  0  0  0  0  0  0  0  0  0  0  0
  137.6252   71.4861  223.1597 H   0  0  0  0  0  0  0  0  0  0  0  0
  1  2  1  0
  2  3  2  0
  3  4  1  0
  3  5  1  0
  5  6  1  0
  5  7  2  0
  7  8  1  0
  8  9  2  0
  9 10  1  0
  8 11  1  0
 11 12  1  0
 11 13  1  0
 11 14  1  0
 14 15  1  0
 15 16  1  0
 16 17  2  0
 17 18  1  0
 18 19  1  0
 19 20  1  0
 19 21  1  0
 19 22  1  0
 22 23  1  0
 22 24  1  0
 22 25  1  0
 25 26  1  0
 25 27  1  0
 25 28  1  0
 28 29  1  0
 28 30  1  0
 17 31  1  0
 31 32  1  0
 31 33  1  0
 33 34  2  0
 34 35  1  0
 35 36  1  0
 35 37  1  0
 37 38  1  0
 37 39  1  0
 37 40  1  0
 40 41  1  0
 40 42  1  0
 40 43  1  0
 43 44  1  0
 43 45  1  0
 43 46  1  0
 46 47  1  0
 46 48  1  0
 46 49  1  0
 49 50  1  0
 49 51  1  0
 49 52  1  0
 52 53  1  0
 52 54  1  0
 33 55  1  0
 14 56  1  0
 56 57  1  0
 56 58  1  0
 56 59  1  0
 59 60  1  0
 59 61  1  0
  9  2  1  0
 55 15  2  0
 59  7  1  0
 28 18  1  0
 52 35  1  0
M  END
>  <UniqueID>  (34) 
570

>  <SMILES>  (34) 
c1ccc2c(c1)CCN(c1nc(N3CCCC3)[nH]/c(=N/C3CCCCCC3)n1)C2

>  <Energy>  (34) 
68.13884172037191

>  <Genealogy>  (34) 
c1ccc2c(c1)CCN(c1nc(N3CCCC3)[nH]c(=NC3CCCCCC3)n1)C2 (tautomer)
c1ccc2c(c1)CCN(c1nc(N3CCCC3)[nH]/c(=N/C3CCCCCC3)n1)C2 (cis-trans isomerization)
c1ccc2c(c1)CCN(c1nc(N3CCCC3)[nH]/c(=N/C3CCCCCC3)n1)C2 (3D coordinates assigned)
c1ccc2c(c1)CCN(c1nc(N3CCCC3)[nH]/c(=N/C3CCCCCC3)n1)C2 (nonaromatic ring conformer: 68.13884172037191 kcal/mol)

>  <smiles>  (34) 
c1ccc2c(c1)CCN(c1nc(NC3CCCCCC3)nc(N3CCCC3)n1)C2

>  <score_type>  (34) 
oracle

>  <origin>  (34) 
autodockgpu

>  <m_score__min__energy>  (34) 
-6.29

>  <m_primary>  (34) 
energy

>  <meeko>  (34) 
{"free_energy": -5.46, "intermolecular_energy": -8.44, "internal_energy": -0.79, "cluster_size": 9, "cluster_id": 1, "rank_in_cluster": 6}

>  <energy>  (34) 
-5.57

>  <cluster_rmsd>  (34) 
0.97

>  <rmsd>  (34) 
271.06

>  <cluster>  (34) 
2

$$$$
HZXVWJKCCMCLGL-HKCMIAPXNA-N
     RDKit          3D

 61 65  0  0  0  0  0  0  0  0999 V2000
  140.4185   81.2735  224.5838 H   0  0  0  0  0  0  0  0  0  0  0  0
  140.6440   80.6870  223.6810 C   0  0  0  0  0  0  0  0  0  0  0  0
  140.8900   81.3390  222.4690 C   0  0  0  0  0  0  0  0  0  0  0  0
  140.8667   82.4377  222.4213 H   0  0  0  0  0  0  0  0  0  0  0  0
  141.1650   80.5970  221.3200 C   0  0  0  0  0  0  0  0  0  0  0  0
  141.3613   81.1127  220.3684 H   0  0  0  0  0  0  0  0  0  0  0  0
  141.1920   79.1950  221.3740 C   0  0  0  0  0  0  0  0  0  0  0  0
  140.9620   78.5340  222.5980 C   0  0  0  0  0  0  0  0  0  0  0  0
  140.6840   79.2910  223.7480 C   0  0  0  0  0  0  0  0  0  0  0  0
  140.4969   78.7833  224.7057 H   0  0  0  0  0  0  0  0  0  0  0  0
  141.0840   77.0330  222.7140 C   0  0  0  0  0  0  0  0  0  0  0  0
  140.2350   76.6600  223.3057 H   0  0  0  0  0  0  0  0  0  0  0  0
  142.0522   76.8247  223.1928 H   0  0  0  0  0  0  0  0  0  0  0  0
  141.0870   76.3370  221.4130 N   0  0  0  0  0  0  0  0  0  0  0  0
  141.2290   74.9000  221.3950 C   0  0  0  0  0  0  0  0  0  0  0  0
  142.2110   74.3160  220.6640 N   0  0  0  0  0  0  0  0  0  0  0  0
  142.3800   72.9700  220.6670 C   0  0  0  0  0  0  0  0  0  0  0  0
  143.4460   72.3900  219.8940 N   0  0  0  0  0  0  0  0  0  0  0  0
  144.8460   72.5800  220.2390 C   0  0  0  0  0  0  0  0  0  0  0  0
  145.1635   73.6048  219.9963 H   0  0  0  0  0  0  0  0  0  0  0  0
  145.0191   72.4304  221.3149 H   0  0  0  0  0  0  0  0  0  0  0  0
  145.6260   71.5730  219.4040 C   0  0  0  0  0  0  0  0  0  0  0  0
  146.4687   72.0689  218.9000 H   0  0  0  0  0  0  0  0  0  0  0  0
  146.0408   70.7713  220.0327 H   0  0  0  0  0  0  0  0  0  0  0  0
  144.6470   71.0150  218.3710 C   0  0  0  0  0  0  0  0  0  0  0  0
  144.8306   71.4709  217.3869 H   0  0  0  0  0  0  0  0  0  0  0  0
  144.7630   69.9271  218.2566 H   0  0  0  0  0  0  0  0  0  0  0  0
  143.2500   71.3750  218.8680 C   0  0  0  0  0  0  0  0  0  0  0  0
  142.6411   71.7752  218.0440 H   0  0  0  0  0  0  0  0  0  0  0  0
  142.7205   70.4955  219.2630 H   0  0  0  0  0  0  0  0  0  0  0  0
  141.5410   72.1910  221.4090 N   0  0  0  0  0  0  0  0  0  0  0  0
  141.6460   71.1520  221.4180 H   0  0  0  0  0  0  0  0  0  0  0  0
  140.5350   72.7630  222.1260 C   0  0  0  0  0  0  0  0  0  0  0  0
  139.7210   72.0110  222.8070 N   0  0  0  0  0  0  0  0  0  0  0  0
  140.1260   71.0110  223.8030 C   0  0  0  0  0  0  0  0  0  0  0  0
  141.1305   70.6595  223.5248 H   0  0  0  0  0  0  0  0  0  0  0  0
  139.1790   69.7910  223.7800 C   0  0  0  0  0  0  0  0  0  0  0  0
  138.1781   70.1502  223.4985 H   0  0  0  0  0  0  0  0  0  0  0  0
  139.6296   69.0865  223.0654 H   0  0  0  0  0  0  0  0  0  0  0  0
  139.0400   69.0020  225.0980 C   0  0  0  0  0  0  0  0  0  0  0  0
  138.4342   69.6094  225.7866 H   0  0  0  0  0  0  0  0  0  0  0  0
  138.5891   68.0408  224.8104 H   0  0  0  0  0  0  0  0  0  0  0  0
  140.3470   68.6300  225.8310 C   0  0  0  0  0  0  0  0  0  0  0  0
  140.1774   67.6953  226.3857 H   0  0  0  0  0  0  0  0  0  0  0  0
  141.1252   68.5327  225.0597 H   0  0  0  0  0  0  0  0  0  0  0  0
  140.8390   69.6970  226.8230 C   0  0  0  0  0  0  0  0  0  0  0  0
  140.0122   69.9613  227.4986 H   0  0  0  0  0  0  0  0  0  0  0  0
  141.6897   69.2761  227.3791 H   0  0  0  0  0  0  0  0  0  0  0  0
  141.3220   70.9680  226.1110 C   0  0  0  0  0  0  0  0  0  0  0  0
  141.6309   71.6980  226.8736 H   0  0  0  0  0  0  0  0  0  0  0  0
  142.1532   70.6738  225.4533 H   0  0  0  0  0  0  0  0  0  0  0  0
  140.2530   71.6170  225.2230 C   0  0  0  0  0  0  0  0  0  0  0  0
  139.2809   71.5121  225.7271 H   0  0  0  0  0  0  0  0  0  0  0  0
  140.5622   72.6635  225.0843 H   0  0  0  0  0  0  0  0  0  0  0  0
  140.3920   74.1150  222.1220 N   0  0  0  0  0  0  0  0  0  0  0  0
  140.7960   77.0650  220.1660 C   0  0  0  0  0  0  0  0  0  0  0  0
  139.7131   77.2450  220.0957 H   0  0  0  0  0  0  0  0  0  0  0  0
  141.1349   76.4598  219.3122 H   0  0  0  0  0  0  0  0  0  0  0  0
  141.5300   78.4020  220.1470 C   0  0  0  0  0  0  0  0  0  0  0  0
  141.2295   78.9690  219.2536 H   0  0  0  0  0  0  0  0  0  0  0  0
  142.6140   78.2164  220.1265 H   0  0  0  0  0  0  0  0  0  0  0  0
  1  2  1  0
  2  3  2  0
  3  4  1  0
  3  5  1  0
  5  6  1  0
  5  7  2  0
  7  8  1  0
  8  9  2  0
  9 10  1  0
  8 11  1  0
 11 12  1  0
 11 13  1  0
 11 14  1  0
 14 15  1  0
 15 16  1  0
 16 17  2  0
 17 18  1  0
 18 19  1  0
 19 20  1  0
 19 21  1  0
 19 22  1  0
 22 23  1  0
 22 24  1  0
 22 25  1  0
 25 26  1  0
 25 27  1  0
 25 28  1  0
 28 29  1  0
 28 30  1  0
 17 31  1  0
 31 32  1  0
 31 33  1  0
 33 34  2  0
 34 35  1  0
 35 36  1  0
 35 37  1  0
 37 38  1  0
 37 39  1  0
 37 40  1  0
 40 41  1  0
 40 42  1  0
 40 43  1  0
 43 44  1  0
 43 45  1  0
 43 46  1  0
 46 47  1  0
 46 48  1  0
 46 49  1  0
 49 50  1  0
 49 51  1  0
 49 52  1  0
 52 53  1  0
 52 54  1  0
 33 55  1  0
 14 56  1  0
 56 57  1  0
 56 58  1  0
 56 59  1  0
 59 60  1  0
 59 61  1  0
  9  2  1  0
 55 15  2  0
 59  7  1  0
 28 18  1  0
 52 35  1  0
M  END
>  <UniqueID>  (35) 
570

>  <SMILES>  (35) 
c1ccc2c(c1)CCN(c1nc(N3CCCC3)[nH]/c(=N/C3CCCCCC3)n1)C2

>  <Energy>  (35) 
68.13884172037191

>  <Genealogy>  (35) 
c1ccc2c(c1)CCN(c1nc(N3CCCC3)[nH]c(=NC3CCCCCC3)n1)C2 (tautomer)
c1ccc2c(c1)CCN(c1nc(N3CCCC3)[nH]/c(=N/C3CCCCCC3)n1)C2 (cis-trans isomerization)
c1ccc2c(c1)CCN(c1nc(N3CCCC3)[nH]/c(=N/C3CCCCCC3)n1)C2 (3D coordinates assigned)
c1ccc2c(c1)CCN(c1nc(N3CCCC3)[nH]/c(=N/C3CCCCCC3)n1)C2 (nonaromatic ring conformer: 68.13884172037191 kcal/mol)

>  <smiles>  (35) 
c1ccc2c(c1)CCN(c1nc(NC3CCCCCC3)nc(N3CCCC3)n1)C2

>  <score_type>  (35) 
oracle

>  <origin>  (35) 
autodockgpu

>  <m_score__min__energy>  (35) 
-6.29

>  <m_primary>  (35) 
energy

>  <meeko>  (35) 
{"free_energy": -5.28, "intermolecular_energy": -8.26, "internal_energy": -0.82, "cluster_size": 7, "cluster_id": 2, "rank_in_cluster": 7}

>  <energy>  (35) 
-5.29

>  <cluster_rmsd>  (35) 
0.82

>  <rmsd>  (35) 
270.91

>  <cluster>  (35) 
2

$$$$
HZXVWJKCCMCLGL-HKCMIAPXNA-N
     RDKit          3D

 61 65  0  0  0  0  0  0  0  0999 V2000
  141.5716   69.7925  228.9304 H   0  0  0  0  0  0  0  0  0  0  0  0
  141.0050   69.6670  227.9960 C   0  0  0  0  0  0  0  0  0  0  0  0
  140.2590   68.5040  227.7830 C   0  0  0  0  0  0  0  0  0  0  0  0
  140.2318   67.7201  228.5542 H   0  0  0  0  0  0  0  0  0  0  0  0
  139.5490   68.3360  226.5940 C   0  0  0  0  0  0  0  0  0  0  0  0
  138.9607   67.4209  226.4312 H   0  0  0  0  0  0  0  0  0  0  0  0
  139.5830   69.3310  225.6050 C   0  0  0  0  0  0  0  0  0  0  0  0
  140.3190   70.5140  225.8230 C   0  0  0  0  0  0  0  0  0  0  0  0
  141.0320   70.6710  227.0230 C   0  0  0  0  0  0  0  0  0  0  0  0
  141.6142   71.5877  227.1981 H   0  0  0  0  0  0  0  0  0  0  0  0
  140.2940   71.6480  224.8250 C   0  0  0  0  0  0  0  0  0  0  0  0
  141.3213   72.0190  224.6948 H   0  0  0  0  0  0  0  0  0  0  0  0
  139.6186   72.4169  225.2282 H   0  0  0  0  0  0  0  0  0  0  0  0
  139.7670   71.2610  223.5020 N   0  0  0  0  0  0  0  0  0  0  0  0
  139.6670   72.2690  222.4720 C   0  0  0  0  0  0  0  0  0  0  0  0
  138.7980   72.1150  221.4430 N   0  0  0  0  0  0  0  0  0  0  0  0
  138.6650   73.0710  220.4890 C   0  0  0  0  0  0  0  0  0  0  0  0
  137.7180   72.8800  219.4230 N   0  0  0  0  0  0  0  0  0  0  0  0
  137.3200   73.9610  218.5350 C   0  0  0  0  0  0  0  0  0  0  0  0
  136.6575   74.6636  219.0618 H   0  0  0  0  0  0  0  0  0  0  0  0
  138.1908   74.5337  218.1834 H   0  0  0  0  0  0  0  0  0  0  0  0
  136.5810   73.3050  217.3770 C   0  0  0  0  0  0  0  0  0  0  0  0
  135.6271   73.8213  217.1936 H   0  0  0  0  0  0  0  0  0  0  0  0
  137.1695   73.3564  216.4491 H   0  0  0  0  0  0  0  0  0  0  0  0
  136.3260   71.8550  217.7910 C   0  0  0  0  0  0  0  0  0  0  0  0
  135.2775   71.7249  218.0971 H   0  0  0  0  0  0  0  0  0  0  0  0
  136.5140   71.1619  216.9577 H   0  0  0  0  0  0  0  0  0  0  0  0
  137.2580   71.5760  218.9660 C   0  0  0  0  0  0  0  0  0  0  0  0
  136.7161   71.0570  219.7704 H   0  0  0  0  0  0  0  0  0  0  0  0
  138.0981   70.9292  218.6729 H   0  0  0  0  0  0  0  0  0  0  0  0
  139.4270   74.2000  220.5630 N   0  0  0  0  0  0  0  0  0  0  0  0
  139.3500   74.9440  219.8340 H   0  0  0  0  0  0  0  0  0  0  0  0
  140.3220   74.3540  221.5760 C   0  0  0  0  0  0  0  0  0  0  0  0
  141.0670   75.4210  221.6220 N   0  0  0  0  0  0  0  0  0  0  0  0
  140.6040   76.7890  221.3580 C   0  0  0  0  0  0  0  0  0  0  0  0
  139.6814   76.7142  220.7637 H   0  0  0  0  0  0  0  0  0  0  0  0
  141.6380   77.5720  220.5200 C   0  0  0  0  0  0  0  0  0  0  0  0
  142.6361   77.3433  220.9219 H   0  0  0  0  0  0  0  0  0  0  0  0
  141.4782   77.2462  219.4816 H   0  0  0  0  0  0  0  0  0  0  0  0
  141.4830   79.1070  220.4950 C   0  0  0  0  0  0  0  0  0  0  0  0
  141.8899   79.4663  219.5383 H   0  0  0  0  0  0  0  0  0  0  0  0
  140.4075   79.2884  220.6381 H   0  0  0  0  0  0  0  0  0  0  0  0
  142.1760   79.8970  221.6210 C   0  0  0  0  0  0  0  0  0  0  0  0
  143.2275   79.5773  221.6669 H   0  0  0  0  0  0  0  0  0  0  0  0
  142.0581   80.9619  221.3716 H   0  0  0  0  0  0  0  0  0  0  0  0
  141.5560   79.7060  223.0150 C   0  0  0  0  0  0  0  0  0  0  0  0
  142.2070   80.1847  223.7614 H   0  0  0  0  0  0  0  0  0  0  0  0
  140.5555   80.1631  223.0063 H   0  0  0  0  0  0  0  0  0  0  0  0
  141.3950   78.2230  223.3770 C   0  0  0  0  0  0  0  0  0  0  0  0
  142.3229   77.6967  223.1085 H   0  0  0  0  0  0  0  0  0  0  0  0
  141.1842   78.1750  224.4555 H   0  0  0  0  0  0  0  0  0  0  0  0
  140.2250   77.5400  222.6590 C   0  0  0  0  0  0  0  0  0  0  0  0
  139.7753   76.8147  223.3530 H   0  0  0  0  0  0  0  0  0  0  0  0
  139.5360   78.3438  222.3604 H   0  0  0  0  0  0  0  0  0  0  0  0
  140.4280   73.3920  222.5310 N   0  0  0  0  0  0  0  0  0  0  0  0
  139.4940   69.8490  223.1810 C   0  0  0  0  0  0  0  0  0  0  0  0
  140.4444   69.3321  222.9823 H   0  0  0  0  0  0  0  0  0  0  0  0
  138.8464   69.8035  222.2930 H   0  0  0  0  0  0  0  0  0  0  0  0
  138.7850   69.1670  224.3460 C   0  0  0  0  0  0  0  0  0  0  0  0
  138.6710   68.0955  224.1250 H   0  0  0  0  0  0  0  0  0  0  0  0
  137.7964   69.6289  224.4847 H   0  0  0  0  0  0  0  0  0  0  0  0
  1  2  1  0
  2  3  2  0
  3  4  1  0
  3  5  1  0
  5  6  1  0
  5  7  2  0
  7  8  1  0
  8  9  2  0
  9 10  1  0
  8 11  1  0
 11 12  1  0
 11 13  1  0
 11 14  1  0
 14 15  1  0
 15 16  1  0
 16 17  2  0
 17 18  1  0
 18 19  1  0
 19 20  1  0
 19 21  1  0
 19 22  1  0
 22 23  1  0
 22 24  1  0
 22 25  1  0
 25 26  1  0
 25 27  1  0
 25 28  1  0
 28 29  1  0
 28 30  1  0
 17 31  1  0
 31 32  1  0
 31 33  1  0
 33 34  2  0
 34 35  1  0
 35 36  1  0
 35 37  1  0
 37 38  1  0
 37 39  1  0
 37 40  1  0
 40 41  1  0
 40 42  1  0
 40 43  1  0
 43 44  1  0
 43 45  1  0
 43 46  1  0
 46 47  1  0
 46 48  1  0
 46 49  1  0
 49 50  1  0
 49 51  1  0
 49 52  1  0
 52 53  1  0
 52 54  1  0
 33 55  1  0
 14 56  1  0
 56 57  1  0
 56 58  1  0
 56 59  1  0
 59 60  1  0
 59 61  1  0
  9  2  1  0
 55 15  2  0
 59  7  1  0
 28 18  1  0
 52 35  1  0
M  END
>  <UniqueID>  (36) 
570

>  <SMILES>  (36) 
c1ccc2c(c1)CCN(c1nc(N3CCCC3)[nH]/c(=N/C3CCCCCC3)n1)C2

>  <Energy>  (36) 
68.13884172037191

>  <Genealogy>  (36) 
c1ccc2c(c1)CCN(c1nc(N3CCCC3)[nH]c(=NC3CCCCCC3)n1)C2 (tautomer)
c1ccc2c(c1)CCN(c1nc(N3CCCC3)[nH]/c(=N/C3CCCCCC3)n1)C2 (cis-trans isomerization)
c1ccc2c(c1)CCN(c1nc(N3CCCC3)[nH]/c(=N/C3CCCCCC3)n1)C2 (3D coordinates assigned)
c1ccc2c(c1)CCN(c1nc(N3CCCC3)[nH]/c(=N/C3CCCCCC3)n1)C2 (nonaromatic ring conformer: 68.13884172037191 kcal/mol)

>  <smiles>  (36) 
c1ccc2c(c1)CCN(c1nc(NC3CCCCCC3)nc(N3CCCC3)n1)C2

>  <score_type>  (36) 
oracle

>  <origin>  (36) 
autodockgpu

>  <m_score__min__energy>  (36) 
-6.29

>  <m_primary>  (36) 
energy

>  <meeko>  (36) 
{"free_energy": -5.46, "intermolecular_energy": -8.44, "internal_energy": -0.81, "cluster_size": 1, "cluster_id": 3, "rank_in_cluster": 1}

>  <energy>  (36) 
-5.28

>  <cluster_rmsd>  (36) 
1.11

>  <rmsd>  (36) 
270.81

>  <cluster>  (36) 
2

$$$$
HZXVWJKCCMCLGL-HKCMIAPXNA-N
     RDKit          3D

 61 65  0  0  0  0  0  0  0  0999 V2000
  140.4955   81.3328  224.5328 H   0  0  0  0  0  0  0  0  0  0  0  0
  140.7540   80.7110  223.6630 C   0  0  0  0  0  0  0  0  0  0  0  0
  141.0980   81.3160  222.4500 C   0  0  0  0  0  0  0  0  0  0  0  0
  141.1179   82.4129  222.3694 H   0  0  0  0  0  0  0  0  0  0  0  0
  141.4160   80.5300  221.3420 C   0  0  0  0  0  0  0  0  0  0  0  0
  141.6902   81.0089  220.3904 H   0  0  0  0  0  0  0  0  0  0  0  0
  141.3870   79.1300  221.4380 C   0  0  0  0  0  0  0  0  0  0  0  0
  141.0580   78.5160  222.6630 C   0  0  0  0  0  0  0  0  0  0  0  0
  140.7380   79.3170  223.7720 C   0  0  0  0  0  0  0  0  0  0  0  0
  140.4738   78.8456  224.7301 H   0  0  0  0  0  0  0  0  0  0  0  0
  141.1180   77.0160  222.8290 C   0  0  0  0  0  0  0  0  0  0  0  0
  140.2219   76.6911  223.3780 H   0  0  0  0  0  0  0  0  0  0  0  0
  142.0475   76.7893  223.3718 H   0  0  0  0  0  0  0  0  0  0  0  0
  141.1740   76.2800  221.5510 N   0  0  0  0  0  0  0  0  0  0  0  0
  141.2640   74.8390  221.5820 C   0  0  0  0  0  0  0  0  0  0  0  0
  142.2280   74.1950  220.8790 N   0  0  0  0  0  0  0  0  0  0  0  0
  142.3480   72.8440  220.9290 C   0  0  0  0  0  0  0  0  0  0  0  0
  143.3960   72.2000  220.1830 N   0  0  0  0  0  0  0  0  0  0  0  0
  144.6850   72.8340  219.9510 C   0  0  0  0  0  0  0  0  0  0  0  0
  144.5866   73.6390  219.2079 H   0  0  0  0  0  0  0  0  0  0  0  0
  145.0826   73.2862  220.8715 H   0  0  0  0  0  0  0  0  0  0  0  0
  145.6040   71.7390  219.4260 C   0  0  0  0  0  0  0  0  0  0  0  0
  146.1263   72.0826  218.5210 H   0  0  0  0  0  0  0  0  0  0  0  0
  146.3696   71.4717  220.1692 H   0  0  0  0  0  0  0  0  0  0  0  0
  144.7100   70.5430  219.0980 C   0  0  0  0  0  0  0  0  0  0  0  0
  144.5533   70.4710  218.0116 H   0  0  0  0  0  0  0  0  0  0  0  0
  145.1679   69.5988  219.4277 H   0  0  0  0  0  0  0  0  0  0  0  0
  143.3830   70.7940  219.8080 C   0  0  0  0  0  0  0  0  0  0  0  0
  142.5409   70.5853  219.1318 H   0  0  0  0  0  0  0  0  0  0  0  0
  143.2624   70.1413  220.6852 H   0  0  0  0  0  0  0  0  0  0  0  0
  141.4770   72.1230  221.6920 N   0  0  0  0  0  0  0  0  0  0  0  0
  141.5440   71.0810  221.7360 H   0  0  0  0  0  0  0  0  0  0  0  0
  140.4890   72.7550  222.3810 C   0  0  0  0  0  0  0  0  0  0  0  0
  139.6430   72.0560  223.0820 N   0  0  0  0  0  0  0  0  0  0  0  0
  139.9980   70.9390  223.9660 C   0  0  0  0  0  0  0  0  0  0  0  0
  140.4232   70.1447  223.3348 H   0  0  0  0  0  0  0  0  0  0  0  0
  138.7440   70.3650  224.6640 C   0  0  0  0  0  0  0  0  0  0  0  0
  138.3396   71.1485  225.3217 H   0  0  0  0  0  0  0  0  0  0  0  0
  138.0711   70.0602  223.8489 H   0  0  0  0  0  0  0  0  0  0  0  0
  138.9510   69.0970  225.5180 C   0  0  0  0  0  0  0  0  0  0  0  0
  138.0074   68.5318  225.5056 H   0  0  0  0  0  0  0  0  0  0  0  0
  139.8084   68.5828  225.0592 H   0  0  0  0  0  0  0  0  0  0  0  0
  139.3510   69.2990  226.9920 C   0  0  0  0  0  0  0  0  0  0  0  0
  138.5359   69.8357  227.4994 H   0  0  0  0  0  0  0  0  0  0  0  0
  139.5292   68.2970  227.4095 H   0  0  0  0  0  0  0  0  0  0  0  0
  140.6500   70.0960  227.1930 C   0  0  0  0  0  0  0  0  0  0  0  0
  140.7807   70.2963  228.2667 H   0  0  0  0  0  0  0  0  0  0  0  0
  141.4810   69.4951  226.7949 H   0  0  0  0  0  0  0  0  0  0  0  0
  140.6300   71.4330  226.4390 C   0  0  0  0  0  0  0  0  0  0  0  0
  139.6001   71.8194  226.4431 H   0  0  0  0  0  0  0  0  0  0  0  0
  141.3307   72.1056  226.9554 H   0  0  0  0  0  0  0  0  0  0  0  0
  141.1010   71.3230  224.9840 C   0  0  0  0  0  0  0  0  0  0  0  0
  141.5169   72.2966  224.6854 H   0  0  0  0  0  0  0  0  0  0  0  0
  141.8385   70.5072  224.9604 H   0  0  0  0  0  0  0  0  0  0  0  0
  140.3950   74.1100  222.3310 N   0  0  0  0  0  0  0  0  0  0  0  0
  140.9870   76.9800  220.2690 C   0  0  0  0  0  0  0  0  0  0  0  0
  139.9179   77.1965  220.1271 H   0  0  0  0  0  0  0  0  0  0  0  0
  141.3544   76.3374  219.4553 H   0  0  0  0  0  0  0  0  0  0  0  0
  141.7700   78.2880  220.2570 C   0  0  0  0  0  0  0  0  0  0  0  0
  141.5460   78.8374  219.3307 H   0  0  0  0  0  0  0  0  0  0  0  0
  142.8456   78.0637  220.3089 H   0  0  0  0  0  0  0  0  0  0  0  0
  1  2  1  0
  2  3  2  0
  3  4  1  0
  3  5  1  0
  5  6  1  0
  5  7  2  0
  7  8  1  0
  8  9  2  0
  9 10  1  0
  8 11  1  0
 11 12  1  0
 11 13  1  0
 11 14  1  0
 14 15  1  0
 15 16  1  0
 16 17  2  0
 17 18  1  0
 18 19  1  0
 19 20  1  0
 19 21  1  0
 19 22  1  0
 22 23  1  0
 22 24  1  0
 22 25  1  0
 25 26  1  0
 25 27  1  0
 25 28  1  0
 28 29  1  0
 28 30  1  0
 17 31  1  0
 31 32  1  0
 31 33  1  0
 33 34  2  0
 34 35  1  0
 35 36  1  0
 35 37  1  0
 37 38  1  0
 37 39  1  0
 37 40  1  0
 40 41  1  0
 40 42  1  0
 40 43  1  0
 43 44  1  0
 43 45  1  0
 43 46  1  0
 46 47  1  0
 46 48  1  0
 46 49  1  0
 49 50  1  0
 49 51  1  0
 49 52  1  0
 52 53  1  0
 52 54  1  0
 33 55  1  0
 14 56  1  0
 56 57  1  0
 56 58  1  0
 56 59  1  0
 59 60  1  0
 59 61  1  0
  9  2  1  0
 55 15  2  0
 59  7  1  0
 28 18  1  0
 52 35  1  0
M  END
>  <UniqueID>  (37) 
570

>  <SMILES>  (37) 
c1ccc2c(c1)CCN(c1nc(N3CCCC3)[nH]/c(=N/C3CCCCCC3)n1)C2

>  <Energy>  (37) 
68.13884172037191

>  <Genealogy>  (37) 
c1ccc2c(c1)CCN(c1nc(N3CCCC3)[nH]c(=NC3CCCCCC3)n1)C2 (tautomer)
c1ccc2c(c1)CCN(c1nc(N3CCCC3)[nH]/c(=N/C3CCCCCC3)n1)C2 (cis-trans isomerization)
c1ccc2c(c1)CCN(c1nc(N3CCCC3)[nH]/c(=N/C3CCCCCC3)n1)C2 (3D coordinates assigned)
c1ccc2c(c1)CCN(c1nc(N3CCCC3)[nH]/c(=N/C3CCCCCC3)n1)C2 (nonaromatic ring conformer: 68.13884172037191 kcal/mol)

>  <smiles>  (37) 
c1ccc2c(c1)CCN(c1nc(NC3CCCCCC3)nc(N3CCCC3)n1)C2

>  <score_type>  (37) 
oracle

>  <origin>  (37) 
autodockgpu

>  <m_score__min__energy>  (37) 
-6.29

>  <m_primary>  (37) 
energy

>  <meeko>  (37) 
{"free_energy": -5.78, "intermolecular_energy": -8.76, "internal_energy": -0.84, "cluster_size": 7, "cluster_id": 2, "rank_in_cluster": 3}

>  <energy>  (37) 
-5.46

>  <cluster_rmsd>  (37) 
0.0

>  <rmsd>  (37) 
270.02

>  <cluster>  (37) 
3

$$$$
HZXVWJKCCMCLGL-HKCMIAPXNA-N
     RDKit          3D

 61 65  0  0  0  0  0  0  0  0999 V2000
  141.6970   81.7523  223.6527 H   0  0  0  0  0  0  0  0  0  0  0  0
  141.0240   81.0050  223.2070 C   0  0  0  0  0  0  0  0  0  0  0  0
  139.7820   81.3990  222.7010 C   0  0  0  0  0  0  0  0  0  0  0  0
  139.4830   82.4569  222.7402 H   0  0  0  0  0  0  0  0  0  0  0  0
  138.9210   80.4510  222.1460 C   0  0  0  0  0  0  0  0  0  0  0  0
  137.9447   80.7638  221.7473 H   0  0  0  0  0  0  0  0  0  0  0  0
  139.2970   79.1000  222.0950 C   0  0  0  0  0  0  0  0  0  0  0  0
  140.5560   78.7010  222.5880 C   0  0  0  0  0  0  0  0  0  0  0  0
  141.4130   79.6630  223.1480 C   0  0  0  0  0  0  0  0  0  0  0  0
  142.3942   79.3594  223.5418 H   0  0  0  0  0  0  0  0  0  0  0  0
  141.0330   77.2740  222.4570 C   0  0  0  0  0  0  0  0  0  0  0  0
  141.4906   76.9717  223.4105 H   0  0  0  0  0  0  0  0  0  0  0  0
  141.7488   77.2493  221.6221 H   0  0  0  0  0  0  0  0  0  0  0  0
  139.9570   76.3170  222.1320 N   0  0  0  0  0  0  0  0  0  0  0  0
  140.2970   74.9250  221.9520 C   0  0  0  0  0  0  0  0  0  0  0  0
  141.4630   74.5740  221.3560 N   0  0  0  0  0  0  0  0  0  0  0  0
  141.8130   73.2710  221.2130 C   0  0  0  0  0  0  0  0  0  0  0  0
  143.0680   72.9390  220.5930 N   0  0  0  0  0  0  0  0  0  0  0  0
  144.1310   73.9180  220.4240 C   0  0  0  0  0  0  0  0  0  0  0  0
  143.8712   74.6304  219.6271 H   0  0  0  0  0  0  0  0  0  0  0  0
  144.2917   74.5007  221.3430 H   0  0  0  0  0  0  0  0  0  0  0  0
  145.3750   73.1260  220.0410 C   0  0  0  0  0  0  0  0  0  0  0  0
  145.8555   73.5756  219.1595 H   0  0  0  0  0  0  0  0  0  0  0  0
  146.1131   73.1252  220.8566 H   0  0  0  0  0  0  0  0  0  0  0  0
  144.9040   71.7080  219.7200 C   0  0  0  0  0  0  0  0  0  0  0  0
  144.8768   71.5529  218.6313 H   0  0  0  0  0  0  0  0  0  0  0  0
  145.5851   70.9549  220.1430 H   0  0  0  0  0  0  0  0  0  0  0  0
  143.5020   71.5800  220.3070 C   0  0  0  0  0  0  0  0  0  0  0  0
  142.8245   71.1059  219.5816 H   0  0  0  0  0  0  0  0  0  0  0  0
  143.4967   70.9539  221.2114 H   0  0  0  0  0  0  0  0  0  0  0  0
  140.9710   72.2980  221.6690 N   0  0  0  0  0  0  0  0  0  0  0  0
  141.2150   71.2880  221.5600 H   0  0  0  0  0  0  0  0  0  0  0  0
  139.7850   72.6370  222.2440 C   0  0  0  0  0  0  0  0  0  0  0  0
  138.9740   71.7030  222.6480 N   0  0  0  0  0  0  0  0  0  0  0  0
  139.3540   70.5560  223.4830 C   0  0  0  0  0  0  0  0  0  0  0  0
  139.4852   69.6928  222.8139 H   0  0  0  0  0  0  0  0  0  0  0  0
  138.2330   70.2060  224.4860 C   0  0  0  0  0  0  0  0  0  0  0  0
  137.8869   71.1455  224.9415 H   0  0  0  0  0  0  0  0  0  0  0  0
  137.4704   69.6757  223.8967 H   0  0  0  0  0  0  0  0  0  0  0  0
  138.6090   69.2410  225.6300 C   0  0  0  0  0  0  0  0  0  0  0  0
  137.7322   69.1487  226.2878 H   0  0  0  0  0  0  0  0  0  0  0  0
  138.9137   68.3100  225.1296 H   0  0  0  0  0  0  0  0  0  0  0  0
  139.8120   69.6340  226.5110 C   0  0  0  0  0  0  0  0  0  0  0  0
  139.6458   69.2272  227.5194 H   0  0  0  0  0  0  0  0  0  0  0  0
  140.7053   69.2208  226.0198 H   0  0  0  0  0  0  0  0  0  0  0  0
  140.0470   71.1480  226.6380 C   0  0  0  0  0  0  0  0  0  0  0  0
  139.0806   71.6435  226.8127 H   0  0  0  0  0  0  0  0  0  0  0  0
  140.7383   71.3143  227.4774 H   0  0  0  0  0  0  0  0  0  0  0  0
  140.6860   71.7410  225.3750 C   0  0  0  0  0  0  0  0  0  0  0  0
  140.1123   72.6321  225.0805 H   0  0  0  0  0  0  0  0  0  0  0  0
  141.7307   71.9795  225.6234 H   0  0  0  0  0  0  0  0  0  0  0  0
  140.7160   70.7700  224.1890 C   0  0  0  0  0  0  0  0  0  0  0  0
  141.4276   71.1603  223.4465 H   0  0  0  0  0  0  0  0  0  0  0  0
  141.0060   69.7918  224.6001 H   0  0  0  0  0  0  0  0  0  0  0  0
  139.4610   73.9490  222.3920 N   0  0  0  0  0  0  0  0  0  0  0  0
  138.5450   76.7370  222.1420 C   0  0  0  0  0  0  0  0  0  0  0  0
  138.1972   76.8135  223.1828 H   0  0  0  0  0  0  0  0  0  0  0  0
  137.9476   75.9912  221.5970 H   0  0  0  0  0  0  0  0  0  0  0  0
  138.3870   78.0910  221.4590 C   0  0  0  0  0  0  0  0  0  0  0  0
  137.3447   78.4284  221.5574 H   0  0  0  0  0  0  0  0  0  0  0  0
  138.6496   77.9900  220.3956 H   0  0  0  0  0  0  0  0  0  0  0  0
  1  2  1  0
  2  3  2  0
  3  4  1  0
  3  5  1  0
  5  6  1  0
  5  7  2  0
  7  8  1  0
  8  9  2  0
  9 10  1  0
  8 11  1  0
 11 12  1  0
 11 13  1  0
 11 14  1  0
 14 15  1  0
 15 16  1  0
 16 17  2  0
 17 18  1  0
 18 19  1  0
 19 20  1  0
 19 21  1  0
 19 22  1  0
 22 23  1  0
 22 24  1  0
 22 25  1  0
 25 26  1  0
 25 27  1  0
 25 28  1  0
 28 29  1  0
 28 30  1  0
 17 31  1  0
 31 32  1  0
 31 33  1  0
 33 34  2  0
 34 35  1  0
 35 36  1  0
 35 37  1  0
 37 38  1  0
 37 39  1  0
 37 40  1  0
 40 41  1  0
 40 42  1  0
 40 43  1  0
 43 44  1  0
 43 45  1  0
 43 46  1  0
 46 47  1  0
 46 48  1  0
 46 49  1  0
 49 50  1  0
 49 51  1  0
 49 52  1  0
 52 53  1  0
 52 54  1  0
 33 55  1  0
 14 56  1  0
 56 57  1  0
 56 58  1  0
 56 59  1  0
 59 60  1  0
 59 61  1  0
  9  2  1  0
 55 15  2  0
 59  7  1  0
 28 18  1  0
 52 35  1  0
M  END
>  <UniqueID>  (38) 
570

>  <SMILES>  (38) 
c1ccc2c(c1)CCN(c1nc(N3CCCC3)[nH]/c(=N/C3CCCCCC3)n1)C2

>  <Energy>  (38) 
68.13884172037191

>  <Genealogy>  (38) 
c1ccc2c(c1)CCN(c1nc(N3CCCC3)[nH]c(=NC3CCCCCC3)n1)C2 (tautomer)
c1ccc2c(c1)CCN(c1nc(N3CCCC3)[nH]/c(=N/C3CCCCCC3)n1)C2 (cis-trans isomerization)
c1ccc2c(c1)CCN(c1nc(N3CCCC3)[nH]/c(=N/C3CCCCCC3)n1)C2 (3D coordinates assigned)
c1ccc2c(c1)CCN(c1nc(N3CCCC3)[nH]/c(=N/C3CCCCCC3)n1)C2 (nonaromatic ring conformer: 68.13884172037191 kcal/mol)

>  <smiles>  (38) 
c1ccc2c(c1)CCN(c1nc(NC3CCCCCC3)nc(N3CCCC3)n1)C2

>  <score_type>  (38) 
oracle

>  <origin>  (38) 
autodockgpu

>  <m_score__min__energy>  (38) 
-6.29

>  <m_primary>  (38) 
energy

>  <meeko>  (38) 
{"free_energy": -5.67, "intermolecular_energy": -8.65, "internal_energy": -0.98, "cluster_size": 7, "cluster_id": 2, "rank_in_cluster": 4}

>  <energy>  (38) 
-5.28

>  <cluster_rmsd>  (38) 
0.0

>  <rmsd>  (38) 
270.22

>  <cluster>  (38) 
4

$$$$
HZXVWJKCCMCLGL-HKCMIAPXNA-N
     RDKit          3D

 61 65  0  0  0  0  0  0  0  0999 V2000
  140.7294   68.4824  227.9695 H   0  0  0  0  0  0  0  0  0  0  0  0
  140.2740   68.7880  227.0160 C   0  0  0  0  0  0  0  0  0  0  0  0
  139.1850   68.0770  226.5040 C   0  0  0  0  0  0  0  0  0  0  0  0
  138.7784   67.2191  227.0596 H   0  0  0  0  0  0  0  0  0  0  0  0
  138.6130   68.4550  225.2880 C   0  0  0  0  0  0  0  0  0  0  0  0
  137.7543   67.8954  224.8887 H   0  0  0  0  0  0  0  0  0  0  0  0
  139.1300   69.5470  224.5730 C   0  0  0  0  0  0  0  0  0  0  0  0
  140.2170   70.2770  225.0960 C   0  0  0  0  0  0  0  0  0  0  0  0
  140.7860   69.8870  226.3190 C   0  0  0  0  0  0  0  0  0  0  0  0
  141.6379   70.4482  226.7305 H   0  0  0  0  0  0  0  0  0  0  0  0
  140.7320   71.5180  224.4050 C   0  0  0  0  0  0  0  0  0  0  0  0
  141.8314   71.4826  224.4010 H   0  0  0  0  0  0  0  0  0  0  0  0
  140.3425   72.3823  224.9629 H   0  0  0  0  0  0  0  0  0  0  0  0
  140.2650   71.6570  223.0120 N   0  0  0  0  0  0  0  0  0  0  0  0
  140.6680   72.8200  222.2570 C   0  0  0  0  0  0  0  0  0  0  0  0
  141.7900   72.7910  221.4960 N   0  0  0  0  0  0  0  0  0  0  0  0
  142.1600   73.8640  220.7520 C   0  0  0  0  0  0  0  0  0  0  0  0
  143.3470   73.7870  219.9430 N   0  0  0  0  0  0  0  0  0  0  0  0
  144.6670   73.5820  220.5190 C   0  0  0  0  0  0  0  0  0  0  0  0
  145.0116   74.4985  221.0203 H   0  0  0  0  0  0  0  0  0  0  0  0
  144.6571   72.7812  221.2731 H   0  0  0  0  0  0  0  0  0  0  0  0
  145.5860   73.2390  219.3540 C   0  0  0  0  0  0  0  0  0  0  0  0
  146.4970   73.8541  219.3948 H   0  0  0  0  0  0  0  0  0  0  0  0
  145.8960   72.1842  219.3892 H   0  0  0  0  0  0  0  0  0  0  0  0
  144.8010   73.5420  218.0780 C   0  0  0  0  0  0  0  0  0  0  0  0
  145.1438   74.4889  217.6355 H   0  0  0  0  0  0  0  0  0  0  0  0
  144.9449   72.7549  217.3232 H   0  0  0  0  0  0  0  0  0  0  0  0
  143.3370   73.6520  218.4930 C   0  0  0  0  0  0  0  0  0  0  0  0
  142.8722   74.5344  218.0289 H   0  0  0  0  0  0  0  0  0  0  0  0
  142.7570   72.7745  218.1711 H   0  0  0  0  0  0  0  0  0  0  0  0
  141.3960   74.9930  220.7790 N   0  0  0  0  0  0  0  0  0  0  0  0
  141.6680   75.8350  220.2230 H   0  0  0  0  0  0  0  0  0  0  0  0
  140.2820   75.0440  221.5600 C   0  0  0  0  0  0  0  0  0  0  0  0
  139.5750   76.1370  221.6030 N   0  0  0  0  0  0  0  0  0  0  0  0
  139.8110   77.2620  222.5170 C   0  0  0  0  0  0  0  0  0  0  0  0
  139.7232   76.8754  223.5431 H   0  0  0  0  0  0  0  0  0  0  0  0
  138.7380   78.3570  222.3360 C   0  0  0  0  0  0  0  0  0  0  0  0
  138.6802   78.5940  221.2634 H   0  0  0  0  0  0  0  0  0  0  0  0
  137.8160   77.9338  222.7611 H   0  0  0  0  0  0  0  0  0  0  0  0
  138.9680   79.6790  223.0960 C   0  0  0  0  0  0  0  0  0  0  0  0
  138.0111   80.2211  223.1163 H   0  0  0  0  0  0  0  0  0  0  0  0
  139.3513   79.3790  224.0824 H   0  0  0  0  0  0  0  0  0  0  0  0
  140.0350   80.6380  222.5250 C   0  0  0  0  0  0  0  0  0  0  0  0
  139.9891   80.5883  221.4271 H   0  0  0  0  0  0  0  0  0  0  0  0
  139.8010   81.6373  222.9208 H   0  0  0  0  0  0  0  0  0  0  0  0
  141.4750   80.3220  222.9600 C   0  0  0  0  0  0  0  0  0  0  0  0
  142.1473   80.4838  222.1045 H   0  0  0  0  0  0  0  0  0  0  0  0
  141.7284   80.9868  223.7990 H   0  0  0  0  0  0  0  0  0  0  0  0
  141.6290   78.8730  223.4430 C   0  0  0  0  0  0  0  0  0  0  0  0
  142.6792   78.7107  223.7271 H   0  0  0  0  0  0  0  0  0  0  0  0
  140.9414   78.7404  224.2913 H   0  0  0  0  0  0  0  0  0  0  0  0
  141.2460   77.8310  222.3860 C   0  0  0  0  0  0  0  0  0  0  0  0
  141.3379   78.3002  221.3954 H   0  0  0  0  0  0  0  0  0  0  0  0
  141.9283   76.9805  222.5315 H   0  0  0  0  0  0  0  0  0  0  0  0
  139.9190   73.9530  222.2850 N   0  0  0  0  0  0  0  0  0  0  0  0
  139.5330   70.5640  222.3480 C   0  0  0  0  0  0  0  0  0  0  0  0
  140.2434   69.7759  222.0579 H   0  0  0  0  0  0  0  0  0  0  0  0
  139.0268   70.9634  221.4568 H   0  0  0  0  0  0  0  0  0  0  0  0
  138.4870   69.9760  223.2890 C   0  0  0  0  0  0  0  0  0  0  0  0
  138.0155   69.1053  222.8099 H   0  0  0  0  0  0  0  0  0  0  0  0
  137.7277   70.7418  223.5057 H   0  0  0  0  0  0  0  0  0  0  0  0
  1  2  1  0
  2  3  2  0
  3  4  1  0
  3  5  1  0
  5  6  1  0
  5  7  2  0
  7  8  1  0
  8  9  2  0
  9 10  1  0
  8 11  1  0
 11 12  1  0
 11 13  1  0
 11 14  1  0
 14 15  1  0
 15 16  1  0
 16 17  2  0
 17 18  1  0
 18 19  1  0
 19 20  1  0
 19 21  1  0
 19 22  1  0
 22 23  1  0
 22 24  1  0
 22 25  1  0
 25 26  1  0
 25 27  1  0
 25 28  1  0
 28 29  1  0
 28 30  1  0
 17 31  1  0
 31 32  1  0
 31 33  1  0
 33 34  2  0
 34 35  1  0
 35 36  1  0
 35 37  1  0
 37 38  1  0
 37 39  1  0
 37 40  1  0
 40 41  1  0
 40 42  1  0
 40 43  1  0
 43 44  1  0
 43 45  1  0
 43 46  1  0
 46 47  1  0
 46 48  1  0
 46 49  1  0
 49 50  1  0
 49 51  1  0
 49 52  1  0
 52 53  1  0
 52 54  1  0
 33 55  1  0
 14 56  1  0
 56 57  1  0
 56 58  1  0
 56 59  1  0
 59 60  1  0
 59 61  1  0
  9  2  1  0
 55 15  2  0
 59  7  1  0
 28 18  1  0
 52 35  1  0
M  END
>  <UniqueID>  (39) 
570

>  <SMILES>  (39) 
c1ccc2c(c1)CCN(c1nc(N3CCCC3)[nH]/c(=N/C3CCCCCC3)n1)C2

>  <Energy>  (39) 
68.13884172037191

>  <Genealogy>  (39) 
c1ccc2c(c1)CCN(c1nc(N3CCCC3)[nH]c(=NC3CCCCCC3)n1)C2 (tautomer)
c1ccc2c(c1)CCN(c1nc(N3CCCC3)[nH]/c(=N/C3CCCCCC3)n1)C2 (cis-trans isomerization)
c1ccc2c(c1)CCN(c1nc(N3CCCC3)[nH]/c(=N/C3CCCCCC3)n1)C2 (3D coordinates assigned)
c1ccc2c(c1)CCN(c1nc(N3CCCC3)[nH]/c(=N/C3CCCCCC3)n1)C2 (nonaromatic ring conformer: 68.13884172037191 kcal/mol)

>  <smiles>  (39) 
c1ccc2c(c1)CCN(c1nc(NC3CCCCCC3)nc(N3CCCC3)n1)C2

>  <score_type>  (39) 
oracle

>  <origin>  (39) 
autodockgpu

>  <m_score__min__energy>  (39) 
-6.29

>  <m_primary>  (39) 
energy

>  <meeko>  (39) 
{"free_energy": -6.29, "intermolecular_energy": -9.27, "internal_energy": -0.83, "cluster_size": 9, "cluster_id": 1, "rank_in_cluster": 1}

>  <energy>  (39) 
-4.79

>  <cluster_rmsd>  (39) 
0.0

>  <rmsd>  (39) 
270.38

>  <cluster>  (39) 
5

$$$$
HZXVWJKCCMCLGL-HKCMIAPXNA-N
     RDKit          3D

 61 65  0  0  0  0  0  0  0  0999 V2000
  141.4876   68.3651  228.3726 H   0  0  0  0  0  0  0  0  0  0  0  0
  140.8730   68.6650  227.5110 C   0  0  0  0  0  0  0  0  0  0  0  0
  139.6450   68.0390  227.2790 C   0  0  0  0  0  0  0  0  0  0  0  0
  139.2902   67.2538  227.9628 H   0  0  0  0  0  0  0  0  0  0  0  0
  138.8690   68.4100  226.1800 C   0  0  0  0  0  0  0  0  0  0  0  0
  137.9017   67.9177  226.0011 H   0  0  0  0  0  0  0  0  0  0  0  0
  139.3180   69.4090  225.3020 C   0  0  0  0  0  0  0  0  0  0  0  0
  140.5480   70.0550  225.5430 C   0  0  0  0  0  0  0  0  0  0  0  0
  141.3220   69.6710  226.6510 C   0  0  0  0  0  0  0  0  0  0  0  0
  142.2862   70.1646  226.8425 H   0  0  0  0  0  0  0  0  0  0  0  0
  141.0130   71.2020  224.6790 C   0  0  0  0  0  0  0  0  0  0  0  0
  142.0806   71.0585  224.4563 H   0  0  0  0  0  0  0  0  0  0  0  0
  140.8226   72.1271  225.2429 H   0  0  0  0  0  0  0  0  0  0  0  0
  140.2820   71.3170  223.4020 N   0  0  0  0  0  0  0  0  0  0  0  0
  140.6180   72.3960  222.5040 C   0  0  0  0  0  0  0  0  0  0  0  0
  141.6720   72.2840  221.6590 N   0  0  0  0  0  0  0  0  0  0  0  0
  141.9770   73.2740  220.7830 C   0  0  0  0  0  0  0  0  0  0  0  0
  143.0930   73.1090  219.8890 N   0  0  0  0  0  0  0  0  0  0  0  0
  143.3810   74.0570  218.8250 C   0  0  0  0  0  0  0  0  0  0  0  0
  142.6502   73.9499  218.0098 H   0  0  0  0  0  0  0  0  0  0  0  0
  143.3205   75.0951  219.1838 H   0  0  0  0  0  0  0  0  0  0  0  0
  144.7810   73.7200  218.3280 C   0  0  0  0  0  0  0  0  0  0  0  0
  144.7872   73.6457  217.2305 H   0  0  0  0  0  0  0  0  0  0  0  0
  145.5027   74.5003  218.6113 H   0  0  0  0  0  0  0  0  0  0  0  0
  145.1490   72.3730  218.9510 C   0  0  0  0  0  0  0  0  0  0  0  0
  145.0532   71.5696  218.2057 H   0  0  0  0  0  0  0  0  0  0  0  0
  146.1894   72.3683  219.3083 H   0  0  0  0  0  0  0  0  0  0  0  0
  144.1680   72.1500  220.0970 C   0  0  0  0  0  0  0  0  0  0  0  0
  143.7756   71.1227  220.0712 H   0  0  0  0  0  0  0  0  0  0  0  0
  144.6502   72.2874  221.0761 H   0  0  0  0  0  0  0  0  0  0  0  0
  141.2150   74.4050  220.7600 N   0  0  0  0  0  0  0  0  0  0  0  0
  141.4380   75.1850  220.1020 H   0  0  0  0  0  0  0  0  0  0  0  0
  140.1710   74.5420  221.6210 C   0  0  0  0  0  0  0  0  0  0  0  0
  139.4670   75.6370  221.6140 N   0  0  0  0  0  0  0  0  0  0  0  0
  139.6540   76.7680  222.5310 C   0  0  0  0  0  0  0  0  0  0  0  0
  139.6366   76.3660  223.5548 H   0  0  0  0  0  0  0  0  0  0  0  0
  138.4950   77.7810  222.4040 C   0  0  0  0  0  0  0  0  0  0  0  0
  138.3620   78.0043  221.3352 H   0  0  0  0  0  0  0  0  0  0  0  0
  137.6306   77.2954  222.8805 H   0  0  0  0  0  0  0  0  0  0  0  0
  138.6690   79.1230  223.1450 C   0  0  0  0  0  0  0  0  0  0  0  0
  137.6900   79.6243  223.1580 H   0  0  0  0  0  0  0  0  0  0  0  0
  139.0649   78.8535  224.1353 H   0  0  0  0  0  0  0  0  0  0  0  0
  139.6930   80.1170  222.5610 C   0  0  0  0  0  0  0  0  0  0  0  0
  139.6878   80.0118  221.4661 H   0  0  0  0  0  0  0  0  0  0  0  0
  139.3851   81.1176  222.8988 H   0  0  0  0  0  0  0  0  0  0  0  0
  141.1340   79.9130  223.0560 C   0  0  0  0  0  0  0  0  0  0  0  0
  141.8290   80.2029  222.2541 H   0  0  0  0  0  0  0  0  0  0  0  0
  141.2761   80.5358  223.9515 H   0  0  0  0  0  0  0  0  0  0  0  0
  141.4090   78.4540  223.4460 C   0  0  0  0  0  0  0  0  0  0  0  0
  142.4818   78.3487  223.6649 H   0  0  0  0  0  0  0  0  0  0  0  0
  140.7800   78.2294  224.3200 H   0  0  0  0  0  0  0  0  0  0  0  0
  141.0360   77.4460  222.3520 C   0  0  0  0  0  0  0  0  0  0  0  0
  141.0347   77.9742  221.3871 H   0  0  0  0  0  0  0  0  0  0  0  0
  141.7834   76.6408  222.4076 H   0  0  0  0  0  0  0  0  0  0  0  0
  139.8720   73.5310  222.4800 N   0  0  0  0  0  0  0  0  0  0  0  0
  139.3380   70.2700  222.9770 C   0  0  0  0  0  0  0  0  0  0  0  0
  139.9029   69.4026  222.6048 H   0  0  0  0  0  0  0  0  0  0  0  0
  138.6942   70.6730  222.1813 H   0  0  0  0  0  0  0  0  0  0  0  0
  138.4620   69.8340  224.1470 C   0  0  0  0  0  0  0  0  0  0  0  0
  137.8296   68.9904  223.8333 H   0  0  0  0  0  0  0  0  0  0  0  0
  137.8312   70.6795  224.4587 H   0  0  0  0  0  0  0  0  0  0  0  0
  1  2  1  0
  2  3  2  0
  3  4  1  0
  3  5  1  0
  5  6  1  0
  5  7  2  0
  7  8  1  0
  8  9  2  0
  9 10  1  0
  8 11  1  0
 11 12  1  0
 11 13  1  0
 11 14  1  0
 14 15  1  0
 15 16  1  0
 16 17  2  0
 17 18  1  0
 18 19  1  0
 19 20  1  0
 19 21  1  0
 19 22  1  0
 22 23  1  0
 22 24  1  0
 22 25  1  0
 25 26  1  0
 25 27  1  0
 25 28  1  0
 28 29  1  0
 28 30  1  0
 17 31  1  0
 31 32  1  0
 31 33  1  0
 33 34  2  0
 34 35  1  0
 35 36  1  0
 35 37  1  0
 37 38  1  0
 37 39  1  0
 37 40  1  0
 40 41  1  0
 40 42  1  0
 40 43  1  0
 43 44  1  0
 43 45  1  0
 43 46  1  0
 46 47  1  0
 46 48  1  0
 46 49  1  0
 49 50  1  0
 49 51  1  0
 49 52  1  0
 52 53  1  0
 52 54  1  0
 33 55  1  0
 14 56  1  0
 56 57  1  0
 56 58  1  0
 56 59  1  0
 59 60  1  0
 59 61  1  0
  9  2  1  0
 55 15  2  0
 59  7  1  0
 28 18  1  0
 52 35  1  0
M  END
>  <UniqueID>  (40) 
570

>  <SMILES>  (40) 
c1ccc2c(c1)CCN(c1nc(N3CCCC3)[nH]/c(=N/C3CCCCCC3)n1)C2

>  <Energy>  (40) 
68.13884172037191

>  <Genealogy>  (40) 
c1ccc2c(c1)CCN(c1nc(N3CCCC3)[nH]c(=NC3CCCCCC3)n1)C2 (tautomer)
c1ccc2c(c1)CCN(c1nc(N3CCCC3)[nH]/c(=N/C3CCCCCC3)n1)C2 (cis-trans isomerization)
c1ccc2c(c1)CCN(c1nc(N3CCCC3)[nH]/c(=N/C3CCCCCC3)n1)C2 (3D coordinates assigned)
c1ccc2c(c1)CCN(c1nc(N3CCCC3)[nH]/c(=N/C3CCCCCC3)n1)C2 (nonaromatic ring conformer: 68.13884172037191 kcal/mol)

>  <smiles>  (40) 
c1ccc2c(c1)CCN(c1nc(NC3CCCCCC3)nc(N3CCCC3)n1)C2

>  <score_type>  (40) 
oracle

>  <origin>  (40) 
autodockgpu

>  <m_score__min__energy>  (40) 
-6.29

>  <m_primary>  (40) 
energy

>  <meeko>  (40) 
{"free_energy": -6.19, "intermolecular_energy": -9.17, "internal_energy": -0.83, "cluster_size": 9, "cluster_id": 1, "rank_in_cluster": 3}

>  <energy>  (40) 
-4.16

>  <cluster_rmsd>  (40) 
0.0

>  <rmsd>  (40) 
270.22

>  <cluster>  (40) 
6

$$$$
HZXVWJKCCMCLGL-MJPHTEBONA-O
     RDKit          3D

 62 66  0  0  0  0  0  0  0  0999 V2000
  141.9163   81.5091  222.9401 H   0  0  0  0  0  0  0  0  0  0  0  0
  141.3380   80.7030  222.4650 C   0  0  0  0  0  0  0  0  0  0  0  0
  140.4170   81.0050  221.4610 C   0  0  0  0  0  0  0  0  0  0  0  0
  140.2749   82.0481  221.1421 H   0  0  0  0  0  0  0  0  0  0  0  0
  139.6750   79.9850  220.8600 C   0  0  0  0  0  0  0  0  0  0  0  0
  138.9561   80.2280  220.0637 H   0  0  0  0  0  0  0  0  0  0  0  0
  139.8420   78.6510  221.2670 C   0  0  0  0  0  0  0  0  0  0  0  0
  140.7960   78.3410  222.2670 C   0  0  0  0  0  0  0  0  0  0  0  0
  141.5270   79.3780  222.8680 C   0  0  0  0  0  0  0  0  0  0  0  0
  142.2531   79.1463  223.6611 H   0  0  0  0  0  0  0  0  0  0  0  0
  141.0170   76.9230  222.7410 C   0  0  0  0  0  0  0  0  0  0  0  0
  140.6550   76.8328  223.7758 H   0  0  0  0  0  0  0  0  0  0  0  0
  142.0934   76.7051  222.6789 H   0  0  0  0  0  0  0  0  0  0  0  0
  140.3060   75.9530  221.9030 N   0  0  0  0  0  0  0  0  0  0  0  0
  140.8070   74.6080  221.7790 C   0  0  0  0  0  0  0  0  0  0  0  0
  140.1230   73.5800  222.3460 N   0  0  0  0  0  0  0  0  0  0  0  0
  140.5800   72.3060  222.2470 C   0  0  0  0  0  0  0  0  0  0  0  0
  139.9060   71.3310  222.7970 N   0  0  0  0  0  0  0  0  0  0  0  0
  139.1200   70.9060  222.2520 H   0  0  0  0  0  0  0  0  0  0  0  0
  140.1520   70.7760  224.1420 C   0  0  0  0  0  0  0  0  0  0  0  0
  140.8859   69.9592  224.0772 H   0  0  0  0  0  0  0  0  0  0  0  0
  138.8720   70.1150  224.7180 C   0  0  0  0  0  0  0  0  0  0  0  0
  138.3447   70.8520  225.3416 H   0  0  0  0  0  0  0  0  0  0  0  0
  138.2546   69.7873  223.8687 H   0  0  0  0  0  0  0  0  0  0  0  0
  139.1820   68.8760  225.5750 C   0  0  0  0  0  0  0  0  0  0  0  0
  138.2342   68.3690  225.8086 H   0  0  0  0  0  0  0  0  0  0  0  0
  139.8633   68.2415  224.9891 H   0  0  0  0  0  0  0  0  0  0  0  0
  139.8940   69.2020  226.8920 C   0  0  0  0  0  0  0  0  0  0  0  0
  139.3669   68.6864  227.7083 H   0  0  0  0  0  0  0  0  0  0  0  0
  140.9358   68.8653  226.7855 H   0  0  0  0  0  0  0  0  0  0  0  0
  139.9390   70.7030  227.2160 C   0  0  0  0  0  0  0  0  0  0  0  0
  138.9926   71.1636  226.8964 H   0  0  0  0  0  0  0  0  0  0  0  0
  140.0889   70.8116  228.3003 H   0  0  0  0  0  0  0  0  0  0  0  0
  141.1020   71.4130  226.5030 C   0  0  0  0  0  0  0  0  0  0  0  0
  141.3650   72.3093  227.0839 H   0  0  0  0  0  0  0  0  0  0  0  0
  141.9229   70.6833  226.4417 H   0  0  0  0  0  0  0  0  0  0  0  0
  140.7960   71.8490  225.0590 C   0  0  0  0  0  0  0  0  0  0  0  0
  140.1090   72.7068  225.1058 H   0  0  0  0  0  0  0  0  0  0  0  0
  141.7727   72.0756  224.6064 H   0  0  0  0  0  0  0  0  0  0  0  0
  141.7370   72.0680  221.5790 N   0  0  0  0  0  0  0  0  0  0  0  0
  142.4410   73.0820  221.0160 C   0  0  0  0  0  0  0  0  0  0  0  0
  143.6670   72.7910  220.3210 N   0  0  0  0  0  0  0  0  0  0  0  0
  144.8370   73.6540  220.3180 C   0  0  0  0  0  0  0  0  0  0  0  0
  144.6147   74.5999  219.8023 H   0  0  0  0  0  0  0  0  0  0  0  0
  145.1553   73.9106  221.3392 H   0  0  0  0  0  0  0  0  0  0  0  0
  145.9170   72.8810  219.5690 C   0  0  0  0  0  0  0  0  0  0  0  0
  146.4380   73.5413  218.8601 H   0  0  0  0  0  0  0  0  0  0  0  0
  146.6755   72.4785  220.2565 H   0  0  0  0  0  0  0  0  0  0  0  0
  145.1910   71.7650  218.8200 C   0  0  0  0  0  0  0  0  0  0  0  0
  145.0325   72.0495  217.7693 H   0  0  0  0  0  0  0  0  0  0  0  0
  145.7746   70.8326  218.8198 H   0  0  0  0  0  0  0  0  0  0  0  0
  143.8550   71.5880  219.5280 C   0  0  0  0  0  0  0  0  0  0  0  0
  143.0430   71.4821  218.7936 H   0  0  0  0  0  0  0  0  0  0  0  0
  143.8443   70.6836  220.1541 H   0  0  0  0  0  0  0  0  0  0  0  0
  141.9750   74.3590  221.1230 N   0  0  0  0  0  0  0  0  0  0  0  0
  142.5220   75.1530  220.7270 H   0  0  0  0  0  0  0  0  0  0  0  0
  138.9690   76.3080  221.4240 C   0  0  0  0  0  0  0  0  0  0  0  0
  138.3081   76.4963  222.2829 H   0  0  0  0  0  0  0  0  0  0  0  0
  138.5587   75.4816  220.8251 H   0  0  0  0  0  0  0  0  0  0  0  0
  139.0630   77.5670  220.5660 C   0  0  0  0  0  0  0  0  0  0  0  0
  138.0476   77.9342  220.3561 H   0  0  0  0  0  0  0  0  0  0  0  0
  139.5857   77.3124  219.6322 H   0  0  0  0  0  0  0  0  0  0  0  0
  1  2  1  0
  2  3  2  0
  3  4  1  0
  3  5  1  0
  5  6  1  0
  5  7  2  0
  7  8  1  0
  8  9  2  0
  9 10  1  0
  8 11  1  0
 11 12  1  0
 11 13  1  0
 11 14  1  0
 14 15  1  0
 15 16  2  0
 16 17  1  0
 17 18  2  0
 18 19  1  0
 18 20  1  0
 20 21  1  0
 20 22  1  0
 22 23  1  0
 22 24  1  0
 22 25  1  0
 25 26  1  0
 25 27  1  0
 25 28  1  0
 28 29  1  0
 28 30  1  0
 28 31  1  0
 31 32  1  0
 31 33  1  0
 31 34  1  0
 34 35  1  0
 34 36  1  0
 34 37  1  0
 37 38  1  0
 37 39  1  0
 17 40  1  0
 40 41  2  0
 41 42  1  0
 42 43  1  0
 43 44  1  0
 43 45  1  0
 43 46  1  0
 46 47  1  0
 46 48  1  0
 46 49  1  0
 49 50  1  0
 49 51  1  0
 49 52  1  0
 52 53  1  0
 52 54  1  0
 41 55  1  0
 55 56  1  0
 14 57  1  0
 57 58  1  0
 57 59  1  0
 57 60  1  0
 60 61  1  0
 60 62  1  0
  9  2  1  0
 55 15  1  0
 60  7  1  0
 37 20  1  0
 52 42  1  0
M  CHG  1  18   1
M  END
>  <UniqueID>  (41) 
571

>  <SMILES>  (41) 
c1ccc2c(c1)CCN(c1n/c(=[NH+]/C3CCCCCC3)nc(N3CCCC3)[nH]1)C2

>  <Energy>  (41) 
70.47531911512529

>  <Genealogy>  (41) 
c1ccc2c(c1)CCN(c1nc([NH2+]C3CCCCCC3)nc(N3CCCC3)n1)C2 (protonated)
c1ccc2c(c1)CCN(c1nc(=[NH+]C3CCCCCC3)nc(N3CCCC3)[nH]1)C2 (tautomer)
c1ccc2c(c1)CCN(c1n/c(=[NH+]/C3CCCCCC3)nc(N3CCCC3)[nH]1)C2 (cis-trans isomerization)
c1ccc2c(c1)CCN(c1n/c(=[NH+]/C3CCCCCC3)nc(N3CCCC3)[nH]1)C2 (3D coordinates assigned)
c1ccc2c(c1)CCN(c1n/c(=[NH+]/C3CCCCCC3)nc(N3CCCC3)[nH]1)C2 (nonaromatic ring conformer: 70.47531911512529 kcal/mol)

>  <smiles>  (41) 
c1ccc2c(c1)CCN(c1nc(NC3CCCCCC3)nc(N3CCCC3)n1)C2

>  <score_type>  (41) 
oracle

>  <origin>  (41) 
autodockgpu

>  <m_score__min__energy>  (41) 
-5.9199999999999999

>  <m_primary>  (41) 
energy

>  <meeko>  (41) 
{"free_energy": -5.66, "intermolecular_energy": -8.64, "internal_energy": -0.62, "cluster_size": 5, "cluster_id": 1, "rank_in_cluster": 2}

>  <energy>  (41) 
-5.92

>  <cluster_rmsd>  (41) 
0.0

>  <rmsd>  (41) 
270.56

>  <cluster>  (41) 
1

$$$$
HZXVWJKCCMCLGL-MJPHTEBONA-O
     RDKit          3D

 62 66  0  0  0  0  0  0  0  0999 V2000
  141.1686   69.0953  228.6989 H   0  0  0  0  0  0  0  0  0  0  0  0
  140.6820   69.1510  227.7140 C   0  0  0  0  0  0  0  0  0  0  0  0
  139.7100   68.2130  227.3630 C   0  0  0  0  0  0  0  0  0  0  0  0
  139.4260   67.4241  228.0751 H   0  0  0  0  0  0  0  0  0  0  0  0
  139.0970   68.2740  226.1090 C   0  0  0  0  0  0  0  0  0  0  0  0
  138.3281   67.5349  225.8396 H   0  0  0  0  0  0  0  0  0  0  0  0
  139.4570   69.2740  225.1900 C   0  0  0  0  0  0  0  0  0  0  0  0
  140.4240   70.2430  225.5570 C   0  0  0  0  0  0  0  0  0  0  0  0
  141.0380   70.1610  226.8160 C   0  0  0  0  0  0  0  0  0  0  0  0
  141.8052   70.8971  227.0983 H   0  0  0  0  0  0  0  0  0  0  0  0
  140.8480   71.3390  224.6070 C   0  0  0  0  0  0  0  0  0  0  0  0
  141.8877   71.1585  224.2963 H   0  0  0  0  0  0  0  0  0  0  0  0
  140.7537   72.3015  225.1311 H   0  0  0  0  0  0  0  0  0  0  0  0
  139.9970   71.3840  223.4140 N   0  0  0  0  0  0  0  0  0  0  0  0
  139.8190   72.6250  222.7050 C   0  0  0  0  0  0  0  0  0  0  0  0
  140.9030   73.3790  222.3850 N   0  0  0  0  0  0  0  0  0  0  0  0
  140.7580   74.5560  221.7230 C   0  0  0  0  0  0  0  0  0  0  0  0
  141.8140   75.2640  221.4210 N   0  0  0  0  0  0  0  0  0  0  0  0
  141.9240   76.2020  221.8710 H   0  0  0  0  0  0  0  0  0  0  0  0
  142.8730   74.8540  220.4790 C   0  0  0  0  0  0  0  0  0  0  0  0
  143.7917   74.6156  221.0350 H   0  0  0  0  0  0  0  0  0  0  0  0
  143.2690   76.0240  219.5390 C   0  0  0  0  0  0  0  0  0  0  0  0
  143.4972   76.9078  220.1529 H   0  0  0  0  0  0  0  0  0  0  0  0
  144.1426   75.7011  218.9537 H   0  0  0  0  0  0  0  0  0  0  0  0
  142.1510   76.3880  218.5470 C   0  0  0  0  0  0  0  0  0  0  0  0
  141.1857   76.1042  218.9917 H   0  0  0  0  0  0  0  0  0  0  0  0
  142.2246   77.4697  218.3612 H   0  0  0  0  0  0  0  0  0  0  0  0
  142.2830   75.6890  217.1890 C   0  0  0  0  0  0  0  0  0  0  0  0
  141.4982   76.0752  216.5219 H   0  0  0  0  0  0  0  0  0  0  0  0
  143.2950   75.9028  216.8145 H   0  0  0  0  0  0  0  0  0  0  0  0
  142.1460   74.1600  217.2650 C   0  0  0  0  0  0  0  0  0  0  0  0
  141.5278   73.8186  216.4216 H   0  0  0  0  0  0  0  0  0  0  0  0
  143.1579   73.7307  217.2236 H   0  0  0  0  0  0  0  0  0  0  0  0
  141.4940   73.6940  218.5740 C   0  0  0  0  0  0  0  0  0  0  0  0
  140.7250   74.4282  218.8561 H   0  0  0  0  0  0  0  0  0  0  0  0
  141.0799   72.6935  218.3805 H   0  0  0  0  0  0  0  0  0  0  0  0
  142.4730   73.5450  219.7520 C   0  0  0  0  0  0  0  0  0  0  0  0
  142.0076   72.8784  220.4929 H   0  0  0  0  0  0  0  0  0  0  0  0
  143.4037   73.1554  219.3138 H   0  0  0  0  0  0  0  0  0  0  0  0
  139.5120   74.9770  221.3890 N   0  0  0  0  0  0  0  0  0  0  0  0
  138.4160   74.2450  221.7110 C   0  0  0  0  0  0  0  0  0  0  0  0
  137.1110   74.7290  221.3450 N   0  0  0  0  0  0  0  0  0  0  0  0
  136.4230   75.8240  222.0090 C   0  0  0  0  0  0  0  0  0  0  0  0
  136.1765   75.5500  223.0454 H   0  0  0  0  0  0  0  0  0  0  0  0
  137.0477   76.7283  222.0545 H   0  0  0  0  0  0  0  0  0  0  0  0
  135.1500   76.0590  221.2040 C   0  0  0  0  0  0  0  0  0  0  0  0
  134.2903   76.1894  221.8777 H   0  0  0  0  0  0  0  0  0  0  0  0
  135.2237   76.9685  220.5897 H   0  0  0  0  0  0  0  0  0  0  0  0
  134.9630   74.8140  220.3400 C   0  0  0  0  0  0  0  0  0  0  0  0
  134.2334   74.1331  220.8026 H   0  0  0  0  0  0  0  0  0  0  0  0
  134.5807   75.0692  219.3406 H   0  0  0  0  0  0  0  0  0  0  0  0
  136.3320   74.1510  220.2630 C   0  0  0  0  0  0  0  0  0  0  0  0
  136.2391   73.0630  220.3961 H   0  0  0  0  0  0  0  0  0  0  0  0
  136.8090   74.3174  219.2859 H   0  0  0  0  0  0  0  0  0  0  0  0
  138.5720   73.0660  222.3770 N   0  0  0  0  0  0  0  0  0  0  0  0
  137.7380   72.5100  222.6640 H   0  0  0  0  0  0  0  0  0  0  0  0
  139.5620   70.1130  222.8320 C   0  0  0  0  0  0  0  0  0  0  0  0
  140.4423   69.5193  222.5448 H   0  0  0  0  0  0  0  0  0  0  0  0
  138.9474   70.3056  221.9402 H   0  0  0  0  0  0  0  0  0  0  0  0
  138.7420   69.3440  223.8640 C   0  0  0  0  0  0  0  0  0  0  0  0
  138.5697   68.3220  223.4954 H   0  0  0  0  0  0  0  0  0  0  0  0
  137.7876   69.8706  224.0115 H   0  0  0  0  0  0  0  0  0  0  0  0
  1  2  1  0
  2  3  2  0
  3  4  1  0
  3  5  1  0
  5  6  1  0
  5  7  2  0
  7  8  1  0
  8  9  2  0
  9 10  1  0
  8 11  1  0
 11 12  1  0
 11 13  1  0
 11 14  1  0
 14 15  1  0
 15 16  2  0
 16 17  1  0
 17 18  2  0
 18 19  1  0
 18 20  1  0
 20 21  1  0
 20 22  1  0
 22 23  1  0
 22 24  1  0
 22 25  1  0
 25 26  1  0
 25 27  1  0
 25 28  1  0
 28 29  1  0
 28 30  1  0
 28 31  1  0
 31 32  1  0
 31 33  1  0
 31 34  1  0
 34 35  1  0
 34 36  1  0
 34 37  1  0
 37 38  1  0
 37 39  1  0
 17 40  1  0
 40 41  2  0
 41 42  1  0
 42 43  1  0
 43 44  1  0
 43 45  1  0
 43 46  1  0
 46 47  1  0
 46 48  1  0
 46 49  1  0
 49 50  1  0
 49 51  1  0
 49 52  1  0
 52 53  1  0
 52 54  1  0
 41 55  1  0
 55 56  1  0
 14 57  1  0
 57 58  1  0
 57 59  1  0
 57 60  1  0
 60 61  1  0
 60 62  1  0
  9  2  1  0
 55 15  1  0
 60  7  1  0
 37 20  1  0
 52 42  1  0
M  CHG  1  18   1
M  END
>  <UniqueID>  (42) 
571

>  <SMILES>  (42) 
c1ccc2c(c1)CCN(c1n/c(=[NH+]/C3CCCCCC3)nc(N3CCCC3)[nH]1)C2

>  <Energy>  (42) 
70.47531911512529

>  <Genealogy>  (42) 
c1ccc2c(c1)CCN(c1nc([NH2+]C3CCCCCC3)nc(N3CCCC3)n1)C2 (protonated)
c1ccc2c(c1)CCN(c1nc(=[NH+]C3CCCCCC3)nc(N3CCCC3)[nH]1)C2 (tautomer)
c1ccc2c(c1)CCN(c1n/c(=[NH+]/C3CCCCCC3)nc(N3CCCC3)[nH]1)C2 (cis-trans isomerization)
c1ccc2c(c1)CCN(c1n/c(=[NH+]/C3CCCCCC3)nc(N3CCCC3)[nH]1)C2 (3D coordinates assigned)
c1ccc2c(c1)CCN(c1n/c(=[NH+]/C3CCCCCC3)nc(N3CCCC3)[nH]1)C2 (nonaromatic ring conformer: 70.47531911512529 kcal/mol)

>  <smiles>  (42) 
c1ccc2c(c1)CCN(c1nc(NC3CCCCCC3)nc(N3CCCC3)n1)C2

>  <score_type>  (42) 
oracle

>  <origin>  (42) 
autodockgpu

>  <m_score__min__energy>  (42) 
-5.9199999999999999

>  <m_primary>  (42) 
energy

>  <meeko>  (42) 
{"free_energy": -4.17, "intermolecular_energy": -7.15, "internal_energy": -0.84, "cluster_size": 2, "cluster_id": 8, "rank_in_cluster": 2}

>  <energy>  (42) 
-5.66

>  <cluster_rmsd>  (42) 
1.17

>  <rmsd>  (42) 
270.57

>  <cluster>  (42) 
1

$$$$
HZXVWJKCCMCLGL-MJPHTEBONA-O
     RDKit          3D

 62 66  0  0  0  0  0  0  0  0999 V2000
  141.0574   81.6764  224.7778 H   0  0  0  0  0  0  0  0  0  0  0  0
  141.1850   81.0760  223.8650 C   0  0  0  0  0  0  0  0  0  0  0  0
  141.7660   81.6470  222.7320 C   0  0  0  0  0  0  0  0  0  0  0  0
  142.1016   82.6943  222.7553 H   0  0  0  0  0  0  0  0  0  0  0  0
  141.9220   80.8900  221.5680 C   0  0  0  0  0  0  0  0  0  0  0  0
  142.3869   81.3427  220.6798 H   0  0  0  0  0  0  0  0  0  0  0  0
  141.4890   79.5550  221.5250 C   0  0  0  0  0  0  0  0  0  0  0  0
  140.9240   78.9680  222.6840 C   0  0  0  0  0  0  0  0  0  0  0  0
  140.7650   79.7440  223.8430 C   0  0  0  0  0  0  0  0  0  0  0  0
  140.3069   79.3004  224.7393 H   0  0  0  0  0  0  0  0  0  0  0  0
  140.4430   77.5350  222.6930 C   0  0  0  0  0  0  0  0  0  0  0  0
  139.3460   77.5280  222.7735 H   0  0  0  0  0  0  0  0  0  0  0  0
  140.9051   77.0241  223.5506 H   0  0  0  0  0  0  0  0  0  0  0  0
  140.8340   76.8230  221.4730 N   0  0  0  0  0  0  0  0  0  0  0  0
  141.0160   75.3940  221.5030 C   0  0  0  0  0  0  0  0  0  0  0  0
  140.0490   74.6030  222.0370 N   0  0  0  0  0  0  0  0  0  0  0  0
  140.2040   73.2550  222.0820 C   0  0  0  0  0  0  0  0  0  0  0  0
  139.2600   72.5110  222.5960 N   0  0  0  0  0  0  0  0  0  0  0  0
  138.6280   72.9410  223.3110 H   0  0  0  0  0  0  0  0  0  0  0  0
  139.0120   71.0960  222.2610 C   0  0  0  0  0  0  0  0  0  0  0  0
  137.9298   70.9211  222.1699 H   0  0  0  0  0  0  0  0  0  0  0  0
  139.4710   70.1600  223.4100 C   0  0  0  0  0  0  0  0  0  0  0  0
  140.5695   70.1036  223.4011 H   0  0  0  0  0  0  0  0  0  0  0  0
  139.0944   70.5812  224.3538 H   0  0  0  0  0  0  0  0  0  0  0  0
  138.9030   68.7360  223.2750 C   0  0  0  0  0  0  0  0  0  0  0  0
  139.3599   68.1044  224.0511 H   0  0  0  0  0  0  0  0  0  0  0  0
  137.8114   68.8124  223.3866 H   0  0  0  0  0  0  0  0  0  0  0  0
  139.1710   68.0950  221.9090 C   0  0  0  0  0  0  0  0  0  0  0  0
  140.2028   68.3323  221.6105 H   0  0  0  0  0  0  0  0  0  0  0  0
  139.0053   67.0136  222.0234 H   0  0  0  0  0  0  0  0  0  0  0  0
  138.2220   68.5800  220.8020 C   0  0  0  0  0  0  0  0  0  0  0  0
  138.0302   67.7482  220.1083 H   0  0  0  0  0  0  0  0  0  0  0  0
  137.2909   68.9228  221.2769 H   0  0  0  0  0  0  0  0  0  0  0  0
  138.8160   69.7570  220.0140 C   0  0  0  0  0  0  0  0  0  0  0  0
  139.4894   69.3513  219.2446 H   0  0  0  0  0  0  0  0  0  0  0  0
  137.9664   70.3122  219.5897 H   0  0  0  0  0  0  0  0  0  0  0  0
  139.6110   70.7570  220.8710 C   0  0  0  0  0  0  0  0  0  0  0  0
  140.6150   70.3373  221.0316 H   0  0  0  0  0  0  0  0  0  0  0  0
  139.5996   71.7016  220.3074 H   0  0  0  0  0  0  0  0  0  0  0  0
  141.3430   72.7030  221.5920 N   0  0  0  0  0  0  0  0  0  0  0  0
  142.3250   73.4770  221.0660 C   0  0  0  0  0  0  0  0  0  0  0  0
  143.5210   72.8540  220.5610 N   0  0  0  0  0  0  0  0  0  0  0  0
  143.5850   71.5000  220.0360 C   0  0  0  0  0  0  0  0  0  0  0  0
  143.3814   70.7695  220.8328 H   0  0  0  0  0  0  0  0  0  0  0  0
  142.8362   71.3339  219.2475 H   0  0  0  0  0  0  0  0  0  0  0  0
  145.0050   71.3300  219.5090 C   0  0  0  0  0  0  0  0  0  0  0  0
  145.4139   70.3569  219.8186 H   0  0  0  0  0  0  0  0  0  0  0  0
  145.0337   71.3604  218.4098 H   0  0  0  0  0  0  0  0  0  0  0  0
  145.8190   72.4670  220.1220 C   0  0  0  0  0  0  0  0  0  0  0  0
  146.3796   72.1073  220.9974 H   0  0  0  0  0  0  0  0  0  0  0  0
  146.5532   72.8684  219.4079 H   0  0  0  0  0  0  0  0  0  0  0  0
  144.8090   73.5260  220.5390 C   0  0  0  0  0  0  0  0  0  0  0  0
  145.0542   73.9179  221.5371 H   0  0  0  0  0  0  0  0  0  0  0  0
  144.8088   74.3814  219.8475 H   0  0  0  0  0  0  0  0  0  0  0  0
  142.1620   74.8290  221.0270 N   0  0  0  0  0  0  0  0  0  0  0  0
  142.9220   75.4400  220.6600 H   0  0  0  0  0  0  0  0  0  0  0  0
  140.7750   77.5500  220.2040 C   0  0  0  0  0  0  0  0  0  0  0  0
  139.7469   77.8988  220.0268 H   0  0  0  0  0  0  0  0  0  0  0  0
  141.0789   76.8855  219.3818 H   0  0  0  0  0  0  0  0  0  0  0  0
  141.7170   78.7490  220.2710 C   0  0  0  0  0  0  0  0  0  0  0  0
  141.5423   79.3914  219.3953 H   0  0  0  0  0  0  0  0  0  0  0  0
  142.7523   78.3773  220.2804 H   0  0  0  0  0  0  0  0  0  0  0  0
  1  2  1  0
  2  3  2  0
  3  4  1  0
  3  5  1  0
  5  6  1  0
  5  7  2  0
  7  8  1  0
  8  9  2  0
  9 10  1  0
  8 11  1  0
 11 12  1  0
 11 13  1  0
 11 14  1  0
 14 15  1  0
 15 16  2  0
 16 17  1  0
 17 18  2  0
 18 19  1  0
 18 20  1  0
 20 21  1  0
 20 22  1  0
 22 23  1  0
 22 24  1  0
 22 25  1  0
 25 26  1  0
 25 27  1  0
 25 28  1  0
 28 29  1  0
 28 30  1  0
 28 31  1  0
 31 32  1  0
 31 33  1  0
 31 34  1  0
 34 35  1  0
 34 36  1  0
 34 37  1  0
 37 38  1  0
 37 39  1  0
 17 40  1  0
 40 41  2  0
 41 42  1  0
 42 43  1  0
 43 44  1  0
 43 45  1  0
 43 46  1  0
 46 47  1  0
 46 48  1  0
 46 49  1  0
 49 50  1  0
 49 51  1  0
 49 52  1  0
 52 53  1  0
 52 54  1  0
 41 55  1  0
 55 56  1  0
 14 57  1  0
 57 58  1  0
 57 59  1  0
 57 60  1  0
 60 61  1  0
 60 62  1  0
  9  2  1  0
 55 15  1  0
 60  7  1  0
 37 20  1  0
 52 42  1  0
M  CHG  1  18   1
M  END
>  <UniqueID>  (43) 
571

>  <SMILES>  (43) 
c1ccc2c(c1)CCN(c1n/c(=[NH+]/C3CCCCCC3)nc(N3CCCC3)[nH]1)C2

>  <Energy>  (43) 
70.47531911512529

>  <Genealogy>  (43) 
c1ccc2c(c1)CCN(c1nc([NH2+]C3CCCCCC3)nc(N3CCCC3)n1)C2 (protonated)
c1ccc2c(c1)CCN(c1nc(=[NH+]C3CCCCCC3)nc(N3CCCC3)[nH]1)C2 (tautomer)
c1ccc2c(c1)CCN(c1n/c(=[NH+]/C3CCCCCC3)nc(N3CCCC3)[nH]1)C2 (cis-trans isomerization)
c1ccc2c(c1)CCN(c1n/c(=[NH+]/C3CCCCCC3)nc(N3CCCC3)[nH]1)C2 (3D coordinates assigned)
c1ccc2c(c1)CCN(c1n/c(=[NH+]/C3CCCCCC3)nc(N3CCCC3)[nH]1)C2 (nonaromatic ring conformer: 70.47531911512529 kcal/mol)

>  <smiles>  (43) 
c1ccc2c(c1)CCN(c1nc(NC3CCCCCC3)nc(N3CCCC3)n1)C2

>  <score_type>  (43) 
oracle

>  <origin>  (43) 
autodockgpu

>  <m_score__min__energy>  (43) 
-5.9199999999999999

>  <m_primary>  (43) 
energy

>  <meeko>  (43) 
{"free_energy": -5.17, "intermolecular_energy": -8.16, "internal_energy": -0.49, "cluster_size": 1, "cluster_id": 4, "rank_in_cluster": 1}

>  <energy>  (43) 
-5.63

>  <cluster_rmsd>  (43) 
1.61

>  <rmsd>  (43) 
269.98

>  <cluster>  (43) 
1

$$$$
HZXVWJKCCMCLGL-MJPHTEBONA-O
     RDKit          3D

 62 66  0  0  0  0  0  0  0  0999 V2000
  147.3625   71.9926  220.4070 H   0  0  0  0  0  0  0  0  0  0  0  0
  146.3080   72.0720  220.1040 C   0  0  0  0  0  0  0  0  0  0  0  0
  145.7300   71.0690  219.3250 C   0  0  0  0  0  0  0  0  0  0  0  0
  146.3277   70.1970  219.0211 H   0  0  0  0  0  0  0  0  0  0  0  0
  144.3930   71.1700  218.9300 C   0  0  0  0  0  0  0  0  0  0  0  0
  143.9405   70.3736  218.3209 H   0  0  0  0  0  0  0  0  0  0  0  0
  143.6250   72.2830  219.3070 C   0  0  0  0  0  0  0  0  0  0  0  0
  144.2040   73.2880  220.1200 C   0  0  0  0  0  0  0  0  0  0  0  0
  145.5500   73.1770  220.5000 C   0  0  0  0  0  0  0  0  0  0  0  0
  146.0115   73.9648  221.1135 H   0  0  0  0  0  0  0  0  0  0  0  0
  143.4210   74.5070  220.5540 C   0  0  0  0  0  0  0  0  0  0  0  0
  143.8314   75.3930  220.0473 H   0  0  0  0  0  0  0  0  0  0  0  0
  143.5102   74.6001  221.6464 H   0  0  0  0  0  0  0  0  0  0  0  0
  141.9980   74.3860  220.2210 N   0  0  0  0  0  0  0  0  0  0  0  0
  141.0150   75.0800  221.0100 C   0  0  0  0  0  0  0  0  0  0  0  0
  139.8110   74.4970  221.2520 N   0  0  0  0  0  0  0  0  0  0  0  0
  138.8670   75.1370  221.9880 C   0  0  0  0  0  0  0  0  0  0  0  0
  137.7170   74.5570  222.2120 N   0  0  0  0  0  0  0  0  0  0  0  0
  137.6830   73.7840  222.9160 H   0  0  0  0  0  0  0  0  0  0  0  0
  136.4470   74.8950  221.5410 C   0  0  0  0  0  0  0  0  0  0  0  0
  136.4029   74.3987  220.5603 H   0  0  0  0  0  0  0  0  0  0  0  0
  136.3680   76.4110  221.2220 C   0  0  0  0  0  0  0  0  0  0  0  0
  137.3172   76.8829  221.5156 H   0  0  0  0  0  0  0  0  0  0  0  0
  136.1802   76.5156  220.1432 H   0  0  0  0  0  0  0  0  0  0  0  0
  135.2180   77.1120  221.9660 C   0  0  0  0  0  0  0  0  0  0  0  0
  135.0682   78.1052  221.5175 H   0  0  0  0  0  0  0  0  0  0  0  0
  134.3308   76.4693  221.8665 H   0  0  0  0  0  0  0  0  0  0  0  0
  135.4760   77.2920  223.4660 C   0  0  0  0  0  0  0  0  0  0  0  0
  136.2223   78.0895  223.5966 H   0  0  0  0  0  0  0  0  0  0  0  0
  134.5102   77.5401  223.9303 H   0  0  0  0  0  0  0  0  0  0  0  0
  135.9950   76.0240  224.1610 C   0  0  0  0  0  0  0  0  0  0  0  0
  137.0320   75.8436  223.8416 H   0  0  0  0  0  0  0  0  0  0  0  0
  135.9344   76.1841  225.2476 H   0  0  0  0  0  0  0  0  0  0  0  0
  135.1470   74.7870  223.8160 C   0  0  0  0  0  0  0  0  0  0  0  0
  135.4788   73.9540  224.4531 H   0  0  0  0  0  0  0  0  0  0  0  0
  134.0976   75.0678  223.9889 H   0  0  0  0  0  0  0  0  0  0  0  0
  135.2450   74.3380  222.3470 C   0  0  0  0  0  0  0  0  0  0  0  0
  135.3125   73.2401  222.3351 H   0  0  0  0  0  0  0  0  0  0  0  0
  134.3476   74.7411  221.8548 H   0  0  0  0  0  0  0  0  0  0  0  0
  139.1350   76.3740  222.4770 N   0  0  0  0  0  0  0  0  0  0  0  0
  140.3250   76.9790  222.2360 C   0  0  0  0  0  0  0  0  0  0  0  0
  140.5700   78.2940  222.7670 N   0  0  0  0  0  0  0  0  0  0  0  0
  141.7740   78.6820  223.4840 C   0  0  0  0  0  0  0  0  0  0  0  0
  141.8438   78.1397  224.4385 H   0  0  0  0  0  0  0  0  0  0  0  0
  142.6826   78.4444  222.9113 H   0  0  0  0  0  0  0  0  0  0  0  0
  141.6400   80.1800  223.7320 C   0  0  0  0  0  0  0  0  0  0  0  0
  141.9279   80.4237  224.7653 H   0  0  0  0  0  0  0  0  0  0  0  0
  142.2962   80.7591  223.0656 H   0  0  0  0  0  0  0  0  0  0  0  0
  140.1690   80.5150  223.4980 C   0  0  0  0  0  0  0  0  0  0  0  0
  139.6325   80.5726  224.4566 H   0  0  0  0  0  0  0  0  0  0  0  0
  140.0508   81.4888  223.0004 H   0  0  0  0  0  0  0  0  0  0  0  0
  139.6130   79.3810  222.6470 C   0  0  0  0  0  0  0  0  0  0  0  0
  138.6275   79.0676  223.0220 H   0  0  0  0  0  0  0  0  0  0  0  0
  139.4768   79.6884  221.5996 H   0  0  0  0  0  0  0  0  0  0  0  0
  141.2660   76.3290  221.4940 N   0  0  0  0  0  0  0  0  0  0  0  0
  142.1720   76.7950  221.2700 H   0  0  0  0  0  0  0  0  0  0  0  0
  141.6430   73.7720  218.9400 C   0  0  0  0  0  0  0  0  0  0  0  0
  142.0926   74.3486  218.1182 H   0  0  0  0  0  0  0  0  0  0  0  0
  140.5493   73.7660  218.8229 H   0  0  0  0  0  0  0  0  0  0  0  0
  142.1710   72.3400  218.9080 C   0  0  0  0  0  0  0  0  0  0  0  0
  142.0632   71.9410  217.8886 H   0  0  0  0  0  0  0  0  0  0  0  0
  141.5906   71.7398  219.6241 H   0  0  0  0  0  0  0  0  0  0  0  0
  1  2  1  0
  2  3  2  0
  3  4  1  0
  3  5  1  0
  5  6  1  0
  5  7  2  0
  7  8  1  0
  8  9  2  0
  9 10  1  0
  8 11  1  0
 11 12  1  0
 11 13  1  0
 11 14  1  0
 14 15  1  0
 15 16  2  0
 16 17  1  0
 17 18  2  0
 18 19  1  0
 18 20  1  0
 20 21  1  0
 20 22  1  0
 22 23  1  0
 22 24  1  0
 22 25  1  0
 25 26  1  0
 25 27  1  0
 25 28  1  0
 28 29  1  0
 28 30  1  0
 28 31  1  0
 31 32  1  0
 31 33  1  0
 31 34  1  0
 34 35  1  0
 34 36  1  0
 34 37  1  0
 37 38  1  0
 37 39  1  0
 17 40  1  0
 40 41  2  0
 41 42  1  0
 42 43  1  0
 43 44  1  0
 43 45  1  0
 43 46  1  0
 46 47  1  0
 46 48  1  0
 46 49  1  0
 49 50  1  0
 49 51  1  0
 49 52  1  0
 52 53  1  0
 52 54  1  0
 41 55  1  0
 55 56  1  0
 14 57  1  0
 57 58  1  0
 57 59  1  0
 57 60  1  0
 60 61  1  0
 60 62  1  0
  9  2  1  0
 55 15  1  0
 60  7  1  0
 37 20  1  0
 52 42  1  0
M  CHG  1  18   1
M  END
>  <UniqueID>  (44) 
571

>  <SMILES>  (44) 
c1ccc2c(c1)CCN(c1n/c(=[NH+]/C3CCCCCC3)nc(N3CCCC3)[nH]1)C2

>  <Energy>  (44) 
70.47531911512529

>  <Genealogy>  (44) 
c1ccc2c(c1)CCN(c1nc([NH2+]C3CCCCCC3)nc(N3CCCC3)n1)C2 (protonated)
c1ccc2c(c1)CCN(c1nc(=[NH+]C3CCCCCC3)nc(N3CCCC3)[nH]1)C2 (tautomer)
c1ccc2c(c1)CCN(c1n/c(=[NH+]/C3CCCCCC3)nc(N3CCCC3)[nH]1)C2 (cis-trans isomerization)
c1ccc2c(c1)CCN(c1n/c(=[NH+]/C3CCCCCC3)nc(N3CCCC3)[nH]1)C2 (3D coordinates assigned)
c1ccc2c(c1)CCN(c1n/c(=[NH+]/C3CCCCCC3)nc(N3CCCC3)[nH]1)C2 (nonaromatic ring conformer: 70.47531911512529 kcal/mol)

>  <smiles>  (44) 
c1ccc2c(c1)CCN(c1nc(NC3CCCCCC3)nc(N3CCCC3)n1)C2

>  <score_type>  (44) 
oracle

>  <origin>  (44) 
autodockgpu

>  <m_score__min__energy>  (44) 
-5.9199999999999999

>  <m_primary>  (44) 
energy

>  <meeko>  (44) 
{"free_energy": -4.74, "intermolecular_energy": -7.72, "internal_energy": -0.83, "cluster_size": 2, "cluster_id": 7, "rank_in_cluster": 1}

>  <energy>  (44) 
-5.33

>  <cluster_rmsd>  (44) 
1.81

>  <rmsd>  (44) 
269.75

>  <cluster>  (44) 
1

$$$$
HZXVWJKCCMCLGL-MJPHTEBONA-O
     RDKit          3D

 62 66  0  0  0  0  0  0  0  0999 V2000
  141.9359   69.7044  229.3775 H   0  0  0  0  0  0  0  0  0  0  0  0
  141.2630   69.5250  228.5260 C   0  0  0  0  0  0  0  0  0  0  0  0
  140.3180   68.5000  228.5890 C   0  0  0  0  0  0  0  0  0  0  0  0
  140.2437   67.8766  229.4923 H   0  0  0  0  0  0  0  0  0  0  0  0
  139.4660   68.2640  227.5070 C   0  0  0  0  0  0  0  0  0  0  0  0
  138.7175   67.4601  227.5654 H   0  0  0  0  0  0  0  0  0  0  0  0
  139.5600   69.0470  226.3460 C   0  0  0  0  0  0  0  0  0  0  0  0
  140.5010   70.1050  226.2910 C   0  0  0  0  0  0  0  0  0  0  0  0
  141.3560   70.3240  227.3830 C   0  0  0  0  0  0  0  0  0  0  0  0
  142.1038   71.1295  227.3387 H   0  0  0  0  0  0  0  0  0  0  0  0
  140.6430   70.9790  225.0660 C   0  0  0  0  0  0  0  0  0  0  0  0
  141.6121   70.7699  224.5895 H   0  0  0  0  0  0  0  0  0  0  0  0
  140.5789   72.0296  225.3855 H   0  0  0  0  0  0  0  0  0  0  0  0
  139.5730   70.7310  224.0950 N   0  0  0  0  0  0  0  0  0  0  0  0
  139.1630   71.7790  223.1960 C   0  0  0  0  0  0  0  0  0  0  0  0
  140.0860   72.6520  222.7130 N   0  0  0  0  0  0  0  0  0  0  0  0
  139.7210   73.6510  221.8700 C   0  0  0  0  0  0  0  0  0  0  0  0
  140.6240   74.4780  221.4150 N   0  0  0  0  0  0  0  0  0  0  0  0
  140.6010   75.4690  221.7500 H   0  0  0  0  0  0  0  0  0  0  0  0
  141.6830   74.1330  220.4460 C   0  0  0  0  0  0  0  0  0  0  0  0
  141.2582   74.0918  219.4322 H   0  0  0  0  0  0  0  0  0  0  0  0
  142.2350   72.7060  220.7040 C   0  0  0  0  0  0  0  0  0  0  0  0
  142.7814   72.7066  221.6587 H   0  0  0  0  0  0  0  0  0  0  0  0
  141.3785   72.0161  220.7279 H   0  0  0  0  0  0  0  0  0  0  0  0
  143.1860   72.2310  219.5920 C   0  0  0  0  0  0  0  0  0  0  0  0
  143.0383   71.1508  219.4461 H   0  0  0  0  0  0  0  0  0  0  0  0
  142.9433   72.8122  218.6902 H   0  0  0  0  0  0  0  0  0  0  0  0
  144.6660   72.4800  219.9020 C   0  0  0  0  0  0  0  0  0  0  0  0
  144.9598   71.8284  220.7381 H   0  0  0  0  0  0  0  0  0  0  0  0
  145.2276   72.2621  218.9816 H   0  0  0  0  0  0  0  0  0  0  0  0
  144.9820   73.9330  220.2860 C   0  0  0  0  0  0  0  0  0  0  0  0
  144.8837   74.0410  221.3763 H   0  0  0  0  0  0  0  0  0  0  0  0
  146.0065   74.1559  219.9534 H   0  0  0  0  0  0  0  0  0  0  0  0
  144.0350   74.9310  219.6020 C   0  0  0  0  0  0  0  0  0  0  0  0
  144.5830   75.8711  219.4412 H   0  0  0  0  0  0  0  0  0  0  0  0
  143.7072   74.4614  218.6629 H   0  0  0  0  0  0  0  0  0  0  0  0
  142.7610   75.2470  220.4050 C   0  0  0  0  0  0  0  0  0  0  0  0
  143.0619   75.4610  221.4412 H   0  0  0  0  0  0  0  0  0  0  0  0
  142.2889   76.0943  219.8861 H   0  0  0  0  0  0  0  0  0  0  0  0
  138.4160   73.7750  221.5180 N   0  0  0  0  0  0  0  0  0  0  0  0
  137.4770   72.9210  221.9980 C   0  0  0  0  0  0  0  0  0  0  0  0
  136.1030   73.0890  221.6060 N   0  0  0  0  0  0  0  0  0  0  0  0
  135.2910   72.0520  220.9880 C   0  0  0  0  0  0  0  0  0  0  0  0
  135.6831   71.8001  219.9916 H   0  0  0  0  0  0  0  0  0  0  0  0
  135.2960   71.1246  221.5796 H   0  0  0  0  0  0  0  0  0  0  0  0
  133.8900   72.6410  220.8750 C   0  0  0  0  0  0  0  0  0  0  0  0
  133.4634   72.4252  219.8843 H   0  0  0  0  0  0  0  0  0  0  0  0
  133.2098   72.2093  221.6240 H   0  0  0  0  0  0  0  0  0  0  0  0
  134.0500   74.1470  221.0670 C   0  0  0  0  0  0  0  0  0  0  0  0
  134.0611   74.6578  220.0928 H   0  0  0  0  0  0  0  0  0  0  0  0
  133.2169   74.5708  221.6470 H   0  0  0  0  0  0  0  0  0  0  0  0
  135.3810   74.3380  221.7800 C   0  0  0  0  0  0  0  0  0  0  0  0
  135.9412   75.1708  221.3298 H   0  0  0  0  0  0  0  0  0  0  0  0
  135.2406   74.5811  222.8436 H   0  0  0  0  0  0  0  0  0  0  0  0
  137.8540   71.9220  222.8460 N   0  0  0  0  0  0  0  0  0  0  0  0
  137.1400   71.2810  223.2530 H   0  0  0  0  0  0  0  0  0  0  0  0
  139.1330   69.3490  223.8950 C   0  0  0  0  0  0  0  0  0  0  0  0
  139.9834   68.7365  223.5607 H   0  0  0  0  0  0  0  0  0  0  0  0
  138.3422   69.3190  223.1310 H   0  0  0  0  0  0  0  0  0  0  0  0
  138.5950   68.8000  225.2130 C   0  0  0  0  0  0  0  0  0  0  0  0
  138.4331   67.7168  225.1102 H   0  0  0  0  0  0  0  0  0  0  0  0
  137.6508   69.3152  225.4434 H   0  0  0  0  0  0  0  0  0  0  0  0
  1  2  1  0
  2  3  2  0
  3  4  1  0
  3  5  1  0
  5  6  1  0
  5  7  2  0
  7  8  1  0
  8  9  2  0
  9 10  1  0
  8 11  1  0
 11 12  1  0
 11 13  1  0
 11 14  1  0
 14 15  1  0
 15 16  2  0
 16 17  1  0
 17 18  2  0
 18 19  1  0
 18 20  1  0
 20 21  1  0
 20 22  1  0
 22 23  1  0
 22 24  1  0
 22 25  1  0
 25 26  1  0
 25 27  1  0
 25 28  1  0
 28 29  1  0
 28 30  1  0
 28 31  1  0
 31 32  1  0
 31 33  1  0
 31 34  1  0
 34 35  1  0
 34 36  1  0
 34 37  1  0
 37 38  1  0
 37 39  1  0
 17 40  1  0
 40 41  2  0
 41 42  1  0
 42 43  1  0
 43 44  1  0
 43 45  1  0
 43 46  1  0
 46 47  1  0
 46 48  1  0
 46 49  1  0
 49 50  1  0
 49 51  1  0
 49 52  1  0
 52 53  1  0
 52 54  1  0
 41 55  1  0
 55 56  1  0
 14 57  1  0
 57 58  1  0
 57 59  1  0
 57 60  1  0
 60 61  1  0
 60 62  1  0
  9  2  1  0
 55 15  1  0
 60  7  1  0
 37 20  1  0
 52 42  1  0
M  CHG  1  18   1
M  END
>  <UniqueID>  (45) 
571

>  <SMILES>  (45) 
c1ccc2c(c1)CCN(c1n/c(=[NH+]/C3CCCCCC3)nc(N3CCCC3)[nH]1)C2

>  <Energy>  (45) 
70.47531911512529

>  <Genealogy>  (45) 
c1ccc2c(c1)CCN(c1nc([NH2+]C3CCCCCC3)nc(N3CCCC3)n1)C2 (protonated)
c1ccc2c(c1)CCN(c1nc(=[NH+]C3CCCCCC3)nc(N3CCCC3)[nH]1)C2 (tautomer)
c1ccc2c(c1)CCN(c1n/c(=[NH+]/C3CCCCCC3)nc(N3CCCC3)[nH]1)C2 (cis-trans isomerization)
c1ccc2c(c1)CCN(c1n/c(=[NH+]/C3CCCCCC3)nc(N3CCCC3)[nH]1)C2 (3D coordinates assigned)
c1ccc2c(c1)CCN(c1n/c(=[NH+]/C3CCCCCC3)nc(N3CCCC3)[nH]1)C2 (nonaromatic ring conformer: 70.47531911512529 kcal/mol)

>  <smiles>  (45) 
c1ccc2c(c1)CCN(c1nc(NC3CCCCCC3)nc(N3CCCC3)n1)C2

>  <score_type>  (45) 
oracle

>  <origin>  (45) 
autodockgpu

>  <m_score__min__energy>  (45) 
-5.9199999999999999

>  <m_primary>  (45) 
energy

>  <meeko>  (45) 
{"free_energy": -4.67, "intermolecular_energy": -7.65, "internal_energy": -0.58, "cluster_size": 2, "cluster_id": 8, "rank_in_cluster": 1}

>  <energy>  (45) 
-5.26

>  <cluster_rmsd>  (45) 
1.59

>  <rmsd>  (45) 
269.83

>  <cluster>  (45) 
1

$$$$
HZXVWJKCCMCLGL-MJPHTEBONA-O
     RDKit          3D

 62 66  0  0  0  0  0  0  0  0999 V2000
  147.2337   67.4073  218.9377 H   0  0  0  0  0  0  0  0  0  0  0  0
  146.1480   67.5590  219.0290 C   0  0  0  0  0  0  0  0  0  0  0  0
  145.2810   66.4720  218.9130 C   0  0  0  0  0  0  0  0  0  0  0  0
  145.6852   65.4644  218.7360 H   0  0  0  0  0  0  0  0  0  0  0  0
  143.9010   66.6600  219.0210 C   0  0  0  0  0  0  0  0  0  0  0  0
  143.2229   65.7981  218.9356 H   0  0  0  0  0  0  0  0  0  0  0  0
  143.3750   67.9440  219.2380 C   0  0  0  0  0  0  0  0  0  0  0  0
  144.2560   69.0440  219.3820 C   0  0  0  0  0  0  0  0  0  0  0  0
  145.6400   68.8400  219.2610 C   0  0  0  0  0  0  0  0  0  0  0  0
  146.3283   69.6935  219.3493 H   0  0  0  0  0  0  0  0  0  0  0  0
  143.7430   70.4460  219.6180 C   0  0  0  0  0  0  0  0  0  0  0  0
  143.9443   71.0541  218.7237 H   0  0  0  0  0  0  0  0  0  0  0  0
  144.2594   70.8555  220.4987 H   0  0  0  0  0  0  0  0  0  0  0  0
  142.3020   70.4600  219.8870 N   0  0  0  0  0  0  0  0  0  0  0  0
  141.7310   71.5140  220.6850 C   0  0  0  0  0  0  0  0  0  0  0  0
  140.9730   71.2020  221.7700 N   0  0  0  0  0  0  0  0  0  0  0  0
  140.4190   72.1790  222.5320 C   0  0  0  0  0  0  0  0  0  0  0  0
  139.6980   71.8580  223.5730 N   0  0  0  0  0  0  0  0  0  0  0  0
  138.7280   72.2450  223.6400 H   0  0  0  0  0  0  0  0  0  0  0  0
  140.1420   70.9940  224.6840 C   0  0  0  0  0  0  0  0  0  0  0  0
  140.9815   70.3655  224.3520 H   0  0  0  0  0  0  0  0  0  0  0  0
  139.0320   69.9900  225.0910 C   0  0  0  0  0  0  0  0  0  0  0  0
  138.3785   70.4694  225.8347 H   0  0  0  0  0  0  0  0  0  0  0  0
  138.4782   69.7178  224.1804 H   0  0  0  0  0  0  0  0  0  0  0  0
  139.6000   68.6950  225.6960 C   0  0  0  0  0  0  0  0  0  0  0  0
  138.8531   67.8970  225.5726 H   0  0  0  0  0  0  0  0  0  0  0  0
  140.5384   68.4763  225.1654 H   0  0  0  0  0  0  0  0  0  0  0  0
  139.9430   68.8110  227.1850 C   0  0  0  0  0  0  0  0  0  0  0  0
  139.2197   68.2100  227.7557 H   0  0  0  0  0  0  0  0  0  0  0  0
  140.9756   68.4516  227.3058 H   0  0  0  0  0  0  0  0  0  0  0  0
  139.9040   70.2520  227.7180 C   0  0  0  0  0  0  0  0  0  0  0  0
  138.9447   70.7109  227.4367 H   0  0  0  0  0  0  0  0  0  0  0  0
  140.0172   70.2175  228.8116 H   0  0  0  0  0  0  0  0  0  0  0  0
  141.0510   71.1000  227.1420 C   0  0  0  0  0  0  0  0  0  0  0  0
  141.3474   71.8386  227.9013 H   0  0  0  0  0  0  0  0  0  0  0  0
  141.8599   70.4002  226.8850 H   0  0  0  0  0  0  0  0  0  0  0  0
  140.6970   71.8550  225.8490 C   0  0  0  0  0  0  0  0  0  0  0  0
  139.9381   72.6111  226.0988 H   0  0  0  0  0  0  0  0  0  0  0  0
  141.6466   72.2712  225.4814 H   0  0  0  0  0  0  0  0  0  0  0  0
  140.6240   73.4780  222.1940 N   0  0  0  0  0  0  0  0  0  0  0  0
  141.3670   73.8090  221.1080 C   0  0  0  0  0  0  0  0  0  0  0  0
  141.5560   75.1980  220.7790 N   0  0  0  0  0  0  0  0  0  0  0  0
  142.5630   75.6950  219.8560 C   0  0  0  0  0  0  0  0  0  0  0  0
  143.5719   75.5153  220.2558 H   0  0  0  0  0  0  0  0  0  0  0  0
  142.5070   75.1873  218.8818 H   0  0  0  0  0  0  0  0  0  0  0  0
  142.3010   77.1910  219.7270 C   0  0  0  0  0  0  0  0  0  0  0  0
  143.2463   77.7509  219.7803 H   0  0  0  0  0  0  0  0  0  0  0  0
  141.8311   77.4368  218.7633 H   0  0  0  0  0  0  0  0  0  0  0  0
  141.3980   77.5610  220.9010 C   0  0  0  0  0  0  0  0  0  0  0  0
  141.9915   77.9995  221.7167 H   0  0  0  0  0  0  0  0  0  0  0  0
  140.6435   78.3068  220.6104 H   0  0  0  0  0  0  0  0  0  0  0  0
  140.7510   76.2600  221.3570 C   0  0  0  0  0  0  0  0  0  0  0  0
  140.7577   76.1924  222.4549 H   0  0  0  0  0  0  0  0  0  0  0  0
  139.7008   76.1942  221.0364 H   0  0  0  0  0  0  0  0  0  0  0  0
  141.9170   72.8210  220.3470 N   0  0  0  0  0  0  0  0  0  0  0  0
  142.4590   73.0580  219.4890 H   0  0  0  0  0  0  0  0  0  0  0  0
  141.4520   69.5460  219.1210 C   0  0  0  0  0  0  0  0  0  0  0  0
  141.5553   69.7599  218.0470 H   0  0  0  0  0  0  0  0  0  0  0  0
  140.4014   69.6807  219.4178 H   0  0  0  0  0  0  0  0  0  0  0  0
  141.8850   68.1090  219.4000 C   0  0  0  0  0  0  0  0  0  0  0  0
  141.3716   67.4372  218.6964 H   0  0  0  0  0  0  0  0  0  0  0  0
  141.6194   67.8620  220.4385 H   0  0  0  0  0  0  0  0  0  0  0  0
  1  2  1  0
  2  3  2  0
  3  4  1  0
  3  5  1  0
  5  6  1  0
  5  7  2  0
  7  8  1  0
  8  9  2  0
  9 10  1  0
  8 11  1  0
 11 12  1  0
 11 13  1  0
 11 14  1  0
 14 15  1  0
 15 16  2  0
 16 17  1  0
 17 18  2  0
 18 19  1  0
 18 20  1  0
 20 21  1  0
 20 22  1  0
 22 23  1  0
 22 24  1  0
 22 25  1  0
 25 26  1  0
 25 27  1  0
 25 28  1  0
 28 29  1  0
 28 30  1  0
 28 31  1  0
 31 32  1  0
 31 33  1  0
 31 34  1  0
 34 35  1  0
 34 36  1  0
 34 37  1  0
 37 38  1  0
 37 39  1  0
 17 40  1  0
 40 41  2  0
 41 42  1  0
 42 43  1  0
 43 44  1  0
 43 45  1  0
 43 46  1  0
 46 47  1  0
 46 48  1  0
 46 49  1  0
 49 50  1  0
 49 51  1  0
 49 52  1  0
 52 53  1  0
 52 54  1  0
 41 55  1  0
 55 56  1  0
 14 57  1  0
 57 58  1  0
 57 59  1  0
 57 60  1  0
 60 61  1  0
 60 62  1  0
  9  2  1  0
 55 15  1  0
 60  7  1  0
 37 20  1  0
 52 42  1  0
M  CHG  1  18   1
M  END
>  <UniqueID>  (46) 
571

>  <SMILES>  (46) 
c1ccc2c(c1)CCN(c1n/c(=[NH+]/C3CCCCCC3)nc(N3CCCC3)[nH]1)C2

>  <Energy>  (46) 
70.47531911512529

>  <Genealogy>  (46) 
c1ccc2c(c1)CCN(c1nc([NH2+]C3CCCCCC3)nc(N3CCCC3)n1)C2 (protonated)
c1ccc2c(c1)CCN(c1nc(=[NH+]C3CCCCCC3)nc(N3CCCC3)[nH]1)C2 (tautomer)
c1ccc2c(c1)CCN(c1n/c(=[NH+]/C3CCCCCC3)nc(N3CCCC3)[nH]1)C2 (cis-trans isomerization)
c1ccc2c(c1)CCN(c1n/c(=[NH+]/C3CCCCCC3)nc(N3CCCC3)[nH]1)C2 (3D coordinates assigned)
c1ccc2c(c1)CCN(c1n/c(=[NH+]/C3CCCCCC3)nc(N3CCCC3)[nH]1)C2 (nonaromatic ring conformer: 70.47531911512529 kcal/mol)

>  <smiles>  (46) 
c1ccc2c(c1)CCN(c1nc(NC3CCCCCC3)nc(N3CCCC3)n1)C2

>  <score_type>  (46) 
oracle

>  <origin>  (46) 
autodockgpu

>  <m_score__min__energy>  (46) 
-5.9199999999999999

>  <m_primary>  (46) 
energy

>  <meeko>  (46) 
{"free_energy": -5.82, "intermolecular_energy": -8.8, "internal_energy": -0.55, "cluster_size": 1, "cluster_id": 2, "rank_in_cluster": 1}

>  <energy>  (46) 
-5.82

>  <cluster_rmsd>  (46) 
0.0

>  <rmsd>  (46) 
269.78

>  <cluster>  (46) 
2

$$$$
HZXVWJKCCMCLGL-MJPHTEBONA-O
     RDKit          3D

 62 66  0  0  0  0  0  0  0  0999 V2000
  140.9329   69.0981  227.0468 H   0  0  0  0  0  0  0  0  0  0  0  0
  140.3290   69.5240  226.2320 C   0  0  0  0  0  0  0  0  0  0  0  0
  138.9830   69.1790  226.1100 C   0  0  0  0  0  0  0  0  0  0  0  0
  138.5259   68.4875  226.8331 H   0  0  0  0  0  0  0  0  0  0  0  0
  138.2140   69.7100  225.0710 C   0  0  0  0  0  0  0  0  0  0  0  0
  137.1514   69.4395  224.9830 H   0  0  0  0  0  0  0  0  0  0  0  0
  138.7910   70.5870  224.1390 C   0  0  0  0  0  0  0  0  0  0  0  0
  140.1510   70.9590  224.2780 C   0  0  0  0  0  0  0  0  0  0  0  0
  140.9120   70.4090  225.3220 C   0  0  0  0  0  0  0  0  0  0  0  0
  141.9740   70.6767  225.4239 H   0  0  0  0  0  0  0  0  0  0  0  0
  140.8200   71.9000  223.3030 C   0  0  0  0  0  0  0  0  0  0  0  0
  141.5612   71.3374  222.7164 H   0  0  0  0  0  0  0  0  0  0  0  0
  141.3005   72.7047  223.8788 H   0  0  0  0  0  0  0  0  0  0  0  0
  139.8530   72.5100  222.3860 N   0  0  0  0  0  0  0  0  0  0  0  0
  140.1250   73.8030  221.8110 C   0  0  0  0  0  0  0  0  0  0  0  0
  139.6110   74.9190  222.3900 N   0  0  0  0  0  0  0  0  0  0  0  0
  139.8490   76.1470  221.8610 C   0  0  0  0  0  0  0  0  0  0  0  0
  139.3480   77.2080  222.4350 N   0  0  0  0  0  0  0  0  0  0  0  0
  138.3640   77.1600  222.7880 H   0  0  0  0  0  0  0  0  0  0  0  0
  140.0540   78.4900  222.6210 C   0  0  0  0  0  0  0  0  0  0  0  0
  139.6544   79.0081  223.5053 H   0  0  0  0  0  0  0  0  0  0  0  0
  139.7820   79.4560  221.4370 C   0  0  0  0  0  0  0  0  0  0  0  0
  140.1143   78.9743  220.5056 H   0  0  0  0  0  0  0  0  0  0  0  0
  138.7028   79.6682  221.4209 H   0  0  0  0  0  0  0  0  0  0  0  0
  140.5190   80.7980  221.5880 C   0  0  0  0  0  0  0  0  0  0  0  0
  141.5370   80.6825  221.1876 H   0  0  0  0  0  0  0  0  0  0  0  0
  139.9353   81.5501  221.0370 H   0  0  0  0  0  0  0  0  0  0  0  0
  140.6210   81.2830  223.0390 C   0  0  0  0  0  0  0  0  0  0  0  0
  140.7564   82.3746  223.0315 H   0  0  0  0  0  0  0  0  0  0  0  0
  139.6933   80.9785  223.5456 H   0  0  0  0  0  0  0  0  0  0  0  0
  141.7860   80.6550  223.8200 C   0  0  0  0  0  0  0  0  0  0  0  0
  142.5455   81.4283  224.0076 H   0  0  0  0  0  0  0  0  0  0  0  0
  141.3856   80.2534  224.7625 H   0  0  0  0  0  0  0  0  0  0  0  0
  142.4390   79.4940  223.0480 C   0  0  0  0  0  0  0  0  0  0  0  0
  142.6821   79.8474  222.0351 H   0  0  0  0  0  0  0  0  0  0  0  0
  143.3288   79.1954  223.6216 H   0  0  0  0  0  0  0  0  0  0  0  0
  141.5550   78.2410  222.9220 C   0  0  0  0  0  0  0  0  0  0  0  0
  141.9625   77.6231  222.1083 H   0  0  0  0  0  0  0  0  0  0  0  0
  141.5814   77.7611  223.9114 H   0  0  0  0  0  0  0  0  0  0  0  0
  140.6040   76.2480  220.7380 N   0  0  0  0  0  0  0  0  0  0  0  0
  141.1170   75.1440  220.1380 C   0  0  0  0  0  0  0  0  0  0  0  0
  141.9090   75.2920  218.9450 N   0  0  0  0  0  0  0  0  0  0  0  0
  141.8070   74.4310  217.7780 C   0  0  0  0  0  0  0  0  0  0  0  0
  142.1301   73.4091  218.0257 H   0  0  0  0  0  0  0  0  0  0  0  0
  140.7716   74.3620  217.4130 H   0  0  0  0  0  0  0  0  0  0  0  0
  142.7330   75.0430  216.7330 C   0  0  0  0  0  0  0  0  0  0  0  0
  143.3317   74.2589  216.2464 H   0  0  0  0  0  0  0  0  0  0  0  0
  142.1659   75.5570  215.9429 H   0  0  0  0  0  0  0  0  0  0  0  0
  143.6400   76.0100  217.4910 C   0  0  0  0  0  0  0  0  0  0  0  0
  144.6124   75.5395  217.6985 H   0  0  0  0  0  0  0  0  0  0  0  0
  143.8376   76.9207  216.9065 H   0  0  0  0  0  0  0  0  0  0  0  0
  142.9170   76.3270  218.7920 C   0  0  0  0  0  0  0  0  0  0  0  0
  143.6209   76.3045  219.6370 H   0  0  0  0  0  0  0  0  0  0  0  0
  142.4678   77.3309  218.7722 H   0  0  0  0  0  0  0  0  0  0  0  0
  140.8710   73.9160  220.6750 N   0  0  0  0  0  0  0  0  0  0  0  0
  141.2270   73.0550  220.2060 H   0  0  0  0  0  0  0  0  0  0  0  0
  138.7630   71.6740  221.8810 C   0  0  0  0  0  0  0  0  0  0  0  0
  139.1802   70.8114  221.3408 H   0  0  0  0  0  0  0  0  0  0  0  0
  138.1331   72.2602  221.1957 H   0  0  0  0  0  0  0  0  0  0  0  0
  137.9240   71.1830  223.0580 C   0  0  0  0  0  0  0  0  0  0  0  0
  137.2195   70.4173  222.7010 H   0  0  0  0  0  0  0  0  0  0  0  0
  137.3835   72.0425  223.4812 H   0  0  0  0  0  0  0  0  0  0  0  0
  1  2  1  0
  2  3  2  0
  3  4  1  0
  3  5  1  0
  5  6  1  0
  5  7  2  0
  7  8  1  0
  8  9  2  0
  9 10  1  0
  8 11  1  0
 11 12  1  0
 11 13  1  0
 11 14  1  0
 14 15  1  0
 15 16  2  0
 16 17  1  0
 17 18  2  0
 18 19  1  0
 18 20  1  0
 20 21  1  0
 20 22  1  0
 22 23  1  0
 22 24  1  0
 22 25  1  0
 25 26  1  0
 25 27  1  0
 25 28  1  0
 28 29  1  0
 28 30  1  0
 28 31  1  0
 31 32  1  0
 31 33  1  0
 31 34  1  0
 34 35  1  0
 34 36  1  0
 34 37  1  0
 37 38  1  0
 37 39  1  0
 17 40  1  0
 40 41  2  0
 41 42  1  0
 42 43  1  0
 43 44  1  0
 43 45  1  0
 43 46  1  0
 46 47  1  0
 46 48  1  0
 46 49  1  0
 49 50  1  0
 49 51  1  0
 49 52  1  0
 52 53  1  0
 52 54  1  0
 41 55  1  0
 55 56  1  0
 14 57  1  0
 57 58  1  0
 57 59  1  0
 57 60  1  0
 60 61  1  0
 60 62  1  0
  9  2  1  0
 55 15  1  0
 60  7  1  0
 37 20  1  0
 52 42  1  0
M  CHG  1  18   1
M  END
>  <UniqueID>  (47) 
571

>  <SMILES>  (47) 
c1ccc2c(c1)CCN(c1n/c(=[NH+]/C3CCCCCC3)nc(N3CCCC3)[nH]1)C2

>  <Energy>  (47) 
70.47531911512529

>  <Genealogy>  (47) 
c1ccc2c(c1)CCN(c1nc([NH2+]C3CCCCCC3)nc(N3CCCC3)n1)C2 (protonated)
c1ccc2c(c1)CCN(c1nc(=[NH+]C3CCCCCC3)nc(N3CCCC3)[nH]1)C2 (tautomer)
c1ccc2c(c1)CCN(c1n/c(=[NH+]/C3CCCCCC3)nc(N3CCCC3)[nH]1)C2 (cis-trans isomerization)
c1ccc2c(c1)CCN(c1n/c(=[NH+]/C3CCCCCC3)nc(N3CCCC3)[nH]1)C2 (3D coordinates assigned)
c1ccc2c(c1)CCN(c1n/c(=[NH+]/C3CCCCCC3)nc(N3CCCC3)[nH]1)C2 (nonaromatic ring conformer: 70.47531911512529 kcal/mol)

>  <smiles>  (47) 
c1ccc2c(c1)CCN(c1nc(NC3CCCCCC3)nc(N3CCCC3)n1)C2

>  <score_type>  (47) 
oracle

>  <origin>  (47) 
autodockgpu

>  <m_score__min__energy>  (47) 
-5.9199999999999999

>  <m_primary>  (47) 
energy

>  <meeko>  (47) 
{"free_energy": -5.09, "intermolecular_energy": -8.08, "internal_energy": -0.72, "cluster_size": 1, "cluster_id": 5, "rank_in_cluster": 1}

>  <energy>  (47) 
-5.71

>  <cluster_rmsd>  (47) 
0.0

>  <rmsd>  (47) 
269.88

>  <cluster>  (47) 
3

$$$$
HZXVWJKCCMCLGL-MJPHTEBONA-O
     RDKit          3D

 62 66  0  0  0  0  0  0  0  0999 V2000
  133.2010   72.0642  226.9033 H   0  0  0  0  0  0  0  0  0  0  0  0
  133.4300   73.0600  226.4960 C   0  0  0  0  0  0  0  0  0  0  0  0
  132.7930   74.1880  227.0150 C   0  0  0  0  0  0  0  0  0  0  0  0
  132.0680   74.0807  227.8352 H   0  0  0  0  0  0  0  0  0  0  0  0
  133.0750   75.4540  226.4940 C   0  0  0  0  0  0  0  0  0  0  0  0
  132.5757   76.3408  226.9113 H   0  0  0  0  0  0  0  0  0  0  0  0
  133.9920   75.6000  225.4410 C   0  0  0  0  0  0  0  0  0  0  0  0
  134.6590   74.4580  224.9330 C   0  0  0  0  0  0  0  0  0  0  0  0
  134.3580   73.1930  225.4600 C   0  0  0  0  0  0  0  0  0  0  0  0
  134.8560   72.2998  225.0548 H   0  0  0  0  0  0  0  0  0  0  0  0
  135.6550   74.5600  223.8010 C   0  0  0  0  0  0  0  0  0  0  0  0
  135.2280   74.0822  222.9069 H   0  0  0  0  0  0  0  0  0  0  0  0
  136.5813   74.0562  224.1142 H   0  0  0  0  0  0  0  0  0  0  0  0
  135.9790   75.9540  223.4850 N   0  0  0  0  0  0  0  0  0  0  0  0
  137.2580   76.2820  222.9100 C   0  0  0  0  0  0  0  0  0  0  0  0
  137.5870   77.5830  222.6960 N   0  0  0  0  0  0  0  0  0  0  0  0
  138.7850   77.9140  222.1490 C   0  0  0  0  0  0  0  0  0  0  0  0
  139.0830   79.1710  221.9550 N   0  0  0  0  0  0  0  0  0  0  0  0
  139.1210   79.5230  220.9700 H   0  0  0  0  0  0  0  0  0  0  0  0
  139.3870   80.1490  223.0180 C   0  0  0  0  0  0  0  0  0  0  0  0
  138.4551   80.4583  223.5139 H   0  0  0  0  0  0  0  0  0  0  0  0
  139.9740   81.4570  222.4250 C   0  0  0  0  0  0  0  0  0  0  0  0
  139.6628   81.5378  221.3730 H   0  0  0  0  0  0  0  0  0  0  0  0
  139.5931   82.2960  223.0258 H   0  0  0  0  0  0  0  0  0  0  0  0
  141.5100   81.4970  222.4890 C   0  0  0  0  0  0  0  0  0  0  0  0
  141.8487   82.4691  222.1013 H   0  0  0  0  0  0  0  0  0  0  0  0
  141.7924   81.3438  223.5410 H   0  0  0  0  0  0  0  0  0  0  0  0
  142.1890   80.3880  221.6760 C   0  0  0  0  0  0  0  0  0  0  0  0
  141.8759   80.4856  220.6260 H   0  0  0  0  0  0  0  0  0  0  0  0
  143.2743   80.5142  221.8035 H   0  0  0  0  0  0  0  0  0  0  0  0
  141.8420   78.9700  222.1560 C   0  0  0  0  0  0  0  0  0  0  0  0
  140.9281   78.6353  221.6433 H   0  0  0  0  0  0  0  0  0  0  0  0
  142.6932   78.3141  221.9210 H   0  0  0  0  0  0  0  0  0  0  0  0
  141.6070   78.9170  223.6740 C   0  0  0  0  0  0  0  0  0  0  0  0
  141.6582   77.8659  223.9943 H   0  0  0  0  0  0  0  0  0  0  0  0
  142.3853   79.5422  224.1360 H   0  0  0  0  0  0  0  0  0  0  0  0
  140.2530   79.4930  224.1240 C   0  0  0  0  0  0  0  0  0  0  0  0
  139.6688   78.6719  224.5649 H   0  0  0  0  0  0  0  0  0  0  0  0
  140.4966   80.3034  224.8267 H   0  0  0  0  0  0  0  0  0  0  0  0
  139.6520   76.9270  221.8090 N   0  0  0  0  0  0  0  0  0  0  0  0
  139.3380   75.6210  222.0030 C   0  0  0  0  0  0  0  0  0  0  0  0
  140.2820   74.6040  221.6250 N   0  0  0  0  0  0  0  0  0  0  0  0
  141.4880   74.8470  220.8500 C   0  0  0  0  0  0  0  0  0  0  0  0
  141.2304   75.1735  219.8317 H   0  0  0  0  0  0  0  0  0  0  0  0
  142.1050   75.6406  221.2967 H   0  0  0  0  0  0  0  0  0  0  0  0
  142.2270   73.5150  220.8100 C   0  0  0  0  0  0  0  0  0  0  0  0
  142.5948   73.3122  219.7933 H   0  0  0  0  0  0  0  0  0  0  0  0
  143.1009   73.5186  221.4780 H   0  0  0  0  0  0  0  0  0  0  0  0
  141.2080   72.4560  221.2270 C   0  0  0  0  0  0  0  0  0  0  0  0
  140.7919   71.9551  220.3405 H   0  0  0  0  0  0  0  0  0  0  0  0
  141.6674   71.6776  221.8539 H   0  0  0  0  0  0  0  0  0  0  0  0
  140.1130   73.2040  221.9760 C   0  0  0  0  0  0  0  0  0  0  0  0
  139.1210   72.8470  221.6621 H   0  0  0  0  0  0  0  0  0  0  0  0
  140.1840   73.0465  223.0623 H   0  0  0  0  0  0  0  0  0  0  0  0
  138.1320   75.2990  222.5510 N   0  0  0  0  0  0  0  0  0  0  0  0
  137.8600   74.3000  222.6730 H   0  0  0  0  0  0  0  0  0  0  0  0
  134.8940   76.9370  223.5230 C   0  0  0  0  0  0  0  0  0  0  0  0
  134.1081   76.6462  222.8104 H   0  0  0  0  0  0  0  0  0  0  0  0
  135.2823   77.9289  223.2484 H   0  0  0  0  0  0  0  0  0  0  0  0
  134.3130   76.9840  224.9340 C   0  0  0  0  0  0  0  0  0  0  0  0
  133.3911   77.5840  224.9221 H   0  0  0  0  0  0  0  0  0  0  0  0
  135.0615   77.4338  225.6029 H   0  0  0  0  0  0  0  0  0  0  0  0
  1  2  1  0
  2  3  2  0
  3  4  1  0
  3  5  1  0
  5  6  1  0
  5  7  2  0
  7  8  1  0
  8  9  2  0
  9 10  1  0
  8 11  1  0
 11 12  1  0
 11 13  1  0
 11 14  1  0
 14 15  1  0
 15 16  2  0
 16 17  1  0
 17 18  2  0
 18 19  1  0
 18 20  1  0
 20 21  1  0
 20 22  1  0
 22 23  1  0
 22 24  1  0
 22 25  1  0
 25 26  1  0
 25 27  1  0
 25 28  1  0
 28 29  1  0
 28 30  1  0
 28 31  1  0
 31 32  1  0
 31 33  1  0
 31 34  1  0
 34 35  1  0
 34 36  1  0
 34 37  1  0
 37 38  1  0
 37 39  1  0
 17 40  1  0
 40 41  2  0
 41 42  1  0
 42 43  1  0
 43 44  1  0
 43 45  1  0
 43 46  1  0
 46 47  1  0
 46 48  1  0
 46 49  1  0
 49 50  1  0
 49 51  1  0
 49 52  1  0
 52 53  1  0
 52 54  1  0
 41 55  1  0
 55 56  1  0
 14 57  1  0
 57 58  1  0
 57 59  1  0
 57 60  1  0
 60 61  1  0
 60 62  1  0
  9  2  1  0
 55 15  1  0
 60  7  1  0
 37 20  1  0
 52 42  1  0
M  CHG  1  18   1
M  END
>  <UniqueID>  (48) 
571

>  <SMILES>  (48) 
c1ccc2c(c1)CCN(c1n/c(=[NH+]/C3CCCCCC3)nc(N3CCCC3)[nH]1)C2

>  <Energy>  (48) 
70.47531911512529

>  <Genealogy>  (48) 
c1ccc2c(c1)CCN(c1nc([NH2+]C3CCCCCC3)nc(N3CCCC3)n1)C2 (protonated)
c1ccc2c(c1)CCN(c1nc(=[NH+]C3CCCCCC3)nc(N3CCCC3)[nH]1)C2 (tautomer)
c1ccc2c(c1)CCN(c1n/c(=[NH+]/C3CCCCCC3)nc(N3CCCC3)[nH]1)C2 (cis-trans isomerization)
c1ccc2c(c1)CCN(c1n/c(=[NH+]/C3CCCCCC3)nc(N3CCCC3)[nH]1)C2 (3D coordinates assigned)
c1ccc2c(c1)CCN(c1n/c(=[NH+]/C3CCCCCC3)nc(N3CCCC3)[nH]1)C2 (nonaromatic ring conformer: 70.47531911512529 kcal/mol)

>  <smiles>  (48) 
c1ccc2c(c1)CCN(c1nc(NC3CCCCCC3)nc(N3CCCC3)n1)C2

>  <score_type>  (48) 
oracle

>  <origin>  (48) 
autodockgpu

>  <m_score__min__energy>  (48) 
-5.9199999999999999

>  <m_primary>  (48) 
energy

>  <meeko>  (48) 
{"free_energy": -4.95, "intermolecular_energy": -7.94, "internal_energy": -0.67, "cluster_size": 1, "cluster_id": 6, "rank_in_cluster": 1}

>  <energy>  (48) 
-5.28

>  <cluster_rmsd>  (48) 
0.27

>  <rmsd>  (48) 
269.85

>  <cluster>  (48) 
3

$$$$
HZXVWJKCCMCLGL-MJPHTEBONA-O
     RDKit          3D

 62 66  0  0  0  0  0  0  0  0999 V2000
  142.6847   82.0295  224.2593 H   0  0  0  0  0  0  0  0  0  0  0  0
  142.2000   81.3970  223.5010 C   0  0  0  0  0  0  0  0  0  0  0  0
  141.8020   81.9510  222.2830 C   0  0  0  0  0  0  0  0  0  0  0  0
  141.9806   83.0173  222.0802 H   0  0  0  0  0  0  0  0  0  0  0  0
  141.1770   81.1530  221.3210 C   0  0  0  0  0  0  0  0  0  0  0  0
  140.8705   81.5929  220.3605 H   0  0  0  0  0  0  0  0  0  0  0  0
  140.9380   79.7920  221.5740 C   0  0  0  0  0  0  0  0  0  0  0  0
  141.3670   79.2240  222.7990 C   0  0  0  0  0  0  0  0  0  0  0  0
  141.9840   80.0410  223.7590 C   0  0  0  0  0  0  0  0  0  0  0  0
  142.2996   79.6108  224.7210 H   0  0  0  0  0  0  0  0  0  0  0  0
  141.1350   77.7660  223.1210 C   0  0  0  0  0  0  0  0  0  0  0  0
  140.3949   77.6937  223.9316 H   0  0  0  0  0  0  0  0  0  0  0  0
  142.0965   77.3253  223.4232 H   0  0  0  0  0  0  0  0  0  0  0  0
  140.6390   77.0240  221.9580 N   0  0  0  0  0  0  0  0  0  0  0  0
  140.9020   75.6130  221.8400 C   0  0  0  0  0  0  0  0  0  0  0  0
  140.0070   74.7170  222.3330 N   0  0  0  0  0  0  0  0  0  0  0  0
  140.2390   73.3830  222.2390 C   0  0  0  0  0  0  0  0  0  0  0  0
  139.3630   72.5380  222.7160 N   0  0  0  0  0  0  0  0  0  0  0  0
  138.4420   72.9130  223.0410 H   0  0  0  0  0  0  0  0  0  0  0  0
  139.5680   71.0830  222.8500 C   0  0  0  0  0  0  0  0  0  0  0  0
  140.6242   70.8777  223.0785 H   0  0  0  0  0  0  0  0  0  0  0  0
  139.3030   70.3540  221.5060 C   0  0  0  0  0  0  0  0  0  0  0  0
  139.6804   70.9808  220.6846 H   0  0  0  0  0  0  0  0  0  0  0  0
  139.8195   69.3836  221.5451 H   0  0  0  0  0  0  0  0  0  0  0  0
  137.8080   70.0780  221.2690 C   0  0  0  0  0  0  0  0  0  0  0  0
  137.6771   69.7405  220.2303 H   0  0  0  0  0  0  0  0  0  0  0  0
  137.5014   69.3144  221.9990 H   0  0  0  0  0  0  0  0  0  0  0  0
  136.9140   71.3020  221.4970 C   0  0  0  0  0  0  0  0  0  0  0  0
  137.3852   72.1710  221.0145 H   0  0  0  0  0  0  0  0  0  0  0  0
  135.9296   71.0657  221.0668 H   0  0  0  0  0  0  0  0  0  0  0  0
  136.6880   71.6340  222.9800 C   0  0  0  0  0  0  0  0  0  0  0  0
  137.1980   72.5803  223.2133 H   0  0  0  0  0  0  0  0  0  0  0  0
  135.6038   71.7128  223.1479 H   0  0  0  0  0  0  0  0  0  0  0  0
  137.2320   70.5360  223.9080 C   0  0  0  0  0  0  0  0  0  0  0  0
  136.7901   70.6780  224.9053 H   0  0  0  0  0  0  0  0  0  0  0  0
  136.9576   69.5737  223.4513 H   0  0  0  0  0  0  0  0  0  0  0  0
  138.7640   70.5320  224.0560 C   0  0  0  0  0  0  0  0  0  0  0  0
  139.0181   71.1414  224.9358 H   0  0  0  0  0  0  0  0  0  0  0  0
  139.0495   69.4732  224.1420 H   0  0  0  0  0  0  0  0  0  0  0  0
  141.3830   72.9500  221.6520 N   0  0  0  0  0  0  0  0  0  0  0  0
  142.2950   73.8280  221.1650 C   0  0  0  0  0  0  0  0  0  0  0  0
  143.4990   73.3300  220.5540 N   0  0  0  0  0  0  0  0  0  0  0  0
  143.7850   71.9230  220.3260 C   0  0  0  0  0  0  0  0  0  0  0  0
  143.8943   71.3936  221.2840 H   0  0  0  0  0  0  0  0  0  0  0  0
  142.9724   71.4274  219.7746 H   0  0  0  0  0  0  0  0  0  0  0  0
  145.0950   71.8900  219.5480 C   0  0  0  0  0  0  0  0  0  0  0  0
  145.7643   71.1198  219.9588 H   0  0  0  0  0  0  0  0  0  0  0  0
  144.9286   71.6456  218.4885 H   0  0  0  0  0  0  0  0  0  0  0  0
  145.7160   73.2750  219.7120 C   0  0  0  0  0  0  0  0  0  0  0  0
  146.4853   73.2587  220.4981 H   0  0  0  0  0  0  0  0  0  0  0  0
  146.2049   73.6107  218.7855 H   0  0  0  0  0  0  0  0  0  0  0  0
  144.5740   74.2000  220.1080 C   0  0  0  0  0  0  0  0  0  0  0  0
  144.8879   74.8699  220.9221 H   0  0  0  0  0  0  0  0  0  0  0  0
  144.2585   74.8373  219.2688 H   0  0  0  0  0  0  0  0  0  0  0  0
  142.0540   75.1660  221.2660 N   0  0  0  0  0  0  0  0  0  0  0  0
  142.7620   75.8540  220.9290 H   0  0  0  0  0  0  0  0  0  0  0  0
  139.6710   77.6870  221.0820 C   0  0  0  0  0  0  0  0  0  0  0  0
  138.7771   77.9611  221.6615 H   0  0  0  0  0  0  0  0  0  0  0  0
  139.3804   77.0062  220.2683 H   0  0  0  0  0  0  0  0  0  0  0  0
  140.3070   78.9460  220.4970 C   0  0  0  0  0  0  0  0  0  0  0  0
  139.5310   79.5356  219.9868 H   0  0  0  0  0  0  0  0  0  0  0  0
  141.0925   78.6417  219.7896 H   0  0  0  0  0  0  0  0  0  0  0  0
  1  2  1  0
  2  3  2  0
  3  4  1  0
  3  5  1  0
  5  6  1  0
  5  7  2  0
  7  8  1  0
  8  9  2  0
  9 10  1  0
  8 11  1  0
 11 12  1  0
 11 13  1  0
 11 14  1  0
 14 15  1  0
 15 16  2  0
 16 17  1  0
 17 18  2  0
 18 19  1  0
 18 20  1  0
 20 21  1  0
 20 22  1  0
 22 23  1  0
 22 24  1  0
 22 25  1  0
 25 26  1  0
 25 27  1  0
 25 28  1  0
 28 29  1  0
 28 30  1  0
 28 31  1  0
 31 32  1  0
 31 33  1  0
 31 34  1  0
 34 35  1  0
 34 36  1  0
 34 37  1  0
 37 38  1  0
 37 39  1  0
 17 40  1  0
 40 41  2  0
 41 42  1  0
 42 43  1  0
 43 44  1  0
 43 45  1  0
 43 46  1  0
 46 47  1  0
 46 48  1  0
 46 49  1  0
 49 50  1  0
 49 51  1  0
 49 52  1  0
 52 53  1  0
 52 54  1  0
 41 55  1  0
 55 56  1  0
 14 57  1  0
 57 58  1  0
 57 59  1  0
 57 60  1  0
 60 61  1  0
 60 62  1  0
  9  2  1  0
 55 15  1  0
 60  7  1  0
 37 20  1  0
 52 42  1  0
M  CHG  1  18   1
M  END
>  <UniqueID>  (49) 
571

>  <SMILES>  (49) 
c1ccc2c(c1)CCN(c1n/c(=[NH+]/C3CCCCCC3)nc(N3CCCC3)[nH]1)C2

>  <Energy>  (49) 
70.47531911512529

>  <Genealogy>  (49) 
c1ccc2c(c1)CCN(c1nc([NH2+]C3CCCCCC3)nc(N3CCCC3)n1)C2 (protonated)
c1ccc2c(c1)CCN(c1nc(=[NH+]C3CCCCCC3)nc(N3CCCC3)[nH]1)C2 (tautomer)
c1ccc2c(c1)CCN(c1n/c(=[NH+]/C3CCCCCC3)nc(N3CCCC3)[nH]1)C2 (cis-trans isomerization)
c1ccc2c(c1)CCN(c1n/c(=[NH+]/C3CCCCCC3)nc(N3CCCC3)[nH]1)C2 (3D coordinates assigned)
c1ccc2c(c1)CCN(c1n/c(=[NH+]/C3CCCCCC3)nc(N3CCCC3)[nH]1)C2 (nonaromatic ring conformer: 70.47531911512529 kcal/mol)

>  <smiles>  (49) 
c1ccc2c(c1)CCN(c1nc(NC3CCCCCC3)nc(N3CCCC3)n1)C2

>  <score_type>  (49) 
oracle

>  <origin>  (49) 
autodockgpu

>  <m_score__min__energy>  (49) 
-5.9199999999999999

>  <m_primary>  (49) 
energy

>  <meeko>  (49) 
{"free_energy": -5.63, "intermolecular_energy": -8.62, "internal_energy": -0.5, "cluster_size": 5, "cluster_id": 1, "rank_in_cluster": 3}

>  <energy>  (49) 
-5.21

>  <cluster_rmsd>  (49) 
0.99

>  <rmsd>  (49) 
270.01

>  <cluster>  (49) 
3

$$$$
HZXVWJKCCMCLGL-MJPHTEBONA-O
     RDKit          3D

 62 66  0  0  0  0  0  0  0  0999 V2000
  142.3022   81.5924  223.8486 H   0  0  0  0  0  0  0  0  0  0  0  0
  141.8620   80.9000  223.1160 C   0  0  0  0  0  0  0  0  0  0  0  0
  141.4290   81.3780  221.8780 C   0  0  0  0  0  0  0  0  0  0  0  0
  141.5344   82.4455  221.6342 H   0  0  0  0  0  0  0  0  0  0  0  0
  140.8620   80.5030  220.9480 C   0  0  0  0  0  0  0  0  0  0  0  0
  140.5289   80.8838  219.9712 H   0  0  0  0  0  0  0  0  0  0  0  0
  140.7150   79.1410  221.2530 C   0  0  0  0  0  0  0  0  0  0  0  0
  141.1790   78.6500  222.4990 C   0  0  0  0  0  0  0  0  0  0  0  0
  141.7370   79.5430  223.4260 C   0  0  0  0  0  0  0  0  0  0  0  0
  142.0786   79.1725  224.4038 H   0  0  0  0  0  0  0  0  0  0  0  0
  141.0460   77.1930  222.8770 C   0  0  0  0  0  0  0  0  0  0  0  0
  140.3108   77.1017  223.6901 H   0  0  0  0  0  0  0  0  0  0  0  0
  142.0345   76.8305  223.1957 H   0  0  0  0  0  0  0  0  0  0  0  0
  140.6040   76.3750  221.7430 N   0  0  0  0  0  0  0  0  0  0  0  0
  140.9630   74.9820  221.6800 C   0  0  0  0  0  0  0  0  0  0  0  0
  140.1300   74.0470  222.2090 N   0  0  0  0  0  0  0  0  0  0  0  0
  140.4520   72.7290  222.1660 C   0  0  0  0  0  0  0  0  0  0  0  0
  139.6350   71.8460  222.6770 N   0  0  0  0  0  0  0  0  0  0  0  0
  138.9210   71.4120  222.0480 H   0  0  0  0  0  0  0  0  0  0  0  0
  139.6260   71.4090  224.0870 C   0  0  0  0  0  0  0  0  0  0  0  0
  139.3663   72.2579  224.7365 H   0  0  0  0  0  0  0  0  0  0  0  0
  141.0430   70.9750  224.5470 C   0  0  0  0  0  0  0  0  0  0  0  0
  141.2488   69.9687  224.1532 H   0  0  0  0  0  0  0  0  0  0  0  0
  141.7602   71.7149  224.1621 H   0  0  0  0  0  0  0  0  0  0  0  0
  141.1820   70.9430  226.0790 C   0  0  0  0  0  0  0  0  0  0  0  0
  142.2164   71.2113  226.3397 H   0  0  0  0  0  0  0  0  0  0  0  0
  140.4491   71.6565  226.4836 H   0  0  0  0  0  0  0  0  0  0  0  0
  140.8660   69.5770  226.6970 C   0  0  0  0  0  0  0  0  0  0  0  0
  141.7897   68.9798  226.7099 H   0  0  0  0  0  0  0  0  0  0  0  0
  140.4729   69.7647  227.7071 H   0  0  0  0  0  0  0  0  0  0  0  0
  139.7890   68.7880  225.9360 C   0  0  0  0  0  0  0  0  0  0  0  0
  140.2017   68.4636  224.9693 H   0  0  0  0  0  0  0  0  0  0  0  0
  139.4989   67.9241  226.5520 H   0  0  0  0  0  0  0  0  0  0  0  0
  138.5320   69.6370  225.6810 C   0  0  0  0  0  0  0  0  0  0  0  0
  137.6537   68.9769  225.7340 H   0  0  0  0  0  0  0  0  0  0  0  0
  138.5217   70.4240  226.4494 H   0  0  0  0  0  0  0  0  0  0  0  0
  138.5170   70.3510  224.3180 C   0  0  0  0  0  0  0  0  0  0  0  0
  138.6172   69.5837  223.5362 H   0  0  0  0  0  0  0  0  0  0  0  0
  137.5686   70.9075  224.2878 H   0  0  0  0  0  0  0  0  0  0  0  0
  141.6230   72.3520  221.5930 N   0  0  0  0  0  0  0  0  0  0  0  0
  142.4740   73.2710  221.0700 C   0  0  0  0  0  0  0  0  0  0  0  0
  143.7090   72.8320  220.4770 N   0  0  0  0  0  0  0  0  0  0  0  0
  143.8590   71.6180  219.6910 C   0  0  0  0  0  0  0  0  0  0  0  0
  143.6918   70.7308  220.3195 H   0  0  0  0  0  0  0  0  0  0  0  0
  143.1291   71.5730  218.8693 H   0  0  0  0  0  0  0  0  0  0  0  0
  145.2920   71.6390  219.1710 C   0  0  0  0  0  0  0  0  0  0  0  0
  145.7554   70.6482  219.2873 H   0  0  0  0  0  0  0  0  0  0  0  0
  145.3290   71.8926  218.1013 H   0  0  0  0  0  0  0  0  0  0  0  0
  146.0310   72.6730  220.0170 C   0  0  0  0  0  0  0  0  0  0  0  0
  146.6041   72.1764  220.8139 H   0  0  0  0  0  0  0  0  0  0  0  0
  146.7466   73.2512  219.4140 H   0  0  0  0  0  0  0  0  0  0  0  0
  144.9550   73.5670  220.6170 C   0  0  0  0  0  0  0  0  0  0  0  0
  145.1673   73.7631  221.6784 H   0  0  0  0  0  0  0  0  0  0  0  0
  144.9096   74.5427  220.1111 H   0  0  0  0  0  0  0  0  0  0  0  0
  142.1430   74.5920  221.1200 N   0  0  0  0  0  0  0  0  0  0  0  0
  142.8020   75.3130  220.7560 H   0  0  0  0  0  0  0  0  0  0  0  0
  139.5950   76.9370  220.8430 C   0  0  0  0  0  0  0  0  0  0  0  0
  138.6836   77.1719  221.4123 H   0  0  0  0  0  0  0  0  0  0  0  0
  139.3527   76.2074  220.0562 H   0  0  0  0  0  0  0  0  0  0  0  0
  140.1450   78.2120  220.2100 C   0  0  0  0  0  0  0  0  0  0  0  0
  139.3319   78.7271  219.6775 H   0  0  0  0  0  0  0  0  0  0  0  0
  140.9512   77.9343  219.5151 H   0  0  0  0  0  0  0  0  0  0  0  0
  1  2  1  0
  2  3  2  0
  3  4  1  0
  3  5  1  0
  5  6  1  0
  5  7  2  0
  7  8  1  0
  8  9  2  0
  9 10  1  0
  8 11  1  0
 11 12  1  0
 11 13  1  0
 11 14  1  0
 14 15  1  0
 15 16  2  0
 16 17  1  0
 17 18  2  0
 18 19  1  0
 18 20  1  0
 20 21  1  0
 20 22  1  0
 22 23  1  0
 22 24  1  0
 22 25  1  0
 25 26  1  0
 25 27  1  0
 25 28  1  0
 28 29  1  0
 28 30  1  0
 28 31  1  0
 31 32  1  0
 31 33  1  0
 31 34  1  0
 34 35  1  0
 34 36  1  0
 34 37  1  0
 37 38  1  0
 37 39  1  0
 17 40  1  0
 40 41  2  0
 41 42  1  0
 42 43  1  0
 43 44  1  0
 43 45  1  0
 43 46  1  0
 46 47  1  0
 46 48  1  0
 46 49  1  0
 49 50  1  0
 49 51  1  0
 49 52  1  0
 52 53  1  0
 52 54  1  0
 41 55  1  0
 55 56  1  0
 14 57  1  0
 57 58  1  0
 57 59  1  0
 57 60  1  0
 60 61  1  0
 60 62  1  0
  9  2  1  0
 55 15  1  0
 60  7  1  0
 37 20  1  0
 52 42  1  0
M  CHG  1  18   1
M  END
>  <UniqueID>  (50) 
571

>  <SMILES>  (50) 
c1ccc2c(c1)CCN(c1n/c(=[NH+]/C3CCCCCC3)nc(N3CCCC3)[nH]1)C2

>  <Energy>  (50) 
70.47531911512529

>  <Genealogy>  (50) 
c1ccc2c(c1)CCN(c1nc([NH2+]C3CCCCCC3)nc(N3CCCC3)n1)C2 (protonated)
c1ccc2c(c1)CCN(c1nc(=[NH+]C3CCCCCC3)nc(N3CCCC3)[nH]1)C2 (tautomer)
c1ccc2c(c1)CCN(c1n/c(=[NH+]/C3CCCCCC3)nc(N3CCCC3)[nH]1)C2 (cis-trans isomerization)
c1ccc2c(c1)CCN(c1n/c(=[NH+]/C3CCCCCC3)nc(N3CCCC3)[nH]1)C2 (3D coordinates assigned)
c1ccc2c(c1)CCN(c1n/c(=[NH+]/C3CCCCCC3)nc(N3CCCC3)[nH]1)C2 (nonaromatic ring conformer: 70.47531911512529 kcal/mol)

>  <smiles>  (50) 
c1ccc2c(c1)CCN(c1nc(NC3CCCCCC3)nc(N3CCCC3)n1)C2

>  <score_type>  (50) 
oracle

>  <origin>  (50) 
autodockgpu

>  <m_score__min__energy>  (50) 
-5.9199999999999999

>  <m_primary>  (50) 
energy

>  <meeko>  (50) 
{"free_energy": -5.92, "intermolecular_energy": -8.9, "internal_energy": -0.59, "cluster_size": 5, "cluster_id": 1, "rank_in_cluster": 1}

>  <energy>  (50) 
-4.99

>  <cluster_rmsd>  (50) 
1.07

>  <rmsd>  (50) 
269.94

>  <cluster>  (50) 
3

$$$$
HZXVWJKCCMCLGL-MJPHTEBONA-O
     RDKit          3D

 62 66  0  0  0  0  0  0  0  0999 V2000
  141.7813   69.2837  227.4594 H   0  0  0  0  0  0  0  0  0  0  0  0
  141.0370   69.5110  226.6820 C   0  0  0  0  0  0  0  0  0  0  0  0
  139.8480   68.7820  226.6210 C   0  0  0  0  0  0  0  0  0  0  0  0
  139.6548   67.9851  227.3543 H   0  0  0  0  0  0  0  0  0  0  0  0
  138.9030   69.0620  225.6310 C   0  0  0  0  0  0  0  0  0  0  0  0
  137.9645   68.4894  225.5928 H   0  0  0  0  0  0  0  0  0  0  0  0
  139.1450   70.0710  224.6840 C   0  0  0  0  0  0  0  0  0  0  0  0
  140.3390   70.8290  224.7620 C   0  0  0  0  0  0  0  0  0  0  0  0
  141.2830   70.5290  225.7570 C   0  0  0  0  0  0  0  0  0  0  0  0
  142.2224   71.0990  225.8087 H   0  0  0  0  0  0  0  0  0  0  0  0
  140.6480   71.9270  223.7690 C   0  0  0  0  0  0  0  0  0  0  0  0
  141.4908   71.6094  223.1375 H   0  0  0  0  0  0  0  0  0  0  0  0
  140.8983   72.8379  224.3325 H   0  0  0  0  0  0  0  0  0  0  0  0
  139.4970   72.2230  222.9110 N   0  0  0  0  0  0  0  0  0  0  0  0
  139.3440   73.5380  222.3440 C   0  0  0  0  0  0  0  0  0  0  0  0
  140.4300   74.3440  222.2080 N   0  0  0  0  0  0  0  0  0  0  0  0
  140.3070   75.5890  221.6830 C   0  0  0  0  0  0  0  0  0  0  0  0
  141.3650   76.3460  221.5580 N   0  0  0  0  0  0  0  0  0  0  0  0
  142.2790   75.8860  221.3430 H   0  0  0  0  0  0  0  0  0  0  0  0
  141.3840   77.8150  221.7070 C   0  0  0  0  0  0  0  0  0  0  0  0
  142.4234   78.1749  221.7064 H   0  0  0  0  0  0  0  0  0  0  0  0
  140.8170   78.2450  223.0850 C   0  0  0  0  0  0  0  0  0  0  0  0
  139.7481   78.4775  222.9693 H   0  0  0  0  0  0  0  0  0  0  0  0
  140.9772   77.4125  223.7860 H   0  0  0  0  0  0  0  0  0  0  0  0
  141.5310   79.4810  223.6580 C   0  0  0  0  0  0  0  0  0  0  0  0
  141.1820   79.6369  224.6895 H   0  0  0  0  0  0  0  0  0  0  0  0
  142.6115   79.2812  223.6068 H   0  0  0  0  0  0  0  0  0  0  0  0
  141.2740   80.7640  222.8610 C   0  0  0  0  0  0  0  0  0  0  0  0
  140.1940   80.9724  222.8775 H   0  0  0  0  0  0  0  0  0  0  0  0
  141.8632   81.5614  223.3375 H   0  0  0  0  0  0  0  0  0  0  0  0
  141.7300   80.6840  221.3960 C   0  0  0  0  0  0  0  0  0  0  0  0
  141.9267   81.7023  221.0294 H   0  0  0  0  0  0  0  0  0  0  0  0
  142.6378   80.0640  221.3567 H   0  0  0  0  0  0  0  0  0  0  0  0
  140.6690   80.0290  220.4960 C   0  0  0  0  0  0  0  0  0  0  0  0
  139.6762   80.3470  220.8471 H   0  0  0  0  0  0  0  0  0  0  0  0
  140.8849   80.3549  219.4678 H   0  0  0  0  0  0  0  0  0  0  0  0
  140.7060   78.4900  220.4860 C   0  0  0  0  0  0  0  0  0  0  0  0
  139.6680   78.1293  220.4362 H   0  0  0  0  0  0  0  0  0  0  0  0
  141.3220   78.2152  219.6171 H   0  0  0  0  0  0  0  0  0  0  0  0
  139.0820   76.0270  221.2980 N   0  0  0  0  0  0  0  0  0  0  0  0
  137.9830   75.2430  221.4370 C   0  0  0  0  0  0  0  0  0  0  0  0
  136.7000   75.7460  221.0230 N   0  0  0  0  0  0  0  0  0  0  0  0
  135.6270   74.9230  220.4870 C   0  0  0  0  0  0  0  0  0  0  0  0
  135.9199   74.4945  219.5171 H   0  0  0  0  0  0  0  0  0  0  0  0
  135.3895   74.0803  221.1529 H   0  0  0  0  0  0  0  0  0  0  0  0
  134.4370   75.8590  220.3170 C   0  0  0  0  0  0  0  0  0  0  0  0
  133.9516   75.6875  219.3449 H   0  0  0  0  0  0  0  0  0  0  0  0
  133.6776   75.6907  221.0948 H   0  0  0  0  0  0  0  0  0  0  0  0
  135.0030   77.2760  220.3850 C   0  0  0  0  0  0  0  0  0  0  0  0
  135.1361   77.6840  219.3722 H   0  0  0  0  0  0  0  0  0  0  0  0
  134.3261   77.9562  220.9227 H   0  0  0  0  0  0  0  0  0  0  0  0
  136.3480   77.1540  221.0880 C   0  0  0  0  0  0  0  0  0  0  0  0
  137.1061   77.7629  220.5736 H   0  0  0  0  0  0  0  0  0  0  0  0
  136.2967   77.5118  222.1269 H   0  0  0  0  0  0  0  0  0  0  0  0
  138.1160   73.9950  221.9680 N   0  0  0  0  0  0  0  0  0  0  0  0
  137.2770   73.3940  222.1140 H   0  0  0  0  0  0  0  0  0  0  0  0
  138.6780   71.1010  222.4490 C   0  0  0  0  0  0  0  0  0  0  0  0
  139.3028   70.4009  221.8750 H   0  0  0  0  0  0  0  0  0  0  0  0
  137.8674   71.4746  221.8061 H   0  0  0  0  0  0  0  0  0  0  0  0
  138.0850   70.3830  223.6580 C   0  0  0  0  0  0  0  0  0  0  0  0
  137.6213   69.4429  223.3246 H   0  0  0  0  0  0  0  0  0  0  0  0
  137.3369   71.0430  224.1213 H   0  0  0  0  0  0  0  0  0  0  0  0
  1  2  1  0
  2  3  2  0
  3  4  1  0
  3  5  1  0
  5  6  1  0
  5  7  2  0
  7  8  1  0
  8  9  2  0
  9 10  1  0
  8 11  1  0
 11 12  1  0
 11 13  1  0
 11 14  1  0
 14 15  1  0
 15 16  2  0
 16 17  1  0
 17 18  2  0
 18 19  1  0
 18 20  1  0
 20 21  1  0
 20 22  1  0
 22 23  1  0
 22 24  1  0
 22 25  1  0
 25 26  1  0
 25 27  1  0
 25 28  1  0
 28 29  1  0
 28 30  1  0
 28 31  1  0
 31 32  1  0
 31 33  1  0
 31 34  1  0
 34 35  1  0
 34 36  1  0
 34 37  1  0
 37 38  1  0
 37 39  1  0
 17 40  1  0
 40 41  2  0
 41 42  1  0
 42 43  1  0
 43 44  1  0
 43 45  1  0
 43 46  1  0
 46 47  1  0
 46 48  1  0
 46 49  1  0
 49 50  1  0
 49 51  1  0
 49 52  1  0
 52 53  1  0
 52 54  1  0
 41 55  1  0
 55 56  1  0
 14 57  1  0
 57 58  1  0
 57 59  1  0
 57 60  1  0
 60 61  1  0
 60 62  1  0
  9  2  1  0
 55 15  1  0
 60  7  1  0
 37 20  1  0
 52 42  1  0
M  CHG  1  18   1
M  END
>  <UniqueID>  (51) 
571

>  <SMILES>  (51) 
c1ccc2c(c1)CCN(c1n/c(=[NH+]/C3CCCCCC3)nc(N3CCCC3)[nH]1)C2

>  <Energy>  (51) 
70.47531911512529

>  <Genealogy>  (51) 
c1ccc2c(c1)CCN(c1nc([NH2+]C3CCCCCC3)nc(N3CCCC3)n1)C2 (protonated)
c1ccc2c(c1)CCN(c1nc(=[NH+]C3CCCCCC3)nc(N3CCCC3)[nH]1)C2 (tautomer)
c1ccc2c(c1)CCN(c1n/c(=[NH+]/C3CCCCCC3)nc(N3CCCC3)[nH]1)C2 (cis-trans isomerization)
c1ccc2c(c1)CCN(c1n/c(=[NH+]/C3CCCCCC3)nc(N3CCCC3)[nH]1)C2 (3D coordinates assigned)
c1ccc2c(c1)CCN(c1n/c(=[NH+]/C3CCCCCC3)nc(N3CCCC3)[nH]1)C2 (nonaromatic ring conformer: 70.47531911512529 kcal/mol)

>  <smiles>  (51) 
c1ccc2c(c1)CCN(c1nc(NC3CCCCCC3)nc(N3CCCC3)n1)C2

>  <score_type>  (51) 
oracle

>  <origin>  (51) 
autodockgpu

>  <m_score__min__energy>  (51) 
-5.9199999999999999

>  <m_primary>  (51) 
energy

>  <meeko>  (51) 
{"free_energy": -5.71, "intermolecular_energy": -8.69, "internal_energy": -0.72, "cluster_size": 6, "cluster_id": 3, "rank_in_cluster": 1}

>  <energy>  (51) 
-4.98

>  <cluster_rmsd>  (51) 
1.28

>  <rmsd>  (51) 
269.9

>  <cluster>  (51) 
3

$$$$
HZXVWJKCCMCLGL-MJPHTEBONA-O
     RDKit          3D

 62 66  0  0  0  0  0  0  0  0999 V2000
  141.6929   69.1392  227.0254 H   0  0  0  0  0  0  0  0  0  0  0  0
  140.8810   69.4680  226.3600 C   0  0  0  0  0  0  0  0  0  0  0  0
  139.5830   68.9960  226.5600 C   0  0  0  0  0  0  0  0  0  0  0  0
  139.3726   68.3010  227.3863 H   0  0  0  0  0  0  0  0  0  0  0  0
  138.5500   69.4050  225.7120 C   0  0  0  0  0  0  0  0  0  0  0  0
  137.5272   69.0357  225.8780 H   0  0  0  0  0  0  0  0  0  0  0  0
  138.8110   70.2850  224.6490 C   0  0  0  0  0  0  0  0  0  0  0  0
  140.1230   70.7850  224.4630 C   0  0  0  0  0  0  0  0  0  0  0  0
  141.1520   70.3570  225.3170 C   0  0  0  0  0  0  0  0  0  0  0  0
  142.1776   70.7239  225.1639 H   0  0  0  0  0  0  0  0  0  0  0  0
  140.4580   71.7350  223.3350 C   0  0  0  0  0  0  0  0  0  0  0  0
  141.0992   71.2140  222.6088 H   0  0  0  0  0  0  0  0  0  0  0  0
  140.9745   72.6067  223.7631 H   0  0  0  0  0  0  0  0  0  0  0  0
  139.2520   72.2100  222.6490 N   0  0  0  0  0  0  0  0  0  0  0  0
  139.2580   73.4920  221.9940 C   0  0  0  0  0  0  0  0  0  0  0  0
  140.2000   74.4140  222.3250 N   0  0  0  0  0  0  0  0  0  0  0  0
  140.2200   75.6310  221.7250 C   0  0  0  0  0  0  0  0  0  0  0  0
  141.1370   76.5020  222.0550 N   0  0  0  0  0  0  0  0  0  0  0  0
  142.1390   76.2050  222.0080 H   0  0  0  0  0  0  0  0  0  0  0  0
  140.8770   77.8830  222.5050 C   0  0  0  0  0  0  0  0  0  0  0  0
  141.3784   78.0591  223.4681 H   0  0  0  0  0  0  0  0  0  0  0  0
  139.3700   78.1030  222.7970 C   0  0  0  0  0  0  0  0  0  0  0  0
  138.7921   77.3306  222.2683 H   0  0  0  0  0  0  0  0  0  0  0  0
  139.2285   78.0404  223.8861 H   0  0  0  0  0  0  0  0  0  0  0  0
  138.8760   79.4870  222.3410 C   0  0  0  0  0  0  0  0  0  0  0  0
  139.1943   79.6442  221.2999 H   0  0  0  0  0  0  0  0  0  0  0  0
  137.7813   79.4904  222.4489 H   0  0  0  0  0  0  0  0  0  0  0  0
  139.4150   80.6420  223.1920 C   0  0  0  0  0  0  0  0  0  0  0  0
  139.1271   81.5897  222.7134 H   0  0  0  0  0  0  0  0  0  0  0  0
  138.9815   80.5303  224.1968 H   0  0  0  0  0  0  0  0  0  0  0  0
  140.9420   80.6270  223.3580 C   0  0  0  0  0  0  0  0  0  0  0  0
  141.2661   81.6088  223.7335 H   0  0  0  0  0  0  0  0  0  0  0  0
  141.1946   79.8219  224.0637 H   0  0  0  0  0  0  0  0  0  0  0  0
  141.6730   80.3380  222.0360 C   0  0  0  0  0  0  0  0  0  0  0  0
  141.2878   81.0291  221.2718 H   0  0  0  0  0  0  0  0  0  0  0  0
  142.7464   80.4733  222.2349 H   0  0  0  0  0  0  0  0  0  0  0  0
  141.5010   78.9000  221.5150 C   0  0  0  0  0  0  0  0  0  0  0  0
  140.8562   78.9405  220.6247 H   0  0  0  0  0  0  0  0  0  0  0  0
  142.5198   78.5338  221.3202 H   0  0  0  0  0  0  0  0  0  0  0  0
  139.2790   75.9230  220.7910 N   0  0  0  0  0  0  0  0  0  0  0  0
  138.3230   75.0210  220.4550 C   0  0  0  0  0  0  0  0  0  0  0  0
  137.3390   75.3710  219.4640 N   0  0  0  0  0  0  0  0  0  0  0  0
  137.1950   76.6940  218.8780 C   0  0  0  0  0  0  0  0  0  0  0  0
  136.8771   77.4193  219.6415 H   0  0  0  0  0  0  0  0  0  0  0  0
  138.1453   77.0597  218.4618 H   0  0  0  0  0  0  0  0  0  0  0  0
  136.1260   76.5530  217.8010 C   0  0  0  0  0  0  0  0  0  0  0  0
  135.4166   77.3920  217.8541 H   0  0  0  0  0  0  0  0  0  0  0  0
  136.5657   76.5616  216.7927 H   0  0  0  0  0  0  0  0  0  0  0  0
  135.4110   75.2340  218.0890 C   0  0  0  0  0  0  0  0  0  0  0  0
  134.4709   75.4184  218.6296 H   0  0  0  0  0  0  0  0  0  0  0  0
  135.1532   74.7031  217.1607 H   0  0  0  0  0  0  0  0  0  0  0  0
  136.3670   74.4210  218.9510 C   0  0  0  0  0  0  0  0  0  0  0  0
  135.8240   73.9428  219.7795 H   0  0  0  0  0  0  0  0  0  0  0  0
  136.8496   73.6177  218.3749 H   0  0  0  0  0  0  0  0  0  0  0  0
  138.3100   73.8030  221.0650 N   0  0  0  0  0  0  0  0  0  0  0  0
  137.5600   73.1120  220.8450 H   0  0  0  0  0  0  0  0  0  0  0  0
  138.1650   71.2550  222.4310 C   0  0  0  0  0  0  0  0  0  0  0  0
  138.5329   70.4087  221.8322 H   0  0  0  0  0  0  0  0  0  0  0  0
  137.3411   71.7479  221.8941 H   0  0  0  0  0  0  0  0  0  0  0  0
  137.6670   70.7470  223.7820 C   0  0  0  0  0  0  0  0  0  0  0  0
  136.9796   69.9043  223.6167 H   0  0  0  0  0  0  0  0  0  0  0  0
  137.1535   71.5730  224.2958 H   0  0  0  0  0  0  0  0  0  0  0  0
  1  2  1  0
  2  3  2  0
  3  4  1  0
  3  5  1  0
  5  6  1  0
  5  7  2  0
  7  8  1  0
  8  9  2  0
  9 10  1  0
  8 11  1  0
 11 12  1  0
 11 13  1  0
 11 14  1  0
 14 15  1  0
 15 16  2  0
 16 17  1  0
 17 18  2  0
 18 19  1  0
 18 20  1  0
 20 21  1  0
 20 22  1  0
 22 23  1  0
 22 24  1  0
 22 25  1  0
 25 26  1  0
 25 27  1  0
 25 28  1  0
 28 29  1  0
 28 30  1  0
 28 31  1  0
 31 32  1  0
 31 33  1  0
 31 34  1  0
 34 35  1  0
 34 36  1  0
 34 37  1  0
 37 38  1  0
 37 39  1  0
 17 40  1  0
 40 41  2  0
 41 42  1  0
 42 43  1  0
 43 44  1  0
 43 45  1  0
 43 46  1  0
 46 47  1  0
 46 48  1  0
 46 49  1  0
 49 50  1  0
 49 51  1  0
 49 52  1  0
 52 53  1  0
 52 54  1  0
 41 55  1  0
 55 56  1  0
 14 57  1  0
 57 58  1  0
 57 59  1  0
 57 60  1  0
 60 61  1  0
 60 62  1  0
  9  2  1  0
 55 15  1  0
 60  7  1  0
 37 20  1  0
 52 42  1  0
M  CHG  1  18   1
M  END
>  <UniqueID>  (52) 
571

>  <SMILES>  (52) 
c1ccc2c(c1)CCN(c1n/c(=[NH+]/C3CCCCCC3)nc(N3CCCC3)[nH]1)C2

>  <Energy>  (52) 
70.47531911512529

>  <Genealogy>  (52) 
c1ccc2c(c1)CCN(c1nc([NH2+]C3CCCCCC3)nc(N3CCCC3)n1)C2 (protonated)
c1ccc2c(c1)CCN(c1nc(=[NH+]C3CCCCCC3)nc(N3CCCC3)[nH]1)C2 (tautomer)
c1ccc2c(c1)CCN(c1n/c(=[NH+]/C3CCCCCC3)nc(N3CCCC3)[nH]1)C2 (cis-trans isomerization)
c1ccc2c(c1)CCN(c1n/c(=[NH+]/C3CCCCCC3)nc(N3CCCC3)[nH]1)C2 (3D coordinates assigned)
c1ccc2c(c1)CCN(c1n/c(=[NH+]/C3CCCCCC3)nc(N3CCCC3)[nH]1)C2 (nonaromatic ring conformer: 70.47531911512529 kcal/mol)

>  <smiles>  (52) 
c1ccc2c(c1)CCN(c1nc(NC3CCCCCC3)nc(N3CCCC3)n1)C2

>  <score_type>  (52) 
oracle

>  <origin>  (52) 
autodockgpu

>  <m_score__min__energy>  (52) 
-5.9199999999999999

>  <m_primary>  (52) 
energy

>  <meeko>  (52) 
{"free_energy": -4.81, "intermolecular_energy": -7.8, "internal_energy": -0.68, "cluster_size": 6, "cluster_id": 3, "rank_in_cluster": 6}

>  <energy>  (52) 
-4.81

>  <cluster_rmsd>  (52) 
1.31

>  <rmsd>  (52) 
269.65

>  <cluster>  (52) 
3

$$$$
HZXVWJKCCMCLGL-MJPHTEBONA-O
     RDKit          3D

 62 66  0  0  0  0  0  0  0  0999 V2000
  141.8697   69.5067  227.0231 H   0  0  0  0  0  0  0  0  0  0  0  0
  141.0580   69.8000  226.3410 C   0  0  0  0  0  0  0  0  0  0  0  0
  139.7980   69.2120  226.4650 C   0  0  0  0  0  0  0  0  0  0  0  0
  139.6166   68.4614  227.2484 H   0  0  0  0  0  0  0  0  0  0  0  0
  138.7670   69.5760  225.5950 C   0  0  0  0  0  0  0  0  0  0  0  0
  137.7740   69.1147  225.7006 H   0  0  0  0  0  0  0  0  0  0  0  0
  138.9910   70.5270  224.5870 C   0  0  0  0  0  0  0  0  0  0  0  0
  140.2620   71.1430  224.4780 C   0  0  0  0  0  0  0  0  0  0  0  0
  141.2910   70.7600  225.3530 C   0  0  0  0  0  0  0  0  0  0  0  0
  142.2866   71.2185  225.2601 H   0  0  0  0  0  0  0  0  0  0  0  0
  140.5560   72.1730  223.4120 C   0  0  0  0  0  0  0  0  0  0  0  0
  141.2657   71.7446  222.6889 H   0  0  0  0  0  0  0  0  0  0  0  0
  140.9798   73.0617  223.9025 H   0  0  0  0  0  0  0  0  0  0  0  0
  139.3410   72.5810  222.7000 N   0  0  0  0  0  0  0  0  0  0  0  0
  139.2620   73.8900  222.1060 C   0  0  0  0  0  0  0  0  0  0  0  0
  140.2480   74.7960  222.3390 N   0  0  0  0  0  0  0  0  0  0  0  0
  140.1900   76.0390  221.7950 C   0  0  0  0  0  0  0  0  0  0  0  0
  141.1510   76.8930  222.0290 N   0  0  0  0  0  0  0  0  0  0  0  0
  142.1380   76.5490  221.9920 H   0  0  0  0  0  0  0  0  0  0  0  0
  140.9610   78.3200  222.3550 C   0  0  0  0  0  0  0  0  0  0  0  0
  140.9129   78.9091  221.4273 H   0  0  0  0  0  0  0  0  0  0  0  0
  142.1850   78.8860  223.1230 C   0  0  0  0  0  0  0  0  0  0  0  0
  142.4905   78.1555  223.8866 H   0  0  0  0  0  0  0  0  0  0  0  0
  142.9853   79.0646  222.3898 H   0  0  0  0  0  0  0  0  0  0  0  0
  141.8800   80.2250  223.8160 C   0  0  0  0  0  0  0  0  0  0  0  0
  141.1396   80.0449  224.6093 H   0  0  0  0  0  0  0  0  0  0  0  0
  142.8329   80.6074  224.2107 H   0  0  0  0  0  0  0  0  0  0  0  0
  141.3250   81.2950  222.8700 C   0  0  0  0  0  0  0  0  0  0  0  0
  141.3254   82.2597  223.3985 H   0  0  0  0  0  0  0  0  0  0  0  0
  141.9714   81.3035  221.9800 H   0  0  0  0  0  0  0  0  0  0  0  0
  139.8960   81.0090  222.3840 C   0  0  0  0  0  0  0  0  0  0  0  0
  139.3278   81.9509  222.3801 H   0  0  0  0  0  0  0  0  0  0  0  0
  139.9622   80.5778  221.3742 H   0  0  0  0  0  0  0  0  0  0  0  0
  139.1710   79.9980  223.2820 C   0  0  0  0  0  0  0  0  0  0  0  0
  139.3740   80.2608  224.3307 H   0  0  0  0  0  0  0  0  0  0  0  0
  138.1029   80.0577  223.0260 H   0  0  0  0  0  0  0  0  0  0  0  0
  139.5970   78.5360  223.0600 C   0  0  0  0  0  0  0  0  0  0  0  0
  139.6470   78.0478  224.0445 H   0  0  0  0  0  0  0  0  0  0  0  0
  138.8439   78.1098  222.3810 H   0  0  0  0  0  0  0  0  0  0  0  0
  139.1290   76.3720  221.0180 N   0  0  0  0  0  0  0  0  0  0  0  0
  138.1280   75.4860  220.7840 C   0  0  0  0  0  0  0  0  0  0  0  0
  137.0160   75.8790  219.9590 N   0  0  0  0  0  0  0  0  0  0  0  0
  136.7980   75.4180  218.5970 C   0  0  0  0  0  0  0  0  0  0  0  0
  137.5927   75.7905  217.9339 H   0  0  0  0  0  0  0  0  0  0  0  0
  136.8127   74.3200  218.5322 H   0  0  0  0  0  0  0  0  0  0  0  0
  135.4470   75.9890  218.1810 C   0  0  0  0  0  0  0  0  0  0  0  0
  135.5042   76.4041  217.1639 H   0  0  0  0  0  0  0  0  0  0  0  0
  134.6668   75.2136  218.1731 H   0  0  0  0  0  0  0  0  0  0  0  0
  135.1290   77.0930  219.1880 C   0  0  0  0  0  0  0  0  0  0  0  0
  135.3810   78.0781  218.7684 H   0  0  0  0  0  0  0  0  0  0  0  0
  134.0589   77.1125  219.4421 H   0  0  0  0  0  0  0  0  0  0  0  0
  135.9890   76.8020  220.4100 C   0  0  0  0  0  0  0  0  0  0  0  0
  136.4456   77.7291  220.7869 H   0  0  0  0  0  0  0  0  0  0  0  0
  135.3945   76.3768  221.2321 H   0  0  0  0  0  0  0  0  0  0  0  0
  138.1940   74.2420  221.3360 N   0  0  0  0  0  0  0  0  0  0  0  0
  137.4160   73.5620  221.1950 H   0  0  0  0  0  0  0  0  0  0  0  0
  138.3470   71.5500  222.3920 C   0  0  0  0  0  0  0  0  0  0  0  0
  138.8075   70.7684  221.7698 H   0  0  0  0  0  0  0  0  0  0  0  0
  137.5047   71.9987  221.8450 H   0  0  0  0  0  0  0  0  0  0  0  0
  137.8450   70.9360  223.6950 C   0  0  0  0  0  0  0  0  0  0  0  0
  137.2381   70.0486  223.4622 H   0  0  0  0  0  0  0  0  0  0  0  0
  137.2452   71.6904  224.2252 H   0  0  0  0  0  0  0  0  0  0  0  0
  1  2  1  0
  2  3  2  0
  3  4  1  0
  3  5  1  0
  5  6  1  0
  5  7  2  0
  7  8  1  0
  8  9  2  0
  9 10  1  0
  8 11  1  0
 11 12  1  0
 11 13  1  0
 11 14  1  0
 14 15  1  0
 15 16  2  0
 16 17  1  0
 17 18  2  0
 18 19  1  0
 18 20  1  0
 20 21  1  0
 20 22  1  0
 22 23  1  0
 22 24  1  0
 22 25  1  0
 25 26  1  0
 25 27  1  0
 25 28  1  0
 28 29  1  0
 28 30  1  0
 28 31  1  0
 31 32  1  0
 31 33  1  0
 31 34  1  0
 34 35  1  0
 34 36  1  0
 34 37  1  0
 37 38  1  0
 37 39  1  0
 17 40  1  0
 40 41  2  0
 41 42  1  0
 42 43  1  0
 43 44  1  0
 43 45  1  0
 43 46  1  0
 46 47  1  0
 46 48  1  0
 46 49  1  0
 49 50  1  0
 49 51  1  0
 49 52  1  0
 52 53  1  0
 52 54  1  0
 41 55  1  0
 55 56  1  0
 14 57  1  0
 57 58  1  0
 57 59  1  0
 57 60  1  0
 60 61  1  0
 60 62  1  0
  9  2  1  0
 55 15  1  0
 60  7  1  0
 37 20  1  0
 52 42  1  0
M  CHG  1  18   1
M  END
>  <UniqueID>  (53) 
571

>  <SMILES>  (53) 
c1ccc2c(c1)CCN(c1n/c(=[NH+]/C3CCCCCC3)nc(N3CCCC3)[nH]1)C2

>  <Energy>  (53) 
70.47531911512529

>  <Genealogy>  (53) 
c1ccc2c(c1)CCN(c1nc([NH2+]C3CCCCCC3)nc(N3CCCC3)n1)C2 (protonated)
c1ccc2c(c1)CCN(c1nc(=[NH+]C3CCCCCC3)nc(N3CCCC3)[nH]1)C2 (tautomer)
c1ccc2c(c1)CCN(c1n/c(=[NH+]/C3CCCCCC3)nc(N3CCCC3)[nH]1)C2 (cis-trans isomerization)
c1ccc2c(c1)CCN(c1n/c(=[NH+]/C3CCCCCC3)nc(N3CCCC3)[nH]1)C2 (3D coordinates assigned)
c1ccc2c(c1)CCN(c1n/c(=[NH+]/C3CCCCCC3)nc(N3CCCC3)[nH]1)C2 (nonaromatic ring conformer: 70.47531911512529 kcal/mol)

>  <smiles>  (53) 
c1ccc2c(c1)CCN(c1nc(NC3CCCCCC3)nc(N3CCCC3)n1)C2

>  <score_type>  (53) 
oracle

>  <origin>  (53) 
autodockgpu

>  <m_score__min__energy>  (53) 
-5.9199999999999999

>  <m_primary>  (53) 
energy

>  <meeko>  (53) 
{"free_energy": -4.98, "intermolecular_energy": -7.96, "internal_energy": -0.64, "cluster_size": 6, "cluster_id": 3, "rank_in_cluster": 5}

>  <energy>  (53) 
-5.17

>  <cluster_rmsd>  (53) 
0.0

>  <rmsd>  (53) 
269.66

>  <cluster>  (53) 
4

$$$$
HZXVWJKCCMCLGL-MJPHTEBONA-O
     RDKit          3D

 62 66  0  0  0  0  0  0  0  0999 V2000
  141.8344   69.1052  227.2862 H   0  0  0  0  0  0  0  0  0  0  0  0
  141.0790   69.3590  226.5280 C   0  0  0  0  0  0  0  0  0  0  0  0
  139.8820   68.6430  226.4700 C   0  0  0  0  0  0  0  0  0  0  0  0
  139.6935   67.8295  227.1860 H   0  0  0  0  0  0  0  0  0  0  0  0
  138.9230   68.9580  225.5040 C   0  0  0  0  0  0  0  0  0  0  0  0
  137.9782   68.3958  225.4679 H   0  0  0  0  0  0  0  0  0  0  0  0
  139.1580   69.9880  224.5790 C   0  0  0  0  0  0  0  0  0  0  0  0
  140.3620   70.7320  224.6550 C   0  0  0  0  0  0  0  0  0  0  0  0
  141.3190   70.3970  225.6250 C   0  0  0  0  0  0  0  0  0  0  0  0
  142.2651   70.9560  225.6745 H   0  0  0  0  0  0  0  0  0  0  0  0
  140.6650   71.8510  223.6850 C   0  0  0  0  0  0  0  0  0  0  0  0
  141.4931   71.5408  223.0307 H   0  0  0  0  0  0  0  0  0  0  0  0
  140.9349   72.7446  224.2669 H   0  0  0  0  0  0  0  0  0  0  0  0
  139.5020   72.1810  222.8550 N   0  0  0  0  0  0  0  0  0  0  0  0
  139.3540   73.5120  222.3240 C   0  0  0  0  0  0  0  0  0  0  0  0
  140.4460   74.3080  222.1870 N   0  0  0  0  0  0  0  0  0  0  0  0
  140.3280   75.5680  221.6960 C   0  0  0  0  0  0  0  0  0  0  0  0
  141.3920   76.3170  221.5680 N   0  0  0  0  0  0  0  0  0  0  0  0
  142.3020   75.8480  221.3540 H   0  0  0  0  0  0  0  0  0  0  0  0
  141.4230   77.7850  221.7140 C   0  0  0  0  0  0  0  0  0  0  0  0
  142.4375   78.1570  221.5082 H   0  0  0  0  0  0  0  0  0  0  0  0
  141.1350   78.2080  223.1780 C   0  0  0  0  0  0  0  0  0  0  0  0
  140.4769   77.4568  223.6390 H   0  0  0  0  0  0  0  0  0  0  0  0
  142.1001   78.2770  223.7013 H   0  0  0  0  0  0  0  0  0  0  0  0
  140.4540   79.5840  223.2720 C   0  0  0  0  0  0  0  0  0  0  0  0
  139.5391   79.5614  222.6617 H   0  0  0  0  0  0  0  0  0  0  0  0
  140.2434   79.7672  224.3360 H   0  0  0  0  0  0  0  0  0  0  0  0
  141.3340   80.7400  222.7830 C   0  0  0  0  0  0  0  0  0  0  0  0
  140.7606   81.6745  222.8718 H   0  0  0  0  0  0  0  0  0  0  0  0
  142.2390   80.7417  223.4083 H   0  0  0  0  0  0  0  0  0  0  0  0
  141.7960   80.5910  221.3250 C   0  0  0  0  0  0  0  0  0  0  0  0
  142.0463   81.5862  220.9288 H   0  0  0  0  0  0  0  0  0  0  0  0
  142.6715   79.9251  221.3134 H   0  0  0  0  0  0  0  0  0  0  0  0
  140.7110   79.9620  220.4360 C   0  0  0  0  0  0  0  0  0  0  0  0
  139.7582   80.4709  220.6437 H   0  0  0  0  0  0  0  0  0  0  0  0
  141.0456   80.0871  219.3956 H   0  0  0  0  0  0  0  0  0  0  0  0
  140.5080   78.4520  220.6540 C   0  0  0  0  0  0  0  0  0  0  0  0
  139.4645   78.2949  220.9645 H   0  0  0  0  0  0  0  0  0  0  0  0
  140.7714   77.9779  219.6970 H   0  0  0  0  0  0  0  0  0  0  0  0
  139.1000   76.0290  221.3470 N   0  0  0  0  0  0  0  0  0  0  0  0
  137.9960   75.2540  221.4870 C   0  0  0  0  0  0  0  0  0  0  0  0
  136.7100   75.7820  221.1110 N   0  0  0  0  0  0  0  0  0  0  0  0
  135.7580   75.0950  220.2530 C   0  0  0  0  0  0  0  0  0  0  0  0
  136.1621   74.9939  219.2349 H   0  0  0  0  0  0  0  0  0  0  0  0
  135.5424   74.0793  220.6161 H   0  0  0  0  0  0  0  0  0  0  0  0
  134.5080   75.9680  220.2450 C   0  0  0  0  0  0  0  0  0  0  0  0
  134.1177   76.0675  219.2214 H   0  0  0  0  0  0  0  0  0  0  0  0
  133.7065   75.5302  220.8582 H   0  0  0  0  0  0  0  0  0  0  0  0
  134.9430   77.3300  220.7820 C   0  0  0  0  0  0  0  0  0  0  0  0
  135.1203   78.0298  219.9520 H   0  0  0  0  0  0  0  0  0  0  0  0
  134.1697   77.7769  221.4241 H   0  0  0  0  0  0  0  0  0  0  0  0
  136.2340   77.0820  221.5510 C   0  0  0  0  0  0  0  0  0  0  0  0
  136.9750   77.8608  221.3178 H   0  0  0  0  0  0  0  0  0  0  0  0
  136.0702   77.1077  222.6384 H   0  0  0  0  0  0  0  0  0  0  0  0
  138.1240   73.9920  221.9840 N   0  0  0  0  0  0  0  0  0  0  0  0
  137.2810   73.3960  222.1320 H   0  0  0  0  0  0  0  0  0  0  0  0
  138.6630   71.0800  222.3790 C   0  0  0  0  0  0  0  0  0  0  0  0
  139.2699   70.3887  221.7759 H   0  0  0  0  0  0  0  0  0  0  0  0
  137.8451   71.4783  221.7606 H   0  0  0  0  0  0  0  0  0  0  0  0
  138.0840   70.3370  223.5800 C   0  0  0  0  0  0  0  0  0  0  0  0
  137.6047   69.4105  223.2310 H   0  0  0  0  0  0  0  0  0  0  0  0
  137.3513   70.9926  224.0732 H   0  0  0  0  0  0  0  0  0  0  0  0
  1  2  1  0
  2  3  2  0
  3  4  1  0
  3  5  1  0
  5  6  1  0
  5  7  2  0
  7  8  1  0
  8  9  2  0
  9 10  1  0
  8 11  1  0
 11 12  1  0
 11 13  1  0
 11 14  1  0
 14 15  1  0
 15 16  2  0
 16 17  1  0
 17 18  2  0
 18 19  1  0
 18 20  1  0
 20 21  1  0
 20 22  1  0
 22 23  1  0
 22 24  1  0
 22 25  1  0
 25 26  1  0
 25 27  1  0
 25 28  1  0
 28 29  1  0
 28 30  1  0
 28 31  1  0
 31 32  1  0
 31 33  1  0
 31 34  1  0
 34 35  1  0
 34 36  1  0
 34 37  1  0
 37 38  1  0
 37 39  1  0
 17 40  1  0
 40 41  2  0
 41 42  1  0
 42 43  1  0
 43 44  1  0
 43 45  1  0
 43 46  1  0
 46 47  1  0
 46 48  1  0
 46 49  1  0
 49 50  1  0
 49 51  1  0
 49 52  1  0
 52 53  1  0
 52 54  1  0
 41 55  1  0
 55 56  1  0
 14 57  1  0
 57 58  1  0
 57 59  1  0
 57 60  1  0
 60 61  1  0
 60 62  1  0
  9  2  1  0
 55 15  1  0
 60  7  1  0
 37 20  1  0
 52 42  1  0
M  CHG  1  18   1
M  END
>  <UniqueID>  (54) 
571

>  <SMILES>  (54) 
c1ccc2c(c1)CCN(c1n/c(=[NH+]/C3CCCCCC3)nc(N3CCCC3)[nH]1)C2

>  <Energy>  (54) 
70.47531911512529

>  <Genealogy>  (54) 
c1ccc2c(c1)CCN(c1nc([NH2+]C3CCCCCC3)nc(N3CCCC3)n1)C2 (protonated)
c1ccc2c(c1)CCN(c1nc(=[NH+]C3CCCCCC3)nc(N3CCCC3)[nH]1)C2 (tautomer)
c1ccc2c(c1)CCN(c1n/c(=[NH+]/C3CCCCCC3)nc(N3CCCC3)[nH]1)C2 (cis-trans isomerization)
c1ccc2c(c1)CCN(c1n/c(=[NH+]/C3CCCCCC3)nc(N3CCCC3)[nH]1)C2 (3D coordinates assigned)
c1ccc2c(c1)CCN(c1n/c(=[NH+]/C3CCCCCC3)nc(N3CCCC3)[nH]1)C2 (nonaromatic ring conformer: 70.47531911512529 kcal/mol)

>  <smiles>  (54) 
c1ccc2c(c1)CCN(c1nc(NC3CCCCCC3)nc(N3CCCC3)n1)C2

>  <score_type>  (54) 
oracle

>  <origin>  (54) 
autodockgpu

>  <m_score__min__energy>  (54) 
-5.9199999999999999

>  <m_primary>  (54) 
energy

>  <meeko>  (54) 
{"free_energy": -5.28, "intermolecular_energy": -8.26, "internal_energy": -0.7, "cluster_size": 6, "cluster_id": 3, "rank_in_cluster": 2}

>  <energy>  (54) 
-5.09

>  <cluster_rmsd>  (54) 
0.0

>  <rmsd>  (54) 
270.23

>  <cluster>  (54) 
5

$$$$
HZXVWJKCCMCLGL-MJPHTEBONA-O
     RDKit          3D

 62 66  0  0  0  0  0  0  0  0999 V2000
  132.4984   80.3062  229.4145 H   0  0  0  0  0  0  0  0  0  0  0  0
  133.3590   80.8080  228.9480 C   0  0  0  0  0  0  0  0  0  0  0  0
  134.0860   81.7570  229.6680 C   0  0  0  0  0  0  0  0  0  0  0  0
  133.8006   81.9979  230.7027 H   0  0  0  0  0  0  0  0  0  0  0  0
  135.1760   82.4020  229.0770 C   0  0  0  0  0  0  0  0  0  0  0  0
  135.7509   83.1429  229.6519 H   0  0  0  0  0  0  0  0  0  0  0  0
  135.5410   82.1090  227.7530 C   0  0  0  0  0  0  0  0  0  0  0  0
  134.8200   81.1260  227.0310 C   0  0  0  0  0  0  0  0  0  0  0  0
  133.7220   80.4940  227.6360 C   0  0  0  0  0  0  0  0  0  0  0  0
  133.1436   79.7465  227.0732 H   0  0  0  0  0  0  0  0  0  0  0  0
  135.1720   80.7720  225.6040 C   0  0  0  0  0  0  0  0  0  0  0  0
  134.3664   81.1210  224.9412 H   0  0  0  0  0  0  0  0  0  0  0  0
  135.2897   79.6801  225.5410 H   0  0  0  0  0  0  0  0  0  0  0  0
  136.4330   81.3920  225.1860 N   0  0  0  0  0  0  0  0  0  0  0  0
  137.2350   80.7680  224.1660 C   0  0  0  0  0  0  0  0  0  0  0  0
  138.1680   81.4990  223.5010 N   0  0  0  0  0  0  0  0  0  0  0  0
  138.9300   80.9330  222.5310 C   0  0  0  0  0  0  0  0  0  0  0  0
  139.8240   81.6530  221.9060 N   0  0  0  0  0  0  0  0  0  0  0  0
  139.5010   82.2750  221.1290 H   0  0  0  0  0  0  0  0  0  0  0  0
  141.2710   81.6560  222.1960 C   0  0  0  0  0  0  0  0  0  0  0  0
  141.6568   82.6850  222.1480 H   0  0  0  0  0  0  0  0  0  0  0  0
  142.0620   80.8850  221.1070 C   0  0  0  0  0  0  0  0  0  0  0  0
  142.1198   81.5105  220.2040 H   0  0  0  0  0  0  0  0  0  0  0  0
  143.0607   80.6656  221.5125 H   0  0  0  0  0  0  0  0  0  0  0  0
  141.4040   79.5450  220.7370 C   0  0  0  0  0  0  0  0  0  0  0  0
  140.3122   79.6784  220.7512 H   0  0  0  0  0  0  0  0  0  0  0  0
  141.7795   79.2662  219.7414 H   0  0  0  0  0  0  0  0  0  0  0  0
  141.7640   78.3990  221.6890 C   0  0  0  0  0  0  0  0  0  0  0  0
  141.2681   77.4836  221.3337 H   0  0  0  0  0  0  0  0  0  0  0  0
  142.8604   78.3106  221.6856 H   0  0  0  0  0  0  0  0  0  0  0  0
  141.3380   78.6480  223.1440 C   0  0  0  0  0  0  0  0  0  0  0  0
  140.2731   78.9232  223.1597 H   0  0  0  0  0  0  0  0  0  0  0  0
  141.5198   77.7244  223.7131 H   0  0  0  0  0  0  0  0  0  0  0  0
  142.1520   79.7770  223.8000 C   0  0  0  0  0  0  0  0  0  0  0  0
  142.2444   79.5559  224.8736 H   0  0  0  0  0  0  0  0  0  0  0  0
  143.1230   79.8057  223.2840 H   0  0  0  0  0  0  0  0  0  0  0  0
  141.5310   81.1770  223.6480 C   0  0  0  0  0  0  0  0  0  0  0  0
  140.5676   81.1764  224.1789 H   0  0  0  0  0  0  0  0  0  0  0  0
  142.2743   81.8754  224.0601 H   0  0  0  0  0  0  0  0  0  0  0  0
  138.7470   79.6230  222.2250 N   0  0  0  0  0  0  0  0  0  0  0  0
  137.8130   78.8790  222.8690 C   0  0  0  0  0  0  0  0  0  0  0  0
  137.6440   77.4950  222.5130 N   0  0  0  0  0  0  0  0  0  0  0  0
  136.4070   76.7480  222.6750 C   0  0  0  0  0  0  0  0  0  0  0  0
  136.1607   76.6404  223.7417 H   0  0  0  0  0  0  0  0  0  0  0  0
  135.5581   77.2597  222.1979 H   0  0  0  0  0  0  0  0  0  0  0  0
  136.6650   75.3830  222.0490 C   0  0  0  0  0  0  0  0  0  0  0  0
  136.2763   74.5848  222.6985 H   0  0  0  0  0  0  0  0  0  0  0  0
  136.1625   75.2843  221.0755 H   0  0  0  0  0  0  0  0  0  0  0  0
  138.1820   75.2640  221.9110 C   0  0  0  0  0  0  0  0  0  0  0  0
  138.5966   74.6723  222.7405 H   0  0  0  0  0  0  0  0  0  0  0  0
  138.4644   74.7560  220.9771 H   0  0  0  0  0  0  0  0  0  0  0  0
  138.7170   76.6880  221.9570 C   0  0  0  0  0  0  0  0  0  0  0  0
  139.6089   76.7418  222.5985 H   0  0  0  0  0  0  0  0  0  0  0  0
  139.0147   77.0416  220.9588 H   0  0  0  0  0  0  0  0  0  0  0  0
  137.0500   79.4570  223.8400 N   0  0  0  0  0  0  0  0  0  0  0  0
  136.3040   78.9090  224.3190 H   0  0  0  0  0  0  0  0  0  0  0  0
  136.7090   82.7580  225.6340 C   0  0  0  0  0  0  0  0  0  0  0  0
  135.9158   83.4304  225.2752 H   0  0  0  0  0  0  0  0  0  0  0  0
  137.6768   83.0911  225.2311 H   0  0  0  0  0  0  0  0  0  0  0  0
  136.7510   82.7860  227.1590 C   0  0  0  0  0  0  0  0  0  0  0  0
  136.7786   83.8322  227.4976 H   0  0  0  0  0  0  0  0  0  0  0  0
  137.6495   82.2456  227.4916 H   0  0  0  0  0  0  0  0  0  0  0  0
  1  2  1  0
  2  3  2  0
  3  4  1  0
  3  5  1  0
  5  6  1  0
  5  7  2  0
  7  8  1  0
  8  9  2  0
  9 10  1  0
  8 11  1  0
 11 12  1  0
 11 13  1  0
 11 14  1  0
 14 15  1  0
 15 16  2  0
 16 17  1  0
 17 18  2  0
 18 19  1  0
 18 20  1  0
 20 21  1  0
 20 22  1  0
 22 23  1  0
 22 24  1  0
 22 25  1  0
 25 26  1  0
 25 27  1  0
 25 28  1  0
 28 29  1  0
 28 30  1  0
 28 31  1  0
 31 32  1  0
 31 33  1  0
 31 34  1  0
 34 35  1  0
 34 36  1  0
 34 37  1  0
 37 38  1  0
 37 39  1  0
 17 40  1  0
 40 41  2  0
 41 42  1  0
 42 43  1  0
 43 44  1  0
 43 45  1  0
 43 46  1  0
 46 47  1  0
 46 48  1  0
 46 49  1  0
 49 50  1  0
 49 51  1  0
 49 52  1  0
 52 53  1  0
 52 54  1  0
 41 55  1  0
 55 56  1  0
 14 57  1  0
 57 58  1  0
 57 59  1  0
 57 60  1  0
 60 61  1  0
 60 62  1  0
  9  2  1  0
 55 15  1  0
 60  7  1  0
 37 20  1  0
 52 42  1  0
M  CHG  1  18   1
M  END
>  <UniqueID>  (55) 
571

>  <SMILES>  (55) 
c1ccc2c(c1)CCN(c1n/c(=[NH+]/C3CCCCCC3)nc(N3CCCC3)[nH]1)C2

>  <Energy>  (55) 
70.47531911512529

>  <Genealogy>  (55) 
c1ccc2c(c1)CCN(c1nc([NH2+]C3CCCCCC3)nc(N3CCCC3)n1)C2 (protonated)
c1ccc2c(c1)CCN(c1nc(=[NH+]C3CCCCCC3)nc(N3CCCC3)[nH]1)C2 (tautomer)
c1ccc2c(c1)CCN(c1n/c(=[NH+]/C3CCCCCC3)nc(N3CCCC3)[nH]1)C2 (cis-trans isomerization)
c1ccc2c(c1)CCN(c1n/c(=[NH+]/C3CCCCCC3)nc(N3CCCC3)[nH]1)C2 (3D coordinates assigned)
c1ccc2c(c1)CCN(c1n/c(=[NH+]/C3CCCCCC3)nc(N3CCCC3)[nH]1)C2 (nonaromatic ring conformer: 70.47531911512529 kcal/mol)

>  <smiles>  (55) 
c1ccc2c(c1)CCN(c1nc(NC3CCCCCC3)nc(N3CCCC3)n1)C2

>  <score_type>  (55) 
oracle

>  <origin>  (55) 
autodockgpu

>  <m_score__min__energy>  (55) 
-5.9199999999999999

>  <m_primary>  (55) 
energy

>  <meeko>  (55) 
{"free_energy": -4.59, "intermolecular_energy": -7.57, "internal_energy": -1.12, "cluster_size": 1, "cluster_id": 9, "rank_in_cluster": 1}

>  <energy>  (55) 
-4.95

>  <cluster_rmsd>  (55) 
0.0

>  <rmsd>  (55) 
270.28

>  <cluster>  (55) 
6

$$$$
HZXVWJKCCMCLGL-MJPHTEBONA-O
     RDKit          3D

 62 66  0  0  0  0  0  0  0  0999 V2000
  141.9819   69.4367  226.8778 H   0  0  0  0  0  0  0  0  0  0  0  0
  141.2050   69.6470  226.1280 C   0  0  0  0  0  0  0  0  0  0  0  0
  140.0990   68.8030  226.0150 C   0  0  0  0  0  0  0  0  0  0  0  0
  140.0029   67.9322  226.6801 H   0  0  0  0  0  0  0  0  0  0  0  0
  139.1140   69.0620  225.0590 C   0  0  0  0  0  0  0  0  0  0  0  0
  138.2410   68.3975  224.9793 H   0  0  0  0  0  0  0  0  0  0  0  0
  139.2320   70.1660  224.1990 C   0  0  0  0  0  0  0  0  0  0  0  0
  140.3410   71.0380  224.3310 C   0  0  0  0  0  0  0  0  0  0  0  0
  141.3270   70.7590  225.2900 C   0  0  0  0  0  0  0  0  0  0  0  0
  142.2015   71.4198  225.3827 H   0  0  0  0  0  0  0  0  0  0  0  0
  140.5160   72.2410  223.4320 C   0  0  0  0  0  0  0  0  0  0  0  0
  141.3770   72.0685  222.7694 H   0  0  0  0  0  0  0  0  0  0  0  0
  140.6784   73.1234  224.0684 H   0  0  0  0  0  0  0  0  0  0  0  0
  139.3260   72.4830  222.6110 N   0  0  0  0  0  0  0  0  0  0  0  0
  139.0270   73.8170  222.1570 C   0  0  0  0  0  0  0  0  0  0  0  0
  140.0000   74.5650  221.5730 N   0  0  0  0  0  0  0  0  0  0  0  0
  139.7410   75.8260  221.1450 C   0  0  0  0  0  0  0  0  0  0  0  0
  140.6900   76.5270  220.5820 N   0  0  0  0  0  0  0  0  0  0  0  0
  140.9200   76.3310  219.5800 H   0  0  0  0  0  0  0  0  0  0  0  0
  141.4830   77.5780  221.2480 C   0  0  0  0  0  0  0  0  0  0  0  0
  142.5071   77.2157  221.4209 H   0  0  0  0  0  0  0  0  0  0  0  0
  140.9260   77.8870  222.6630 C   0  0  0  0  0  0  0  0  0  0  0  0
  140.0337   78.5219  222.5597 H   0  0  0  0  0  0  0  0  0  0  0  0
  140.6867   76.9273  223.1443 H   0  0  0  0  0  0  0  0  0  0  0  0
  141.9480   78.6140  223.5540 C   0  0  0  0  0  0  0  0  0  0  0  0
  141.7472   78.3476  224.6022 H   0  0  0  0  0  0  0  0  0  0  0  0
  142.9478   78.2941  223.2252 H   0  0  0  0  0  0  0  0  0  0  0  0
  141.8990   80.1410  223.4240 C   0  0  0  0  0  0  0  0  0  0  0  0
  140.8781   80.4769  223.6583 H   0  0  0  0  0  0  0  0  0  0  0  0
  142.6453   80.5471  224.1227 H   0  0  0  0  0  0  0  0  0  0  0  0
  142.2690   80.6540  222.0240 C   0  0  0  0  0  0  0  0  0  0  0  0
  142.2720   81.7539  222.0388 H   0  0  0  0  0  0  0  0  0  0  0  0
  143.2619   80.2552  221.7689 H   0  0  0  0  0  0  0  0  0  0  0  0
  141.2760   80.1750  220.9500 C   0  0  0  0  0  0  0  0  0  0  0  0
  140.2810   80.0951  221.4121 H   0  0  0  0  0  0  0  0  0  0  0  0
  141.3118   80.9143  220.1362 H   0  0  0  0  0  0  0  0  0  0  0  0
  141.6270   78.8140  220.3240 C   0  0  0  0  0  0  0  0  0  0  0  0
  140.9672   78.6634  219.4568 H   0  0  0  0  0  0  0  0  0  0  0  0
  142.6968   78.8719  220.0746 H   0  0  0  0  0  0  0  0  0  0  0  0
  138.4960   76.3400  221.3130 N   0  0  0  0  0  0  0  0  0  0  0  0
  137.5140   75.6140  221.9050 C   0  0  0  0  0  0  0  0  0  0  0  0
  136.2080   76.1960  222.0710 N   0  0  0  0  0  0  0  0  0  0  0  0
  135.3280   76.5680  220.9760 C   0  0  0  0  0  0  0  0  0  0  0  0
  135.7669   77.3917  220.3939 H   0  0  0  0  0  0  0  0  0  0  0  0
  135.1686   75.7309  220.2804 H   0  0  0  0  0  0  0  0  0  0  0  0
  134.0240   77.0140  221.6290 C   0  0  0  0  0  0  0  0  0  0  0  0
  133.6578   77.9388  221.1593 H   0  0  0  0  0  0  0  0  0  0  0  0
  133.2352   76.2560  221.5139 H   0  0  0  0  0  0  0  0  0  0  0  0
  134.3540   77.2600  223.0990 C   0  0  0  0  0  0  0  0  0  0  0  0
  134.5086   78.3336  223.2818 H   0  0  0  0  0  0  0  0  0  0  0  0
  133.5353   76.9324  223.7566 H   0  0  0  0  0  0  0  0  0  0  0  0
  135.6360   76.4860  223.3750 C   0  0  0  0  0  0  0  0  0  0  0  0
  136.3309   77.0950  223.9719 H   0  0  0  0  0  0  0  0  0  0  0  0
  135.4405   75.5666  223.9464 H   0  0  0  0  0  0  0  0  0  0  0  0
  137.7850   74.3490  222.3340 N   0  0  0  0  0  0  0  0  0  0  0  0
  137.0520   73.7920  222.8240 H   0  0  0  0  0  0  0  0  0  0  0  0
  138.6230   71.3230  222.0610 C   0  0  0  0  0  0  0  0  0  0  0  0
  139.3091   70.7435  221.4259 H   0  0  0  0  0  0  0  0  0  0  0  0
  137.7678   71.6601  221.4568 H   0  0  0  0  0  0  0  0  0  0  0  0
  138.1280   70.4480  223.2100 C   0  0  0  0  0  0  0  0  0  0  0  0
  137.7603   69.4949  222.8020 H   0  0  0  0  0  0  0  0  0  0  0  0
  137.3222   70.9842  223.7326 H   0  0  0  0  0  0  0  0  0  0  0  0
  1  2  1  0
  2  3  2  0
  3  4  1  0
  3  5  1  0
  5  6  1  0
  5  7  2  0
  7  8  1  0
  8  9  2  0
  9 10  1  0
  8 11  1  0
 11 12  1  0
 11 13  1  0
 11 14  1  0
 14 15  1  0
 15 16  2  0
 16 17  1  0
 17 18  2  0
 18 19  1  0
 18 20  1  0
 20 21  1  0
 20 22  1  0
 22 23  1  0
 22 24  1  0
 22 25  1  0
 25 26  1  0
 25 27  1  0
 25 28  1  0
 28 29  1  0
 28 30  1  0
 28 31  1  0
 31 32  1  0
 31 33  1  0
 31 34  1  0
 34 35  1  0
 34 36  1  0
 34 37  1  0
 37 38  1  0
 37 39  1  0
 17 40  1  0
 40 41  2  0
 41 42  1  0
 42 43  1  0
 43 44  1  0
 43 45  1  0
 43 46  1  0
 46 47  1  0
 46 48  1  0
 46 49  1  0
 49 50  1  0
 49 51  1  0
 49 52  1  0
 52 53  1  0
 52 54  1  0
 41 55  1  0
 55 56  1  0
 14 57  1  0
 57 58  1  0
 57 59  1  0
 57 60  1  0
 60 61  1  0
 60 62  1  0
  9  2  1  0
 55 15  1  0
 60  7  1  0
 37 20  1  0
 52 42  1  0
M  CHG  1  18   1
M  END
>  <UniqueID>  (56) 
571

>  <SMILES>  (56) 
c1ccc2c(c1)CCN(c1n/c(=[NH+]/C3CCCCCC3)nc(N3CCCC3)[nH]1)C2

>  <Energy>  (56) 
70.47531911512529

>  <Genealogy>  (56) 
c1ccc2c(c1)CCN(c1nc([NH2+]C3CCCCCC3)nc(N3CCCC3)n1)C2 (protonated)
c1ccc2c(c1)CCN(c1nc(=[NH+]C3CCCCCC3)nc(N3CCCC3)[nH]1)C2 (tautomer)
c1ccc2c(c1)CCN(c1n/c(=[NH+]/C3CCCCCC3)nc(N3CCCC3)[nH]1)C2 (cis-trans isomerization)
c1ccc2c(c1)CCN(c1n/c(=[NH+]/C3CCCCCC3)nc(N3CCCC3)[nH]1)C2 (3D coordinates assigned)
c1ccc2c(c1)CCN(c1n/c(=[NH+]/C3CCCCCC3)nc(N3CCCC3)[nH]1)C2 (nonaromatic ring conformer: 70.47531911512529 kcal/mol)

>  <smiles>  (56) 
c1ccc2c(c1)CCN(c1nc(NC3CCCCCC3)nc(N3CCCC3)n1)C2

>  <score_type>  (56) 
oracle

>  <origin>  (56) 
autodockgpu

>  <m_score__min__energy>  (56) 
-5.9199999999999999

>  <m_primary>  (56) 
energy

>  <meeko>  (56) 
{"free_energy": -4.99, "intermolecular_energy": -7.97, "internal_energy": -0.67, "cluster_size": 6, "cluster_id": 3, "rank_in_cluster": 4}

>  <energy>  (56) 
-4.74

>  <cluster_rmsd>  (56) 
0.0

>  <rmsd>  (56) 
269.67

>  <cluster>  (56) 
7

$$$$
HZXVWJKCCMCLGL-MJPHTEBONA-O
     RDKit          3D

 62 66  0  0  0  0  0  0  0  0999 V2000
  141.3825   81.7294  224.7589 H   0  0  0  0  0  0  0  0  0  0  0  0
  141.4590   81.1250  223.8430 C   0  0  0  0  0  0  0  0  0  0  0  0
  142.0270   81.6740  222.6930 C   0  0  0  0  0  0  0  0  0  0  0  0
  142.4037   82.7074  222.7059 H   0  0  0  0  0  0  0  0  0  0  0  0
  142.1180   80.9120  221.5240 C   0  0  0  0  0  0  0  0  0  0  0  0
  142.5727   81.3467  220.6216 H   0  0  0  0  0  0  0  0  0  0  0  0
  141.6320   79.5950  221.4960 C   0  0  0  0  0  0  0  0  0  0  0  0
  141.0810   79.0290  222.6720 C   0  0  0  0  0  0  0  0  0  0  0  0
  140.9870   79.8100  223.8350 C   0  0  0  0  0  0  0  0  0  0  0  0
  140.5392   79.3841  224.7450 H   0  0  0  0  0  0  0  0  0  0  0  0
  140.5450   77.6160  222.6970 C   0  0  0  0  0  0  0  0  0  0  0  0
  139.4516   77.6516  222.8117 H   0  0  0  0  0  0  0  0  0  0  0  0
  141.0132   77.0869  223.5401 H   0  0  0  0  0  0  0  0  0  0  0  0
  140.8700   76.8900  221.4650 N   0  0  0  0  0  0  0  0  0  0  0  0
  140.9980   75.4560  221.4910 C   0  0  0  0  0  0  0  0  0  0  0  0
  139.9930   74.6980  222.0040 N   0  0  0  0  0  0  0  0  0  0  0  0
  140.0950   73.3460  222.0440 C   0  0  0  0  0  0  0  0  0  0  0  0
  139.1160   72.6360  222.5380 N   0  0  0  0  0  0  0  0  0  0  0  0
  138.6430   72.9820  223.4050 H   0  0  0  0  0  0  0  0  0  0  0  0
  138.6180   71.3640  221.9780 C   0  0  0  0  0  0  0  0  0  0  0  0
  138.3478   71.5042  220.9209 H   0  0  0  0  0  0  0  0  0  0  0  0
  137.3000   70.9260  222.6700 C   0  0  0  0  0  0  0  0  0  0  0  0
  137.5217   70.6589  223.7138 H   0  0  0  0  0  0  0  0  0  0  0  0
  136.5948   71.7680  222.6086 H   0  0  0  0  0  0  0  0  0  0  0  0
  136.6450   69.7170  221.9800 C   0  0  0  0  0  0  0  0  0  0  0  0
  135.5528   69.8384  222.0293 H   0  0  0  0  0  0  0  0  0  0  0  0
  137.0180   69.6957  220.9454 H   0  0  0  0  0  0  0  0  0  0  0  0
  137.0120   68.3720  222.6170 C   0  0  0  0  0  0  0  0  0  0  0  0
  136.5636   68.3292  223.6205 H   0  0  0  0  0  0  0  0  0  0  0  0
  136.6271   67.5854  221.9514 H   0  0  0  0  0  0  0  0  0  0  0  0
  138.5260   68.1450  222.7520 C   0  0  0  0  0  0  0  0  0  0  0  0
  138.8583   68.5318  223.7267 H   0  0  0  0  0  0  0  0  0  0  0  0
  138.7182   67.0652  222.6682 H   0  0  0  0  0  0  0  0  0  0  0  0
  139.3130   68.8580  221.6390 C   0  0  0  0  0  0  0  0  0  0  0  0
  140.2186   68.2706  221.4271 H   0  0  0  0  0  0  0  0  0  0  0  0
  138.6381   68.9310  220.7735 H   0  0  0  0  0  0  0  0  0  0  0  0
  139.7410   70.2950  221.9860 C   0  0  0  0  0  0  0  0  0  0  0  0
  140.1828   70.2797  222.9933 H   0  0  0  0  0  0  0  0  0  0  0  0
  140.4388   70.5948  221.1903 H   0  0  0  0  0  0  0  0  0  0  0  0
  141.2210   72.7530  221.5700 N   0  0  0  0  0  0  0  0  0  0  0  0
  142.2410   73.4920  221.0650 C   0  0  0  0  0  0  0  0  0  0  0  0
  143.4200   72.8270  220.5780 N   0  0  0  0  0  0  0  0  0  0  0  0
  143.4680   71.4340  220.1640 C   0  0  0  0  0  0  0  0  0  0  0  0
  143.2884   70.7719  221.0238 H   0  0  0  0  0  0  0  0  0  0  0  0
  142.6957   71.2062  219.4146 H   0  0  0  0  0  0  0  0  0  0  0  0
  144.8710   71.2170  219.6100 C   0  0  0  0  0  0  0  0  0  0  0  0
  145.2890   70.2719  219.9869 H   0  0  0  0  0  0  0  0  0  0  0  0
  144.8659   71.1559  218.5117 H   0  0  0  0  0  0  0  0  0  0  0  0
  145.7040   72.3990  220.1010 C   0  0  0  0  0  0  0  0  0  0  0  0
  146.2917   72.1117  220.9854 H   0  0  0  0  0  0  0  0  0  0  0  0
  146.4156   72.7378  219.3337 H   0  0  0  0  0  0  0  0  0  0  0  0
  144.7070   73.4920  220.4600 C   0  0  0  0  0  0  0  0  0  0  0  0
  144.9833   73.9649  221.4140 H   0  0  0  0  0  0  0  0  0  0  0  0
  144.6850   74.2871  219.7001 H   0  0  0  0  0  0  0  0  0  0  0  0
  142.1290   74.8500  221.0310 N   0  0  0  0  0  0  0  0  0  0  0  0
  142.9190   75.4330  220.6800 H   0  0  0  0  0  0  0  0  0  0  0  0
  140.8010   77.6200  220.1980 C   0  0  0  0  0  0  0  0  0  0  0  0
  139.7822   78.0082  220.0516 H   0  0  0  0  0  0  0  0  0  0  0  0
  141.0545   76.9449  219.3673 H   0  0  0  0  0  0  0  0  0  0  0  0
  141.7900   78.7820  220.2360 C   0  0  0  0  0  0  0  0  0  0  0  0
  141.6133   79.4315  219.3660 H   0  0  0  0  0  0  0  0  0  0  0  0
  142.8099   78.3706  220.2139 H   0  0  0  0  0  0  0  0  0  0  0  0
  1  2  1  0
  2  3  2  0
  3  4  1  0
  3  5  1  0
  5  6  1  0
  5  7  2  0
  7  8  1  0
  8  9  2  0
  9 10  1  0
  8 11  1  0
 11 12  1  0
 11 13  1  0
 11 14  1  0
 14 15  1  0
 15 16  2  0
 16 17  1  0
 17 18  2  0
 18 19  1  0
 18 20  1  0
 20 21  1  0
 20 22  1  0
 22 23  1  0
 22 24  1  0
 22 25  1  0
 25 26  1  0
 25 27  1  0
 25 28  1  0
 28 29  1  0
 28 30  1  0
 28 31  1  0
 31 32  1  0
 31 33  1  0
 31 34  1  0
 34 35  1  0
 34 36  1  0
 34 37  1  0
 37 38  1  0
 37 39  1  0
 17 40  1  0
 40 41  2  0
 41 42  1  0
 42 43  1  0
 43 44  1  0
 43 45  1  0
 43 46  1  0
 46 47  1  0
 46 48  1  0
 46 49  1  0
 49 50  1  0
 49 51  1  0
 49 52  1  0
 52 53  1  0
 52 54  1  0
 41 55  1  0
 55 56  1  0
 14 57  1  0
 57 58  1  0
 57 59  1  0
 57 60  1  0
 60 61  1  0
 60 62  1  0
  9  2  1  0
 55 15  1  0
 60  7  1  0
 37 20  1  0
 52 42  1  0
M  CHG  1  18   1
M  END
>  <UniqueID>  (57) 
571

>  <SMILES>  (57) 
c1ccc2c(c1)CCN(c1n/c(=[NH+]/C3CCCCCC3)nc(N3CCCC3)[nH]1)C2

>  <Energy>  (57) 
70.47531911512529

>  <Genealogy>  (57) 
c1ccc2c(c1)CCN(c1nc([NH2+]C3CCCCCC3)nc(N3CCCC3)n1)C2 (protonated)
c1ccc2c(c1)CCN(c1nc(=[NH+]C3CCCCCC3)nc(N3CCCC3)[nH]1)C2 (tautomer)
c1ccc2c(c1)CCN(c1n/c(=[NH+]/C3CCCCCC3)nc(N3CCCC3)[nH]1)C2 (cis-trans isomerization)
c1ccc2c(c1)CCN(c1n/c(=[NH+]/C3CCCCCC3)nc(N3CCCC3)[nH]1)C2 (3D coordinates assigned)
c1ccc2c(c1)CCN(c1n/c(=[NH+]/C3CCCCCC3)nc(N3CCCC3)[nH]1)C2 (nonaromatic ring conformer: 70.47531911512529 kcal/mol)

>  <smiles>  (57) 
c1ccc2c(c1)CCN(c1nc(NC3CCCCCC3)nc(N3CCCC3)n1)C2

>  <score_type>  (57) 
oracle

>  <origin>  (57) 
autodockgpu

>  <m_score__min__energy>  (57) 
-5.9199999999999999

>  <m_primary>  (57) 
energy

>  <meeko>  (57) 
{"free_energy": -5.33, "intermolecular_energy": -8.31, "internal_energy": -0.54, "cluster_size": 5, "cluster_id": 1, "rank_in_cluster": 4}

>  <energy>  (57) 
-4.69

>  <cluster_rmsd>  (57) 
1.45

>  <rmsd>  (57) 
269.84

>  <cluster>  (57) 
7

$$$$
HZXVWJKCCMCLGL-MJPHTEBONA-O
     RDKit          3D

 62 66  0  0  0  0  0  0  0  0999 V2000
  147.3481   73.3251  219.8764 H   0  0  0  0  0  0  0  0  0  0  0  0
  146.2760   73.0920  219.9560 C   0  0  0  0  0  0  0  0  0  0  0  0
  145.8450   71.7660  219.8950 C   0  0  0  0  0  0  0  0  0  0  0  0
  146.5789   70.9557  219.7734 H   0  0  0  0  0  0  0  0  0  0  0  0
  144.4840   71.4650  219.9880 C   0  0  0  0  0  0  0  0  0  0  0  0
  144.1511   70.4174  219.9466 H   0  0  0  0  0  0  0  0  0  0  0  0
  143.5390   72.4930  220.1340 C   0  0  0  0  0  0  0  0  0  0  0  0
  143.9780   73.8380  220.2230 C   0  0  0  0  0  0  0  0  0  0  0  0
  145.3480   74.1240  220.1180 C   0  0  0  0  0  0  0  0  0  0  0  0
  145.6935   75.1674  220.1635 H   0  0  0  0  0  0  0  0  0  0  0  0
  143.0030   74.9820  220.3800 C   0  0  0  0  0  0  0  0  0  0  0  0
  142.9992   75.5764  219.4544 H   0  0  0  0  0  0  0  0  0  0  0  0
  143.3242   75.5902  221.2385 H   0  0  0  0  0  0  0  0  0  0  0  0
  141.6420   74.5040  220.6430 N   0  0  0  0  0  0  0  0  0  0  0  0
  140.7210   75.3300  221.3810 C   0  0  0  0  0  0  0  0  0  0  0  0
  139.4770   74.8630  221.6670 N   0  0  0  0  0  0  0  0  0  0  0  0
  138.5910   75.6260  222.3550 C   0  0  0  0  0  0  0  0  0  0  0  0
  137.4010   75.1570  222.6230 N   0  0  0  0  0  0  0  0  0  0  0  0
  137.3240   74.1650  222.9460 H   0  0  0  0  0  0  0  0  0  0  0  0
  136.1390   75.9110  222.4960 C   0  0  0  0  0  0  0  0  0  0  0  0
  135.3034   75.3016  222.8707 H   0  0  0  0  0  0  0  0  0  0  0  0
  135.7970   76.1820  221.0070 C   0  0  0  0  0  0  0  0  0  0  0  0
  135.9672   75.2595  220.4326 H   0  0  0  0  0  0  0  0  0  0  0  0
  134.7453   76.5008  220.9587 H   0  0  0  0  0  0  0  0  0  0  0  0
  136.6540   77.3060  220.4000 C   0  0  0  0  0  0  0  0  0  0  0  0
  137.6153   77.3369  220.9337 H   0  0  0  0  0  0  0  0  0  0  0  0
  136.7755   77.0769  219.3310 H   0  0  0  0  0  0  0  0  0  0  0  0
  136.0050   78.6910  220.4910 C   0  0  0  0  0  0  0  0  0  0  0  0
  136.5518   79.3753  219.8256 H   0  0  0  0  0  0  0  0  0  0  0  0
  134.9517   78.5726  220.1970 H   0  0  0  0  0  0  0  0  0  0  0  0
  136.0120   79.2840  221.9090 C   0  0  0  0  0  0  0  0  0  0  0  0
  137.0547   79.4364  222.2245 H   0  0  0  0  0  0  0  0  0  0  0  0
  135.4601   80.2351  221.8809 H   0  0  0  0  0  0  0  0  0  0  0  0
  135.3170   78.3640  222.9240 C   0  0  0  0  0  0  0  0  0  0  0  0
  135.0495   78.9647  223.8058 H   0  0  0  0  0  0  0  0  0  0  0  0
  134.4410   77.9382  222.4128 H   0  0  0  0  0  0  0  0  0  0  0  0
  136.1720   77.1740  223.3940 C   0  0  0  0  0  0  0  0  0  0  0  0
  137.2161   77.5146  223.4560 H   0  0  0  0  0  0  0  0  0  0  0  0
  135.7396   76.8625  224.3563 H   0  0  0  0  0  0  0  0  0  0  0  0
  138.9590   76.8710  222.7520 N   0  0  0  0  0  0  0  0  0  0  0  0
  140.1920   77.3610  222.4660 C   0  0  0  0  0  0  0  0  0  0  0  0
  140.5420   78.6880  222.8990 N   0  0  0  0  0  0  0  0  0  0  0  0
  141.8980   79.1290  223.1840 C   0  0  0  0  0  0  0  0  0  0  0  0
  142.2998   78.5946  224.0575 H   0  0  0  0  0  0  0  0  0  0  0  0
  142.5767   78.9266  222.3424 H   0  0  0  0  0  0  0  0  0  0  0  0
  141.7920   80.6210  223.4760 C   0  0  0  0  0  0  0  0  0  0  0  0
  142.3930   80.8813  224.3598 H   0  0  0  0  0  0  0  0  0  0  0  0
  142.1689   81.2240  222.6367 H   0  0  0  0  0  0  0  0  0  0  0  0
  140.3130   80.8930  223.7410 C   0  0  0  0  0  0  0  0  0  0  0  0
  140.1192   80.9330  224.8230 H   0  0  0  0  0  0  0  0  0  0  0  0
  139.9979   81.8585  223.3185 H   0  0  0  0  0  0  0  0  0  0  0  0
  139.5560   79.7330  223.1100 C   0  0  0  0  0  0  0  0  0  0  0  0
  138.7623   79.3806  223.7851 H   0  0  0  0  0  0  0  0  0  0  0  0
  139.0710   80.0294  222.1682 H   0  0  0  0  0  0  0  0  0  0  0  0
  141.0740   76.5870  221.7720 N   0  0  0  0  0  0  0  0  0  0  0  0
  142.0110   76.9620  221.5130 H   0  0  0  0  0  0  0  0  0  0  0  0
  141.1810   73.3150  219.9240 C   0  0  0  0  0  0  0  0  0  0  0  0
  141.2272   73.4988  218.8405 H   0  0  0  0  0  0  0  0  0  0  0  0
  140.1430   73.0888  220.2092 H   0  0  0  0  0  0  0  0  0  0  0  0
  142.0810   72.1350  220.2810 C   0  0  0  0  0  0  0  0  0  0  0  0
  141.8497   71.2929  219.6122 H   0  0  0  0  0  0  0  0  0  0  0  0
  141.8949   71.8616  221.3301 H   0  0  0  0  0  0  0  0  0  0  0  0
  1  2  1  0
  2  3  2  0
  3  4  1  0
  3  5  1  0
  5  6  1  0
  5  7  2  0
  7  8  1  0
  8  9  2  0
  9 10  1  0
  8 11  1  0
 11 12  1  0
 11 13  1  0
 11 14  1  0
 14 15  1  0
 15 16  2  0
 16 17  1  0
 17 18  2  0
 18 19  1  0
 18 20  1  0
 20 21  1  0
 20 22  1  0
 22 23  1  0
 22 24  1  0
 22 25  1  0
 25 26  1  0
 25 27  1  0
 25 28  1  0
 28 29  1  0
 28 30  1  0
 28 31  1  0
 31 32  1  0
 31 33  1  0
 31 34  1  0
 34 35  1  0
 34 36  1  0
 34 37  1  0
 37 38  1  0
 37 39  1  0
 17 40  1  0
 40 41  2  0
 41 42  1  0
 42 43  1  0
 43 44  1  0
 43 45  1  0
 43 46  1  0
 46 47  1  0
 46 48  1  0
 46 49  1  0
 49 50  1  0
 49 51  1  0
 49 52  1  0
 52 53  1  0
 52 54  1  0
 41 55  1  0
 55 56  1  0
 14 57  1  0
 57 58  1  0
 57 59  1  0
 57 60  1  0
 60 61  1  0
 60 62  1  0
  9  2  1  0
 55 15  1  0
 60  7  1  0
 37 20  1  0
 52 42  1  0
M  CHG  1  18   1
M  END
>  <UniqueID>  (58) 
571

>  <SMILES>  (58) 
c1ccc2c(c1)CCN(c1n/c(=[NH+]/C3CCCCCC3)nc(N3CCCC3)[nH]1)C2

>  <Energy>  (58) 
70.47531911512529

>  <Genealogy>  (58) 
c1ccc2c(c1)CCN(c1nc([NH2+]C3CCCCCC3)nc(N3CCCC3)n1)C2 (protonated)
c1ccc2c(c1)CCN(c1nc(=[NH+]C3CCCCCC3)nc(N3CCCC3)[nH]1)C2 (tautomer)
c1ccc2c(c1)CCN(c1n/c(=[NH+]/C3CCCCCC3)nc(N3CCCC3)[nH]1)C2 (cis-trans isomerization)
c1ccc2c(c1)CCN(c1n/c(=[NH+]/C3CCCCCC3)nc(N3CCCC3)[nH]1)C2 (3D coordinates assigned)
c1ccc2c(c1)CCN(c1n/c(=[NH+]/C3CCCCCC3)nc(N3CCCC3)[nH]1)C2 (nonaromatic ring conformer: 70.47531911512529 kcal/mol)

>  <smiles>  (58) 
c1ccc2c(c1)CCN(c1nc(NC3CCCCCC3)nc(N3CCCC3)n1)C2

>  <score_type>  (58) 
oracle

>  <origin>  (58) 
autodockgpu

>  <m_score__min__energy>  (58) 
-5.9199999999999999

>  <m_primary>  (58) 
energy

>  <meeko>  (58) 
{"free_energy": -4.69, "intermolecular_energy": -7.67, "internal_energy": -1.0, "cluster_size": 2, "cluster_id": 7, "rank_in_cluster": 2}

>  <energy>  (58) 
-4.67

>  <cluster_rmsd>  (58) 
0.0

>  <rmsd>  (58) 
269.61

>  <cluster>  (58) 
8

$$$$
HZXVWJKCCMCLGL-MJPHTEBONA-O
     RDKit          3D

 62 66  0  0  0  0  0  0  0  0999 V2000
  141.7748   81.6522  224.7859 H   0  0  0  0  0  0  0  0  0  0  0  0
  141.7650   81.0630  223.8570 C   0  0  0  0  0  0  0  0  0  0  0  0
  142.2460   81.6220  222.6720 C   0  0  0  0  0  0  0  0  0  0  0  0
  142.6410   82.6486  222.6704 H   0  0  0  0  0  0  0  0  0  0  0  0
  142.2270   80.8810  221.4880 C   0  0  0  0  0  0  0  0  0  0  0  0
  142.6134   81.3247  220.5586 H   0  0  0  0  0  0  0  0  0  0  0  0
  141.7170   79.5720  221.4780 C   0  0  0  0  0  0  0  0  0  0  0  0
  141.2540   78.9940  222.6870 C   0  0  0  0  0  0  0  0  0  0  0  0
  141.2710   79.7560  223.8650 C   0  0  0  0  0  0  0  0  0  0  0  0
  140.8926   79.3212  224.8019 H   0  0  0  0  0  0  0  0  0  0  0  0
  140.6970   77.5900  222.7320 C   0  0  0  0  0  0  0  0  0  0  0  0
  139.6174   77.6414  222.9366 H   0  0  0  0  0  0  0  0  0  0  0  0
  141.2234   77.0382  223.5247 H   0  0  0  0  0  0  0  0  0  0  0  0
  140.9070   76.8810  221.4660 N   0  0  0  0  0  0  0  0  0  0  0  0
  141.0110   75.4440  221.4570 C   0  0  0  0  0  0  0  0  0  0  0  0
  139.9880   74.6920  221.9430 N   0  0  0  0  0  0  0  0  0  0  0  0
  140.0680   73.3370  221.9500 C   0  0  0  0  0  0  0  0  0  0  0  0
  139.0720   72.6320  222.4180 N   0  0  0  0  0  0  0  0  0  0  0  0
  138.2740   73.1400  222.8630 H   0  0  0  0  0  0  0  0  0  0  0  0
  138.9790   71.1590  222.3810 C   0  0  0  0  0  0  0  0  0  0  0  0
  139.9879   70.7226  222.4221 H   0  0  0  0  0  0  0  0  0  0  0  0
  138.3900   70.6690  221.0330 C   0  0  0  0  0  0  0  0  0  0  0  0
  137.3222   70.9309  220.9989 H   0  0  0  0  0  0  0  0  0  0  0  0
  138.9532   71.1588  220.2250 H   0  0  0  0  0  0  0  0  0  0  0  0
  138.5310   69.1490  220.8450 C   0  0  0  0  0  0  0  0  0  0  0  0
  137.5372   68.6912  220.9578 H   0  0  0  0  0  0  0  0  0  0  0  0
  138.9560   68.9865  219.8435 H   0  0  0  0  0  0  0  0  0  0  0  0
  139.4840   68.4910  221.8490 C   0  0  0  0  0  0  0  0  0  0  0  0
  139.8657   67.5592  221.4063 H   0  0  0  0  0  0  0  0  0  0  0  0
  140.2849   69.2163  222.0552 H   0  0  0  0  0  0  0  0  0  0  0  0
  138.8250   68.1540  223.1960 C   0  0  0  0  0  0  0  0  0  0  0  0
  138.3634   67.1579  223.1268 H   0  0  0  0  0  0  0  0  0  0  0  0
  139.6042   68.1767  223.9721 H   0  0  0  0  0  0  0  0  0  0  0  0
  137.7420   69.1790  223.5770 C   0  0  0  0  0  0  0  0  0  0  0  0
  136.9367   69.1238  222.8297 H   0  0  0  0  0  0  0  0  0  0  0  0
  137.4023   68.9178  224.5901 H   0  0  0  0  0  0  0  0  0  0  0  0
  138.2430   70.6330  223.6400 C   0  0  0  0  0  0  0  0  0  0  0  0
  137.3713   71.2810  223.8143 H   0  0  0  0  0  0  0  0  0  0  0  0
  138.9902   70.6520  224.4470 H   0  0  0  0  0  0  0  0  0  0  0  0
  141.1880   72.7370  221.4720 N   0  0  0  0  0  0  0  0  0  0  0  0
  142.2250   73.4710  220.9950 C   0  0  0  0  0  0  0  0  0  0  0  0
  143.3980   72.7990  220.5020 N   0  0  0  0  0  0  0  0  0  0  0  0
  144.7010   73.4240  220.3470 C   0  0  0  0  0  0  0  0  0  0  0  0
  144.6621   74.2052  219.5735 H   0  0  0  0  0  0  0  0  0  0  0  0
  145.0327   73.9076  221.2777 H   0  0  0  0  0  0  0  0  0  0  0  0
  145.6470   72.3060  219.9260 C   0  0  0  0  0  0  0  0  0  0  0  0
  146.2945   72.6427  219.1030 H   0  0  0  0  0  0  0  0  0  0  0  0
  146.3042   72.0009  220.7537 H   0  0  0  0  0  0  0  0  0  0  0  0
  144.7570   71.1540  219.4640 C   0  0  0  0  0  0  0  0  0  0  0  0
  144.6788   71.1469  218.3668 H   0  0  0  0  0  0  0  0  0  0  0  0
  145.1678   70.1794  219.7665 H   0  0  0  0  0  0  0  0  0  0  0  0
  143.3920   71.4050  220.0910 C   0  0  0  0  0  0  0  0  0  0  0  0
  142.5935   71.2253  219.3561 H   0  0  0  0  0  0  0  0  0  0  0  0
  143.2059   70.7321  220.9410 H   0  0  0  0  0  0  0  0  0  0  0  0
  142.1360   74.8310  220.9940 N   0  0  0  0  0  0  0  0  0  0  0  0
  142.9380   75.4100  220.6640 H   0  0  0  0  0  0  0  0  0  0  0  0
  140.7460   77.6340  220.2210 C   0  0  0  0  0  0  0  0  0  0  0  0
  139.7255   78.0410  220.1660 H   0  0  0  0  0  0  0  0  0  0  0  0
  140.9178   76.9697  219.3612 H   0  0  0  0  0  0  0  0  0  0  0  0
  141.7550   78.7790  220.1960 C   0  0  0  0  0  0  0  0  0  0  0  0
  141.5181   79.4468  219.3546 H   0  0  0  0  0  0  0  0  0  0  0  0
  142.7621   78.3514  220.0824 H   0  0  0  0  0  0  0  0  0  0  0  0
  1  2  1  0
  2  3  2  0
  3  4  1  0
  3  5  1  0
  5  6  1  0
  5  7  2  0
  7  8  1  0
  8  9  2  0
  9 10  1  0
  8 11  1  0
 11 12  1  0
 11 13  1  0
 11 14  1  0
 14 15  1  0
 15 16  2  0
 16 17  1  0
 17 18  2  0
 18 19  1  0
 18 20  1  0
 20 21  1  0
 20 22  1  0
 22 23  1  0
 22 24  1  0
 22 25  1  0
 25 26  1  0
 25 27  1  0
 25 28  1  0
 28 29  1  0
 28 30  1  0
 28 31  1  0
 31 32  1  0
 31 33  1  0
 31 34  1  0
 34 35  1  0
 34 36  1  0
 34 37  1  0
 37 38  1  0
 37 39  1  0
 17 40  1  0
 40 41  2  0
 41 42  1  0
 42 43  1  0
 43 44  1  0
 43 45  1  0
 43 46  1  0
 46 47  1  0
 46 48  1  0
 46 49  1  0
 49 50  1  0
 49 51  1  0
 49 52  1  0
 52 53  1  0
 52 54  1  0
 41 55  1  0
 55 56  1  0
 14 57  1  0
 57 58  1  0
 57 59  1  0
 57 60  1  0
 60 61  1  0
 60 62  1  0
  9  2  1  0
 55 15  1  0
 60  7  1  0
 37 20  1  0
 52 42  1  0
M  CHG  1  18   1
M  END
>  <UniqueID>  (59) 
571

>  <SMILES>  (59) 
c1ccc2c(c1)CCN(c1n/c(=[NH+]/C3CCCCCC3)nc(N3CCCC3)[nH]1)C2

>  <Energy>  (59) 
70.47531911512529

>  <Genealogy>  (59) 
c1ccc2c(c1)CCN(c1nc([NH2+]C3CCCCCC3)nc(N3CCCC3)n1)C2 (protonated)
c1ccc2c(c1)CCN(c1nc(=[NH+]C3CCCCCC3)nc(N3CCCC3)[nH]1)C2 (tautomer)
c1ccc2c(c1)CCN(c1n/c(=[NH+]/C3CCCCCC3)nc(N3CCCC3)[nH]1)C2 (cis-trans isomerization)
c1ccc2c(c1)CCN(c1n/c(=[NH+]/C3CCCCCC3)nc(N3CCCC3)[nH]1)C2 (3D coordinates assigned)
c1ccc2c(c1)CCN(c1n/c(=[NH+]/C3CCCCCC3)nc(N3CCCC3)[nH]1)C2 (nonaromatic ring conformer: 70.47531911512529 kcal/mol)

>  <smiles>  (59) 
c1ccc2c(c1)CCN(c1nc(NC3CCCCCC3)nc(N3CCCC3)n1)C2

>  <score_type>  (59) 
oracle

>  <origin>  (59) 
autodockgpu

>  <m_score__min__energy>  (59) 
-5.9199999999999999

>  <m_primary>  (59) 
energy

>  <meeko>  (59) 
{"free_energy": -5.26, "intermolecular_energy": -8.24, "internal_energy": -0.65, "cluster_size": 5, "cluster_id": 1, "rank_in_cluster": 5}

>  <energy>  (59) 
-4.17

>  <cluster_rmsd>  (59) 
1.72

>  <rmsd>  (59) 
269.17

>  <cluster>  (59) 
8

$$$$
HZXVWJKCCMCLGL-MJPHTEBONA-O
     RDKit          3D

 62 66  0  0  0  0  0  0  0  0999 V2000
  141.7451   69.3076  227.7511 H   0  0  0  0  0  0  0  0  0  0  0  0
  141.0770   69.4380  226.8870 C   0  0  0  0  0  0  0  0  0  0  0  0
  140.0270   68.5440  226.6780 C   0  0  0  0  0  0  0  0  0  0  0  0
  139.8650   67.7136  227.3810 H   0  0  0  0  0  0  0  0  0  0  0  0
  139.1800   68.7010  225.5770 C   0  0  0  0  0  0  0  0  0  0  0  0
  138.3490   67.9974  225.4209 H   0  0  0  0  0  0  0  0  0  0  0  0
  139.3850   69.7520  224.6700 C   0  0  0  0  0  0  0  0  0  0  0  0
  140.4350   70.6760  224.8960 C   0  0  0  0  0  0  0  0  0  0  0  0
  141.2820   70.4990  226.0010 C   0  0  0  0  0  0  0  0  0  0  0  0
  142.1126   71.2000  226.1707 H   0  0  0  0  0  0  0  0  0  0  0  0
  140.6980   71.8260  223.9510 C   0  0  0  0  0  0  0  0  0  0  0  0
  141.6498   71.6478  223.4292 H   0  0  0  0  0  0  0  0  0  0  0  0
  140.7395   72.7525  224.5424 H   0  0  0  0  0  0  0  0  0  0  0  0
  139.6300   71.9670  222.9560 N   0  0  0  0  0  0  0  0  0  0  0  0
  139.3560   73.2550  222.3750 C   0  0  0  0  0  0  0  0  0  0  0  0
  140.3500   74.1770  222.2810 N   0  0  0  0  0  0  0  0  0  0  0  0
  140.1110   75.4010  221.7430 C   0  0  0  0  0  0  0  0  0  0  0  0
  141.0820   76.2720  221.6580 N   0  0  0  0  0  0  0  0  0  0  0  0
  142.0560   75.9140  221.5250 H   0  0  0  0  0  0  0  0  0  0  0  0
  140.9230   77.7360  221.7460 C   0  0  0  0  0  0  0  0  0  0  0  0
  139.9453   78.0277  221.3350 H   0  0  0  0  0  0  0  0  0  0  0  0
  141.9630   78.4660  220.8560 C   0  0  0  0  0  0  0  0  0  0  0  0
  142.9403   78.4374  221.3600 H   0  0  0  0  0  0  0  0  0  0  0  0
  141.9926   77.9495  219.8853 H   0  0  0  0  0  0  0  0  0  0  0  0
  141.5870   79.9350  220.5920 C   0  0  0  0  0  0  0  0  0  0  0  0
  141.9368   80.2078  219.5854 H   0  0  0  0  0  0  0  0  0  0  0  0
  140.4940   80.0104  220.6904 H   0  0  0  0  0  0  0  0  0  0  0  0
  142.1970   80.9160  221.5990 C   0  0  0  0  0  0  0  0  0  0  0  0
  143.2103   81.1769  221.2595 H   0  0  0  0  0  0  0  0  0  0  0  0
  141.5302   81.7899  221.6407 H   0  0  0  0  0  0  0  0  0  0  0  0
  142.2930   80.3560  223.0270 C   0  0  0  0  0  0  0  0  0  0  0  0
  143.0917   79.6004  223.0598 H   0  0  0  0  0  0  0  0  0  0  0  0
  142.5106   81.1923  223.7076 H   0  0  0  0  0  0  0  0  0  0  0  0
  140.9770   79.7070  223.4760 C   0  0  0  0  0  0  0  0  0  0  0  0
  140.8534   79.8873  224.5541 H   0  0  0  0  0  0  0  0  0  0  0  0
  140.1774   80.1631  222.8739 H   0  0  0  0  0  0  0  0  0  0  0  0
  140.9070   78.1900  223.2290 C   0  0  0  0  0  0  0  0  0  0  0  0
  141.7701   77.7282  223.7307 H   0  0  0  0  0  0  0  0  0  0  0  0
  139.9305   77.8724  223.6235 H   0  0  0  0  0  0  0  0  0  0  0  0
  138.8620   75.6990  221.3050 N   0  0  0  0  0  0  0  0  0  0  0  0
  137.8530   74.7960  221.4010 C   0  0  0  0  0  0  0  0  0  0  0  0
  136.5400   75.1520  220.9310 N   0  0  0  0  0  0  0  0  0  0  0  0
  136.1310   75.1260  219.5360 C   0  0  0  0  0  0  0  0  0  0  0  0
  136.6868   75.8798  218.9590 H   0  0  0  0  0  0  0  0  0  0  0  0
  136.3341   74.1500  219.0710 H   0  0  0  0  0  0  0  0  0  0  0  0
  134.6410   75.4500  219.5380 C   0  0  0  0  0  0  0  0  0  0  0  0
  134.4064   76.1761  218.7457 H   0  0  0  0  0  0  0  0  0  0  0  0
  134.0327   74.5533  219.3481 H   0  0  0  0  0  0  0  0  0  0  0  0
  134.3440   76.0480  220.9110 C   0  0  0  0  0  0  0  0  0  0  0  0
  134.3180   77.1461  220.8524 H   0  0  0  0  0  0  0  0  0  0  0  0
  133.3656   75.7192  221.2914 H   0  0  0  0  0  0  0  0  0  0  0  0
  135.4780   75.5930  221.8190 C   0  0  0  0  0  0  0  0  0  0  0  0
  135.8247   76.4270  222.4469 H   0  0  0  0  0  0  0  0  0  0  0  0
  135.1568   74.7895  222.4981 H   0  0  0  0  0  0  0  0  0  0  0  0
  138.1020   73.5720  221.9450 N   0  0  0  0  0  0  0  0  0  0  0  0
  137.3300   72.8810  222.0590 H   0  0  0  0  0  0  0  0  0  0  0  0
  139.0500   70.7450  222.3940 C   0  0  0  0  0  0  0  0  0  0  0  0
  139.8381   70.1555  221.9027 H   0  0  0  0  0  0  0  0  0  0  0  0
  138.2791   71.0071  221.6544 H   0  0  0  0  0  0  0  0  0  0  0  0
  138.4250   69.9250  223.5190 C   0  0  0  0  0  0  0  0  0  0  0  0
  138.1501   68.9336  223.1297 H   0  0  0  0  0  0  0  0  0  0  0  0
  137.5362   70.4594  223.8856 H   0  0  0  0  0  0  0  0  0  0  0  0
  1  2  1  0
  2  3  2  0
  3  4  1  0
  3  5  1  0
  5  6  1  0
  5  7  2  0
  7  8  1  0
  8  9  2  0
  9 10  1  0
  8 11  1  0
 11 12  1  0
 11 13  1  0
 11 14  1  0
 14 15  1  0
 15 16  2  0
 16 17  1  0
 17 18  2  0
 18 19  1  0
 18 20  1  0
 20 21  1  0
 20 22  1  0
 22 23  1  0
 22 24  1  0
 22 25  1  0
 25 26  1  0
 25 27  1  0
 25 28  1  0
 28 29  1  0
 28 30  1  0
 28 31  1  0
 31 32  1  0
 31 33  1  0
 31 34  1  0
 34 35  1  0
 34 36  1  0
 34 37  1  0
 37 38  1  0
 37 39  1  0
 17 40  1  0
 40 41  2  0
 41 42  1  0
 42 43  1  0
 43 44  1  0
 43 45  1  0
 43 46  1  0
 46 47  1  0
 46 48  1  0
 46 49  1  0
 49 50  1  0
 49 51  1  0
 49 52  1  0
 52 53  1  0
 52 54  1  0
 41 55  1  0
 55 56  1  0
 14 57  1  0
 57 58  1  0
 57 59  1  0
 57 60  1  0
 60 61  1  0
 60 62  1  0
  9  2  1  0
 55 15  1  0
 60  7  1  0
 37 20  1  0
 52 42  1  0
M  CHG  1  18   1
M  END
>  <UniqueID>  (60) 
571

>  <SMILES>  (60) 
c1ccc2c(c1)CCN(c1n/c(=[NH+]/C3CCCCCC3)nc(N3CCCC3)[nH]1)C2

>  <Energy>  (60) 
70.47531911512529

>  <Genealogy>  (60) 
c1ccc2c(c1)CCN(c1nc([NH2+]C3CCCCCC3)nc(N3CCCC3)n1)C2 (protonated)
c1ccc2c(c1)CCN(c1nc(=[NH+]C3CCCCCC3)nc(N3CCCC3)[nH]1)C2 (tautomer)
c1ccc2c(c1)CCN(c1n/c(=[NH+]/C3CCCCCC3)nc(N3CCCC3)[nH]1)C2 (cis-trans isomerization)
c1ccc2c(c1)CCN(c1n/c(=[NH+]/C3CCCCCC3)nc(N3CCCC3)[nH]1)C2 (3D coordinates assigned)
c1ccc2c(c1)CCN(c1n/c(=[NH+]/C3CCCCCC3)nc(N3CCCC3)[nH]1)C2 (nonaromatic ring conformer: 70.47531911512529 kcal/mol)

>  <smiles>  (60) 
c1ccc2c(c1)CCN(c1nc(NC3CCCCCC3)nc(N3CCCC3)n1)C2

>  <score_type>  (60) 
oracle

>  <origin>  (60) 
autodockgpu

>  <m_score__min__energy>  (60) 
-5.9199999999999999

>  <m_primary>  (60) 
energy

>  <meeko>  (60) 
{"free_energy": -5.21, "intermolecular_energy": -8.19, "internal_energy": -0.55, "cluster_size": 6, "cluster_id": 3, "rank_in_cluster": 3}

>  <energy>  (60) 
-4.59

>  <cluster_rmsd>  (60) 
0.0

>  <rmsd>  (60) 
271.87

>  <cluster>  (60) 
9

$$$$
HZXVWJKCCMCLGL-LQFNOIFHNA-N
     RDKit          3D

 61 65  0  0  0  0  0  0  0  0999 V2000
  139.7320   68.1950  227.9530 C   0  0  0  0  0  0  0  0  0  0  0  0
  140.5620   69.2450  228.3500 C   0  0  0  0  0  0  0  0  0  0  0  0
  140.9730   70.2040  227.4180 C   0  0  0  0  0  0  0  0  0  0  0  0
  140.5420   70.1270  226.0830 C   0  0  0  0  0  0  0  0  0  0  0  0
  139.7000   69.0700  225.6880 C   0  0  0  0  0  0  0  0  0  0  0  0
  139.3070   68.1020  226.6250 C   0  0  0  0  0  0  0  0  0  0  0  0
  139.2740   68.9530  224.2550 C   0  0  0  0  0  0  0  0  0  0  0  0
  139.0680   70.3410  223.6550 C   0  0  0  0  0  0  0  0  0  0  0  0
  140.2780   71.1630  223.8230 N   0  0  0  0  0  0  0  0  0  0  0  0
  140.6380   72.1330  222.8160 C   0  0  0  0  0  0  0  0  0  0  0  0
  141.6840   71.9040  221.9770 N   0  0  0  0  0  0  0  0  0  0  0  0
  142.0210   72.8150  221.0280 C   0  0  0  0  0  0  0  0  0  0  0  0
  143.1280   72.5570  220.1540 N   0  0  0  0  0  0  0  0  0  0  0  0
  144.2300   73.5100  219.9730 C   0  0  0  0  0  0  0  0  0  0  0  0
  143.6840   74.8180  219.3560 C   0  0  0  0  0  0  0  0  0  0  0  0
  142.7290   74.6610  218.1500 C   0  0  0  0  0  0  0  0  0  0  0  0
  142.9460   73.3940  217.3030 C   0  0  0  0  0  0  0  0  0  0  0  0
  144.3770   73.1980  216.7340 C   0  0  0  0  0  0  0  0  0  0  0  0
  145.5420   73.4460  217.7120 C   0  0  0  0  0  0  0  0  0  0  0  0
  145.3330   72.8490  219.1180 C   0  0  0  0  0  0  0  0  0  0  0  0
  141.3040   73.9630  220.9170 N   0  0  0  0  0  0  0  0  0  0  0  0
  140.2590   74.2050  221.7470 C   0  0  0  0  0  0  0  0  0  0  0  0
  139.5090   75.4210  221.6260 N   0  0  0  0  0  0  0  0  0  0  0  0
  140.0460   76.6360  221.0400 C   0  0  0  0  0  0  0  0  0  0  0  0
  138.9820   77.7030  221.2670 C   0  0  0  0  0  0  0  0  0  0  0  0
  137.7000   76.9500  221.6180 C   0  0  0  0  0  0  0  0  0  0  0  0
  138.1390   75.5670  222.0810 C   0  0  0  0  0  0  0  0  0  0  0  0
  139.9290   73.2870  222.6930 N   0  0  0  0  0  0  0  0  0  0  0  0
  141.0410   71.1470  225.0860 C   0  0  0  0  0  0  0  0  0  0  0  0
  139.4122   67.4401  228.6863 H   0  0  0  0  0  0  0  0  0  0  0  0
  140.8931   69.3184  229.3964 H   0  0  0  0  0  0  0  0  0  0  0  0
  141.6372   71.0227  227.7321 H   0  0  0  0  0  0  0  0  0  0  0  0
  138.6622   67.2672  226.3130 H   0  0  0  0  0  0  0  0  0  0  0  0
  140.0518   68.4224  223.6862 H   0  0  0  0  0  0  0  0  0  0  0  0
  138.3276   68.3946  224.2048 H   0  0  0  0  0  0  0  0  0  0  0  0
  138.8444   70.2417  222.5825 H   0  0  0  0  0  0  0  0  0  0  0  0
  138.2313   70.8312  224.1743 H   0  0  0  0  0  0  0  0  0  0  0  0
  143.1350   71.6530  219.6300 H   0  0  0  0  0  0  0  0  0  0  0  0
  144.6834   73.7789  220.9385 H   0  0  0  0  0  0  0  0  0  0  0  0
  143.1413   75.3595  220.1448 H   0  0  0  0  0  0  0  0  0  0  0  0
  144.5652   75.3476  218.9649 H   0  0  0  0  0  0  0  0  0  0  0  0
  141.6979   74.6421  218.5326 H   0  0  0  0  0  0  0  0  0  0  0  0
  142.9351   75.5122  217.4845 H   0  0  0  0  0  0  0  0  0  0  0  0
  142.7110   72.5230  217.9324 H   0  0  0  0  0  0  0  0  0  0  0  0
  142.2891   73.5040  216.4275 H   0  0  0  0  0  0  0  0  0  0  0  0
  144.4557   72.1611  216.3755 H   0  0  0  0  0  0  0  0  0  0  0  0
  144.4867   73.9604  215.9487 H   0  0  0  0  0  0  0  0  0  0  0  0
  146.4522   73.0025  217.2820 H   0  0  0  0  0  0  0  0  0  0  0  0
  145.6154   74.5358  217.8421 H   0  0  0  0  0  0  0  0  0  0  0  0
  145.0755   71.7863  218.9983 H   0  0  0  0  0  0  0  0  0  0  0  0
  146.2746   73.0237  219.6591 H   0  0  0  0  0  0  0  0  0  0  0  0
  140.9861   76.9190  221.5361 H   0  0  0  0  0  0  0  0  0  0  0  0
  140.2733   76.5075  219.9714 H   0  0  0  0  0  0  0  0  0  0  0  0
  139.2752   78.3654  222.0948 H   0  0  0  0  0  0  0  0  0  0  0  0
  138.8478   78.3345  220.3764 H   0  0  0  0  0  0  0  0  0  0  0  0
  137.1601   77.4692  222.4235 H   0  0  0  0  0  0  0  0  0  0  0  0
  137.0195   76.8891  220.7559 H   0  0  0  0  0  0  0  0  0  0  0  0
  138.0886   75.4950  223.1775 H   0  0  0  0  0  0  0  0  0  0  0  0
  137.4891   74.7768  221.6771 H   0  0  0  0  0  0  0  0  0  0  0  0
  142.0922   70.9208  224.8541 H   0  0  0  0  0  0  0  0  0  0  0  0
  140.9176   72.1371  225.5492 H   0  0  0  0  0  0  0  0  0  0  0  0
  1  2  2  0
  2  3  1  0
  3  4  2  0
  4  5  1  0
  5  6  2  0
  5  7  1  0
  7  8  1  0
  8  9  1  0
  9 10  1  0
 10 11  2  0
 11 12  1  0
 12 13  1  0
 13 14  1  0
 14 15  1  0
 15 16  1  0
 16 17  1  0
 17 18  1  0
 18 19  1  0
 19 20  1  0
 12 21  2  0
 21 22  1  0
 22 23  1  0
 23 24  1  0
 24 25  1  0
 25 26  1  0
 26 27  1  0
 22 28  2  0
  9 29  1  0
  6  1  1  0
 28 10  1  0
 29  4  1  0
 20 14  1  0
 27 23  1  0
  1 30  1  0
  2 31  1  0
  3 32  1  0
  6 33  1  0
  7 34  1  0
  7 35  1  0
  8 36  1  0
  8 37  1  0
 13 38  1  0
 14 39  1  0
 15 40  1  0
 15 41  1  0
 16 42  1  0
 16 43  1  0
 17 44  1  0
 17 45  1  0
 18 46  1  0
 18 47  1  0
 19 48  1  0
 19 49  1  0
 20 50  1  0
 20 51  1  0
 24 52  1  0
 24 53  1  0
 25 54  1  0
 25 55  1  0
 26 56  1  0
 26 57  1  0
 27 58  1  0
 27 59  1  0
 29 60  1  0
 29 61  1  0
M  END
>  <UniqueID>  (61) 
572

>  <SMILES>  (61) 
c1ccc2c(c1)CCN(c1nc(NC3CCCCCC3)nc(N3CCCC3)n1)C2

>  <Energy>  (61) 
70.9500233208185

>  <Genealogy>  (61) 
c1ccc2c(c1)CCN(c1nc(NC3CCCCCC3)nc(N3CCCC3)n1)C2 (3D coordinates assigned)
c1ccc2c(c1)CCN(c1nc(NC3CCCCCC3)nc(N3CCCC3)n1)C2 (nonaromatic ring conformer: 70.9500233208185 kcal/mol)

>  <smiles>  (61) 
c1ccc2c(c1)CCN(c1nc(NC3CCCCCC3)nc(N3CCCC3)n1)C2

>  <score_type>  (61) 
oracle

>  <origin>  (61) 
autodockgpu

>  <m_score__min__energy>  (61) 
-6.0199999999999996

>  <m_primary>  (61) 
energy

>  <meeko>  (61) 
{"free_energy": -4.59, "intermolecular_energy": -7.57, "internal_energy": -1.01, "cluster_size": 2, "cluster_id": 8, "rank_in_cluster": 1}

>  <energy>  (61) 
-6.02

>  <cluster_rmsd>  (61) 
0.0

>  <rmsd>  (61) 
270.73

>  <cluster>  (61) 
1

$$$$
HZXVWJKCCMCLGL-LQFNOIFHNA-N
     RDKit          3D

 61 65  0  0  0  0  0  0  0  0999 V2000
  139.6330   67.7670  227.2640 C   0  0  0  0  0  0  0  0  0  0  0  0
  140.3870   68.8080  227.8080 C   0  0  0  0  0  0  0  0  0  0  0  0
  140.7460   69.9010  227.0140 C   0  0  0  0  0  0  0  0  0  0  0  0
  140.3400   69.9680  225.6700 C   0  0  0  0  0  0  0  0  0  0  0  0
  139.5750   68.9180  225.1270 C   0  0  0  0  0  0  0  0  0  0  0  0
  139.2330   67.8160  225.9260 C   0  0  0  0  0  0  0  0  0  0  0  0
  139.1780   68.9560  223.6820 C   0  0  0  0  0  0  0  0  0  0  0  0
  138.8890   70.3930  223.2560 C   0  0  0  0  0  0  0  0  0  0  0  0
  140.0390   71.2630  223.5530 N   0  0  0  0  0  0  0  0  0  0  0  0
  140.3490   72.3740  222.6830 C   0  0  0  0  0  0  0  0  0  0  0  0
  141.3940   72.3030  221.8160 N   0  0  0  0  0  0  0  0  0  0  0  0
  141.6840   73.3470  220.9980 C   0  0  0  0  0  0  0  0  0  0  0  0
  142.7910   73.2550  220.0910 N   0  0  0  0  0  0  0  0  0  0  0  0
  143.9320   74.1780  220.1420 C   0  0  0  0  0  0  0  0  0  0  0  0
  143.7070   75.3310  219.1360 C   0  0  0  0  0  0  0  0  0  0  0  0
  142.9090   74.9800  217.8590 C   0  0  0  0  0  0  0  0  0  0  0  0
  143.6000   73.9890  216.9050 C   0  0  0  0  0  0  0  0  0  0  0  0
  144.2530   72.7490  217.5750 C   0  0  0  0  0  0  0  0  0  0  0  0
  145.5140   73.0230  218.4110 C   0  0  0  0  0  0  0  0  0  0  0  0
  145.2330   73.3880  219.8820 C   0  0  0  0  0  0  0  0  0  0  0  0
  140.9190   74.4680  221.0450 N   0  0  0  0  0  0  0  0  0  0  0  0
  139.8730   74.5520  221.9050 C   0  0  0  0  0  0  0  0  0  0  0  0
  139.0720   75.7400  221.9530 N   0  0  0  0  0  0  0  0  0  0  0  0
  137.6210   75.7240  222.0070 C   0  0  0  0  0  0  0  0  0  0  0  0
  137.1930   77.1800  221.8760 C   0  0  0  0  0  0  0  0  0  0  0  0
  138.4410   78.0140  222.1620 C   0  0  0  0  0  0  0  0  0  0  0  0
  139.6260   77.0820  221.9450 C   0  0  0  0  0  0  0  0  0  0  0  0
  139.5920   73.5030  222.7210 N   0  0  0  0  0  0  0  0  0  0  0  0
  140.7840   71.1350  224.8200 C   0  0  0  0  0  0  0  0  0  0  0  0
  139.3532   66.9066  227.8896 H   0  0  0  0  0  0  0  0  0  0  0  0
  140.6989   68.7683  228.8621 H   0  0  0  0  0  0  0  0  0  0  0  0
  141.3500   70.7137  227.4437 H   0  0  0  0  0  0  0  0  0  0  0  0
  138.6484   66.9885  225.4977 H   0  0  0  0  0  0  0  0  0  0  0  0
  139.9971   68.5523  223.0687 H   0  0  0  0  0  0  0  0  0  0  0  0
  138.2714   68.3491  223.5412 H   0  0  0  0  0  0  0  0  0  0  0  0
  138.6881   70.4160  222.1747 H   0  0  0  0  0  0  0  0  0  0  0  0
  138.0143   70.7590  223.8136 H   0  0  0  0  0  0  0  0  0  0  0  0
  142.7710   72.4990  219.3700 H   0  0  0  0  0  0  0  0  0  0  0  0
  144.0252   74.6380  221.1368 H   0  0  0  0  0  0  0  0  0  0  0  0
  143.1653   76.1321  219.6601 H   0  0  0  0  0  0  0  0  0  0  0  0
  144.7105   75.6149  218.7860 H   0  0  0  0  0  0  0  0  0  0  0  0
  141.9486   74.5414  218.1678 H   0  0  0  0  0  0  0  0  0  0  0  0
  142.8030   75.9201  217.2977 H   0  0  0  0  0  0  0  0  0  0  0  0
  142.8465   73.6283  216.1894 H   0  0  0  0  0  0  0  0  0  0  0  0
  144.4263   74.5477  216.4412 H   0  0  0  0  0  0  0  0  0  0  0  0
  143.5036   72.2896  218.2363 H   0  0  0  0  0  0  0  0  0  0  0  0
  144.5793   72.1013  216.7479 H   0  0  0  0  0  0  0  0  0  0  0  0
  146.1416   72.1197  218.3940 H   0  0  0  0  0  0  0  0  0  0  0  0
  146.0082   73.8955  217.9589 H   0  0  0  0  0  0  0  0  0  0  0  0
  145.1803   72.4522  220.4577 H   0  0  0  0  0  0  0  0  0  0  0  0
  146.0532   74.0550  220.1861 H   0  0  0  0  0  0  0  0  0  0  0  0
  137.2120   75.1270  221.1786 H   0  0  0  0  0  0  0  0  0  0  0  0
  137.2522   75.2725  222.9398 H   0  0  0  0  0  0  0  0  0  0  0  0
  136.8246   77.3799  220.8590 H   0  0  0  0  0  0  0  0  0  0  0  0
  136.3773   77.4241  222.5725 H   0  0  0  0  0  0  0  0  0  0  0  0
  138.4958   78.8692  221.4723 H   0  0  0  0  0  0  0  0  0  0  0  0
  138.4292   78.4203  223.1842 H   0  0  0  0  0  0  0  0  0  0  0  0
  140.1087   77.2927  220.9793 H   0  0  0  0  0  0  0  0  0  0  0  0
  140.3936   77.2108  222.7224 H   0  0  0  0  0  0  0  0  0  0  0  0
  141.8508   71.0069  224.5842 H   0  0  0  0  0  0  0  0  0  0  0  0
  140.5894   72.0485  225.4011 H   0  0  0  0  0  0  0  0  0  0  0  0
  1  2  2  0
  2  3  1  0
  3  4  2  0
  4  5  1  0
  5  6  2  0
  5  7  1  0
  7  8  1  0
  8  9  1  0
  9 10  1  0
 10 11  2  0
 11 12  1  0
 12 13  1  0
 13 14  1  0
 14 15  1  0
 15 16  1  0
 16 17  1  0
 17 18  1  0
 18 19  1  0
 19 20  1  0
 12 21  2  0
 21 22  1  0
 22 23  1  0
 23 24  1  0
 24 25  1  0
 25 26  1  0
 26 27  1  0
 22 28  2  0
  9 29  1  0
  6  1  1  0
 28 10  1  0
 29  4  1  0
 20 14  1  0
 27 23  1  0
  1 30  1  0
  2 31  1  0
  3 32  1  0
  6 33  1  0
  7 34  1  0
  7 35  1  0
  8 36  1  0
  8 37  1  0
 13 38  1  0
 14 39  1  0
 15 40  1  0
 15 41  1  0
 16 42  1  0
 16 43  1  0
 17 44  1  0
 17 45  1  0
 18 46  1  0
 18 47  1  0
 19 48  1  0
 19 49  1  0
 20 50  1  0
 20 51  1  0
 24 52  1  0
 24 53  1  0
 25 54  1  0
 25 55  1  0
 26 56  1  0
 26 57  1  0
 27 58  1  0
 27 59  1  0
 29 60  1  0
 29 61  1  0
M  END
>  <UniqueID>  (62) 
572

>  <SMILES>  (62) 
c1ccc2c(c1)CCN(c1nc(NC3CCCCCC3)nc(N3CCCC3)n1)C2

>  <Energy>  (62) 
70.9500233208185

>  <Genealogy>  (62) 
c1ccc2c(c1)CCN(c1nc(NC3CCCCCC3)nc(N3CCCC3)n1)C2 (3D coordinates assigned)
c1ccc2c(c1)CCN(c1nc(NC3CCCCCC3)nc(N3CCCC3)n1)C2 (nonaromatic ring conformer: 70.9500233208185 kcal/mol)

>  <smiles>  (62) 
c1ccc2c(c1)CCN(c1nc(NC3CCCCCC3)nc(N3CCCC3)n1)C2

>  <score_type>  (62) 
oracle

>  <origin>  (62) 
autodockgpu

>  <m_score__min__energy>  (62) 
-6.0199999999999996

>  <m_primary>  (62) 
energy

>  <meeko>  (62) 
{"free_energy": -4.94, "intermolecular_energy": -7.92, "internal_energy": -0.93, "cluster_size": 5, "cluster_id": 3, "rank_in_cluster": 4}

>  <energy>  (62) 
-5.78

>  <cluster_rmsd>  (62) 
1.18

>  <rmsd>  (62) 
270.89

>  <cluster>  (62) 
1

$$$$
HZXVWJKCCMCLGL-LQFNOIFHNA-N
     RDKit          3D

 61 65  0  0  0  0  0  0  0  0999 V2000
  140.2620   68.5640  227.9680 C   0  0  0  0  0  0  0  0  0  0  0  0
  140.9250   69.7720  228.1930 C   0  0  0  0  0  0  0  0  0  0  0  0
  141.0250   70.7170  227.1670 C   0  0  0  0  0  0  0  0  0  0  0  0
  140.4490   70.4660  225.9110 C   0  0  0  0  0  0  0  0  0  0  0  0
  139.7760   69.2480  225.6890 C   0  0  0  0  0  0  0  0  0  0  0  0
  139.6960   68.2970  226.7190 C   0  0  0  0  0  0  0  0  0  0  0  0
  139.2000   68.9510  224.3380 C   0  0  0  0  0  0  0  0  0  0  0  0
  138.6610   70.2310  223.7050 C   0  0  0  0  0  0  0  0  0  0  0  0
  139.7060   71.2670  223.6610 N   0  0  0  0  0  0  0  0  0  0  0  0
  139.7460   72.2090  222.5670 C   0  0  0  0  0  0  0  0  0  0  0  0
  140.4160   73.3860  222.6910 N   0  0  0  0  0  0  0  0  0  0  0  0
  140.4550   74.2700  221.6620 C   0  0  0  0  0  0  0  0  0  0  0  0
  141.1650   75.5060  221.8110 N   0  0  0  0  0  0  0  0  0  0  0  0
  140.5010   76.8130  221.7300 C   0  0  0  0  0  0  0  0  0  0  0  0
  141.3710   77.8780  222.4360 C   0  0  0  0  0  0  0  0  0  0  0  0
  141.1460   79.3450  222.0010 C   0  0  0  0  0  0  0  0  0  0  0  0
  139.9170   80.0330  222.6260 C   0  0  0  0  0  0  0  0  0  0  0  0
  138.8820   79.0890  223.2960 C   0  0  0  0  0  0  0  0  0  0  0  0
  138.2680   78.0040  222.3890 C   0  0  0  0  0  0  0  0  0  0  0  0
  139.0800   76.6960  222.3260 C   0  0  0  0  0  0  0  0  0  0  0  0
  139.8200   73.9730  220.4990 N   0  0  0  0  0  0  0  0  0  0  0  0
  139.1470   72.8020  220.3610 C   0  0  0  0  0  0  0  0  0  0  0  0
  138.4760   72.4970  219.1310 N   0  0  0  0  0  0  0  0  0  0  0  0
  138.3860   73.4250  218.0190 C   0  0  0  0  0  0  0  0  0  0  0  0
  137.4600   72.7600  217.0080 C   0  0  0  0  0  0  0  0  0  0  0  0
  137.3830   71.2890  217.4120 C   0  0  0  0  0  0  0  0  0  0  0  0
  137.8130   71.2320  218.8720 C   0  0  0  0  0  0  0  0  0  0  0  0
  139.1140   71.9240  221.3970 N   0  0  0  0  0  0  0  0  0  0  0  0
  140.6140   71.4820  224.8050 C   0  0  0  0  0  0  0  0  0  0  0  0
  140.1852   67.8212  228.7757 H   0  0  0  0  0  0  0  0  0  0  0  0
  141.3689   69.9805  229.1776 H   0  0  0  0  0  0  0  0  0  0  0  0
  141.5580   71.6627  227.3448 H   0  0  0  0  0  0  0  0  0  0  0  0
  139.1860   67.3386  226.5418 H   0  0  0  0  0  0  0  0  0  0  0  0
  139.9844   68.5284  223.6929 H   0  0  0  0  0  0  0  0  0  0  0  0
  138.3771   68.2294  224.4480 H   0  0  0  0  0  0  0  0  0  0  0  0
  138.3240   70.0137  222.6807 H   0  0  0  0  0  0  0  0  0  0  0  0
  137.8209   70.6002  224.3116 H   0  0  0  0  0  0  0  0  0  0  0  0
  142.1950   75.4610  221.9810 H   0  0  0  0  0  0  0  0  0  0  0  0
  140.3897   77.1357  220.6843 H   0  0  0  0  0  0  0  0  0  0  0  0
  141.1691   77.8138  223.5154 H   0  0  0  0  0  0  0  0  0  0  0  0
  142.4079   77.6440  222.1531 H   0  0  0  0  0  0  0  0  0  0  0  0
  142.0388   79.9236  222.2804 H   0  0  0  0  0  0  0  0  0  0  0  0
  140.9622   79.3174  220.9168 H   0  0  0  0  0  0  0  0  0  0  0  0
  140.2769   80.7367  223.3911 H   0  0  0  0  0  0  0  0  0  0  0  0
  139.3864   80.5132  221.7906 H   0  0  0  0  0  0  0  0  0  0  0  0
  139.3823   78.5826  224.1346 H   0  0  0  0  0  0  0  0  0  0  0  0
  138.0429   79.7345  223.5947 H   0  0  0  0  0  0  0  0  0  0  0  0
  137.2625   77.7674  222.7672 H   0  0  0  0  0  0  0  0  0  0  0  0
  138.2552   78.4162  221.3692 H   0  0  0  0  0  0  0  0  0  0  0  0
  139.1751   76.3084  223.3511 H   0  0  0  0  0  0  0  0  0  0  0  0
  138.5251   76.0331  221.6459 H   0  0  0  0  0  0  0  0  0  0  0  0
  137.9651   74.3850  218.3525 H   0  0  0  0  0  0  0  0  0  0  0  0
  139.3742   73.6413  217.5868 H   0  0  0  0  0  0  0  0  0  0  0  0
  136.4611   73.2193  217.0447 H   0  0  0  0  0  0  0  0  0  0  0  0
  137.8349   72.8766  215.9805 H   0  0  0  0  0  0  0  0  0  0  0  0
  136.3542   70.9156  217.3016 H   0  0  0  0  0  0  0  0  0  0  0  0
  138.0270   70.6625  216.7774 H   0  0  0  0  0  0  0  0  0  0  0  0
  136.9366   71.1163  219.5266 H   0  0  0  0  0  0  0  0  0  0  0  0
  138.4756   70.3763  219.0690 H   0  0  0  0  0  0  0  0  0  0  0  0
  141.6504   71.4325  224.4398 H   0  0  0  0  0  0  0  0  0  0  0  0
  140.3658   72.4649  225.2319 H   0  0  0  0  0  0  0  0  0  0  0  0
  1  2  2  0
  2  3  1  0
  3  4  2  0
  4  5  1  0
  5  6  2  0
  5  7  1  0
  7  8  1  0
  8  9  1  0
  9 10  1  0
 10 11  2  0
 11 12  1  0
 12 13  1  0
 13 14  1  0
 14 15  1  0
 15 16  1  0
 16 17  1  0
 17 18  1  0
 18 19  1  0
 19 20  1  0
 12 21  2  0
 21 22  1  0
 22 23  1  0
 23 24  1  0
 24 25  1  0
 25 26  1  0
 26 27  1  0
 22 28  2  0
  9 29  1  0
  6  1  1  0
 28 10  1  0
 29  4  1  0
 20 14  1  0
 27 23  1  0
  1 30  1  0
  2 31  1  0
  3 32  1  0
  6 33  1  0
  7 34  1  0
  7 35  1  0
  8 36  1  0
  8 37  1  0
 13 38  1  0
 14 39  1  0
 15 40  1  0
 15 41  1  0
 16 42  1  0
 16 43  1  0
 17 44  1  0
 17 45  1  0
 18 46  1  0
 18 47  1  0
 19 48  1  0
 19 49  1  0
 20 50  1  0
 20 51  1  0
 24 52  1  0
 24 53  1  0
 25 54  1  0
 25 55  1  0
 26 56  1  0
 26 57  1  0
 27 58  1  0
 27 59  1  0
 29 60  1  0
 29 61  1  0
M  END
>  <UniqueID>  (63) 
572

>  <SMILES>  (63) 
c1ccc2c(c1)CCN(c1nc(NC3CCCCCC3)nc(N3CCCC3)n1)C2

>  <Energy>  (63) 
70.9500233208185

>  <Genealogy>  (63) 
c1ccc2c(c1)CCN(c1nc(NC3CCCCCC3)nc(N3CCCC3)n1)C2 (3D coordinates assigned)
c1ccc2c(c1)CCN(c1nc(NC3CCCCCC3)nc(N3CCCC3)n1)C2 (nonaromatic ring conformer: 70.9500233208185 kcal/mol)

>  <smiles>  (63) 
c1ccc2c(c1)CCN(c1nc(NC3CCCCCC3)nc(N3CCCC3)n1)C2

>  <score_type>  (63) 
oracle

>  <origin>  (63) 
autodockgpu

>  <m_score__min__energy>  (63) 
-6.0199999999999996

>  <m_primary>  (63) 
energy

>  <meeko>  (63) 
{"free_energy": -5.29, "intermolecular_energy": -8.27, "internal_energy": -0.94, "cluster_size": 1, "cluster_id": 5, "rank_in_cluster": 1}

>  <energy>  (63) 
-5.38

>  <cluster_rmsd>  (63) 
1.93

>  <rmsd>  (63) 
270.05

>  <cluster>  (63) 
1

$$$$
HZXVWJKCCMCLGL-LQFNOIFHNA-N
     RDKit          3D

 61 65  0  0  0  0  0  0  0  0999 V2000
  139.8020   68.2530  227.9740 C   0  0  0  0  0  0  0  0  0  0  0  0
  140.6560   69.3020  228.3210 C   0  0  0  0  0  0  0  0  0  0  0  0
  141.0470   70.2350  227.3550 C   0  0  0  0  0  0  0  0  0  0  0  0
  140.5720   70.1350  226.0370 C   0  0  0  0  0  0  0  0  0  0  0  0
  139.7060   69.0790  225.6930 C   0  0  0  0  0  0  0  0  0  0  0  0
  139.3330   68.1360  226.6630 C   0  0  0  0  0  0  0  0  0  0  0  0
  139.2320   68.9350  224.2780 C   0  0  0  0  0  0  0  0  0  0  0  0
  139.0210   70.3120  223.6540 C   0  0  0  0  0  0  0  0  0  0  0  0
  140.2440   71.1240  223.7640 N   0  0  0  0  0  0  0  0  0  0  0  0
  140.5820   72.0680  222.7240 C   0  0  0  0  0  0  0  0  0  0  0  0
  141.4670   71.7340  221.7470 N   0  0  0  0  0  0  0  0  0  0  0  0
  141.7820   72.6200  220.7690 C   0  0  0  0  0  0  0  0  0  0  0  0
  142.7190   72.2510  219.7480 N   0  0  0  0  0  0  0  0  0  0  0  0
  143.3450   73.2360  218.8570 C   0  0  0  0  0  0  0  0  0  0  0  0
  144.6390   72.6390  218.2560 C   0  0  0  0  0  0  0  0  0  0  0  0
  145.4550   71.7040  219.1790 C   0  0  0  0  0  0  0  0  0  0  0  0
  146.1400   72.3960  220.3720 C   0  0  0  0  0  0  0  0  0  0  0  0
  145.9770   73.9380  220.4440 C   0  0  0  0  0  0  0  0  0  0  0  0
  144.5730   74.4480  220.8220 C   0  0  0  0  0  0  0  0  0  0  0  0
  143.5870   74.5450  219.6410 C   0  0  0  0  0  0  0  0  0  0  0  0
  141.2050   73.8490  220.7660 N   0  0  0  0  0  0  0  0  0  0  0  0
  140.3210   74.1960  221.7350 C   0  0  0  0  0  0  0  0  0  0  0  0
  139.7170   75.4970  221.7280 N   0  0  0  0  0  0  0  0  0  0  0  0
  140.4820   76.7320  221.7250 C   0  0  0  0  0  0  0  0  0  0  0  0
  139.4560   77.8460  221.8860 C   0  0  0  0  0  0  0  0  0  0  0  0
  138.1000   77.2200  221.5650 C   0  0  0  0  0  0  0  0  0  0  0  0
  138.2830   75.7160  221.7310 C   0  0  0  0  0  0  0  0  0  0  0  0
  140.0120   73.3020  222.7100 N   0  0  0  0  0  0  0  0  0  0  0  0
  141.0480   71.1270  225.0020 C   0  0  0  0  0  0  0  0  0  0  0  0
  139.4981   67.5178  228.7337 H   0  0  0  0  0  0  0  0  0  0  0  0
  141.0214   69.3946  229.3544 H   0  0  0  0  0  0  0  0  0  0  0  0
  141.7306   71.0520  227.6292 H   0  0  0  0  0  0  0  0  0  0  0  0
  138.6694   67.3022  226.3904 H   0  0  0  0  0  0  0  0  0  0  0  0
  139.9850   68.3832  223.6962 H   0  0  0  0  0  0  0  0  0  0  0  0
  138.2787   68.3862  224.2712 H   0  0  0  0  0  0  0  0  0  0  0  0
  138.7614   70.1916  222.5919 H   0  0  0  0  0  0  0  0  0  0  0  0
  138.2070   70.8228  224.1893 H   0  0  0  0  0  0  0  0  0  0  0  0
  142.9540   71.2380  219.6440 H   0  0  0  0  0  0  0  0  0  0  0  0
  142.6847   73.4800  218.0118 H   0  0  0  0  0  0  0  0  0  0  0  0
  144.3589   72.0649  217.3605 H   0  0  0  0  0  0  0  0  0  0  0  0
  145.2944   73.4997  218.0569 H   0  0  0  0  0  0  0  0  0  0  0  0
  144.7731   70.9375  219.5758 H   0  0  0  0  0  0  0  0  0  0  0  0
  146.2647   71.2926  218.5584 H   0  0  0  0  0  0  0  0  0  0  0  0
  145.7216   71.9690  221.2954 H   0  0  0  0  0  0  0  0  0  0  0  0
  147.2174   72.2155  220.2433 H   0  0  0  0  0  0  0  0  0  0  0  0
  146.6869   74.3176  221.1937 H   0  0  0  0  0  0  0  0  0  0  0  0
  146.1633   74.3056  219.4241 H   0  0  0  0  0  0  0  0  0  0  0  0
  144.1478   73.7612  221.5686 H   0  0  0  0  0  0  0  0  0  0  0  0
  144.7048   75.4713  221.2035 H   0  0  0  0  0  0  0  0  0  0  0  0
  142.6187   74.8850  220.0370 H   0  0  0  0  0  0  0  0  0  0  0  0
  144.0472   75.2413  218.9245 H   0  0  0  0  0  0  0  0  0  0  0  0
  141.1966   76.7437  222.5612 H   0  0  0  0  0  0  0  0  0  0  0  0
  141.0680   76.8470  220.8012 H   0  0  0  0  0  0  0  0  0  0  0  0
  139.4658   78.2284  222.9174 H   0  0  0  0  0  0  0  0  0  0  0  0
  139.6753   78.6945  221.2212 H   0  0  0  0  0  0  0  0  0  0  0  0
  137.3332   77.5910  222.2609 H   0  0  0  0  0  0  0  0  0  0  0  0
  137.7681   77.4761  220.5480 H   0  0  0  0  0  0  0  0  0  0  0  0
  137.8446   75.3781  222.6816 H   0  0  0  0  0  0  0  0  0  0  0  0
  137.7827   75.1532  220.9291 H   0  0  0  0  0  0  0  0  0  0  0  0
  142.0886   70.8843  224.7410 H   0  0  0  0  0  0  0  0  0  0  0  0
  140.9498   72.1282  225.4469 H   0  0  0  0  0  0  0  0  0  0  0  0
  1  2  2  0
  2  3  1  0
  3  4  2  0
  4  5  1  0
  5  6  2  0
  5  7  1  0
  7  8  1  0
  8  9  1  0
  9 10  1  0
 10 11  2  0
 11 12  1  0
 12 13  1  0
 13 14  1  0
 14 15  1  0
 15 16  1  0
 16 17  1  0
 17 18  1  0
 18 19  1  0
 19 20  1  0
 12 21  2  0
 21 22  1  0
 22 23  1  0
 23 24  1  0
 24 25  1  0
 25 26  1  0
 26 27  1  0
 22 28  2  0
  9 29  1  0
  6  1  1  0
 28 10  1  0
 29  4  1  0
 20 14  1  0
 27 23  1  0
  1 30  1  0
  2 31  1  0
  3 32  1  0
  6 33  1  0
  7 34  1  0
  7 35  1  0
  8 36  1  0
  8 37  1  0
 13 38  1  0
 14 39  1  0
 15 40  1  0
 15 41  1  0
 16 42  1  0
 16 43  1  0
 17 44  1  0
 17 45  1  0
 18 46  1  0
 18 47  1  0
 19 48  1  0
 19 49  1  0
 20 50  1  0
 20 51  1  0
 24 52  1  0
 24 53  1  0
 25 54  1  0
 25 55  1  0
 26 56  1  0
 26 57  1  0
 27 58  1  0
 27 59  1  0
 29 60  1  0
 29 61  1  0
M  END
>  <UniqueID>  (64) 
572

>  <SMILES>  (64) 
c1ccc2c(c1)CCN(c1nc(NC3CCCCCC3)nc(N3CCCC3)n1)C2

>  <Energy>  (64) 
70.9500233208185

>  <Genealogy>  (64) 
c1ccc2c(c1)CCN(c1nc(NC3CCCCCC3)nc(N3CCCC3)n1)C2 (3D coordinates assigned)
c1ccc2c(c1)CCN(c1nc(NC3CCCCCC3)nc(N3CCCC3)n1)C2 (nonaromatic ring conformer: 70.9500233208185 kcal/mol)

>  <smiles>  (64) 
c1ccc2c(c1)CCN(c1nc(NC3CCCCCC3)nc(N3CCCC3)n1)C2

>  <score_type>  (64) 
oracle

>  <origin>  (64) 
autodockgpu

>  <m_score__min__energy>  (64) 
-6.0199999999999996

>  <m_primary>  (64) 
energy

>  <meeko>  (64) 
{"free_energy": -5.38, "intermolecular_energy": -8.36, "internal_energy": -0.95, "cluster_size": 5, "cluster_id": 3, "rank_in_cluster": 2}

>  <energy>  (64) 
-5.22

>  <cluster_rmsd>  (64) 
0.88

>  <rmsd>  (64) 
270.73

>  <cluster>  (64) 
1

$$$$
HZXVWJKCCMCLGL-LQFNOIFHNA-N
     RDKit          3D

 61 65  0  0  0  0  0  0  0  0999 V2000
  146.3590   69.4300  217.3580 C   0  0  0  0  0  0  0  0  0  0  0  0
  145.9010   68.5310  218.3240 C   0  0  0  0  0  0  0  0  0  0  0  0
  144.9590   68.9420  219.2720 C   0  0  0  0  0  0  0  0  0  0  0  0
  144.4560   70.2530  219.2510 C   0  0  0  0  0  0  0  0  0  0  0  0
  144.9150   71.1550  218.2730 C   0  0  0  0  0  0  0  0  0  0  0  0
  145.8750   70.7410  217.3350 C   0  0  0  0  0  0  0  0  0  0  0  0
  144.4200   72.5700  218.2720 C   0  0  0  0  0  0  0  0  0  0  0  0
  142.9560   72.6130  218.7030 C   0  0  0  0  0  0  0  0  0  0  0  0
  142.7800   71.9490  220.0050 N   0  0  0  0  0  0  0  0  0  0  0  0
  141.7850   72.4320  220.9340 C   0  0  0  0  0  0  0  0  0  0  0  0
  141.2460   71.6000  221.8650 N   0  0  0  0  0  0  0  0  0  0  0  0
  140.3120   72.0550  222.7390 C   0  0  0  0  0  0  0  0  0  0  0  0
  139.7540   71.1620  223.7130 N   0  0  0  0  0  0  0  0  0  0  0  0
  140.5750   70.4830  224.7240 C   0  0  0  0  0  0  0  0  0  0  0  0
  139.7020   69.4710  225.5000 C   0  0  0  0  0  0  0  0  0  0  0  0
  140.3870   68.7380  226.6780 C   0  0  0  0  0  0  0  0  0  0  0  0
  140.2790   69.4460  228.0420 C   0  0  0  0  0  0  0  0  0  0  0  0
  140.8890   70.8710  228.1140 C   0  0  0  0  0  0  0  0  0  0  0  0
  140.5110   71.8270  226.9660 C   0  0  0  0  0  0  0  0  0  0  0  0
  141.2330   71.5430  225.6340 C   0  0  0  0  0  0  0  0  0  0  0  0
  139.9160   73.3520  222.6830 N   0  0  0  0  0  0  0  0  0  0  0  0
  140.4450   74.1930  221.7590 C   0  0  0  0  0  0  0  0  0  0  0  0
  140.0200   75.5620  221.7020 N   0  0  0  0  0  0  0  0  0  0  0  0
  140.7400   76.6490  222.3420 C   0  0  0  0  0  0  0  0  0  0  0  0
  139.8570   77.8780  222.1690 C   0  0  0  0  0  0  0  0  0  0  0  0
  138.8510   77.5240  221.0750 C   0  0  0  0  0  0  0  0  0  0  0  0
  138.8260   76.0020  221.0060 C   0  0  0  0  0  0  0  0  0  0  0  0
  141.3790   73.7290  220.8880 N   0  0  0  0  0  0  0  0  0  0  0  0
  143.4750   70.6860  220.3170 C   0  0  0  0  0  0  0  0  0  0  0  0
  147.1017   69.1057  216.6142 H   0  0  0  0  0  0  0  0  0  0  0  0
  146.2817   67.4991  218.3389 H   0  0  0  0  0  0  0  0  0  0  0  0
  144.6099   68.2345  220.0386 H   0  0  0  0  0  0  0  0  0  0  0  0
  146.2467   71.4501  216.5807 H   0  0  0  0  0  0  0  0  0  0  0  0
  145.0231   73.1671  218.9718 H   0  0  0  0  0  0  0  0  0  0  0  0
  144.5089   72.9822  217.2560 H   0  0  0  0  0  0  0  0  0  0  0  0
  142.6339   73.6616  218.7854 H   0  0  0  0  0  0  0  0  0  0  0  0
  142.3492   72.0868  217.9514 H   0  0  0  0  0  0  0  0  0  0  0  0
  138.7220   70.9960  223.6890 H   0  0  0  0  0  0  0  0  0  0  0  0
  141.3871   69.9082  224.2549 H   0  0  0  0  0  0  0  0  0  0  0  0
  138.8350   70.0154  225.9024 H   0  0  0  0  0  0  0  0  0  0  0  0
  139.4470   68.6853  224.7736 H   0  0  0  0  0  0  0  0  0  0  0  0
  139.9273   67.7432  226.7734 H   0  0  0  0  0  0  0  0  0  0  0  0
  141.4593   68.7047  226.4351 H   0  0  0  0  0  0  0  0  0  0  0  0
  139.2122   69.5223  228.2990 H   0  0  0  0  0  0  0  0  0  0  0  0
  140.8658   68.8343  228.7431 H   0  0  0  0  0  0  0  0  0  0  0  0
  140.5592   71.3309  229.0572 H   0  0  0  0  0  0  0  0  0  0  0  0
  141.9774   70.7316  228.0373 H   0  0  0  0  0  0  0  0  0  0  0  0
  139.4276   71.7457  226.7938 H   0  0  0  0  0  0  0  0  0  0  0  0
  140.8218   72.8338  227.2820 H   0  0  0  0  0  0  0  0  0  0  0  0
  141.2843   72.4863  225.0704 H   0  0  0  0  0  0  0  0  0  0  0  0
  142.2152   71.1313  225.9092 H   0  0  0  0  0  0  0  0  0  0  0  0
  140.8934   76.4328  223.4096 H   0  0  0  0  0  0  0  0  0  0  0  0
  141.7361   76.7960  221.8990 H   0  0  0  0  0  0  0  0  0  0  0  0
  139.3341   78.1081  223.1090 H   0  0  0  0  0  0  0  0  0  0  0  0
  140.4495   78.7648  221.8995 H   0  0  0  0  0  0  0  0  0  0  0  0
  137.8542   77.9116  221.3321 H   0  0  0  0  0  0  0  0  0  0  0  0
  139.1332   77.9672  220.1086 H   0  0  0  0  0  0  0  0  0  0  0  0
  137.9258   75.6096  221.5015 H   0  0  0  0  0  0  0  0  0  0  0  0
  138.8034   75.6413  219.9671 H   0  0  0  0  0  0  0  0  0  0  0  0
  144.0234   70.8155  221.2617 H   0  0  0  0  0  0  0  0  0  0  0  0
  142.7052   69.9030  220.3827 H   0  0  0  0  0  0  0  0  0  0  0  0
  1  2  2  0
  2  3  1  0
  3  4  2  0
  4  5  1  0
  5  6  2  0
  5  7  1  0
  7  8  1  0
  8  9  1  0
  9 10  1  0
 10 11  2  0
 11 12  1  0
 12 13  1  0
 13 14  1  0
 14 15  1  0
 15 16  1  0
 16 17  1  0
 17 18  1  0
 18 19  1  0
 19 20  1  0
 12 21  2  0
 21 22  1  0
 22 23  1  0
 23 24  1  0
 24 25  1  0
 25 26  1  0
 26 27  1  0
 22 28  2  0
  9 29  1  0
  6  1  1  0
 28 10  1  0
 29  4  1  0
 20 14  1  0
 27 23  1  0
  1 30  1  0
  2 31  1  0
  3 32  1  0
  6 33  1  0
  7 34  1  0
  7 35  1  0
  8 36  1  0
  8 37  1  0
 13 38  1  0
 14 39  1  0
 15 40  1  0
 15 41  1  0
 16 42  1  0
 16 43  1  0
 17 44  1  0
 17 45  1  0
 18 46  1  0
 18 47  1  0
 19 48  1  0
 19 49  1  0
 20 50  1  0
 20 51  1  0
 24 52  1  0
 24 53  1  0
 25 54  1  0
 25 55  1  0
 26 56  1  0
 26 57  1  0
 27 58  1  0
 27 59  1  0
 29 60  1  0
 29 61  1  0
M  END
>  <UniqueID>  (65) 
572

>  <SMILES>  (65) 
c1ccc2c(c1)CCN(c1nc(NC3CCCCCC3)nc(N3CCCC3)n1)C2

>  <Energy>  (65) 
70.9500233208185

>  <Genealogy>  (65) 
c1ccc2c(c1)CCN(c1nc(NC3CCCCCC3)nc(N3CCCC3)n1)C2 (3D coordinates assigned)
c1ccc2c(c1)CCN(c1nc(NC3CCCCCC3)nc(N3CCCC3)n1)C2 (nonaromatic ring conformer: 70.9500233208185 kcal/mol)

>  <smiles>  (65) 
c1ccc2c(c1)CCN(c1nc(NC3CCCCCC3)nc(N3CCCC3)n1)C2

>  <score_type>  (65) 
oracle

>  <origin>  (65) 
autodockgpu

>  <m_score__min__energy>  (65) 
-6.0199999999999996

>  <m_primary>  (65) 
energy

>  <meeko>  (65) 
{"free_energy": -5.09, "intermolecular_energy": -8.07, "internal_energy": -0.9, "cluster_size": 1, "cluster_id": 6, "rank_in_cluster": 1}

>  <energy>  (65) 
-4.94

>  <cluster_rmsd>  (65) 
1.26

>  <rmsd>  (65) 
270.6

>  <cluster>  (65) 
1

$$$$
HZXVWJKCCMCLGL-LQFNOIFHNA-N
     RDKit          3D

 61 65  0  0  0  0  0  0  0  0999 V2000
  139.7710   67.6790  227.0410 C   0  0  0  0  0  0  0  0  0  0  0  0
  140.4660   68.7770  227.5520 C   0  0  0  0  0  0  0  0  0  0  0  0
  140.6060   69.9370  226.7850 C   0  0  0  0  0  0  0  0  0  0  0  0
  140.0360   70.0140  225.5020 C   0  0  0  0  0  0  0  0  0  0  0  0
  139.3310   68.9070  224.9920 C   0  0  0  0  0  0  0  0  0  0  0  0
  139.2110   67.7390  225.7620 C   0  0  0  0  0  0  0  0  0  0  0  0
  138.7610   68.9610  223.6070 C   0  0  0  0  0  0  0  0  0  0  0  0
  138.2670   70.3720  223.2980 C   0  0  0  0  0  0  0  0  0  0  0  0
  139.3430   71.3550  223.5090 N   0  0  0  0  0  0  0  0  0  0  0  0
  139.4210   72.5300  222.6740 C   0  0  0  0  0  0  0  0  0  0  0  0
  140.6290   73.0510  222.3250 N   0  0  0  0  0  0  0  0  0  0  0  0
  140.7030   74.1550  221.5380 C   0  0  0  0  0  0  0  0  0  0  0  0
  141.9840   74.6900  221.1810 N   0  0  0  0  0  0  0  0  0  0  0  0
  143.0980   73.8430  220.7380 C   0  0  0  0  0  0  0  0  0  0  0  0
  144.2180   74.7310  220.1470 C   0  0  0  0  0  0  0  0  0  0  0  0
  145.6610   74.1910  220.2760 C   0  0  0  0  0  0  0  0  0  0  0  0
  145.8880   72.7850  219.6890 C   0  0  0  0  0  0  0  0  0  0  0  0
  144.8810   71.6930  220.1390 C   0  0  0  0  0  0  0  0  0  0  0  0
  143.5420   71.6530  219.3800 C   0  0  0  0  0  0  0  0  0  0  0  0
  142.5670   72.7910  219.7400 C   0  0  0  0  0  0  0  0  0  0  0  0
  139.5600   74.7400  221.0950 N   0  0  0  0  0  0  0  0  0  0  0  0
  138.3500   74.2320  221.4360 C   0  0  0  0  0  0  0  0  0  0  0  0
  137.1470   74.8570  220.9680 N   0  0  0  0  0  0  0  0  0  0  0  0
  136.5930   74.6320  219.6440 C   0  0  0  0  0  0  0  0  0  0  0  0
  135.4300   75.6080  219.5190 C   0  0  0  0  0  0  0  0  0  0  0  0
  135.1130   76.0700  220.9400 C   0  0  0  0  0  0  0  0  0  0  0  0
  136.3620   75.7830  221.7630 C   0  0  0  0  0  0  0  0  0  0  0  0
  138.2860   73.1270  222.2240 N   0  0  0  0  0  0  0  0  0  0  0  0
  140.2430   71.2600  224.6740 C   0  0  0  0  0  0  0  0  0  0  0  0
  139.6642   66.7662  227.6455 H   0  0  0  0  0  0  0  0  0  0  0  0
  140.9041   68.7290  228.5599 H   0  0  0  0  0  0  0  0  0  0  0  0
  141.1653   70.7945  227.1874 H   0  0  0  0  0  0  0  0  0  0  0  0
  138.6744   66.8683  225.3571 H   0  0  0  0  0  0  0  0  0  0  0  0
  139.5395   68.6811  222.8820 H   0  0  0  0  0  0  0  0  0  0  0  0
  137.9159   68.2603  223.5378 H   0  0  0  0  0  0  0  0  0  0  0  0
  137.9357   70.4178  222.2501 H   0  0  0  0  0  0  0  0  0  0  0  0
  137.4310   70.6108  223.9718 H   0  0  0  0  0  0  0  0  0  0  0  0
  142.1170   75.7250  221.2470 H   0  0  0  0  0  0  0  0  0  0  0  0
  143.5390   73.2957  221.5842 H   0  0  0  0  0  0  0  0  0  0  0  0
  144.0064   74.8689  219.0764 H   0  0  0  0  0  0  0  0  0  0  0  0
  144.1985   75.6589  220.7374 H   0  0  0  0  0  0  0  0  0  0  0  0
  146.3338   74.8895  219.7570 H   0  0  0  0  0  0  0  0  0  0  0  0
  145.8617   74.1086  221.3544 H   0  0  0  0  0  0  0  0  0  0  0  0
  145.8324   72.8640  218.5932 H   0  0  0  0  0  0  0  0  0  0  0  0
  146.8689   72.4595  220.0657 H   0  0  0  0  0  0  0  0  0  0  0  0
  145.3678   70.7146  220.0137 H   0  0  0  0  0  0  0  0  0  0  0  0
  144.6237   71.9389  221.1798 H   0  0  0  0  0  0  0  0  0  0  0  0
  143.7562   71.7125  218.3027 H   0  0  0  0  0  0  0  0  0  0  0  0
  143.0469   70.7145  219.6699 H   0  0  0  0  0  0  0  0  0  0  0  0
  142.3004   73.3135  218.8095 H   0  0  0  0  0  0  0  0  0  0  0  0
  141.7164   72.3068  220.2420 H   0  0  0  0  0  0  0  0  0  0  0  0
  137.3493   74.8340  218.8712 H   0  0  0  0  0  0  0  0  0  0  0  0
  136.2679   73.5899  219.5090 H   0  0  0  0  0  0  0  0  0  0  0  0
  135.7167   76.4660  218.8932 H   0  0  0  0  0  0  0  0  0  0  0  0
  134.5570   75.1357  219.0449 H   0  0  0  0  0  0  0  0  0  0  0  0
  134.8873   77.1466  220.9505 H   0  0  0  0  0  0  0  0  0  0  0  0
  134.2339   75.5486  221.3466 H   0  0  0  0  0  0  0  0  0  0  0  0
  136.9262   76.7103  221.9413 H   0  0  0  0  0  0  0  0  0  0  0  0
  136.1131   75.3641  222.7492 H   0  0  0  0  0  0  0  0  0  0  0  0
  141.2816   71.2675  224.3118 H   0  0  0  0  0  0  0  0  0  0  0  0
  140.0185   72.1185  225.3240 H   0  0  0  0  0  0  0  0  0  0  0  0
  1  2  2  0
  2  3  1  0
  3  4  2  0
  4  5  1  0
  5  6  2  0
  5  7  1  0
  7  8  1  0
  8  9  1  0
  9 10  1  0
 10 11  2  0
 11 12  1  0
 12 13  1  0
 13 14  1  0
 14 15  1  0
 15 16  1  0
 16 17  1  0
 17 18  1  0
 18 19  1  0
 19 20  1  0
 12 21  2  0
 21 22  1  0
 22 23  1  0
 23 24  1  0
 24 25  1  0
 25 26  1  0
 26 27  1  0
 22 28  2  0
  9 29  1  0
  6  1  1  0
 28 10  1  0
 29  4  1  0
 20 14  1  0
 27 23  1  0
  1 30  1  0
  2 31  1  0
  3 32  1  0
  6 33  1  0
  7 34  1  0
  7 35  1  0
  8 36  1  0
  8 37  1  0
 13 38  1  0
 14 39  1  0
 15 40  1  0
 15 41  1  0
 16 42  1  0
 16 43  1  0
 17 44  1  0
 17 45  1  0
 18 46  1  0
 18 47  1  0
 19 48  1  0
 19 49  1  0
 20 50  1  0
 20 51  1  0
 24 52  1  0
 24 53  1  0
 25 54  1  0
 25 55  1  0
 26 56  1  0
 26 57  1  0
 27 58  1  0
 27 59  1  0
 29 60  1  0
 29 61  1  0
M  END
>  <UniqueID>  (66) 
572

>  <SMILES>  (66) 
c1ccc2c(c1)CCN(c1nc(NC3CCCCCC3)nc(N3CCCC3)n1)C2

>  <Energy>  (66) 
70.9500233208185

>  <Genealogy>  (66) 
c1ccc2c(c1)CCN(c1nc(NC3CCCCCC3)nc(N3CCCC3)n1)C2 (3D coordinates assigned)
c1ccc2c(c1)CCN(c1nc(NC3CCCCCC3)nc(N3CCCC3)n1)C2 (nonaromatic ring conformer: 70.9500233208185 kcal/mol)

>  <smiles>  (66) 
c1ccc2c(c1)CCN(c1nc(NC3CCCCCC3)nc(N3CCCC3)n1)C2

>  <score_type>  (66) 
oracle

>  <origin>  (66) 
autodockgpu

>  <m_score__min__energy>  (66) 
-6.0199999999999996

>  <m_primary>  (66) 
energy

>  <meeko>  (66) 
{"free_energy": -4.91, "intermolecular_energy": -7.89, "internal_energy": -0.96, "cluster_size": 5, "cluster_id": 3, "rank_in_cluster": 5}

>  <energy>  (66) 
-4.86

>  <cluster_rmsd>  (66) 
1.27

>  <rmsd>  (66) 
270.75

>  <cluster>  (66) 
1

$$$$
HZXVWJKCCMCLGL-LQFNOIFHNA-N
     RDKit          3D

 61 65  0  0  0  0  0  0  0  0999 V2000
  140.2460   68.2570  228.0530 C   0  0  0  0  0  0  0  0  0  0  0  0
  140.9310   69.4390  228.3460 C   0  0  0  0  0  0  0  0  0  0  0  0
  141.0080   70.4580  227.3920 C   0  0  0  0  0  0  0  0  0  0  0  0
  140.3860   70.3090  226.1410 C   0  0  0  0  0  0  0  0  0  0  0  0
  139.6910   69.1190  225.8510 C   0  0  0  0  0  0  0  0  0  0  0  0
  139.6340   68.0930  226.8080 C   0  0  0  0  0  0  0  0  0  0  0  0
  139.0660   68.9310  224.5020 C   0  0  0  0  0  0  0  0  0  0  0  0
  138.5220   70.2610  223.9870 C   0  0  0  0  0  0  0  0  0  0  0  0
  139.5770   71.2870  223.9860 N   0  0  0  0  0  0  0  0  0  0  0  0
  139.5910   72.3090  222.9660 C   0  0  0  0  0  0  0  0  0  0  0  0
  140.7610   72.8870  222.5810 N   0  0  0  0  0  0  0  0  0  0  0  0
  140.7730   73.8460  221.6210 C   0  0  0  0  0  0  0  0  0  0  0  0
  142.0150   74.4450  221.2300 N   0  0  0  0  0  0  0  0  0  0  0  0
  142.9660   73.7780  220.3310 C   0  0  0  0  0  0  0  0  0  0  0  0
  142.9640   72.2580  220.6150 C   0  0  0  0  0  0  0  0  0  0  0  0
  143.5460   71.3530  219.5050 C   0  0  0  0  0  0  0  0  0  0  0  0
  145.0770   71.1820  219.5350 C   0  0  0  0  0  0  0  0  0  0  0  0
  145.8740   72.3430  220.1880 C   0  0  0  0  0  0  0  0  0  0  0  0
  145.5060   73.7630  219.7110 C   0  0  0  0  0  0  0  0  0  0  0  0
  144.3580   74.4260  220.4980 C   0  0  0  0  0  0  0  0  0  0  0  0
  139.6070   74.2280  221.0390 N   0  0  0  0  0  0  0  0  0  0  0  0
  138.4330   73.6600  221.4130 C   0  0  0  0  0  0  0  0  0  0  0  0
  137.2050   74.0700  220.7970 N   0  0  0  0  0  0  0  0  0  0  0  0
  135.9470   74.1740  221.5140 C   0  0  0  0  0  0  0  0  0  0  0  0
  134.8970   74.4730  220.4530 C   0  0  0  0  0  0  0  0  0  0  0  0
  135.6670   74.9340  219.2160 C   0  0  0  0  0  0  0  0  0  0  0  0
  137.0890   74.4180  219.3930 C   0  0  0  0  0  0  0  0  0  0  0  0
  138.4310   72.7010  222.3750 N   0  0  0  0  0  0  0  0  0  0  0  0
  140.5260   71.4050  225.1100 C   0  0  0  0  0  0  0  0  0  0  0  0
  140.1886   67.4548  228.8034 H   0  0  0  0  0  0  0  0  0  0  0  0
  141.4100   69.5679  229.3278 H   0  0  0  0  0  0  0  0  0  0  0  0
  141.5588   71.3819  227.6221 H   0  0  0  0  0  0  0  0  0  0  0  0
  139.1054   67.1565  226.5764 H   0  0  0  0  0  0  0  0  0  0  0  0
  139.8228   68.5510  223.8000 H   0  0  0  0  0  0  0  0  0  0  0  0
  138.2384   68.2111  224.5853 H   0  0  0  0  0  0  0  0  0  0  0  0
  138.1483   70.1258  222.9613 H   0  0  0  0  0  0  0  0  0  0  0  0
  137.7074   70.5908  224.6486 H   0  0  0  0  0  0  0  0  0  0  0  0
  142.2420   75.3930  221.6090 H   0  0  0  0  0  0  0  0  0  0  0  0
  142.6720   73.9053  219.2787 H   0  0  0  0  0  0  0  0  0  0  0  0
  143.5515   72.0871  221.5291 H   0  0  0  0  0  0  0  0  0  0  0  0
  141.9038   71.9764  220.6972 H   0  0  0  0  0  0  0  0  0  0  0  0
  143.0901   70.3568  219.6039 H   0  0  0  0  0  0  0  0  0  0  0  0
  143.3125   71.8497  218.5517 H   0  0  0  0  0  0  0  0  0  0  0  0
  145.3029   70.2616  220.0935 H   0  0  0  0  0  0  0  0  0  0  0  0
  145.3953   71.1563  218.4824 H   0  0  0  0  0  0  0  0  0  0  0  0
  145.7064   72.2981  221.2742 H   0  0  0  0  0  0  0  0  0  0  0  0
  146.9217   72.1903  219.8896 H   0  0  0  0  0  0  0  0  0  0  0  0
  146.3987   74.3988  219.8050 H   0  0  0  0  0  0  0  0  0  0  0  0
  145.1557   73.6627  218.6731 H   0  0  0  0  0  0  0  0  0  0  0  0
  144.6189   74.3944  221.5661 H   0  0  0  0  0  0  0  0  0  0  0  0
  144.2647   75.4432  220.0898 H   0  0  0  0  0  0  0  0  0  0  0  0
  135.7173   73.2281  222.0263 H   0  0  0  0  0  0  0  0  0  0  0  0
  135.9811   74.9568  222.2861 H   0  0  0  0  0  0  0  0  0  0  0  0
  134.3150   73.5677  220.2255 H   0  0  0  0  0  0  0  0  0  0  0  0
  134.1866   75.2403  220.7944 H   0  0  0  0  0  0  0  0  0  0  0  0
  135.2171   74.5111  218.3057 H   0  0  0  0  0  0  0  0  0  0  0  0
  135.6448   76.0288  219.1113 H   0  0  0  0  0  0  0  0  0  0  0  0
  137.2576   73.5325  218.7626 H   0  0  0  0  0  0  0  0  0  0  0  0
  137.8351   75.1700  219.0967 H   0  0  0  0  0  0  0  0  0  0  0  0
  141.5486   71.3731  224.7059 H   0  0  0  0  0  0  0  0  0  0  0  0
  140.3052   72.3550  225.6187 H   0  0  0  0  0  0  0  0  0  0  0  0
  1  2  2  0
  2  3  1  0
  3  4  2  0
  4  5  1  0
  5  6  2  0
  5  7  1  0
  7  8  1  0
  8  9  1  0
  9 10  1  0
 10 11  2  0
 11 12  1  0
 12 13  1  0
 13 14  1  0
 14 15  1  0
 15 16  1  0
 16 17  1  0
 17 18  1  0
 18 19  1  0
 19 20  1  0
 12 21  2  0
 21 22  1  0
 22 23  1  0
 23 24  1  0
 24 25  1  0
 25 26  1  0
 26 27  1  0
 22 28  2  0
  9 29  1  0
  6  1  1  0
 28 10  1  0
 29  4  1  0
 20 14  1  0
 27 23  1  0
  1 30  1  0
  2 31  1  0
  3 32  1  0
  6 33  1  0
  7 34  1  0
  7 35  1  0
  8 36  1  0
  8 37  1  0
 13 38  1  0
 14 39  1  0
 15 40  1  0
 15 41  1  0
 16 42  1  0
 16 43  1  0
 17 44  1  0
 17 45  1  0
 18 46  1  0
 18 47  1  0
 19 48  1  0
 19 49  1  0
 20 50  1  0
 20 51  1  0
 24 52  1  0
 24 53  1  0
 25 54  1  0
 25 55  1  0
 26 56  1  0
 26 57  1  0
 27 58  1  0
 27 59  1  0
 29 60  1  0
 29 61  1  0
M  END
>  <UniqueID>  (67) 
572

>  <SMILES>  (67) 
c1ccc2c(c1)CCN(c1nc(NC3CCCCCC3)nc(N3CCCC3)n1)C2

>  <Energy>  (67) 
70.9500233208185

>  <Genealogy>  (67) 
c1ccc2c(c1)CCN(c1nc(NC3CCCCCC3)nc(N3CCCC3)n1)C2 (3D coordinates assigned)
c1ccc2c(c1)CCN(c1nc(NC3CCCCCC3)nc(N3CCCC3)n1)C2 (nonaromatic ring conformer: 70.9500233208185 kcal/mol)

>  <smiles>  (67) 
c1ccc2c(c1)CCN(c1nc(NC3CCCCCC3)nc(N3CCCC3)n1)C2

>  <score_type>  (67) 
oracle

>  <origin>  (67) 
autodockgpu

>  <m_score__min__energy>  (67) 
-6.0199999999999996

>  <m_primary>  (67) 
energy

>  <meeko>  (67) 
{"free_energy": -5.22, "intermolecular_energy": -8.21, "internal_energy": -0.93, "cluster_size": 5, "cluster_id": 3, "rank_in_cluster": 3}

>  <energy>  (67) 
-4.58

>  <cluster_rmsd>  (67) 
1.2

>  <rmsd>  (67) 
270.74

>  <cluster>  (67) 
1

$$$$
HZXVWJKCCMCLGL-LQFNOIFHNA-N
     RDKit          3D

 61 65  0  0  0  0  0  0  0  0999 V2000
  140.4850   81.6020  222.3120 C   0  0  0  0  0  0  0  0  0  0  0  0
  141.1780   81.0970  223.4140 C   0  0  0  0  0  0  0  0  0  0  0  0
  141.3670   79.7180  223.5500 C   0  0  0  0  0  0  0  0  0  0  0  0
  140.8760   78.8340  222.5750 C   0  0  0  0  0  0  0  0  0  0  0  0
  140.1830   79.3480  221.4620 C   0  0  0  0  0  0  0  0  0  0  0  0
  139.9820   80.7320  221.3420 C   0  0  0  0  0  0  0  0  0  0  0  0
  139.6140   78.4100  220.4410 C   0  0  0  0  0  0  0  0  0  0  0  0
  140.5390   77.2090  220.2590 C   0  0  0  0  0  0  0  0  0  0  0  0
  140.7970   76.5540  221.5520 N   0  0  0  0  0  0  0  0  0  0  0  0
  140.9810   75.1230  221.6130 C   0  0  0  0  0  0  0  0  0  0  0  0
  140.1100   74.3420  222.3080 N   0  0  0  0  0  0  0  0  0  0  0  0
  140.2820   72.9970  222.3630 C   0  0  0  0  0  0  0  0  0  0  0  0
  139.3560   72.1900  223.1020 N   0  0  0  0  0  0  0  0  0  0  0  0
  139.6900   70.8450  223.5860 C   0  0  0  0  0  0  0  0  0  0  0  0
  138.4510   70.2170  224.2640 C   0  0  0  0  0  0  0  0  0  0  0  0
  138.7270   69.1150  225.3130 C   0  0  0  0  0  0  0  0  0  0  0  0
  138.9660   69.6220  226.7480 C   0  0  0  0  0  0  0  0  0  0  0  0
  140.2930   70.3940  226.9800 C   0  0  0  0  0  0  0  0  0  0  0  0
  140.6380   71.4730  225.9400 C   0  0  0  0  0  0  0  0  0  0  0  0
  140.9150   70.9350  224.5230 C   0  0  0  0  0  0  0  0  0  0  0  0
  141.3310   72.4280  221.7160 N   0  0  0  0  0  0  0  0  0  0  0  0
  142.2070   73.1940  221.0180 C   0  0  0  0  0  0  0  0  0  0  0  0
  143.3150   72.5870  220.3400 N   0  0  0  0  0  0  0  0  0  0  0  0
  143.2440   71.2840  219.7020 C   0  0  0  0  0  0  0  0  0  0  0  0
  144.6680   70.9690  219.2620 C   0  0  0  0  0  0  0  0  0  0  0  0
  145.4260   72.2940  219.3060 C   0  0  0  0  0  0  0  0  0  0  0  0
  144.6220   73.2070  220.2240 C   0  0  0  0  0  0  0  0  0  0  0  0
  142.0270   74.5400  220.9690 N   0  0  0  0  0  0  0  0  0  0  0  0
  141.0500   77.3460  222.7710 C   0  0  0  0  0  0  0  0  0  0  0  0
  140.3350   82.6867  222.2076 H   0  0  0  0  0  0  0  0  0  0  0  0
  141.5754   81.7841  224.1755 H   0  0  0  0  0  0  0  0  0  0  0  0
  141.9033   79.3233  224.4256 H   0  0  0  0  0  0  0  0  0  0  0  0
  139.4265   81.1327  220.4812 H   0  0  0  0  0  0  0  0  0  0  0  0
  138.6266   78.0611  220.7777 H   0  0  0  0  0  0  0  0  0  0  0  0
  139.5168   78.9384  219.4811 H   0  0  0  0  0  0  0  0  0  0  0  0
  140.0655   76.4880  219.5764 H   0  0  0  0  0  0  0  0  0  0  0  0
  141.4948   77.5573  219.8406 H   0  0  0  0  0  0  0  0  0  0  0  0
  138.4080   72.5870  223.2940 H   0  0  0  0  0  0  0  0  0  0  0  0
  139.9653   70.1826  222.7520 H   0  0  0  0  0  0  0  0  0  0  0  0
  137.8978   71.0251  224.7649 H   0  0  0  0  0  0  0  0  0  0  0  0
  137.8960   69.7189  223.4554 H   0  0  0  0  0  0  0  0  0  0  0  0
  137.8606   68.4375  225.3311 H   0  0  0  0  0  0  0  0  0  0  0  0
  139.6613   68.6244  225.0025 H   0  0  0  0  0  0  0  0  0  0  0  0
  138.1349   70.2926  227.0117 H   0  0  0  0  0  0  0  0  0  0  0  0
  139.0308   68.7212  227.3760 H   0  0  0  0  0  0  0  0  0  0  0  0
  140.2300   70.8828  227.9634 H   0  0  0  0  0  0  0  0  0  0  0  0
  141.0909   69.6410  226.9007 H   0  0  0  0  0  0  0  0  0  0  0  0
  139.7931   72.1749  225.8811 H   0  0  0  0  0  0  0  0  0  0  0  0
  141.5705   71.9466  226.2807 H   0  0  0  0  0  0  0  0  0  0  0  0
  141.6543   71.5975  224.0491 H   0  0  0  0  0  0  0  0  0  0  0  0
  141.2632   69.9005  224.6593 H   0  0  0  0  0  0  0  0  0  0  0  0
  142.8850   70.5262  220.4140 H   0  0  0  0  0  0  0  0  0  0  0  0
  142.5445   71.2825  218.8531 H   0  0  0  0  0  0  0  0  0  0  0  0
  145.1281   70.2427  219.9482 H   0  0  0  0  0  0  0  0  0  0  0  0
  144.6896   70.5262  218.2553 H   0  0  0  0  0  0  0  0  0  0  0  0
  146.4382   72.1422  219.7089 H   0  0  0  0  0  0  0  0  0  0  0  0
  145.5368   72.7286  218.3016 H   0  0  0  0  0  0  0  0  0  0  0  0
  145.1022   73.2791  221.2110 H   0  0  0  0  0  0  0  0  0  0  0  0
  144.5544   74.2298  219.8249 H   0  0  0  0  0  0  0  0  0  0  0  0
  140.3502   77.0144  223.5522 H   0  0  0  0  0  0  0  0  0  0  0  0
  142.1007   77.1791  223.0507 H   0  0  0  0  0  0  0  0  0  0  0  0
  1  2  2  0
  2  3  1  0
  3  4  2  0
  4  5  1  0
  5  6  2  0
  5  7  1  0
  7  8  1  0
  8  9  1  0
  9 10  1  0
 10 11  2  0
 11 12  1  0
 12 13  1  0
 13 14  1  0
 14 15  1  0
 15 16  1  0
 16 17  1  0
 17 18  1  0
 18 19  1  0
 19 20  1  0
 12 21  2  0
 21 22  1  0
 22 23  1  0
 23 24  1  0
 24 25  1  0
 25 26  1  0
 26 27  1  0
 22 28  2  0
  9 29  1  0
  6  1  1  0
 28 10  1  0
 29  4  1  0
 20 14  1  0
 27 23  1  0
  1 30  1  0
  2 31  1  0
  3 32  1  0
  6 33  1  0
  7 34  1  0
  7 35  1  0
  8 36  1  0
  8 37  1  0
 13 38  1  0
 14 39  1  0
 15 40  1  0
 15 41  1  0
 16 42  1  0
 16 43  1  0
 17 44  1  0
 17 45  1  0
 18 46  1  0
 18 47  1  0
 19 48  1  0
 19 49  1  0
 20 50  1  0
 20 51  1  0
 24 52  1  0
 24 53  1  0
 25 54  1  0
 25 55  1  0
 26 56  1  0
 26 57  1  0
 27 58  1  0
 27 59  1  0
 29 60  1  0
 29 61  1  0
M  END
>  <UniqueID>  (68) 
572

>  <SMILES>  (68) 
c1ccc2c(c1)CCN(c1nc(NC3CCCCCC3)nc(N3CCCC3)n1)C2

>  <Energy>  (68) 
70.9500233208185

>  <Genealogy>  (68) 
c1ccc2c(c1)CCN(c1nc(NC3CCCCCC3)nc(N3CCCC3)n1)C2 (3D coordinates assigned)
c1ccc2c(c1)CCN(c1nc(NC3CCCCCC3)nc(N3CCCC3)n1)C2 (nonaromatic ring conformer: 70.9500233208185 kcal/mol)

>  <smiles>  (68) 
c1ccc2c(c1)CCN(c1nc(NC3CCCCCC3)nc(N3CCCC3)n1)C2

>  <score_type>  (68) 
oracle

>  <origin>  (68) 
autodockgpu

>  <m_score__min__energy>  (68) 
-6.0199999999999996

>  <m_primary>  (68) 
energy

>  <meeko>  (68) 
{"free_energy": -5.9, "intermolecular_energy": -8.88, "internal_energy": -0.92, "cluster_size": 2, "cluster_id": 2, "rank_in_cluster": 1}

>  <energy>  (68) 
-5.9

>  <cluster_rmsd>  (68) 
0.0

>  <rmsd>  (68) 
270.99

>  <cluster>  (68) 
2

$$$$
HZXVWJKCCMCLGL-LQFNOIFHNA-N
     RDKit          3D

 61 65  0  0  0  0  0  0  0  0999 V2000
  140.0510   68.7980  228.0720 C   0  0  0  0  0  0  0  0  0  0  0  0
  140.6680   70.0260  228.3220 C   0  0  0  0  0  0  0  0  0  0  0  0
  140.8950   70.9220  227.2720 C   0  0  0  0  0  0  0  0  0  0  0  0
  140.4920   70.6020  225.9650 C   0  0  0  0  0  0  0  0  0  0  0  0
  139.8650   69.3650  225.7180 C   0  0  0  0  0  0  0  0  0  0  0  0
  139.6570   68.4640  226.7740 C   0  0  0  0  0  0  0  0  0  0  0  0
  139.4750   68.9940  224.3190 C   0  0  0  0  0  0  0  0  0  0  0  0
  139.0140   70.2340  223.5570 C   0  0  0  0  0  0  0  0  0  0  0  0
  140.0470   71.2820  223.6010 N   0  0  0  0  0  0  0  0  0  0  0  0
  140.2220   72.1710  222.4760 C   0  0  0  0  0  0  0  0  0  0  0  0
  140.5990   71.6850  221.2620 N   0  0  0  0  0  0  0  0  0  0  0  0
  140.7620   72.5200  220.2050 C   0  0  0  0  0  0  0  0  0  0  0  0
  141.1620   71.9900  218.9340 N   0  0  0  0  0  0  0  0  0  0  0  0
  142.3600   72.4570  218.2250 C   0  0  0  0  0  0  0  0  0  0  0  0
  143.5930   71.6690  218.7220 C   0  0  0  0  0  0  0  0  0  0  0  0
  143.9520   71.8300  220.2180 C   0  0  0  0  0  0  0  0  0  0  0  0
  144.8980   73.0010  220.5430 C   0  0  0  0  0  0  0  0  0  0  0  0
  144.4210   74.4040  220.0820 C   0  0  0  0  0  0  0  0  0  0  0  0
  143.9270   74.5070  218.6460 C   0  0  0  0  0  0  0  0  0  0  0  0
  142.4960   73.9840  218.4150 C   0  0  0  0  0  0  0  0  0  0  0  0
  140.5430   73.8500  220.3610 N   0  0  0  0  0  0  0  0  0  0  0  0
  140.1660   74.3490  221.5650 C   0  0  0  0  0  0  0  0  0  0  0  0
  139.9400   75.7560  221.7250 N   0  0  0  0  0  0  0  0  0  0  0  0
  140.9030   76.6570  222.3320 C   0  0  0  0  0  0  0  0  0  0  0  0
  140.1920   77.9980  222.4450 C   0  0  0  0  0  0  0  0  0  0  0  0
  138.9800   77.9120  221.5190 C   0  0  0  0  0  0  0  0  0  0  0  0
  138.7240   76.4260  221.3020 C   0  0  0  0  0  0  0  0  0  0  0  0
  140.0060   73.5060  222.6180 N   0  0  0  0  0  0  0  0  0  0  0  0
  140.7930   71.5660  224.8410 C   0  0  0  0  0  0  0  0  0  0  0  0
  139.8752   68.0932  228.8981 H   0  0  0  0  0  0  0  0  0  0  0  0
  140.9755   70.2886  229.3450 H   0  0  0  0  0  0  0  0  0  0  0  0
  141.3921   71.8829  227.4710 H   0  0  0  0  0  0  0  0  0  0  0  0
  139.1820   67.4913  226.5788 H   0  0  0  0  0  0  0  0  0  0  0  0
  140.3412   68.5520  223.8048 H   0  0  0  0  0  0  0  0  0  0  0  0
  138.6506   68.2666  224.3558 H   0  0  0  0  0  0  0  0  0  0  0  0
  138.8185   69.9626  222.5091 H   0  0  0  0  0  0  0  0  0  0  0  0
  138.0972   70.6192  224.0273 H   0  0  0  0  0  0  0  0  0  0  0  0
  140.5670   71.2440  218.5060 H   0  0  0  0  0  0  0  0  0  0  0  0
  142.2784   72.2699  217.1441 H   0  0  0  0  0  0  0  0  0  0  0  0
  143.4059   70.6012  218.5353 H   0  0  0  0  0  0  0  0  0  0  0  0
  144.4486   72.0837  218.1688 H   0  0  0  0  0  0  0  0  0  0  0  0
  143.0174   71.9821  220.7778 H   0  0  0  0  0  0  0  0  0  0  0  0
  144.4907   70.9143  220.5029 H   0  0  0  0  0  0  0  0  0  0  0  0
  145.0333   73.0325  221.6342 H   0  0  0  0  0  0  0  0  0  0  0  0
  145.8232   72.8014  219.9824 H   0  0  0  0  0  0  0  0  0  0  0  0
  143.5979   74.7127  220.7431 H   0  0  0  0  0  0  0  0  0  0  0  0
  145.3102   75.0495  220.1347 H   0  0  0  0  0  0  0  0  0  0  0  0
  143.9562   75.5658  218.3493 H   0  0  0  0  0  0  0  0  0  0  0  0
  144.5905   73.8687  218.0441 H   0  0  0  0  0  0  0  0  0  0  0  0
  141.8873   74.2712  219.2850 H   0  0  0  0  0  0  0  0  0  0  0  0
  142.1633   74.4334  217.4677 H   0  0  0  0  0  0  0  0  0  0  0  0
  141.1959   76.2923  223.3276 H   0  0  0  0  0  0  0  0  0  0  0  0
  141.8233   76.7327  221.7343 H   0  0  0  0  0  0  0  0  0  0  0  0
  139.8690   78.1731  223.4818 H   0  0  0  0  0  0  0  0  0  0  0  0
  140.8547   78.8300  222.1647 H   0  0  0  0  0  0  0  0  0  0  0  0
  138.1055   78.3862  221.9885 H   0  0  0  0  0  0  0  0  0  0  0  0
  139.1613   78.4334  220.5675 H   0  0  0  0  0  0  0  0  0  0  0  0
  137.8697   76.0907  221.9085 H   0  0  0  0  0  0  0  0  0  0  0  0
  138.4799   76.2034  220.2528 H   0  0  0  0  0  0  0  0  0  0  0  0
  141.8690   71.5149  224.6184 H   0  0  0  0  0  0  0  0  0  0  0  0
  140.4820   72.5646  225.1818 H   0  0  0  0  0  0  0  0  0  0  0  0
  1  2  2  0
  2  3  1  0
  3  4  2  0
  4  5  1  0
  5  6  2  0
  5  7  1  0
  7  8  1  0
  8  9  1  0
  9 10  1  0
 10 11  2  0
 11 12  1  0
 12 13  1  0
 13 14  1  0
 14 15  1  0
 15 16  1  0
 16 17  1  0
 17 18  1  0
 18 19  1  0
 19 20  1  0
 12 21  2  0
 21 22  1  0
 22 23  1  0
 23 24  1  0
 24 25  1  0
 25 26  1  0
 26 27  1  0
 22 28  2  0
  9 29  1  0
  6  1  1  0
 28 10  1  0
 29  4  1  0
 20 14  1  0
 27 23  1  0
  1 30  1  0
  2 31  1  0
  3 32  1  0
  6 33  1  0
  7 34  1  0
  7 35  1  0
  8 36  1  0
  8 37  1  0
 13 38  1  0
 14 39  1  0
 15 40  1  0
 15 41  1  0
 16 42  1  0
 16 43  1  0
 17 44  1  0
 17 45  1  0
 18 46  1  0
 18 47  1  0
 19 48  1  0
 19 49  1  0
 20 50  1  0
 20 51  1  0
 24 52  1  0
 24 53  1  0
 25 54  1  0
 25 55  1  0
 26 56  1  0
 26 57  1  0
 27 58  1  0
 27 59  1  0
 29 60  1  0
 29 61  1  0
M  END
>  <UniqueID>  (69) 
572

>  <SMILES>  (69) 
c1ccc2c(c1)CCN(c1nc(NC3CCCCCC3)nc(N3CCCC3)n1)C2

>  <Energy>  (69) 
70.9500233208185

>  <Genealogy>  (69) 
c1ccc2c(c1)CCN(c1nc(NC3CCCCCC3)nc(N3CCCC3)n1)C2 (3D coordinates assigned)
c1ccc2c(c1)CCN(c1nc(NC3CCCCCC3)nc(N3CCCC3)n1)C2 (nonaromatic ring conformer: 70.9500233208185 kcal/mol)

>  <smiles>  (69) 
c1ccc2c(c1)CCN(c1nc(NC3CCCCCC3)nc(N3CCCC3)n1)C2

>  <score_type>  (69) 
oracle

>  <origin>  (69) 
autodockgpu

>  <m_score__min__energy>  (69) 
-6.0199999999999996

>  <m_primary>  (69) 
energy

>  <meeko>  (69) 
{"free_energy": -3.98, "intermolecular_energy": -6.96, "internal_energy": -1.23, "cluster_size": 2, "cluster_id": 8, "rank_in_cluster": 2}

>  <energy>  (69) 
-5.71

>  <cluster_rmsd>  (69) 
1.18

>  <rmsd>  (69) 
271.08

>  <cluster>  (69) 
2

$$$$
HZXVWJKCCMCLGL-LQFNOIFHNA-N
     RDKit          3D

 61 65  0  0  0  0  0  0  0  0999 V2000
  140.1350   67.7880  227.1990 C   0  0  0  0  0  0  0  0  0  0  0  0
  140.9920   68.8280  227.5640 C   0  0  0  0  0  0  0  0  0  0  0  0
  141.1200   69.9520  226.7410 C   0  0  0  0  0  0  0  0  0  0  0  0
  140.3780   70.0500  225.5520 C   0  0  0  0  0  0  0  0  0  0  0  0
  139.5100   69.0010  225.1900 C   0  0  0  0  0  0  0  0  0  0  0  0
  139.4010   67.8690  226.0130 C   0  0  0  0  0  0  0  0  0  0  0  0
  138.7510   69.0750  223.9000 C   0  0  0  0  0  0  0  0  0  0  0  0
  138.3440   70.5170  223.6130 C   0  0  0  0  0  0  0  0  0  0  0  0
  139.5220   71.4010  223.6310 N   0  0  0  0  0  0  0  0  0  0  0  0
  139.5810   72.5430  222.7490 C   0  0  0  0  0  0  0  0  0  0  0  0
  140.7800   73.0420  222.3430 N   0  0  0  0  0  0  0  0  0  0  0  0
  140.8350   74.1140  221.5120 C   0  0  0  0  0  0  0  0  0  0  0  0
  142.1080   74.6270  221.0960 N   0  0  0  0  0  0  0  0  0  0  0  0
  143.0490   73.8420  220.2870 C   0  0  0  0  0  0  0  0  0  0  0  0
  143.0150   72.3650  220.7450 C   0  0  0  0  0  0  0  0  0  0  0  0
  143.5080   71.3180  219.7200 C   0  0  0  0  0  0  0  0  0  0  0  0
  145.0370   71.1560  219.6320 C   0  0  0  0  0  0  0  0  0  0  0  0
  145.8760   72.3160  220.2330 C   0  0  0  0  0  0  0  0  0  0  0  0
  145.5870   73.7190  219.6690 C   0  0  0  0  0  0  0  0  0  0  0  0
  144.4530   74.4770  220.3870 C   0  0  0  0  0  0  0  0  0  0  0  0
  139.6830   74.6910  221.0840 N   0  0  0  0  0  0  0  0  0  0  0  0
  138.4810   74.2040  221.4820 C   0  0  0  0  0  0  0  0  0  0  0  0
  137.2680   74.8200  221.0280 N   0  0  0  0  0  0  0  0  0  0  0  0
  136.1680   75.1650  221.9120 C   0  0  0  0  0  0  0  0  0  0  0  0
  135.0430   75.6320  220.9970 C   0  0  0  0  0  0  0  0  0  0  0  0
  135.6910   75.9210  219.6450 C   0  0  0  0  0  0  0  0  0  0  0  0
  137.0100   75.1580  219.6410 C   0  0  0  0  0  0  0  0  0  0  0  0
  138.4350   73.1310  222.3130 N   0  0  0  0  0  0  0  0  0  0  0  0
  140.5710   71.2510  224.6570 C   0  0  0  0  0  0  0  0  0  0  0  0
  140.0376   66.9038  227.8460 H   0  0  0  0  0  0  0  0  0  0  0  0
  141.5671   68.7635  228.4995 H   0  0  0  0  0  0  0  0  0  0  0  0
  141.8054   70.7636  227.0264 H   0  0  0  0  0  0  0  0  0  0  0  0
  138.7353   67.0427  225.7230 H   0  0  0  0  0  0  0  0  0  0  0  0
  139.3875   68.7069  223.0818 H   0  0  0  0  0  0  0  0  0  0  0  0
  137.8462   68.4544  223.9786 H   0  0  0  0  0  0  0  0  0  0  0  0
  137.8686   70.5682  222.6224 H   0  0  0  0  0  0  0  0  0  0  0  0
  137.6398   70.8484  224.3904 H   0  0  0  0  0  0  0  0  0  0  0  0
  142.3640   75.5970  221.3890 H   0  0  0  0  0  0  0  0  0  0  0  0
  142.7620   73.8526  219.2251 H   0  0  0  0  0  0  0  0  0  0  0  0
  143.6452   72.2779  221.6424 H   0  0  0  0  0  0  0  0  0  0  0  0
  141.9525   72.1342  220.9117 H   0  0  0  0  0  0  0  0  0  0  0  0
  143.0778   70.3437  219.9951 H   0  0  0  0  0  0  0  0  0  0  0  0
  143.1820   71.6795  218.7336 H   0  0  0  0  0  0  0  0  0  0  0  0
  145.3095   70.2322  220.1633 H   0  0  0  0  0  0  0  0  0  0  0  0
  145.2742   71.1416  218.5580 H   0  0  0  0  0  0  0  0  0  0  0  0
  145.6863   72.3428  221.3162 H   0  0  0  0  0  0  0  0  0  0  0  0
  146.9202   72.0973  219.9649 H   0  0  0  0  0  0  0  0  0  0  0  0
  146.5060   74.3180  219.7511 H   0  0  0  0  0  0  0  0  0  0  0  0
  145.2574   73.5758  218.6294 H   0  0  0  0  0  0  0  0  0  0  0  0
  144.7163   74.5469  221.4527 H   0  0  0  0  0  0  0  0  0  0  0  0
  144.3768   75.4497  219.8791 H   0  0  0  0  0  0  0  0  0  0  0  0
  135.8514   74.2863  222.4931 H   0  0  0  0  0  0  0  0  0  0  0  0
  136.4543   75.9416  222.6365 H   0  0  0  0  0  0  0  0  0  0  0  0
  134.2817   74.8446  220.8952 H   0  0  0  0  0  0  0  0  0  0  0  0
  134.5396   76.5229  221.4006 H   0  0  0  0  0  0  0  0  0  0  0  0
  135.0437   75.5699  218.8279 H   0  0  0  0  0  0  0  0  0  0  0  0
  135.8484   76.9994  219.4954 H   0  0  0  0  0  0  0  0  0  0  0  0
  136.9241   74.2455  219.0328 H   0  0  0  0  0  0  0  0  0  0  0  0
  137.8256   75.7564  219.2089 H   0  0  0  0  0  0  0  0  0  0  0  0
  141.5419   71.1532  224.1492 H   0  0  0  0  0  0  0  0  0  0  0  0
  140.5213   72.1421  225.3000 H   0  0  0  0  0  0  0  0  0  0  0  0
  1  2  2  0
  2  3  1  0
  3  4  2  0
  4  5  1  0
  5  6  2  0
  5  7  1  0
  7  8  1  0
  8  9  1  0
  9 10  1  0
 10 11  2  0
 11 12  1  0
 12 13  1  0
 13 14  1  0
 14 15  1  0
 15 16  1  0
 16 17  1  0
 17 18  1  0
 18 19  1  0
 19 20  1  0
 12 21  2  0
 21 22  1  0
 22 23  1  0
 23 24  1  0
 24 25  1  0
 25 26  1  0
 26 27  1  0
 22 28  2  0
  9 29  1  0
  6  1  1  0
 28 10  1  0
 29  4  1  0
 20 14  1  0
 27 23  1  0
  1 30  1  0
  2 31  1  0
  3 32  1  0
  6 33  1  0
  7 34  1  0
  7 35  1  0
  8 36  1  0
  8 37  1  0
 13 38  1  0
 14 39  1  0
 15 40  1  0
 15 41  1  0
 16 42  1  0
 16 43  1  0
 17 44  1  0
 17 45  1  0
 18 46  1  0
 18 47  1  0
 19 48  1  0
 19 49  1  0
 20 50  1  0
 20 51  1  0
 24 52  1  0
 24 53  1  0
 25 54  1  0
 25 55  1  0
 26 56  1  0
 26 57  1  0
 27 58  1  0
 27 59  1  0
 29 60  1  0
 29 61  1  0
M  END
>  <UniqueID>  (70) 
572

>  <SMILES>  (70) 
c1ccc2c(c1)CCN(c1nc(NC3CCCCCC3)nc(N3CCCC3)n1)C2

>  <Energy>  (70) 
70.9500233208185

>  <Genealogy>  (70) 
c1ccc2c(c1)CCN(c1nc(NC3CCCCCC3)nc(N3CCCC3)n1)C2 (3D coordinates assigned)
c1ccc2c(c1)CCN(c1nc(NC3CCCCCC3)nc(N3CCCC3)n1)C2 (nonaromatic ring conformer: 70.9500233208185 kcal/mol)

>  <smiles>  (70) 
c1ccc2c(c1)CCN(c1nc(NC3CCCCCC3)nc(N3CCCC3)n1)C2

>  <score_type>  (70) 
oracle

>  <origin>  (70) 
autodockgpu

>  <m_score__min__energy>  (70) 
-6.0199999999999996

>  <m_primary>  (70) 
energy

>  <meeko>  (70) 
{"free_energy": -5.39, "intermolecular_energy": -8.38, "internal_energy": -0.88, "cluster_size": 5, "cluster_id": 3, "rank_in_cluster": 1}

>  <energy>  (70) 
-5.39

>  <cluster_rmsd>  (70) 
0.0

>  <rmsd>  (70) 
270.05

>  <cluster>  (70) 
3

$$$$
HZXVWJKCCMCLGL-LQFNOIFHNA-N
     RDKit          3D

 61 65  0  0  0  0  0  0  0  0999 V2000
  141.2060   82.2620  221.8190 C   0  0  0  0  0  0  0  0  0  0  0  0
  141.6590   81.9240  220.5420 C   0  0  0  0  0  0  0  0  0  0  0  0
  141.8220   80.5810  220.1890 C   0  0  0  0  0  0  0  0  0  0  0  0
  141.5190   79.5630  221.1090 C   0  0  0  0  0  0  0  0  0  0  0  0
  141.0570   79.9070  222.3940 C   0  0  0  0  0  0  0  0  0  0  0  0
  140.9130   81.2590  222.7460 C   0  0  0  0  0  0  0  0  0  0  0  0
  140.7770   78.8300  223.3980 C   0  0  0  0  0  0  0  0  0  0  0  0
  140.2040   77.6000  222.7010 C   0  0  0  0  0  0  0  0  0  0  0  0
  141.0990   77.1520  221.6220 N   0  0  0  0  0  0  0  0  0  0  0  0
  141.2160   75.7450  221.3160 C   0  0  0  0  0  0  0  0  0  0  0  0
  142.0490   75.3180  220.3300 N   0  0  0  0  0  0  0  0  0  0  0  0
  142.1600   73.9950  220.0440 C   0  0  0  0  0  0  0  0  0  0  0  0
  143.0420   73.5640  219.0000 N   0  0  0  0  0  0  0  0  0  0  0  0
  144.4080   74.0820  218.8550 C   0  0  0  0  0  0  0  0  0  0  0  0
  145.1630   73.2550  217.7900 C   0  0  0  0  0  0  0  0  0  0  0  0
  144.7830   71.7590  217.6870 C   0  0  0  0  0  0  0  0  0  0  0  0
  144.9650   70.9460  218.9830 C   0  0  0  0  0  0  0  0  0  0  0  0
  144.3760   71.5840  220.2690 C   0  0  0  0  0  0  0  0  0  0  0  0
  145.2210   72.6950  220.9180 C   0  0  0  0  0  0  0  0  0  0  0  0
  145.1010   74.0720  220.2360 C   0  0  0  0  0  0  0  0  0  0  0  0
  141.4340   73.0930  220.7540 N   0  0  0  0  0  0  0  0  0  0  0  0
  140.5990   73.5050  221.7400 C   0  0  0  0  0  0  0  0  0  0  0  0
  139.8330   72.5470  222.4830 N   0  0  0  0  0  0  0  0  0  0  0  0
  140.3600   71.8080  223.6160 C   0  0  0  0  0  0  0  0  0  0  0  0
  139.2780   70.8020  223.9850 C   0  0  0  0  0  0  0  0  0  0  0  0
  138.0020   71.2860  223.2990 C   0  0  0  0  0  0  0  0  0  0  0  0
  138.4540   72.2130  222.1780 C   0  0  0  0  0  0  0  0  0  0  0  0
  140.4940   74.8310  222.0180 N   0  0  0  0  0  0  0  0  0  0  0  0
  141.7510   78.1210  220.7200 C   0  0  0  0  0  0  0  0  0  0  0  0
  141.0798   83.3193  222.0952 H   0  0  0  0  0  0  0  0  0  0  0  0
  141.8878   82.7153  219.8130 H   0  0  0  0  0  0  0  0  0  0  0  0
  142.1895   80.3199  219.1856 H   0  0  0  0  0  0  0  0  0  0  0  0
  140.5683   81.5290  223.7551 H   0  0  0  0  0  0  0  0  0  0  0  0
  141.7122   78.5564  223.9084 H   0  0  0  0  0  0  0  0  0  0  0  0
  140.0458   79.2020  224.1307 H   0  0  0  0  0  0  0  0  0  0  0  0
  140.0890   76.7891  223.4353 H   0  0  0  0  0  0  0  0  0  0  0  0
  139.2278   77.8612  222.2665 H   0  0  0  0  0  0  0  0  0  0  0  0
  142.6840   72.8550  218.3200 H   0  0  0  0  0  0  0  0  0  0  0  0
  144.4003   75.1237  218.5017 H   0  0  0  0  0  0  0  0  0  0  0  0
  144.9728   73.7172  216.8101 H   0  0  0  0  0  0  0  0  0  0  0  0
  146.2178   73.2686  218.1019 H   0  0  0  0  0  0  0  0  0  0  0  0
  143.7254   71.6960  217.3913 H   0  0  0  0  0  0  0  0  0  0  0  0
  145.4717   71.3188  216.9508 H   0  0  0  0  0  0  0  0  0  0  0  0
  144.4811   69.9687  218.8390 H   0  0  0  0  0  0  0  0  0  0  0  0
  146.0508   70.8876  219.1489 H   0  0  0  0  0  0  0  0  0  0  0  0
  143.3955   72.0123  220.0137 H   0  0  0  0  0  0  0  0  0  0  0  0
  144.3329   70.7724  221.0102 H   0  0  0  0  0  0  0  0  0  0  0  0
  144.9019   72.8016  221.9653 H   0  0  0  0  0  0  0  0  0  0  0  0
  146.2722   72.3871  220.8171 H   0  0  0  0  0  0  0  0  0  0  0  0
  144.5286   74.7311  220.9053 H   0  0  0  0  0  0  0  0  0  0  0  0
  146.1333   74.4054  220.0539 H   0  0  0  0  0  0  0  0  0  0  0  0
  141.2889   71.2887  223.3377 H   0  0  0  0  0  0  0  0  0  0  0  0
  140.6039   72.4721  224.4583 H   0  0  0  0  0  0  0  0  0  0  0  0
  139.5493   69.7990  223.6238 H   0  0  0  0  0  0  0  0  0  0  0  0
  139.1478   70.7318  225.0750 H   0  0  0  0  0  0  0  0  0  0  0  0
  137.4422   70.4332  222.8875 H   0  0  0  0  0  0  0  0  0  0  0  0
  137.3359   71.8029  224.0054 H   0  0  0  0  0  0  0  0  0  0  0  0
  138.3882   71.7016  221.2063 H   0  0  0  0  0  0  0  0  0  0  0  0
  137.8219   73.1108  222.1112 H   0  0  0  0  0  0  0  0  0  0  0  0
  142.8341   77.9289  220.7280 H   0  0  0  0  0  0  0  0  0  0  0  0
  141.3079   77.9813  219.7229 H   0  0  0  0  0  0  0  0  0  0  0  0
  1  2  2  0
  2  3  1  0
  3  4  2  0
  4  5  1  0
  5  6  2  0
  5  7  1  0
  7  8  1  0
  8  9  1  0
  9 10  1  0
 10 11  2  0
 11 12  1  0
 12 13  1  0
 13 14  1  0
 14 15  1  0
 15 16  1  0
 16 17  1  0
 17 18  1  0
 18 19  1  0
 19 20  1  0
 12 21  2  0
 21 22  1  0
 22 23  1  0
 23 24  1  0
 24 25  1  0
 25 26  1  0
 26 27  1  0
 22 28  2  0
  9 29  1  0
  6  1  1  0
 28 10  1  0
 29  4  1  0
 20 14  1  0
 27 23  1  0
  1 30  1  0
  2 31  1  0
  3 32  1  0
  6 33  1  0
  7 34  1  0
  7 35  1  0
  8 36  1  0
  8 37  1  0
 13 38  1  0
 14 39  1  0
 15 40  1  0
 15 41  1  0
 16 42  1  0
 16 43  1  0
 17 44  1  0
 17 45  1  0
 18 46  1  0
 18 47  1  0
 19 48  1  0
 19 49  1  0
 20 50  1  0
 20 51  1  0
 24 52  1  0
 24 53  1  0
 25 54  1  0
 25 55  1  0
 26 56  1  0
 26 57  1  0
 27 58  1  0
 27 59  1  0
 29 60  1  0
 29 61  1  0
M  END
>  <UniqueID>  (71) 
572

>  <SMILES>  (71) 
c1ccc2c(c1)CCN(c1nc(NC3CCCCCC3)nc(N3CCCC3)n1)C2

>  <Energy>  (71) 
70.9500233208185

>  <Genealogy>  (71) 
c1ccc2c(c1)CCN(c1nc(NC3CCCCCC3)nc(N3CCCC3)n1)C2 (3D coordinates assigned)
c1ccc2c(c1)CCN(c1nc(NC3CCCCCC3)nc(N3CCCC3)n1)C2 (nonaromatic ring conformer: 70.9500233208185 kcal/mol)

>  <smiles>  (71) 
c1ccc2c(c1)CCN(c1nc(NC3CCCCCC3)nc(N3CCCC3)n1)C2

>  <score_type>  (71) 
oracle

>  <origin>  (71) 
autodockgpu

>  <m_score__min__energy>  (71) 
-6.0199999999999996

>  <m_primary>  (71) 
energy

>  <meeko>  (71) 
{"free_energy": -4.8, "intermolecular_energy": -7.79, "internal_energy": -0.93, "cluster_size": 1, "cluster_id": 7, "rank_in_cluster": 1}

>  <energy>  (71) 
-5.38

>  <cluster_rmsd>  (71) 
1.95

>  <rmsd>  (71) 
270.62

>  <cluster>  (71) 
3

$$$$
HZXVWJKCCMCLGL-LQFNOIFHNA-N
     RDKit          3D

 61 65  0  0  0  0  0  0  0  0999 V2000
  140.2360   69.3400  228.1330 C   0  0  0  0  0  0  0  0  0  0  0  0
  140.7970   70.6150  228.2380 C   0  0  0  0  0  0  0  0  0  0  0  0
  140.9150   71.4240  227.1040 C   0  0  0  0  0  0  0  0  0  0  0  0
  140.4580   70.9680  225.8550 C   0  0  0  0  0  0  0  0  0  0  0  0
  139.8880   69.6850  225.7540 C   0  0  0  0  0  0  0  0  0  0  0  0
  139.7890   68.8720  226.8950 C   0  0  0  0  0  0  0  0  0  0  0  0
  139.4420   69.1710  224.4190 C   0  0  0  0  0  0  0  0  0  0  0  0
  138.8720   70.3130  223.5820 C   0  0  0  0  0  0  0  0  0  0  0  0
  139.8460   71.4110  223.4720 N   0  0  0  0  0  0  0  0  0  0  0  0
  139.9090   72.2040  222.2660 C   0  0  0  0  0  0  0  0  0  0  0  0
  139.8200   73.5600  222.3240 N   0  0  0  0  0  0  0  0  0  0  0  0
  139.8810   74.3040  221.1900 C   0  0  0  0  0  0  0  0  0  0  0  0
  139.7830   75.7320  221.2700 N   0  0  0  0  0  0  0  0  0  0  0  0
  140.9110   76.5800  221.6770 C   0  0  0  0  0  0  0  0  0  0  0  0
  140.4250   77.6250  222.7070 C   0  0  0  0  0  0  0  0  0  0  0  0
  141.4650   78.6760  223.1600 C   0  0  0  0  0  0  0  0  0  0  0  0
  141.5170   79.9570  222.3070 C   0  0  0  0  0  0  0  0  0  0  0  0
  141.8560   79.7570  220.8060 C   0  0  0  0  0  0  0  0  0  0  0  0
  141.0800   78.6430  220.0800 C   0  0  0  0  0  0  0  0  0  0  0  0
  141.5460   77.2140  220.4200 C   0  0  0  0  0  0  0  0  0  0  0  0
  140.0370   73.6870  219.9910 N   0  0  0  0  0  0  0  0  0  0  0  0
  140.1270   72.3350  219.9190 C   0  0  0  0  0  0  0  0  0  0  0  0
  140.2880   71.6900  218.6480 N   0  0  0  0  0  0  0  0  0  0  0  0
  140.8810   72.3390  217.4920 C   0  0  0  0  0  0  0  0  0  0  0  0
  140.6990   71.3610  216.3380 C   0  0  0  0  0  0  0  0  0  0  0  0
  140.3680   70.0130  216.9770 C   0  0  0  0  0  0  0  0  0  0  0  0
  139.8700   70.3260  218.3820 C   0  0  0  0  0  0  0  0  0  0  0  0
  140.0640   71.5990  221.0580 N   0  0  0  0  0  0  0  0  0  0  0  0
  140.6430   71.8420  224.6360 C   0  0  0  0  0  0  0  0  0  0  0  0
  140.1461   68.7039  229.0259 H   0  0  0  0  0  0  0  0  0  0  0  0
  141.1463   70.9828  229.2141 H   0  0  0  0  0  0  0  0  0  0  0  0
  141.3679   72.4228  227.1894 H   0  0  0  0  0  0  0  0  0  0  0  0
  139.3580   67.8632  226.8135 H   0  0  0  0  0  0  0  0  0  0  0  0
  140.3012   68.7285  223.8938 H   0  0  0  0  0  0  0  0  0  0  0  0
  138.6624   68.4095  224.5682 H   0  0  0  0  0  0  0  0  0  0  0  0
  138.6334   69.9392  222.5753 H   0  0  0  0  0  0  0  0  0  0  0  0
  137.9634   70.6927  224.0722 H   0  0  0  0  0  0  0  0  0  0  0  0
  138.8670   76.1730  221.0290 H   0  0  0  0  0  0  0  0  0  0  0  0
  141.6936   75.9863  222.1721 H   0  0  0  0  0  0  0  0  0  0  0  0
  139.5757   78.1642  222.2621 H   0  0  0  0  0  0  0  0  0  0  0  0
  140.1752   77.0510  223.6115 H   0  0  0  0  0  0  0  0  0  0  0  0
  141.2280   78.9654  224.1944 H   0  0  0  0  0  0  0  0  0  0  0  0
  142.4495   78.1974  223.0522 H   0  0  0  0  0  0  0  0  0  0  0  0
  140.5323   80.4433  222.3685 H   0  0  0  0  0  0  0  0  0  0  0  0
  142.3401   80.5578  222.7211 H   0  0  0  0  0  0  0  0  0  0  0  0
  141.6503   80.7041  220.2857 H   0  0  0  0  0  0  0  0  0  0  0  0
  142.9114   79.4480  220.7796 H   0  0  0  0  0  0  0  0  0  0  0  0
  140.0176   78.7316  220.3510 H   0  0  0  0  0  0  0  0  0  0  0  0
  141.2627   78.7842  219.0045 H   0  0  0  0  0  0  0  0  0  0  0  0
  141.3099   76.5689  219.5609 H   0  0  0  0  0  0  0  0  0  0  0  0
  142.6213   77.2947  220.6375 H   0  0  0  0  0  0  0  0  0  0  0  0
  140.3662   73.2871  217.2772 H   0  0  0  0  0  0  0  0  0  0  0  0
  141.9411   72.5805  217.6588 H   0  0  0  0  0  0  0  0  0  0  0  0
  139.8752   71.6877  215.6863 H   0  0  0  0  0  0  0  0  0  0  0  0
  141.6033   71.3003  215.7147 H   0  0  0  0  0  0  0  0  0  0  0  0
  139.5857   69.4982  216.4000 H   0  0  0  0  0  0  0  0  0  0  0  0
  141.2460   69.3507  216.9987 H   0  0  0  0  0  0  0  0  0  0  0  0
  138.7740   70.2441  218.4283 H   0  0  0  0  0  0  0  0  0  0  0  0
  140.2761   69.6232  219.1244 H   0  0  0  0  0  0  0  0  0  0  0  0
  141.7063   71.8252  224.3545 H   0  0  0  0  0  0  0  0  0  0  0  0
  140.2971   72.8503  224.9074 H   0  0  0  0  0  0  0  0  0  0  0  0
  1  2  2  0
  2  3  1  0
  3  4  2  0
  4  5  1  0
  5  6  2  0
  5  7  1  0
  7  8  1  0
  8  9  1  0
  9 10  1  0
 10 11  2  0
 11 12  1  0
 12 13  1  0
 13 14  1  0
 14 15  1  0
 15 16  1  0
 16 17  1  0
 17 18  1  0
 18 19  1  0
 19 20  1  0
 12 21  2  0
 21 22  1  0
 22 23  1  0
 23 24  1  0
 24 25  1  0
 25 26  1  0
 26 27  1  0
 22 28  2  0
  9 29  1  0
  6  1  1  0
 28 10  1  0
 29  4  1  0
 20 14  1  0
 27 23  1  0
  1 30  1  0
  2 31  1  0
  3 32  1  0
  6 33  1  0
  7 34  1  0
  7 35  1  0
  8 36  1  0
  8 37  1  0
 13 38  1  0
 14 39  1  0
 15 40  1  0
 15 41  1  0
 16 42  1  0
 16 43  1  0
 17 44  1  0
 17 45  1  0
 18 46  1  0
 18 47  1  0
 19 48  1  0
 19 49  1  0
 20 50  1  0
 20 51  1  0
 24 52  1  0
 24 53  1  0
 25 54  1  0
 25 55  1  0
 26 56  1  0
 26 57  1  0
 27 58  1  0
 27 59  1  0
 29 60  1  0
 29 61  1  0
M  END
>  <UniqueID>  (72) 
572

>  <SMILES>  (72) 
c1ccc2c(c1)CCN(c1nc(NC3CCCCCC3)nc(N3CCCC3)n1)C2

>  <Energy>  (72) 
70.9500233208185

>  <Genealogy>  (72) 
c1ccc2c(c1)CCN(c1nc(NC3CCCCCC3)nc(N3CCCC3)n1)C2 (3D coordinates assigned)
c1ccc2c(c1)CCN(c1nc(NC3CCCCCC3)nc(N3CCCC3)n1)C2 (nonaromatic ring conformer: 70.9500233208185 kcal/mol)

>  <smiles>  (72) 
c1ccc2c(c1)CCN(c1nc(NC3CCCCCC3)nc(N3CCCC3)n1)C2

>  <score_type>  (72) 
oracle

>  <origin>  (72) 
autodockgpu

>  <m_score__min__energy>  (72) 
-6.0199999999999996

>  <m_primary>  (72) 
energy

>  <meeko>  (72) 
{"free_energy": -5.38, "intermolecular_energy": -8.37, "internal_energy": -0.85, "cluster_size": 7, "cluster_id": 1, "rank_in_cluster": 3}

>  <energy>  (72) 
-5.22

>  <cluster_rmsd>  (72) 
0.6

>  <rmsd>  (72) 
270.12

>  <cluster>  (72) 
3

$$$$
HZXVWJKCCMCLGL-LQFNOIFHNA-N
     RDKit          3D

 61 65  0  0  0  0  0  0  0  0999 V2000
  139.5760   68.1180  227.3590 C   0  0  0  0  0  0  0  0  0  0  0  0
  140.2290   69.2170  227.9210 C   0  0  0  0  0  0  0  0  0  0  0  0
  140.5770   70.3090  227.1220 C   0  0  0  0  0  0  0  0  0  0  0  0
  140.2610   70.3170  225.7530 C   0  0  0  0  0  0  0  0  0  0  0  0
  139.5980   69.2100  225.1900 C   0  0  0  0  0  0  0  0  0  0  0  0
  139.2670   68.1090  225.9960 C   0  0  0  0  0  0  0  0  0  0  0  0
  139.2990   69.1880  223.7210 C   0  0  0  0  0  0  0  0  0  0  0  0
  138.9570   70.5940  223.2350 C   0  0  0  0  0  0  0  0  0  0  0  0
  140.0310   71.5380  223.5830 N   0  0  0  0  0  0  0  0  0  0  0  0
  140.3340   72.6440  222.7040 C   0  0  0  0  0  0  0  0  0  0  0  0
  139.5260   73.7380  222.6650 N   0  0  0  0  0  0  0  0  0  0  0  0
  139.8120   74.7780  221.8410 C   0  0  0  0  0  0  0  0  0  0  0  0
  138.9480   75.9210  221.8120 N   0  0  0  0  0  0  0  0  0  0  0  0
  139.4590   77.2980  221.8080 C   0  0  0  0  0  0  0  0  0  0  0  0
  139.1440   77.9610  220.4480 C   0  0  0  0  0  0  0  0  0  0  0  0
  140.0000   79.1930  220.0710 C   0  0  0  0  0  0  0  0  0  0  0  0
  140.3170   80.1510  221.2360 C   0  0  0  0  0  0  0  0  0  0  0  0
  141.5750   79.8010  222.0750 C   0  0  0  0  0  0  0  0  0  0  0  0
  141.5040   78.5010  222.9070 C   0  0  0  0  0  0  0  0  0  0  0  0
  140.9680   77.2770  222.1390 C   0  0  0  0  0  0  0  0  0  0  0  0
  140.9160   74.7240  221.0530 N   0  0  0  0  0  0  0  0  0  0  0  0
  141.7300   73.6400  221.0820 C   0  0  0  0  0  0  0  0  0  0  0  0
  142.8930   73.5880  220.2430 N   0  0  0  0  0  0  0  0  0  0  0  0
  144.0440   72.7490  220.5240 C   0  0  0  0  0  0  0  0  0  0  0  0
  145.0900   73.1310  219.4850 C   0  0  0  0  0  0  0  0  0  0  0  0
  144.3400   73.8910  218.3930 C   0  0  0  0  0  0  0  0  0  0  0  0
  143.0440   74.3720  219.0320 C   0  0  0  0  0  0  0  0  0  0  0  0
  141.4360   72.6030  221.9090 N   0  0  0  0  0  0  0  0  0  0  0  0
  140.6930   71.4880  224.9010 C   0  0  0  0  0  0  0  0  0  0  0  0
  139.3046   67.2586  227.9896 H   0  0  0  0  0  0  0  0  0  0  0  0
  140.4697   69.2230  228.9943 H   0  0  0  0  0  0  0  0  0  0  0  0
  141.1014   71.1674  227.5672 H   0  0  0  0  0  0  0  0  0  0  0  0
  138.7631   67.2370  225.5535 H   0  0  0  0  0  0  0  0  0  0  0  0
  140.1801   68.8187  223.1757 H   0  0  0  0  0  0  0  0  0  0  0  0
  138.4408   68.5247  223.5378 H   0  0  0  0  0  0  0  0  0  0  0  0
  138.8298   70.5779  222.1425 H   0  0  0  0  0  0  0  0  0  0  0  0
  138.0262   70.9208  223.7217 H   0  0  0  0  0  0  0  0  0  0  0  0
  137.9160   75.7540  221.7960 H   0  0  0  0  0  0  0  0  0  0  0  0
  138.9643   77.9058  222.5799 H   0  0  0  0  0  0  0  0  0  0  0  0
  139.2858   77.2021  219.6645 H   0  0  0  0  0  0  0  0  0  0  0  0
  138.1137   78.3360  220.5364 H   0  0  0  0  0  0  0  0  0  0  0  0
  140.9534   78.8319  219.6579 H   0  0  0  0  0  0  0  0  0  0  0  0
  139.4022   79.7726  219.3522 H   0  0  0  0  0  0  0  0  0  0  0  0
  140.4608   81.1574  220.8158 H   0  0  0  0  0  0  0  0  0  0  0  0
  139.4652   80.0725  221.9276 H   0  0  0  0  0  0  0  0  0  0  0  0
  142.4247   79.7095  221.3825 H   0  0  0  0  0  0  0  0  0  0  0  0
  141.6727   80.6139  222.8096 H   0  0  0  0  0  0  0  0  0  0  0  0
  142.5178   78.2657  223.2632 H   0  0  0  0  0  0  0  0  0  0  0  0
  140.7933   78.6922  223.7245 H   0  0  0  0  0  0  0  0  0  0  0  0
  141.5205   77.2054  221.1905 H   0  0  0  0  0  0  0  0  0  0  0  0
  141.1147   76.4168  222.8087 H   0  0  0  0  0  0  0  0  0  0  0  0
  144.4219   72.9422  221.5388 H   0  0  0  0  0  0  0  0  0  0  0  0
  143.7911   71.6796  220.4742 H   0  0  0  0  0  0  0  0  0  0  0  0
  145.8610   73.7726  219.9367 H   0  0  0  0  0  0  0  0  0  0  0  0
  145.5998   72.2438  219.0812 H   0  0  0  0  0  0  0  0  0  0  0  0
  144.9358   74.7478  218.0453 H   0  0  0  0  0  0  0  0  0  0  0  0
  144.1458   73.2529  217.5183 H   0  0  0  0  0  0  0  0  0  0  0  0
  143.1092   75.4432  219.2735 H   0  0  0  0  0  0  0  0  0  0  0  0
  142.1854   74.2469  218.3559 H   0  0  0  0  0  0  0  0  0  0  0  0
  141.7793   71.4198  224.7418 H   0  0  0  0  0  0  0  0  0  0  0  0
  140.4049   72.4022  225.4407 H   0  0  0  0  0  0  0  0  0  0  0  0
  1  2  2  0
  2  3  1  0
  3  4  2  0
  4  5  1  0
  5  6  2  0
  5  7  1  0
  7  8  1  0
  8  9  1  0
  9 10  1  0
 10 11  2  0
 11 12  1  0
 12 13  1  0
 13 14  1  0
 14 15  1  0
 15 16  1  0
 16 17  1  0
 17 18  1  0
 18 19  1  0
 19 20  1  0
 12 21  2  0
 21 22  1  0
 22 23  1  0
 23 24  1  0
 24 25  1  0
 25 26  1  0
 26 27  1  0
 22 28  2  0
  9 29  1  0
  6  1  1  0
 28 10  1  0
 29  4  1  0
 20 14  1  0
 27 23  1  0
  1 30  1  0
  2 31  1  0
  3 32  1  0
  6 33  1  0
  7 34  1  0
  7 35  1  0
  8 36  1  0
  8 37  1  0
 13 38  1  0
 14 39  1  0
 15 40  1  0
 15 41  1  0
 16 42  1  0
 16 43  1  0
 17 44  1  0
 17 45  1  0
 18 46  1  0
 18 47  1  0
 19 48  1  0
 19 49  1  0
 20 50  1  0
 20 51  1  0
 24 52  1  0
 24 53  1  0
 25 54  1  0
 25 55  1  0
 26 56  1  0
 26 57  1  0
 27 58  1  0
 27 59  1  0
 29 60  1  0
 29 61  1  0
M  END
>  <UniqueID>  (73) 
572

>  <SMILES>  (73) 
c1ccc2c(c1)CCN(c1nc(NC3CCCCCC3)nc(N3CCCC3)n1)C2

>  <Energy>  (73) 
70.9500233208185

>  <Genealogy>  (73) 
c1ccc2c(c1)CCN(c1nc(NC3CCCCCC3)nc(N3CCCC3)n1)C2 (3D coordinates assigned)
c1ccc2c(c1)CCN(c1nc(NC3CCCCCC3)nc(N3CCCC3)n1)C2 (nonaromatic ring conformer: 70.9500233208185 kcal/mol)

>  <smiles>  (73) 
c1ccc2c(c1)CCN(c1nc(NC3CCCCCC3)nc(N3CCCC3)n1)C2

>  <score_type>  (73) 
oracle

>  <origin>  (73) 
autodockgpu

>  <m_score__min__energy>  (73) 
-6.0199999999999996

>  <m_primary>  (73) 
energy

>  <meeko>  (73) 
{"free_energy": -4.58, "intermolecular_energy": -7.56, "internal_energy": -0.89, "cluster_size": 7, "cluster_id": 1, "rank_in_cluster": 7}

>  <energy>  (73) 
-4.94

>  <cluster_rmsd>  (73) 
1.86

>  <rmsd>  (73) 
270.07

>  <cluster>  (73) 
3

$$$$
HZXVWJKCCMCLGL-LQFNOIFHNA-N
     RDKit          3D

 61 65  0  0  0  0  0  0  0  0999 V2000
  139.9400   68.1070  227.8130 C   0  0  0  0  0  0  0  0  0  0  0  0
  140.7290   69.1880  228.2110 C   0  0  0  0  0  0  0  0  0  0  0  0
  141.0410   70.2010  227.2990 C   0  0  0  0  0  0  0  0  0  0  0  0
  140.5510   70.1490  225.9840 C   0  0  0  0  0  0  0  0  0  0  0  0
  139.7500   69.0600  225.5870 C   0  0  0  0  0  0  0  0  0  0  0  0
  139.4570   68.0380  226.5030 C   0  0  0  0  0  0  0  0  0  0  0  0
  139.2630   68.9710  224.1720 C   0  0  0  0  0  0  0  0  0  0  0  0
  138.9510   70.3650  223.6360 C   0  0  0  0  0  0  0  0  0  0  0  0
  140.1200   71.2480  223.7800 N   0  0  0  0  0  0  0  0  0  0  0  0
  140.3770   72.2730  222.7950 C   0  0  0  0  0  0  0  0  0  0  0  0
  139.5180   73.3170  222.6430 N   0  0  0  0  0  0  0  0  0  0  0  0
  139.7610   74.2810  221.7190 C   0  0  0  0  0  0  0  0  0  0  0  0
  138.8440   75.3730  221.5710 N   0  0  0  0  0  0  0  0  0  0  0  0
  139.1490   76.7300  222.0420 C   0  0  0  0  0  0  0  0  0  0  0  0
  138.5940   77.7630  221.0340 C   0  0  0  0  0  0  0  0  0  0  0  0
  138.8180   79.2520  221.3850 C   0  0  0  0  0  0  0  0  0  0  0  0
  140.1380   79.8560  220.8690 C   0  0  0  0  0  0  0  0  0  0  0  0
  141.4350   79.1370  221.3280 C   0  0  0  0  0  0  0  0  0  0  0  0
  141.4510   77.6130  221.1730 C   0  0  0  0  0  0  0  0  0  0  0  0
  140.6720   76.8570  222.2660 C   0  0  0  0  0  0  0  0  0  0  0  0
  140.8730   74.2020  220.9430 N   0  0  0  0  0  0  0  0  0  0  0  0
  141.7380   73.1670  221.0850 C   0  0  0  0  0  0  0  0  0  0  0  0
  142.9080   73.0880  220.2600 N   0  0  0  0  0  0  0  0  0  0  0  0
  143.3520   71.8630  219.6180 C   0  0  0  0  0  0  0  0  0  0  0  0
  144.7010   72.1960  218.9940 C   0  0  0  0  0  0  0  0  0  0  0  0
  144.7830   73.7210  218.9580 C   0  0  0  0  0  0  0  0  0  0  0  0
  143.7740   74.2190  219.9850 C   0  0  0  0  0  0  0  0  0  0  0  0
  141.4860   72.2060  222.0110 N   0  0  0  0  0  0  0  0  0  0  0  0
  140.9430   71.2310  225.0040 C   0  0  0  0  0  0  0  0  0  0  0  0
  139.6983   67.3092  228.5307 H   0  0  0  0  0  0  0  0  0  0  0  0
  141.1056   69.2428  229.2431 H   0  0  0  0  0  0  0  0  0  0  0  0
  141.6741   71.0437  227.6135 H   0  0  0  0  0  0  0  0  0  0  0  0
  138.8451   67.1795  226.1891 H   0  0  0  0  0  0  0  0  0  0  0  0
  140.0411   68.5070  223.5480 H   0  0  0  0  0  0  0  0  0  0  0  0
  138.3478   68.3614  224.1440 H   0  0  0  0  0  0  0  0  0  0  0  0
  138.6821   70.2915  222.5719 H   0  0  0  0  0  0  0  0  0  0  0  0
  138.1139   70.7874  224.2112 H   0  0  0  0  0  0  0  0  0  0  0  0
  137.9250   75.1810  221.1120 H   0  0  0  0  0  0  0  0  0  0  0  0
  138.6603   76.9326  223.0064 H   0  0  0  0  0  0  0  0  0  0  0  0
  139.0718   77.5724  220.0617 H   0  0  0  0  0  0  0  0  0  0  0  0
  137.5032   77.6214  221.0399 H   0  0  0  0  0  0  0  0  0  0  0  0
  137.9876   79.8316  220.9554 H   0  0  0  0  0  0  0  0  0  0  0  0
  138.8675   79.3028  222.4827 H   0  0  0  0  0  0  0  0  0  0  0  0
  140.1116   79.8352  219.7695 H   0  0  0  0  0  0  0  0  0  0  0  0
  140.1904   80.8683  221.2962 H   0  0  0  0  0  0  0  0  0  0  0  0
  142.2709   79.5435  220.7398 H   0  0  0  0  0  0  0  0  0  0  0  0
  141.5106   79.3251  222.4092 H   0  0  0  0  0  0  0  0  0  0  0  0
  141.0087   77.3611  220.1979 H   0  0  0  0  0  0  0  0  0  0  0  0
  142.5015   77.2983  221.2597 H   0  0  0  0  0  0  0  0  0  0  0  0
  141.0885   75.8413  222.3356 H   0  0  0  0  0  0  0  0  0  0  0  0
  140.7898   77.4535  223.1827 H   0  0  0  0  0  0  0  0  0  0  0  0
  143.4598   71.0577  220.3595 H   0  0  0  0  0  0  0  0  0  0  0  0
  142.6302   71.5118  218.8659 H   0  0  0  0  0  0  0  0  0  0  0  0
  145.5172   71.7836  219.6054 H   0  0  0  0  0  0  0  0  0  0  0  0
  144.7972   71.7633  217.9872 H   0  0  0  0  0  0  0  0  0  0  0  0
  145.7965   74.0559  219.2241 H   0  0  0  0  0  0  0  0  0  0  0  0
  144.5636   74.1131  217.9540 H   0  0  0  0  0  0  0  0  0  0  0  0
  144.2874   74.5418  220.9027 H   0  0  0  0  0  0  0  0  0  0  0  0
  143.2072   75.0850  219.6125 H   0  0  0  0  0  0  0  0  0  0  0  0
  141.9926   71.0741  224.7147 H   0  0  0  0  0  0  0  0  0  0  0  0
  140.7871   72.1952  225.5099 H   0  0  0  0  0  0  0  0  0  0  0  0
  1  2  2  0
  2  3  1  0
  3  4  2  0
  4  5  1  0
  5  6  2  0
  5  7  1  0
  7  8  1  0
  8  9  1  0
  9 10  1  0
 10 11  2  0
 11 12  1  0
 12 13  1  0
 13 14  1  0
 14 15  1  0
 15 16  1  0
 16 17  1  0
 17 18  1  0
 18 19  1  0
 19 20  1  0
 12 21  2  0
 21 22  1  0
 22 23  1  0
 23 24  1  0
 24 25  1  0
 25 26  1  0
 26 27  1  0
 22 28  2  0
  9 29  1  0
  6  1  1  0
 28 10  1  0
 29  4  1  0
 20 14  1  0
 27 23  1  0
  1 30  1  0
  2 31  1  0
  3 32  1  0
  6 33  1  0
  7 34  1  0
  7 35  1  0
  8 36  1  0
  8 37  1  0
 13 38  1  0
 14 39  1  0
 15 40  1  0
 15 41  1  0
 16 42  1  0
 16 43  1  0
 17 44  1  0
 17 45  1  0
 18 46  1  0
 18 47  1  0
 19 48  1  0
 19 49  1  0
 20 50  1  0
 20 51  1  0
 24 52  1  0
 24 53  1  0
 25 54  1  0
 25 55  1  0
 26 56  1  0
 26 57  1  0
 27 58  1  0
 27 59  1  0
 29 60  1  0
 29 61  1  0
M  END
>  <UniqueID>  (74) 
572

>  <SMILES>  (74) 
c1ccc2c(c1)CCN(c1nc(NC3CCCCCC3)nc(N3CCCC3)n1)C2

>  <Energy>  (74) 
70.9500233208185

>  <Genealogy>  (74) 
c1ccc2c(c1)CCN(c1nc(NC3CCCCCC3)nc(N3CCCC3)n1)C2 (3D coordinates assigned)
c1ccc2c(c1)CCN(c1nc(NC3CCCCCC3)nc(N3CCCC3)n1)C2 (nonaromatic ring conformer: 70.9500233208185 kcal/mol)

>  <smiles>  (74) 
c1ccc2c(c1)CCN(c1nc(NC3CCCCCC3)nc(N3CCCC3)n1)C2

>  <score_type>  (74) 
oracle

>  <origin>  (74) 
autodockgpu

>  <m_score__min__energy>  (74) 
-6.0199999999999996

>  <m_primary>  (74) 
energy

>  <meeko>  (74) 
{"free_energy": -4.94, "intermolecular_energy": -7.92, "internal_energy": -1.01, "cluster_size": 7, "cluster_id": 1, "rank_in_cluster": 5}

>  <energy>  (74) 
-4.91

>  <cluster_rmsd>  (74) 
0.9

>  <rmsd>  (74) 
269.84

>  <cluster>  (74) 
3

$$$$
HZXVWJKCCMCLGL-LQFNOIFHNA-N
     RDKit          3D

 61 65  0  0  0  0  0  0  0  0999 V2000
  139.3350   81.0760  223.3010 C   0  0  0  0  0  0  0  0  0  0  0  0
  140.7210   80.9090  223.2740 C   0  0  0  0  0  0  0  0  0  0  0  0
  141.2700   79.6410  223.0630 C   0  0  0  0  0  0  0  0  0  0  0  0
  140.4350   78.5290  222.8620 C   0  0  0  0  0  0  0  0  0  0  0  0
  139.0370   78.7020  222.8850 C   0  0  0  0  0  0  0  0  0  0  0  0
  138.4940   79.9750  223.1150 C   0  0  0  0  0  0  0  0  0  0  0  0
  138.1380   77.5140  222.7190 C   0  0  0  0  0  0  0  0  0  0  0  0
  138.7550   76.5220  221.7380 C   0  0  0  0  0  0  0  0  0  0  0  0
  140.1150   76.1500  222.1630 N   0  0  0  0  0  0  0  0  0  0  0  0
  140.6120   74.8180  221.9100 C   0  0  0  0  0  0  0  0  0  0  0  0
  139.9290   73.7290  222.3540 N   0  0  0  0  0  0  0  0  0  0  0  0
  140.3960   72.4770  222.1150 C   0  0  0  0  0  0  0  0  0  0  0  0
  139.6640   71.3400  222.5920 N   0  0  0  0  0  0  0  0  0  0  0  0
  140.0230   70.6310  223.8270 C   0  0  0  0  0  0  0  0  0  0  0  0
  138.7430   70.3380  224.6430 C   0  0  0  0  0  0  0  0  0  0  0  0
  138.8360   69.1910  225.6760 C   0  0  0  0  0  0  0  0  0  0  0  0
  139.4770   69.5730  227.0230 C   0  0  0  0  0  0  0  0  0  0  0  0
  140.3420   70.8620  227.0200 C   0  0  0  0  0  0  0  0  0  0  0  0
  141.4800   70.9090  225.9800 C   0  0  0  0  0  0  0  0  0  0  0  0
  141.0620   71.4670  224.6050 C   0  0  0  0  0  0  0  0  0  0  0  0
  141.5530   72.3130  221.4230 N   0  0  0  0  0  0  0  0  0  0  0  0
  142.2450   73.3910  220.9750 C   0  0  0  0  0  0  0  0  0  0  0  0
  143.4680   73.2120  220.2480 N   0  0  0  0  0  0  0  0  0  0  0  0
  144.7820   73.3810  220.8420 C   0  0  0  0  0  0  0  0  0  0  0  0
  145.7690   73.2610  219.6880 C   0  0  0  0  0  0  0  0  0  0  0  0
  144.9960   72.6190  218.5380 C   0  0  0  0  0  0  0  0  0  0  0  0
  143.5210   72.8490  218.8440 C   0  0  0  0  0  0  0  0  0  0  0  0
  141.7700   74.6400  221.2200 N   0  0  0  0  0  0  0  0  0  0  0  0
  141.0530   77.1620  222.6860 C   0  0  0  0  0  0  0  0  0  0  0  0
  138.9047   82.0744  223.4687 H   0  0  0  0  0  0  0  0  0  0  0  0
  141.3817   81.7764  223.4190 H   0  0  0  0  0  0  0  0  0  0  0  0
  142.3625   79.5129  223.0543 H   0  0  0  0  0  0  0  0  0  0  0  0
  137.4025   80.1072  223.1491 H   0  0  0  0  0  0  0  0  0  0  0  0
  137.9998   77.0234  223.6938 H   0  0  0  0  0  0  0  0  0  0  0  0
  137.1664   77.8499  222.3277 H   0  0  0  0  0  0  0  0  0  0  0  0
  138.1294   75.6182  221.6964 H   0  0  0  0  0  0  0  0  0  0  0  0
  138.8102   76.9928  220.7454 H   0  0  0  0  0  0  0  0  0  0  0  0
  138.8480   71.0130  222.0270 H   0  0  0  0  0  0  0  0  0  0  0  0
  140.4880   69.6592  223.6049 H   0  0  0  0  0  0  0  0  0  0  0  0
  138.4739   71.2564  225.1854 H   0  0  0  0  0  0  0  0  0  0  0  0
  137.9948   70.0093  223.9067 H   0  0  0  0  0  0  0  0  0  0  0  0
  137.8167   68.8284  225.8747 H   0  0  0  0  0  0  0  0  0  0  0  0
  139.4934   68.4304  225.2296 H   0  0  0  0  0  0  0  0  0  0  0  0
  138.6672   69.7120  227.7544 H   0  0  0  0  0  0  0  0  0  0  0  0
  140.1666   68.7519  227.2684 H   0  0  0  0  0  0  0  0  0  0  0  0
  139.6746   71.7150  226.8276 H   0  0  0  0  0  0  0  0  0  0  0  0
  140.8361   70.8904  228.0024 H   0  0  0  0  0  0  0  0  0  0  0  0
  142.2849   71.5438  226.3789 H   0  0  0  0  0  0  0  0  0  0  0  0
  141.7973   69.8689  225.8140 H   0  0  0  0  0  0  0  0  0  0  0  0
  140.6383   72.4698  224.7626 H   0  0  0  0  0  0  0  0  0  0  0  0
  141.9737   71.4575  223.9896 H   0  0  0  0  0  0  0  0  0  0  0  0
  144.8647   74.3695  221.3173 H   0  0  0  0  0  0  0  0  0  0  0  0
  144.9756   72.6320  221.6240 H   0  0  0  0  0  0  0  0  0  0  0  0
  146.1358   74.2554  219.3938 H   0  0  0  0  0  0  0  0  0  0  0  0
  146.6463   72.6598  219.9690 H   0  0  0  0  0  0  0  0  0  0  0  0
  145.2669   73.0935  217.5833 H   0  0  0  0  0  0  0  0  0  0  0  0
  145.2263   71.5473  218.4461 H   0  0  0  0  0  0  0  0  0  0  0  0
  143.1216   73.6630  218.2212 H   0  0  0  0  0  0  0  0  0  0  0  0
  142.9159   71.9555  218.6305 H   0  0  0  0  0  0  0  0  0  0  0  0
  141.4234   76.8198  223.6636 H   0  0  0  0  0  0  0  0  0  0  0  0
  141.8592   77.2666  221.9450 H   0  0  0  0  0  0  0  0  0  0  0  0
  1  2  2  0
  2  3  1  0
  3  4  2  0
  4  5  1  0
  5  6  2  0
  5  7  1  0
  7  8  1  0
  8  9  1  0
  9 10  1  0
 10 11  2  0
 11 12  1  0
 12 13  1  0
 13 14  1  0
 14 15  1  0
 15 16  1  0
 16 17  1  0
 17 18  1  0
 18 19  1  0
 19 20  1  0
 12 21  2  0
 21 22  1  0
 22 23  1  0
 23 24  1  0
 24 25  1  0
 25 26  1  0
 26 27  1  0
 22 28  2  0
  9 29  1  0
  6  1  1  0
 28 10  1  0
 29  4  1  0
 20 14  1  0
 27 23  1  0
  1 30  1  0
  2 31  1  0
  3 32  1  0
  6 33  1  0
  7 34  1  0
  7 35  1  0
  8 36  1  0
  8 37  1  0
 13 38  1  0
 14 39  1  0
 15 40  1  0
 15 41  1  0
 16 42  1  0
 16 43  1  0
 17 44  1  0
 17 45  1  0
 18 46  1  0
 18 47  1  0
 19 48  1  0
 19 49  1  0
 20 50  1  0
 20 51  1  0
 24 52  1  0
 24 53  1  0
 25 54  1  0
 25 55  1  0
 26 56  1  0
 26 57  1  0
 27 58  1  0
 27 59  1  0
 29 60  1  0
 29 61  1  0
M  END
>  <UniqueID>  (75) 
572

>  <SMILES>  (75) 
c1ccc2c(c1)CCN(c1nc(NC3CCCCCC3)nc(N3CCCC3)n1)C2

>  <Energy>  (75) 
70.9500233208185

>  <Genealogy>  (75) 
c1ccc2c(c1)CCN(c1nc(NC3CCCCCC3)nc(N3CCCC3)n1)C2 (3D coordinates assigned)
c1ccc2c(c1)CCN(c1nc(NC3CCCCCC3)nc(N3CCCC3)n1)C2 (nonaromatic ring conformer: 70.9500233208185 kcal/mol)

>  <smiles>  (75) 
c1ccc2c(c1)CCN(c1nc(NC3CCCCCC3)nc(N3CCCC3)n1)C2

>  <score_type>  (75) 
oracle

>  <origin>  (75) 
autodockgpu

>  <m_score__min__energy>  (75) 
-6.0199999999999996

>  <m_primary>  (75) 
energy

>  <meeko>  (75) 
{"free_energy": -5.71, "intermolecular_energy": -8.69, "internal_energy": -0.96, "cluster_size": 2, "cluster_id": 2, "rank_in_cluster": 2}

>  <energy>  (75) 
-5.39

>  <cluster_rmsd>  (75) 
0.0

>  <rmsd>  (75) 
270.34

>  <cluster>  (75) 
4

$$$$
HZXVWJKCCMCLGL-LQFNOIFHNA-N
     RDKit          3D

 61 65  0  0  0  0  0  0  0  0999 V2000
  139.5950   67.7800  226.9550 C   0  0  0  0  0  0  0  0  0  0  0  0
  140.3940   68.7650  227.5390 C   0  0  0  0  0  0  0  0  0  0  0  0
  140.7750   69.8880  226.7990 C   0  0  0  0  0  0  0  0  0  0  0  0
  140.3450   70.0420  225.4700 C   0  0  0  0  0  0  0  0  0  0  0  0
  139.5350   69.0490  224.8860 C   0  0  0  0  0  0  0  0  0  0  0  0
  139.1720   67.9160  225.6310 C   0  0  0  0  0  0  0  0  0  0  0  0
  139.1110   69.1810  223.4540 C   0  0  0  0  0  0  0  0  0  0  0  0
  138.8620   70.6480  223.1140 C   0  0  0  0  0  0  0  0  0  0  0  0
  140.0470   71.4620  223.4340 N   0  0  0  0  0  0  0  0  0  0  0  0
  140.3760   72.6090  222.6200 C   0  0  0  0  0  0  0  0  0  0  0  0
  139.6070   73.7300  222.6620 N   0  0  0  0  0  0  0  0  0  0  0  0
  139.9190   74.8090  221.8980 C   0  0  0  0  0  0  0  0  0  0  0  0
  139.0950   75.9810  221.9540 N   0  0  0  0  0  0  0  0  0  0  0  0
  139.6050   77.3200  221.6300 C   0  0  0  0  0  0  0  0  0  0  0  0
  141.0010   77.5080  222.2680 C   0  0  0  0  0  0  0  0  0  0  0  0
  141.8220   78.7220  221.7740 C   0  0  0  0  0  0  0  0  0  0  0  0
  141.0160   80.0190  221.5720 C   0  0  0  0  0  0  0  0  0  0  0  0
  140.0680   80.4150  222.7360 C   0  0  0  0  0  0  0  0  0  0  0  0
  139.0560   79.3390  223.1980 C   0  0  0  0  0  0  0  0  0  0  0  0
  138.5780   78.3770  222.0940 C   0  0  0  0  0  0  0  0  0  0  0  0
  141.0090   74.7670  221.0910 N   0  0  0  0  0  0  0  0  0  0  0  0
  141.7850   73.6550  221.0400 C   0  0  0  0  0  0  0  0  0  0  0  0
  142.9330   73.6150  220.1810 N   0  0  0  0  0  0  0  0  0  0  0  0
  144.1850   72.9780  220.5510 C   0  0  0  0  0  0  0  0  0  0  0  0
  145.1600   73.3180  219.4310 C   0  0  0  0  0  0  0  0  0  0  0  0
  144.3050   73.7990  218.2600 C   0  0  0  0  0  0  0  0  0  0  0  0
  142.9670   74.2120  218.8590 C   0  0  0  0  0  0  0  0  0  0  0  0
  141.4650   72.5800  221.8060 N   0  0  0  0  0  0  0  0  0  0  0  0
  140.8110   71.2400  224.6760 C   0  0  0  0  0  0  0  0  0  0  0  0
  139.2984   66.8959  227.5384 H   0  0  0  0  0  0  0  0  0  0  0  0
  140.7240   68.6571  228.5828 H   0  0  0  0  0  0  0  0  0  0  0  0
  141.4148   70.6553  227.2594 H   0  0  0  0  0  0  0  0  0  0  0  0
  138.5522   67.1326  225.1704 H   0  0  0  0  0  0  0  0  0  0  0  0
  139.9038   68.7859  222.8019 H   0  0  0  0  0  0  0  0  0  0  0  0
  138.1818   68.6129  223.2997 H   0  0  0  0  0  0  0  0  0  0  0  0
  138.6408   70.7378  222.0402 H   0  0  0  0  0  0  0  0  0  0  0  0
  138.0110   71.0108  223.7092 H   0  0  0  0  0  0  0  0  0  0  0  0
  138.0970   75.8640  222.2400 H   0  0  0  0  0  0  0  0  0  0  0  0
  139.7319   77.4431  220.5443 H   0  0  0  0  0  0  0  0  0  0  0  0
  140.8614   77.6171  223.3536 H   0  0  0  0  0  0  0  0  0  0  0  0
  141.5809   76.6215  221.9716 H   0  0  0  0  0  0  0  0  0  0  0  0
  142.6110   78.9231  222.5136 H   0  0  0  0  0  0  0  0  0  0  0  0
  142.2100   78.4456  220.7825 H   0  0  0  0  0  0  0  0  0  0  0  0
  141.7316   80.8414  221.4252 H   0  0  0  0  0  0  0  0  0  0  0  0
  140.3636   79.8329  220.7062 H   0  0  0  0  0  0  0  0  0  0  0  0
  140.6934   80.6792  223.6014 H   0  0  0  0  0  0  0  0  0  0  0  0
  139.4564   81.2417  222.3454 H   0  0  0  0  0  0  0  0  0  0  0  0
  139.5316   78.7408  223.9892 H   0  0  0  0  0  0  0  0  0  0  0  0
  138.1630   79.8835  223.5386 H   0  0  0  0  0  0  0  0  0  0  0  0
  137.6927   77.8441  222.4712 H   0  0  0  0  0  0  0  0  0  0  0  0
  138.3809   79.0073  221.2143 H   0  0  0  0  0  0  0  0  0  0  0  0
  144.5488   73.3734  221.5108 H   0  0  0  0  0  0  0  0  0  0  0  0
  144.0691   71.8913  220.6759 H   0  0  0  0  0  0  0  0  0  0  0  0
  145.8495   74.1125  219.7525 H   0  0  0  0  0  0  0  0  0  0  0  0
  145.7725   72.4479  219.1520 H   0  0  0  0  0  0  0  0  0  0  0  0
  144.7831   74.6569  217.7647 H   0  0  0  0  0  0  0  0  0  0  0  0
  144.1812   73.0120  217.5015 H   0  0  0  0  0  0  0  0  0  0  0  0
  142.8995   75.3076  218.9301 H   0  0  0  0  0  0  0  0  0  0  0  0
  142.1220   73.8783  218.2388 H   0  0  0  0  0  0  0  0  0  0  0  0
  141.8683   71.0913  224.4114 H   0  0  0  0  0  0  0  0  0  0  0  0
  140.6575   72.1255  225.3103 H   0  0  0  0  0  0  0  0  0  0  0  0
  1  2  2  0
  2  3  1  0
  3  4  2  0
  4  5  1  0
  5  6  2  0
  5  7  1  0
  7  8  1  0
  8  9  1  0
  9 10  1  0
 10 11  2  0
 11 12  1  0
 12 13  1  0
 13 14  1  0
 14 15  1  0
 15 16  1  0
 16 17  1  0
 17 18  1  0
 18 19  1  0
 19 20  1  0
 12 21  2  0
 21 22  1  0
 22 23  1  0
 23 24  1  0
 24 25  1  0
 25 26  1  0
 26 27  1  0
 22 28  2  0
  9 29  1  0
  6  1  1  0
 28 10  1  0
 29  4  1  0
 20 14  1  0
 27 23  1  0
  1 30  1  0
  2 31  1  0
  3 32  1  0
  6 33  1  0
  7 34  1  0
  7 35  1  0
  8 36  1  0
  8 37  1  0
 13 38  1  0
 14 39  1  0
 15 40  1  0
 15 41  1  0
 16 42  1  0
 16 43  1  0
 17 44  1  0
 17 45  1  0
 18 46  1  0
 18 47  1  0
 19 48  1  0
 19 49  1  0
 20 50  1  0
 20 51  1  0
 24 52  1  0
 24 53  1  0
 25 54  1  0
 25 55  1  0
 26 56  1  0
 26 57  1  0
 27 58  1  0
 27 59  1  0
 29 60  1  0
 29 61  1  0
M  END
>  <UniqueID>  (76) 
572

>  <SMILES>  (76) 
c1ccc2c(c1)CCN(c1nc(NC3CCCCCC3)nc(N3CCCC3)n1)C2

>  <Energy>  (76) 
70.9500233208185

>  <Genealogy>  (76) 
c1ccc2c(c1)CCN(c1nc(NC3CCCCCC3)nc(N3CCCC3)n1)C2 (3D coordinates assigned)
c1ccc2c(c1)CCN(c1nc(NC3CCCCCC3)nc(N3CCCC3)n1)C2 (nonaromatic ring conformer: 70.9500233208185 kcal/mol)

>  <smiles>  (76) 
c1ccc2c(c1)CCN(c1nc(NC3CCCCCC3)nc(N3CCCC3)n1)C2

>  <score_type>  (76) 
oracle

>  <origin>  (76) 
autodockgpu

>  <m_score__min__energy>  (76) 
-6.0199999999999996

>  <m_primary>  (76) 
energy

>  <meeko>  (76) 
{"free_energy": -4.86, "intermolecular_energy": -7.84, "internal_energy": -0.93, "cluster_size": 7, "cluster_id": 1, "rank_in_cluster": 6}

>  <energy>  (76) 
-5.29

>  <cluster_rmsd>  (76) 
0.0

>  <rmsd>  (76) 
270.07

>  <cluster>  (76) 
5

$$$$
HZXVWJKCCMCLGL-LQFNOIFHNA-N
     RDKit          3D

 61 65  0  0  0  0  0  0  0  0999 V2000
  139.7110   67.9170  227.1980 C   0  0  0  0  0  0  0  0  0  0  0  0
  140.5330   68.9100  227.7340 C   0  0  0  0  0  0  0  0  0  0  0  0
  140.9160   70.0020  226.9490 C   0  0  0  0  0  0  0  0  0  0  0  0
  140.4650   70.1170  225.6230 C   0  0  0  0  0  0  0  0  0  0  0  0
  139.6310   69.1160  225.0880 C   0  0  0  0  0  0  0  0  0  0  0  0
  139.2660   68.0140  225.8770 C   0  0  0  0  0  0  0  0  0  0  0  0
  139.1840   69.2050  223.6600 C   0  0  0  0  0  0  0  0  0  0  0  0
  138.9490   70.6630  223.2740 C   0  0  0  0  0  0  0  0  0  0  0  0
  140.1500   71.4700  223.5450 N   0  0  0  0  0  0  0  0  0  0  0  0
  140.4810   72.5840  222.6870 C   0  0  0  0  0  0  0  0  0  0  0  0
  139.7150   73.7090  222.6880 N   0  0  0  0  0  0  0  0  0  0  0  0
  140.0270   74.7560  221.8830 C   0  0  0  0  0  0  0  0  0  0  0  0
  139.2070   75.9330  221.8950 N   0  0  0  0  0  0  0  0  0  0  0  0
  139.6500   77.1970  222.4970 C   0  0  0  0  0  0  0  0  0  0  0  0
  138.5090   78.2370  222.4080 C   0  0  0  0  0  0  0  0  0  0  0  0
  138.8550   79.6740  222.8630 C   0  0  0  0  0  0  0  0  0  0  0  0
  139.9320   80.3860  222.0230 C   0  0  0  0  0  0  0  0  0  0  0  0
  141.4020   80.1300  222.4520 C   0  0  0  0  0  0  0  0  0  0  0  0
  141.8180   78.6550  222.5960 C   0  0  0  0  0  0  0  0  0  0  0  0
  140.9490   77.6590  221.8020 C   0  0  0  0  0  0  0  0  0  0  0  0
  141.1150   74.6800  221.0740 N   0  0  0  0  0  0  0  0  0  0  0  0
  141.8870   73.5640  221.0640 C   0  0  0  0  0  0  0  0  0  0  0  0
  143.0330   73.4890  220.2040 N   0  0  0  0  0  0  0  0  0  0  0  0
  144.1070   72.5290  220.3880 C   0  0  0  0  0  0  0  0  0  0  0  0
  145.1740   72.9120  219.3700 C   0  0  0  0  0  0  0  0  0  0  0  0
  144.4850   73.8330  218.3640 C   0  0  0  0  0  0  0  0  0  0  0  0
  143.2420   74.3650  219.0670 C   0  0  0  0  0  0  0  0  0  0  0  0
  141.5670   72.5210  221.8720 N   0  0  0  0  0  0  0  0  0  0  0  0
  140.9330   71.2800  224.7810 C   0  0  0  0  0  0  0  0  0  0  0  0
  139.4133   67.0573  227.8163 H   0  0  0  0  0  0  0  0  0  0  0  0
  140.8798   68.8333  228.7751 H   0  0  0  0  0  0  0  0  0  0  0  0
  141.5741   70.7754  227.3718 H   0  0  0  0  0  0  0  0  0  0  0  0
  138.6277   67.2243  225.4541 H   0  0  0  0  0  0  0  0  0  0  0  0
  139.9599   68.7766  223.0085 H   0  0  0  0  0  0  0  0  0  0  0  0
  138.2446   68.6451  223.5412 H   0  0  0  0  0  0  0  0  0  0  0  0
  138.7099   70.7192  222.2018 H   0  0  0  0  0  0  0  0  0  0  0  0
  138.1138   71.0580  223.8710 H   0  0  0  0  0  0  0  0  0  0  0  0
  138.2600   75.8730  221.4580 H   0  0  0  0  0  0  0  0  0  0  0  0
  139.8806   77.0679  223.5648 H   0  0  0  0  0  0  0  0  0  0  0  0
  138.1822   78.2871  221.3589 H   0  0  0  0  0  0  0  0  0  0  0  0
  137.7365   77.8856  223.1079 H   0  0  0  0  0  0  0  0  0  0  0  0
  137.9354   80.2759  222.8183 H   0  0  0  0  0  0  0  0  0  0  0  0
  139.2704   79.5815  223.8773 H   0  0  0  0  0  0  0  0  0  0  0  0
  139.8218   80.0529  220.9804 H   0  0  0  0  0  0  0  0  0  0  0  0
  139.7613   81.4628  222.1690 H   0  0  0  0  0  0  0  0  0  0  0  0
  142.0573   80.5921  221.6989 H   0  0  0  0  0  0  0  0  0  0  0  0
  141.4958   80.5632  223.4587 H   0  0  0  0  0  0  0  0  0  0  0  0
  142.8567   78.5566  222.2477 H   0  0  0  0  0  0  0  0  0  0  0  0
  141.6911   78.3992  223.6583 H   0  0  0  0  0  0  0  0  0  0  0  0
  140.6712   78.1371  220.8511 H   0  0  0  0  0  0  0  0  0  0  0  0
  141.5633   76.7539  221.6855 H   0  0  0  0  0  0  0  0  0  0  0  0
  144.5095   72.5936  221.4097 H   0  0  0  0  0  0  0  0  0  0  0  0
  143.7592   71.4952  220.2454 H   0  0  0  0  0  0  0  0  0  0  0  0
  146.0030   73.4389  219.8651 H   0  0  0  0  0  0  0  0  0  0  0  0
  145.5989   72.0244  218.8784 H   0  0  0  0  0  0  0  0  0  0  0  0
  145.1517   74.6626  218.0858 H   0  0  0  0  0  0  0  0  0  0  0  0
  144.2272   73.2983  217.4379 H   0  0  0  0  0  0  0  0  0  0  0  0
  143.4043   75.3995  219.4038 H   0  0  0  0  0  0  0  0  0  0  0  0
  142.3695   74.3784  218.3973 H   0  0  0  0  0  0  0  0  0  0  0  0
  141.9834   71.1075  224.5037 H   0  0  0  0  0  0  0  0  0  0  0  0
  140.8028   72.1887  225.3870 H   0  0  0  0  0  0  0  0  0  0  0  0
  1  2  2  0
  2  3  1  0
  3  4  2  0
  4  5  1  0
  5  6  2  0
  5  7  1  0
  7  8  1  0
  8  9  1  0
  9 10  1  0
 10 11  2  0
 11 12  1  0
 12 13  1  0
 13 14  1  0
 14 15  1  0
 15 16  1  0
 16 17  1  0
 17 18  1  0
 18 19  1  0
 19 20  1  0
 12 21  2  0
 21 22  1  0
 22 23  1  0
 23 24  1  0
 24 25  1  0
 25 26  1  0
 26 27  1  0
 22 28  2  0
  9 29  1  0
  6  1  1  0
 28 10  1  0
 29  4  1  0
 20 14  1  0
 27 23  1  0
  1 30  1  0
  2 31  1  0
  3 32  1  0
  6 33  1  0
  7 34  1  0
  7 35  1  0
  8 36  1  0
  8 37  1  0
 13 38  1  0
 14 39  1  0
 15 40  1  0
 15 41  1  0
 16 42  1  0
 16 43  1  0
 17 44  1  0
 17 45  1  0
 18 46  1  0
 18 47  1  0
 19 48  1  0
 19 49  1  0
 20 50  1  0
 20 51  1  0
 24 52  1  0
 24 53  1  0
 25 54  1  0
 25 55  1  0
 26 56  1  0
 26 57  1  0
 27 58  1  0
 27 59  1  0
 29 60  1  0
 29 61  1  0
M  END
>  <UniqueID>  (77) 
572

>  <SMILES>  (77) 
c1ccc2c(c1)CCN(c1nc(NC3CCCCCC3)nc(N3CCCC3)n1)C2

>  <Energy>  (77) 
70.9500233208185

>  <Genealogy>  (77) 
c1ccc2c(c1)CCN(c1nc(NC3CCCCCC3)nc(N3CCCC3)n1)C2 (3D coordinates assigned)
c1ccc2c(c1)CCN(c1nc(NC3CCCCCC3)nc(N3CCCC3)n1)C2 (nonaromatic ring conformer: 70.9500233208185 kcal/mol)

>  <smiles>  (77) 
c1ccc2c(c1)CCN(c1nc(NC3CCCCCC3)nc(N3CCCC3)n1)C2

>  <score_type>  (77) 
oracle

>  <origin>  (77) 
autodockgpu

>  <m_score__min__energy>  (77) 
-6.0199999999999996

>  <m_primary>  (77) 
energy

>  <meeko>  (77) 
{"free_energy": -5.78, "intermolecular_energy": -8.77, "internal_energy": -0.9, "cluster_size": 7, "cluster_id": 1, "rank_in_cluster": 2}

>  <energy>  (77) 
-5.09

>  <cluster_rmsd>  (77) 
0.0

>  <rmsd>  (77) 
270.49

>  <cluster>  (77) 
6

$$$$
HZXVWJKCCMCLGL-LQFNOIFHNA-N
     RDKit          3D

 61 65  0  0  0  0  0  0  0  0999 V2000
  142.3170   80.7080  222.0010 C   0  0  0  0  0  0  0  0  0  0  0  0
  142.2090   80.1630  223.2820 C   0  0  0  0  0  0  0  0  0  0  0  0
  141.6730   78.8830  223.4560 C   0  0  0  0  0  0  0  0  0  0  0  0
  141.2550   78.1320  222.3450 C   0  0  0  0  0  0  0  0  0  0  0  0
  141.3700   78.6820  221.0540 C   0  0  0  0  0  0  0  0  0  0  0  0
  141.8920   79.9750  220.8900 C   0  0  0  0  0  0  0  0  0  0  0  0
  140.8820   77.9080  219.8680 C   0  0  0  0  0  0  0  0  0  0  0  0
  141.1390   76.4170  220.0730 C   0  0  0  0  0  0  0  0  0  0  0  0
  140.5410   75.9570  221.3370 N   0  0  0  0  0  0  0  0  0  0  0  0
  140.0070   74.6200  221.4390 C   0  0  0  0  0  0  0  0  0  0  0  0
  140.5760   73.7100  222.2750 N   0  0  0  0  0  0  0  0  0  0  0  0
  140.0730   72.4530  222.3720 C   0  0  0  0  0  0  0  0  0  0  0  0
  140.6870   71.5060  223.2570 N   0  0  0  0  0  0  0  0  0  0  0  0
  140.1190   71.1660  224.5670 C   0  0  0  0  0  0  0  0  0  0  0  0
  141.0610   71.6710  225.6850 C   0  0  0  0  0  0  0  0  0  0  0  0
  140.4870   71.6610  227.1210 C   0  0  0  0  0  0  0  0  0  0  0  0
  140.6450   70.3310  227.8810 C   0  0  0  0  0  0  0  0  0  0  0  0
  140.1410   69.0640  227.1390 C   0  0  0  0  0  0  0  0  0  0  0  0
  140.6570   68.8720  225.7010 C   0  0  0  0  0  0  0  0  0  0  0  0
  139.8650   69.6430  224.6280 C   0  0  0  0  0  0  0  0  0  0  0  0
  138.9900   72.1050  221.6310 N   0  0  0  0  0  0  0  0  0  0  0  0
  138.4120   73.0030  220.7940 C   0  0  0  0  0  0  0  0  0  0  0  0
  137.2710   72.6270  220.0110 N   0  0  0  0  0  0  0  0  0  0  0  0
  136.4440   73.5830  219.2950 C   0  0  0  0  0  0  0  0  0  0  0  0
  135.2710   72.7780  218.7500 C   0  0  0  0  0  0  0  0  0  0  0  0
  135.6910   71.3120  218.8340 C   0  0  0  0  0  0  0  0  0  0  0  0
  136.8190   71.2570  219.8560 C   0  0  0  0  0  0  0  0  0  0  0  0
  138.9230   74.2580  220.7020 N   0  0  0  0  0  0  0  0  0  0  0  0
  140.6340   76.7720  222.5640 C   0  0  0  0  0  0  0  0  0  0  0  0
  142.7372   81.7156  221.8663 H   0  0  0  0  0  0  0  0  0  0  0  0
  142.5458   80.7410  224.1552 H   0  0  0  0  0  0  0  0  0  0  0  0
  141.5783   78.4623  224.4679 H   0  0  0  0  0  0  0  0  0  0  0  0
  141.9666   80.4124  219.8835 H   0  0  0  0  0  0  0  0  0  0  0  0
  139.8024   78.0772  219.7422 H   0  0  0  0  0  0  0  0  0  0  0  0
  141.4208   78.2463  218.9706 H   0  0  0  0  0  0  0  0  0  0  0  0
  140.6952   75.8555  219.2377 H   0  0  0  0  0  0  0  0  0  0  0  0
  142.2250   76.2465  220.1118 H   0  0  0  0  0  0  0  0  0  0  0  0
  141.5750   71.0510  222.9460 H   0  0  0  0  0  0  0  0  0  0  0  0
  139.1500   71.6641  224.7187 H   0  0  0  0  0  0  0  0  0  0  0  0
  141.9592   71.0360  225.6787 H   0  0  0  0  0  0  0  0  0  0  0  0
  141.2513   72.7292  225.4525 H   0  0  0  0  0  0  0  0  0  0  0  0
  140.9991   72.4454  227.6976 H   0  0  0  0  0  0  0  0  0  0  0  0
  139.4045   71.8271  227.0182 H   0  0  0  0  0  0  0  0  0  0  0  0
  141.7143   70.1917  228.0984 H   0  0  0  0  0  0  0  0  0  0  0  0
  140.0140   70.4227  228.7773 H   0  0  0  0  0  0  0  0  0  0  0  0
  140.4478   68.1860  227.7264 H   0  0  0  0  0  0  0  0  0  0  0  0
  139.0518   69.1878  227.0484 H   0  0  0  0  0  0  0  0  0  0  0  0
  141.7033   69.2094  225.6639 H   0  0  0  0  0  0  0  0  0  0  0  0
  140.5401   67.8034  225.4675 H   0  0  0  0  0  0  0  0  0  0  0  0
  140.1247   69.2183  223.6471 H   0  0  0  0  0  0  0  0  0  0  0  0
  138.8053   69.5283  224.8999 H   0  0  0  0  0  0  0  0  0  0  0  0
  136.0872   74.3691  219.9766 H   0  0  0  0  0  0  0  0  0  0  0  0
  137.0029   74.0852  218.4916 H   0  0  0  0  0  0  0  0  0  0  0  0
  134.3716   72.9533  219.3585 H   0  0  0  0  0  0  0  0  0  0  0  0
  135.0280   73.0689  217.7174 H   0  0  0  0  0  0  0  0  0  0  0  0
  134.8456   70.6904  219.1639 H   0  0  0  0  0  0  0  0  0  0  0  0
  136.0148   70.9287  217.8551 H   0  0  0  0  0  0  0  0  0  0  0  0
  136.4500   70.8635  220.8146 H   0  0  0  0  0  0  0  0  0  0  0  0
  137.6333   70.5939  219.5287 H   0  0  0  0  0  0  0  0  0  0  0  0
  139.6193   76.9141  222.9641 H   0  0  0  0  0  0  0  0  0  0  0  0
  141.2884   76.2287  223.2616 H   0  0  0  0  0  0  0  0  0  0  0  0
  1  2  2  0
  2  3  1  0
  3  4  2  0
  4  5  1  0
  5  6  2  0
  5  7  1  0
  7  8  1  0
  8  9  1  0
  9 10  1  0
 10 11  2  0
 11 12  1  0
 12 13  1  0
 13 14  1  0
 14 15  1  0
 15 16  1  0
 16 17  1  0
 17 18  1  0
 18 19  1  0
 19 20  1  0
 12 21  2  0
 21 22  1  0
 22 23  1  0
 23 24  1  0
 24 25  1  0
 25 26  1  0
 26 27  1  0
 22 28  2  0
  9 29  1  0
  6  1  1  0
 28 10  1  0
 29  4  1  0
 20 14  1  0
 27 23  1  0
  1 30  1  0
  2 31  1  0
  3 32  1  0
  6 33  1  0
  7 34  1  0
  7 35  1  0
  8 36  1  0
  8 37  1  0
 13 38  1  0
 14 39  1  0
 15 40  1  0
 15 41  1  0
 16 42  1  0
 16 43  1  0
 17 44  1  0
 17 45  1  0
 18 46  1  0
 18 47  1  0
 19 48  1  0
 19 49  1  0
 20 50  1  0
 20 51  1  0
 24 52  1  0
 24 53  1  0
 25 54  1  0
 25 55  1  0
 26 56  1  0
 26 57  1  0
 27 58  1  0
 27 59  1  0
 29 60  1  0
 29 61  1  0
M  END
>  <UniqueID>  (78) 
572

>  <SMILES>  (78) 
c1ccc2c(c1)CCN(c1nc(NC3CCCCCC3)nc(N3CCCC3)n1)C2

>  <Energy>  (78) 
70.9500233208185

>  <Genealogy>  (78) 
c1ccc2c(c1)CCN(c1nc(NC3CCCCCC3)nc(N3CCCC3)n1)C2 (3D coordinates assigned)
c1ccc2c(c1)CCN(c1nc(NC3CCCCCC3)nc(N3CCCC3)n1)C2 (nonaromatic ring conformer: 70.9500233208185 kcal/mol)

>  <smiles>  (78) 
c1ccc2c(c1)CCN(c1nc(NC3CCCCCC3)nc(N3CCCC3)n1)C2

>  <score_type>  (78) 
oracle

>  <origin>  (78) 
autodockgpu

>  <m_score__min__energy>  (78) 
-6.0199999999999996

>  <m_primary>  (78) 
energy

>  <meeko>  (78) 
{"free_energy": -5.39, "intermolecular_energy": -8.37, "internal_energy": -0.83, "cluster_size": 1, "cluster_id": 4, "rank_in_cluster": 1}

>  <energy>  (78) 
-4.8

>  <cluster_rmsd>  (78) 
0.0

>  <rmsd>  (78) 
270.45

>  <cluster>  (78) 
7

$$$$
HZXVWJKCCMCLGL-LQFNOIFHNA-N
     RDKit          3D

 61 65  0  0  0  0  0  0  0  0999 V2000
  139.5520   67.6800  226.9710 C   0  0  0  0  0  0  0  0  0  0  0  0
  140.4150   68.6200  227.5380 C   0  0  0  0  0  0  0  0  0  0  0  0
  140.8520   69.7130  226.7840 C   0  0  0  0  0  0  0  0  0  0  0  0
  140.4160   69.8830  225.4600 C   0  0  0  0  0  0  0  0  0  0  0  0
  139.5420   68.9360  224.8930 C   0  0  0  0  0  0  0  0  0  0  0  0
  139.1210   67.8320  225.6500 C   0  0  0  0  0  0  0  0  0  0  0  0
  139.1090   69.0830  223.4650 C   0  0  0  0  0  0  0  0  0  0  0  0
  138.9440   70.5590  223.1160 C   0  0  0  0  0  0  0  0  0  0  0  0
  140.1780   71.3040  223.4160 N   0  0  0  0  0  0  0  0  0  0  0  0
  140.5650   72.4240  222.5900 C   0  0  0  0  0  0  0  0  0  0  0  0
  139.8790   73.5970  222.6500 N   0  0  0  0  0  0  0  0  0  0  0  0
  140.2440   74.6500  221.8750 C   0  0  0  0  0  0  0  0  0  0  0  0
  139.5090   75.8780  221.9500 N   0  0  0  0  0  0  0  0  0  0  0  0
  140.1430   77.1590  222.2840 C   0  0  0  0  0  0  0  0  0  0  0  0
  139.0640   78.2630  222.3670 C   0  0  0  0  0  0  0  0  0  0  0  0
  139.4580   79.5520  223.1270 C   0  0  0  0  0  0  0  0  0  0  0  0
  140.9720   79.8030  223.2490 C   0  0  0  0  0  0  0  0  0  0  0  0
  141.7490   79.9220  221.9100 C   0  0  0  0  0  0  0  0  0  0  0  0
  141.3570   78.9330  220.7950 C   0  0  0  0  0  0  0  0  0  0  0  0
  141.2460   77.4630  221.2460 C   0  0  0  0  0  0  0  0  0  0  0  0
  141.3050   74.5290  221.0360 N   0  0  0  0  0  0  0  0  0  0  0  0
  141.9980   73.3650  220.9660 C   0  0  0  0  0  0  0  0  0  0  0  0
  143.1150   73.2430  220.0750 N   0  0  0  0  0  0  0  0  0  0  0  0
  144.2760   72.4180  220.3590 C   0  0  0  0  0  0  0  0  0  0  0  0
  145.2680   72.7140  219.2410 C   0  0  0  0  0  0  0  0  0  0  0  0
  144.4650   73.3960  218.1350 C   0  0  0  0  0  0  0  0  0  0  0  0
  143.2050   73.9330  218.8020 C   0  0  0  0  0  0  0  0  0  0  0  0
  141.6250   72.3160  221.7450 N   0  0  0  0  0  0  0  0  0  0  0  0
  140.9430   71.0460  224.6510 C   0  0  0  0  0  0  0  0  0  0  0  0
  139.2110   66.8189  227.5645 H   0  0  0  0  0  0  0  0  0  0  0  0
  140.7511   68.5004  228.5785 H   0  0  0  0  0  0  0  0  0  0  0  0
  141.5417   70.4444  227.2306 H   0  0  0  0  0  0  0  0  0  0  0  0
  138.4499   67.0841  225.2026 H   0  0  0  0  0  0  0  0  0  0  0  0
  139.8687   68.6363  222.8067 H   0  0  0  0  0  0  0  0  0  0  0  0
  138.1455   68.5706  223.3266 H   0  0  0  0  0  0  0  0  0  0  0  0
  138.7163   70.6536  222.0440 H   0  0  0  0  0  0  0  0  0  0  0  0
  138.1231   70.9759  223.7179 H   0  0  0  0  0  0  0  0  0  0  0  0
  138.4810   75.8450  221.7600 H   0  0  0  0  0  0  0  0  0  0  0  0
  140.6280   77.1145  223.2703 H   0  0  0  0  0  0  0  0  0  0  0  0
  138.7972   78.5486  221.3388 H   0  0  0  0  0  0  0  0  0  0  0  0
  138.2383   77.8228  222.9453 H   0  0  0  0  0  0  0  0  0  0  0  0
  139.0124   80.4081  222.5993 H   0  0  0  0  0  0  0  0  0  0  0  0
  139.0851   79.4272  224.1543 H   0  0  0  0  0  0  0  0  0  0  0  0
  141.1145   80.7408  223.8060 H   0  0  0  0  0  0  0  0  0  0  0  0
  141.3815   78.9153  223.7533 H   0  0  0  0  0  0  0  0  0  0  0  0
  141.5935   80.9399  221.5232 H   0  0  0  0  0  0  0  0  0  0  0  0
  142.7932   79.6808  222.1580 H   0  0  0  0  0  0  0  0  0  0  0  0
  140.3817   79.2417  220.3908 H   0  0  0  0  0  0  0  0  0  0  0  0
  142.1657   78.9687  220.0502 H   0  0  0  0  0  0  0  0  0  0  0  0
  141.0479   76.8505  220.3540 H   0  0  0  0  0  0  0  0  0  0  0  0
  142.1982   77.2314  221.7458 H   0  0  0  0  0  0  0  0  0  0  0  0
  144.7068   72.6835  221.3357 H   0  0  0  0  0  0  0  0  0  0  0  0
  144.0171   71.3498  220.4031 H   0  0  0  0  0  0  0  0  0  0  0  0
  146.0636   73.3818  219.6029 H   0  0  0  0  0  0  0  0  0  0  0  0
  145.7528   71.7954  218.8789 H   0  0  0  0  0  0  0  0  0  0  0  0
  145.0450   74.2201  217.6940 H   0  0  0  0  0  0  0  0  0  0  0  0
  144.2235   72.6958  217.3217 H   0  0  0  0  0  0  0  0  0  0  0  0
  143.2859   75.0188  218.9584 H   0  0  0  0  0  0  0  0  0  0  0  0
  142.3120   73.7637  218.1825 H   0  0  0  0  0  0  0  0  0  0  0  0
  141.9863   70.8328  224.3752 H   0  0  0  0  0  0  0  0  0  0  0  0
  140.8504   71.9436  225.2801 H   0  0  0  0  0  0  0  0  0  0  0  0
  1  2  2  0
  2  3  1  0
  3  4  2  0
  4  5  1  0
  5  6  2  0
  5  7  1  0
  7  8  1  0
  8  9  1  0
  9 10  1  0
 10 11  2  0
 11 12  1  0
 12 13  1  0
 13 14  1  0
 14 15  1  0
 15 16  1  0
 16 17  1  0
 17 18  1  0
 18 19  1  0
 19 20  1  0
 12 21  2  0
 21 22  1  0
 22 23  1  0
 23 24  1  0
 24 25  1  0
 25 26  1  0
 26 27  1  0
 22 28  2  0
  9 29  1  0
  6  1  1  0
 28 10  1  0
 29  4  1  0
 20 14  1  0
 27 23  1  0
  1 30  1  0
  2 31  1  0
  3 32  1  0
  6 33  1  0
  7 34  1  0
  7 35  1  0
  8 36  1  0
  8 37  1  0
 13 38  1  0
 14 39  1  0
 15 40  1  0
 15 41  1  0
 16 42  1  0
 16 43  1  0
 17 44  1  0
 17 45  1  0
 18 46  1  0
 18 47  1  0
 19 48  1  0
 19 49  1  0
 20 50  1  0
 20 51  1  0
 24 52  1  0
 24 53  1  0
 25 54  1  0
 25 55  1  0
 26 56  1  0
 26 57  1  0
 27 58  1  0
 27 59  1  0
 29 60  1  0
 29 61  1  0
M  END
>  <UniqueID>  (79) 
572

>  <SMILES>  (79) 
c1ccc2c(c1)CCN(c1nc(NC3CCCCCC3)nc(N3CCCC3)n1)C2

>  <Energy>  (79) 
70.9500233208185

>  <Genealogy>  (79) 
c1ccc2c(c1)CCN(c1nc(NC3CCCCCC3)nc(N3CCCC3)n1)C2 (3D coordinates assigned)
c1ccc2c(c1)CCN(c1nc(NC3CCCCCC3)nc(N3CCCC3)n1)C2 (nonaromatic ring conformer: 70.9500233208185 kcal/mol)

>  <smiles>  (79) 
c1ccc2c(c1)CCN(c1nc(NC3CCCCCC3)nc(N3CCCC3)n1)C2

>  <score_type>  (79) 
oracle

>  <origin>  (79) 
autodockgpu

>  <m_score__min__energy>  (79) 
-6.0199999999999996

>  <m_primary>  (79) 
energy

>  <meeko>  (79) 
{"free_energy": -5.22, "intermolecular_energy": -8.2, "internal_energy": -0.86, "cluster_size": 7, "cluster_id": 1, "rank_in_cluster": 4}

>  <energy>  (79) 
-4.59

>  <cluster_rmsd>  (79) 
0.0

>  <rmsd>  (79) 
270.13

>  <cluster>  (79) 
8

$$$$
HZXVWJKCCMCLGL-LQFNOIFHNA-N
     RDKit          3D

 61 65  0  0  0  0  0  0  0  0999 V2000
  139.1820   68.3530  227.1040 C   0  0  0  0  0  0  0  0  0  0  0  0
  140.1140   69.2530  227.6250 C   0  0  0  0  0  0  0  0  0  0  0  0
  140.6910   70.2210  226.7970 C   0  0  0  0  0  0  0  0  0  0  0  0
  140.3290   70.3050  225.4420 C   0  0  0  0  0  0  0  0  0  0  0  0
  139.3850   69.3990  224.9210 C   0  0  0  0  0  0  0  0  0  0  0  0
  138.8230   68.4190  225.7550 C   0  0  0  0  0  0  0  0  0  0  0  0
  139.0280   69.4500  223.4670 C   0  0  0  0  0  0  0  0  0  0  0  0
  139.0290   70.8950  222.9770 C   0  0  0  0  0  0  0  0  0  0  0  0
  140.3200   71.5400  223.2680 N   0  0  0  0  0  0  0  0  0  0  0  0
  140.8530   72.5310  222.3630 C   0  0  0  0  0  0  0  0  0  0  0  0
  140.3190   73.7810  222.3140 N   0  0  0  0  0  0  0  0  0  0  0  0
  140.8210   74.7140  221.4650 C   0  0  0  0  0  0  0  0  0  0  0  0
  140.2440   76.0250  221.4250 N   0  0  0  0  0  0  0  0  0  0  0  0
  141.0490   77.2470  221.5480 C   0  0  0  0  0  0  0  0  0  0  0  0
  140.6990   77.9640  222.8720 C   0  0  0  0  0  0  0  0  0  0  0  0
  141.7370   78.9850  223.3940 C   0  0  0  0  0  0  0  0  0  0  0  0
  141.6310   80.3960  222.7850 C   0  0  0  0  0  0  0  0  0  0  0  0
  140.9650   80.4800  221.3850 C   0  0  0  0  0  0  0  0  0  0  0  0
  141.5070   79.5090  220.3200 C   0  0  0  0  0  0  0  0  0  0  0  0
  140.8220   78.1290  220.3010 C   0  0  0  0  0  0  0  0  0  0  0  0
  141.8690   74.3940  220.6620 N   0  0  0  0  0  0  0  0  0  0  0  0
  142.4120   73.1520  220.7010 C   0  0  0  0  0  0  0  0  0  0  0  0
  143.5150   72.8200  219.8470 N   0  0  0  0  0  0  0  0  0  0  0  0
  144.3580   73.8150  219.2090 C   0  0  0  0  0  0  0  0  0  0  0  0
  145.2780   73.0330  218.2800 C   0  0  0  0  0  0  0  0  0  0  0  0
  145.1960   71.5770  218.7330 C   0  0  0  0  0  0  0  0  0  0  0  0
  143.9020   71.4580  219.5280 C   0  0  0  0  0  0  0  0  0  0  0  0
  141.9020   72.2250  221.5530 N   0  0  0  0  0  0  0  0  0  0  0  0
  141.0040   71.3270  224.5580 C   0  0  0  0  0  0  0  0  0  0  0  0
  138.7299   67.5912  227.7562 H   0  0  0  0  0  0  0  0  0  0  0  0
  140.3944   69.2005  228.6874 H   0  0  0  0  0  0  0  0  0  0  0  0
  141.4328   70.9210  227.2090 H   0  0  0  0  0  0  0  0  0  0  0  0
  138.0977   67.7008  225.3451 H   0  0  0  0  0  0  0  0  0  0  0  0
  139.7642   68.8701  222.8911 H   0  0  0  0  0  0  0  0  0  0  0  0
  138.0237   69.0234  223.3278 H   0  0  0  0  0  0  0  0  0  0  0  0
  138.8548   70.9086  221.8910 H   0  0  0  0  0  0  0  0  0  0  0  0
  138.2319   71.4464  223.4972 H   0  0  0  0  0  0  0  0  0  0  0  0
  139.2080   76.1000  221.3070 H   0  0  0  0  0  0  0  0  0  0  0  0
  142.1225   77.0107  221.5886 H   0  0  0  0  0  0  0  0  0  0  0  0
  139.7492   78.4984  222.7227 H   0  0  0  0  0  0  0  0  0  0  0  0
  140.6595   77.1709  223.6332 H   0  0  0  0  0  0  0  0  0  0  0  0
  141.6095   79.0737  224.4830 H   0  0  0  0  0  0  0  0  0  0  0  0
  142.7229   78.5974  223.0977 H   0  0  0  0  0  0  0  0  0  0  0  0
  141.0435   81.0184  223.4760 H   0  0  0  0  0  0  0  0  0  0  0  0
  142.6666   80.7388  222.6440 H   0  0  0  0  0  0  0  0  0  0  0  0
  139.8913   80.2767  221.5104 H   0  0  0  0  0  0  0  0  0  0  0  0
  141.1914   81.4887  221.0091 H   0  0  0  0  0  0  0  0  0  0  0  0
  141.3710   79.9730  219.3320 H   0  0  0  0  0  0  0  0  0  0  0  0
  142.5627   79.3291  220.5711 H   0  0  0  0  0  0  0  0  0  0  0  0
  139.7392   78.2915  220.1955 H   0  0  0  0  0  0  0  0  0  0  0  0
  141.2771   77.5819  219.4622 H   0  0  0  0  0  0  0  0  0  0  0  0
  143.7461   74.5263  218.6349 H   0  0  0  0  0  0  0  0  0  0  0  0
  144.9253   74.4025  219.9458 H   0  0  0  0  0  0  0  0  0  0  0  0
  144.9395   73.1285  217.2378 H   0  0  0  0  0  0  0  0  0  0  0  0
  146.3102   73.4108  218.3239 H   0  0  0  0  0  0  0  0  0  0  0  0
  145.1725   70.9061  217.8616 H   0  0  0  0  0  0  0  0  0  0  0  0
  146.0692   71.2933  219.3389 H   0  0  0  0  0  0  0  0  0  0  0  0
  143.1236   70.9688  218.9240 H   0  0  0  0  0  0  0  0  0  0  0  0
  144.0349   70.8491  220.4344 H   0  0  0  0  0  0  0  0  0  0  0  0
  142.0302   70.9868  224.3549 H   0  0  0  0  0  0  0  0  0  0  0  0
  140.9784   72.2854  225.0974 H   0  0  0  0  0  0  0  0  0  0  0  0
  1  2  2  0
  2  3  1  0
  3  4  2  0
  4  5  1  0
  5  6  2  0
  5  7  1  0
  7  8  1  0
  8  9  1  0
  9 10  1  0
 10 11  2  0
 11 12  1  0
 12 13  1  0
 13 14  1  0
 14 15  1  0
 15 16  1  0
 16 17  1  0
 17 18  1  0
 18 19  1  0
 19 20  1  0
 12 21  2  0
 21 22  1  0
 22 23  1  0
 23 24  1  0
 24 25  1  0
 25 26  1  0
 26 27  1  0
 22 28  2  0
  9 29  1  0
  6  1  1  0
 28 10  1  0
 29  4  1  0
 20 14  1  0
 27 23  1  0
  1 30  1  0
  2 31  1  0
  3 32  1  0
  6 33  1  0
  7 34  1  0
  7 35  1  0
  8 36  1  0
  8 37  1  0
 13 38  1  0
 14 39  1  0
 15 40  1  0
 15 41  1  0
 16 42  1  0
 16 43  1  0
 17 44  1  0
 17 45  1  0
 18 46  1  0
 18 47  1  0
 19 48  1  0
 19 49  1  0
 20 50  1  0
 20 51  1  0
 24 52  1  0
 24 53  1  0
 25 54  1  0
 25 55  1  0
 26 56  1  0
 26 57  1  0
 27 58  1  0
 27 59  1  0
 29 60  1  0
 29 61  1  0
M  END
>  <UniqueID>  (80) 
572

>  <SMILES>  (80) 
c1ccc2c(c1)CCN(c1nc(NC3CCCCCC3)nc(N3CCCC3)n1)C2

>  <Energy>  (80) 
70.9500233208185

>  <Genealogy>  (80) 
c1ccc2c(c1)CCN(c1nc(NC3CCCCCC3)nc(N3CCCC3)n1)C2 (3D coordinates assigned)
c1ccc2c(c1)CCN(c1nc(NC3CCCCCC3)nc(N3CCCC3)n1)C2 (nonaromatic ring conformer: 70.9500233208185 kcal/mol)

>  <smiles>  (80) 
c1ccc2c(c1)CCN(c1nc(NC3CCCCCC3)nc(N3CCCC3)n1)C2

>  <score_type>  (80) 
oracle

>  <origin>  (80) 
autodockgpu

>  <m_score__min__energy>  (80) 
-6.0199999999999996

>  <m_primary>  (80) 
energy

>  <meeko>  (80) 
{"free_energy": -6.02, "intermolecular_energy": -9.0, "internal_energy": -0.83, "cluster_size": 7, "cluster_id": 1, "rank_in_cluster": 1}

>  <energy>  (80) 
-3.98

>  <cluster_rmsd>  (80) 
1.43

>  <rmsd>  (80) 
270.2

>  <cluster>  (80) 
8

$$$$
