
     RDKit          3D

 60 63  0  0  0  0  0  0  0  0999 V2000
  137.0280   70.3250  221.9320 O   0  0  0  0  0  0  0  0  0  0  0  0
  137.6660   70.9410  222.8400 C   0  0  0  0  0  0  0  0  0  0  0  0
  137.6380   72.3770  222.7230 N   0  0  0  0  0  0  0  0  0  0  0  0
  136.9010   72.9130  221.6090 C   0  0  0  0  0  0  0  0  0  0  0  0
  136.8860   74.4080  221.6360 C   0  0  0  0  0  0  0  0  0  0  0  0
  137.1780   74.9420  222.7370 O   0  0  0  0  0  0  0  0  0  0  0  0
  136.5580   75.1780  220.4690 N   0  0  0  0  0  0  0  0  0  0  0  0
  135.5700   76.2270  220.4950 C   0  0  0  0  0  0  0  0  0  0  0  0
  135.3230   76.4430  218.9940 C   0  0  2  0  0  0  0  0  0  0  0  0
  134.4190   75.4720  218.5520 O   0  0  0  0  0  0  0  0  0  0  0  0
  136.6620   76.1260  218.3620 C   0  0  0  0  0  0  0  0  0  0  0  0
  137.1620   74.9790  219.1840 C   0  0  1  0  0  0  0  0  0  0  0  0
  138.6560   74.9490  219.2350 C   0  0  0  0  0  0  0  0  0  0  0  0
  139.3720   74.6820  218.2400 O   0  0  0  0  0  0  0  0  0  0  0  0
  139.2280   75.2510  220.5220 N   0  0  0  0  0  0  0  0  0  0  0  0
  140.6420   75.2680  220.7590 C   0  0  2  0  0  0  0  0  0  0  0  0
  141.0730   74.3000  221.8270 C   0  0  0  0  0  0  0  0  0  0  0  0
  139.9170   73.7470  222.3950 O   0  0  0  0  0  0  0  0  0  0  0  0
  140.9800   76.6410  221.2670 C   0  0  0  0  0  0  0  0  0  0  0  0
  141.5160   77.6120  220.4340 C   0  0  0  0  0  0  0  0  0  0  0  0
  141.8310   78.8780  220.8940 C   0  0  0  0  0  0  0  0  0  0  0  0
  141.6050   79.1790  222.2130 C   0  0  0  0  0  0  0  0  0  0  0  0
  142.0010   80.7910  222.8180 Cl  0  0  0  0  0  0  0  0  0  0  0  0
  141.0700   78.2420  223.0910 C   0  0  0  0  0  0  0  0  0  0  0  0
  140.7730   76.9980  222.5880 C   0  0  0  0  0  0  0  0  0  0  0  0
  138.3720   70.2900  223.9130 C   0  0  0  0  0  0  0  0  0  0  0  0
  138.3210   68.8890  223.9370 C   0  0  0  0  0  0  0  0  0  0  0  0
  138.9930   68.2100  224.9590 C   0  0  0  0  0  0  0  0  0  0  0  0
  139.6760   68.9700  225.8980 C   0  0  0  0  0  0  0  0  0  0  0  0
  140.3530   68.3350  226.9250 C   0  0  0  0  0  0  0  0  0  0  0  0
  141.0310   69.1000  227.8550 C   0  0  0  0  0  0  0  0  0  0  0  0
  141.6930   68.4600  228.8600 F   0  0  0  0  0  0  0  0  0  0  0  0
  141.0500   70.4920  227.7870 C   0  0  0  0  0  0  0  0  0  0  0  0
  140.3690   71.1340  226.7540 C   0  0  0  0  0  0  0  0  0  0  0  0
  139.6970   70.3540  225.8320 C   0  0  0  0  0  0  0  0  0  0  0  0
  139.0460   70.9910  224.8430 N   0  0  0  0  0  0  0  0  0  0  0  0
  138.1410   72.9800  223.4330 H   0  0  0  0  0  0  0  0  0  0  0  0
  137.3710   72.5763  220.6732 H   0  0  0  0  0  0  0  0  0  0  0  0
  135.8632   72.5542  221.6745 H   0  0  0  0  0  0  0  0  0  0  0  0
  134.6539   75.9050  221.0119 H   0  0  0  0  0  0  0  0  0  0  0  0
  135.8867   77.1316  221.0348 H   0  0  0  0  0  0  0  0  0  0  0  0
  134.9397   77.4471  218.7599 H   0  0  0  0  0  0  0  0  0  0  0  0
  134.8390   74.8190  217.9450 H   0  0  0  0  0  0  0  0  0  0  0  0
  136.5421   75.8341  217.3082 H   0  0  0  0  0  0  0  0  0  0  0  0
  137.3501   76.9842  218.3531 H   0  0  0  0  0  0  0  0  0  0  0  0
  136.8920   73.9997  218.7620 H   0  0  0  0  0  0  0  0  0  0  0  0
  138.6080   75.4720  221.3520 H   0  0  0  0  0  0  0  0  0  0  0  0
  141.1465   74.9932  219.8209 H   0  0  0  0  0  0  0  0  0  0  0  0
  141.6899   73.5042  221.3841 H   0  0  0  0  0  0  0  0  0  0  0  0
  141.6700   74.8147  222.5942 H   0  0  0  0  0  0  0  0  0  0  0  0
  139.3620   74.5150  222.7000 H   0  0  0  0  0  0  0  0  0  0  0  0
  141.6959   77.3682  219.3766 H   0  0  0  0  0  0  0  0  0  0  0  0
  142.2556   79.6307  220.2134 H   0  0  0  0  0  0  0  0  0  0  0  0
  140.8914   78.4875  224.1483 H   0  0  0  0  0  0  0  0  0  0  0  0
  140.3487   76.2471  223.2708 H   0  0  0  0  0  0  0  0  0  0  0  0
  137.7636   68.3348  223.1675 H   0  0  0  0  0  0  0  0  0  0  0  0
  138.9804   67.1116  225.0163 H   0  0  0  0  0  0  0  0  0  0  0  0
  140.3513   67.2375  226.9997 H   0  0  0  0  0  0  0  0  0  0  0  0
  141.5967   71.0778  228.5406 H   0  0  0  0  0  0  0  0  0  0  0  0
  140.3665   72.2311  226.6748 H   0  0  0  0  0  0  0  0  0  0  0  0
  1  2  2  0
  2  3  1  0
  3  4  1  0
  4  5  1  0
  5  6  2  0
  5  7  1  0
  7  8  1  0
  8  9  1  0
  9 10  1  0
  9 11  1  0
 11 12  1  0
 12 13  1  0
 13 14  2  0
 13 15  1  0
 15 16  1  0
 16 17  1  0
 17 18  1  0
 16 19  1  0
 19 20  2  0
 20 21  1  0
 21 22  2  0
 22 23  1  0
 22 24  1  0
 24 25  2  0
  2 26  1  0
 26 27  2  0
 27 28  1  0
 28 29  2  0
 29 30  1  0
 30 31  2  0
 31 32  1  0
 31 33  1  0
 33 34  2  0
 34 35  1  0
 35 36  2  0
 12  7  1  0
 25 19  1  0
 36 26  1  0
 35 29  1  0
  3 37  1  0
  4 38  1  0
  4 39  1  0
  8 40  1  0
  8 41  1  0
  9 42  1  1
 10 43  1  0
 11 44  1  0
 11 45  1  0
 12 46  1  6
 15 47  1  0
 16 48  1  6
 17 49  1  0
 17 50  1  0
 18 51  1  0
 20 52  1  0
 21 53  1  0
 24 54  1  0
 25 55  1  0
 27 56  1  0
 28 57  1  0
 30 58  1  0
 33 59  1  0
 34 60  1  0
M  END
>  <smiles>  (1) 
O=C(NCC(=O)N1C[C@H](O)C[C@H]1C(=O)N[C@H](CO)c1ccc(Cl)cc1)c1ccc2cc(F)ccc2n1

>  <score_type>  (1) 
oracle

>  <origin>  (1) 
autodockgpu

>  <m_score__min__energy>  (1) 
-8.8599999999999994

>  <m_primary>  (1) 
energy

>  <meeko>  (1) 
{"free_energy": -6.81, "intermolecular_energy": -9.8, "internal_energy": -4.82, "cluster_size": 2, "cluster_id": 10, "rank_in_cluster": 1}

>  <energy>  (1) 
-8.86

>  <cluster_rmsd>  (1) 
0.0

>  <rmsd>  (1) 
271.26

>  <cluster>  (1) 
1

$$$$

     RDKit          3D

 60 63  0  0  0  0  0  0  0  0999 V2000
  140.9130   71.8690  221.1720 O   0  0  0  0  0  0  0  0  0  0  0  0
  140.2780   72.2300  222.2100 C   0  0  0  0  0  0  0  0  0  0  0  0
  139.6440   73.5210  222.1060 N   0  0  0  0  0  0  0  0  0  0  0  0
  139.8140   74.2170  220.8580 C   0  0  0  0  0  0  0  0  0  0  0  0
  141.0220   75.0970  220.8850 C   0  0  0  0  0  0  0  0  0  0  0  0
  141.4530   75.4040  222.0270 O   0  0  0  0  0  0  0  0  0  0  0  0
  141.6460   75.5570  219.6770 N   0  0  0  0  0  0  0  0  0  0  0  0
  141.4890   74.8680  218.4210 C   0  0  0  0  0  0  0  0  0  0  0  0
  142.6170   75.4980  217.5910 C   0  0  2  0  0  0  0  0  0  0  0  0
  143.8140   74.8470  217.9070 O   0  0  0  0  0  0  0  0  0  0  0  0
  142.7190   76.9060  218.1350 C   0  0  0  0  0  0  0  0  0  0  0  0
  142.4800   76.7210  219.6020 C   0  0  1  0  0  0  0  0  0  0  0  0
  141.8540   77.9340  220.2130 C   0  0  0  0  0  0  0  0  0  0  0  0
  141.4100   78.8930  219.5380 O   0  0  0  0  0  0  0  0  0  0  0  0
  141.7950   77.9270  221.6530 N   0  0  0  0  0  0  0  0  0  0  0  0
  141.2300   79.0050  222.4120 C   0  0  2  0  0  0  0  0  0  0  0  0
  141.7920   79.1040  223.8040 C   0  0  0  0  0  0  0  0  0  0  0  0
  142.1240   77.8100  224.2240 O   0  0  0  0  0  0  0  0  0  0  0  0
  139.7660   78.7080  222.5640 C   0  0  0  0  0  0  0  0  0  0  0  0
  138.8540   79.7010  222.8930 C   0  0  0  0  0  0  0  0  0  0  0  0
  137.5030   79.4360  223.0360 C   0  0  0  0  0  0  0  0  0  0  0  0
  137.0570   78.1540  222.8460 C   0  0  0  0  0  0  0  0  0  0  0  0
  135.3350   77.7970  223.0240 Cl  0  0  0  0  0  0  0  0  0  0  0  0
  137.9280   77.1210  222.5140 C   0  0  0  0  0  0  0  0  0  0  0  0
  139.2600   77.4330  222.3830 C   0  0  0  0  0  0  0  0  0  0  0  0
  140.1790   71.4410  223.4100 C   0  0  0  0  0  0  0  0  0  0  0  0
  139.5520   70.1930  223.2900 C   0  0  0  0  0  0  0  0  0  0  0  0
  139.4340   69.3880  224.4270 C   0  0  0  0  0  0  0  0  0  0  0  0
  139.9470   69.8780  225.6200 C   0  0  0  0  0  0  0  0  0  0  0  0
  139.8490   69.1100  226.7680 C   0  0  0  0  0  0  0  0  0  0  0  0
  140.3650   69.6060  227.9520 C   0  0  0  0  0  0  0  0  0  0  0  0
  140.2600   68.8390  229.0730 F   0  0  0  0  0  0  0  0  0  0  0  0
  140.9780   70.8550  228.0180 C   0  0  0  0  0  0  0  0  0  0  0  0
  141.0780   71.6290  226.8640 C   0  0  0  0  0  0  0  0  0  0  0  0
  140.5590   71.1190  225.6890 C   0  0  0  0  0  0  0  0  0  0  0  0
  140.6650   71.8800  224.5860 N   0  0  0  0  0  0  0  0  0  0  0  0
  139.0910   73.9110  222.9200 H   0  0  0  0  0  0  0  0  0  0  0  0
  139.9261   73.4798  220.0494 H   0  0  0  0  0  0  0  0  0  0  0  0
  138.9291   74.8485  220.6902 H   0  0  0  0  0  0  0  0  0  0  0  0
  141.6309   73.7833  218.5360 H   0  0  0  0  0  0  0  0  0  0  0  0
  140.4893   74.9685  217.9732 H   0  0  0  0  0  0  0  0  0  0  0  0
  142.4355   75.4451  216.5074 H   0  0  0  0  0  0  0  0  0  0  0  0
  144.5900   75.4530  217.8720 H   0  0  0  0  0  0  0  0  0  0  0  0
  143.7164   77.3305  217.9478 H   0  0  0  0  0  0  0  0  0  0  0  0
  142.0096   77.6035  217.6657 H   0  0  0  0  0  0  0  0  0  0  0  0
  143.4090   76.5852  220.1751 H   0  0  0  0  0  0  0  0  0  0  0  0
  142.1760   77.1100  222.2070 H   0  0  0  0  0  0  0  0  0  0  0  0
  141.4506   79.9441  221.8834 H   0  0  0  0  0  0  0  0  0  0  0  0
  142.6906   79.7385  223.8006 H   0  0  0  0  0  0  0  0  0  0  0  0
  141.0540   79.5520  224.4857 H   0  0  0  0  0  0  0  0  0  0  0  0
  141.8430   77.1980  223.4900 H   0  0  0  0  0  0  0  0  0  0  0  0
  139.2154   80.7288  223.0446 H   0  0  0  0  0  0  0  0  0  0  0  0
  136.7996   80.2402  223.2976 H   0  0  0  0  0  0  0  0  0  0  0  0
  137.5644   76.0940  222.3622 H   0  0  0  0  0  0  0  0  0  0  0  0
  139.9607   76.6267  222.1204 H   0  0  0  0  0  0  0  0  0  0  0  0
  139.1603   69.8535  222.3198 H   0  0  0  0  0  0  0  0  0  0  0  0
  138.9514   68.4007  224.3778 H   0  0  0  0  0  0  0  0  0  0  0  0
  139.3684   68.1210  226.7391 H   0  0  0  0  0  0  0  0  0  0  0  0
  141.3793   71.2267  228.9723 H   0  0  0  0  0  0  0  0  0  0  0  0
  141.5569   72.6190  226.8874 H   0  0  0  0  0  0  0  0  0  0  0  0
  1  2  2  0
  2  3  1  0
  3  4  1  0
  4  5  1  0
  5  6  2  0
  5  7  1  0
  7  8  1  0
  8  9  1  0
  9 10  1  0
  9 11  1  0
 11 12  1  0
 12 13  1  0
 13 14  2  0
 13 15  1  0
 15 16  1  0
 16 17  1  0
 17 18  1  0
 16 19  1  0
 19 20  2  0
 20 21  1  0
 21 22  2  0
 22 23  1  0
 22 24  1  0
 24 25  2  0
  2 26  1  0
 26 27  2  0
 27 28  1  0
 28 29  2  0
 29 30  1  0
 30 31  2  0
 31 32  1  0
 31 33  1  0
 33 34  2  0
 34 35  1  0
 35 36  2  0
 12  7  1  0
 25 19  1  0
 36 26  1  0
 35 29  1  0
  3 37  1  0
  4 38  1  0
  4 39  1  0
  8 40  1  0
  8 41  1  0
  9 42  1  6
 10 43  1  0
 11 44  1  0
 11 45  1  0
 12 46  1  1
 15 47  1  0
 16 48  1  6
 17 49  1  0
 17 50  1  0
 18 51  1  0
 20 52  1  0
 21 53  1  0
 24 54  1  0
 25 55  1  0
 27 56  1  0
 28 57  1  0
 30 58  1  0
 33 59  1  0
 34 60  1  0
M  END
>  <smiles>  (2) 
O=C(NCC(=O)N1C[C@H](O)C[C@H]1C(=O)N[C@H](CO)c1ccc(Cl)cc1)c1ccc2cc(F)ccc2n1

>  <score_type>  (2) 
oracle

>  <origin>  (2) 
autodockgpu

>  <m_score__min__energy>  (2) 
-8.8599999999999994

>  <m_primary>  (2) 
energy

>  <meeko>  (2) 
{"free_energy": -8.86, "intermolecular_energy": -11.84, "internal_energy": -3.9, "cluster_size": 4, "cluster_id": 1, "rank_in_cluster": 1}

>  <energy>  (2) 
-8.84

>  <cluster_rmsd>  (2) 
0.1

>  <rmsd>  (2) 
271.23

>  <cluster>  (2) 
1

$$$$

     RDKit          3D

 60 63  0  0  0  0  0  0  0  0999 V2000
  137.5550   70.3220  221.2670 O   0  0  0  0  0  0  0  0  0  0  0  0
  137.8700   71.1190  222.2030 C   0  0  0  0  0  0  0  0  0  0  0  0
  137.5920   72.5060  221.9270 N   0  0  0  0  0  0  0  0  0  0  0  0
  137.0020   72.7970  220.6480 C   0  0  0  0  0  0  0  0  0  0  0  0
  136.4640   74.1920  220.6010 C   0  0  0  0  0  0  0  0  0  0  0  0
  136.4770   74.7480  219.4720 O   0  0  0  0  0  0  0  0  0  0  0  0
  135.9660   74.8460  221.7780 N   0  0  0  0  0  0  0  0  0  0  0  0
  134.9210   74.2760  222.5890 C   0  0  0  0  0  0  0  0  0  0  0  0
  134.5040   75.4870  223.4360 C   0  0  2  0  0  0  0  0  0  0  0  0
  133.6230   76.2700  222.6830 O   0  0  0  0  0  0  0  0  0  0  0  0
  135.7860   76.2790  223.5850 C   0  0  0  0  0  0  0  0  0  0  0  0
  136.4430   76.1140  222.2490 C   0  0  1  0  0  0  0  0  0  0  0  0
  137.9330   76.1780  222.3580 C   0  0  0  0  0  0  0  0  0  0  0  0
  138.5370   76.3230  223.4480 O   0  0  0  0  0  0  0  0  0  0  0  0
  138.6400   76.0630  221.1080 N   0  0  0  0  0  0  0  0  0  0  0  0
  140.0710   76.1040  221.0190 C   0  0  2  0  0  0  0  0  0  0  0  0
  140.7410   75.0070  221.8010 C   0  0  0  0  0  0  0  0  0  0  0  0
  139.7520   74.1020  222.2050 O   0  0  0  0  0  0  0  0  0  0  0  0
  140.5080   77.3990  221.6400 C   0  0  0  0  0  0  0  0  0  0  0  0
  141.0960   77.4400  222.8960 C   0  0  0  0  0  0  0  0  0  0  0  0
  141.5010   78.6290  223.4760 C   0  0  0  0  0  0  0  0  0  0  0  0
  141.3150   79.7990  222.7860 C   0  0  0  0  0  0  0  0  0  0  0  0
  141.8270   81.3270  223.5120 Cl  0  0  0  0  0  0  0  0  0  0  0  0
  140.7310   79.8150  221.5240 C   0  0  0  0  0  0  0  0  0  0  0  0
  140.3450   78.6090  220.9890 C   0  0  0  0  0  0  0  0  0  0  0  0
  138.4610   70.7060  223.4500 C   0  0  0  0  0  0  0  0  0  0  0  0
  138.0460   69.4680  223.9600 C   0  0  0  0  0  0  0  0  0  0  0  0
  138.5930   69.0220  225.1670 C   0  0  0  0  0  0  0  0  0  0  0  0
  139.5220   69.8400  225.7960 C   0  0  0  0  0  0  0  0  0  0  0  0
  140.0850   69.4330  226.9940 C   0  0  0  0  0  0  0  0  0  0  0  0
  141.0100   70.2540  227.6120 C   0  0  0  0  0  0  0  0  0  0  0  0
  141.5560   69.8390  228.7900 F   0  0  0  0  0  0  0  0  0  0  0  0
  141.3880   71.4770  227.0630 C   0  0  0  0  0  0  0  0  0  0  0  0
  140.8220   71.8890  225.8580 C   0  0  0  0  0  0  0  0  0  0  0  0
  139.9000   71.0570  225.2520 C   0  0  0  0  0  0  0  0  0  0  0  0
  139.3650   71.4700  224.0900 N   0  0  0  0  0  0  0  0  0  0  0  0
  137.8210   73.2490  222.6460 H   0  0  0  0  0  0  0  0  0  0  0  0
  137.7671   72.6817  219.8661 H   0  0  0  0  0  0  0  0  0  0  0  0
  136.1685   72.0983  220.4837 H   0  0  0  0  0  0  0  0  0  0  0  0
  134.0871   73.9095  221.9723 H   0  0  0  0  0  0  0  0  0  0  0  0
  135.2337   73.4007  223.1773 H   0  0  0  0  0  0  0  0  0  0  0  0
  134.0344   75.2041  224.3896 H   0  0  0  0  0  0  0  0  0  0  0  0
  133.6920   77.2270  222.9030 H   0  0  0  0  0  0  0  0  0  0  0  0
  135.5742   77.3382  223.7930 H   0  0  0  0  0  0  0  0  0  0  0  0
  136.4127   75.9350  224.4210 H   0  0  0  0  0  0  0  0  0  0  0  0
  136.1940   76.9222  221.5455 H   0  0  0  0  0  0  0  0  0  0  0  0
  138.1140   75.9430  220.1970 H   0  0  0  0  0  0  0  0  0  0  0  0
  140.3488   75.9924  219.9605 H   0  0  0  0  0  0  0  0  0  0  0  0
  141.4806   74.4947  221.1681 H   0  0  0  0  0  0  0  0  0  0  0  0
  141.2613   75.4227  222.6765 H   0  0  0  0  0  0  0  0  0  0  0  0
  139.4430   74.4080  223.1010 H   0  0  0  0  0  0  0  0  0  0  0  0
  141.2445   76.4995  223.4468 H   0  0  0  0  0  0  0  0  0  0  0  0
  141.9643   78.6355  224.4736 H   0  0  0  0  0  0  0  0  0  0  0  0
  140.5836   80.7567  220.9749 H   0  0  0  0  0  0  0  0  0  0  0  0
  139.8823   78.6057  219.9911 H   0  0  0  0  0  0  0  0  0  0  0  0
  137.3047   68.8595  223.4213 H   0  0  0  0  0  0  0  0  0  0  0  0
  138.2975   68.0564  225.6032 H   0  0  0  0  0  0  0  0  0  0  0  0
  139.8008   68.4716  227.4468 H   0  0  0  0  0  0  0  0  0  0  0  0
  142.1261   72.1115  227.5756 H   0  0  0  0  0  0  0  0  0  0  0  0
  141.1015   72.8501  225.4018 H   0  0  0  0  0  0  0  0  0  0  0  0
  1  2  2  0
  2  3  1  0
  3  4  1  0
  4  5  1  0
  5  6  2  0
  5  7  1  0
  7  8  1  0
  8  9  1  0
  9 10  1  0
  9 11  1  0
 11 12  1  0
 12 13  1  0
 13 14  2  0
 13 15  1  0
 15 16  1  0
 16 17  1  0
 17 18  1  0
 16 19  1  0
 19 20  2  0
 20 21  1  0
 21 22  2  0
 22 23  1  0
 22 24  1  0
 24 25  2  0
  2 26  1  0
 26 27  2  0
 27 28  1  0
 28 29  2  0
 29 30  1  0
 30 31  2  0
 31 32  1  0
 31 33  1  0
 33 34  2  0
 34 35  1  0
 35 36  2  0
 12  7  1  0
 25 19  1  0
 36 26  1  0
 35 29  1  0
  3 37  1  0
  4 38  1  0
  4 39  1  0
  8 40  1  0
  8 41  1  0
  9 42  1  1
 10 43  1  0
 11 44  1  0
 11 45  1  0
 12 46  1  6
 15 47  1  0
 16 48  1  6
 17 49  1  0
 17 50  1  0
 18 51  1  0
 20 52  1  0
 21 53  1  0
 24 54  1  0
 25 55  1  0
 27 56  1  0
 28 57  1  0
 30 58  1  0
 33 59  1  0
 34 60  1  0
M  END
>  <smiles>  (3) 
O=C(NCC(=O)N1C[C@H](O)C[C@H]1C(=O)N[C@H](CO)c1ccc(Cl)cc1)c1ccc2cc(F)ccc2n1

>  <score_type>  (3) 
oracle

>  <origin>  (3) 
autodockgpu

>  <m_score__min__energy>  (3) 
-8.8599999999999994

>  <m_primary>  (3) 
energy

>  <meeko>  (3) 
{"free_energy": -7.11, "intermolecular_energy": -10.09, "internal_energy": -4.36, "cluster_size": 3, "cluster_id": 3, "rank_in_cluster": 2}

>  <energy>  (3) 
-8.79

>  <cluster_rmsd>  (3) 
0.14

>  <rmsd>  (3) 
271.27

>  <cluster>  (3) 
1

$$$$

     RDKit          3D

 60 63  0  0  0  0  0  0  0  0999 V2000
  139.0650   70.2590  221.4030 O   0  0  0  0  0  0  0  0  0  0  0  0
  139.1710   71.1030  222.3450 C   0  0  0  0  0  0  0  0  0  0  0  0
  138.7610   72.4410  222.0010 N   0  0  0  0  0  0  0  0  0  0  0  0
  138.2930   72.6380  220.6540 C   0  0  0  0  0  0  0  0  0  0  0  0
  137.0850   73.5190  220.6230 C   0  0  0  0  0  0  0  0  0  0  0  0
  136.8880   74.1430  219.5480 O   0  0  0  0  0  0  0  0  0  0  0  0
  136.2090   73.6380  221.7540 N   0  0  0  0  0  0  0  0  0  0  0  0
  135.6090   72.4900  222.3840 C   0  0  0  0  0  0  0  0  0  0  0  0
  134.5120   73.1520  223.2310 C   0  0  2  0  0  0  0  0  0  0  0  0
  133.4080   73.3980  222.4090 O   0  0  0  0  0  0  0  0  0  0  0  0
  135.1040   74.4970  223.5950 C   0  0  0  0  0  0  0  0  0  0  0  0
  135.8450   74.8890  222.3550 C   0  0  1  0  0  0  0  0  0  0  0  0
  137.0220   75.7560  222.6680 C   0  0  0  0  0  0  0  0  0  0  0  0
  137.3800   76.0320  223.8380 O   0  0  0  0  0  0  0  0  0  0  0  0
  137.7290   76.2620  221.5190 N   0  0  0  0  0  0  0  0  0  0  0  0
  138.8810   77.1090  221.6270 C   0  0  2  0  0  0  0  0  0  0  0  0
  140.0460   76.4360  222.2990 C   0  0  0  0  0  0  0  0  0  0  0  0
  139.7700   75.0640  222.3640 O   0  0  0  0  0  0  0  0  0  0  0  0
  138.4900   78.2630  222.5060 C   0  0  0  0  0  0  0  0  0  0  0  0
  137.2090   78.7920  222.4830 C   0  0  0  0  0  0  0  0  0  0  0  0
  136.8410   79.8560  223.2890 C   0  0  0  0  0  0  0  0  0  0  0  0
  137.7730   80.3980  224.1350 C   0  0  0  0  0  0  0  0  0  0  0  0
  137.3220   81.7550  225.1720 Cl  0  0  0  0  0  0  0  0  0  0  0  0
  139.0730   79.9040  224.1990 C   0  0  0  0  0  0  0  0  0  0  0  0
  139.3900   78.8480  223.3790 C   0  0  0  0  0  0  0  0  0  0  0  0
  139.6590   70.7840  223.6630 C   0  0  0  0  0  0  0  0  0  0  0  0
  140.3400   71.8040  224.3420 C   0  0  0  0  0  0  0  0  0  0  0  0
  140.8310   71.5450  225.6260 C   0  0  0  0  0  0  0  0  0  0  0  0
  140.6140   70.2800  226.1560 C   0  0  0  0  0  0  0  0  0  0  0  0
  141.0850   69.9840  227.4230 C   0  0  0  0  0  0  0  0  0  0  0  0
  140.8630   68.7230  227.9430 C   0  0  0  0  0  0  0  0  0  0  0  0
  141.3330   68.4470  229.1920 F   0  0  0  0  0  0  0  0  0  0  0  0
  140.1800   67.7430  227.2260 C   0  0  0  0  0  0  0  0  0  0  0  0
  139.7050   68.0380  225.9500 C   0  0  0  0  0  0  0  0  0  0  0  0
  139.9340   69.3040  225.4440 C   0  0  0  0  0  0  0  0  0  0  0  0
  139.4680   69.5710  224.2120 N   0  0  0  0  0  0  0  0  0  0  0  0
  138.8130   73.2170  222.7190 H   0  0  0  0  0  0  0  0  0  0  0  0
  139.0930   73.1056  220.0613 H   0  0  0  0  0  0  0  0  0  0  0  0
  138.0199   71.6587  220.2341 H   0  0  0  0  0  0  0  0  0  0  0  0
  135.1829   71.7996  221.6412 H   0  0  0  0  0  0  0  0  0  0  0  0
  136.3133   71.8727  222.9610 H   0  0  0  0  0  0  0  0  0  0  0  0
  134.2085   72.5430  224.0953 H   0  0  0  0  0  0  0  0  0  0  0  0
  133.6020   73.2190  221.4600 H   0  0  0  0  0  0  0  0  0  0  0  0
  134.3140   75.2256  223.8298 H   0  0  0  0  0  0  0  0  0  0  0  0
  135.7452   74.4596  224.4880 H   0  0  0  0  0  0  0  0  0  0  0  0
  135.2408   75.5020  221.6700 H   0  0  0  0  0  0  0  0  0  0  0  0
  137.4120   76.0190  220.5380 H   0  0  0  0  0  0  0  0  0  0  0  0
  139.1881   77.3960  220.6105 H   0  0  0  0  0  0  0  0  0  0  0  0
  140.9632   76.6058  221.7160 H   0  0  0  0  0  0  0  0  0  0  0  0
  140.1956   76.8457  223.3088 H   0  0  0  0  0  0  0  0  0  0  0  0
  139.1200   74.9470  223.1090 H   0  0  0  0  0  0  0  0  0  0  0  0
  136.4626   78.3535  221.8043 H   0  0  0  0  0  0  0  0  0  0  0  0
  135.8183   80.2593  223.2509 H   0  0  0  0  0  0  0  0  0  0  0  0
  139.8177   80.3422  224.8798 H   0  0  0  0  0  0  0  0  0  0  0  0
  140.4133   78.4465  223.4187 H   0  0  0  0  0  0  0  0  0  0  0  0
  140.4854   72.7889  223.8742 H   0  0  0  0  0  0  0  0  0  0  0  0
  141.3700   72.3163  226.1958 H   0  0  0  0  0  0  0  0  0  0  0  0
  141.6281   70.7412  228.0076 H   0  0  0  0  0  0  0  0  0  0  0  0
  140.0175   66.7466  227.6629 H   0  0  0  0  0  0  0  0  0  0  0  0
  139.1624   67.2839  225.3610 H   0  0  0  0  0  0  0  0  0  0  0  0
  1  2  2  0
  2  3  1  0
  3  4  1  0
  4  5  1  0
  5  6  2  0
  5  7  1  0
  7  8  1  0
  8  9  1  0
  9 10  1  0
  9 11  1  0
 11 12  1  0
 12 13  1  0
 13 14  2  0
 13 15  1  0
 15 16  1  0
 16 17  1  0
 17 18  1  0
 16 19  1  0
 19 20  2  0
 20 21  1  0
 21 22  2  0
 22 23  1  0
 22 24  1  0
 24 25  2  0
  2 26  1  0
 26 27  2  0
 27 28  1  0
 28 29  2  0
 29 30  1  0
 30 31  2  0
 31 32  1  0
 31 33  1  0
 33 34  2  0
 34 35  1  0
 35 36  2  0
 12  7  1  0
 25 19  1  0
 36 26  1  0
 35 29  1  0
  3 37  1  0
  4 38  1  0
  4 39  1  0
  8 40  1  0
  8 41  1  0
  9 42  1  1
 10 43  1  0
 11 44  1  0
 11 45  1  0
 12 46  1  6
 15 47  1  0
 16 48  1  6
 17 49  1  0
 17 50  1  0
 18 51  1  0
 20 52  1  0
 21 53  1  0
 24 54  1  0
 25 55  1  0
 27 56  1  0
 28 57  1  0
 30 58  1  0
 33 59  1  0
 34 60  1  0
M  END
>  <smiles>  (4) 
O=C(NCC(=O)N1C[C@H](O)C[C@H]1C(=O)N[C@H](CO)c1ccc(Cl)cc1)c1ccc2cc(F)ccc2n1

>  <score_type>  (4) 
oracle

>  <origin>  (4) 
autodockgpu

>  <m_score__min__energy>  (4) 
-8.8599999999999994

>  <m_primary>  (4) 
energy

>  <meeko>  (4) 
{"free_energy": -6.99, "intermolecular_energy": -9.98, "internal_energy": -4.18, "cluster_size": 1, "cluster_id": 8, "rank_in_cluster": 1}

>  <energy>  (4) 
-8.57

>  <cluster_rmsd>  (4) 
0.25

>  <rmsd>  (4) 
271.26

>  <cluster>  (4) 
1

$$$$

     RDKit          3D

 60 63  0  0  0  0  0  0  0  0999 V2000
  140.7170   73.4790  222.3400 O   0  0  0  0  0  0  0  0  0  0  0  0
  140.6690   72.2120  222.3940 C   0  0  0  0  0  0  0  0  0  0  0  0
  140.9480   71.5480  221.1460 N   0  0  0  0  0  0  0  0  0  0  0  0
  141.2390   72.3980  220.0220 C   0  0  0  0  0  0  0  0  0  0  0  0
  142.5950   72.1100  219.4600 C   0  0  0  0  0  0  0  0  0  0  0  0
  142.6680   71.1300  218.6730 O   0  0  0  0  0  0  0  0  0  0  0  0
  143.7370   72.9110  219.8010 N   0  0  0  0  0  0  0  0  0  0  0  0
  145.0700   72.5670  219.3750 C   0  0  0  0  0  0  0  0  0  0  0  0
  145.9170   73.4640  220.2910 C   0  0  2  0  0  0  0  0  0  0  0  0
  146.0470   72.8300  221.5310 O   0  0  0  0  0  0  0  0  0  0  0  0
  145.0460   74.6830  220.5040 C   0  0  0  0  0  0  0  0  0  0  0  0
  143.6680   74.1040  220.5930 C   0  0  1  0  0  0  0  0  0  0  0  0
  142.6340   75.0710  220.1120 C   0  0  0  0  0  0  0  0  0  0  0  0
  142.4950   75.3840  218.9050 O   0  0  0  0  0  0  0  0  0  0  0  0
  141.7950   75.6280  221.1420 N   0  0  0  0  0  0  0  0  0  0  0  0
  140.7510   76.5720  220.8670 C   0  0  2  0  0  0  0  0  0  0  0  0
  140.8490   77.8190  221.7030 C   0  0  0  0  0  0  0  0  0  0  0  0
  141.4460   77.4730  222.9210 O   0  0  0  0  0  0  0  0  0  0  0  0
  139.4560   75.9090  221.2430 C   0  0  0  0  0  0  0  0  0  0  0  0
  138.7240   76.3200  222.3480 C   0  0  0  0  0  0  0  0  0  0  0  0
  137.5310   75.7140  222.7020 C   0  0  0  0  0  0  0  0  0  0  0  0
  137.0620   74.6780  221.9360 C   0  0  0  0  0  0  0  0  0  0  0  0
  135.5400   73.8930  222.3720 Cl  0  0  0  0  0  0  0  0  0  0  0  0
  137.7570   74.2270  220.8180 C   0  0  0  0  0  0  0  0  0  0  0  0
  138.9360   74.8600  220.5060 C   0  0  0  0  0  0  0  0  0  0  0  0
  140.3630   71.4660  223.5880 C   0  0  0  0  0  0  0  0  0  0  0  0
  139.5550   70.3320  223.4280 C   0  0  0  0  0  0  0  0  0  0  0  0
  139.2310   69.5720  224.5570 C   0  0  0  0  0  0  0  0  0  0  0  0
  139.7330   69.9910  225.7810 C   0  0  0  0  0  0  0  0  0  0  0  0
  139.4350   69.2660  226.9220 C   0  0  0  0  0  0  0  0  0  0  0  0
  139.9400   69.6910  228.1370 C   0  0  0  0  0  0  0  0  0  0  0  0
  139.6370   68.9660  229.2510 F   0  0  0  0  0  0  0  0  0  0  0  0
  140.7390   70.8270  228.2430 C   0  0  0  0  0  0  0  0  0  0  0  0
  141.0410   71.5590  227.0960 C   0  0  0  0  0  0  0  0  0  0  0  0
  140.5290   71.1210  225.8890 C   0  0  0  0  0  0  0  0  0  0  0  0
  140.8310   71.8390  224.7930 N   0  0  0  0  0  0  0  0  0  0  0  0
  140.9320   70.4910  221.0880 H   0  0  0  0  0  0  0  0  0  0  0  0
  140.4838   72.2294  219.2402 H   0  0  0  0  0  0  0  0  0  0  0  0
  141.2192   73.4437  220.3629 H   0  0  0  0  0  0  0  0  0  0  0  0
  145.2847   71.5014  219.5437 H   0  0  0  0  0  0  0  0  0  0  0  0
  145.2535   72.7173  218.3009 H   0  0  0  0  0  0  0  0  0  0  0  0
  146.9113   73.6866  219.8764 H   0  0  0  0  0  0  0  0  0  0  0  0
  145.6120   71.9470  221.5460 H   0  0  0  0  0  0  0  0  0  0  0  0
  145.3164   75.2039  221.4344 H   0  0  0  0  0  0  0  0  0  0  0  0
  145.1493   75.4331  219.7061 H   0  0  0  0  0  0  0  0  0  0  0  0
  143.3617   73.8813  221.6258 H   0  0  0  0  0  0  0  0  0  0  0  0
  141.9280   75.3530  222.1560 H   0  0  0  0  0  0  0  0  0  0  0  0
  140.8240   76.8593  219.8077 H   0  0  0  0  0  0  0  0  0  0  0  0
  141.4642   78.5693  221.1848 H   0  0  0  0  0  0  0  0  0  0  0  0
  139.8499   78.2465  221.8731 H   0  0  0  0  0  0  0  0  0  0  0  0
  141.9210   76.6110  222.7630 H   0  0  0  0  0  0  0  0  0  0  0  0
  139.1029   77.1515  222.9604 H   0  0  0  0  0  0  0  0  0  0  0  0
  136.9688   76.0576  223.5828 H   0  0  0  0  0  0  0  0  0  0  0  0
  137.3769   73.3950  220.2070 H   0  0  0  0  0  0  0  0  0  0  0  0
  139.4956   74.5146  219.6242 H   0  0  0  0  0  0  0  0  0  0  0  0
  139.1826   70.0450  222.4335 H   0  0  0  0  0  0  0  0  0  0  0  0
  138.6006   68.6741  224.4773 H   0  0  0  0  0  0  0  0  0  0  0  0
  138.8060   68.3655  226.8630 H   0  0  0  0  0  0  0  0  0  0  0  0
  141.1278   71.1433  229.2222 H   0  0  0  0  0  0  0  0  0  0  0  0
  141.6694   72.4603  227.1497 H   0  0  0  0  0  0  0  0  0  0  0  0
  1  2  2  0
  2  3  1  0
  3  4  1  0
  4  5  1  0
  5  6  2  0
  5  7  1  0
  7  8  1  0
  8  9  1  0
  9 10  1  0
  9 11  1  0
 11 12  1  0
 12 13  1  0
 13 14  2  0
 13 15  1  0
 15 16  1  0
 16 17  1  0
 17 18  1  0
 16 19  1  0
 19 20  2  0
 20 21  1  0
 21 22  2  0
 22 23  1  0
 22 24  1  0
 24 25  2  0
  2 26  1  0
 26 27  2  0
 27 28  1  0
 28 29  2  0
 29 30  1  0
 30 31  2  0
 31 32  1  0
 31 33  1  0
 33 34  2  0
 34 35  1  0
 35 36  2  0
 12  7  1  0
 25 19  1  0
 36 26  1  0
 35 29  1  0
  3 37  1  0
  4 38  1  0
  4 39  1  0
  8 40  1  0
  8 41  1  0
  9 42  1  6
 10 43  1  0
 11 44  1  0
 11 45  1  0
 12 46  1  1
 15 47  1  0
 16 48  1  6
 17 49  1  0
 17 50  1  0
 18 51  1  0
 20 52  1  0
 21 53  1  0
 24 54  1  0
 25 55  1  0
 27 56  1  0
 28 57  1  0
 30 58  1  0
 33 59  1  0
 34 60  1  0
M  END
>  <smiles>  (5) 
O=C(NCC(=O)N1C[C@H](O)C[C@H]1C(=O)N[C@H](CO)c1ccc(Cl)cc1)c1ccc2cc(F)ccc2n1

>  <score_type>  (5) 
oracle

>  <origin>  (5) 
autodockgpu

>  <m_score__min__energy>  (5) 
-8.8599999999999994

>  <m_primary>  (5) 
energy

>  <meeko>  (5) 
{"free_energy": -8.24, "intermolecular_energy": -11.22, "internal_energy": -3.58, "cluster_size": 1, "cluster_id": 4, "rank_in_cluster": 1}

>  <energy>  (5) 
-8.74

>  <cluster_rmsd>  (5) 
0.0

>  <rmsd>  (5) 
271.09

>  <cluster>  (5) 
2

$$$$

     RDKit          3D

 60 63  0  0  0  0  0  0  0  0999 V2000
  136.8530   70.3050  221.9930 O   0  0  0  0  0  0  0  0  0  0  0  0
  137.5430   70.9200  222.8630 C   0  0  0  0  0  0  0  0  0  0  0  0
  137.5300   72.3550  222.7340 N   0  0  0  0  0  0  0  0  0  0  0  0
  136.7490   72.8910  221.6500 C   0  0  0  0  0  0  0  0  0  0  0  0
  136.8140   74.3850  221.6200 C   0  0  0  0  0  0  0  0  0  0  0  0
  137.1200   74.9440  222.7050 O   0  0  0  0  0  0  0  0  0  0  0  0
  136.5430   75.1260  220.4210 N   0  0  0  0  0  0  0  0  0  0  0  0
  135.5880   76.2040  220.3840 C   0  0  0  0  0  0  0  0  0  0  0  0
  135.3920   76.3780  218.8700 C   0  0  2  0  0  0  0  0  0  0  0  0
  134.4720   75.4200  218.4320 O   0  0  0  0  0  0  0  0  0  0  0  0
  136.7370   76.0010  218.2890 C   0  0  0  0  0  0  0  0  0  0  0  0
  137.1780   74.8670  219.1610 C   0  0  1  0  0  0  0  0  0  0  0  0
  138.6690   74.7950  219.2580 C   0  0  0  0  0  0  0  0  0  0  0  0
  139.3980   74.3710  218.3290 O   0  0  0  0  0  0  0  0  0  0  0  0
  139.2210   75.2510  220.5080 N   0  0  0  0  0  0  0  0  0  0  0  0
  140.6290   75.2540  220.7800 C   0  0  2  0  0  0  0  0  0  0  0  0
  141.0210   74.2870  221.8650 C   0  0  0  0  0  0  0  0  0  0  0  0
  139.8460   73.7450  222.4010 O   0  0  0  0  0  0  0  0  0  0  0  0
  140.9710   76.6250  221.2880 C   0  0  0  0  0  0  0  0  0  0  0  0
  140.7820   76.9750  222.6170 C   0  0  0  0  0  0  0  0  0  0  0  0
  141.0930   78.2360  223.0930 C   0  0  0  0  0  0  0  0  0  0  0  0
  141.6040   79.1650  222.2230 C   0  0  0  0  0  0  0  0  0  0  0  0
  142.0080   80.7800  222.8140 Cl  0  0  0  0  0  0  0  0  0  0  0  0
  141.8140   78.8660  220.8800 C   0  0  0  0  0  0  0  0  0  0  0  0
  141.4890   77.6000  220.4540 C   0  0  0  0  0  0  0  0  0  0  0  0
  138.2900   70.2680  223.9090 C   0  0  0  0  0  0  0  0  0  0  0  0
  138.2630   68.8670  223.9170 C   0  0  0  0  0  0  0  0  0  0  0  0
  138.9750   68.1870  224.9100 C   0  0  0  0  0  0  0  0  0  0  0  0
  139.6710   68.9480  225.8400 C   0  0  0  0  0  0  0  0  0  0  0  0
  140.3870   68.3120  226.8400 C   0  0  0  0  0  0  0  0  0  0  0  0
  141.0770   69.0780  227.7610 C   0  0  0  0  0  0  0  0  0  0  0  0
  141.7780   68.4370  228.7380 F   0  0  0  0  0  0  0  0  0  0  0  0
  141.0700   70.4700  227.7090 C   0  0  0  0  0  0  0  0  0  0  0  0
  140.3500   71.1130  226.7040 C   0  0  0  0  0  0  0  0  0  0  0  0
  139.6660   70.3330  225.7910 C   0  0  0  0  0  0  0  0  0  0  0  0
  138.9770   70.9700  224.8280 N   0  0  0  0  0  0  0  0  0  0  0  0
  138.0760   72.9570  223.4120 H   0  0  0  0  0  0  0  0  0  0  0  0
  137.1371   72.4963  220.6994 H   0  0  0  0  0  0  0  0  0  0  0  0
  135.7006   72.5920  221.7965 H   0  0  0  0  0  0  0  0  0  0  0  0
  134.6477   75.9267  220.8829 H   0  0  0  0  0  0  0  0  0  0  0  0
  135.9164   77.1159  220.9042 H   0  0  0  0  0  0  0  0  0  0  0  0
  135.0470   77.3851  218.5930 H   0  0  0  0  0  0  0  0  0  0  0  0
  134.5510   74.5730  218.9270 H   0  0  0  0  0  0  0  0  0  0  0  0
  136.6385   75.6787  217.2419 H   0  0  0  0  0  0  0  0  0  0  0  0
  137.4511   76.8376  218.2737 H   0  0  0  0  0  0  0  0  0  0  0  0
  136.8910   73.8828  218.7622 H   0  0  0  0  0  0  0  0  0  0  0  0
  138.5900   75.6040  221.2820 H   0  0  0  0  0  0  0  0  0  0  0  0
  141.1536   74.9686  219.8562 H   0  0  0  0  0  0  0  0  0  0  0  0
  141.6448   73.4849  221.4438 H   0  0  0  0  0  0  0  0  0  0  0  0
  141.5985   74.8011  222.6474 H   0  0  0  0  0  0  0  0  0  0  0  0
  139.2940   74.5190  222.6990 H   0  0  0  0  0  0  0  0  0  0  0  0
  140.3728   76.2277  223.3128 H   0  0  0  0  0  0  0  0  0  0  0  0
  140.9332   78.4894  224.1514 H   0  0  0  0  0  0  0  0  0  0  0  0
  142.2244   79.6142  220.1859 H   0  0  0  0  0  0  0  0  0  0  0  0
  141.6491   77.3491  219.3950 H   0  0  0  0  0  0  0  0  0  0  0  0
  137.6928   68.3129  223.1569 H   0  0  0  0  0  0  0  0  0  0  0  0
  138.9835   67.0879  224.9530 H   0  0  0  0  0  0  0  0  0  0  0  0
  140.4065   67.2138  226.9007 H   0  0  0  0  0  0  0  0  0  0  0  0
  141.6276   71.0562  228.4543 H   0  0  0  0  0  0  0  0  0  0  0  0
  140.3268   72.2108  226.6392 H   0  0  0  0  0  0  0  0  0  0  0  0
  1  2  2  0
  2  3  1  0
  3  4  1  0
  4  5  1  0
  5  6  2  0
  5  7  1  0
  7  8  1  0
  8  9  1  0
  9 10  1  0
  9 11  1  0
 11 12  1  0
 12 13  1  0
 13 14  2  0
 13 15  1  0
 15 16  1  0
 16 17  1  0
 17 18  1  0
 16 19  1  0
 19 20  2  0
 20 21  1  0
 21 22  2  0
 22 23  1  0
 22 24  1  0
 24 25  2  0
  2 26  1  0
 26 27  2  0
 27 28  1  0
 28 29  2  0
 29 30  1  0
 30 31  2  0
 31 32  1  0
 31 33  1  0
 33 34  2  0
 34 35  1  0
 35 36  2  0
 12  7  1  0
 25 19  1  0
 36 26  1  0
 35 29  1  0
  3 37  1  0
  4 38  1  0
  4 39  1  0
  8 40  1  0
  8 41  1  0
  9 42  1  1
 10 43  1  0
 11 44  1  0
 11 45  1  0
 12 46  1  6
 15 47  1  0
 16 48  1  6
 17 49  1  0
 17 50  1  0
 18 51  1  0
 20 52  1  0
 21 53  1  0
 24 54  1  0
 25 55  1  0
 27 56  1  0
 28 57  1  0
 30 58  1  0
 33 59  1  0
 34 60  1  0
M  END
>  <smiles>  (6) 
O=C(NCC(=O)N1C[C@H](O)C[C@H]1C(=O)N[C@H](CO)c1ccc(Cl)cc1)c1ccc2cc(F)ccc2n1

>  <score_type>  (6) 
oracle

>  <origin>  (6) 
autodockgpu

>  <m_score__min__energy>  (6) 
-8.8599999999999994

>  <m_primary>  (6) 
energy

>  <meeko>  (6) 
{"free_energy": -6.75, "intermolecular_energy": -9.73, "internal_energy": -4.89, "cluster_size": 2, "cluster_id": 10, "rank_in_cluster": 2}

>  <energy>  (6) 
-8.38

>  <cluster_rmsd>  (6) 
0.0

>  <rmsd>  (6) 
271.13

>  <cluster>  (6) 
3

$$$$

     RDKit          3D

 60 63  0  0  0  0  0  0  0  0999 V2000
  140.9420   72.7520  222.2730 O   0  0  0  0  0  0  0  0  0  0  0  0
  139.9380   72.2770  222.8860 C   0  0  0  0  0  0  0  0  0  0  0  0
  138.6670   72.7920  222.4430 N   0  0  0  0  0  0  0  0  0  0  0  0
  138.7060   73.7610  221.3800 C   0  0  0  0  0  0  0  0  0  0  0  0
  138.8670   75.1490  221.9140 C   0  0  0  0  0  0  0  0  0  0  0  0
  140.0110   75.4420  222.3490 O   0  0  0  0  0  0  0  0  0  0  0  0
  137.7760   76.0820  221.9250 N   0  0  0  0  0  0  0  0  0  0  0  0
  136.8160   76.1290  222.9980 C   0  0  0  0  0  0  0  0  0  0  0  0
  135.6980   76.9690  222.3640 C   0  0  2  0  0  0  0  0  0  0  0  0
  134.9120   76.1290  221.5690 O   0  0  0  0  0  0  0  0  0  0  0  0
  136.4380   77.9020  221.4290 C   0  0  0  0  0  0  0  0  0  0  0  0
  137.5330   77.0380  220.8840 C   0  0  1  0  0  0  0  0  0  0  0  0
  138.7420   77.8420  220.5290 C   0  0  0  0  0  0  0  0  0  0  0  0
  138.7470   79.0960  220.4910 O   0  0  0  0  0  0  0  0  0  0  0  0
  139.9200   77.0690  220.2270 N   0  0  0  0  0  0  0  0  0  0  0  0
  141.1710   77.6690  219.8650 C   0  0  2  0  0  0  0  0  0  0  0  0
  142.3050   76.6820  219.8120 C   0  0  0  0  0  0  0  0  0  0  0  0
  141.9770   75.6070  220.6490 O   0  0  0  0  0  0  0  0  0  0  0  0
  141.5120   78.6510  220.9500 C   0  0  0  0  0  0  0  0  0  0  0  0
  141.4940   78.2880  222.2890 C   0  0  0  0  0  0  0  0  0  0  0  0
  141.8060   79.1860  223.2950 C   0  0  0  0  0  0  0  0  0  0  0  0
  142.1430   80.4700  222.9540 C   0  0  0  0  0  0  0  0  0  0  0  0
  142.5450   81.6300  224.2250 Cl  0  0  0  0  0  0  0  0  0  0  0  0
  142.1770   80.8860  221.6270 C   0  0  0  0  0  0  0  0  0  0  0  0
  141.8590   79.9590  220.6630 C   0  0  0  0  0  0  0  0  0  0  0  0
  140.0240   71.3030  223.9440 C   0  0  0  0  0  0  0  0  0  0  0  0
  139.5530   70.0160  223.6510 C   0  0  0  0  0  0  0  0  0  0  0  0
  139.6180   69.0340  224.6440 C   0  0  0  0  0  0  0  0  0  0  0  0
  140.1480   69.3960  225.8750 C   0  0  0  0  0  0  0  0  0  0  0  0
  140.2280   68.4520  226.8850 C   0  0  0  0  0  0  0  0  0  0  0  0
  140.7580   68.8220  228.1070 C   0  0  0  0  0  0  0  0  0  0  0  0
  140.8310   67.8810  229.0910 F   0  0  0  0  0  0  0  0  0  0  0  0
  141.2120   70.1170  228.3480 C   0  0  0  0  0  0  0  0  0  0  0  0
  141.1320   71.0680  227.3340 C   0  0  0  0  0  0  0  0  0  0  0  0
  140.6000   70.6830  226.1180 C   0  0  0  0  0  0  0  0  0  0  0  0
  140.5320   71.6140  225.1510 N   0  0  0  0  0  0  0  0  0  0  0  0
  137.7690   72.4580  222.8940 H   0  0  0  0  0  0  0  0  0  0  0  0
  139.5535   73.5317  220.7173 H   0  0  0  0  0  0  0  0  0  0  0  0
  137.7554   73.7096  220.8290 H   0  0  0  0  0  0  0  0  0  0  0  0
  136.4614   75.1227  223.2655 H   0  0  0  0  0  0  0  0  0  0  0  0
  137.2110   76.5407  223.9385 H   0  0  0  0  0  0  0  0  0  0  0  0
  135.0685   77.4800  223.1073 H   0  0  0  0  0  0  0  0  0  0  0  0
  133.9580   76.1730  221.8090 H   0  0  0  0  0  0  0  0  0  0  0  0
  135.7788   78.2589  220.6239 H   0  0  0  0  0  0  0  0  0  0  0  0
  136.8104   78.8087  221.9282 H   0  0  0  0  0  0  0  0  0  0  0  0
  137.2596   76.5421  219.9410 H   0  0  0  0  0  0  0  0  0  0  0  0
  139.8970   76.0110  220.2620 H   0  0  0  0  0  0  0  0  0  0  0  0
  141.0559   78.1165  218.8667 H   0  0  0  0  0  0  0  0  0  0  0  0
  142.4423   76.3249  218.7807 H   0  0  0  0  0  0  0  0  0  0  0  0
  143.2415   77.1547  220.1430 H   0  0  0  0  0  0  0  0  0  0  0  0
  141.9780   75.9680  221.5780 H   0  0  0  0  0  0  0  0  0  0  0  0
  141.2239   77.2564  222.5590 H   0  0  0  0  0  0  0  0  0  0  0  0
  141.7839   78.8746  224.3498 H   0  0  0  0  0  0  0  0  0  0  0  0
  142.4481   81.9179  221.3591 H   0  0  0  0  0  0  0  0  0  0  0  0
  141.8816   80.2735  219.6092 H   0  0  0  0  0  0  0  0  0  0  0  0
  139.1400   69.7829  222.6585 H   0  0  0  0  0  0  0  0  0  0  0  0
  139.2617   68.0103  224.4565 H   0  0  0  0  0  0  0  0  0  0  0  0
  139.8753   67.4236  226.7175 H   0  0  0  0  0  0  0  0  0  0  0  0
  141.6295   70.3855  229.3296 H   0  0  0  0  0  0  0  0  0  0  0  0
  141.4828   72.0978  227.4965 H   0  0  0  0  0  0  0  0  0  0  0  0
  1  2  2  0
  2  3  1  0
  3  4  1  0
  4  5  1  0
  5  6  2  0
  5  7  1  0
  7  8  1  0
  8  9  1  0
  9 10  1  0
  9 11  1  0
 11 12  1  0
 12 13  1  0
 13 14  2  0
 13 15  1  0
 15 16  1  0
 16 17  1  0
 17 18  1  0
 16 19  1  0
 19 20  2  0
 20 21  1  0
 21 22  2  0
 22 23  1  0
 22 24  1  0
 24 25  2  0
  2 26  1  0
 26 27  2  0
 27 28  1  0
 28 29  2  0
 29 30  1  0
 30 31  2  0
 31 32  1  0
 31 33  1  0
 33 34  2  0
 34 35  1  0
 35 36  2  0
 12  7  1  0
 25 19  1  0
 36 26  1  0
 35 29  1  0
  3 37  1  0
  4 38  1  0
  4 39  1  0
  8 40  1  0
  8 41  1  0
  9 42  1  1
 10 43  1  0
 11 44  1  0
 11 45  1  0
 12 46  1  6
 15 47  1  0
 16 48  1  6
 17 49  1  0
 17 50  1  0
 18 51  1  0
 20 52  1  0
 21 53  1  0
 24 54  1  0
 25 55  1  0
 27 56  1  0
 28 57  1  0
 30 58  1  0
 33 59  1  0
 34 60  1  0
M  END
>  <smiles>  (7) 
O=C(NCC(=O)N1C[C@H](O)C[C@H]1C(=O)N[C@H](CO)c1ccc(Cl)cc1)c1ccc2cc(F)ccc2n1

>  <score_type>  (7) 
oracle

>  <origin>  (7) 
autodockgpu

>  <m_score__min__energy>  (7) 
-8.8599999999999994

>  <m_primary>  (7) 
energy

>  <meeko>  (7) 
{"free_energy": -8.38, "intermolecular_energy": -11.37, "internal_energy": -3.81, "cluster_size": 3, "cluster_id": 3, "rank_in_cluster": 1}

>  <energy>  (7) 
-7.11

>  <cluster_rmsd>  (7) 
1.75

>  <rmsd>  (7) 
270.52

>  <cluster>  (7) 
3

$$$$

     RDKit          3D

 60 63  0  0  0  0  0  0  0  0999 V2000
  136.6330   77.5490  221.8090 O   0  0  0  0  0  0  0  0  0  0  0  0
  136.8910   76.5980  222.6100 C   0  0  0  0  0  0  0  0  0  0  0  0
  138.2320   76.0790  222.5110 N   0  0  0  0  0  0  0  0  0  0  0  0
  139.0860   76.7000  221.5340 C   0  0  0  0  0  0  0  0  0  0  0  0
  140.3670   75.9440  221.3720 C   0  0  0  0  0  0  0  0  0  0  0  0
  140.6490   75.1380  222.2960 O   0  0  0  0  0  0  0  0  0  0  0  0
  141.2140   76.1340  220.2290 N   0  0  0  0  0  0  0  0  0  0  0  0
  141.1410   75.2810  219.0700 C   0  0  0  0  0  0  0  0  0  0  0  0
  142.4530   75.6370  218.3530 C   0  0  2  0  0  0  0  0  0  0  0  0
  143.4900   74.9080  218.9440 O   0  0  0  0  0  0  0  0  0  0  0  0
  142.6720   77.0920  218.7110 C   0  0  0  0  0  0  0  0  0  0  0  0
  142.2040   77.1670  220.1310 C   0  0  1  0  0  0  0  0  0  0  0  0
  141.6730   78.5240  220.4640 C   0  0  0  0  0  0  0  0  0  0  0  0
  140.7870   79.1000  219.7880 O   0  0  0  0  0  0  0  0  0  0  0  0
  142.2580   79.1370  221.6290 N   0  0  0  0  0  0  0  0  0  0  0  0
  141.8730   80.4370  222.0990 C   0  0  2  0  0  0  0  0  0  0  0  0
  142.6560   80.8830  223.3040 C   0  0  0  0  0  0  0  0  0  0  0  0
  143.9220   80.2890  223.2370 O   0  0  0  0  0  0  0  0  0  0  0  0
  140.4400   80.3340  222.5350 C   0  0  0  0  0  0  0  0  0  0  0  0
  140.0970   79.8630  223.7940 C   0  0  0  0  0  0  0  0  0  0  0  0
  138.7780   79.7640  224.2030 C   0  0  0  0  0  0  0  0  0  0  0  0
  137.7860   80.1460  223.3390 C   0  0  0  0  0  0  0  0  0  0  0  0
  136.0970   80.0280  223.8450 Cl  0  0  0  0  0  0  0  0  0  0  0  0
  138.0750   80.6270  222.0650 C   0  0  0  0  0  0  0  0  0  0  0  0
  139.3990   80.7060  221.7030 C   0  0  0  0  0  0  0  0  0  0  0  0
  135.9440   76.0560  223.5510 C   0  0  0  0  0  0  0  0  0  0  0  0
  135.0770   76.9700  224.1640 C   0  0  0  0  0  0  0  0  0  0  0  0
  134.1380   76.4930  225.0840 C   0  0  0  0  0  0  0  0  0  0  0  0
  134.1220   75.1290  225.3400 C   0  0  0  0  0  0  0  0  0  0  0  0
  133.2070   74.6180  226.2440 C   0  0  0  0  0  0  0  0  0  0  0  0
  133.1970   73.2570  226.4910 C   0  0  0  0  0  0  0  0  0  0  0  0
  132.2910   72.7690  227.3850 F   0  0  0  0  0  0  0  0  0  0  0  0
  134.0830   72.3900  225.8550 C   0  0  0  0  0  0  0  0  0  0  0  0
  135.0040   72.9020  224.9440 C   0  0  0  0  0  0  0  0  0  0  0  0
  135.0000   74.2640  224.7070 C   0  0  0  0  0  0  0  0  0  0  0  0
  135.8960   74.7390  223.8250 N   0  0  0  0  0  0  0  0  0  0  0  0
  138.5440   75.2840  223.1370 H   0  0  0  0  0  0  0  0  0  0  0  0
  138.5623   76.7288  220.5671 H   0  0  0  0  0  0  0  0  0  0  0  0
  139.3245   77.7172  221.8781 H   0  0  0  0  0  0  0  0  0  0  0  0
  141.1119   74.2184  219.3529 H   0  0  0  0  0  0  0  0  0  0  0  0
  140.2386   75.4274  218.4583 H   0  0  0  0  0  0  0  0  0  0  0  0
  142.4219   75.4372  217.2717 H   0  0  0  0  0  0  0  0  0  0  0  0
  144.3770   75.2070  218.6390 H   0  0  0  0  0  0  0  0  0  0  0  0
  143.7352   77.3626  218.6309 H   0  0  0  0  0  0  0  0  0  0  0  0
  142.1403   77.7861  218.0435 H   0  0  0  0  0  0  0  0  0  0  0  0
  143.0150   77.0149  220.8585 H   0  0  0  0  0  0  0  0  0  0  0  0
  143.0070   78.6370  222.1870 H   0  0  0  0  0  0  0  0  0  0  0  0
  142.0492   81.1579  221.2871 H   0  0  0  0  0  0  0  0  0  0  0  0
  142.7562   81.9784  223.3004 H   0  0  0  0  0  0  0  0  0  0  0  0
  142.1405   80.5844  224.2287 H   0  0  0  0  0  0  0  0  0  0  0  0
  144.0410   79.9940  222.2930 H   0  0  0  0  0  0  0  0  0  0  0  0
  140.8956   79.5596  224.4870 H   0  0  0  0  0  0  0  0  0  0  0  0
  138.5306   79.3847  225.2055 H   0  0  0  0  0  0  0  0  0  0  0  0
  137.2749   80.9321  221.3746 H   0  0  0  0  0  0  0  0  0  0  0  0
  139.6434   81.0847  220.6996 H   0  0  0  0  0  0  0  0  0  0  0  0
  135.1338   78.0425  223.9261 H   0  0  0  0  0  0  0  0  0  0  0  0
  133.4367   77.1749  225.5871 H   0  0  0  0  0  0  0  0  0  0  0  0
  132.4985   75.2840  226.7582 H   0  0  0  0  0  0  0  0  0  0  0  0
  134.0555   71.3116  226.0702 H   0  0  0  0  0  0  0  0  0  0  0  0
  135.7151   72.2407  224.4273 H   0  0  0  0  0  0  0  0  0  0  0  0
  1  2  2  0
  2  3  1  0
  3  4  1  0
  4  5  1  0
  5  6  2  0
  5  7  1  0
  7  8  1  0
  8  9  1  0
  9 10  1  0
  9 11  1  0
 11 12  1  0
 12 13  1  0
 13 14  2  0
 13 15  1  0
 15 16  1  0
 16 17  1  0
 17 18  1  0
 16 19  1  0
 19 20  2  0
 20 21  1  0
 21 22  2  0
 22 23  1  0
 22 24  1  0
 24 25  2  0
  2 26  1  0
 26 27  2  0
 27 28  1  0
 28 29  2  0
 29 30  1  0
 30 31  2  0
 31 32  1  0
 31 33  1  0
 33 34  2  0
 34 35  1  0
 35 36  2  0
 12  7  1  0
 25 19  1  0
 36 26  1  0
 35 29  1  0
  3 37  1  0
  4 38  1  0
  4 39  1  0
  8 40  1  0
  8 41  1  0
  9 42  1  6
 10 43  1  0
 11 44  1  0
 11 45  1  0
 12 46  1  1
 15 47  1  0
 16 48  1  6
 17 49  1  0
 17 50  1  0
 18 51  1  0
 20 52  1  0
 21 53  1  0
 24 54  1  0
 25 55  1  0
 27 56  1  0
 28 57  1  0
 30 58  1  0
 33 59  1  0
 34 60  1  0
M  END
>  <smiles>  (8) 
O=C(NCC(=O)N1C[C@H](O)C[C@H]1C(=O)N[C@H](CO)c1ccc(Cl)cc1)c1ccc2cc(F)ccc2n1

>  <score_type>  (8) 
oracle

>  <origin>  (8) 
autodockgpu

>  <m_score__min__energy>  (8) 
-8.8599999999999994

>  <m_primary>  (8) 
energy

>  <meeko>  (8) 
{"free_energy": -7.26, "intermolecular_energy": -10.25, "internal_energy": -3.93, "cluster_size": 1, "cluster_id": 6, "rank_in_cluster": 1}

>  <energy>  (8) 
-6.75

>  <cluster_rmsd>  (8) 
1.81

>  <rmsd>  (8) 
270.6

>  <cluster>  (8) 
3

$$$$

     RDKit          3D

 60 63  0  0  0  0  0  0  0  0999 V2000
  139.0360   70.6500  221.3070 O   0  0  0  0  0  0  0  0  0  0  0  0
  138.8130   71.2710  222.3920 C   0  0  0  0  0  0  0  0  0  0  0  0
  137.9220   72.3970  222.2650 N   0  0  0  0  0  0  0  0  0  0  0  0
  137.4120   72.6620  220.9460 C   0  0  0  0  0  0  0  0  0  0  0  0
  138.2840   73.6300  220.2100 C   0  0  0  0  0  0  0  0  0  0  0  0
  137.6940   74.4090  219.4170 O   0  0  0  0  0  0  0  0  0  0  0  0
  139.7060   73.6600  220.4050 N   0  0  0  0  0  0  0  0  0  0  0  0
  140.6250   73.0990  219.4470 C   0  0  0  0  0  0  0  0  0  0  0  0
  141.9180   73.0330  220.2740 C   0  0  2  0  0  0  0  0  0  0  0  0
  141.8800   71.8760  221.0580 O   0  0  0  0  0  0  0  0  0  0  0  0
  141.8010   74.2120  221.2150 C   0  0  0  0  0  0  0  0  0  0  0  0
  140.3430   74.2330  221.5560 C   0  0  1  0  0  0  0  0  0  0  0  0
  139.8690   75.6170  221.8620 C   0  0  0  0  0  0  0  0  0  0  0  0
  139.9570   76.1370  223.0000 O   0  0  0  0  0  0  0  0  0  0  0  0
  139.2940   76.3250  220.7470 N   0  0  0  0  0  0  0  0  0  0  0  0
  138.7860   77.6610  220.8540 C   0  0  2  0  0  0  0  0  0  0  0  0
  138.6010   78.3300  219.5180 C   0  0  0  0  0  0  0  0  0  0  0  0
  138.2890   77.3360  218.5820 O   0  0  0  0  0  0  0  0  0  0  0  0
  139.8220   78.4620  221.5900 C   0  0  0  0  0  0  0  0  0  0  0  0
  141.1240   78.5670  221.1250 C   0  0  0  0  0  0  0  0  0  0  0  0
  142.0850   79.3020  221.7980 C   0  0  0  0  0  0  0  0  0  0  0  0
  141.7350   79.9450  222.9570 C   0  0  0  0  0  0  0  0  0  0  0  0
  142.9480   80.8880  223.8290 Cl  0  0  0  0  0  0  0  0  0  0  0  0
  140.4430   79.8730  223.4670 C   0  0  0  0  0  0  0  0  0  0  0  0
  139.5240   79.1310  222.7640 C   0  0  0  0  0  0  0  0  0  0  0  0
  139.3860   70.9080  223.6620 C   0  0  0  0  0  0  0  0  0  0  0  0
  140.2410   71.8470  224.2540 C   0  0  0  0  0  0  0  0  0  0  0  0
  140.8220   71.5430  225.4900 C   0  0  0  0  0  0  0  0  0  0  0  0
  140.5150   70.3150  226.0610 C   0  0  0  0  0  0  0  0  0  0  0  0
  141.0710   69.9770  227.2830 C   0  0  0  0  0  0  0  0  0  0  0  0
  140.7590   68.7530  227.8450 C   0  0  0  0  0  0  0  0  0  0  0  0
  141.3130   68.4340  229.0480 F   0  0  0  0  0  0  0  0  0  0  0  0
  139.9030   67.8530  227.2140 C   0  0  0  0  0  0  0  0  0  0  0  0
  139.3430   68.1910  225.9840 C   0  0  0  0  0  0  0  0  0  0  0  0
  139.6640   69.4190  225.4360 C   0  0  0  0  0  0  0  0  0  0  0  0
  139.1140   69.7280  224.2490 N   0  0  0  0  0  0  0  0  0  0  0  0
  137.6740   72.9790  223.1140 H   0  0  0  0  0  0  0  0  0  0  0  0
  137.3689   71.7184  220.3823 H   0  0  0  0  0  0  0  0  0  0  0  0
  136.4091   73.1032  221.0438 H   0  0  0  0  0  0  0  0  0  0  0  0
  140.3048   72.0989  219.1196 H   0  0  0  0  0  0  0  0  0  0  0  0
  140.7146   73.6779  218.5159 H   0  0  0  0  0  0  0  0  0  0  0  0
  142.8272   73.0381  219.6548 H   0  0  0  0  0  0  0  0  0  0  0  0
  141.0180   71.4040  220.9880 H   0  0  0  0  0  0  0  0  0  0  0  0
  142.4147   74.0608  222.1153 H   0  0  0  0  0  0  0  0  0  0  0  0
  142.1544   75.1548  220.7719 H   0  0  0  0  0  0  0  0  0  0  0  0
  140.1079   73.6659  222.4688 H   0  0  0  0  0  0  0  0  0  0  0  0
  139.2260   75.8690  219.7930 H   0  0  0  0  0  0  0  0  0  0  0  0
  137.8080   77.6127  221.3552 H   0  0  0  0  0  0  0  0  0  0  0  0
  137.7808   79.0607  219.5756 H   0  0  0  0  0  0  0  0  0  0  0  0
  139.5181   78.8613  219.2236 H   0  0  0  0  0  0  0  0  0  0  0  0
  137.9500   76.5590  219.1040 H   0  0  0  0  0  0  0  0  0  0  0  0
  141.4015   78.0511  220.1940 H   0  0  0  0  0  0  0  0  0  0  0  0
  143.1119   79.3689  221.4094 H   0  0  0  0  0  0  0  0  0  0  0  0
  140.1671   80.3903  224.3977 H   0  0  0  0  0  0  0  0  0  0  0  0
  138.4980   79.0656  223.1552 H   0  0  0  0  0  0  0  0  0  0  0  0
  140.4515   72.8052  223.7564 H   0  0  0  0  0  0  0  0  0  0  0  0
  141.4978   72.2514  225.9915 H   0  0  0  0  0  0  0  0  0  0  0  0
  141.7504   70.6715  227.7988 H   0  0  0  0  0  0  0  0  0  0  0  0
  139.6716   66.8850  227.6824 H   0  0  0  0  0  0  0  0  0  0  0  0
  138.6641   67.4998  225.4631 H   0  0  0  0  0  0  0  0  0  0  0  0
  1  2  2  0
  2  3  1  0
  3  4  1  0
  4  5  1  0
  5  6  2  0
  5  7  1  0
  7  8  1  0
  8  9  1  0
  9 10  1  0
  9 11  1  0
 11 12  1  0
 12 13  1  0
 13 14  2  0
 13 15  1  0
 15 16  1  0
 16 17  1  0
 17 18  1  0
 16 19  1  0
 19 20  2  0
 20 21  1  0
 21 22  2  0
 22 23  1  0
 22 24  1  0
 24 25  2  0
  2 26  1  0
 26 27  2  0
 27 28  1  0
 28 29  2  0
 29 30  1  0
 30 31  2  0
 31 32  1  0
 31 33  1  0
 33 34  2  0
 34 35  1  0
 35 36  2  0
 12  7  1  0
 25 19  1  0
 36 26  1  0
 35 29  1  0
  3 37  1  0
  4 38  1  0
  4 39  1  0
  8 40  1  0
  8 41  1  0
  9 42  1  6
 10 43  1  0
 11 44  1  0
 11 45  1  0
 12 46  1  1
 15 47  1  0
 16 48  1  1
 17 49  1  0
 17 50  1  0
 18 51  1  0
 20 52  1  0
 21 53  1  0
 24 54  1  0
 25 55  1  0
 27 56  1  0
 28 57  1  0
 30 58  1  0
 33 59  1  0
 34 60  1  0
M  END
>  <smiles>  (9) 
O=C(NCC(=O)N1C[C@H](O)C[C@H]1C(=O)N[C@H](CO)c1ccc(Cl)cc1)c1ccc2cc(F)ccc2n1

>  <score_type>  (9) 
oracle

>  <origin>  (9) 
autodockgpu

>  <m_score__min__energy>  (9) 
-8.8599999999999994

>  <m_primary>  (9) 
energy

>  <meeko>  (9) 
{"free_energy": -6.75, "intermolecular_energy": -9.73, "internal_energy": -5.16, "cluster_size": 3, "cluster_id": 3, "rank_in_cluster": 3}

>  <energy>  (9) 
-8.24

>  <cluster_rmsd>  (9) 
0.0

>  <rmsd>  (9) 
270.95

>  <cluster>  (9) 
4

$$$$

     RDKit          3D

 60 63  0  0  0  0  0  0  0  0999 V2000
  140.9970   71.9030  221.1730 O   0  0  0  0  0  0  0  0  0  0  0  0
  140.2980   72.2500  222.1730 C   0  0  0  0  0  0  0  0  0  0  0  0
  139.6270   73.5170  222.0250 N   0  0  0  0  0  0  0  0  0  0  0  0
  139.8360   74.2080  220.7810 C   0  0  0  0  0  0  0  0  0  0  0  0
  141.0380   75.0960  220.8470 C   0  0  0  0  0  0  0  0  0  0  0  0
  141.4200   75.4190  222.0020 O   0  0  0  0  0  0  0  0  0  0  0  0
  141.7080   75.5460  219.6600 N   0  0  0  0  0  0  0  0  0  0  0  0
  141.5650   74.8720  218.3950 C   0  0  0  0  0  0  0  0  0  0  0  0
  142.7340   75.4730  217.6000 C   0  0  2  0  0  0  0  0  0  0  0  0
  143.9010   74.7840  217.9440 O   0  0  0  0  0  0  0  0  0  0  0  0
  142.8630   76.8740  218.1590 C   0  0  0  0  0  0  0  0  0  0  0  0
  142.5780   76.6850  219.6170 C   0  0  1  0  0  0  0  0  0  0  0  0
  141.9730   77.9110  220.2220 C   0  0  0  0  0  0  0  0  0  0  0  0
  141.6310   78.9130  219.5490 O   0  0  0  0  0  0  0  0  0  0  0  0
  141.8060   77.8660  221.6530 N   0  0  0  0  0  0  0  0  0  0  0  0
  141.2430   78.9500  222.4040 C   0  0  2  0  0  0  0  0  0  0  0  0
  141.7800   79.0360  223.8070 C   0  0  0  0  0  0  0  0  0  0  0  0
  142.2000   77.7540  224.1840 O   0  0  0  0  0  0  0  0  0  0  0  0
  139.7720   78.6750  222.5270 C   0  0  0  0  0  0  0  0  0  0  0  0
  138.8710   79.6790  222.8510 C   0  0  0  0  0  0  0  0  0  0  0  0
  137.5140   79.4340  222.9680 C   0  0  0  0  0  0  0  0  0  0  0  0
  137.0500   78.1610  222.7550 C   0  0  0  0  0  0  0  0  0  0  0  0
  135.3200   77.8300  222.8990 Cl  0  0  0  0  0  0  0  0  0  0  0  0
  137.9100   77.1180  222.4270 C   0  0  0  0  0  0  0  0  0  0  0  0
  139.2500   77.4100  222.3230 C   0  0  0  0  0  0  0  0  0  0  0  0
  140.1640   71.4670  223.3750 C   0  0  0  0  0  0  0  0  0  0  0  0
  139.4690   70.2560  223.2590 C   0  0  0  0  0  0  0  0  0  0  0  0
  139.3150   69.4570  224.3970 C   0  0  0  0  0  0  0  0  0  0  0  0
  139.8620   69.9180  225.5870 C   0  0  0  0  0  0  0  0  0  0  0  0
  139.7300   69.1570  226.7350 C   0  0  0  0  0  0  0  0  0  0  0  0
  140.2800   69.6240  227.9150 C   0  0  0  0  0  0  0  0  0  0  0  0
  140.1410   68.8630  229.0370 F   0  0  0  0  0  0  0  0  0  0  0  0
  140.9610   70.8370  227.9770 C   0  0  0  0  0  0  0  0  0  0  0  0
  141.0960   71.6050  226.8220 C   0  0  0  0  0  0  0  0  0  0  0  0
  140.5410   71.1240  225.6510 C   0  0  0  0  0  0  0  0  0  0  0  0
  140.6810   71.8780  224.5470 N   0  0  0  0  0  0  0  0  0  0  0  0
  139.0190   73.8940  222.8060 H   0  0  0  0  0  0  0  0  0  0  0  0
  139.9809   73.4680  219.9802 H   0  0  0  0  0  0  0  0  0  0  0  0
  138.9537   74.8330  220.5789 H   0  0  0  0  0  0  0  0  0  0  0  0
  141.6707   73.7826  218.5049 H   0  0  0  0  0  0  0  0  0  0  0  0
  140.5815   75.0069  217.9213 H   0  0  0  0  0  0  0  0  0  0  0  0
  142.5813   75.4332  216.5114 H   0  0  0  0  0  0  0  0  0  0  0  0
  144.7090   75.3340  217.8200 H   0  0  0  0  0  0  0  0  0  0  0  0
  143.8774   77.2697  218.0029 H   0  0  0  0  0  0  0  0  0  0  0  0
  142.1881   77.5962  217.6764 H   0  0  0  0  0  0  0  0  0  0  0  0
  143.4868   76.5168  220.2135 H   0  0  0  0  0  0  0  0  0  0  0  0
  142.1020   77.0120  222.2050 H   0  0  0  0  0  0  0  0  0  0  0  0
  141.4876   79.8872  221.8827 H   0  0  0  0  0  0  0  0  0  0  0  0
  142.6302   79.7332  223.8402 H   0  0  0  0  0  0  0  0  0  0  0  0
  141.0033   79.4034  224.4939 H   0  0  0  0  0  0  0  0  0  0  0  0
  141.8300   77.1280  223.5030 H   0  0  0  0  0  0  0  0  0  0  0  0
  139.2461   80.6992  223.0198 H   0  0  0  0  0  0  0  0  0  0  0  0
  136.8193   80.2464  223.2274 H   0  0  0  0  0  0  0  0  0  0  0  0
  137.5328   76.0987  222.2573 H   0  0  0  0  0  0  0  0  0  0  0  0
  139.9426   76.5956  222.0642 H   0  0  0  0  0  0  0  0  0  0  0  0
  139.0523   69.9395  222.2914 H   0  0  0  0  0  0  0  0  0  0  0  0
  138.7794   68.4973  224.3507 H   0  0  0  0  0  0  0  0  0  0  0  0
  139.1960   68.1956  226.7096 H   0  0  0  0  0  0  0  0  0  0  0  0
  141.3884   71.1857  228.9287 H   0  0  0  0  0  0  0  0  0  0  0  0
  141.6292   72.5669  226.8417 H   0  0  0  0  0  0  0  0  0  0  0  0
  1  2  2  0
  2  3  1  0
  3  4  1  0
  4  5  1  0
  5  6  2  0
  5  7  1  0
  7  8  1  0
  8  9  1  0
  9 10  1  0
  9 11  1  0
 11 12  1  0
 12 13  1  0
 13 14  2  0
 13 15  1  0
 15 16  1  0
 16 17  1  0
 17 18  1  0
 16 19  1  0
 19 20  2  0
 20 21  1  0
 21 22  2  0
 22 23  1  0
 22 24  1  0
 24 25  2  0
  2 26  1  0
 26 27  2  0
 27 28  1  0
 28 29  2  0
 29 30  1  0
 30 31  2  0
 31 32  1  0
 31 33  1  0
 33 34  2  0
 34 35  1  0
 35 36  2  0
 12  7  1  0
 25 19  1  0
 36 26  1  0
 35 29  1  0
  3 37  1  0
  4 38  1  0
  4 39  1  0
  8 40  1  0
  8 41  1  0
  9 42  1  6
 10 43  1  0
 11 44  1  0
 11 45  1  0
 12 46  1  1
 15 47  1  0
 16 48  1  6
 17 49  1  0
 17 50  1  0
 18 51  1  0
 20 52  1  0
 21 53  1  0
 24 54  1  0
 25 55  1  0
 27 56  1  0
 28 57  1  0
 30 58  1  0
 33 59  1  0
 34 60  1  0
M  END
>  <smiles>  (10) 
O=C(NCC(=O)N1C[C@H](O)C[C@H]1C(=O)N[C@H](CO)c1ccc(Cl)cc1)c1ccc2cc(F)ccc2n1

>  <score_type>  (10) 
oracle

>  <origin>  (10) 
autodockgpu

>  <m_score__min__energy>  (10) 
-8.8599999999999994

>  <m_primary>  (10) 
energy

>  <meeko>  (10) 
{"free_energy": -8.84, "intermolecular_energy": -11.82, "internal_energy": -3.87, "cluster_size": 4, "cluster_id": 1, "rank_in_cluster": 2}

>  <energy>  (10) 
-7.29

>  <cluster_rmsd>  (10) 
0.0

>  <rmsd>  (10) 
270.78

>  <cluster>  (10) 
5

$$$$

     RDKit          3D

 60 63  0  0  0  0  0  0  0  0999 V2000
  140.2340   73.7430  222.3480 O   0  0  0  0  0  0  0  0  0  0  0  0
  140.3180   72.4800  222.2600 C   0  0  0  0  0  0  0  0  0  0  0  0
  140.5100   71.9840  220.9200 N   0  0  0  0  0  0  0  0  0  0  0  0
  140.5800   72.9730  219.8780 C   0  0  0  0  0  0  0  0  0  0  0  0
  141.8100   72.8000  219.0450 C   0  0  0  0  0  0  0  0  0  0  0  0
  141.6410   72.2700  217.9170 O   0  0  0  0  0  0  0  0  0  0  0  0
  143.1010   73.2180  219.5150 N   0  0  0  0  0  0  0  0  0  0  0  0
  144.3210   72.6020  219.0570 C   0  0  0  0  0  0  0  0  0  0  0  0
  145.3240   73.1070  220.1050 C   0  0  2  0  0  0  0  0  0  0  0  0
  145.2250   72.2930  221.2370 O   0  0  0  0  0  0  0  0  0  0  0  0
  144.7850   74.4690  220.4880 C   0  0  0  0  0  0  0  0  0  0  0  0
  143.3020   74.2640  220.4740 C   0  0  1  0  0  0  0  0  0  0  0  0
  142.5760   75.5250  220.1310 C   0  0  0  0  0  0  0  0  0  0  0  0
  143.0440   76.4010  219.3650 O   0  0  0  0  0  0  0  0  0  0  0  0
  141.2830   75.6710  220.7510 N   0  0  0  0  0  0  0  0  0  0  0  0
  140.4450   76.8150  220.5380 C   0  0  2  0  0  0  0  0  0  0  0  0
  140.4960   77.3280  219.1250 C   0  0  0  0  0  0  0  0  0  0  0  0
  140.4260   76.2240  218.2650 O   0  0  0  0  0  0  0  0  0  0  0  0
  140.9810   77.9140  221.4100 C   0  0  0  0  0  0  0  0  0  0  0  0
  141.0730   77.7700  222.7860 C   0  0  0  0  0  0  0  0  0  0  0  0
  141.5650   78.7780  223.5970 C   0  0  0  0  0  0  0  0  0  0  0  0
  141.9730   79.9520  223.0180 C   0  0  0  0  0  0  0  0  0  0  0  0
  142.6040   81.2500  224.0380 Cl  0  0  0  0  0  0  0  0  0  0  0  0
  141.9030   80.1490  221.6430 C   0  0  0  0  0  0  0  0  0  0  0  0
  141.4070   79.1190  220.8790 C   0  0  0  0  0  0  0  0  0  0  0  0
  140.2320   71.5850  223.3850 C   0  0  0  0  0  0  0  0  0  0  0  0
  139.6350   70.3390  223.1500 C   0  0  0  0  0  0  0  0  0  0  0  0
  139.5300   69.4330  224.2100 C   0  0  0  0  0  0  0  0  0  0  0  0
  140.0250   69.8260  225.4460 C   0  0  0  0  0  0  0  0  0  0  0  0
  139.9390   68.9580  226.5200 C   0  0  0  0  0  0  0  0  0  0  0  0
  140.4370   69.3580  227.7470 C   0  0  0  0  0  0  0  0  0  0  0  0
  140.3450   68.4920  228.7950 F   0  0  0  0  0  0  0  0  0  0  0  0
  141.0200   70.6100  227.9290 C   0  0  0  0  0  0  0  0  0  0  0  0
  141.1080   71.4860  226.8480 C   0  0  0  0  0  0  0  0  0  0  0  0
  140.6070   71.0710  225.6290 C   0  0  0  0  0  0  0  0  0  0  0  0
  140.7010   71.9290  224.5990 N   0  0  0  0  0  0  0  0  0  0  0  0
  140.5910   70.9440  220.7430 H   0  0  0  0  0  0  0  0  0  0  0  0
  139.6942   72.8769  219.2330 H   0  0  0  0  0  0  0  0  0  0  0  0
  140.6152   73.9679  220.3460 H   0  0  0  0  0  0  0  0  0  0  0  0
  144.2465   71.5046  219.0668 H   0  0  0  0  0  0  0  0  0  0  0  0
  144.5895   72.8503  218.0196 H   0  0  0  0  0  0  0  0  0  0  0  0
  146.3614   73.1181  219.7394 H   0  0  0  0  0  0  0  0  0  0  0  0
  146.0950   71.9150  221.5020 H   0  0  0  0  0  0  0  0  0  0  0  0
  145.1333   74.7643  221.4888 H   0  0  0  0  0  0  0  0  0  0  0  0
  145.1169   75.2709  219.8121 H   0  0  0  0  0  0  0  0  0  0  0  0
  142.8981   73.9864  221.4588 H   0  0  0  0  0  0  0  0  0  0  0  0
  140.9050   74.9220  221.3970 H   0  0  0  0  0  0  0  0  0  0  0  0
  139.4084   76.5226  220.7615 H   0  0  0  0  0  0  0  0  0  0  0  0
  139.6454   78.0006  218.9403 H   0  0  0  0  0  0  0  0  0  0  0  0
  141.4262   77.8896  218.9538 H   0  0  0  0  0  0  0  0  0  0  0  0
  141.3670   75.9650  218.0680 H   0  0  0  0  0  0  0  0  0  0  0  0
  140.7452   76.8265  223.2469 H   0  0  0  0  0  0  0  0  0  0  0  0
  141.6276   78.6397  224.6865 H   0  0  0  0  0  0  0  0  0  0  0  0
  142.2320   81.0930  221.1841 H   0  0  0  0  0  0  0  0  0  0  0  0
  141.3456   79.2600  219.7898 H   0  0  0  0  0  0  0  0  0  0  0  0
  139.2562   70.0786  222.1506 H   0  0  0  0  0  0  0  0  0  0  0  0
  139.0711   68.4432  224.0693 H   0  0  0  0  0  0  0  0  0  0  0  0
  139.4815   67.9649  226.4000 H   0  0  0  0  0  0  0  0  0  0  0  0
  141.4070   70.9045  228.9157 H   0  0  0  0  0  0  0  0  0  0  0  0
  141.5639   72.4805  226.9624 H   0  0  0  0  0  0  0  0  0  0  0  0
  1  2  2  0
  2  3  1  0
  3  4  1  0
  4  5  1  0
  5  6  2  0
  5  7  1  0
  7  8  1  0
  8  9  1  0
  9 10  1  0
  9 11  1  0
 11 12  1  0
 12 13  1  0
 13 14  2  0
 13 15  1  0
 15 16  1  0
 16 17  1  0
 17 18  1  0
 16 19  1  0
 19 20  2  0
 20 21  1  0
 21 22  2  0
 22 23  1  0
 22 24  1  0
 24 25  2  0
  2 26  1  0
 26 27  2  0
 27 28  1  0
 28 29  2  0
 29 30  1  0
 30 31  2  0
 31 32  1  0
 31 33  1  0
 33 34  2  0
 34 35  1  0
 35 36  2  0
 12  7  1  0
 25 19  1  0
 36 26  1  0
 35 29  1  0
  3 37  1  0
  4 38  1  0
  4 39  1  0
  8 40  1  0
  8 41  1  0
  9 42  1  6
 10 43  1  0
 11 44  1  0
 11 45  1  0
 12 46  1  1
 15 47  1  0
 16 48  1  1
 17 49  1  0
 17 50  1  0
 18 51  1  0
 20 52  1  0
 21 53  1  0
 24 54  1  0
 25 55  1  0
 27 56  1  0
 28 57  1  0
 30 58  1  0
 33 59  1  0
 34 60  1  0
M  END
>  <smiles>  (11) 
O=C(NCC(=O)N1C[C@H](O)C[C@H]1C(=O)N[C@H](CO)c1ccc(Cl)cc1)c1ccc2cc(F)ccc2n1

>  <score_type>  (11) 
oracle

>  <origin>  (11) 
autodockgpu

>  <m_score__min__energy>  (11) 
-8.8599999999999994

>  <m_primary>  (11) 
energy

>  <meeko>  (11) 
{"free_energy": -8.74, "intermolecular_energy": -11.72, "internal_energy": -3.45, "cluster_size": 1, "cluster_id": 2, "rank_in_cluster": 1}

>  <energy>  (11) 
-6.88

>  <cluster_rmsd>  (11) 
1.75

>  <rmsd>  (11) 
270.45

>  <cluster>  (11) 
5

$$$$

     RDKit          3D

 60 63  0  0  0  0  0  0  0  0999 V2000
  140.4410   74.2980  219.7590 O   0  0  0  0  0  0  0  0  0  0  0  0
  141.1520   75.2210  219.2560 C   0  0  0  0  0  0  0  0  0  0  0  0
  141.7290   74.9020  217.9740 N   0  0  0  0  0  0  0  0  0  0  0  0
  141.4250   73.5990  217.4440 C   0  0  0  0  0  0  0  0  0  0  0  0
  142.4880   72.6080  217.7980 C   0  0  0  0  0  0  0  0  0  0  0  0
  142.6640   71.6730  216.9730 O   0  0  0  0  0  0  0  0  0  0  0  0
  143.2540   72.7240  219.0060 N   0  0  0  0  0  0  0  0  0  0  0  0
  144.0810   73.8710  219.2830 C   0  0  0  0  0  0  0  0  0  0  0  0
  144.9460   73.3450  220.4380 C   0  0  2  0  0  0  0  0  0  0  0  0
  145.9970   72.5980  219.8970 O   0  0  0  0  0  0  0  0  0  0  0  0
  144.0330   72.3740  221.1550 C   0  0  0  0  0  0  0  0  0  0  0  0
  143.2800   71.7260  220.0350 C   0  0  1  0  0  0  0  0  0  0  0  0
  141.9160   71.2920  220.4690 C   0  0  0  0  0  0  0  0  0  0  0  0
  141.4520   70.1500  220.2350 O   0  0  0  0  0  0  0  0  0  0  0  0
  141.1590   72.2880  221.1820 N   0  0  0  0  0  0  0  0  0  0  0  0
  139.8320   72.0510  221.6730 C   0  0  2  0  0  0  0  0  0  0  0  0
  139.0780   73.3190  221.9690 C   0  0  0  0  0  0  0  0  0  0  0  0
  140.0110   74.2980  222.3320 O   0  0  0  0  0  0  0  0  0  0  0  0
  139.9760   71.3270  222.9810 C   0  0  0  0  0  0  0  0  0  0  0  0
  139.4110   70.0760  223.1850 C   0  0  0  0  0  0  0  0  0  0  0  0
  139.5380   69.4030  224.3870 C   0  0  0  0  0  0  0  0  0  0  0  0
  140.2460   69.9900  225.4030 C   0  0  0  0  0  0  0  0  0  0  0  0
  140.4190   69.1440  226.9450 Cl  0  0  0  0  0  0  0  0  0  0  0  0
  140.8340   71.2420  225.2520 C   0  0  0  0  0  0  0  0  0  0  0  0
  140.6800   71.8720  224.0400 C   0  0  0  0  0  0  0  0  0  0  0  0
  141.3850   76.4950  219.8870 C   0  0  0  0  0  0  0  0  0  0  0  0
  141.7810   77.5460  219.0490 C   0  0  0  0  0  0  0  0  0  0  0  0
  142.0180   78.8030  219.6130 C   0  0  0  0  0  0  0  0  0  0  0  0
  141.8470   78.9370  220.9840 C   0  0  0  0  0  0  0  0  0  0  0  0
  142.0720   80.1660  221.5810 C   0  0  0  0  0  0  0  0  0  0  0  0
  141.8980   80.2890  222.9470 C   0  0  0  0  0  0  0  0  0  0  0  0
  142.1230   81.5050  223.5190 F   0  0  0  0  0  0  0  0  0  0  0  0
  141.5030   79.2120  223.7370 C   0  0  0  0  0  0  0  0  0  0  0  0
  141.2760   77.9740  223.1380 C   0  0  0  0  0  0  0  0  0  0  0  0
  141.4540   77.8670  221.7720 C   0  0  0  0  0  0  0  0  0  0  0  0
  141.2300   76.6650  221.2130 N   0  0  0  0  0  0  0  0  0  0  0  0
  142.3380   75.6080  217.4730 H   0  0  0  0  0  0  0  0  0  0  0  0
  140.4648   73.2583  217.8587 H   0  0  0  0  0  0  0  0  0  0  0  0
  141.3703   73.6736  216.3479 H   0  0  0  0  0  0  0  0  0  0  0  0
  144.6948   74.1448  218.4122 H   0  0  0  0  0  0  0  0  0  0  0  0
  143.5183   74.7856  219.5214 H   0  0  0  0  0  0  0  0  0  0  0  0
  145.3449   74.1462  221.0775 H   0  0  0  0  0  0  0  0  0  0  0  0
  146.2860   71.8710  220.4960 H   0  0  0  0  0  0  0  0  0  0  0  0
  144.6135   71.6315  221.7222 H   0  0  0  0  0  0  0  0  0  0  0  0
  143.3775   72.8607  221.8922 H   0  0  0  0  0  0  0  0  0  0  0  0
  143.7525   70.7981  219.6804 H   0  0  0  0  0  0  0  0  0  0  0  0
  141.5660   73.2480  221.3690 H   0  0  0  0  0  0  0  0  0  0  0  0
  139.2800   71.4925  220.9027 H   0  0  0  0  0  0  0  0  0  0  0  0
  138.5249   73.6426  221.0749 H   0  0  0  0  0  0  0  0  0  0  0  0
  138.3567   73.1555  222.7832 H   0  0  0  0  0  0  0  0  0  0  0  0
  140.1280   74.8810  221.5330 H   0  0  0  0  0  0  0  0  0  0  0  0
  138.8456   69.6057  222.3670 H   0  0  0  0  0  0  0  0  0  0  0  0
  139.0783   68.4132  224.5249 H   0  0  0  0  0  0  0  0  0  0  0  0
  141.4003   71.7096  226.0709 H   0  0  0  0  0  0  0  0  0  0  0  0
  141.1408   72.8617  223.9050 H   0  0  0  0  0  0  0  0  0  0  0  0
  141.9031   77.3850  217.9677 H   0  0  0  0  0  0  0  0  0  0  0  0
  142.3291   79.6560  218.9921 H   0  0  0  0  0  0  0  0  0  0  0  0
  142.3844   81.0311  220.9777 H   0  0  0  0  0  0  0  0  0  0  0  0
  141.3716   79.3371  224.8219 H   0  0  0  0  0  0  0  0  0  0  0  0
  140.9636   77.1057  223.7366 H   0  0  0  0  0  0  0  0  0  0  0  0
  1  2  2  0
  2  3  1  0
  3  4  1  0
  4  5  1  0
  5  6  2  0
  5  7  1  0
  7  8  1  0
  8  9  1  0
  9 10  1  0
  9 11  1  0
 11 12  1  0
 12 13  1  0
 13 14  2  0
 13 15  1  0
 15 16  1  0
 16 17  1  0
 17 18  1  0
 16 19  1  0
 19 20  2  0
 20 21  1  0
 21 22  2  0
 22 23  1  0
 22 24  1  0
 24 25  2  0
  2 26  1  0
 26 27  2  0
 27 28  1  0
 28 29  2  0
 29 30  1  0
 30 31  2  0
 31 32  1  0
 31 33  1  0
 33 34  2  0
 34 35  1  0
 35 36  2  0
 12  7  1  0
 25 19  1  0
 36 26  1  0
 35 29  1  0
  3 37  1  0
  4 38  1  0
  4 39  1  0
  8 40  1  0
  8 41  1  0
  9 42  1  1
 10 43  1  0
 11 44  1  0
 11 45  1  0
 12 46  1  6
 15 47  1  0
 16 48  1  6
 17 49  1  0
 17 50  1  0
 18 51  1  0
 20 52  1  0
 21 53  1  0
 24 54  1  0
 25 55  1  0
 27 56  1  0
 28 57  1  0
 30 58  1  0
 33 59  1  0
 34 60  1  0
M  END
>  <smiles>  (12) 
O=C(NCC(=O)N1C[C@H](O)C[C@H]1C(=O)N[C@H](CO)c1ccc(Cl)cc1)c1ccc2cc(F)ccc2n1

>  <score_type>  (12) 
oracle

>  <origin>  (12) 
autodockgpu

>  <m_score__min__energy>  (12) 
-8.8599999999999994

>  <m_primary>  (12) 
energy

>  <meeko>  (12) 
{"free_energy": -6.88, "intermolecular_energy": -9.86, "internal_energy": -5.04, "cluster_size": 2, "cluster_id": 5, "rank_in_cluster": 2}

>  <energy>  (12) 
-7.26

>  <cluster_rmsd>  (12) 
0.0

>  <rmsd>  (12) 
271.03

>  <cluster>  (12) 
6

$$$$

     RDKit          3D

 60 63  0  0  0  0  0  0  0  0999 V2000
  139.9660   73.9680  221.9910 O   0  0  0  0  0  0  0  0  0  0  0  0
  140.4940   75.1180  221.8970 C   0  0  0  0  0  0  0  0  0  0  0  0
  141.8210   75.1240  221.3350 N   0  0  0  0  0  0  0  0  0  0  0  0
  142.3610   73.8430  220.9600 C   0  0  0  0  0  0  0  0  0  0  0  0
  143.7040   73.9860  220.3180 C   0  0  0  0  0  0  0  0  0  0  0  0
  144.2660   75.1040  220.4600 O   0  0  0  0  0  0  0  0  0  0  0  0
  144.3070   72.9080  219.5860 N   0  0  0  0  0  0  0  0  0  0  0  0
  144.3100   71.5540  220.0780 C   0  0  0  0  0  0  0  0  0  0  0  0
  145.3700   70.9090  219.1720 C   0  0  2  0  0  0  0  0  0  0  0  0
  146.6340   71.2020  219.6930 O   0  0  0  0  0  0  0  0  0  0  0  0
  145.2380   71.6690  217.8700 C   0  0  0  0  0  0  0  0  0  0  0  0
  144.9620   73.0700  218.3210 C   0  0  1  0  0  0  0  0  0  0  0  0
  144.1380   73.8170  217.3220 C   0  0  0  0  0  0  0  0  0  0  0  0
  143.6020   73.2710  216.3280 O   0  0  0  0  0  0  0  0  0  0  0  0
  143.9980   75.2270  217.5810 N   0  0  0  0  0  0  0  0  0  0  0  0
  143.2440   76.1020  216.7310 C   0  0  2  0  0  0  0  0  0  0  0  0
  144.0720   76.7140  215.6330 C   0  0  0  0  0  0  0  0  0  0  0  0
  145.0170   75.7620  215.2280 O   0  0  0  0  0  0  0  0  0  0  0  0
  142.7680   77.2390  217.5890 C   0  0  0  0  0  0  0  0  0  0  0  0
  142.6230   78.5210  217.0800 C   0  0  0  0  0  0  0  0  0  0  0  0
  142.1860   79.5740  217.8650 C   0  0  0  0  0  0  0  0  0  0  0  0
  141.8880   79.3390  219.1820 C   0  0  0  0  0  0  0  0  0  0  0  0
  141.3280   80.6720  220.1980 Cl  0  0  0  0  0  0  0  0  0  0  0  0
  142.0150   78.0720  219.7420 C   0  0  0  0  0  0  0  0  0  0  0  0
  142.4530   77.0580  218.9240 C   0  0  0  0  0  0  0  0  0  0  0  0
  139.8500   76.3380  222.3100 C   0  0  0  0  0  0  0  0  0  0  0  0
  138.4480   76.3350  222.3180 C   0  0  0  0  0  0  0  0  0  0  0  0
  137.7750   77.4950  222.7140 C   0  0  0  0  0  0  0  0  0  0  0  0
  138.5430   78.5940  223.0770 C   0  0  0  0  0  0  0  0  0  0  0  0
  137.9140   79.7610  223.4740 C   0  0  0  0  0  0  0  0  0  0  0  0
  138.6870   80.8490  223.8350 C   0  0  0  0  0  0  0  0  0  0  0  0
  138.0530   81.9910  224.2230 F   0  0  0  0  0  0  0  0  0  0  0  0
  140.0790   80.8010  223.8090 C   0  0  0  0  0  0  0  0  0  0  0  0
  140.7140   79.6270  223.4090 C   0  0  0  0  0  0  0  0  0  0  0  0
  139.9280   78.5480  223.0520 C   0  0  0  0  0  0  0  0  0  0  0  0
  140.5580   77.4240  222.6700 N   0  0  0  0  0  0  0  0  0  0  0  0
  142.3470   76.0350  221.2150 H   0  0  0  0  0  0  0  0  0  0  0  0
  142.4588   73.2181  221.8600 H   0  0  0  0  0  0  0  0  0  0  0  0
  141.6775   73.3771  220.2349 H   0  0  0  0  0  0  0  0  0  0  0  0
  144.6046   71.5106  221.1369 H   0  0  0  0  0  0  0  0  0  0  0  0
  143.3277   71.0600  220.0457 H   0  0  0  0  0  0  0  0  0  0  0  0
  145.2479   69.8202  219.0739 H   0  0  0  0  0  0  0  0  0  0  0  0
  146.5950   71.4620  220.6430 H   0  0  0  0  0  0  0  0  0  0  0  0
  146.1694   71.6181  217.2869 H   0  0  0  0  0  0  0  0  0  0  0  0
  144.4555   71.2649  217.2109 H   0  0  0  0  0  0  0  0  0  0  0  0
  145.8739   73.6776  218.4174 H   0  0  0  0  0  0  0  0  0  0  0  0
  144.4590   75.6710  218.4250 H   0  0  0  0  0  0  0  0  0  0  0  0
  142.4374   75.5137  216.2691 H   0  0  0  0  0  0  0  0  0  0  0  0
  143.4267   76.9852  214.7845 H   0  0  0  0  0  0  0  0  0  0  0  0
  144.5736   77.6248  215.9921 H   0  0  0  0  0  0  0  0  0  0  0  0
  144.5520   74.8810  215.2530 H   0  0  0  0  0  0  0  0  0  0  0  0
  142.8621   78.7062  216.0224 H   0  0  0  0  0  0  0  0  0  0  0  0
  142.0797   80.5826  217.4390 H   0  0  0  0  0  0  0  0  0  0  0  0
  141.7740   77.8885  220.7995 H   0  0  0  0  0  0  0  0  0  0  0  0
  142.5585   76.0506  219.3529 H   0  0  0  0  0  0  0  0  0  0  0  0
  137.8879   75.4369  222.0184 H   0  0  0  0  0  0  0  0  0  0  0  0
  136.6760   77.5358  222.7372 H   0  0  0  0  0  0  0  0  0  0  0  0
  136.8161   79.8220  223.5019 H   0  0  0  0  0  0  0  0  0  0  0  0
  140.6708   81.6810  224.1013 H   0  0  0  0  0  0  0  0  0  0  0  0
  141.8116   79.5609  223.3782 H   0  0  0  0  0  0  0  0  0  0  0  0
  1  2  2  0
  2  3  1  0
  3  4  1  0
  4  5  1  0
  5  6  2  0
  5  7  1  0
  7  8  1  0
  8  9  1  0
  9 10  1  0
  9 11  1  0
 11 12  1  0
 12 13  1  0
 13 14  2  0
 13 15  1  0
 15 16  1  0
 16 17  1  0
 17 18  1  0
 16 19  1  0
 19 20  2  0
 20 21  1  0
 21 22  2  0
 22 23  1  0
 22 24  1  0
 24 25  2  0
  2 26  1  0
 26 27  2  0
 27 28  1  0
 28 29  2  0
 29 30  1  0
 30 31  2  0
 31 32  1  0
 31 33  1  0
 33 34  2  0
 34 35  1  0
 35 36  2  0
 12  7  1  0
 25 19  1  0
 36 26  1  0
 35 29  1  0
  3 37  1  0
  4 38  1  0
  4 39  1  0
  8 40  1  0
  8 41  1  0
  9 42  1  6
 10 43  1  0
 11 44  1  0
 11 45  1  0
 12 46  1  1
 15 47  1  0
 16 48  1  6
 17 49  1  0
 17 50  1  0
 18 51  1  0
 20 52  1  0
 21 53  1  0
 24 54  1  0
 25 55  1  0
 27 56  1  0
 28 57  1  0
 30 58  1  0
 33 59  1  0
 34 60  1  0
M  END
>  <smiles>  (13) 
O=C(NCC(=O)N1C[C@H](O)C[C@H]1C(=O)N[C@H](CO)c1ccc(Cl)cc1)c1ccc2cc(F)ccc2n1

>  <score_type>  (13) 
oracle

>  <origin>  (13) 
autodockgpu

>  <m_score__min__energy>  (13) 
-8.8599999999999994

>  <m_primary>  (13) 
energy

>  <meeko>  (13) 
{"free_energy": -6.97, "intermolecular_energy": -9.96, "internal_energy": -4.84, "cluster_size": 1, "cluster_id": 9, "rank_in_cluster": 1}

>  <energy>  (13) 
-7.0

>  <cluster_rmsd>  (13) 
0.0

>  <rmsd>  (13) 
270.24

>  <cluster>  (13) 
7

$$$$

     RDKit          3D

 60 63  0  0  0  0  0  0  0  0999 V2000
  135.3460   71.9690  222.8430 O   0  0  0  0  0  0  0  0  0  0  0  0
  136.5790   72.1320  223.0970 C   0  0  0  0  0  0  0  0  0  0  0  0
  137.1460   73.3450  222.5650 N   0  0  0  0  0  0  0  0  0  0  0  0
  136.2510   74.1980  221.8280 C   0  0  0  0  0  0  0  0  0  0  0  0
  137.0030   75.2200  221.0360 C   0  0  0  0  0  0  0  0  0  0  0  0
  136.8600   75.1630  219.7870 O   0  0  0  0  0  0  0  0  0  0  0  0
  137.8330   76.2040  221.6730 N   0  0  0  0  0  0  0  0  0  0  0  0
  137.3160   77.1310  222.6470 C   0  0  0  0  0  0  0  0  0  0  0  0
  138.4500   78.1650  222.7080 C   0  0  2  0  0  0  0  0  0  0  0  0
  138.2960   79.0530  221.6390 O   0  0  0  0  0  0  0  0  0  0  0  0
  139.6940   77.3480  222.4310 C   0  0  0  0  0  0  0  0  0  0  0  0
  139.2320   76.3640  221.4010 C   0  0  1  0  0  0  0  0  0  0  0  0
  139.9980   75.0820  221.4830 C   0  0  0  0  0  0  0  0  0  0  0  0
  140.8860   74.8660  222.3420 O   0  0  0  0  0  0  0  0  0  0  0  0
  139.6430   74.0970  220.4930 N   0  0  0  0  0  0  0  0  0  0  0  0
  140.2720   72.8110  220.4180 C   0  0  2  0  0  0  0  0  0  0  0  0
  139.9670   71.9360  221.6030 C   0  0  0  0  0  0  0  0  0  0  0  0
  140.3200   72.6430  222.7600 O   0  0  0  0  0  0  0  0  0  0  0  0
  141.7550   73.0500  220.4360 C   0  0  0  0  0  0  0  0  0  0  0  0
  142.3100   74.2040  219.9020 C   0  0  0  0  0  0  0  0  0  0  0  0
  143.6750   74.4320  219.9140 C   0  0  0  0  0  0  0  0  0  0  0  0
  144.4990   73.4890  220.4720 C   0  0  0  0  0  0  0  0  0  0  0  0
  146.2450   73.7640  220.4960 Cl  0  0  0  0  0  0  0  0  0  0  0  0
  143.9940   72.3150  221.0210 C   0  0  0  0  0  0  0  0  0  0  0  0
  142.6320   72.1330  220.9860 C   0  0  0  0  0  0  0  0  0  0  0  0
  137.3770   71.2000  223.8520 C   0  0  0  0  0  0  0  0  0  0  0  0
  136.7860   69.9630  224.1440 C   0  0  0  0  0  0  0  0  0  0  0  0
  137.5220   69.0220  224.8730 C   0  0  0  0  0  0  0  0  0  0  0  0
  138.8050   69.3740  225.2690 C   0  0  0  0  0  0  0  0  0  0  0  0
  139.5650   68.4700  225.9920 C   0  0  0  0  0  0  0  0  0  0  0  0
  140.8420   68.8290  226.3810 C   0  0  0  0  0  0  0  0  0  0  0  0
  141.5770   67.9280  227.0930 F   0  0  0  0  0  0  0  0  0  0  0  0
  141.3830   70.0730  226.0650 C   0  0  0  0  0  0  0  0  0  0  0  0
  140.6200   70.9840  225.3370 C   0  0  0  0  0  0  0  0  0  0  0  0
  139.3460   70.6100  224.9550 C   0  0  0  0  0  0  0  0  0  0  0  0
  138.6250   71.5020  224.2530 N   0  0  0  0  0  0  0  0  0  0  0  0
  138.1680   73.5720  222.7240 H   0  0  0  0  0  0  0  0  0  0  0  0
  135.6528   73.5814  221.1410 H   0  0  0  0  0  0  0  0  0  0  0  0
  135.6025   74.7228  222.5450 H   0  0  0  0  0  0  0  0  0  0  0  0
  136.3733   77.5863  222.3092 H   0  0  0  0  0  0  0  0  0  0  0  0
  137.0690   76.6749  223.6170 H   0  0  0  0  0  0  0  0  0  0  0  0
  138.4757   78.7205  223.6571 H   0  0  0  0  0  0  0  0  0  0  0  0
  137.4720   78.8810  221.1260 H   0  0  0  0  0  0  0  0  0  0  0  0
  140.5027   77.9812  222.0373 H   0  0  0  0  0  0  0  0  0  0  0  0
  140.1064   76.8696  223.3316 H   0  0  0  0  0  0  0  0  0  0  0  0
  139.4031   76.7085  220.3704 H   0  0  0  0  0  0  0  0  0  0  0  0
  138.8920   74.2980  219.7740 H   0  0  0  0  0  0  0  0  0  0  0  0
  139.9045   72.3066  219.5122 H   0  0  0  0  0  0  0  0  0  0  0  0
  138.8938   71.6957  221.6242 H   0  0  0  0  0  0  0  0  0  0  0  0
  140.5322   70.9944  221.5408 H   0  0  0  0  0  0  0  0  0  0  0  0
  139.5030   73.1380  223.0430 H   0  0  0  0  0  0  0  0  0  0  0  0
  141.6461   74.9594  219.4563 H   0  0  0  0  0  0  0  0  0  0  0  0
  144.0918   75.3543  219.4831 H   0  0  0  0  0  0  0  0  0  0  0  0
  144.6594   71.5607  221.4663 H   0  0  0  0  0  0  0  0  0  0  0  0
  142.2181   71.2099  221.4179 H   0  0  0  0  0  0  0  0  0  0  0  0
  135.7638   69.7363  223.8068 H   0  0  0  0  0  0  0  0  0  0  0  0
  137.0987   68.0381  225.1234 H   0  0  0  0  0  0  0  0  0  0  0  0
  139.1589   67.4815  226.2528 H   0  0  0  0  0  0  0  0  0  0  0  0
  142.4021   70.3337  226.3868 H   0  0  0  0  0  0  0  0  0  0  0  0
  141.0211   71.9738  225.0737 H   0  0  0  0  0  0  0  0  0  0  0  0
  1  2  2  0
  2  3  1  0
  3  4  1  0
  4  5  1  0
  5  6  2  0
  5  7  1  0
  7  8  1  0
  8  9  1  0
  9 10  1  0
  9 11  1  0
 11 12  1  0
 12 13  1  0
 13 14  2  0
 13 15  1  0
 15 16  1  0
 16 17  1  0
 17 18  1  0
 16 19  1  0
 19 20  2  0
 20 21  1  0
 21 22  2  0
 22 23  1  0
 22 24  1  0
 24 25  2  0
  2 26  1  0
 26 27  2  0
 27 28  1  0
 28 29  2  0
 29 30  1  0
 30 31  2  0
 31 32  1  0
 31 33  1  0
 33 34  2  0
 34 35  1  0
 35 36  2  0
 12  7  1  0
 25 19  1  0
 36 26  1  0
 35 29  1  0
  3 37  1  0
  4 38  1  0
  4 39  1  0
  8 40  1  0
  8 41  1  0
  9 42  1  1
 10 43  1  0
 11 44  1  0
 11 45  1  0
 12 46  1  6
 15 47  1  0
 16 48  1  6
 17 49  1  0
 17 50  1  0
 18 51  1  0
 20 52  1  0
 21 53  1  0
 24 54  1  0
 25 55  1  0
 27 56  1  0
 28 57  1  0
 30 58  1  0
 33 59  1  0
 34 60  1  0
M  END
>  <smiles>  (14) 
O=C(NCC(=O)N1C[C@H](O)C[C@H]1C(=O)N[C@H](CO)c1ccc(Cl)cc1)c1ccc2cc(F)ccc2n1

>  <score_type>  (14) 
oracle

>  <origin>  (14) 
autodockgpu

>  <m_score__min__energy>  (14) 
-8.8599999999999994

>  <m_primary>  (14) 
energy

>  <meeko>  (14) 
{"free_energy": -7.0, "intermolecular_energy": -9.99, "internal_energy": -4.32, "cluster_size": 1, "cluster_id": 7, "rank_in_cluster": 1}

>  <energy>  (14) 
-6.99

>  <cluster_rmsd>  (14) 
0.0

>  <rmsd>  (14) 
270.48

>  <cluster>  (14) 
8

$$$$

     RDKit          3D

 60 63  0  0  0  0  0  0  0  0999 V2000
  140.3400   71.6470  221.0830 O   0  0  0  0  0  0  0  0  0  0  0  0
  140.0540   72.1440  222.2160 C   0  0  0  0  0  0  0  0  0  0  0  0
  139.8210   73.5660  222.2050 N   0  0  0  0  0  0  0  0  0  0  0  0
  139.9420   74.2220  220.9300 C   0  0  0  0  0  0  0  0  0  0  0  0
  141.0500   75.2270  220.9380 C   0  0  0  0  0  0  0  0  0  0  0  0
  141.4580   75.5860  222.0730 O   0  0  0  0  0  0  0  0  0  0  0  0
  141.6080   75.7420  219.7190 N   0  0  0  0  0  0  0  0  0  0  0  0
  141.4470   75.0690  218.4560 C   0  0  0  0  0  0  0  0  0  0  0  0
  142.5110   75.7750  217.6020 C   0  0  2  0  0  0  0  0  0  0  0  0
  143.7510   75.1850  217.8680 O   0  0  0  0  0  0  0  0  0  0  0  0
  142.5540   77.1770  218.1710 C   0  0  0  0  0  0  0  0  0  0  0  0
  142.3730   76.9520  219.6410 C   0  0  1  0  0  0  0  0  0  0  0  0
  141.7030   78.1170  220.2970 C   0  0  0  0  0  0  0  0  0  0  0  0
  141.1570   79.0460  219.6550 O   0  0  0  0  0  0  0  0  0  0  0  0
  141.7270   78.1010  221.7370 N   0  0  0  0  0  0  0  0  0  0  0  0
  141.1350   79.1350  222.5350 C   0  0  2  0  0  0  0  0  0  0  0  0
  141.6430   79.1510  223.9510 C   0  0  0  0  0  0  0  0  0  0  0  0
  142.1760   77.8850  224.2290 O   0  0  0  0  0  0  0  0  0  0  0  0
  139.6650   78.8350  222.6140 C   0  0  0  0  0  0  0  0  0  0  0  0
  138.7340   79.8300  222.8730 C   0  0  0  0  0  0  0  0  0  0  0  0
  137.3780   79.5620  222.9480 C   0  0  0  0  0  0  0  0  0  0  0  0
  136.9470   78.2740  222.7590 C   0  0  0  0  0  0  0  0  0  0  0  0
  135.2190   77.9140  222.8510 Cl  0  0  0  0  0  0  0  0  0  0  0  0
  137.8380   77.2390  222.4970 C   0  0  0  0  0  0  0  0  0  0  0  0
  139.1750   77.5540  222.4310 C   0  0  0  0  0  0  0  0  0  0  0  0
  139.9620   71.3790  223.4330 C   0  0  0  0  0  0  0  0  0  0  0  0
  139.3450   70.1240  223.3390 C   0  0  0  0  0  0  0  0  0  0  0  0
  139.2330   69.3410  224.4920 C   0  0  0  0  0  0  0  0  0  0  0  0
  139.7440   69.8600  225.6750 C   0  0  0  0  0  0  0  0  0  0  0  0
  139.6530   69.1160  226.8380 C   0  0  0  0  0  0  0  0  0  0  0  0
  140.1660   69.6400  228.0110 C   0  0  0  0  0  0  0  0  0  0  0  0
  140.0680   68.8950  229.1480 F   0  0  0  0  0  0  0  0  0  0  0  0
  140.7700   70.8940  228.0510 C   0  0  0  0  0  0  0  0  0  0  0  0
  140.8630   71.6450  226.8810 C   0  0  0  0  0  0  0  0  0  0  0  0
  140.3460   71.1070  225.7170 C   0  0  0  0  0  0  0  0  0  0  0  0
  140.4460   71.8450  224.5980 N   0  0  0  0  0  0  0  0  0  0  0  0
  139.5760   74.0740  223.1000 H   0  0  0  0  0  0  0  0  0  0  0  0
  140.1487   73.4672  220.1570 H   0  0  0  0  0  0  0  0  0  0  0  0
  138.9988   74.7473  220.7192 H   0  0  0  0  0  0  0  0  0  0  0  0
  141.6513   73.9918  218.5446 H   0  0  0  0  0  0  0  0  0  0  0  0
  140.4289   75.1229  218.0430 H   0  0  0  0  0  0  0  0  0  0  0  0
  142.2974   75.7319  216.5238 H   0  0  0  0  0  0  0  0  0  0  0  0
  144.4900   75.8360  217.8270 H   0  0  0  0  0  0  0  0  0  0  0  0
  143.5203   77.6590  217.9612 H   0  0  0  0  0  0  0  0  0  0  0  0
  141.7930   77.8431  217.7383 H   0  0  0  0  0  0  0  0  0  0  0  0
  143.3263   76.8576  220.1817 H   0  0  0  0  0  0  0  0  0  0  0  0
  142.1940   77.3090  222.2620 H   0  0  0  0  0  0  0  0  0  0  0  0
  141.3772   80.1021  222.0703 H   0  0  0  0  0  0  0  0  0  0  0  0
  142.4240   79.9180  224.0598 H   0  0  0  0  0  0  0  0  0  0  0  0
  140.8265   79.3861  224.6496 H   0  0  0  0  0  0  0  0  0  0  0  0
  141.8100   77.2710  223.5350 H   0  0  0  0  0  0  0  0  0  0  0  0
  139.0834   80.8622  223.0232 H   0  0  0  0  0  0  0  0  0  0  0  0
  136.6588   80.3680  223.1556 H   0  0  0  0  0  0  0  0  0  0  0  0
  137.4866   76.2073  222.3482 H   0  0  0  0  0  0  0  0  0  0  0  0
  139.8917   76.7461  222.2220 H   0  0  0  0  0  0  0  0  0  0  0  0
  138.9561   69.7618  222.3759 H   0  0  0  0  0  0  0  0  0  0  0  0
  138.7573   68.3496  224.4634 H   0  0  0  0  0  0  0  0  0  0  0  0
  139.1799   68.1229  226.8300 H   0  0  0  0  0  0  0  0  0  0  0  0
  141.1698   71.2879  228.9970 H   0  0  0  0  0  0  0  0  0  0  0  0
  141.3348   72.6387  226.8834 H   0  0  0  0  0  0  0  0  0  0  0  0
  1  2  2  0
  2  3  1  0
  3  4  1  0
  4  5  1  0
  5  6  2  0
  5  7  1  0
  7  8  1  0
  8  9  1  0
  9 10  1  0
  9 11  1  0
 11 12  1  0
 12 13  1  0
 13 14  2  0
 13 15  1  0
 15 16  1  0
 16 17  1  0
 17 18  1  0
 16 19  1  0
 19 20  2  0
 20 21  1  0
 21 22  2  0
 22 23  1  0
 22 24  1  0
 24 25  2  0
  2 26  1  0
 26 27  2  0
 27 28  1  0
 28 29  2  0
 29 30  1  0
 30 31  2  0
 31 32  1  0
 31 33  1  0
 33 34  2  0
 34 35  1  0
 35 36  2  0
 12  7  1  0
 25 19  1  0
 36 26  1  0
 35 29  1  0
  3 37  1  0
  4 38  1  0
  4 39  1  0
  8 40  1  0
  8 41  1  0
  9 42  1  6
 10 43  1  0
 11 44  1  0
 11 45  1  0
 12 46  1  1
 15 47  1  0
 16 48  1  6
 17 49  1  0
 17 50  1  0
 18 51  1  0
 20 52  1  0
 21 53  1  0
 24 54  1  0
 25 55  1  0
 27 56  1  0
 28 57  1  0
 30 58  1  0
 33 59  1  0
 34 60  1  0
M  END
>  <smiles>  (15) 
O=C(NCC(=O)N1C[C@H](O)C[C@H]1C(=O)N[C@H](CO)c1ccc(Cl)cc1)c1ccc2cc(F)ccc2n1

>  <score_type>  (15) 
oracle

>  <origin>  (15) 
autodockgpu

>  <m_score__min__energy>  (15) 
-8.8599999999999994

>  <m_primary>  (15) 
energy

>  <meeko>  (15) 
{"free_energy": -8.57, "intermolecular_energy": -11.55, "internal_energy": -4.13, "cluster_size": 4, "cluster_id": 1, "rank_in_cluster": 4}

>  <energy>  (15) 
-6.97

>  <cluster_rmsd>  (15) 
0.0

>  <rmsd>  (15) 
270.34

>  <cluster>  (15) 
9

$$$$

     RDKit          3D

 60 63  0  0  0  0  0  0  0  0999 V2000
  139.4150   75.2970  222.3810 O   0  0  0  0  0  0  0  0  0  0  0  0
  138.3570   75.8350  221.9320 C   0  0  0  0  0  0  0  0  0  0  0  0
  138.3990   76.1610  220.5290 N   0  0  0  0  0  0  0  0  0  0  0  0
  139.6170   75.8360  219.8350 C   0  0  0  0  0  0  0  0  0  0  0  0
  139.9590   74.3880  219.9850 C   0  0  0  0  0  0  0  0  0  0  0  0
  139.0030   73.5810  219.8510 O   0  0  0  0  0  0  0  0  0  0  0  0
  141.3000   73.9560  220.2630 N   0  0  0  0  0  0  0  0  0  0  0  0
  142.3060   74.8540  220.7690 C   0  0  0  0  0  0  0  0  0  0  0  0
  143.5850   74.0400  220.5220 C   0  0  2  0  0  0  0  0  0  0  0  0
  143.9660   74.2110  219.1870 O   0  0  0  0  0  0  0  0  0  0  0  0
  143.1310   72.6040  220.6740 C   0  0  0  0  0  0  0  0  0  0  0  0
  141.7640   72.6140  220.0620 C   0  0  1  0  0  0  0  0  0  0  0  0
  140.8760   71.5840  220.6830 C   0  0  0  0  0  0  0  0  0  0  0  0
  140.9480   70.3610  220.4120 O   0  0  0  0  0  0  0  0  0  0  0  0
  139.9160   72.0980  221.6270 N   0  0  0  0  0  0  0  0  0  0  0  0
  138.9830   71.2580  222.3200 C   0  0  2  0  0  0  0  0  0  0  0  0
  137.6100   71.8650  222.4270 C   0  0  0  0  0  0  0  0  0  0  0  0
  137.7020   73.2030  222.0210 O   0  0  0  0  0  0  0  0  0  0  0  0
  139.4930   71.1080  223.7250 C   0  0  0  0  0  0  0  0  0  0  0  0
  140.5310   71.8920  224.2080 C   0  0  0  0  0  0  0  0  0  0  0  0
  141.0070   71.7600  225.5010 C   0  0  0  0  0  0  0  0  0  0  0  0
  140.4320   70.8280  226.3260 C   0  0  0  0  0  0  0  0  0  0  0  0
  141.0270   70.6460  227.9800 Cl  0  0  0  0  0  0  0  0  0  0  0  0
  139.3890   70.0170  225.8920 C   0  0  0  0  0  0  0  0  0  0  0  0
  138.9500   70.1840  224.6000 C   0  0  0  0  0  0  0  0  0  0  0  0
  137.1910   76.1140  222.7310 C   0  0  0  0  0  0  0  0  0  0  0  0
  136.7190   77.4340  222.7120 C   0  0  0  0  0  0  0  0  0  0  0  0
  135.5880   77.7540  223.4690 C   0  0  0  0  0  0  0  0  0  0  0  0
  134.9950   76.7370  224.2050 C   0  0  0  0  0  0  0  0  0  0  0  0
  133.8740   77.0150  224.9680 C   0  0  0  0  0  0  0  0  0  0  0  0
  133.2900   75.9950  225.6960 C   0  0  0  0  0  0  0  0  0  0  0  0
  132.1870   76.2840  226.4430 F   0  0  0  0  0  0  0  0  0  0  0  0
  133.7990   74.6990  225.6820 C   0  0  0  0  0  0  0  0  0  0  0  0
  134.9280   74.4170  224.9150 C   0  0  0  0  0  0  0  0  0  0  0  0
  135.4990   75.4470  224.1920 C   0  0  0  0  0  0  0  0  0  0  0  0
  136.5870   75.1560  223.4570 N   0  0  0  0  0  0  0  0  0  0  0  0
  137.5650   76.6140  220.0600 H   0  0  0  0  0  0  0  0  0  0  0  0
  139.4927   76.0658  218.7665 H   0  0  0  0  0  0  0  0  0  0  0  0
  140.4332   76.4319  220.2693 H   0  0  0  0  0  0  0  0  0  0  0  0
  142.3175   75.8019  220.2110 H   0  0  0  0  0  0  0  0  0  0  0  0
  142.1573   75.1538  221.8168 H   0  0  0  0  0  0  0  0  0  0  0  0
  144.4122   74.3251  221.1886 H   0  0  0  0  0  0  0  0  0  0  0  0
  144.8310   74.6750  219.1020 H   0  0  0  0  0  0  0  0  0  0  0  0
  143.8007   71.9187  220.1337 H   0  0  0  0  0  0  0  0  0  0  0  0
  143.1351   72.2571  221.7179 H   0  0  0  0  0  0  0  0  0  0  0  0
  141.7694   72.3481  218.9946 H   0  0  0  0  0  0  0  0  0  0  0  0
  139.8690   73.1330  221.8420 H   0  0  0  0  0  0  0  0  0  0  0  0
  138.9003   70.3126  221.7638 H   0  0  0  0  0  0  0  0  0  0  0  0
  136.9091   71.3231  221.7749 H   0  0  0  0  0  0  0  0  0  0  0  0
  137.2404   71.8011  223.4611 H   0  0  0  0  0  0  0  0  0  0  0  0
  138.0410   73.7090  222.8090 H   0  0  0  0  0  0  0  0  0  0  0  0
  140.9889   72.6401  223.5441 H   0  0  0  0  0  0  0  0  0  0  0  0
  141.8324   72.3920  225.8605 H   0  0  0  0  0  0  0  0  0  0  0  0
  138.9323   69.2698  226.5577 H   0  0  0  0  0  0  0  0  0  0  0  0
  138.1245   69.5504  224.2435 H   0  0  0  0  0  0  0  0  0  0  0  0
  137.2287   78.2031  222.1131 H   0  0  0  0  0  0  0  0  0  0  0  0
  135.1820   78.7762  223.4811 H   0  0  0  0  0  0  0  0  0  0  0  0
  133.4544   78.0315  224.9947 H   0  0  0  0  0  0  0  0  0  0  0  0
  133.3149   73.9057  226.2704 H   0  0  0  0  0  0  0  0  0  0  0  0
  135.3527   73.4027  224.8859 H   0  0  0  0  0  0  0  0  0  0  0  0
  1  2  2  0
  2  3  1  0
  3  4  1  0
  4  5  1  0
  5  6  2  0
  5  7  1  0
  7  8  1  0
  8  9  1  0
  9 10  1  0
  9 11  1  0
 11 12  1  0
 12 13  1  0
 13 14  2  0
 13 15  1  0
 15 16  1  0
 16 17  1  0
 17 18  1  0
 16 19  1  0
 19 20  2  0
 20 21  1  0
 21 22  2  0
 22 23  1  0
 22 24  1  0
 24 25  2  0
  2 26  1  0
 26 27  2  0
 27 28  1  0
 28 29  2  0
 29 30  1  0
 30 31  2  0
 31 32  1  0
 31 33  1  0
 33 34  2  0
 34 35  1  0
 35 36  2  0
 12  7  1  0
 25 19  1  0
 36 26  1  0
 35 29  1  0
  3 37  1  0
  4 38  1  0
  4 39  1  0
  8 40  1  0
  8 41  1  0
  9 42  1  1
 10 43  1  0
 11 44  1  0
 11 45  1  0
 12 46  1  6
 15 47  1  0
 16 48  1  6
 17 49  1  0
 17 50  1  0
 18 51  1  0
 20 52  1  0
 21 53  1  0
 24 54  1  0
 25 55  1  0
 27 56  1  0
 28 57  1  0
 30 58  1  0
 33 59  1  0
 34 60  1  0
M  END
>  <smiles>  (16) 
O=C(NCC(=O)N1C[C@H](O)C[C@H]1C(=O)N[C@H](CO)c1ccc(Cl)cc1)c1ccc2cc(F)ccc2n1

>  <score_type>  (16) 
oracle

>  <origin>  (16) 
autodockgpu

>  <m_score__min__energy>  (16) 
-8.8599999999999994

>  <m_primary>  (16) 
energy

>  <meeko>  (16) 
{"free_energy": -5.9, "intermolecular_energy": -8.88, "internal_energy": -5.11, "cluster_size": 1, "cluster_id": 12, "rank_in_cluster": 1}

>  <energy>  (16) 
-6.81

>  <cluster_rmsd>  (16) 
0.0

>  <rmsd>  (16) 
270.01

>  <cluster>  (16) 
10

$$$$

     RDKit          3D

 60 63  0  0  0  0  0  0  0  0999 V2000
  140.7580   76.2320  222.4290 O   0  0  0  0  0  0  0  0  0  0  0  0
  140.5030   77.2010  221.6510 C   0  0  0  0  0  0  0  0  0  0  0  0
  140.9960   77.0360  220.3060 N   0  0  0  0  0  0  0  0  0  0  0  0
  141.6990   75.8110  220.0300 C   0  0  0  0  0  0  0  0  0  0  0  0
  142.9980   76.0740  219.3370 C   0  0  0  0  0  0  0  0  0  0  0  0
  143.9950   76.2490  220.0840 O   0  0  0  0  0  0  0  0  0  0  0  0
  143.0900   76.1200  217.9050 N   0  0  0  0  0  0  0  0  0  0  0  0
  143.1200   74.9260  217.0990 C   0  0  0  0  0  0  0  0  0  0  0  0
  143.6060   75.4850  215.7530 C   0  0  2  0  0  0  0  0  0  0  0  0
  144.9990   75.6010  215.8020 O   0  0  0  0  0  0  0  0  0  0  0  0
  143.0440   76.8890  215.7240 C   0  0  0  0  0  0  0  0  0  0  0  0
  143.1710   77.3350  217.1480 C   0  0  1  0  0  0  0  0  0  0  0  0
  142.1110   78.3250  217.5110 C   0  0  0  0  0  0  0  0  0  0  0  0
  140.9230   78.0020  217.7550 O   0  0  0  0  0  0  0  0  0  0  0  0
  142.5500   79.6970  217.5610 N   0  0  0  0  0  0  0  0  0  0  0  0
  141.6720   80.7820  217.8900 C   0  0  2  0  0  0  0  0  0  0  0  0
  142.0930   82.0880  217.2740 C   0  0  0  0  0  0  0  0  0  0  0  0
  143.4660   82.0120  217.0040 O   0  0  0  0  0  0  0  0  0  0  0  0
  141.7510   80.9680  219.3780 C   0  0  0  0  0  0  0  0  0  0  0  0
  141.3760   82.1600  219.9820 C   0  0  0  0  0  0  0  0  0  0  0  0
  141.4470   82.3400  221.3520 C   0  0  0  0  0  0  0  0  0  0  0  0
  141.9000   81.3080  222.1330 C   0  0  0  0  0  0  0  0  0  0  0  0
  141.9970   81.5210  223.8840 Cl  0  0  0  0  0  0  0  0  0  0  0  0
  142.2890   80.0930  221.5790 C   0  0  0  0  0  0  0  0  0  0  0  0
  142.2010   79.9610  220.2140 C   0  0  0  0  0  0  0  0  0  0  0  0
  139.7850   78.3860  222.0450 C   0  0  0  0  0  0  0  0  0  0  0  0
  139.7080   78.6420  223.4210 C   0  0  0  0  0  0  0  0  0  0  0  0
  139.0230   79.7820  223.8550 C   0  0  0  0  0  0  0  0  0  0  0  0
  138.4530   80.5990  222.8880 C   0  0  0  0  0  0  0  0  0  0  0  0
  137.7670   81.7360  223.2770 C   0  0  0  0  0  0  0  0  0  0  0  0
  137.2040   82.5440  222.3070 C   0  0  0  0  0  0  0  0  0  0  0  0
  136.5310   83.6600  222.7070 F   0  0  0  0  0  0  0  0  0  0  0  0
  137.3090   82.2440  220.9510 C   0  0  0  0  0  0  0  0  0  0  0  0
  137.9990   81.1000  220.5560 C   0  0  0  0  0  0  0  0  0  0  0  0
  138.5570   80.3030  221.5380 C   0  0  0  0  0  0  0  0  0  0  0  0
  139.2190   79.2040  221.1390 N   0  0  0  0  0  0  0  0  0  0  0  0
  140.8340   77.7910  219.5820 H   0  0  0  0  0  0  0  0  0  0  0  0
  141.8979   75.2905  220.9784 H   0  0  0  0  0  0  0  0  0  0  0  0
  141.0727   75.1924  219.3704 H   0  0  0  0  0  0  0  0  0  0  0  0
  143.8233   74.1837  217.5045 H   0  0  0  0  0  0  0  0  0  0  0  0
  142.1588   74.3937  217.0456 H   0  0  0  0  0  0  0  0  0  0  0  0
  143.3099   74.8628  214.8956 H   0  0  0  0  0  0  0  0  0  0  0  0
  145.3370   75.6590  216.7250 H   0  0  0  0  0  0  0  0  0  0  0  0
  143.6301   77.5352  215.0540 H   0  0  0  0  0  0  0  0  0  0  0  0
  142.0115   76.9338  215.3472 H   0  0  0  0  0  0  0  0  0  0  0  0
  144.1116   77.8694  217.3472 H   0  0  0  0  0  0  0  0  0  0  0  0
  143.5560   79.9510  217.3500 H   0  0  0  0  0  0  0  0  0  0  0  0
  140.6682   80.5318  217.5161 H   0  0  0  0  0  0  0  0  0  0  0  0
  141.5369   82.2576  216.3402 H   0  0  0  0  0  0  0  0  0  0  0  0
  141.8821   82.9217  217.9599 H   0  0  0  0  0  0  0  0  0  0  0  0
  143.5820   81.2550  216.3660 H   0  0  0  0  0  0  0  0  0  0  0  0
  141.0117   82.9857  219.3531 H   0  0  0  0  0  0  0  0  0  0  0  0
  141.1451   83.2949  221.8070 H   0  0  0  0  0  0  0  0  0  0  0  0
  142.6534   79.2688  222.2098 H   0  0  0  0  0  0  0  0  0  0  0  0
  142.5041   79.0050  219.7622 H   0  0  0  0  0  0  0  0  0  0  0  0
  140.1770   77.9599  224.1454 H   0  0  0  0  0  0  0  0  0  0  0  0
  138.9389   80.0226  224.9251 H   0  0  0  0  0  0  0  0  0  0  0  0
  137.6711   81.9930  224.3422 H   0  0  0  0  0  0  0  0  0  0  0  0
  136.8516   82.9040  220.1992 H   0  0  0  0  0  0  0  0  0  0  0  0
  138.0970   80.8382  219.4921 H   0  0  0  0  0  0  0  0  0  0  0  0
  1  2  2  0
  2  3  1  0
  3  4  1  0
  4  5  1  0
  5  6  2  0
  5  7  1  0
  7  8  1  0
  8  9  1  0
  9 10  1  0
  9 11  1  0
 11 12  1  0
 12 13  1  0
 13 14  2  0
 13 15  1  0
 15 16  1  0
 16 17  1  0
 17 18  1  0
 16 19  1  0
 19 20  2  0
 20 21  1  0
 21 22  2  0
 22 23  1  0
 22 24  1  0
 24 25  2  0
  2 26  1  0
 26 27  2  0
 27 28  1  0
 28 29  2  0
 29 30  1  0
 30 31  2  0
 31 32  1  0
 31 33  1  0
 33 34  2  0
 34 35  1  0
 35 36  2  0
 12  7  1  0
 25 19  1  0
 36 26  1  0
 35 29  1  0
  3 37  1  0
  4 38  1  0
  4 39  1  0
  8 40  1  0
  8 41  1  0
  9 42  1  6
 10 43  1  0
 11 44  1  0
 11 45  1  0
 12 46  1  6
 15 47  1  0
 16 48  1  1
 17 49  1  0
 17 50  1  0
 18 51  1  0
 20 52  1  0
 21 53  1  0
 24 54  1  0
 25 55  1  0
 27 56  1  0
 28 57  1  0
 30 58  1  0
 33 59  1  0
 34 60  1  0
M  END
>  <smiles>  (17) 
O=C(NCC(=O)N1C[C@H](O)C[C@H]1C(=O)N[C@H](CO)c1ccc(Cl)cc1)c1ccc2cc(F)ccc2n1

>  <score_type>  (17) 
oracle

>  <origin>  (17) 
autodockgpu

>  <m_score__min__energy>  (17) 
-8.8599999999999994

>  <m_primary>  (17) 
energy

>  <meeko>  (17) 
{"free_energy": -6.2, "intermolecular_energy": -9.18, "internal_energy": -5.28, "cluster_size": 1, "cluster_id": 11, "rank_in_cluster": 1}

>  <energy>  (17) 
-6.75

>  <cluster_rmsd>  (17) 
0.2

>  <rmsd>  (17) 
269.99

>  <cluster>  (17) 
10

$$$$

     RDKit          3D

 60 63  0  0  0  0  0  0  0  0999 V2000
  140.4320   76.8900  219.2960 O   0  0  0  0  0  0  0  0  0  0  0  0
  141.1850   77.4760  220.1330 C   0  0  0  0  0  0  0  0  0  0  0  0
  142.5910   77.2100  219.9640 N   0  0  0  0  0  0  0  0  0  0  0  0
  142.9480   76.3280  218.8840 C   0  0  0  0  0  0  0  0  0  0  0  0
  142.5390   74.9200  219.1740 C   0  0  0  0  0  0  0  0  0  0  0  0
  141.3560   74.6170  218.8710 O   0  0  0  0  0  0  0  0  0  0  0  0
  143.4480   73.9770  219.7620 N   0  0  0  0  0  0  0  0  0  0  0  0
  144.6080   74.3930  220.5090 C   0  0  0  0  0  0  0  0  0  0  0  0
  145.4120   73.0850  220.5670 C   0  0  2  0  0  0  0  0  0  0  0  0
  146.1170   72.9480  219.3670 O   0  0  0  0  0  0  0  0  0  0  0  0
  144.3470   72.0100  220.5830 C   0  0  0  0  0  0  0  0  0  0  0  0
  143.3010   72.5540  219.6590 C   0  0  1  0  0  0  0  0  0  0  0  0
  141.9350   72.0750  220.0320 C   0  0  0  0  0  0  0  0  0  0  0  0
  141.5060   70.9310  219.7470 O   0  0  0  0  0  0  0  0  0  0  0  0
  141.1300   73.0300  220.7500 N   0  0  0  0  0  0  0  0  0  0  0  0
  139.7940   72.7470  221.1880 C   0  0  2  0  0  0  0  0  0  0  0  0
  139.0410   73.9760  221.6180 C   0  0  0  0  0  0  0  0  0  0  0  0
  139.9340   75.0560  221.5910 O   0  0  0  0  0  0  0  0  0  0  0  0
  139.9120   71.8730  222.4040 C   0  0  0  0  0  0  0  0  0  0  0  0
  140.6910   72.2420  223.4900 C   0  0  0  0  0  0  0  0  0  0  0  0
  140.8060   71.4420  224.6140 C   0  0  0  0  0  0  0  0  0  0  0  0
  140.1270   70.2520  224.6510 C   0  0  0  0  0  0  0  0  0  0  0  0
  140.2610   69.2180  226.0780 Cl  0  0  0  0  0  0  0  0  0  0  0  0
  139.3310   69.8340  223.5890 C   0  0  0  0  0  0  0  0  0  0  0  0
  139.2480   70.6620  222.4950 C   0  0  0  0  0  0  0  0  0  0  0  0
  140.7070   78.3430  221.1800 C   0  0  0  0  0  0  0  0  0  0  0  0
  141.6700   79.1170  221.8400 C   0  0  0  0  0  0  0  0  0  0  0  0
  141.2560   79.9770  222.8630 C   0  0  0  0  0  0  0  0  0  0  0  0
  139.9020   80.0100  223.1680 C   0  0  0  0  0  0  0  0  0  0  0  0
  139.4520   80.8480  224.1740 C   0  0  0  0  0  0  0  0  0  0  0  0
  138.1020   80.8760  224.4690 C   0  0  0  0  0  0  0  0  0  0  0  0
  137.6750   81.7050  225.4630 F   0  0  0  0  0  0  0  0  0  0  0  0
  137.1840   80.0840  223.7820 C   0  0  0  0  0  0  0  0  0  0  0  0
  137.6340   79.2400  222.7690 C   0  0  0  0  0  0  0  0  0  0  0  0
  138.9870   79.2250  222.4850 C   0  0  0  0  0  0  0  0  0  0  0  0
  139.4030   78.4050  221.5040 N   0  0  0  0  0  0  0  0  0  0  0  0
  143.3010   77.6530  220.6130 H   0  0  0  0  0  0  0  0  0  0  0  0
  142.4455   76.6650  217.9653 H   0  0  0  0  0  0  0  0  0  0  0  0
  144.0409   76.3536  218.7620 H   0  0  0  0  0  0  0  0  0  0  0  0
  145.1631   75.1842  219.9837 H   0  0  0  0  0  0  0  0  0  0  0  0
  144.3788   74.8256  221.4941 H   0  0  0  0  0  0  0  0  0  0  0  0
  146.1073   73.0436  221.4184 H   0  0  0  0  0  0  0  0  0  0  0  0
  146.3150   73.8170  218.9480 H   0  0  0  0  0  0  0  0  0  0  0  0
  144.7448   71.0546  220.2103 H   0  0  0  0  0  0  0  0  0  0  0  0
  143.9638   71.7961  221.5917 H   0  0  0  0  0  0  0  0  0  0  0  0
  143.4261   72.2126  218.6208 H   0  0  0  0  0  0  0  0  0  0  0  0
  141.5080   73.9920  220.9810 H   0  0  0  0  0  0  0  0  0  0  0  0
  139.2524   72.2871  220.3482 H   0  0  0  0  0  0  0  0  0  0  0  0
  138.2055   74.1638  220.9276 H   0  0  0  0  0  0  0  0  0  0  0  0
  138.6308   73.8414  222.6297 H   0  0  0  0  0  0  0  0  0  0  0  0
  140.1910   75.1800  220.6370 H   0  0  0  0  0  0  0  0  0  0  0  0
  141.2335   73.1984  223.4576 H   0  0  0  0  0  0  0  0  0  0  0  0
  141.4315   71.7560  225.4627 H   0  0  0  0  0  0  0  0  0  0  0  0
  138.7889   68.8775  223.6236 H   0  0  0  0  0  0  0  0  0  0  0  0
  138.6214   70.3458  221.6480 H   0  0  0  0  0  0  0  0  0  0  0  0
  142.7315   79.0500  221.5594 H   0  0  0  0  0  0  0  0  0  0  0  0
  141.9777   80.6047  223.4063 H   0  0  0  0  0  0  0  0  0  0  0  0
  140.1582   81.4820  224.7301 H   0  0  0  0  0  0  0  0  0  0  0  0
  136.1147   80.1248  224.0370 H   0  0  0  0  0  0  0  0  0  0  0  0
  136.9322   78.6031  222.2106 H   0  0  0  0  0  0  0  0  0  0  0  0
  1  2  2  0
  2  3  1  0
  3  4  1  0
  4  5  1  0
  5  6  2  0
  5  7  1  0
  7  8  1  0
  8  9  1  0
  9 10  1  0
  9 11  1  0
 11 12  1  0
 12 13  1  0
 13 14  2  0
 13 15  1  0
 15 16  1  0
 16 17  1  0
 17 18  1  0
 16 19  1  0
 19 20  2  0
 20 21  1  0
 21 22  2  0
 22 23  1  0
 22 24  1  0
 24 25  2  0
  2 26  1  0
 26 27  2  0
 27 28  1  0
 28 29  2  0
 29 30  1  0
 30 31  2  0
 31 32  1  0
 31 33  1  0
 33 34  2  0
 34 35  1  0
 35 36  2  0
 12  7  1  0
 25 19  1  0
 36 26  1  0
 35 29  1  0
  3 37  1  0
  4 38  1  0
  4 39  1  0
  8 40  1  0
  8 41  1  0
  9 42  1  1
 10 43  1  0
 11 44  1  0
 11 45  1  0
 12 46  1  6
 15 47  1  0
 16 48  1  6
 17 49  1  0
 17 50  1  0
 18 51  1  0
 20 52  1  0
 21 53  1  0
 24 54  1  0
 25 55  1  0
 27 56  1  0
 28 57  1  0
 30 58  1  0
 33 59  1  0
 34 60  1  0
M  END
>  <smiles>  (18) 
O=C(NCC(=O)N1C[C@H](O)C[C@H]1C(=O)N[C@H](CO)c1ccc(Cl)cc1)c1ccc2cc(F)ccc2n1

>  <score_type>  (18) 
oracle

>  <origin>  (18) 
autodockgpu

>  <m_score__min__energy>  (18) 
-8.8599999999999994

>  <m_primary>  (18) 
energy

>  <meeko>  (18) 
{"free_energy": -7.29, "intermolecular_energy": -10.27, "internal_energy": -4.57, "cluster_size": 2, "cluster_id": 5, "rank_in_cluster": 1}

>  <energy>  (18) 
-6.2

>  <cluster_rmsd>  (18) 
0.0

>  <rmsd>  (18) 
270.5

>  <cluster>  (18) 
11

$$$$

     RDKit          3D

 60 63  0  0  0  0  0  0  0  0999 V2000
  142.2710   80.8410  220.5140 O   0  0  0  0  0  0  0  0  0  0  0  0
  141.4730   79.9610  220.0680 C   0  0  0  0  0  0  0  0  0  0  0  0
  140.1430   80.4430  219.7920 N   0  0  0  0  0  0  0  0  0  0  0  0
  139.9020   81.8370  220.0550 C   0  0  0  0  0  0  0  0  0  0  0  0
  139.8360   82.1110  221.5230 C   0  0  0  0  0  0  0  0  0  0  0  0
  139.3110   83.2050  221.8560 O   0  0  0  0  0  0  0  0  0  0  0  0
  140.3410   81.1740  222.4870 N   0  0  0  0  0  0  0  0  0  0  0  0
  141.4740   81.4730  223.3260 C   0  0  0  0  0  0  0  0  0  0  0  0
  141.8330   80.0750  223.8520 C   0  0  2  0  0  0  0  0  0  0  0  0
  142.6020   79.4230  222.8830 O   0  0  0  0  0  0  0  0  0  0  0  0
  140.4990   79.3620  223.9160 C   0  0  0  0  0  0  0  0  0  0  0  0
  139.7850   79.8700  222.7020 C   0  0  1  0  0  0  0  0  0  0  0  0
  138.3040   79.8870  222.9020 C   0  0  0  0  0  0  0  0  0  0  0  0
  137.5770   78.8770  222.7420 O   0  0  0  0  0  0  0  0  0  0  0  0
  137.7580   81.1610  223.2960 N   0  0  0  0  0  0  0  0  0  0  0  0
  136.3580   81.3660  223.5320 C   0  0  2  0  0  0  0  0  0  0  0  0
  135.8510   82.6690  222.9750 C   0  0  0  0  0  0  0  0  0  0  0  0
  136.9230   83.5710  222.9540 O   0  0  0  0  0  0  0  0  0  0  0  0
  136.1750   81.4390  225.0210 C   0  0  0  0  0  0  0  0  0  0  0  0
  137.1150   82.0490  225.8390 C   0  0  0  0  0  0  0  0  0  0  0  0
  136.9540   82.1200  227.2120 C   0  0  0  0  0  0  0  0  0  0  0  0
  135.8310   81.5730  227.7760 C   0  0  0  0  0  0  0  0  0  0  0  0
  135.6100   81.6550  229.5270 Cl  0  0  0  0  0  0  0  0  0  0  0  0
  134.8570   80.9500  227.0020 C   0  0  0  0  0  0  0  0  0  0  0  0
  135.0610   80.9040  225.6430 C   0  0  0  0  0  0  0  0  0  0  0  0
  141.8320   78.5830  219.8460 C   0  0  0  0  0  0  0  0  0  0  0  0
  142.5590   78.3070  218.6800 C   0  0  0  0  0  0  0  0  0  0  0  0
  142.9350   76.9840  218.4200 C   0  0  0  0  0  0  0  0  0  0  0  0
  142.5580   76.0150  219.3390 C   0  0  0  0  0  0  0  0  0  0  0  0
  142.9090   74.6950  219.1170 C   0  0  0  0  0  0  0  0  0  0  0  0
  142.5310   73.7360  220.0390 C   0  0  0  0  0  0  0  0  0  0  0  0
  142.8840   72.4410  219.8060 F   0  0  0  0  0  0  0  0  0  0  0  0
  141.8060   74.0640  221.1830 C   0  0  0  0  0  0  0  0  0  0  0  0
  141.4510   75.3920  221.4080 C   0  0  0  0  0  0  0  0  0  0  0  0
  141.8370   76.3380  220.4780 C   0  0  0  0  0  0  0  0  0  0  0  0
  141.4860   77.6140  220.7130 N   0  0  0  0  0  0  0  0  0  0  0  0
  139.4030   79.7850  219.4170 H   0  0  0  0  0  0  0  0  0  0  0  0
  140.7178   82.4303  219.6164 H   0  0  0  0  0  0  0  0  0  0  0  0
  138.9355   82.1120  219.6074 H   0  0  0  0  0  0  0  0  0  0  0  0
  142.3005   81.9102  222.7465 H   0  0  0  0  0  0  0  0  0  0  0  0
  141.2696   82.2130  224.1138 H   0  0  0  0  0  0  0  0  0  0  0  0
  142.3767   80.1012  224.8079 H   0  0  0  0  0  0  0  0  0  0  0  0
  142.1000   79.2690  222.0500 H   0  0  0  0  0  0  0  0  0  0  0  0
  140.6315   78.2710  223.8688 H   0  0  0  0  0  0  0  0  0  0  0  0
  139.9514   79.5514  224.8510 H   0  0  0  0  0  0  0  0  0  0  0  0
  139.9249   79.2257  221.8215 H   0  0  0  0  0  0  0  0  0  0  0  0
  138.3860   82.0030  223.4250 H   0  0  0  0  0  0  0  0  0  0  0  0
  135.8083   80.5461  223.0466 H   0  0  0  0  0  0  0  0  0  0  0  0
  135.4698   82.5168  221.9545 H   0  0  0  0  0  0  0  0  0  0  0  0
  135.0316   83.0599  223.5962 H   0  0  0  0  0  0  0  0  0  0  0  0
  137.5800   83.2060  222.3000 H   0  0  0  0  0  0  0  0  0  0  0  0
  138.0143   82.4890  225.3833 H   0  0  0  0  0  0  0  0  0  0  0  0
  137.7145   82.6072  227.8398 H   0  0  0  0  0  0  0  0  0  0  0  0
  133.9582   80.5111  227.4597 H   0  0  0  0  0  0  0  0  0  0  0  0
  134.2987   80.4164  225.0177 H   0  0  0  0  0  0  0  0  0  0  0  0
  142.8288   79.1141  217.9830 H   0  0  0  0  0  0  0  0  0  0  0  0
  143.5090   76.7217  217.5191 H   0  0  0  0  0  0  0  0  0  0  0  0
  143.4803   74.4126  218.2204 H   0  0  0  0  0  0  0  0  0  0  0  0
  141.5170   73.2823  221.9009 H   0  0  0  0  0  0  0  0  0  0  0  0
  140.8787   75.6798  222.3022 H   0  0  0  0  0  0  0  0  0  0  0  0
  1  2  2  0
  2  3  1  0
  3  4  1  0
  4  5  1  0
  5  6  2  0
  5  7  1  0
  7  8  1  0
  8  9  1  0
  9 10  1  0
  9 11  1  0
 11 12  1  0
 12 13  1  0
 13 14  2  0
 13 15  1  0
 15 16  1  0
 16 17  1  0
 17 18  1  0
 16 19  1  0
 19 20  2  0
 20 21  1  0
 21 22  2  0
 22 23  1  0
 22 24  1  0
 24 25  2  0
  2 26  1  0
 26 27  2  0
 27 28  1  0
 28 29  2  0
 29 30  1  0
 30 31  2  0
 31 32  1  0
 31 33  1  0
 33 34  2  0
 34 35  1  0
 35 36  2  0
 12  7  1  0
 25 19  1  0
 36 26  1  0
 35 29  1  0
  3 37  1  0
  4 38  1  0
  4 39  1  0
  8 40  1  0
  8 41  1  0
  9 42  1  1
 10 43  1  0
 11 44  1  0
 11 45  1  0
 12 46  1  6
 15 47  1  0
 16 48  1  6
 17 49  1  0
 17 50  1  0
 18 51  1  0
 20 52  1  0
 21 53  1  0
 24 54  1  0
 25 55  1  0
 27 56  1  0
 28 57  1  0
 30 58  1  0
 33 59  1  0
 34 60  1  0
M  END
>  <smiles>  (19) 
O=C(NCC(=O)N1C[C@H](O)C[C@H]1C(=O)N[C@H](CO)c1ccc(Cl)cc1)c1ccc2cc(F)ccc2n1

>  <score_type>  (19) 
oracle

>  <origin>  (19) 
autodockgpu

>  <m_score__min__energy>  (19) 
-8.8599999999999994

>  <m_primary>  (19) 
energy

>  <meeko>  (19) 
{"free_energy": -5.45, "intermolecular_energy": -8.43, "internal_energy": -5.69, "cluster_size": 1, "cluster_id": 13, "rank_in_cluster": 1}

>  <energy>  (19) 
-5.9

>  <cluster_rmsd>  (19) 
0.0

>  <rmsd>  (19) 
270.15

>  <cluster>  (19) 
12

$$$$

     RDKit          3D

 60 63  0  0  0  0  0  0  0  0999 V2000
  140.6460   71.8300  221.1160 O   0  0  0  0  0  0  0  0  0  0  0  0
  140.1760   72.2440  222.2200 C   0  0  0  0  0  0  0  0  0  0  0  0
  139.6990   73.6040  222.1960 N   0  0  0  0  0  0  0  0  0  0  0  0
  139.8180   74.3000  220.9420 C   0  0  0  0  0  0  0  0  0  0  0  0
  141.0050   75.2090  220.9340 C   0  0  0  0  0  0  0  0  0  0  0  0
  141.4350   75.5620  222.0630 O   0  0  0  0  0  0  0  0  0  0  0  0
  141.6120   75.6450  219.7080 N   0  0  0  0  0  0  0  0  0  0  0  0
  141.4280   74.9370  218.4660 C   0  0  0  0  0  0  0  0  0  0  0  0
  142.5460   75.5460  217.6070 C   0  0  2  0  0  0  0  0  0  0  0  0
  143.7440   74.8920  217.9130 O   0  0  0  0  0  0  0  0  0  0  0  0
  142.6670   76.9620  218.1270 C   0  0  0  0  0  0  0  0  0  0  0  0
  142.4510   76.8030  219.6000 C   0  0  1  0  0  0  0  0  0  0  0  0
  141.8440   78.0290  220.2030 C   0  0  0  0  0  0  0  0  0  0  0  0
  141.4020   78.9830  219.5200 O   0  0  0  0  0  0  0  0  0  0  0  0
  141.8020   78.0420  221.6430 N   0  0  0  0  0  0  0  0  0  0  0  0
  141.2560   79.1350  222.3930 C   0  0  2  0  0  0  0  0  0  0  0  0
  141.8090   79.2240  223.7900 C   0  0  0  0  0  0  0  0  0  0  0  0
  142.0690   77.9210  224.2320 O   0  0  0  0  0  0  0  0  0  0  0  0
  139.7840   78.8730  222.5340 C   0  0  0  0  0  0  0  0  0  0  0  0
  138.8930   79.8880  222.8510 C   0  0  0  0  0  0  0  0  0  0  0  0
  137.5350   79.6560  222.9830 C   0  0  0  0  0  0  0  0  0  0  0  0
  137.0600   78.3840  222.7940 C   0  0  0  0  0  0  0  0  0  0  0  0
  135.3290   78.0690  222.9580 Cl  0  0  0  0  0  0  0  0  0  0  0  0
  137.9100   77.3290  222.4740 C   0  0  0  0  0  0  0  0  0  0  0  0
  139.2500   77.6100  222.3530 C   0  0  0  0  0  0  0  0  0  0  0  0
  140.1110   71.4480  223.4180 C   0  0  0  0  0  0  0  0  0  0  0  0
  139.5120   70.1860  223.3000 C   0  0  0  0  0  0  0  0  0  0  0  0
  139.4260   69.3740  224.4350 C   0  0  0  0  0  0  0  0  0  0  0  0
  139.9430   69.8710  225.6240 C   0  0  0  0  0  0  0  0  0  0  0  0
  139.8760   69.0970  226.7700 C   0  0  0  0  0  0  0  0  0  0  0  0
  140.3950   69.6000  227.9490 C   0  0  0  0  0  0  0  0  0  0  0  0
  140.3220   68.8260  229.0680 F   0  0  0  0  0  0  0  0  0  0  0  0
  140.9800   70.8620  228.0140 C   0  0  0  0  0  0  0  0  0  0  0  0
  141.0470   71.6430  226.8620 C   0  0  0  0  0  0  0  0  0  0  0  0
  140.5260   71.1260  225.6910 C   0  0  0  0  0  0  0  0  0  0  0  0
  140.6000   71.8930  224.5900 N   0  0  0  0  0  0  0  0  0  0  0  0
  139.2890   74.0410  223.0680 H   0  0  0  0  0  0  0  0  0  0  0  0
  139.9258   73.5632  220.1324 H   0  0  0  0  0  0  0  0  0  0  0  0
  138.9138   74.9094  220.7968 H   0  0  0  0  0  0  0  0  0  0  0  0
  141.5643   73.8532  218.5958 H   0  0  0  0  0  0  0  0  0  0  0  0
  140.4213   75.0372  218.0341 H   0  0  0  0  0  0  0  0  0  0  0  0
  142.3454   75.4771  216.5276 H   0  0  0  0  0  0  0  0  0  0  0  0
  144.5220   75.4930  217.8600 H   0  0  0  0  0  0  0  0  0  0  0  0
  143.6642   77.3760  217.9166 H   0  0  0  0  0  0  0  0  0  0  0  0
  141.9547   77.6569  217.6583 H   0  0  0  0  0  0  0  0  0  0  0  0
  143.3889   76.6715  220.1595 H   0  0  0  0  0  0  0  0  0  0  0  0
  142.1820   77.2270  222.2030 H   0  0  0  0  0  0  0  0  0  0  0  0
  141.5022   80.0670  221.8632 H   0  0  0  0  0  0  0  0  0  0  0  0
  142.7395   79.8107  223.7873 H   0  0  0  0  0  0  0  0  0  0  0  0
  141.0883   79.7192  224.4574 H   0  0  0  0  0  0  0  0  0  0  0  0
  141.8140   77.3170  223.4820 H   0  0  0  0  0  0  0  0  0  0  0  0
  139.2773   80.9076  223.0019 H   0  0  0  0  0  0  0  0  0  0  0  0
  136.8488   80.4779  223.2352 H   0  0  0  0  0  0  0  0  0  0  0  0
  137.5242   76.3099  222.3238 H   0  0  0  0  0  0  0  0  0  0  0  0
  139.9339   76.7868  222.0987 H   0  0  0  0  0  0  0  0  0  0  0  0
  139.1172   69.8412  222.3329 H   0  0  0  0  0  0  0  0  0  0  0  0
  138.9649   68.3764  224.3877 H   0  0  0  0  0  0  0  0  0  0  0  0
  139.4172   68.0976  226.7431 H   0  0  0  0  0  0  0  0  0  0  0  0
  141.3850   71.2385  228.9649 H   0  0  0  0  0  0  0  0  0  0  0  0
  141.5023   72.6441  226.8840 H   0  0  0  0  0  0  0  0  0  0  0  0
  1  2  2  0
  2  3  1  0
  3  4  1  0
  4  5  1  0
  5  6  2  0
  5  7  1  0
  7  8  1  0
  8  9  1  0
  9 10  1  0
  9 11  1  0
 11 12  1  0
 12 13  1  0
 13 14  2  0
 13 15  1  0
 15 16  1  0
 16 17  1  0
 17 18  1  0
 16 19  1  0
 19 20  2  0
 20 21  1  0
 21 22  2  0
 22 23  1  0
 22 24  1  0
 24 25  2  0
  2 26  1  0
 26 27  2  0
 27 28  1  0
 28 29  2  0
 29 30  1  0
 30 31  2  0
 31 32  1  0
 31 33  1  0
 33 34  2  0
 34 35  1  0
 35 36  2  0
 12  7  1  0
 25 19  1  0
 36 26  1  0
 35 29  1  0
  3 37  1  0
  4 38  1  0
  4 39  1  0
  8 40  1  0
  8 41  1  0
  9 42  1  6
 10 43  1  0
 11 44  1  0
 11 45  1  0
 12 46  1  1
 15 47  1  0
 16 48  1  6
 17 49  1  0
 17 50  1  0
 18 51  1  0
 20 52  1  0
 21 53  1  0
 24 54  1  0
 25 55  1  0
 27 56  1  0
 28 57  1  0
 30 58  1  0
 33 59  1  0
 34 60  1  0
M  END
>  <smiles>  (20) 
O=C(NCC(=O)N1C[C@H](O)C[C@H]1C(=O)N[C@H](CO)c1ccc(Cl)cc1)c1ccc2cc(F)ccc2n1

>  <score_type>  (20) 
oracle

>  <origin>  (20) 
autodockgpu

>  <m_score__min__energy>  (20) 
-8.8599999999999994

>  <m_primary>  (20) 
energy

>  <meeko>  (20) 
{"free_energy": -8.79, "intermolecular_energy": -11.77, "internal_energy": -3.98, "cluster_size": 4, "cluster_id": 1, "rank_in_cluster": 3}

>  <energy>  (20) 
-5.45

>  <cluster_rmsd>  (20) 
0.0

>  <rmsd>  (20) 
271.96

>  <cluster>  (20) 
13

$$$$
