IBHRIKXMMSCQIV-SCUVULFGNA-N
     RDKit          3D

 63 67  0  0  0  0  0  0  0  0999 V2000
  140.8178   69.4403  229.3431 H   0  0  0  0  0  0  0  0  0  0  0  0
  140.7730   69.8470  228.3220 C   0  0  0  0  0  0  0  0  0  0  0  0
  140.5440   68.9940  227.2390 C   0  0  0  0  0  0  0  0  0  0  0  0
  140.4045   67.9161  227.4086 H   0  0  0  0  0  0  0  0  0  0  0  0
  140.4920   69.5090  225.9400 C   0  0  0  0  0  0  0  0  0  0  0  0
  140.3050   68.8360  225.0903 H   0  0  0  0  0  0  0  0  0  0  0  0
  140.6780   70.8840  225.7170 C   0  0  0  0  0  0  0  0  0  0  0  0
  140.5950   71.4450  224.3230 C   0  0  0  0  0  0  0  0  0  0  0  0
  140.9283   72.4932  224.3348 H   0  0  0  0  0  0  0  0  0  0  0  0
  141.2400   70.8479  223.6615 H   0  0  0  0  0  0  0  0  0  0  0  0
  139.1560   71.3800  223.8000 C   0  0  0  0  0  0  0  0  0  0  0  0
  138.8401   70.3280  223.7412 H   0  0  0  0  0  0  0  0  0  0  0  0
  138.5033   71.9359  224.4891 H   0  0  0  0  0  0  0  0  0  0  0  0
  139.0620   71.9850  222.4710 N   0  0  0  0  0  0  0  0  0  0  0  0
  139.8960   72.8670  221.9990 C   0  0  0  0  0  0  0  0  0  0  0  0
  141.0070   72.4770  221.3210 N   0  0  0  0  0  0  0  0  0  0  0  0
  141.8770   73.3950  220.8260 C   0  0  0  0  0  0  0  0  0  0  0  0
  143.0430   72.9650  220.0900 N   0  0  0  0  0  0  0  0  0  0  0  0
  144.2920   72.7120  220.8360 C   0  0  0  0  0  0  0  0  0  0  0  0
  144.6157   71.6812  220.6295 H   0  0  0  0  0  0  0  0  0  0  0  0
  144.0675   72.8799  221.8997 H   0  0  0  0  0  0  0  0  0  0  0  0
  145.4400   73.6610  220.4690 C   0  0  0  0  0  0  0  0  0  0  0  0
  146.0637   73.8353  221.3582 H   0  0  0  0  0  0  0  0  0  0  0  0
  145.0155   74.6105  220.1110 H   0  0  0  0  0  0  0  0  0  0  0  0
  146.2700   73.0790  219.4020 N   0  0  0  0  0  0  0  0  0  0  0  0
  146.7480   73.8700  218.9070 H   0  0  0  0  0  0  0  0  0  0  0  0
  145.4620   72.3710  218.3990 C   0  0  0  0  0  0  0  0  0  0  0  0
  145.1040   71.4257  218.8328 H   0  0  0  0  0  0  0  0  0  0  0  0
  146.0944   72.1868  217.5180 H   0  0  0  0  0  0  0  0  0  0  0  0
  144.2530   73.2020  217.9530 C   0  0  0  0  0  0  0  0  0  0  0  0
  144.1337   73.0963  216.8646 H   0  0  0  0  0  0  0  0  0  0  0  0
  144.4410   74.2477  218.2380 H   0  0  0  0  0  0  0  0  0  0  0  0
  142.9570   72.7580  218.6350 C   0  0  0  0  0  0  0  0  0  0  0  0
  142.7877   71.6905  218.4306 H   0  0  0  0  0  0  0  0  0  0  0  0
  142.1235   73.3567  218.2391 H   0  0  0  0  0  0  0  0  0  0  0  0
  141.6220   74.7150  221.0110 N   0  0  0  0  0  0  0  0  0  0  0  0
  140.5120   75.1220  221.6820 C   0  0  0  0  0  0  0  0  0  0  0  0
  140.2670   76.5290  221.8700 N   0  0  0  0  0  0  0  0  0  0  0  0
  141.3620   77.4890  221.6930 C   0  0  0  0  0  0  0  0  0  0  0  0
  141.4427   77.7445  220.6261 H   0  0  0  0  0  0  0  0  0  0  0  0
  142.2886   77.0223  222.0587 H   0  0  0  0  0  0  0  0  0  0  0  0
  141.1300   78.7570  222.4840 C   0  0  0  0  0  0  0  0  0  0  0  0
  142.1560   79.7130  222.5510 C   0  0  0  0  0  0  0  0  0  0  0  0
  143.1174   79.5177  222.0535 H   0  0  0  0  0  0  0  0  0  0  0  0
  141.9650   80.9110  223.2450 C   0  0  0  0  0  0  0  0  0  0  0  0
  142.7749   81.6539  223.2916 H   0  0  0  0  0  0  0  0  0  0  0  0
  140.7480   81.1660  223.8790 C   0  0  0  0  0  0  0  0  0  0  0  0
  140.6022   82.1066  224.4304 H   0  0  0  0  0  0  0  0  0  0  0  0
  139.7150   80.2280  223.8140 C   0  0  0  0  0  0  0  0  0  0  0  0
  138.7599   80.4316  224.3203 H   0  0  0  0  0  0  0  0  0  0  0  0
  139.8870   79.0270  223.1070 C   0  0  0  0  0  0  0  0  0  0  0  0
  138.7730   78.0100  223.1010 C   0  0  0  0  0  0  0  0  0  0  0  0
  137.8091   78.5356  223.0331 H   0  0  0  0  0  0  0  0  0  0  0  0
  138.8340   77.4245  224.0302 H   0  0  0  0  0  0  0  0  0  0  0  0
  138.9000   77.0510  221.9200 C   0  0  0  0  0  0  0  0  0  0  0  0
  138.6759   77.5862  220.9855 H   0  0  0  0  0  0  0  0  0  0  0  0
  138.1904   76.2192  222.0408 H   0  0  0  0  0  0  0  0  0  0  0  0
  139.6540   74.1920  222.1870 N   0  0  0  0  0  0  0  0  0  0  0  0
  138.8200   74.4900  222.7420 H   0  0  0  0  0  0  0  0  0  0  0  0
  140.8920   71.7390  226.8110 C   0  0  0  0  0  0  0  0  0  0  0  0
  141.0179   72.8195  226.6479 H   0  0  0  0  0  0  0  0  0  0  0  0
  140.9450   71.2170  228.1070 C   0  0  0  0  0  0  0  0  0  0  0  0
  141.1228   71.8874  228.9608 H   0  0  0  0  0  0  0  0  0  0  0  0
  1  2  1  0
  2  3  2  0
  3  4  1  0
  3  5  1  0
  5  6  1  0
  5  7  2  0
  7  8  1  0
  8  9  1  0
  8 10  1  0
  8 11  1  0
 11 12  1  0
 11 13  1  0
 11 14  1  0
 14 15  2  0
 15 16  1  0
 16 17  2  0
 17 18  1  0
 18 19  1  0
 19 20  1  0
 19 21  1  0
 19 22  1  0
 22 23  1  0
 22 24  1  0
 22 25  1  0
 25 26  1  0
 25 27  1  0
 27 28  1  0
 27 29  1  0
 27 30  1  0
 30 31  1  0
 30 32  1  0
 30 33  1  0
 33 34  1  0
 33 35  1  0
 17 36  1  0
 36 37  2  0
 37 38  1  0
 38 39  1  0
 39 40  1  0
 39 41  1  0
 39 42  1  0
 42 43  2  0
 43 44  1  0
 43 45  1  0
 45 46  1  0
 45 47  2  0
 47 48  1  0
 47 49  1  0
 49 50  1  0
 49 51  2  0
 51 52  1  0
 52 53  1  0
 52 54  1  0
 52 55  1  0
 55 56  1  0
 55 57  1  0
 37 58  1  0
 58 59  1  0
  7 60  1  0
 60 61  1  0
 60 62  2  0
 62 63  1  0
 62  2  1  0
 58 15  1  0
 33 18  1  0
 55 38  1  0
 51 42  1  0
M  END
>  <UniqueID>  (1) 
709

>  <SMILES>  (1) 
c1ccc(CC/N=c2\nc(N3CCCNCC3)nc(N3CCc4ccccc4C3)[nH]2)cc1

>  <Energy>  (1) 
69.67474045373264

>  <Genealogy>  (1) 
c1ccc(CCN=c2nc(N3CCCNCC3)nc(N3CCc4ccccc4C3)[nH]2)cc1 (tautomer)
c1ccc(CC/N=c2\nc(N3CCCNCC3)nc(N3CCc4ccccc4C3)[nH]2)cc1 (cis-trans isomerization)
c1ccc(CC/N=c2\nc(N3CCCNCC3)nc(N3CCc4ccccc4C3)[nH]2)cc1 (3D coordinates assigned)
c1ccc(CC/N=c2\nc(N3CCCNCC3)nc(N3CCc4ccccc4C3)[nH]2)cc1 (nonaromatic ring conformer: 69.67474045373264 kcal/mol)

>  <smiles>  (1) 
c1ccc(CCNc2nc(N3CCCNCC3)nc(N3CCc4ccccc4C3)n2)cc1

>  <score_type>  (1) 
oracle

>  <origin>  (1) 
autodockgpu

>  <m_score__min__energy>  (1) 
-8.6500000000000004

>  <m_primary>  (1) 
energy

>  <meeko>  (1) 
{"free_energy": -8.39, "intermolecular_energy": -11.97, "internal_energy": -0.96, "cluster_size": 17, "cluster_id": 1, "rank_in_cluster": 7}

>  <energy>  (1) 
-8.65

>  <cluster_rmsd>  (1) 
0.0

>  <rmsd>  (1) 
269.45

>  <cluster>  (1) 
1

$$$$
IBHRIKXMMSCQIV-SCUVULFGNA-N
     RDKit          3D

 63 67  0  0  0  0  0  0  0  0999 V2000
  141.6166   82.4208  223.8662 H   0  0  0  0  0  0  0  0  0  0  0  0
  141.4520   81.3570  223.6400 C   0  0  0  0  0  0  0  0  0  0  0  0
  142.5440   80.5070  223.4490 C   0  0  0  0  0  0  0  0  0  0  0  0
  143.5679   80.9011  223.5283 H   0  0  0  0  0  0  0  0  0  0  0  0
  142.3360   79.1550  223.1570 C   0  0  0  0  0  0  0  0  0  0  0  0
  143.1976   78.4863  223.0137 H   0  0  0  0  0  0  0  0  0  0  0  0
  141.0300   78.6480  223.0460 C   0  0  0  0  0  0  0  0  0  0  0  0
  140.8040   77.1890  222.7580 C   0  0  0  0  0  0  0  0  0  0  0  0
  141.5615   76.8406  222.0404 H   0  0  0  0  0  0  0  0  0  0  0  0
  140.8837   76.6252  223.6992 H   0  0  0  0  0  0  0  0  0  0  0  0
  139.4080   76.9660  222.1650 C   0  0  0  0  0  0  0  0  0  0  0  0
  138.6987   76.7571  222.9794 H   0  0  0  0  0  0  0  0  0  0  0  0
  139.1060   77.8723  221.6197 H   0  0  0  0  0  0  0  0  0  0  0  0
  139.4170   75.8370  221.2340 N   0  0  0  0  0  0  0  0  0  0  0  0
  140.0790   74.7310  221.4200 C   0  0  0  0  0  0  0  0  0  0  0  0
  141.1980   74.4630  220.6970 N   0  0  0  0  0  0  0  0  0  0  0  0
  141.8910   73.3120  220.8910 C   0  0  0  0  0  0  0  0  0  0  0  0
  143.0890   73.0500  220.1280 N   0  0  0  0  0  0  0  0  0  0  0  0
  144.2580   73.9300  220.3280 C   0  0  0  0  0  0  0  0  0  0  0  0
  144.0816   74.5405  221.2259 H   0  0  0  0  0  0  0  0  0  0  0  0
  144.3590   74.5366  219.4159 H   0  0  0  0  0  0  0  0  0  0  0  0
  145.5820   73.1780  220.5090 C   0  0  0  0  0  0  0  0  0  0  0  0
  145.3868   72.2166  221.0065 H   0  0  0  0  0  0  0  0  0  0  0  0
  146.2584   73.7923  221.1214 H   0  0  0  0  0  0  0  0  0  0  0  0
  146.2170   72.9280  219.2050 N   0  0  0  0  0  0  0  0  0  0  0  0
  146.0900   73.7900  218.6220 H   0  0  0  0  0  0  0  0  0  0  0  0
  145.5740   71.8220  218.4810 C   0  0  0  0  0  0  0  0  0  0  0  0
  145.5571   70.9338  219.1296 H   0  0  0  0  0  0  0  0  0  0  0  0
  146.1518   71.6309  217.5647 H   0  0  0  0  0  0  0  0  0  0  0  0
  144.1360   72.1680  218.0750 C   0  0  0  0  0  0  0  0  0  0  0  0
  143.8575   71.5558  217.2045 H   0  0  0  0  0  0  0  0  0  0  0  0
  144.1028   73.2419  217.8391 H   0  0  0  0  0  0  0  0  0  0  0  0
  143.1340   71.9060  219.2010 C   0  0  0  0  0  0  0  0  0  0  0  0
  143.4375   71.0043  219.7532 H   0  0  0  0  0  0  0  0  0  0  0  0
  142.1352   71.7638  218.7626 H   0  0  0  0  0  0  0  0  0  0  0  0
  141.4570   72.4260  221.8240 N   0  0  0  0  0  0  0  0  0  0  0  0
  140.3430   72.6830  222.5600 C   0  0  0  0  0  0  0  0  0  0  0  0
  139.8990   71.7260  223.5400 N   0  0  0  0  0  0  0  0  0  0  0  0
  140.5130   71.7110  224.8740 C   0  0  0  0  0  0  0  0  0  0  0  0
  140.0037   72.4510  225.5088 H   0  0  0  0  0  0  0  0  0  0  0  0
  141.5800   71.9538  224.7622 H   0  0  0  0  0  0  0  0  0  0  0  0
  140.4060   70.3500  225.5260 C   0  0  0  0  0  0  0  0  0  0  0  0
  141.0800   70.1220  226.7360 C   0  0  0  0  0  0  0  0  0  0  0  0
  141.6937   70.9207  227.1780 H   0  0  0  0  0  0  0  0  0  0  0  0
  140.9770   68.8880  227.3830 C   0  0  0  0  0  0  0  0  0  0  0  0
  141.5108   68.7179  228.3297 H   0  0  0  0  0  0  0  0  0  0  0  0
  140.1980   67.8710  226.8300 C   0  0  0  0  0  0  0  0  0  0  0  0
  140.1223   66.8987  227.3388 H   0  0  0  0  0  0  0  0  0  0  0  0
  139.5140   68.0860  225.6310 C   0  0  0  0  0  0  0  0  0  0  0  0
  138.9070   67.2783  225.1961 H   0  0  0  0  0  0  0  0  0  0  0  0
  139.5960   69.3260  224.9770 C   0  0  0  0  0  0  0  0  0  0  0  0
  138.8910   69.5100  223.6570 C   0  0  0  0  0  0  0  0  0  0  0  0
  137.9230   68.9889  223.6927 H   0  0  0  0  0  0  0  0  0  0  0  0
  139.5292   69.0947  222.8632 H   0  0  0  0  0  0  0  0  0  0  0  0
  138.6490   70.9870  223.3550 C   0  0  0  0  0  0  0  0  0  0  0  0
  137.8832   71.3819  224.0388 H   0  0  0  0  0  0  0  0  0  0  0  0
  138.3021   71.1006  222.3173 H   0  0  0  0  0  0  0  0  0  0  0  0
  139.6470   73.8340  222.3460 N   0  0  0  0  0  0  0  0  0  0  0  0
  138.7660   74.0240  222.8750 H   0  0  0  0  0  0  0  0  0  0  0  0
  139.9370   79.5050  223.2550 C   0  0  0  0  0  0  0  0  0  0  0  0
  138.9113   79.1126  223.1914 H   0  0  0  0  0  0  0  0  0  0  0  0
  140.1510   80.8570  223.5440 C   0  0  0  0  0  0  0  0  0  0  0  0
  139.2928   81.5280  223.6960 H   0  0  0  0  0  0  0  0  0  0  0  0
  1  2  1  0
  2  3  2  0
  3  4  1  0
  3  5  1  0
  5  6  1  0
  5  7  2  0
  7  8  1  0
  8  9  1  0
  8 10  1  0
  8 11  1  0
 11 12  1  0
 11 13  1  0
 11 14  1  0
 14 15  2  0
 15 16  1  0
 16 17  2  0
 17 18  1  0
 18 19  1  0
 19 20  1  0
 19 21  1  0
 19 22  1  0
 22 23  1  0
 22 24  1  0
 22 25  1  0
 25 26  1  0
 25 27  1  0
 27 28  1  0
 27 29  1  0
 27 30  1  0
 30 31  1  0
 30 32  1  0
 30 33  1  0
 33 34  1  0
 33 35  1  0
 17 36  1  0
 36 37  2  0
 37 38  1  0
 38 39  1  0
 39 40  1  0
 39 41  1  0
 39 42  1  0
 42 43  2  0
 43 44  1  0
 43 45  1  0
 45 46  1  0
 45 47  2  0
 47 48  1  0
 47 49  1  0
 49 50  1  0
 49 51  2  0
 51 52  1  0
 52 53  1  0
 52 54  1  0
 52 55  1  0
 55 56  1  0
 55 57  1  0
 37 58  1  0
 58 59  1  0
  7 60  1  0
 60 61  1  0
 60 62  2  0
 62 63  1  0
 62  2  1  0
 58 15  1  0
 33 18  1  0
 55 38  1  0
 51 42  1  0
M  END
>  <UniqueID>  (2) 
709

>  <SMILES>  (2) 
c1ccc(CC/N=c2\nc(N3CCCNCC3)nc(N3CCc4ccccc4C3)[nH]2)cc1

>  <Energy>  (2) 
69.67474045373264

>  <Genealogy>  (2) 
c1ccc(CCN=c2nc(N3CCCNCC3)nc(N3CCc4ccccc4C3)[nH]2)cc1 (tautomer)
c1ccc(CC/N=c2\nc(N3CCCNCC3)nc(N3CCc4ccccc4C3)[nH]2)cc1 (cis-trans isomerization)
c1ccc(CC/N=c2\nc(N3CCCNCC3)nc(N3CCc4ccccc4C3)[nH]2)cc1 (3D coordinates assigned)
c1ccc(CC/N=c2\nc(N3CCCNCC3)nc(N3CCc4ccccc4C3)[nH]2)cc1 (nonaromatic ring conformer: 69.67474045373264 kcal/mol)

>  <smiles>  (2) 
c1ccc(CCNc2nc(N3CCCNCC3)nc(N3CCc4ccccc4C3)n2)cc1

>  <score_type>  (2) 
oracle

>  <origin>  (2) 
autodockgpu

>  <m_score__min__energy>  (2) 
-8.6500000000000004

>  <m_primary>  (2) 
energy

>  <meeko>  (2) 
{"free_energy": -8.49, "intermolecular_energy": -12.07, "internal_energy": -0.92, "cluster_size": 17, "cluster_id": 1, "rank_in_cluster": 3}

>  <energy>  (2) 
-8.55

>  <cluster_rmsd>  (2) 
1.68

>  <rmsd>  (2) 
269.39

>  <cluster>  (2) 
1

$$$$
IBHRIKXMMSCQIV-SCUVULFGNA-N
     RDKit          3D

 63 67  0  0  0  0  0  0  0  0999 V2000
  142.6556   81.8765  223.8383 H   0  0  0  0  0  0  0  0  0  0  0  0
  142.0370   80.9950  223.6140 C   0  0  0  0  0  0  0  0  0  0  0  0
  142.6360   79.7410  223.4630 C   0  0  0  0  0  0  0  0  0  0  0  0
  143.7254   79.6354  223.5724 H   0  0  0  0  0  0  0  0  0  0  0  0
  141.8510   78.6210  223.1730 C   0  0  0  0  0  0  0  0  0  0  0  0
  142.3242   77.6343  223.0611 H   0  0  0  0  0  0  0  0  0  0  0  0
  140.4600   78.7510  223.0240 C   0  0  0  0  0  0  0  0  0  0  0  0
  139.6110   77.5420  222.7380 C   0  0  0  0  0  0  0  0  0  0  0  0
  139.8173   76.7687  223.4926 H   0  0  0  0  0  0  0  0  0  0  0  0
  138.5516   77.8361  222.7742 H   0  0  0  0  0  0  0  0  0  0  0  0
  139.9210   76.9820  221.3450 C   0  0  0  0  0  0  0  0  0  0  0  0
  139.4609   77.6299  220.5844 H   0  0  0  0  0  0  0  0  0  0  0  0
  141.0123   76.9519  221.2100 H   0  0  0  0  0  0  0  0  0  0  0  0
  139.3910   75.6250  221.2050 N   0  0  0  0  0  0  0  0  0  0  0  0
  140.0710   74.5390  221.4360 C   0  0  0  0  0  0  0  0  0  0  0  0
  141.2220   74.2830  220.7600 N   0  0  0  0  0  0  0  0  0  0  0  0
  141.9330   73.1530  221.0020 C   0  0  0  0  0  0  0  0  0  0  0  0
  143.1640   72.9050  220.2890 N   0  0  0  0  0  0  0  0  0  0  0  0
  144.4220   73.4380  220.8500 C   0  0  0  0  0  0  0  0  0  0  0  0
  144.3381   73.4400  221.9468 H   0  0  0  0  0  0  0  0  0  0  0  0
  144.5537   74.4475  220.4333 H   0  0  0  0  0  0  0  0  0  0  0  0
  145.6690   72.6320  220.4630 C   0  0  0  0  0  0  0  0  0  0  0  0
  145.4118   71.5632  220.4255 H   0  0  0  0  0  0  0  0  0  0  0  0
  146.4531   72.8075  221.2143 H   0  0  0  0  0  0  0  0  0  0  0  0
  146.1690   73.0560  219.1460 N   0  0  0  0  0  0  0  0  0  0  0  0
  145.9710   74.0810  219.0480 H   0  0  0  0  0  0  0  0  0  0  0  0
  145.4710   72.3770  218.0450 C   0  0  0  0  0  0  0  0  0  0  0  0
  145.5344   71.2899  218.2004 H   0  0  0  0  0  0  0  0  0  0  0  0
  145.9543   72.6714  217.1017 H   0  0  0  0  0  0  0  0  0  0  0  0
  143.9930   72.7820  217.9690 C   0  0  0  0  0  0  0  0  0  0  0  0
  143.5986   72.4957  216.9828 H   0  0  0  0  0  0  0  0  0  0  0  0
  143.9347   73.8691  218.1265 H   0  0  0  0  0  0  0  0  0  0  0  0
  143.1470   72.1080  219.0510 C   0  0  0  0  0  0  0  0  0  0  0  0
  143.5547   71.1077  219.2587 H   0  0  0  0  0  0  0  0  0  0  0  0
  142.1098   72.0277  218.6935 H   0  0  0  0  0  0  0  0  0  0  0  0
  141.4840   72.2750  221.9360 N   0  0  0  0  0  0  0  0  0  0  0  0
  140.3380   72.5190  222.6260 C   0  0  0  0  0  0  0  0  0  0  0  0
  139.8800   71.5710  223.6080 N   0  0  0  0  0  0  0  0  0  0  0  0
  140.4890   71.5540  224.9430 C   0  0  0  0  0  0  0  0  0  0  0  0
  139.9864   72.3024  225.5732 H   0  0  0  0  0  0  0  0  0  0  0  0
  141.5592   71.7838  224.8337 H   0  0  0  0  0  0  0  0  0  0  0  0
  140.3640   70.1970  225.6000 C   0  0  0  0  0  0  0  0  0  0  0  0
  141.0310   69.9660  226.8130 C   0  0  0  0  0  0  0  0  0  0  0  0
  141.6523   70.7595  227.2539 H   0  0  0  0  0  0  0  0  0  0  0  0
  140.9120   68.7360  227.4650 C   0  0  0  0  0  0  0  0  0  0  0  0
  141.4401   68.5643  228.4146 H   0  0  0  0  0  0  0  0  0  0  0  0
  140.1240   67.7250  226.9130 C   0  0  0  0  0  0  0  0  0  0  0  0
  140.0363   66.7554  227.4251 H   0  0  0  0  0  0  0  0  0  0  0  0
  139.4460   67.9430  225.7100 C   0  0  0  0  0  0  0  0  0  0  0  0
  138.8311   67.1408  225.2760 H   0  0  0  0  0  0  0  0  0  0  0  0
  139.5450   69.1800  225.0520 C   0  0  0  0  0  0  0  0  0  0  0  0
  138.8460   69.3670  223.7280 C   0  0  0  0  0  0  0  0  0  0  0  0
  137.8716   68.8576  223.7626 H   0  0  0  0  0  0  0  0  0  0  0  0
  139.4814   68.9407  222.9378 H   0  0  0  0  0  0  0  0  0  0  0  0
  138.6230   70.8450  223.4200 C   0  0  0  0  0  0  0  0  0  0  0  0
  137.8586   71.2510  224.0989 H   0  0  0  0  0  0  0  0  0  0  0  0
  138.2828   70.9585  222.3801 H   0  0  0  0  0  0  0  0  0  0  0  0
  139.6250   73.6500  222.3640 N   0  0  0  0  0  0  0  0  0  0  0  0
  138.7200   73.8290  222.8560 H   0  0  0  0  0  0  0  0  0  0  0  0
  139.8630   80.0110  223.1920 C   0  0  0  0  0  0  0  0  0  0  0  0
  138.7724   80.1187  223.0968 H   0  0  0  0  0  0  0  0  0  0  0  0
  140.6520   81.1290  223.4800 C   0  0  0  0  0  0  0  0  0  0  0  0
  140.1818   82.1160  223.6014 H   0  0  0  0  0  0  0  0  0  0  0  0
  1  2  1  0
  2  3  2  0
  3  4  1  0
  3  5  1  0
  5  6  1  0
  5  7  2  0
  7  8  1  0
  8  9  1  0
  8 10  1  0
  8 11  1  0
 11 12  1  0
 11 13  1  0
 11 14  1  0
 14 15  2  0
 15 16  1  0
 16 17  2  0
 17 18  1  0
 18 19  1  0
 19 20  1  0
 19 21  1  0
 19 22  1  0
 22 23  1  0
 22 24  1  0
 22 25  1  0
 25 26  1  0
 25 27  1  0
 27 28  1  0
 27 29  1  0
 27 30  1  0
 30 31  1  0
 30 32  1  0
 30 33  1  0
 33 34  1  0
 33 35  1  0
 17 36  1  0
 36 37  2  0
 37 38  1  0
 38 39  1  0
 39 40  1  0
 39 41  1  0
 39 42  1  0
 42 43  2  0
 43 44  1  0
 43 45  1  0
 45 46  1  0
 45 47  2  0
 47 48  1  0
 47 49  1  0
 49 50  1  0
 49 51  2  0
 51 52  1  0
 52 53  1  0
 52 54  1  0
 52 55  1  0
 55 56  1  0
 55 57  1  0
 37 58  1  0
 58 59  1  0
  7 60  1  0
 60 61  1  0
 60 62  2  0
 62 63  1  0
 62  2  1  0
 58 15  1  0
 33 18  1  0
 55 38  1  0
 51 42  1  0
M  END
>  <UniqueID>  (3) 
709

>  <SMILES>  (3) 
c1ccc(CC/N=c2\nc(N3CCCNCC3)nc(N3CCc4ccccc4C3)[nH]2)cc1

>  <Energy>  (3) 
69.67474045373264

>  <Genealogy>  (3) 
c1ccc(CCN=c2nc(N3CCCNCC3)nc(N3CCc4ccccc4C3)[nH]2)cc1 (tautomer)
c1ccc(CC/N=c2\nc(N3CCCNCC3)nc(N3CCc4ccccc4C3)[nH]2)cc1 (cis-trans isomerization)
c1ccc(CC/N=c2\nc(N3CCCNCC3)nc(N3CCc4ccccc4C3)[nH]2)cc1 (3D coordinates assigned)
c1ccc(CC/N=c2\nc(N3CCCNCC3)nc(N3CCc4ccccc4C3)[nH]2)cc1 (nonaromatic ring conformer: 69.67474045373264 kcal/mol)

>  <smiles>  (3) 
c1ccc(CCNc2nc(N3CCCNCC3)nc(N3CCc4ccccc4C3)n2)cc1

>  <score_type>  (3) 
oracle

>  <origin>  (3) 
autodockgpu

>  <m_score__min__energy>  (3) 
-8.6500000000000004

>  <m_primary>  (3) 
energy

>  <meeko>  (3) 
{"free_energy": -8.23, "intermolecular_energy": -11.81, "internal_energy": -0.86, "cluster_size": 17, "cluster_id": 1, "rank_in_cluster": 11}

>  <energy>  (3) 
-8.49

>  <cluster_rmsd>  (3) 
1.4

>  <rmsd>  (3) 
269.21

>  <cluster>  (3) 
1

$$$$
IBHRIKXMMSCQIV-SCUVULFGNA-N
     RDKit          3D

 63 67  0  0  0  0  0  0  0  0999 V2000
  141.7265   71.7302  228.9299 H   0  0  0  0  0  0  0  0  0  0  0  0
  141.2140   71.3570  228.0310 C   0  0  0  0  0  0  0  0  0  0  0  0
  141.4140   71.9880  226.8000 C   0  0  0  0  0  0  0  0  0  0  0  0
  142.0873   72.8550  226.7293 H   0  0  0  0  0  0  0  0  0  0  0  0
  140.7580   71.5170  225.6580 C   0  0  0  0  0  0  0  0  0  0  0  0
  140.9221   72.0113  224.6891 H   0  0  0  0  0  0  0  0  0  0  0  0
  139.8910   70.4160  225.7430 C   0  0  0  0  0  0  0  0  0  0  0  0
  139.2060   69.8910  224.5110 C   0  0  0  0  0  0  0  0  0  0  0  0
  139.1992   68.7915  224.5419 H   0  0  0  0  0  0  0  0  0  0  0  0
  138.1764   70.2773  224.4859 H   0  0  0  0  0  0  0  0  0  0  0  0
  139.9390   70.3550  223.2470 C   0  0  0  0  0  0  0  0  0  0  0  0
  141.0003   70.5199  223.4847 H   0  0  0  0  0  0  0  0  0  0  0  0
  139.8379   69.5791  222.4738 H   0  0  0  0  0  0  0  0  0  0  0  0
  139.3600   71.6010  222.7430 N   0  0  0  0  0  0  0  0  0  0  0  0
  140.0460   72.5770  222.2190 C   0  0  0  0  0  0  0  0  0  0  0  0
  141.1970   72.3290  221.5400 N   0  0  0  0  0  0  0  0  0  0  0  0
  141.9120   73.3430  220.9910 C   0  0  0  0  0  0  0  0  0  0  0  0
  143.1230   73.0620  220.2560 N   0  0  0  0  0  0  0  0  0  0  0  0
  143.4830   71.6520  220.0060 C   0  0  0  0  0  0  0  0  0  0  0  0
  142.6722   71.1856  219.4272 H   0  0  0  0  0  0  0  0  0  0  0  0
  143.6267   71.1814  220.9898 H   0  0  0  0  0  0  0  0  0  0  0  0
  144.7940   71.4700  219.2320 C   0  0  0  0  0  0  0  0  0  0  0  0
  144.7737   72.1023  218.3321 H   0  0  0  0  0  0  0  0  0  0  0  0
  144.8963   70.4117  218.9501 H   0  0  0  0  0  0  0  0  0  0  0  0
  145.9440   71.8530  220.0670 N   0  0  0  0  0  0  0  0  0  0  0  0
  145.6540   71.7510  221.0690 H   0  0  0  0  0  0  0  0  0  0  0  0
  146.3230   73.2600  219.8720 C   0  0  0  0  0  0  0  0  0  0  0  0
  146.4027   73.4610  218.7935 H   0  0  0  0  0  0  0  0  0  0  0  0
  147.2852   73.4280  220.3778 H   0  0  0  0  0  0  0  0  0  0  0  0
  145.2920   74.2170  220.4800 C   0  0  0  0  0  0  0  0  0  0  0  0
  145.6877   75.2420  220.4270 H   0  0  0  0  0  0  0  0  0  0  0  0
  145.1180   73.9044  221.5202 H   0  0  0  0  0  0  0  0  0  0  0  0
  143.9480   74.1710  219.7490 C   0  0  0  0  0  0  0  0  0  0  0  0
  144.1259   74.0273  218.6730 H   0  0  0  0  0  0  0  0  0  0  0  0
  143.4162   75.1182  219.9223 H   0  0  0  0  0  0  0  0  0  0  0  0
  141.4610   74.6170  221.1210 N   0  0  0  0  0  0  0  0  0  0  0  0
  140.3080   74.8820  221.7910 C   0  0  0  0  0  0  0  0  0  0  0  0
  139.8530   76.2420  221.9200 N   0  0  0  0  0  0  0  0  0  0  0  0
  140.8310   77.3340  221.9910 C   0  0  0  0  0  0  0  0  0  0  0  0
  141.1120   77.6275  220.9688 H   0  0  0  0  0  0  0  0  0  0  0  0
  141.7053   76.9742  222.5532 H   0  0  0  0  0  0  0  0  0  0  0  0
  140.2730   78.5410  222.7110 C   0  0  0  0  0  0  0  0  0  0  0  0
  141.1310   79.6130  223.0040 C   0  0  0  0  0  0  0  0  0  0  0  0
  142.1951   79.5505  222.7326 H   0  0  0  0  0  0  0  0  0  0  0  0
  140.6430   80.7590  223.6380 C   0  0  0  0  0  0  0  0  0  0  0  0
  141.3231   81.5938  223.8630 H   0  0  0  0  0  0  0  0  0  0  0  0
  139.2950   80.8460  223.9860 C   0  0  0  0  0  0  0  0  0  0  0  0
  138.9147   81.7464  224.4906 H   0  0  0  0  0  0  0  0  0  0  0  0
  138.4270   79.7900  223.6940 C   0  0  0  0  0  0  0  0  0  0  0  0
  137.3663   79.8607  223.9767 H   0  0  0  0  0  0  0  0  0  0  0  0
  138.9000   78.6390  223.0420 C   0  0  0  0  0  0  0  0  0  0  0  0
  137.9510   77.4940  222.7880 C   0  0  0  0  0  0  0  0  0  0  0  0
  136.9677   77.8997  222.5078 H   0  0  0  0  0  0  0  0  0  0  0  0
  137.8786   76.8943  223.7073 H   0  0  0  0  0  0  0  0  0  0  0  0
  138.4540   76.5920  221.6650 C   0  0  0  0  0  0  0  0  0  0  0  0
  138.3764   77.1222  220.7043 H   0  0  0  0  0  0  0  0  0  0  0  0
  137.8450   75.6768  221.6246 H   0  0  0  0  0  0  0  0  0  0  0  0
  139.6070   73.8570  222.3520 N   0  0  0  0  0  0  0  0  0  0  0  0
  138.7420   74.0500  222.9060 H   0  0  0  0  0  0  0  0  0  0  0  0
  139.7070   69.7760  226.9810 C   0  0  0  0  0  0  0  0  0  0  0  0
  139.0461   68.8997  227.0536 H   0  0  0  0  0  0  0  0  0  0  0  0
  140.3630   70.2520  228.1200 C   0  0  0  0  0  0  0  0  0  0  0  0
  140.2089   69.7553  229.0893 H   0  0  0  0  0  0  0  0  0  0  0  0
  1  2  1  0
  2  3  2  0
  3  4  1  0
  3  5  1  0
  5  6  1  0
  5  7  2  0
  7  8  1  0
  8  9  1  0
  8 10  1  0
  8 11  1  0
 11 12  1  0
 11 13  1  0
 11 14  1  0
 14 15  2  0
 15 16  1  0
 16 17  2  0
 17 18  1  0
 18 19  1  0
 19 20  1  0
 19 21  1  0
 19 22  1  0
 22 23  1  0
 22 24  1  0
 22 25  1  0
 25 26  1  0
 25 27  1  0
 27 28  1  0
 27 29  1  0
 27 30  1  0
 30 31  1  0
 30 32  1  0
 30 33  1  0
 33 34  1  0
 33 35  1  0
 17 36  1  0
 36 37  2  0
 37 38  1  0
 38 39  1  0
 39 40  1  0
 39 41  1  0
 39 42  1  0
 42 43  2  0
 43 44  1  0
 43 45  1  0
 45 46  1  0
 45 47  2  0
 47 48  1  0
 47 49  1  0
 49 50  1  0
 49 51  2  0
 51 52  1  0
 52 53  1  0
 52 54  1  0
 52 55  1  0
 55 56  1  0
 55 57  1  0
 37 58  1  0
 58 59  1  0
  7 60  1  0
 60 61  1  0
 60 62  2  0
 62 63  1  0
 62  2  1  0
 58 15  1  0
 33 18  1  0
 55 38  1  0
 51 42  1  0
M  END
>  <UniqueID>  (4) 
709

>  <SMILES>  (4) 
c1ccc(CC/N=c2\nc(N3CCCNCC3)nc(N3CCc4ccccc4C3)[nH]2)cc1

>  <Energy>  (4) 
69.67474045373264

>  <Genealogy>  (4) 
c1ccc(CCN=c2nc(N3CCCNCC3)nc(N3CCc4ccccc4C3)[nH]2)cc1 (tautomer)
c1ccc(CC/N=c2\nc(N3CCCNCC3)nc(N3CCc4ccccc4C3)[nH]2)cc1 (cis-trans isomerization)
c1ccc(CC/N=c2\nc(N3CCCNCC3)nc(N3CCc4ccccc4C3)[nH]2)cc1 (3D coordinates assigned)
c1ccc(CC/N=c2\nc(N3CCCNCC3)nc(N3CCc4ccccc4C3)[nH]2)cc1 (nonaromatic ring conformer: 69.67474045373264 kcal/mol)

>  <smiles>  (4) 
c1ccc(CCNc2nc(N3CCCNCC3)nc(N3CCc4ccccc4C3)n2)cc1

>  <score_type>  (4) 
oracle

>  <origin>  (4) 
autodockgpu

>  <m_score__min__energy>  (4) 
-8.6500000000000004

>  <m_primary>  (4) 
energy

>  <meeko>  (4) 
{"free_energy": -8.07, "intermolecular_energy": -11.65, "internal_energy": -1.04, "cluster_size": 17, "cluster_id": 1, "rank_in_cluster": 13}

>  <energy>  (4) 
-8.48

>  <cluster_rmsd>  (4) 
1.67

>  <rmsd>  (4) 
269.37

>  <cluster>  (4) 
1

$$$$
IBHRIKXMMSCQIV-SCUVULFGNA-N
     RDKit          3D

 63 67  0  0  0  0  0  0  0  0999 V2000
  141.9102   81.9099  224.3485 H   0  0  0  0  0  0  0  0  0  0  0  0
  141.7200   80.9630  223.8220 C   0  0  0  0  0  0  0  0  0  0  0  0
  140.4250   80.4400  223.7710 C   0  0  0  0  0  0  0  0  0  0  0  0
  139.5953   80.9777  224.2531 H   0  0  0  0  0  0  0  0  0  0  0  0
  140.1840   79.2330  223.1070 C   0  0  0  0  0  0  0  0  0  0  0  0
  139.1629   78.8263  223.0630 H   0  0  0  0  0  0  0  0  0  0  0  0
  141.2410   78.5380  222.4960 C   0  0  0  0  0  0  0  0  0  0  0  0
  140.9780   77.2530  221.7580 C   0  0  0  0  0  0  0  0  0  0  0  0
  141.3016   77.3640  220.7125 H   0  0  0  0  0  0  0  0  0  0  0  0
  141.5391   76.4427  222.2465 H   0  0  0  0  0  0  0  0  0  0  0  0
  139.4850   76.9080  221.7890 C   0  0  0  0  0  0  0  0  0  0  0  0
  139.1363   76.9064  222.8323 H   0  0  0  0  0  0  0  0  0  0  0  0
  138.9357   77.6607  221.2044 H   0  0  0  0  0  0  0  0  0  0  0  0
  139.2470   75.5900  221.2010 N   0  0  0  0  0  0  0  0  0  0  0  0
  139.9640   74.5310  221.4460 C   0  0  0  0  0  0  0  0  0  0  0  0
  141.1290   74.3130  220.7800 N   0  0  0  0  0  0  0  0  0  0  0  0
  141.8800   73.2110  221.0360 C   0  0  0  0  0  0  0  0  0  0  0  0
  143.1250   73.0040  220.3340 N   0  0  0  0  0  0  0  0  0  0  0  0
  143.8620   74.1860  219.8430 C   0  0  0  0  0  0  0  0  0  0  0  0
  143.2103   75.0664  219.9437 H   0  0  0  0  0  0  0  0  0  0  0  0
  144.1357   73.9790  218.7979 H   0  0  0  0  0  0  0  0  0  0  0  0
  145.1680   74.4640  220.5970 C   0  0  0  0  0  0  0  0  0  0  0  0
  145.0448   74.1777  221.6519 H   0  0  0  0  0  0  0  0  0  0  0  0
  145.4019   75.5360  220.5196 H   0  0  0  0  0  0  0  0  0  0  0  0
  146.2760   73.6920  220.0120 N   0  0  0  0  0  0  0  0  0  0  0  0
  146.2580   73.8480  218.9760 H   0  0  0  0  0  0  0  0  0  0  0  0
  146.1170   72.2470  220.2310 C   0  0  0  0  0  0  0  0  0  0  0  0
  145.9024   72.0691  221.2951 H   0  0  0  0  0  0  0  0  0  0  0  0
  147.0503   71.7494  219.9288 H   0  0  0  0  0  0  0  0  0  0  0  0
  144.9730   71.6690  219.3900 C   0  0  0  0  0  0  0  0  0  0  0  0
  145.2348   70.6419  219.0959 H   0  0  0  0  0  0  0  0  0  0  0  0
  144.8410   72.3184  218.5120 H   0  0  0  0  0  0  0  0  0  0  0  0
  143.6460   71.6390  220.1520 C   0  0  0  0  0  0  0  0  0  0  0  0
  143.8050   71.1778  221.1379 H   0  0  0  0  0  0  0  0  0  0  0  0
  142.9163   71.0540  219.5729 H   0  0  0  0  0  0  0  0  0  0  0  0
  141.4570   72.3250  221.9730 N   0  0  0  0  0  0  0  0  0  0  0  0
  140.2970   72.5310  222.6520 C   0  0  0  0  0  0  0  0  0  0  0  0
  139.8670   71.5740  223.6380 N   0  0  0  0  0  0  0  0  0  0  0  0
  140.4790   71.5770  224.9720 C   0  0  0  0  0  0  0  0  0  0  0  0
  139.9577   72.3134  225.6013 H   0  0  0  0  0  0  0  0  0  0  0  0
  141.5424   71.8352  224.8598 H   0  0  0  0  0  0  0  0  0  0  0  0
  140.3920   70.2190  225.6330 C   0  0  0  0  0  0  0  0  0  0  0  0
  141.0680   70.0090  226.8450 C   0  0  0  0  0  0  0  0  0  0  0  0
  141.6694   70.8198  227.2819 H   0  0  0  0  0  0  0  0  0  0  0  0
  140.9830   68.7780  227.5010 C   0  0  0  0  0  0  0  0  0  0  0  0
  141.5171   68.6230  228.4501 H   0  0  0  0  0  0  0  0  0  0  0  0
  140.2210   67.7450  226.9530 C   0  0  0  0  0  0  0  0  0  0  0  0
  140.1596   66.7748  227.4678 H   0  0  0  0  0  0  0  0  0  0  0  0
  139.5360   67.9420  225.7510 C   0  0  0  0  0  0  0  0  0  0  0  0
  138.9423   67.1223  225.3202 H   0  0  0  0  0  0  0  0  0  0  0  0
  139.6000   69.1790  225.0890 C   0  0  0  0  0  0  0  0  0  0  0  0
  138.8930   69.3430  223.7670 C   0  0  0  0  0  0  0  0  0  0  0  0
  137.9329   68.8075  223.8058 H   0  0  0  0  0  0  0  0  0  0  0  0
  139.5378   68.9318  222.9763 H   0  0  0  0  0  0  0  0  0  0  0  0
  138.6290   70.8140  223.4550 C   0  0  0  0  0  0  0  0  0  0  0  0
  137.8555   71.2013  224.1345 H   0  0  0  0  0  0  0  0  0  0  0  0
  138.2830   70.9153  222.4158 H   0  0  0  0  0  0  0  0  0  0  0  0
  139.5450   73.6330  222.3770 N   0  0  0  0  0  0  0  0  0  0  0  0
  138.6300   73.7820  222.8600 H   0  0  0  0  0  0  0  0  0  0  0  0
  142.5370   79.0770  222.5370 C   0  0  0  0  0  0  0  0  0  0  0  0
  143.3670   78.5498  222.0438 H   0  0  0  0  0  0  0  0  0  0  0  0
  142.7740   80.2830  223.2040 C   0  0  0  0  0  0  0  0  0  0  0  0
  143.7921   80.6977  223.2426 H   0  0  0  0  0  0  0  0  0  0  0  0
  1  2  1  0
  2  3  2  0
  3  4  1  0
  3  5  1  0
  5  6  1  0
  5  7  2  0
  7  8  1  0
  8  9  1  0
  8 10  1  0
  8 11  1  0
 11 12  1  0
 11 13  1  0
 11 14  1  0
 14 15  2  0
 15 16  1  0
 16 17  2  0
 17 18  1  0
 18 19  1  0
 19 20  1  0
 19 21  1  0
 19 22  1  0
 22 23  1  0
 22 24  1  0
 22 25  1  0
 25 26  1  0
 25 27  1  0
 27 28  1  0
 27 29  1  0
 27 30  1  0
 30 31  1  0
 30 32  1  0
 30 33  1  0
 33 34  1  0
 33 35  1  0
 17 36  1  0
 36 37  2  0
 37 38  1  0
 38 39  1  0
 39 40  1  0
 39 41  1  0
 39 42  1  0
 42 43  2  0
 43 44  1  0
 43 45  1  0
 45 46  1  0
 45 47  2  0
 47 48  1  0
 47 49  1  0
 49 50  1  0
 49 51  2  0
 51 52  1  0
 52 53  1  0
 52 54  1  0
 52 55  1  0
 55 56  1  0
 55 57  1  0
 37 58  1  0
 58 59  1  0
  7 60  1  0
 60 61  1  0
 60 62  2  0
 62 63  1  0
 62  2  1  0
 58 15  1  0
 33 18  1  0
 55 38  1  0
 51 42  1  0
M  END
>  <UniqueID>  (5) 
709

>  <SMILES>  (5) 
c1ccc(CC/N=c2\nc(N3CCCNCC3)nc(N3CCc4ccccc4C3)[nH]2)cc1

>  <Energy>  (5) 
69.67474045373264

>  <Genealogy>  (5) 
c1ccc(CCN=c2nc(N3CCCNCC3)nc(N3CCc4ccccc4C3)[nH]2)cc1 (tautomer)
c1ccc(CC/N=c2\nc(N3CCCNCC3)nc(N3CCc4ccccc4C3)[nH]2)cc1 (cis-trans isomerization)
c1ccc(CC/N=c2\nc(N3CCCNCC3)nc(N3CCc4ccccc4C3)[nH]2)cc1 (3D coordinates assigned)
c1ccc(CC/N=c2\nc(N3CCCNCC3)nc(N3CCc4ccccc4C3)[nH]2)cc1 (nonaromatic ring conformer: 69.67474045373264 kcal/mol)

>  <smiles>  (5) 
c1ccc(CCNc2nc(N3CCCNCC3)nc(N3CCc4ccccc4C3)n2)cc1

>  <score_type>  (5) 
oracle

>  <origin>  (5) 
autodockgpu

>  <m_score__min__energy>  (5) 
-8.6500000000000004

>  <m_primary>  (5) 
energy

>  <meeko>  (5) 
{"free_energy": -8.29, "intermolecular_energy": -11.87, "internal_energy": -0.98, "cluster_size": 17, "cluster_id": 1, "rank_in_cluster": 8}

>  <energy>  (5) 
-8.43

>  <cluster_rmsd>  (5) 
1.7

>  <rmsd>  (5) 
269.27

>  <cluster>  (5) 
1

$$$$
IBHRIKXMMSCQIV-SCUVULFGNA-N
     RDKit          3D

 63 67  0  0  0  0  0  0  0  0999 V2000
  141.3778   73.4267  227.4259 H   0  0  0  0  0  0  0  0  0  0  0  0
  141.1430   72.3550  227.3460 C   0  0  0  0  0  0  0  0  0  0  0  0
  140.4550   71.7120  228.3780 C   0  0  0  0  0  0  0  0  0  0  0  0
  140.1443   72.2787  229.2681 H   0  0  0  0  0  0  0  0  0  0  0  0
  140.1610   70.3480  228.2800 C   0  0  0  0  0  0  0  0  0  0  0  0
  139.6140   69.8454  229.0913 H   0  0  0  0  0  0  0  0  0  0  0  0
  140.5620   69.6180  227.1490 C   0  0  0  0  0  0  0  0  0  0  0  0
  140.2220   68.1570  227.0300 C   0  0  0  0  0  0  0  0  0  0  0  0
  141.0581   67.5582  227.4203 H   0  0  0  0  0  0  0  0  0  0  0  0
  139.3083   67.9571  227.6089 H   0  0  0  0  0  0  0  0  0  0  0  0
  139.9720   67.7790  225.5650 C   0  0  0  0  0  0  0  0  0  0  0  0
  140.6325   68.3767  224.9197 H   0  0  0  0  0  0  0  0  0  0  0  0
  140.1811   66.7069  225.4348 H   0  0  0  0  0  0  0  0  0  0  0  0
  138.5790   68.0360  225.1970 N   0  0  0  0  0  0  0  0  0  0  0  0
  138.1350   69.1660  224.7270 C   0  0  0  0  0  0  0  0  0  0  0  0
  136.9220   69.6460  225.1080 N   0  0  0  0  0  0  0  0  0  0  0  0
  136.4580   70.8260  224.6220 C   0  0  0  0  0  0  0  0  0  0  0  0
  135.1750   71.3320  225.0510 N   0  0  0  0  0  0  0  0  0  0  0  0
  134.6400   72.5420  224.3960 C   0  0  0  0  0  0  0  0  0  0  0  0
  133.7128   72.2694  223.8707 H   0  0  0  0  0  0  0  0  0  0  0  0
  135.4224   72.9064  223.7141 H   0  0  0  0  0  0  0  0  0  0  0  0
  134.3260   73.6900  225.3640 C   0  0  0  0  0  0  0  0  0  0  0  0
  133.6105   74.3779  224.8899 H   0  0  0  0  0  0  0  0  0  0  0  0
  135.2600   74.2199  225.6027 H   0  0  0  0  0  0  0  0  0  0  0  0
  133.7430   73.1680  226.6100 N   0  0  0  0  0  0  0  0  0  0  0  0
  134.4580   72.5440  227.0560 H   0  0  0  0  0  0  0  0  0  0  0  0
  132.5510   72.3450  226.3600 C   0  0  0  0  0  0  0  0  0  0  0  0
  131.9689   72.7999  225.5450 H   0  0  0  0  0  0  0  0  0  0  0  0
  131.9641   72.3024  227.2894 H   0  0  0  0  0  0  0  0  0  0  0  0
  132.9220   70.9090  225.9640 C   0  0  0  0  0  0  0  0  0  0  0  0
  132.6257   70.7457  224.9173 H   0  0  0  0  0  0  0  0  0  0  0  0
  132.3933   70.2302  226.6494 H   0  0  0  0  0  0  0  0  0  0  0  0
  134.4190   70.6230  226.0980 C   0  0  0  0  0  0  0  0  0  0  0  0
  134.5912   69.5411  225.9992 H   0  0  0  0  0  0  0  0  0  0  0  0
  134.7615   70.9728  227.0831 H   0  0  0  0  0  0  0  0  0  0  0  0
  137.2230   71.5290  223.7490 N   0  0  0  0  0  0  0  0  0  0  0  0
  138.4420   71.0660  223.3620 C   0  0  0  0  0  0  0  0  0  0  0  0
  139.2330   71.8280  222.4310 N   0  0  0  0  0  0  0  0  0  0  0  0
  140.4680   71.2530  221.8840 C   0  0  0  0  0  0  0  0  0  0  0  0
  140.2159   70.6320  221.0118 H   0  0  0  0  0  0  0  0  0  0  0  0
  140.9441   70.6518  222.6726 H   0  0  0  0  0  0  0  0  0  0  0  0
  141.4440   72.3250  221.4560 C   0  0  0  0  0  0  0  0  0  0  0  0
  142.7360   71.9470  221.0570 C   0  0  0  0  0  0  0  0  0  0  0  0
  143.0279   70.8868  221.0854 H   0  0  0  0  0  0  0  0  0  0  0  0
  143.6540   72.9080  220.6240 C   0  0  0  0  0  0  0  0  0  0  0  0
  144.6642   72.6021  220.3142 H   0  0  0  0  0  0  0  0  0  0  0  0
  143.2910   74.2550  220.5840 C   0  0  0  0  0  0  0  0  0  0  0  0
  144.0175   75.0099  220.2489 H   0  0  0  0  0  0  0  0  0  0  0  0
  142.0060   74.6460  220.9690 C   0  0  0  0  0  0  0  0  0  0  0  0
  141.7271   75.7097  220.9406 H   0  0  0  0  0  0  0  0  0  0  0  0
  141.0680   73.6900  221.3920 C   0  0  0  0  0  0  0  0  0  0  0  0
  139.7070   74.1470  221.8530 C   0  0  0  0  0  0  0  0  0  0  0  0
  139.3717   74.9755  221.2117 H   0  0  0  0  0  0  0  0  0  0  0  0
  139.7881   74.4717  222.9009 H   0  0  0  0  0  0  0  0  0  0  0  0
  138.6840   73.0170  221.7790 C   0  0  0  0  0  0  0  0  0  0  0  0
  138.4622   72.7898  220.7258 H   0  0  0  0  0  0  0  0  0  0  0  0
  137.7578   73.3230  222.2874 H   0  0  0  0  0  0  0  0  0  0  0  0
  138.8910   69.8740  223.8450 N   0  0  0  0  0  0  0  0  0  0  0  0
  139.8060   69.4850  223.5240 H   0  0  0  0  0  0  0  0  0  0  0  0
  141.2390   70.2740  226.1070 C   0  0  0  0  0  0  0  0  0  0  0  0
  141.5379   69.7149  225.2081 H   0  0  0  0  0  0  0  0  0  0  0  0
  141.5330   71.6370  226.2120 C   0  0  0  0  0  0  0  0  0  0  0  0
  142.0728   72.1457  225.3997 H   0  0  0  0  0  0  0  0  0  0  0  0
  1  2  1  0
  2  3  2  0
  3  4  1  0
  3  5  1  0
  5  6  1  0
  5  7  2  0
  7  8  1  0
  8  9  1  0
  8 10  1  0
  8 11  1  0
 11 12  1  0
 11 13  1  0
 11 14  1  0
 14 15  2  0
 15 16  1  0
 16 17  2  0
 17 18  1  0
 18 19  1  0
 19 20  1  0
 19 21  1  0
 19 22  1  0
 22 23  1  0
 22 24  1  0
 22 25  1  0
 25 26  1  0
 25 27  1  0
 27 28  1  0
 27 29  1  0
 27 30  1  0
 30 31  1  0
 30 32  1  0
 30 33  1  0
 33 34  1  0
 33 35  1  0
 17 36  1  0
 36 37  2  0
 37 38  1  0
 38 39  1  0
 39 40  1  0
 39 41  1  0
 39 42  1  0
 42 43  2  0
 43 44  1  0
 43 45  1  0
 45 46  1  0
 45 47  2  0
 47 48  1  0
 47 49  1  0
 49 50  1  0
 49 51  2  0
 51 52  1  0
 52 53  1  0
 52 54  1  0
 52 55  1  0
 55 56  1  0
 55 57  1  0
 37 58  1  0
 58 59  1  0
  7 60  1  0
 60 61  1  0
 60 62  2  0
 62 63  1  0
 62  2  1  0
 58 15  1  0
 33 18  1  0
 55 38  1  0
 51 42  1  0
M  END
>  <UniqueID>  (6) 
709

>  <SMILES>  (6) 
c1ccc(CC/N=c2\nc(N3CCCNCC3)nc(N3CCc4ccccc4C3)[nH]2)cc1

>  <Energy>  (6) 
69.67474045373264

>  <Genealogy>  (6) 
c1ccc(CCN=c2nc(N3CCCNCC3)nc(N3CCc4ccccc4C3)[nH]2)cc1 (tautomer)
c1ccc(CC/N=c2\nc(N3CCCNCC3)nc(N3CCc4ccccc4C3)[nH]2)cc1 (cis-trans isomerization)
c1ccc(CC/N=c2\nc(N3CCCNCC3)nc(N3CCc4ccccc4C3)[nH]2)cc1 (3D coordinates assigned)
c1ccc(CC/N=c2\nc(N3CCCNCC3)nc(N3CCc4ccccc4C3)[nH]2)cc1 (nonaromatic ring conformer: 69.67474045373264 kcal/mol)

>  <smiles>  (6) 
c1ccc(CCNc2nc(N3CCCNCC3)nc(N3CCc4ccccc4C3)n2)cc1

>  <score_type>  (6) 
oracle

>  <origin>  (6) 
autodockgpu

>  <m_score__min__energy>  (6) 
-8.6500000000000004

>  <m_primary>  (6) 
energy

>  <meeko>  (6) 
{"free_energy": -5.81, "intermolecular_energy": -9.39, "internal_energy": -1.6, "cluster_size": 1, "cluster_id": 4, "rank_in_cluster": 1}

>  <energy>  (6) 
-8.43

>  <cluster_rmsd>  (6) 
1.68

>  <rmsd>  (6) 
269.38

>  <cluster>  (6) 
1

$$$$
IBHRIKXMMSCQIV-SCUVULFGNA-N
     RDKit          3D

 63 67  0  0  0  0  0  0  0  0999 V2000
  143.4373   81.3844  222.7462 H   0  0  0  0  0  0  0  0  0  0  0  0
  142.7350   80.5400  222.6850 C   0  0  0  0  0  0  0  0  0  0  0  0
  142.4240   79.8040  223.8330 C   0  0  0  0  0  0  0  0  0  0  0  0
  142.8785   80.0728  224.7980 H   0  0  0  0  0  0  0  0  0  0  0  0
  141.5360   78.7270  223.7550 C   0  0  0  0  0  0  0  0  0  0  0  0
  141.2889   78.1538  224.6608 H   0  0  0  0  0  0  0  0  0  0  0  0
  140.9580   78.3740  222.5240 C   0  0  0  0  0  0  0  0  0  0  0  0
  139.9810   77.2330  222.4430 C   0  0  0  0  0  0  0  0  0  0  0  0
  140.3938   76.3651  222.9781 H   0  0  0  0  0  0  0  0  0  0  0  0
  139.0313   77.5465  222.9011 H   0  0  0  0  0  0  0  0  0  0  0  0
  139.7210   76.8470  220.9820 C   0  0  0  0  0  0  0  0  0  0  0  0
  138.9673   77.5265  220.5574 H   0  0  0  0  0  0  0  0  0  0  0  0
  140.6642   76.9261  220.4215 H   0  0  0  0  0  0  0  0  0  0  0  0
  139.2330   75.4710  220.8910 N   0  0  0  0  0  0  0  0  0  0  0  0
  139.9240   74.4180  221.2200 C   0  0  0  0  0  0  0  0  0  0  0  0
  141.0520   74.0870  220.5380 N   0  0  0  0  0  0  0  0  0  0  0  0
  141.7760   72.9910  220.8810 C   0  0  0  0  0  0  0  0  0  0  0  0
  142.9830   72.6640  220.1580 N   0  0  0  0  0  0  0  0  0  0  0  0
  144.2220   72.4280  220.9260 C   0  0  0  0  0  0  0  0  0  0  0  0
  144.6365   71.4550  220.6234 H   0  0  0  0  0  0  0  0  0  0  0  0
  143.9472   72.4587  221.9907 H   0  0  0  0  0  0  0  0  0  0  0  0
  145.3000   73.4980  220.7150 C   0  0  0  0  0  0  0  0  0  0  0  0
  145.8924   73.6014  221.6361 H   0  0  0  0  0  0  0  0  0  0  0  0
  144.8107   74.4521  220.4694 H   0  0  0  0  0  0  0  0  0  0  0  0
  146.1910   73.1210  219.6060 N   0  0  0  0  0  0  0  0  0  0  0  0
  146.5320   74.0070  219.1600 H   0  0  0  0  0  0  0  0  0  0  0  0
  145.4840   72.3610  218.5640 C   0  0  0  0  0  0  0  0  0  0  0  0
  145.1838   71.3858  218.9750 H   0  0  0  0  0  0  0  0  0  0  0  0
  146.1644   72.2341  217.7090 H   0  0  0  0  0  0  0  0  0  0  0  0
  144.2330   73.1020  218.0760 C   0  0  0  0  0  0  0  0  0  0  0  0
  144.1710   73.0086  216.9817 H   0  0  0  0  0  0  0  0  0  0  0  0
  144.3231   74.1538  218.3852 H   0  0  0  0  0  0  0  0  0  0  0  0
  142.9490   72.5420  218.6910 C   0  0  0  0  0  0  0  0  0  0  0  0
  142.8501   71.4809  218.4184 H   0  0  0  0  0  0  0  0  0  0  0  0
  142.0918   73.1143  218.3066 H   0  0  0  0  0  0  0  0  0  0  0  0
  141.3630   72.2250  221.9220 N   0  0  0  0  0  0  0  0  0  0  0  0
  140.2400   72.5450  222.6190 C   0  0  0  0  0  0  0  0  0  0  0  0
  139.8200   71.7140  223.7180 N   0  0  0  0  0  0  0  0  0  0  0  0
  140.5210   71.7980  225.0050 C   0  0  0  0  0  0  0  0  0  0  0  0
  140.0907   72.6229  225.5918 H   0  0  0  0  0  0  0  0  0  0  0  0
  141.5882   71.9718  224.8027 H   0  0  0  0  0  0  0  0  0  0  0  0
  140.3950   70.5160  225.7970 C   0  0  0  0  0  0  0  0  0  0  0  0
  141.1380   70.3730  226.9790 C   0  0  0  0  0  0  0  0  0  0  0  0
  141.8168   71.1778  227.2978 H   0  0  0  0  0  0  0  0  0  0  0  0
  141.0220   69.2160  227.7540 C   0  0  0  0  0  0  0  0  0  0  0  0
  141.6094   69.1130  228.6783 H   0  0  0  0  0  0  0  0  0  0  0  0
  140.1620   68.1910  227.3570 C   0  0  0  0  0  0  0  0  0  0  0  0
  140.0762   67.2790  227.9660 H   0  0  0  0  0  0  0  0  0  0  0  0
  139.4100   68.3220  226.1870 C   0  0  0  0  0  0  0  0  0  0  0  0
  138.7389   67.5082  225.8751 H   0  0  0  0  0  0  0  0  0  0  0  0
  139.5050   69.4860  225.4060 C   0  0  0  0  0  0  0  0  0  0  0  0
  138.7210   69.5760  224.1210 C   0  0  0  0  0  0  0  0  0  0  0  0
  137.7344   69.1131  224.2707 H   0  0  0  0  0  0  0  0  0  0  0  0
  139.2837   69.0511  223.3350 H   0  0  0  0  0  0  0  0  0  0  0  0
  138.5280   71.0260  223.6860 C   0  0  0  0  0  0  0  0  0  0  0  0
  137.8279   71.5258  224.3716 H   0  0  0  0  0  0  0  0  0  0  0  0
  138.1192   71.0544  222.6652 H   0  0  0  0  0  0  0  0  0  0  0  0
  139.5140   73.6390  222.2570 N   0  0  0  0  0  0  0  0  0  0  0  0
  138.6260   73.8730  222.7560 H   0  0  0  0  0  0  0  0  0  0  0  0
  141.2620   79.1270  221.3780 C   0  0  0  0  0  0  0  0  0  0  0  0
  140.7984   78.8707  220.4140 H   0  0  0  0  0  0  0  0  0  0  0  0
  142.1530   80.2020  221.4600 C   0  0  0  0  0  0  0  0  0  0  0  0
  142.3963   80.7829  220.5582 H   0  0  0  0  0  0  0  0  0  0  0  0
  1  2  1  0
  2  3  2  0
  3  4  1  0
  3  5  1  0
  5  6  1  0
  5  7  2  0
  7  8  1  0
  8  9  1  0
  8 10  1  0
  8 11  1  0
 11 12  1  0
 11 13  1  0
 11 14  1  0
 14 15  2  0
 15 16  1  0
 16 17  2  0
 17 18  1  0
 18 19  1  0
 19 20  1  0
 19 21  1  0
 19 22  1  0
 22 23  1  0
 22 24  1  0
 22 25  1  0
 25 26  1  0
 25 27  1  0
 27 28  1  0
 27 29  1  0
 27 30  1  0
 30 31  1  0
 30 32  1  0
 30 33  1  0
 33 34  1  0
 33 35  1  0
 17 36  1  0
 36 37  2  0
 37 38  1  0
 38 39  1  0
 39 40  1  0
 39 41  1  0
 39 42  1  0
 42 43  2  0
 43 44  1  0
 43 45  1  0
 45 46  1  0
 45 47  2  0
 47 48  1  0
 47 49  1  0
 49 50  1  0
 49 51  2  0
 51 52  1  0
 52 53  1  0
 52 54  1  0
 52 55  1  0
 55 56  1  0
 55 57  1  0
 37 58  1  0
 58 59  1  0
  7 60  1  0
 60 61  1  0
 60 62  2  0
 62 63  1  0
 62  2  1  0
 58 15  1  0
 33 18  1  0
 55 38  1  0
 51 42  1  0
M  END
>  <UniqueID>  (7) 
709

>  <SMILES>  (7) 
c1ccc(CC/N=c2\nc(N3CCCNCC3)nc(N3CCc4ccccc4C3)[nH]2)cc1

>  <Energy>  (7) 
69.67474045373264

>  <Genealogy>  (7) 
c1ccc(CCN=c2nc(N3CCCNCC3)nc(N3CCc4ccccc4C3)[nH]2)cc1 (tautomer)
c1ccc(CC/N=c2\nc(N3CCCNCC3)nc(N3CCc4ccccc4C3)[nH]2)cc1 (cis-trans isomerization)
c1ccc(CC/N=c2\nc(N3CCCNCC3)nc(N3CCc4ccccc4C3)[nH]2)cc1 (3D coordinates assigned)
c1ccc(CC/N=c2\nc(N3CCCNCC3)nc(N3CCc4ccccc4C3)[nH]2)cc1 (nonaromatic ring conformer: 69.67474045373264 kcal/mol)

>  <smiles>  (7) 
c1ccc(CCNc2nc(N3CCCNCC3)nc(N3CCc4ccccc4C3)n2)cc1

>  <score_type>  (7) 
oracle

>  <origin>  (7) 
autodockgpu

>  <m_score__min__energy>  (7) 
-8.6500000000000004

>  <m_primary>  (7) 
energy

>  <meeko>  (7) 
{"free_energy": -7.88, "intermolecular_energy": -11.46, "internal_energy": -0.96, "cluster_size": 17, "cluster_id": 1, "rank_in_cluster": 15}

>  <energy>  (7) 
-8.39

>  <cluster_rmsd>  (7) 
1.66

>  <rmsd>  (7) 
269.42

>  <cluster>  (7) 
1

$$$$
IBHRIKXMMSCQIV-SCUVULFGNA-N
     RDKit          3D

 63 67  0  0  0  0  0  0  0  0999 V2000
  141.0572   69.6122  229.2782 H   0  0  0  0  0  0  0  0  0  0  0  0
  140.9660   70.0030  228.2540 C   0  0  0  0  0  0  0  0  0  0  0  0
  141.0630   71.3770  228.0190 C   0  0  0  0  0  0  0  0  0  0  0  0
  141.2347   72.0673  228.8580 H   0  0  0  0  0  0  0  0  0  0  0  0
  140.9420   71.8750  226.7180 C   0  0  0  0  0  0  0  0  0  0  0  0
  141.0256   72.9565  226.5353 H   0  0  0  0  0  0  0  0  0  0  0  0
  140.7140   70.9990  225.6430 C   0  0  0  0  0  0  0  0  0  0  0  0
  140.6110   71.5300  224.2400 C   0  0  0  0  0  0  0  0  0  0  0  0
  140.8091   72.6120  224.2475 H   0  0  0  0  0  0  0  0  0  0  0  0
  141.3492   71.0124  223.6098 H   0  0  0  0  0  0  0  0  0  0  0  0
  139.2100   71.2780  223.6690 C   0  0  0  0  0  0  0  0  0  0  0  0
  139.1039   70.2095  223.4304 H   0  0  0  0  0  0  0  0  0  0  0  0
  138.4628   71.5769  224.4189 H   0  0  0  0  0  0  0  0  0  0  0  0
  138.9990   72.0650  222.4540 N   0  0  0  0  0  0  0  0  0  0  0  0
  139.8520   72.9220  221.9700 C   0  0  0  0  0  0  0  0  0  0  0  0
  140.9480   72.4980  221.2870 N   0  0  0  0  0  0  0  0  0  0  0  0
  141.8370   73.3890  220.7780 C   0  0  0  0  0  0  0  0  0  0  0  0
  142.9870   72.9240  220.0380 N   0  0  0  0  0  0  0  0  0  0  0  0
  144.2390   72.6600  220.7750 C   0  0  0  0  0  0  0  0  0  0  0  0
  144.5495   71.6249  220.5695 H   0  0  0  0  0  0  0  0  0  0  0  0
  144.0241   72.8348  221.8395 H   0  0  0  0  0  0  0  0  0  0  0  0
  145.3950   73.5940  220.3970 C   0  0  0  0  0  0  0  0  0  0  0  0
  146.0312   73.7579  221.2793 H   0  0  0  0  0  0  0  0  0  0  0  0
  144.9795   74.5501  220.0460 H   0  0  0  0  0  0  0  0  0  0  0  0
  146.2040   73.0030  219.3200 N   0  0  0  0  0  0  0  0  0  0  0  0
  146.6640   73.7900  218.8020 H   0  0  0  0  0  0  0  0  0  0  0  0
  145.3800   72.2730  218.3460 C   0  0  0  0  0  0  0  0  0  0  0  0
  145.0152   71.3456  218.8117 H   0  0  0  0  0  0  0  0  0  0  0  0
  146.0027   72.0538  217.4661 H   0  0  0  0  0  0  0  0  0  0  0  0
  144.1770   73.1040  217.8850 C   0  0  0  0  0  0  0  0  0  0  0  0
  144.0493   72.9692  216.8008 H   0  0  0  0  0  0  0  0  0  0  0  0
  144.3782   74.1550  218.1398 H   0  0  0  0  0  0  0  0  0  0  0  0
  142.8810   72.6940  218.5870 C   0  0  0  0  0  0  0  0  0  0  0  0
  142.6911   71.6264  218.4024 H   0  0  0  0  0  0  0  0  0  0  0  0
  142.0533   73.2999  218.1896 H   0  0  0  0  0  0  0  0  0  0  0  0
  141.6180   74.7170  220.9550 N   0  0  0  0  0  0  0  0  0  0  0  0
  140.5230   75.1580  221.6300 C   0  0  0  0  0  0  0  0  0  0  0  0
  140.3140   76.5720  221.8080 N   0  0  0  0  0  0  0  0  0  0  0  0
  141.4290   77.5040  221.6020 C   0  0  0  0  0  0  0  0  0  0  0  0
  141.4962   77.7479  220.5315 H   0  0  0  0  0  0  0  0  0  0  0  0
  142.3507   77.0184  221.9551 H   0  0  0  0  0  0  0  0  0  0  0  0
  141.2420   78.7840  222.3850 C   0  0  0  0  0  0  0  0  0  0  0  0
  142.2910   79.7160  222.4250 C   0  0  0  0  0  0  0  0  0  0  0  0
  143.2387   79.4930  221.9131 H   0  0  0  0  0  0  0  0  0  0  0  0
  142.1410   80.9250  223.1100 C   0  0  0  0  0  0  0  0  0  0  0  0
  142.9691   81.6486  223.1354 H   0  0  0  0  0  0  0  0  0  0  0  0
  140.9410   81.2150  223.7620 C   0  0  0  0  0  0  0  0  0  0  0  0
  140.8268   82.1645  224.3056 H   0  0  0  0  0  0  0  0  0  0  0  0
  139.8850   80.3010  223.7250 C   0  0  0  0  0  0  0  0  0  0  0  0
  138.9445   80.5315  224.2469 H   0  0  0  0  0  0  0  0  0  0  0  0
  140.0160   79.0900  223.0260 C   0  0  0  0  0  0  0  0  0  0  0  0
  138.8780   78.1000  223.0490 C   0  0  0  0  0  0  0  0  0  0  0  0
  137.9259   78.6481  222.9924 H   0  0  0  0  0  0  0  0  0  0  0  0
  138.9415   77.5220  223.9827 H   0  0  0  0  0  0  0  0  0  0  0  0
  138.9610   77.1270  221.8760 C   0  0  0  0  0  0  0  0  0  0  0  0
  138.7334   77.6583  220.9401 H   0  0  0  0  0  0  0  0  0  0  0  0
  138.2338   76.3138  222.0173 H   0  0  0  0  0  0  0  0  0  0  0  0
  139.6450   74.2540  222.1480 N   0  0  0  0  0  0  0  0  0  0  0  0
  138.8220   74.5770  222.7060 H   0  0  0  0  0  0  0  0  0  0  0  0
  140.6340   69.6170  225.8840 C   0  0  0  0  0  0  0  0  0  0  0  0
  140.4775   68.9214  225.0463 H   0  0  0  0  0  0  0  0  0  0  0  0
  140.7530   69.1250  227.1870 C   0  0  0  0  0  0  0  0  0  0  0  0
  140.6788   68.0435  227.3735 H   0  0  0  0  0  0  0  0  0  0  0  0
  1  2  1  0
  2  3  2  0
  3  4  1  0
  3  5  1  0
  5  6  1  0
  5  7  2  0
  7  8  1  0
  8  9  1  0
  8 10  1  0
  8 11  1  0
 11 12  1  0
 11 13  1  0
 11 14  1  0
 14 15  2  0
 15 16  1  0
 16 17  2  0
 17 18  1  0
 18 19  1  0
 19 20  1  0
 19 21  1  0
 19 22  1  0
 22 23  1  0
 22 24  1  0
 22 25  1  0
 25 26  1  0
 25 27  1  0
 27 28  1  0
 27 29  1  0
 27 30  1  0
 30 31  1  0
 30 32  1  0
 30 33  1  0
 33 34  1  0
 33 35  1  0
 17 36  1  0
 36 37  2  0
 37 38  1  0
 38 39  1  0
 39 40  1  0
 39 41  1  0
 39 42  1  0
 42 43  2  0
 43 44  1  0
 43 45  1  0
 45 46  1  0
 45 47  2  0
 47 48  1  0
 47 49  1  0
 49 50  1  0
 49 51  2  0
 51 52  1  0
 52 53  1  0
 52 54  1  0
 52 55  1  0
 55 56  1  0
 55 57  1  0
 37 58  1  0
 58 59  1  0
  7 60  1  0
 60 61  1  0
 60 62  2  0
 62 63  1  0
 62  2  1  0
 58 15  1  0
 33 18  1  0
 55 38  1  0
 51 42  1  0
M  END
>  <UniqueID>  (8) 
709

>  <SMILES>  (8) 
c1ccc(CC/N=c2\nc(N3CCCNCC3)nc(N3CCc4ccccc4C3)[nH]2)cc1

>  <Energy>  (8) 
69.67474045373264

>  <Genealogy>  (8) 
c1ccc(CCN=c2nc(N3CCCNCC3)nc(N3CCc4ccccc4C3)[nH]2)cc1 (tautomer)
c1ccc(CC/N=c2\nc(N3CCCNCC3)nc(N3CCc4ccccc4C3)[nH]2)cc1 (cis-trans isomerization)
c1ccc(CC/N=c2\nc(N3CCCNCC3)nc(N3CCc4ccccc4C3)[nH]2)cc1 (3D coordinates assigned)
c1ccc(CC/N=c2\nc(N3CCCNCC3)nc(N3CCc4ccccc4C3)[nH]2)cc1 (nonaromatic ring conformer: 69.67474045373264 kcal/mol)

>  <smiles>  (8) 
c1ccc(CCNc2nc(N3CCCNCC3)nc(N3CCc4ccccc4C3)n2)cc1

>  <score_type>  (8) 
oracle

>  <origin>  (8) 
autodockgpu

>  <m_score__min__energy>  (8) 
-8.6500000000000004

>  <m_primary>  (8) 
energy

>  <meeko>  (8) 
{"free_energy": -8.55, "intermolecular_energy": -12.13, "internal_energy": -0.97, "cluster_size": 17, "cluster_id": 1, "rank_in_cluster": 2}

>  <energy>  (8) 
-8.29

>  <cluster_rmsd>  (8) 
1.08

>  <rmsd>  (8) 
269.41

>  <cluster>  (8) 
1

$$$$
IBHRIKXMMSCQIV-SCUVULFGNA-N
     RDKit          3D

 63 67  0  0  0  0  0  0  0  0999 V2000
  140.7978   69.8663  229.3943 H   0  0  0  0  0  0  0  0  0  0  0  0
  140.7540   70.1700  228.3380 C   0  0  0  0  0  0  0  0  0  0  0  0
  140.3170   69.2630  227.3670 C   0  0  0  0  0  0  0  0  0  0  0  0
  140.0136   68.2471  227.6600 H   0  0  0  0  0  0  0  0  0  0  0  0
  140.2660   69.6480  226.0240 C   0  0  0  0  0  0  0  0  0  0  0  0
  139.9151   68.9354  225.2630 H   0  0  0  0  0  0  0  0  0  0  0  0
  140.6610   70.9410  225.6420 C   0  0  0  0  0  0  0  0  0  0  0  0
  140.5810   71.3640  224.2010 C   0  0  0  0  0  0  0  0  0  0  0  0
  140.8333   72.4319  224.1234 H   0  0  0  0  0  0  0  0  0  0  0  0
  141.2904   70.7612  223.6151 H   0  0  0  0  0  0  0  0  0  0  0  0
  139.1690   71.1390  223.6490 C   0  0  0  0  0  0  0  0  0  0  0  0
  139.0850   70.1053  223.2824 H   0  0  0  0  0  0  0  0  0  0  0  0
  138.4415   71.3184  224.4543 H   0  0  0  0  0  0  0  0  0  0  0  0
  138.8910   72.0630  222.5490 N   0  0  0  0  0  0  0  0  0  0  0  0
  139.7590   72.8900  222.0410 C   0  0  0  0  0  0  0  0  0  0  0  0
  140.8300   72.4300  221.3420 N   0  0  0  0  0  0  0  0  0  0  0  0
  141.7340   73.2900  220.8090 C   0  0  0  0  0  0  0  0  0  0  0  0
  142.8560   72.7860  220.0530 N   0  0  0  0  0  0  0  0  0  0  0  0
  144.0940   72.4350  220.7780 C   0  0  0  0  0  0  0  0  0  0  0  0
  144.4149   71.4352  220.4504 H   0  0  0  0  0  0  0  0  0  0  0  0
  143.8557   72.4732  221.8512 H   0  0  0  0  0  0  0  0  0  0  0  0
  145.2520   73.4130  220.5460 C   0  0  0  0  0  0  0  0  0  0  0  0
  145.9034   73.4194  221.4324 H   0  0  0  0  0  0  0  0  0  0  0  0
  144.8393   74.4175  220.3711 H   0  0  0  0  0  0  0  0  0  0  0  0
  146.0390   73.0110  219.3700 N   0  0  0  0  0  0  0  0  0  0  0  0
  146.3300   73.8850  218.8700 H   0  0  0  0  0  0  0  0  0  0  0  0
  145.2470   72.2170  218.4200 C   0  0  0  0  0  0  0  0  0  0  0  0
  144.8917   71.3069  218.9255 H   0  0  0  0  0  0  0  0  0  0  0  0
  145.8897   71.9668  217.5631 H   0  0  0  0  0  0  0  0  0  0  0  0
  144.0390   72.9980  217.8980 C   0  0  0  0  0  0  0  0  0  0  0  0
  143.9338   72.8053  216.8201 H   0  0  0  0  0  0  0  0  0  0  0  0
  144.2168   74.0638  218.1038 H   0  0  0  0  0  0  0  0  0  0  0  0
  142.7370   72.6020  218.5960 C   0  0  0  0  0  0  0  0  0  0  0  0
  142.5179   71.5456  218.3812 H   0  0  0  0  0  0  0  0  0  0  0  0
  141.9240   73.2415  218.2219 H   0  0  0  0  0  0  0  0  0  0  0  0
  141.5560   74.6250  220.9770 N   0  0  0  0  0  0  0  0  0  0  0  0
  140.4870   75.1030  221.6680 C   0  0  0  0  0  0  0  0  0  0  0  0
  140.3220   76.5240  221.8360 N   0  0  0  0  0  0  0  0  0  0  0  0
  141.4610   77.4210  221.6090 C   0  0  0  0  0  0  0  0  0  0  0  0
  141.5229   77.6536  220.5357 H   0  0  0  0  0  0  0  0  0  0  0  0
  142.3723   76.9118  221.9558 H   0  0  0  0  0  0  0  0  0  0  0  0
  141.3200   78.7130  222.3830 C   0  0  0  0  0  0  0  0  0  0  0  0
  142.3970   79.6140  222.4020 C   0  0  0  0  0  0  0  0  0  0  0  0
  143.3311   79.3591  221.8800 H   0  0  0  0  0  0  0  0  0  0  0  0
  142.2910   80.8320  223.0790 C   0  0  0  0  0  0  0  0  0  0  0  0
  143.1405   81.5308  223.0885 H   0  0  0  0  0  0  0  0  0  0  0  0
  141.1090   81.1630  223.7430 C   0  0  0  0  0  0  0  0  0  0  0  0
  141.0297   82.1197  224.2801 H   0  0  0  0  0  0  0  0  0  0  0  0
  140.0260   80.2800  223.7260 C   0  0  0  0  0  0  0  0  0  0  0  0
  139.0989   80.5432  224.2563 H   0  0  0  0  0  0  0  0  0  0  0  0
  140.1120   79.0590  223.0370 C   0  0  0  0  0  0  0  0  0  0  0  0
  138.9460   78.1040  223.0820 C   0  0  0  0  0  0  0  0  0  0  0  0
  138.0099   78.6795  223.0315 H   0  0  0  0  0  0  0  0  0  0  0  0
  139.0028   77.5324  224.0201 H   0  0  0  0  0  0  0  0  0  0  0  0
  138.9870   77.1190  221.9160 C   0  0  0  0  0  0  0  0  0  0  0  0
  138.7636   77.6491  220.9784 H   0  0  0  0  0  0  0  0  0  0  0  0
  138.2386   76.3284  222.0733 H   0  0  0  0  0  0  0  0  0  0  0  0
  139.5930   74.2300  222.2110 N   0  0  0  0  0  0  0  0  0  0  0  0
  138.7910   74.5810  222.7800 H   0  0  0  0  0  0  0  0  0  0  0  0
  141.0840   71.8520  226.6240 C   0  0  0  0  0  0  0  0  0  0  0  0
  141.3754   72.8732  226.3371 H   0  0  0  0  0  0  0  0  0  0  0  0
  141.1350   71.4620  227.9660 C   0  0  0  0  0  0  0  0  0  0  0  0
  141.4762   72.1746  228.7314 H   0  0  0  0  0  0  0  0  0  0  0  0
  1  2  1  0
  2  3  2  0
  3  4  1  0
  3  5  1  0
  5  6  1  0
  5  7  2  0
  7  8  1  0
  8  9  1  0
  8 10  1  0
  8 11  1  0
 11 12  1  0
 11 13  1  0
 11 14  1  0
 14 15  2  0
 15 16  1  0
 16 17  2  0
 17 18  1  0
 18 19  1  0
 19 20  1  0
 19 21  1  0
 19 22  1  0
 22 23  1  0
 22 24  1  0
 22 25  1  0
 25 26  1  0
 25 27  1  0
 27 28  1  0
 27 29  1  0
 27 30  1  0
 30 31  1  0
 30 32  1  0
 30 33  1  0
 33 34  1  0
 33 35  1  0
 17 36  1  0
 36 37  2  0
 37 38  1  0
 38 39  1  0
 39 40  1  0
 39 41  1  0
 39 42  1  0
 42 43  2  0
 43 44  1  0
 43 45  1  0
 45 46  1  0
 45 47  2  0
 47 48  1  0
 47 49  1  0
 49 50  1  0
 49 51  2  0
 51 52  1  0
 52 53  1  0
 52 54  1  0
 52 55  1  0
 55 56  1  0
 55 57  1  0
 37 58  1  0
 58 59  1  0
  7 60  1  0
 60 61  1  0
 60 62  2  0
 62 63  1  0
 62  2  1  0
 58 15  1  0
 33 18  1  0
 55 38  1  0
 51 42  1  0
M  END
>  <UniqueID>  (9) 
709

>  <SMILES>  (9) 
c1ccc(CC/N=c2\nc(N3CCCNCC3)nc(N3CCc4ccccc4C3)[nH]2)cc1

>  <Energy>  (9) 
69.67474045373264

>  <Genealogy>  (9) 
c1ccc(CCN=c2nc(N3CCCNCC3)nc(N3CCc4ccccc4C3)[nH]2)cc1 (tautomer)
c1ccc(CC/N=c2\nc(N3CCCNCC3)nc(N3CCc4ccccc4C3)[nH]2)cc1 (cis-trans isomerization)
c1ccc(CC/N=c2\nc(N3CCCNCC3)nc(N3CCc4ccccc4C3)[nH]2)cc1 (3D coordinates assigned)
c1ccc(CC/N=c2\nc(N3CCCNCC3)nc(N3CCc4ccccc4C3)[nH]2)cc1 (nonaromatic ring conformer: 69.67474045373264 kcal/mol)

>  <smiles>  (9) 
c1ccc(CCNc2nc(N3CCCNCC3)nc(N3CCc4ccccc4C3)n2)cc1

>  <score_type>  (9) 
oracle

>  <origin>  (9) 
autodockgpu

>  <m_score__min__energy>  (9) 
-8.6500000000000004

>  <m_primary>  (9) 
energy

>  <meeko>  (9) 
{"free_energy": -8.48, "intermolecular_energy": -12.06, "internal_energy": -0.99, "cluster_size": 17, "cluster_id": 1, "rank_in_cluster": 4}

>  <energy>  (9) 
-8.29

>  <cluster_rmsd>  (9) 
1.64

>  <rmsd>  (9) 
269.47

>  <cluster>  (9) 
1

$$$$
IBHRIKXMMSCQIV-SCUVULFGNA-N
     RDKit          3D

 63 67  0  0  0  0  0  0  0  0999 V2000
  146.6885   74.5551  221.8541 H   0  0  0  0  0  0  0  0  0  0  0  0
  146.0610   74.0590  221.0990 C   0  0  0  0  0  0  0  0  0  0  0  0
  145.0010   74.7520  220.5070 C   0  0  0  0  0  0  0  0  0  0  0  0
  144.7968   75.7942  220.7937 H   0  0  0  0  0  0  0  0  0  0  0  0
  144.2000   74.1200  219.5500 C   0  0  0  0  0  0  0  0  0  0  0  0
  143.3711   74.6696  219.0801 H   0  0  0  0  0  0  0  0  0  0  0  0
  144.4500   72.7870  219.1870 C   0  0  0  0  0  0  0  0  0  0  0  0
  143.6060   72.1140  218.1390 C   0  0  0  0  0  0  0  0  0  0  0  0
  142.8783   72.8370  217.7418 H   0  0  0  0  0  0  0  0  0  0  0  0
  144.2622   71.7529  217.3334 H   0  0  0  0  0  0  0  0  0  0  0  0
  142.8540   70.9190  218.7370 C   0  0  0  0  0  0  0  0  0  0  0  0
  142.7877   70.1201  217.9837 H   0  0  0  0  0  0  0  0  0  0  0  0
  143.4012   70.5632  219.6224 H   0  0  0  0  0  0  0  0  0  0  0  0
  141.5040   71.3100  219.1430 N   0  0  0  0  0  0  0  0  0  0  0  0
  141.2230   71.9890  220.2190 C   0  0  0  0  0  0  0  0  0  0  0  0
  141.3530   73.3420  220.2380 N   0  0  0  0  0  0  0  0  0  0  0  0
  141.0570   74.0520  221.3560 C   0  0  0  0  0  0  0  0  0  0  0  0
  141.1830   75.4910  221.3550 N   0  0  0  0  0  0  0  0  0  0  0  0
  142.0600   76.1210  220.3480 C   0  0  0  0  0  0  0  0  0  0  0  0
  142.3645   75.3506  219.6243 H   0  0  0  0  0  0  0  0  0  0  0  0
  142.9128   76.5510  220.8938 H   0  0  0  0  0  0  0  0  0  0  0  0
  141.4010   77.2720  219.5780 C   0  0  0  0  0  0  0  0  0  0  0  0
  140.3226   77.0753  219.4862 H   0  0  0  0  0  0  0  0  0  0  0  0
  141.8604   77.3416  218.5810 H   0  0  0  0  0  0  0  0  0  0  0  0
  141.6020   78.5470  220.2840 N   0  0  0  0  0  0  0  0  0  0  0  0
  142.5910   78.5620  220.6320 H   0  0  0  0  0  0  0  0  0  0  0  0
  140.7300   78.6700  221.4610 C   0  0  0  0  0  0  0  0  0  0  0  0
  139.6876   78.5043  221.1511 H   0  0  0  0  0  0  0  0  0  0  0  0
  140.8613   79.6782  221.8808 H   0  0  0  0  0  0  0  0  0  0  0  0
  141.0940   77.6490  222.5470 C   0  0  0  0  0  0  0  0  0  0  0  0
  140.7788   78.0447  223.5238 H   0  0  0  0  0  0  0  0  0  0  0  0
  142.1819   77.4913  222.5082 H   0  0  0  0  0  0  0  0  0  0  0  0
  140.4180   76.2950  222.3240 C   0  0  0  0  0  0  0  0  0  0  0  0
  139.4011   76.4572  221.9373 H   0  0  0  0  0  0  0  0  0  0  0  0
  140.3773   75.7551  223.2815 H   0  0  0  0  0  0  0  0  0  0  0  0
  140.6230   73.3950  222.4620 N   0  0  0  0  0  0  0  0  0  0  0  0
  140.4810   72.0430  222.4570 C   0  0  0  0  0  0  0  0  0  0  0  0
  140.0230   71.3690  223.6440 N   0  0  0  0  0  0  0  0  0  0  0  0
  140.5740   71.7420  224.9520 C   0  0  0  0  0  0  0  0  0  0  0  0
  140.0130   72.6040  225.3421 H   0  0  0  0  0  0  0  0  0  0  0  0
  141.6370   71.9908  224.8172 H   0  0  0  0  0  0  0  0  0  0  0  0
  140.4790   70.6050  225.9460 C   0  0  0  0  0  0  0  0  0  0  0  0
  141.1030   70.7420  227.1960 C   0  0  0  0  0  0  0  0  0  0  0  0
  141.6709   71.6557  227.4255 H   0  0  0  0  0  0  0  0  0  0  0  0
  141.0080   69.7260  228.1510 C   0  0  0  0  0  0  0  0  0  0  0  0
  141.5005   69.8423  229.1277 H   0  0  0  0  0  0  0  0  0  0  0  0
  140.2890   68.5640  227.8670 C   0  0  0  0  0  0  0  0  0  0  0  0
  140.2206   67.7630  228.6178 H   0  0  0  0  0  0  0  0  0  0  0  0
  139.6560   68.4170  226.6300 C   0  0  0  0  0  0  0  0  0  0  0  0
  139.0964   67.4961  226.4091 H   0  0  0  0  0  0  0  0  0  0  0  0
  139.7290   69.4360  225.6670 C   0  0  0  0  0  0  0  0  0  0  0  0
  139.0810   69.2250  224.3220 C   0  0  0  0  0  0  0  0  0  0  0  0
  138.1293   68.6918  224.4630 H   0  0  0  0  0  0  0  0  0  0  0  0
  139.7683   68.6380  223.6950 H   0  0  0  0  0  0  0  0  0  0  0  0
  138.8070   70.5530  223.6210 C   0  0  0  0  0  0  0  0  0  0  0  0
  137.9974   71.0843  224.1427 H   0  0  0  0  0  0  0  0  0  0  0  0
  138.5067   70.3662  222.5794 H   0  0  0  0  0  0  0  0  0  0  0  0
  140.7950   71.3390  221.3340 N   0  0  0  0  0  0  0  0  0  0  0  0
  140.7310   70.2960  221.3290 H   0  0  0  0  0  0  0  0  0  0  0  0
  145.5270   72.1010  219.7740 C   0  0  0  0  0  0  0  0  0  0  0  0
  145.7434   71.0634  219.4797 H   0  0  0  0  0  0  0  0  0  0  0  0
  146.3240   72.7360  220.7320 C   0  0  0  0  0  0  0  0  0  0  0  0
  147.1597   72.1931  221.1977 H   0  0  0  0  0  0  0  0  0  0  0  0
  1  2  1  0
  2  3  2  0
  3  4  1  0
  3  5  1  0
  5  6  1  0
  5  7  2  0
  7  8  1  0
  8  9  1  0
  8 10  1  0
  8 11  1  0
 11 12  1  0
 11 13  1  0
 11 14  1  0
 14 15  2  0
 15 16  1  0
 16 17  2  0
 17 18  1  0
 18 19  1  0
 19 20  1  0
 19 21  1  0
 19 22  1  0
 22 23  1  0
 22 24  1  0
 22 25  1  0
 25 26  1  0
 25 27  1  0
 27 28  1  0
 27 29  1  0
 27 30  1  0
 30 31  1  0
 30 32  1  0
 30 33  1  0
 33 34  1  0
 33 35  1  0
 17 36  1  0
 36 37  2  0
 37 38  1  0
 38 39  1  0
 39 40  1  0
 39 41  1  0
 39 42  1  0
 42 43  2  0
 43 44  1  0
 43 45  1  0
 45 46  1  0
 45 47  2  0
 47 48  1  0
 47 49  1  0
 49 50  1  0
 49 51  2  0
 51 52  1  0
 52 53  1  0
 52 54  1  0
 52 55  1  0
 55 56  1  0
 55 57  1  0
 37 58  1  0
 58 59  1  0
  7 60  1  0
 60 61  1  0
 60 62  2  0
 62 63  1  0
 62  2  1  0
 58 15  1  0
 33 18  1  0
 55 38  1  0
 51 42  1  0
M  END
>  <UniqueID>  (10) 
709

>  <SMILES>  (10) 
c1ccc(CC/N=c2\nc(N3CCCNCC3)nc(N3CCc4ccccc4C3)[nH]2)cc1

>  <Energy>  (10) 
69.67474045373264

>  <Genealogy>  (10) 
c1ccc(CCN=c2nc(N3CCCNCC3)nc(N3CCc4ccccc4C3)[nH]2)cc1 (tautomer)
c1ccc(CC/N=c2\nc(N3CCCNCC3)nc(N3CCc4ccccc4C3)[nH]2)cc1 (cis-trans isomerization)
c1ccc(CC/N=c2\nc(N3CCCNCC3)nc(N3CCc4ccccc4C3)[nH]2)cc1 (3D coordinates assigned)
c1ccc(CC/N=c2\nc(N3CCCNCC3)nc(N3CCc4ccccc4C3)[nH]2)cc1 (nonaromatic ring conformer: 69.67474045373264 kcal/mol)

>  <smiles>  (10) 
c1ccc(CCNc2nc(N3CCCNCC3)nc(N3CCc4ccccc4C3)n2)cc1

>  <score_type>  (10) 
oracle

>  <origin>  (10) 
autodockgpu

>  <m_score__min__energy>  (10) 
-8.6500000000000004

>  <m_primary>  (10) 
energy

>  <meeko>  (10) 
{"free_energy": -6.64, "intermolecular_energy": -10.22, "internal_energy": -1.43, "cluster_size": 1, "cluster_id": 3, "rank_in_cluster": 1}

>  <energy>  (10) 
-8.27

>  <cluster_rmsd>  (10) 
1.3

>  <rmsd>  (10) 
269.28

>  <cluster>  (10) 
1

$$$$
IBHRIKXMMSCQIV-SCUVULFGNA-N
     RDKit          3D

 63 67  0  0  0  0  0  0  0  0999 V2000
  141.0424   69.5888  229.3737 H   0  0  0  0  0  0  0  0  0  0  0  0
  140.9700   69.9770  228.3470 C   0  0  0  0  0  0  0  0  0  0  0  0
  141.0620   71.3520  228.1120 C   0  0  0  0  0  0  0  0  0  0  0  0
  141.2106   72.0452  228.9531 H   0  0  0  0  0  0  0  0  0  0  0  0
  140.9650   71.8460  226.8070 C   0  0  0  0  0  0  0  0  0  0  0  0
  141.0448   72.9276  226.6233 H   0  0  0  0  0  0  0  0  0  0  0  0
  140.7660   70.9660  225.7300 C   0  0  0  0  0  0  0  0  0  0  0  0
  140.6880   71.4940  224.3230 C   0  0  0  0  0  0  0  0  0  0  0  0
  140.9297   72.5671  224.3256 H   0  0  0  0  0  0  0  0  0  0  0  0
  141.4062   70.9439  223.6973 H   0  0  0  0  0  0  0  0  0  0  0  0
  139.2800   71.2960  223.7500 C   0  0  0  0  0  0  0  0  0  0  0  0
  139.0971   70.2212  223.6042 H   0  0  0  0  0  0  0  0  0  0  0  0
  138.5479   71.7146  224.4563 H   0  0  0  0  0  0  0  0  0  0  0  0
  139.1440   71.9850  222.4670 N   0  0  0  0  0  0  0  0  0  0  0  0
  139.9970   72.8500  221.9970 C   0  0  0  0  0  0  0  0  0  0  0  0
  141.1190   72.4380  221.3510 N   0  0  0  0  0  0  0  0  0  0  0  0
  142.0080   73.3380  220.8590 C   0  0  0  0  0  0  0  0  0  0  0  0
  143.1860   72.8840  220.1570 N   0  0  0  0  0  0  0  0  0  0  0  0
  144.4780   72.8940  220.8720 C   0  0  0  0  0  0  0  0  0  0  0  0
  144.3783   72.2742  221.7753 H   0  0  0  0  0  0  0  0  0  0  0  0
  144.7060   73.9451  221.1026 H   0  0  0  0  0  0  0  0  0  0  0  0
  145.6530   72.3560  220.0450 C   0  0  0  0  0  0  0  0  0  0  0  0
  145.3680   71.3938  219.5946 H   0  0  0  0  0  0  0  0  0  0  0  0
  146.5218   72.2228  220.7064 H   0  0  0  0  0  0  0  0  0  0  0  0
  146.0090   73.3040  218.9770 N   0  0  0  0  0  0  0  0  0  0  0  0
  145.6970   74.2560  219.2840 H   0  0  0  0  0  0  0  0  0  0  0  0
  145.3080   73.0070  217.7200 C   0  0  0  0  0  0  0  0  0  0  0  0
  145.4284   71.9383  217.4890 H   0  0  0  0  0  0  0  0  0  0  0  0
  145.7444   73.6340  216.9285 H   0  0  0  0  0  0  0  0  0  0  0  0
  143.8130   73.3290  217.8130 C   0  0  0  0  0  0  0  0  0  0  0  0
  143.3678   73.2313  216.8119 H   0  0  0  0  0  0  0  0  0  0  0  0
  143.7144   74.3539  218.2001 H   0  0  0  0  0  0  0  0  0  0  0  0
  143.0730   72.3950  218.7730 C   0  0  0  0  0  0  0  0  0  0  0  0
  143.5108   71.3880  218.7079 H   0  0  0  0  0  0  0  0  0  0  0  0
  142.0100   72.3650  218.4918 H   0  0  0  0  0  0  0  0  0  0  0  0
  141.7620   74.6640  221.0140 N   0  0  0  0  0  0  0  0  0  0  0  0
  140.6410   75.0940  221.6520 C   0  0  0  0  0  0  0  0  0  0  0  0
  140.4040   76.5050  221.8080 N   0  0  0  0  0  0  0  0  0  0  0  0
  141.4920   77.4580  221.5570 C   0  0  0  0  0  0  0  0  0  0  0  0
  141.5282   77.6817  220.4806 H   0  0  0  0  0  0  0  0  0  0  0  0
  142.4327   77.0007  221.8974 H   0  0  0  0  0  0  0  0  0  0  0  0
  141.2940   78.7490  222.3190 C   0  0  0  0  0  0  0  0  0  0  0  0
  142.3220   79.7050  222.3150 C   0  0  0  0  0  0  0  0  0  0  0  0
  143.2618   79.4934  221.7840 H   0  0  0  0  0  0  0  0  0  0  0  0
  142.1610   80.9230  222.9800 C   0  0  0  0  0  0  0  0  0  0  0  0
  142.9726   81.6654  222.9707 H   0  0  0  0  0  0  0  0  0  0  0  0
  140.9720   81.1990  223.6560 C   0  0  0  0  0  0  0  0  0  0  0  0
  140.8499   82.1558  224.1848 H   0  0  0  0  0  0  0  0  0  0  0  0
  139.9360   80.2610  223.6620 C   0  0  0  0  0  0  0  0  0  0  0  0
  139.0028   80.4813  224.2011 H   0  0  0  0  0  0  0  0  0  0  0  0
  140.0780   79.0400  222.9850 C   0  0  0  0  0  0  0  0  0  0  0  0
  138.9640   78.0250  223.0540 C   0  0  0  0  0  0  0  0  0  0  0  0
  137.9985   78.5503  223.0102 H   0  0  0  0  0  0  0  0  0  0  0  0
  139.0633   77.4668  223.9966 H   0  0  0  0  0  0  0  0  0  0  0  0
  139.0410   77.0320  221.8990 C   0  0  0  0  0  0  0  0  0  0  0  0
  138.7793   77.5398  220.9590 H   0  0  0  0  0  0  0  0  0  0  0  0
  138.3360   76.2059  222.0739 H   0  0  0  0  0  0  0  0  0  0  0  0
  139.7630   74.1810  222.1550 N   0  0  0  0  0  0  0  0  0  0  0  0
  138.9190   74.4960  222.6850 H   0  0  0  0  0  0  0  0  0  0  0  0
  140.6910   69.5840  225.9720 C   0  0  0  0  0  0  0  0  0  0  0  0
  140.5573   68.8859  225.1325 H   0  0  0  0  0  0  0  0  0  0  0  0
  140.7860   69.0950  227.2780 C   0  0  0  0  0  0  0  0  0  0  0  0
  140.7158   68.0133  227.4652 H   0  0  0  0  0  0  0  0  0  0  0  0
  1  2  1  0
  2  3  2  0
  3  4  1  0
  3  5  1  0
  5  6  1  0
  5  7  2  0
  7  8  1  0
  8  9  1  0
  8 10  1  0
  8 11  1  0
 11 12  1  0
 11 13  1  0
 11 14  1  0
 14 15  2  0
 15 16  1  0
 16 17  2  0
 17 18  1  0
 18 19  1  0
 19 20  1  0
 19 21  1  0
 19 22  1  0
 22 23  1  0
 22 24  1  0
 22 25  1  0
 25 26  1  0
 25 27  1  0
 27 28  1  0
 27 29  1  0
 27 30  1  0
 30 31  1  0
 30 32  1  0
 30 33  1  0
 33 34  1  0
 33 35  1  0
 17 36  1  0
 36 37  2  0
 37 38  1  0
 38 39  1  0
 39 40  1  0
 39 41  1  0
 39 42  1  0
 42 43  2  0
 43 44  1  0
 43 45  1  0
 45 46  1  0
 45 47  2  0
 47 48  1  0
 47 49  1  0
 49 50  1  0
 49 51  2  0
 51 52  1  0
 52 53  1  0
 52 54  1  0
 52 55  1  0
 55 56  1  0
 55 57  1  0
 37 58  1  0
 58 59  1  0
  7 60  1  0
 60 61  1  0
 60 62  2  0
 62 63  1  0
 62  2  1  0
 58 15  1  0
 33 18  1  0
 55 38  1  0
 51 42  1  0
M  END
>  <UniqueID>  (11) 
709

>  <SMILES>  (11) 
c1ccc(CC/N=c2\nc(N3CCCNCC3)nc(N3CCc4ccccc4C3)[nH]2)cc1

>  <Energy>  (11) 
69.67474045373264

>  <Genealogy>  (11) 
c1ccc(CCN=c2nc(N3CCCNCC3)nc(N3CCc4ccccc4C3)[nH]2)cc1 (tautomer)
c1ccc(CC/N=c2\nc(N3CCCNCC3)nc(N3CCc4ccccc4C3)[nH]2)cc1 (cis-trans isomerization)
c1ccc(CC/N=c2\nc(N3CCCNCC3)nc(N3CCc4ccccc4C3)[nH]2)cc1 (3D coordinates assigned)
c1ccc(CC/N=c2\nc(N3CCCNCC3)nc(N3CCc4ccccc4C3)[nH]2)cc1 (nonaromatic ring conformer: 69.67474045373264 kcal/mol)

>  <smiles>  (11) 
c1ccc(CCNc2nc(N3CCCNCC3)nc(N3CCc4ccccc4C3)n2)cc1

>  <score_type>  (11) 
oracle

>  <origin>  (11) 
autodockgpu

>  <m_score__min__energy>  (11) 
-8.6500000000000004

>  <m_primary>  (11) 
energy

>  <meeko>  (11) 
{"free_energy": -8.43, "intermolecular_energy": -12.01, "internal_energy": -0.98, "cluster_size": 17, "cluster_id": 1, "rank_in_cluster": 6}

>  <energy>  (11) 
-8.23

>  <cluster_rmsd>  (11) 
1.38

>  <rmsd>  (11) 
269.18

>  <cluster>  (11) 
1

$$$$
IBHRIKXMMSCQIV-SCUVULFGNA-N
     RDKit          3D

 63 67  0  0  0  0  0  0  0  0999 V2000
  141.0019   69.8825  229.4055 H   0  0  0  0  0  0  0  0  0  0  0  0
  140.9280   70.1690  228.3460 C   0  0  0  0  0  0  0  0  0  0  0  0
  140.7470   69.1870  227.3670 C   0  0  0  0  0  0  0  0  0  0  0  0
  140.6746   68.1284  227.6570 H   0  0  0  0  0  0  0  0  0  0  0  0
  140.6580   69.5500  226.0200 C   0  0  0  0  0  0  0  0  0  0  0  0
  140.5083   68.7760  225.2528 H   0  0  0  0  0  0  0  0  0  0  0  0
  140.7590   70.9000  225.6420 C   0  0  0  0  0  0  0  0  0  0  0  0
  140.6370   71.2950  224.1960 C   0  0  0  0  0  0  0  0  0  0  0  0
  141.1932   72.2291  224.0283 H   0  0  0  0  0  0  0  0  0  0  0  0
  141.0502   70.4887  223.5722 H   0  0  0  0  0  0  0  0  0  0  0  0
  139.1670   71.5090  223.8170 C   0  0  0  0  0  0  0  0  0  0  0  0
  138.6409   70.5435  223.8506 H   0  0  0  0  0  0  0  0  0  0  0  0
  138.7160   72.2137  224.5312 H   0  0  0  0  0  0  0  0  0  0  0  0
  139.0580   72.0690  222.4700 N   0  0  0  0  0  0  0  0  0  0  0  0
  139.8700   72.9560  221.9690 C   0  0  0  0  0  0  0  0  0  0  0  0
  140.9590   72.5710  221.2530 N   0  0  0  0  0  0  0  0  0  0  0  0
  141.8050   73.4940  220.7270 C   0  0  0  0  0  0  0  0  0  0  0  0
  142.9490   73.0700  219.9530 N   0  0  0  0  0  0  0  0  0  0  0  0
  143.9360   74.0870  219.5410 C   0  0  0  0  0  0  0  0  0  0  0  0
  143.5163   75.0816  219.7522 H   0  0  0  0  0  0  0  0  0  0  0  0
  144.1292   73.9270  218.4700 H   0  0  0  0  0  0  0  0  0  0  0  0
  145.2870   73.9720  220.2570 C   0  0  0  0  0  0  0  0  0  0  0  0
  145.1318   73.5347  221.2543 H   0  0  0  0  0  0  0  0  0  0  0  0
  145.7281   74.9757  220.3469 H   0  0  0  0  0  0  0  0  0  0  0  0
  146.2060   73.1160  219.4910 N   0  0  0  0  0  0  0  0  0  0  0  0
  146.6530   73.7130  218.7540 H   0  0  0  0  0  0  0  0  0  0  0  0
  145.4990   72.0320  218.7940 C   0  0  0  0  0  0  0  0  0  0  0  0
  146.2400   71.3465  218.3569 H   0  0  0  0  0  0  0  0  0  0  0  0
  144.8681   72.4811  218.0128 H   0  0  0  0  0  0  0  0  0  0  0  0
  144.5940   71.2440  219.7430 C   0  0  0  0  0  0  0  0  0  0  0  0
  144.9243   71.4250  220.7765 H   0  0  0  0  0  0  0  0  0  0  0  0
  144.6727   70.1806  219.4727 H   0  0  0  0  0  0  0  0  0  0  0  0
  143.1230   71.6460  219.6210 C   0  0  0  0  0  0  0  0  0  0  0  0
  142.5226   71.0369  220.3127 H   0  0  0  0  0  0  0  0  0  0  0  0
  142.7930   71.4790  218.5850 H   0  0  0  0  0  0  0  0  0  0  0  0
  141.5490   74.8130  220.9200 N   0  0  0  0  0  0  0  0  0  0  0  0
  140.4600   75.2140  221.6280 C   0  0  0  0  0  0  0  0  0  0  0  0
  140.2120   76.6190  221.8220 N   0  0  0  0  0  0  0  0  0  0  0  0
  141.2980   77.5850  221.6190 C   0  0  0  0  0  0  0  0  0  0  0  0
  141.3516   77.8412  220.5506 H   0  0  0  0  0  0  0  0  0  0  0  0
  142.2354   77.1228  221.9622 H   0  0  0  0  0  0  0  0  0  0  0  0
  141.0790   78.8520  222.4160 C   0  0  0  0  0  0  0  0  0  0  0  0
  142.1010   79.8130  222.4590 C   0  0  0  0  0  0  0  0  0  0  0  0
  143.0513   79.6231  221.9386 H   0  0  0  0  0  0  0  0  0  0  0  0
  141.9200   81.0090  223.1580 C   0  0  0  0  0  0  0  0  0  0  0  0
  142.7272   81.7558  223.1866 H   0  0  0  0  0  0  0  0  0  0  0  0
  140.7170   81.2580  223.8200 C   0  0  0  0  0  0  0  0  0  0  0  0
  140.5795   82.1982  224.3742 H   0  0  0  0  0  0  0  0  0  0  0  0
  139.6870   80.3150  223.7800 C   0  0  0  0  0  0  0  0  0  0  0  0
  138.7434   80.5134  224.3093 H   0  0  0  0  0  0  0  0  0  0  0  0
  139.8490   79.1150  223.0680 C   0  0  0  0  0  0  0  0  0  0  0  0
  138.7400   78.0930  223.0870 C   0  0  0  0  0  0  0  0  0  0  0  0
  137.7724   78.6142  223.0412 H   0  0  0  0  0  0  0  0  0  0  0  0
  138.8252   77.5076  224.0144 H   0  0  0  0  0  0  0  0  0  0  0  0
  138.8440   77.1350  221.9040 C   0  0  0  0  0  0  0  0  0  0  0  0
  138.5958   77.6691  220.9750 H   0  0  0  0  0  0  0  0  0  0  0  0
  138.1413   76.2999  222.0414 H   0  0  0  0  0  0  0  0  0  0  0  0
  139.6260   74.2790  222.1630 N   0  0  0  0  0  0  0  0  0  0  0  0
  138.8090   74.5720  222.7450 H   0  0  0  0  0  0  0  0  0  0  0  0
  140.9250   71.8830  226.6320 C   0  0  0  0  0  0  0  0  0  0  0  0
  140.9843   72.9440  226.3478 H   0  0  0  0  0  0  0  0  0  0  0  0
  141.0150   71.5150  227.9780 C   0  0  0  0  0  0  0  0  0  0  0  0
  141.1546   72.2866  228.7494 H   0  0  0  0  0  0  0  0  0  0  0  0
  1  2  1  0
  2  3  2  0
  3  4  1  0
  3  5  1  0
  5  6  1  0
  5  7  2  0
  7  8  1  0
  8  9  1  0
  8 10  1  0
  8 11  1  0
 11 12  1  0
 11 13  1  0
 11 14  1  0
 14 15  2  0
 15 16  1  0
 16 17  2  0
 17 18  1  0
 18 19  1  0
 19 20  1  0
 19 21  1  0
 19 22  1  0
 22 23  1  0
 22 24  1  0
 22 25  1  0
 25 26  1  0
 25 27  1  0
 27 28  1  0
 27 29  1  0
 27 30  1  0
 30 31  1  0
 30 32  1  0
 30 33  1  0
 33 34  1  0
 33 35  1  0
 17 36  1  0
 36 37  2  0
 37 38  1  0
 38 39  1  0
 39 40  1  0
 39 41  1  0
 39 42  1  0
 42 43  2  0
 43 44  1  0
 43 45  1  0
 45 46  1  0
 45 47  2  0
 47 48  1  0
 47 49  1  0
 49 50  1  0
 49 51  2  0
 51 52  1  0
 52 53  1  0
 52 54  1  0
 52 55  1  0
 55 56  1  0
 55 57  1  0
 37 58  1  0
 58 59  1  0
  7 60  1  0
 60 61  1  0
 60 62  2  0
 62 63  1  0
 62  2  1  0
 58 15  1  0
 33 18  1  0
 55 38  1  0
 51 42  1  0
M  END
>  <UniqueID>  (12) 
709

>  <SMILES>  (12) 
c1ccc(CC/N=c2\nc(N3CCCNCC3)nc(N3CCc4ccccc4C3)[nH]2)cc1

>  <Energy>  (12) 
69.67474045373264

>  <Genealogy>  (12) 
c1ccc(CCN=c2nc(N3CCCNCC3)nc(N3CCc4ccccc4C3)[nH]2)cc1 (tautomer)
c1ccc(CC/N=c2\nc(N3CCCNCC3)nc(N3CCc4ccccc4C3)[nH]2)cc1 (cis-trans isomerization)
c1ccc(CC/N=c2\nc(N3CCCNCC3)nc(N3CCc4ccccc4C3)[nH]2)cc1 (3D coordinates assigned)
c1ccc(CC/N=c2\nc(N3CCCNCC3)nc(N3CCc4ccccc4C3)[nH]2)cc1 (nonaromatic ring conformer: 69.67474045373264 kcal/mol)

>  <smiles>  (12) 
c1ccc(CCNc2nc(N3CCCNCC3)nc(N3CCc4ccccc4C3)n2)cc1

>  <score_type>  (12) 
oracle

>  <origin>  (12) 
autodockgpu

>  <m_score__min__energy>  (12) 
-8.6500000000000004

>  <m_primary>  (12) 
energy

>  <meeko>  (12) 
{"free_energy": -8.29, "intermolecular_energy": -11.87, "internal_energy": -0.99, "cluster_size": 17, "cluster_id": 1, "rank_in_cluster": 9}

>  <energy>  (12) 
-8.21

>  <cluster_rmsd>  (12) 
1.3

>  <rmsd>  (12) 
269.16

>  <cluster>  (12) 
1

$$$$
IBHRIKXMMSCQIV-SCUVULFGNA-N
     RDKit          3D

 63 67  0  0  0  0  0  0  0  0999 V2000
  142.6875   81.9208  222.6083 H   0  0  0  0  0  0  0  0  0  0  0  0
  142.3090   80.8880  222.6130 C   0  0  0  0  0  0  0  0  0  0  0  0
  142.2670   80.1650  223.8080 C   0  0  0  0  0  0  0  0  0  0  0  0
  142.6085   80.6303  224.7444 H   0  0  0  0  0  0  0  0  0  0  0  0
  141.7910   78.8500  223.8140 C   0  0  0  0  0  0  0  0  0  0  0  0
  141.7522   78.2855  224.7573 H   0  0  0  0  0  0  0  0  0  0  0  0
  141.3620   78.2470  222.6190 C   0  0  0  0  0  0  0  0  0  0  0  0
  140.8250   76.8420  222.6280 C   0  0  0  0  0  0  0  0  0  0  0  0
  141.5159   76.1874  222.0764 H   0  0  0  0  0  0  0  0  0  0  0  0
  140.7320   76.5047  223.6709 H   0  0  0  0  0  0  0  0  0  0  0  0
  139.4430   76.7880  221.9660 C   0  0  0  0  0  0  0  0  0  0  0  0
  138.6676   76.8141  222.7458 H   0  0  0  0  0  0  0  0  0  0  0  0
  139.3379   77.6531  221.2948 H   0  0  0  0  0  0  0  0  0  0  0  0
  139.2940   75.5620  221.1810 N   0  0  0  0  0  0  0  0  0  0  0  0
  139.9820   74.4730  221.3730 C   0  0  0  0  0  0  0  0  0  0  0  0
  141.0870   74.2100  220.6280 N   0  0  0  0  0  0  0  0  0  0  0  0
  141.8070   73.0770  220.8280 C   0  0  0  0  0  0  0  0  0  0  0  0
  142.9900   72.8210  220.0400 N   0  0  0  0  0  0  0  0  0  0  0  0
  144.1520   73.7170  220.2030 C   0  0  0  0  0  0  0  0  0  0  0  0
  144.4148   73.7516  221.2706 H   0  0  0  0  0  0  0  0  0  0  0  0
  143.8540   74.6993  219.8076 H   0  0  0  0  0  0  0  0  0  0  0  0
  145.3930   73.2800  219.4150 C   0  0  0  0  0  0  0  0  0  0  0  0
  146.1520   74.0746  219.4654 H   0  0  0  0  0  0  0  0  0  0  0  0
  145.1039   73.0969  218.3696 H   0  0  0  0  0  0  0  0  0  0  0  0
  145.9520   72.0400  219.9780 N   0  0  0  0  0  0  0  0  0  0  0  0
  146.9870   72.0570  219.8130 H   0  0  0  0  0  0  0  0  0  0  0  0
  145.4290   70.8430  219.3040 C   0  0  0  0  0  0  0  0  0  0  0  0
  146.0299   69.9726  219.6061 H   0  0  0  0  0  0  0  0  0  0  0  0
  145.4903   71.0066  218.2180 H   0  0  0  0  0  0  0  0  0  0  0  0
  143.9630   70.5840  219.6660 C   0  0  0  0  0  0  0  0  0  0  0  0
  143.8702   70.5523  220.7616 H   0  0  0  0  0  0  0  0  0  0  0  0
  143.6689   69.6281  219.2081 H   0  0  0  0  0  0  0  0  0  0  0  0
  143.0270   71.6670  219.1250 C   0  0  0  0  0  0  0  0  0  0  0  0
  142.0132   71.2521  219.0244 H   0  0  0  0  0  0  0  0  0  0  0  0
  143.3987   72.0015  218.1452 H   0  0  0  0  0  0  0  0  0  0  0  0
  141.4130   72.2040  221.7900 N   0  0  0  0  0  0  0  0  0  0  0  0
  140.3130   72.4550  222.5500 C   0  0  0  0  0  0  0  0  0  0  0  0
  139.9130   71.5120  223.5610 N   0  0  0  0  0  0  0  0  0  0  0  0
  140.4300   71.6470  224.9290 C   0  0  0  0  0  0  0  0  0  0  0  0
  139.7973   72.3581  225.4803 H   0  0  0  0  0  0  0  0  0  0  0  0
  141.4679   72.0062  224.8686 H   0  0  0  0  0  0  0  0  0  0  0  0
  140.4320   70.3240  225.6610 C   0  0  0  0  0  0  0  0  0  0  0  0
  141.0410   70.2480  226.9240 C   0  0  0  0  0  0  0  0  0  0  0  0
  141.5279   71.1377  227.3498 H   0  0  0  0  0  0  0  0  0  0  0  0
  141.0330   69.0500  227.6440 C   0  0  0  0  0  0  0  0  0  0  0  0
  141.5144   68.9994  228.6318 H   0  0  0  0  0  0  0  0  0  0  0  0
  140.4150   67.9180  227.1110 C   0  0  0  0  0  0  0  0  0  0  0  0
  140.4146   66.9747  227.6769 H   0  0  0  0  0  0  0  0  0  0  0  0
  139.7970   67.9810  225.8600 C   0  0  0  0  0  0  0  0  0  0  0  0
  139.3170   67.0837  225.4423 H   0  0  0  0  0  0  0  0  0  0  0  0
  139.7840   69.1810  225.1320 C   0  0  0  0  0  0  0  0  0  0  0  0
  139.1560   69.2040  223.7600 C   0  0  0  0  0  0  0  0  0  0  0  0
  138.2527   68.5763  223.7694 H   0  0  0  0  0  0  0  0  0  0  0  0
  139.8907   68.8204  223.0367 H   0  0  0  0  0  0  0  0  0  0  0  0
  138.7710   70.6220  223.3470 C   0  0  0  0  0  0  0  0  0  0  0  0
  137.9195   70.9636  223.9538 H   0  0  0  0  0  0  0  0  0  0  0  0
  138.4874   70.6334  222.2842 H   0  0  0  0  0  0  0  0  0  0  0  0
  139.5900   73.5890  222.3300 N   0  0  0  0  0  0  0  0  0  0  0  0
  138.7190   73.7740  222.8770 H   0  0  0  0  0  0  0  0  0  0  0  0
  141.3920   78.9850  221.4240 C   0  0  0  0  0  0  0  0  0  0  0  0
  141.0389   78.5284  220.4876 H   0  0  0  0  0  0  0  0  0  0  0  0
  141.8700   80.2990  221.4230 C   0  0  0  0  0  0  0  0  0  0  0  0
  141.9008   80.8709  220.4839 H   0  0  0  0  0  0  0  0  0  0  0  0
  1  2  1  0
  2  3  2  0
  3  4  1  0
  3  5  1  0
  5  6  1  0
  5  7  2  0
  7  8  1  0
  8  9  1  0
  8 10  1  0
  8 11  1  0
 11 12  1  0
 11 13  1  0
 11 14  1  0
 14 15  2  0
 15 16  1  0
 16 17  2  0
 17 18  1  0
 18 19  1  0
 19 20  1  0
 19 21  1  0
 19 22  1  0
 22 23  1  0
 22 24  1  0
 22 25  1  0
 25 26  1  0
 25 27  1  0
 27 28  1  0
 27 29  1  0
 27 30  1  0
 30 31  1  0
 30 32  1  0
 30 33  1  0
 33 34  1  0
 33 35  1  0
 17 36  1  0
 36 37  2  0
 37 38  1  0
 38 39  1  0
 39 40  1  0
 39 41  1  0
 39 42  1  0
 42 43  2  0
 43 44  1  0
 43 45  1  0
 45 46  1  0
 45 47  2  0
 47 48  1  0
 47 49  1  0
 49 50  1  0
 49 51  2  0
 51 52  1  0
 52 53  1  0
 52 54  1  0
 52 55  1  0
 55 56  1  0
 55 57  1  0
 37 58  1  0
 58 59  1  0
  7 60  1  0
 60 61  1  0
 60 62  2  0
 62 63  1  0
 62  2  1  0
 58 15  1  0
 33 18  1  0
 55 38  1  0
 51 42  1  0
M  END
>  <UniqueID>  (13) 
709

>  <SMILES>  (13) 
c1ccc(CC/N=c2\nc(N3CCCNCC3)nc(N3CCc4ccccc4C3)[nH]2)cc1

>  <Energy>  (13) 
69.67474045373264

>  <Genealogy>  (13) 
c1ccc(CCN=c2nc(N3CCCNCC3)nc(N3CCc4ccccc4C3)[nH]2)cc1 (tautomer)
c1ccc(CC/N=c2\nc(N3CCCNCC3)nc(N3CCc4ccccc4C3)[nH]2)cc1 (cis-trans isomerization)
c1ccc(CC/N=c2\nc(N3CCCNCC3)nc(N3CCc4ccccc4C3)[nH]2)cc1 (3D coordinates assigned)
c1ccc(CC/N=c2\nc(N3CCCNCC3)nc(N3CCc4ccccc4C3)[nH]2)cc1 (nonaromatic ring conformer: 69.67474045373264 kcal/mol)

>  <smiles>  (13) 
c1ccc(CCNc2nc(N3CCCNCC3)nc(N3CCc4ccccc4C3)n2)cc1

>  <score_type>  (13) 
oracle

>  <origin>  (13) 
autodockgpu

>  <m_score__min__energy>  (13) 
-8.6500000000000004

>  <m_primary>  (13) 
energy

>  <meeko>  (13) 
{"free_energy": -7.58, "intermolecular_energy": -11.16, "internal_energy": -1.01, "cluster_size": 17, "cluster_id": 1, "rank_in_cluster": 17}

>  <energy>  (13) 
-8.07

>  <cluster_rmsd>  (13) 
1.44

>  <rmsd>  (13) 
269.51

>  <cluster>  (13) 
1

$$$$
IBHRIKXMMSCQIV-SCUVULFGNA-N
     RDKit          3D

 63 67  0  0  0  0  0  0  0  0999 V2000
  142.8240   81.9011  222.7811 H   0  0  0  0  0  0  0  0  0  0  0  0
  142.4020   80.8860  222.7420 C   0  0  0  0  0  0  0  0  0  0  0  0
  142.2770   80.1360  223.9140 C   0  0  0  0  0  0  0  0  0  0  0  0
  142.5980   80.5620  224.8760 H   0  0  0  0  0  0  0  0  0  0  0  0
  141.7440   78.8440  223.8650 C   0  0  0  0  0  0  0  0  0  0  0  0
  141.6391   78.2587  224.7904 H   0  0  0  0  0  0  0  0  0  0  0  0
  141.3420   78.2910  222.6370 C   0  0  0  0  0  0  0  0  0  0  0  0
  140.7440   76.9110  222.5860 C   0  0  0  0  0  0  0  0  0  0  0  0
  141.5130   76.1954  222.2596 H   0  0  0  0  0  0  0  0  0  0  0  0
  140.3786   76.6449  223.5889 H   0  0  0  0  0  0  0  0  0  0  0  0
  139.5670   76.8700  221.6030 C   0  0  0  0  0  0  0  0  0  0  0  0
  138.7428   77.4807  222.0003 H   0  0  0  0  0  0  0  0  0  0  0  0
  139.9014   77.2665  220.6330 H   0  0  0  0  0  0  0  0  0  0  0  0
  139.1000   75.4960  221.4150 N   0  0  0  0  0  0  0  0  0  0  0  0
  139.8320   74.4340  221.6000 C   0  0  0  0  0  0  0  0  0  0  0  0
  140.9720   74.2450  220.8840 N   0  0  0  0  0  0  0  0  0  0  0  0
  141.7380   73.1410  221.0760 C   0  0  0  0  0  0  0  0  0  0  0  0
  142.9560   72.9630  220.3220 N   0  0  0  0  0  0  0  0  0  0  0  0
  143.5920   71.6310  220.3130 C   0  0  0  0  0  0  0  0  0  0  0  0
  142.8603   70.9012  219.9362 H   0  0  0  0  0  0  0  0  0  0  0  0
  143.9063   71.4222  221.3463 H   0  0  0  0  0  0  0  0  0  0  0  0
  144.8500   71.5450  219.4420 C   0  0  0  0  0  0  0  0  0  0  0  0
  144.6487   72.0159  218.4685 H   0  0  0  0  0  0  0  0  0  0  0  0
  145.1149   70.4862  219.3047 H   0  0  0  0  0  0  0  0  0  0  0  0
  145.9760   72.2360  220.0900 N   0  0  0  0  0  0  0  0  0  0  0  0
  146.4480   71.5460  220.7220 H   0  0  0  0  0  0  0  0  0  0  0  0
  145.5250   73.3520  220.9340 C   0  0  0  0  0  0  0  0  0  0  0  0
  146.3891   73.7564  221.4815 H   0  0  0  0  0  0  0  0  0  0  0  0
  144.7616   72.9698  221.6277 H   0  0  0  0  0  0  0  0  0  0  0  0
  144.8950   74.4740  220.1030 C   0  0  0  0  0  0  0  0  0  0  0  0
  145.5587   74.7021  219.2559 H   0  0  0  0  0  0  0  0  0  0  0  0
  144.7665   75.3472  220.7595 H   0  0  0  0  0  0  0  0  0  0  0  0
  143.5170   74.0910  219.5590 C   0  0  0  0  0  0  0  0  0  0  0  0
  143.6129   73.8011  218.5022 H   0  0  0  0  0  0  0  0  0  0  0  0
  142.8437   74.9555  219.6557 H   0  0  0  0  0  0  0  0  0  0  0  0
  141.3550   72.2230  222.0000 N   0  0  0  0  0  0  0  0  0  0  0  0
  140.2210   72.4000  222.7290 C   0  0  0  0  0  0  0  0  0  0  0  0
  139.8330   71.4100  223.7000 N   0  0  0  0  0  0  0  0  0  0  0  0
  140.3110   71.5200  225.0830 C   0  0  0  0  0  0  0  0  0  0  0  0
  139.6381   72.1885  225.6401 H   0  0  0  0  0  0  0  0  0  0  0  0
  141.3355   71.9197  225.0596 H   0  0  0  0  0  0  0  0  0  0  0  0
  140.3470   70.1750  225.7740 C   0  0  0  0  0  0  0  0  0  0  0  0
  140.9270   70.0810  227.0480 C   0  0  0  0  0  0  0  0  0  0  0  0
  141.3687   70.9743  227.5138 H   0  0  0  0  0  0  0  0  0  0  0  0
  140.9480   68.8610  227.7300 C   0  0  0  0  0  0  0  0  0  0  0  0
  141.4056   68.7976  228.7283 H   0  0  0  0  0  0  0  0  0  0  0  0
  140.3890   67.7230  227.1460 C   0  0  0  0  0  0  0  0  0  0  0  0
  140.4121   66.7626  227.6818 H   0  0  0  0  0  0  0  0  0  0  0  0
  139.8000   67.8030  225.8810 C   0  0  0  0  0  0  0  0  0  0  0  0
  139.3672   66.9019  225.4220 H   0  0  0  0  0  0  0  0  0  0  0  0
  139.7570   69.0260  225.1920 C   0  0  0  0  0  0  0  0  0  0  0  0
  139.1630   69.0690  223.8060 C   0  0  0  0  0  0  0  0  0  0  0  0
  138.2852   68.4070  223.7722 H   0  0  0  0  0  0  0  0  0  0  0  0
  139.9299   68.7376  223.0904 H   0  0  0  0  0  0  0  0  0  0  0  0
  138.7330   70.4830  223.4280 C   0  0  0  0  0  0  0  0  0  0  0  0
  137.8535   70.7713  224.0224 H   0  0  0  0  0  0  0  0  0  0  0  0
  138.4765   70.5177  222.3589 H   0  0  0  0  0  0  0  0  0  0  0  0
  139.4520   73.5050  222.5170 N   0  0  0  0  0  0  0  0  0  0  0  0
  138.5560   73.6330  223.0390 H   0  0  0  0  0  0  0  0  0  0  0  0
  141.4550   79.0570  221.4650 C   0  0  0  0  0  0  0  0  0  0  0  0
  141.1214   78.6413  220.5028 H   0  0  0  0  0  0  0  0  0  0  0  0
  141.9910   80.3470  221.5200 C   0  0  0  0  0  0  0  0  0  0  0  0
  142.0895   80.9396  220.5985 H   0  0  0  0  0  0  0  0  0  0  0  0
  1  2  1  0
  2  3  2  0
  3  4  1  0
  3  5  1  0
  5  6  1  0
  5  7  2  0
  7  8  1  0
  8  9  1  0
  8 10  1  0
  8 11  1  0
 11 12  1  0
 11 13  1  0
 11 14  1  0
 14 15  2  0
 15 16  1  0
 16 17  2  0
 17 18  1  0
 18 19  1  0
 19 20  1  0
 19 21  1  0
 19 22  1  0
 22 23  1  0
 22 24  1  0
 22 25  1  0
 25 26  1  0
 25 27  1  0
 27 28  1  0
 27 29  1  0
 27 30  1  0
 30 31  1  0
 30 32  1  0
 30 33  1  0
 33 34  1  0
 33 35  1  0
 17 36  1  0
 36 37  2  0
 37 38  1  0
 38 39  1  0
 39 40  1  0
 39 41  1  0
 39 42  1  0
 42 43  2  0
 43 44  1  0
 43 45  1  0
 45 46  1  0
 45 47  2  0
 47 48  1  0
 47 49  1  0
 49 50  1  0
 49 51  2  0
 51 52  1  0
 52 53  1  0
 52 54  1  0
 52 55  1  0
 55 56  1  0
 55 57  1  0
 37 58  1  0
 58 59  1  0
  7 60  1  0
 60 61  1  0
 60 62  2  0
 62 63  1  0
 62  2  1  0
 58 15  1  0
 33 18  1  0
 55 38  1  0
 51 42  1  0
M  END
>  <UniqueID>  (14) 
709

>  <SMILES>  (14) 
c1ccc(CC/N=c2\nc(N3CCCNCC3)nc(N3CCc4ccccc4C3)[nH]2)cc1

>  <Energy>  (14) 
69.67474045373264

>  <Genealogy>  (14) 
c1ccc(CCN=c2nc(N3CCCNCC3)nc(N3CCc4ccccc4C3)[nH]2)cc1 (tautomer)
c1ccc(CC/N=c2\nc(N3CCCNCC3)nc(N3CCc4ccccc4C3)[nH]2)cc1 (cis-trans isomerization)
c1ccc(CC/N=c2\nc(N3CCCNCC3)nc(N3CCc4ccccc4C3)[nH]2)cc1 (3D coordinates assigned)
c1ccc(CC/N=c2\nc(N3CCCNCC3)nc(N3CCc4ccccc4C3)[nH]2)cc1 (nonaromatic ring conformer: 69.67474045373264 kcal/mol)

>  <smiles>  (14) 
c1ccc(CCNc2nc(N3CCCNCC3)nc(N3CCc4ccccc4C3)n2)cc1

>  <score_type>  (14) 
oracle

>  <origin>  (14) 
autodockgpu

>  <m_score__min__energy>  (14) 
-8.6500000000000004

>  <m_primary>  (14) 
energy

>  <meeko>  (14) 
{"free_energy": -8.65, "intermolecular_energy": -12.22, "internal_energy": -1.07, "cluster_size": 17, "cluster_id": 1, "rank_in_cluster": 1}

>  <energy>  (14) 
-8.03

>  <cluster_rmsd>  (14) 
1.7

>  <rmsd>  (14) 
269.36

>  <cluster>  (14) 
1

$$$$
IBHRIKXMMSCQIV-SCUVULFGNA-N
     RDKit          3D

 63 67  0  0  0  0  0  0  0  0999 V2000
  141.4901   71.5121  229.0280 H   0  0  0  0  0  0  0  0  0  0  0  0
  140.9840   71.1900  228.1060 C   0  0  0  0  0  0  0  0  0  0  0  0
  140.1350   70.0800  228.1260 C   0  0  0  0  0  0  0  0  0  0  0  0
  139.9709   69.5307  229.0648 H   0  0  0  0  0  0  0  0  0  0  0  0
  139.4940   69.6670  226.9540 C   0  0  0  0  0  0  0  0  0  0  0  0
  138.8207   68.7974  226.9747 H   0  0  0  0  0  0  0  0  0  0  0  0
  139.7070   70.3590  225.7500 C   0  0  0  0  0  0  0  0  0  0  0  0
  138.9980   69.9330  224.4930 C   0  0  0  0  0  0  0  0  0  0  0  0
  138.9152   68.8362  224.4787 H   0  0  0  0  0  0  0  0  0  0  0  0
  137.9978   70.3905  224.4778 H   0  0  0  0  0  0  0  0  0  0  0  0
  139.7720   70.3960  223.2530 C   0  0  0  0  0  0  0  0  0  0  0  0
  140.8287   70.5434  223.5207 H   0  0  0  0  0  0  0  0  0  0  0  0
  139.6810   69.6278  222.4710 H   0  0  0  0  0  0  0  0  0  0  0  0
  139.2250   71.6540  222.7440 N   0  0  0  0  0  0  0  0  0  0  0  0
  139.9360   72.6120  222.2210 C   0  0  0  0  0  0  0  0  0  0  0  0
  141.0900   72.3370  221.5590 N   0  0  0  0  0  0  0  0  0  0  0  0
  141.8320   73.3330  221.0100 C   0  0  0  0  0  0  0  0  0  0  0  0
  143.0460   73.0230  220.2930 N   0  0  0  0  0  0  0  0  0  0  0  0
  143.9000   74.1380  219.8380 C   0  0  0  0  0  0  0  0  0  0  0  0
  143.3769   75.0825  220.0485 H   0  0  0  0  0  0  0  0  0  0  0  0
  144.0795   73.9835  218.7638 H   0  0  0  0  0  0  0  0  0  0  0  0
  145.2750   74.1870  220.5150 C   0  0  0  0  0  0  0  0  0  0  0  0
  145.1845   73.8134  221.5457 H   0  0  0  0  0  0  0  0  0  0  0  0
  145.6328   75.2272  220.5187 H   0  0  0  0  0  0  0  0  0  0  0  0
  146.2410   73.3540  219.7810 N   0  0  0  0  0  0  0  0  0  0  0  0
  146.1560   73.5930  218.7640 H   0  0  0  0  0  0  0  0  0  0  0  0
  145.9450   71.9200  219.9110 C   0  0  0  0  0  0  0  0  0  0  0  0
  145.8259   71.6759  220.9769 H   0  0  0  0  0  0  0  0  0  0  0  0
  146.7793   71.3563  219.4681 H   0  0  0  0  0  0  0  0  0  0  0  0
  144.6610   71.5360  219.1670 C   0  0  0  0  0  0  0  0  0  0  0  0
  144.7622   70.5050  218.7972 H   0  0  0  0  0  0  0  0  0  0  0  0
  144.5265   72.2498  218.3410 H   0  0  0  0  0  0  0  0  0  0  0  0
  143.4210   71.6180  220.0600 C   0  0  0  0  0  0  0  0  0  0  0  0
  143.6371   71.1361  221.0249 H   0  0  0  0  0  0  0  0  0  0  0  0
  142.5868   71.1052  219.5589 H   0  0  0  0  0  0  0  0  0  0  0  0
  141.4040   74.6160  221.1260 N   0  0  0  0  0  0  0  0  0  0  0  0
  140.2480   74.9080  221.7800 C   0  0  0  0  0  0  0  0  0  0  0  0
  139.8180   76.2780  221.8940 N   0  0  0  0  0  0  0  0  0  0  0  0
  140.8170   77.3520  221.9580 C   0  0  0  0  0  0  0  0  0  0  0  0
  141.1077   77.6298  220.9341 H   0  0  0  0  0  0  0  0  0  0  0  0
  141.6825   76.9816  222.5270 H   0  0  0  0  0  0  0  0  0  0  0  0
  140.2780   78.5770  222.6640 C   0  0  0  0  0  0  0  0  0  0  0  0
  141.1550   79.6350  222.9500 C   0  0  0  0  0  0  0  0  0  0  0  0
  142.2188   79.5498  222.6835 H   0  0  0  0  0  0  0  0  0  0  0  0
  140.6860   80.7960  223.5710 C   0  0  0  0  0  0  0  0  0  0  0  0
  141.3805   81.6201  223.7913 H   0  0  0  0  0  0  0  0  0  0  0  0
  139.3370   80.9110  223.9120 C   0  0  0  0  0  0  0  0  0  0  0  0
  138.9712   81.8230  224.4064 H   0  0  0  0  0  0  0  0  0  0  0  0
  138.4510   79.8690  223.6260 C   0  0  0  0  0  0  0  0  0  0  0  0
  137.3905   79.9623  223.9027 H   0  0  0  0  0  0  0  0  0  0  0  0
  138.9050   78.7040  222.9880 C   0  0  0  0  0  0  0  0  0  0  0  0
  137.9360   77.5740  222.7400 C   0  0  0  0  0  0  0  0  0  0  0  0
  136.9620   77.9951  222.4501 H   0  0  0  0  0  0  0  0  0  0  0  0
  137.8476   76.9851  223.6649 H   0  0  0  0  0  0  0  0  0  0  0  0
  138.4280   76.6510  221.6290 C   0  0  0  0  0  0  0  0  0  0  0  0
  138.3648   77.1724  220.6625 H   0  0  0  0  0  0  0  0  0  0  0  0
  137.8025   75.7468  221.5955 H   0  0  0  0  0  0  0  0  0  0  0  0
  139.5200   73.9010  222.3390 N   0  0  0  0  0  0  0  0  0  0  0  0
  138.6530   74.1150  222.8810 H   0  0  0  0  0  0  0  0  0  0  0  0
  140.5500   71.4840  225.7390 C   0  0  0  0  0  0  0  0  0  0  0  0
  140.7063   72.0445  224.8055 H   0  0  0  0  0  0  0  0  0  0  0  0
  141.1900   71.8910  226.9140 C   0  0  0  0  0  0  0  0  0  0  0  0
  141.8575   72.7653  226.9003 H   0  0  0  0  0  0  0  0  0  0  0  0
  1  2  1  0
  2  3  2  0
  3  4  1  0
  3  5  1  0
  5  6  1  0
  5  7  2  0
  7  8  1  0
  8  9  1  0
  8 10  1  0
  8 11  1  0
 11 12  1  0
 11 13  1  0
 11 14  1  0
 14 15  2  0
 15 16  1  0
 16 17  2  0
 17 18  1  0
 18 19  1  0
 19 20  1  0
 19 21  1  0
 19 22  1  0
 22 23  1  0
 22 24  1  0
 22 25  1  0
 25 26  1  0
 25 27  1  0
 27 28  1  0
 27 29  1  0
 27 30  1  0
 30 31  1  0
 30 32  1  0
 30 33  1  0
 33 34  1  0
 33 35  1  0
 17 36  1  0
 36 37  2  0
 37 38  1  0
 38 39  1  0
 39 40  1  0
 39 41  1  0
 39 42  1  0
 42 43  2  0
 43 44  1  0
 43 45  1  0
 45 46  1  0
 45 47  2  0
 47 48  1  0
 47 49  1  0
 49 50  1  0
 49 51  2  0
 51 52  1  0
 52 53  1  0
 52 54  1  0
 52 55  1  0
 55 56  1  0
 55 57  1  0
 37 58  1  0
 58 59  1  0
  7 60  1  0
 60 61  1  0
 60 62  2  0
 62 63  1  0
 62  2  1  0
 58 15  1  0
 33 18  1  0
 55 38  1  0
 51 42  1  0
M  END
>  <UniqueID>  (15) 
709

>  <SMILES>  (15) 
c1ccc(CC/N=c2\nc(N3CCCNCC3)nc(N3CCc4ccccc4C3)[nH]2)cc1

>  <Energy>  (15) 
69.67474045373264

>  <Genealogy>  (15) 
c1ccc(CCN=c2nc(N3CCCNCC3)nc(N3CCc4ccccc4C3)[nH]2)cc1 (tautomer)
c1ccc(CC/N=c2\nc(N3CCCNCC3)nc(N3CCc4ccccc4C3)[nH]2)cc1 (cis-trans isomerization)
c1ccc(CC/N=c2\nc(N3CCCNCC3)nc(N3CCc4ccccc4C3)[nH]2)cc1 (3D coordinates assigned)
c1ccc(CC/N=c2\nc(N3CCCNCC3)nc(N3CCc4ccccc4C3)[nH]2)cc1 (nonaromatic ring conformer: 69.67474045373264 kcal/mol)

>  <smiles>  (15) 
c1ccc(CCNc2nc(N3CCCNCC3)nc(N3CCc4ccccc4C3)n2)cc1

>  <score_type>  (15) 
oracle

>  <origin>  (15) 
autodockgpu

>  <m_score__min__energy>  (15) 
-8.6500000000000004

>  <m_primary>  (15) 
energy

>  <meeko>  (15) 
{"free_energy": -8.03, "intermolecular_energy": -11.61, "internal_energy": -1.0, "cluster_size": 17, "cluster_id": 1, "rank_in_cluster": 14}

>  <energy>  (15) 
-7.88

>  <cluster_rmsd>  (15) 
1.19

>  <rmsd>  (15) 
269.18

>  <cluster>  (15) 
1

$$$$
IBHRIKXMMSCQIV-SCUVULFGNA-N
     RDKit          3D

 63 67  0  0  0  0  0  0  0  0999 V2000
  141.5529   68.6664  229.3149 H   0  0  0  0  0  0  0  0  0  0  0  0
  141.0830   68.9480  228.3610 C   0  0  0  0  0  0  0  0  0  0  0  0
  140.5800   67.9590  227.5110 C   0  0  0  0  0  0  0  0  0  0  0  0
  140.6497   66.8995  227.7984 H   0  0  0  0  0  0  0  0  0  0  0  0
  139.9880   68.3160  226.2950 C   0  0  0  0  0  0  0  0  0  0  0  0
  139.5878   67.5363  225.6303 H   0  0  0  0  0  0  0  0  0  0  0  0
  139.9030   69.6670  225.9200 C   0  0  0  0  0  0  0  0  0  0  0  0
  139.2430   70.0560  224.6250 C   0  0  0  0  0  0  0  0  0  0  0  0
  139.5848   69.3794  223.8279 H   0  0  0  0  0  0  0  0  0  0  0  0
  138.1524   69.9811  224.7472 H   0  0  0  0  0  0  0  0  0  0  0  0
  139.5990   71.4980  224.2480 C   0  0  0  0  0  0  0  0  0  0  0  0
  138.8283   72.1755  224.6441 H   0  0  0  0  0  0  0  0  0  0  0  0
  140.5811   71.7438  224.6783 H   0  0  0  0  0  0  0  0  0  0  0  0
  139.6710   71.6500  222.7950 N   0  0  0  0  0  0  0  0  0  0  0  0
  140.2900   72.6180  222.1810 C   0  0  0  0  0  0  0  0  0  0  0  0
  141.3760   72.3640  221.4060 N   0  0  0  0  0  0  0  0  0  0  0  0
  142.0210   73.3710  220.7630 C   0  0  0  0  0  0  0  0  0  0  0  0
  143.1630   73.0840  219.9270 N   0  0  0  0  0  0  0  0  0  0  0  0
  144.4030   72.6050  220.5690 C   0  0  0  0  0  0  0  0  0  0  0  0
  144.6909   71.6535  220.0982 H   0  0  0  0  0  0  0  0  0  0  0  0
  144.1850   72.4980  221.6418 H   0  0  0  0  0  0  0  0  0  0  0  0
  145.5830   73.5780  220.4510 C   0  0  0  0  0  0  0  0  0  0  0  0
  146.2169   73.4882  221.3455 H   0  0  0  0  0  0  0  0  0  0  0  0
  145.1917   74.6024  220.3643 H   0  0  0  0  0  0  0  0  0  0  0  0
  146.3860   73.2730  219.2560 N   0  0  0  0  0  0  0  0  0  0  0  0
  146.8600   74.1590  218.9590 H   0  0  0  0  0  0  0  0  0  0  0  0
  145.5510   72.8340  218.1280 C   0  0  0  0  0  0  0  0  0  0  0  0
  145.1616   71.8280  218.3433 H   0  0  0  0  0  0  0  0  0  0  0  0
  146.1742   72.8304  217.2216 H   0  0  0  0  0  0  0  0  0  0  0  0
  144.3710   73.7830  217.8920 C   0  0  0  0  0  0  0  0  0  0  0  0
  144.2477   73.9308  216.8090 H   0  0  0  0  0  0  0  0  0  0  0  0
  144.5944   74.7299  218.4052 H   0  0  0  0  0  0  0  0  0  0  0  0
  143.0610   73.2390  218.4660 C   0  0  0  0  0  0  0  0  0  0  0  0
  142.8458   72.2603  218.0123 H   0  0  0  0  0  0  0  0  0  0  0  0
  142.2515   73.9484  218.2392 H   0  0  0  0  0  0  0  0  0  0  0  0
  141.5640   74.6420  220.8980 N   0  0  0  0  0  0  0  0  0  0  0  0
  140.4740   74.9120  221.6650 C   0  0  0  0  0  0  0  0  0  0  0  0
  140.0120   76.2690  221.7970 N   0  0  0  0  0  0  0  0  0  0  0  0
  140.9820   77.3700  221.8260 C   0  0  0  0  0  0  0  0  0  0  0  0
  141.2261   77.6568  220.7925 H   0  0  0  0  0  0  0  0  0  0  0  0
  141.8775   77.0226  222.3620 H   0  0  0  0  0  0  0  0  0  0  0  0
  140.4380   78.5790  222.5540 C   0  0  0  0  0  0  0  0  0  0  0  0
  141.2950   79.6610  222.8090 C   0  0  0  0  0  0  0  0  0  0  0  0
  142.3499   79.6059  222.5021 H   0  0  0  0  0  0  0  0  0  0  0  0
  140.8180   80.8080  223.4500 C   0  0  0  0  0  0  0  0  0  0  0  0
  141.4978   81.6501  223.6471 H   0  0  0  0  0  0  0  0  0  0  0  0
  139.4810   80.8860  223.8400 C   0  0  0  0  0  0  0  0  0  0  0  0
  139.1093   81.7874  224.3492 H   0  0  0  0  0  0  0  0  0  0  0  0
  138.6130   79.8210  223.5850 C   0  0  0  0  0  0  0  0  0  0  0  0
  137.5611   79.8860  223.9000 H   0  0  0  0  0  0  0  0  0  0  0  0
  139.0750   78.6680  222.9290 C   0  0  0  0  0  0  0  0  0  0  0  0
  138.1280   77.5130  222.7150 C   0  0  0  0  0  0  0  0  0  0  0  0
  137.1331   77.9082  222.4622 H   0  0  0  0  0  0  0  0  0  0  0  0
  138.0894   76.9211  223.6414 H   0  0  0  0  0  0  0  0  0  0  0  0
  138.6030   76.6050  221.5850 C   0  0  0  0  0  0  0  0  0  0  0  0
  138.4897   77.1255  220.6226 H   0  0  0  0  0  0  0  0  0  0  0  0
  138.0014   75.6842  221.5733 H   0  0  0  0  0  0  0  0  0  0  0  0
  139.8440   73.8950  222.3180 N   0  0  0  0  0  0  0  0  0  0  0  0
  139.0320   74.0930  222.9440 H   0  0  0  0  0  0  0  0  0  0  0  0
  140.3960   70.6570  226.7860 C   0  0  0  0  0  0  0  0  0  0  0  0
  140.3153   71.7186  226.5093 H   0  0  0  0  0  0  0  0  0  0  0  0
  140.9890   70.2950  227.9990 C   0  0  0  0  0  0  0  0  0  0  0  0
  141.3828   71.0722  228.6705 H   0  0  0  0  0  0  0  0  0  0  0  0
  1  2  1  0
  2  3  2  0
  3  4  1  0
  3  5  1  0
  5  6  1  0
  5  7  2  0
  7  8  1  0
  8  9  1  0
  8 10  1  0
  8 11  1  0
 11 12  1  0
 11 13  1  0
 11 14  1  0
 14 15  2  0
 15 16  1  0
 16 17  2  0
 17 18  1  0
 18 19  1  0
 19 20  1  0
 19 21  1  0
 19 22  1  0
 22 23  1  0
 22 24  1  0
 22 25  1  0
 25 26  1  0
 25 27  1  0
 27 28  1  0
 27 29  1  0
 27 30  1  0
 30 31  1  0
 30 32  1  0
 30 33  1  0
 33 34  1  0
 33 35  1  0
 17 36  1  0
 36 37  2  0
 37 38  1  0
 38 39  1  0
 39 40  1  0
 39 41  1  0
 39 42  1  0
 42 43  2  0
 43 44  1  0
 43 45  1  0
 45 46  1  0
 45 47  2  0
 47 48  1  0
 47 49  1  0
 49 50  1  0
 49 51  2  0
 51 52  1  0
 52 53  1  0
 52 54  1  0
 52 55  1  0
 55 56  1  0
 55 57  1  0
 37 58  1  0
 58 59  1  0
  7 60  1  0
 60 61  1  0
 60 62  2  0
 62 63  1  0
 62  2  1  0
 58 15  1  0
 33 18  1  0
 55 38  1  0
 51 42  1  0
M  END
>  <UniqueID>  (16) 
709

>  <SMILES>  (16) 
c1ccc(CC/N=c2\nc(N3CCCNCC3)nc(N3CCc4ccccc4C3)[nH]2)cc1

>  <Energy>  (16) 
69.67474045373264

>  <Genealogy>  (16) 
c1ccc(CCN=c2nc(N3CCCNCC3)nc(N3CCc4ccccc4C3)[nH]2)cc1 (tautomer)
c1ccc(CC/N=c2\nc(N3CCCNCC3)nc(N3CCc4ccccc4C3)[nH]2)cc1 (cis-trans isomerization)
c1ccc(CC/N=c2\nc(N3CCCNCC3)nc(N3CCc4ccccc4C3)[nH]2)cc1 (3D coordinates assigned)
c1ccc(CC/N=c2\nc(N3CCCNCC3)nc(N3CCc4ccccc4C3)[nH]2)cc1 (nonaromatic ring conformer: 69.67474045373264 kcal/mol)

>  <smiles>  (16) 
c1ccc(CCNc2nc(N3CCCNCC3)nc(N3CCc4ccccc4C3)n2)cc1

>  <score_type>  (16) 
oracle

>  <origin>  (16) 
autodockgpu

>  <m_score__min__energy>  (16) 
-8.6500000000000004

>  <m_primary>  (16) 
energy

>  <meeko>  (16) 
{"free_energy": -8.43, "intermolecular_energy": -12.01, "internal_energy": -0.79, "cluster_size": 17, "cluster_id": 1, "rank_in_cluster": 5}

>  <energy>  (16) 
-7.83

>  <cluster_rmsd>  (16) 
1.79

>  <rmsd>  (16) 
269.34

>  <cluster>  (16) 
1

$$$$
IBHRIKXMMSCQIV-SCUVULFGNA-N
     RDKit          3D

 63 67  0  0  0  0  0  0  0  0999 V2000
  141.1267   69.6267  229.3478 H   0  0  0  0  0  0  0  0  0  0  0  0
  141.0370   70.0720  228.3460 C   0  0  0  0  0  0  0  0  0  0  0  0
  140.8420   69.2520  227.2310 C   0  0  0  0  0  0  0  0  0  0  0  0
  140.7735   68.1613  227.3565 H   0  0  0  0  0  0  0  0  0  0  0  0
  140.7340   69.8160  225.9570 C   0  0  0  0  0  0  0  0  0  0  0  0
  140.5741   69.1681  225.0826 H   0  0  0  0  0  0  0  0  0  0  0  0
  140.8290   71.2080  225.7890 C   0  0  0  0  0  0  0  0  0  0  0  0
  140.6860   71.8190  224.4220 C   0  0  0  0  0  0  0  0  0  0  0  0
  140.4950   72.8973  224.5263 H   0  0  0  0  0  0  0  0  0  0  0  0
  141.6158   71.6494  223.8592 H   0  0  0  0  0  0  0  0  0  0  0  0
  139.5230   71.1730  223.6600 C   0  0  0  0  0  0  0  0  0  0  0  0
  139.6645   70.0823  223.6422 H   0  0  0  0  0  0  0  0  0  0  0  0
  138.5818   71.4276  224.1693 H   0  0  0  0  0  0  0  0  0  0  0  0
  139.4640   71.6720  222.2860 N   0  0  0  0  0  0  0  0  0  0  0  0
  140.1840   72.6550  221.8250 C   0  0  0  0  0  0  0  0  0  0  0  0
  141.3290   72.4100  221.1340 N   0  0  0  0  0  0  0  0  0  0  0  0
  142.0800   73.4330  220.6500 C   0  0  0  0  0  0  0  0  0  0  0  0
  143.2840   73.1560  219.9020 N   0  0  0  0  0  0  0  0  0  0  0  0
  144.5050   73.9200  220.2250 C   0  0  0  0  0  0  0  0  0  0  0  0
  144.3414   74.4471  221.1765 H   0  0  0  0  0  0  0  0  0  0  0  0
  144.6817   74.6072  219.3845 H   0  0  0  0  0  0  0  0  0  0  0  0
  145.7640   73.0560  220.3630 C   0  0  0  0  0  0  0  0  0  0  0  0
  145.6665   72.4138  221.2507 H   0  0  0  0  0  0  0  0  0  0  0  0
  146.6381   73.7159  220.4656 H   0  0  0  0  0  0  0  0  0  0  0  0
  145.9440   72.2110  219.1720 N   0  0  0  0  0  0  0  0  0  0  0  0
  145.3810   72.6360  218.3960 H   0  0  0  0  0  0  0  0  0  0  0  0
  145.4310   70.8490  219.3780 C   0  0  0  0  0  0  0  0  0  0  0  0
  145.8133   70.4650  220.3353 H   0  0  0  0  0  0  0  0  0  0  0  0
  145.7705   70.2240  218.5389 H   0  0  0  0  0  0  0  0  0  0  0  0
  143.9000   70.8190  219.4070 C   0  0  0  0  0  0  0  0  0  0  0  0
  143.5694   70.6771  220.4465 H   0  0  0  0  0  0  0  0  0  0  0  0
  143.5692   69.9921  218.7614 H   0  0  0  0  0  0  0  0  0  0  0  0
  143.2790   72.1090  218.8660 C   0  0  0  0  0  0  0  0  0  0  0  0
  142.2422   71.9101  218.5569 H   0  0  0  0  0  0  0  0  0  0  0  0
  143.8704   72.4559  218.0058 H   0  0  0  0  0  0  0  0  0  0  0  0
  141.6720   74.7100  220.8590 N   0  0  0  0  0  0  0  0  0  0  0  0
  140.5260   74.9720  221.5420 C   0  0  0  0  0  0  0  0  0  0  0  0
  140.1160   76.3360  221.7550 N   0  0  0  0  0  0  0  0  0  0  0  0
  141.1020   77.4180  221.6450 C   0  0  0  0  0  0  0  0  0  0  0  0
  141.1919   77.7122  220.5889 H   0  0  0  0  0  0  0  0  0  0  0  0
  142.0618   77.0477  222.0346 H   0  0  0  0  0  0  0  0  0  0  0  0
  140.6990   78.6280  222.4580 C   0  0  0  0  0  0  0  0  0  0  0  0
  141.6070   79.6910  222.5890 C   0  0  0  0  0  0  0  0  0  0  0  0
  142.6019   79.6195  222.1254 H   0  0  0  0  0  0  0  0  0  0  0  0
  141.2560   80.8390  223.3040 C   0  0  0  0  0  0  0  0  0  0  0  0
  141.9744   81.6663  223.4011 H   0  0  0  0  0  0  0  0  0  0  0  0
  139.9960   80.9380  223.8950 C   0  0  0  0  0  0  0  0  0  0  0  0
  139.7249   81.8401  224.4630 H   0  0  0  0  0  0  0  0  0  0  0  0
  139.0780   79.8920  223.7660 C   0  0  0  0  0  0  0  0  0  0  0  0
  138.0880   79.9725  224.2387 H   0  0  0  0  0  0  0  0  0  0  0  0
  139.4110   78.7390  223.0370 C   0  0  0  0  0  0  0  0  0  0  0  0
  138.4200   77.6040  222.9600 C   0  0  0  0  0  0  0  0  0  0  0  0
  137.4062   78.0203  222.8658 H   0  0  0  0  0  0  0  0  0  0  0  0
  138.5123   77.0022  223.8761 H   0  0  0  0  0  0  0  0  0  0  0  0
  138.6980   76.7000  221.7630 C   0  0  0  0  0  0  0  0  0  0  0  0
  138.4496   77.2332  220.8335 H   0  0  0  0  0  0  0  0  0  0  0  0
  138.0830   75.7908  221.8352 H   0  0  0  0  0  0  0  0  0  0  0  0
  139.7880   73.9380  222.0370 N   0  0  0  0  0  0  0  0  0  0  0  0
  138.9280   74.1250  222.6000 H   0  0  0  0  0  0  0  0  0  0  0  0
  141.0080   72.0290  226.9150 C   0  0  0  0  0  0  0  0  0  0  0  0
  141.0617   73.1212  226.7958 H   0  0  0  0  0  0  0  0  0  0  0  0
  141.1180   71.4590  228.1870 C   0  0  0  0  0  0  0  0  0  0  0  0
  141.2687   72.1036  229.0655 H   0  0  0  0  0  0  0  0  0  0  0  0
  1  2  1  0
  2  3  2  0
  3  4  1  0
  3  5  1  0
  5  6  1  0
  5  7  2  0
  7  8  1  0
  8  9  1  0
  8 10  1  0
  8 11  1  0
 11 12  1  0
 11 13  1  0
 11 14  1  0
 14 15  2  0
 15 16  1  0
 16 17  2  0
 17 18  1  0
 18 19  1  0
 19 20  1  0
 19 21  1  0
 19 22  1  0
 22 23  1  0
 22 24  1  0
 22 25  1  0
 25 26  1  0
 25 27  1  0
 27 28  1  0
 27 29  1  0
 27 30  1  0
 30 31  1  0
 30 32  1  0
 30 33  1  0
 33 34  1  0
 33 35  1  0
 17 36  1  0
 36 37  2  0
 37 38  1  0
 38 39  1  0
 39 40  1  0
 39 41  1  0
 39 42  1  0
 42 43  2  0
 43 44  1  0
 43 45  1  0
 45 46  1  0
 45 47  2  0
 47 48  1  0
 47 49  1  0
 49 50  1  0
 49 51  2  0
 51 52  1  0
 52 53  1  0
 52 54  1  0
 52 55  1  0
 55 56  1  0
 55 57  1  0
 37 58  1  0
 58 59  1  0
  7 60  1  0
 60 61  1  0
 60 62  2  0
 62 63  1  0
 62  2  1  0
 58 15  1  0
 33 18  1  0
 55 38  1  0
 51 42  1  0
M  END
>  <UniqueID>  (17) 
709

>  <SMILES>  (17) 
c1ccc(CC/N=c2\nc(N3CCCNCC3)nc(N3CCc4ccccc4C3)[nH]2)cc1

>  <Energy>  (17) 
69.67474045373264

>  <Genealogy>  (17) 
c1ccc(CCN=c2nc(N3CCCNCC3)nc(N3CCc4ccccc4C3)[nH]2)cc1 (tautomer)
c1ccc(CC/N=c2\nc(N3CCCNCC3)nc(N3CCc4ccccc4C3)[nH]2)cc1 (cis-trans isomerization)
c1ccc(CC/N=c2\nc(N3CCCNCC3)nc(N3CCc4ccccc4C3)[nH]2)cc1 (3D coordinates assigned)
c1ccc(CC/N=c2\nc(N3CCCNCC3)nc(N3CCc4ccccc4C3)[nH]2)cc1 (nonaromatic ring conformer: 69.67474045373264 kcal/mol)

>  <smiles>  (17) 
c1ccc(CCNc2nc(N3CCCNCC3)nc(N3CCc4ccccc4C3)n2)cc1

>  <score_type>  (17) 
oracle

>  <origin>  (17) 
autodockgpu

>  <m_score__min__energy>  (17) 
-8.6500000000000004

>  <m_primary>  (17) 
energy

>  <meeko>  (17) 
{"free_energy": -7.83, "intermolecular_energy": -11.41, "internal_energy": -0.99, "cluster_size": 17, "cluster_id": 1, "rank_in_cluster": 16}

>  <energy>  (17) 
-7.58

>  <cluster_rmsd>  (17) 
1.18

>  <rmsd>  (17) 
269.2

>  <cluster>  (17) 
1

$$$$
IBHRIKXMMSCQIV-SCUVULFGNA-N
     RDKit          3D

 63 67  0  0  0  0  0  0  0  0999 V2000
  142.0759   82.3144  223.6748 H   0  0  0  0  0  0  0  0  0  0  0  0
  141.8170   81.2640  223.4760 C   0  0  0  0  0  0  0  0  0  0  0  0
  142.7590   80.4090  222.8960 C   0  0  0  0  0  0  0  0  0  0  0  0
  143.7603   80.7866  222.6416 H   0  0  0  0  0  0  0  0  0  0  0  0
  142.4300   79.0750  222.6390 C   0  0  0  0  0  0  0  0  0  0  0  0
  143.1761   78.4032  222.1895 H   0  0  0  0  0  0  0  0  0  0  0  0
  141.1490   78.5890  222.9530 C   0  0  0  0  0  0  0  0  0  0  0  0
  140.8010   77.1470  222.7020 C   0  0  0  0  0  0  0  0  0  0  0  0
  141.5031   76.7284  221.9659 H   0  0  0  0  0  0  0  0  0  0  0  0
  140.8708   76.5946  223.6507 H   0  0  0  0  0  0  0  0  0  0  0  0
  139.3720   77.0240  222.1620 C   0  0  0  0  0  0  0  0  0  0  0  0
  138.6726   76.9394  223.0068 H   0  0  0  0  0  0  0  0  0  0  0  0
  139.1412   77.9180  221.5642 H   0  0  0  0  0  0  0  0  0  0  0  0
  139.2420   75.8410  221.3100 N   0  0  0  0  0  0  0  0  0  0  0  0
  139.9300   74.7440  221.4580 C   0  0  0  0  0  0  0  0  0  0  0  0
  141.0630   74.5350  220.7380 N   0  0  0  0  0  0  0  0  0  0  0  0
  141.7830   73.3940  220.8920 C   0  0  0  0  0  0  0  0  0  0  0  0
  142.9960   73.1940  220.1340 N   0  0  0  0  0  0  0  0  0  0  0  0
  144.2440   72.9010  220.8660 C   0  0  0  0  0  0  0  0  0  0  0  0
  144.5022   71.8446  220.7004 H   0  0  0  0  0  0  0  0  0  0  0  0
  144.0528   73.1296  221.9249 H   0  0  0  0  0  0  0  0  0  0  0  0
  145.4370   73.7620  220.4350 C   0  0  0  0  0  0  0  0  0  0  0  0
  146.1221   73.8832  221.2870 H   0  0  0  0  0  0  0  0  0  0  0  0
  145.0655   74.7429  220.1035 H   0  0  0  0  0  0  0  0  0  0  0  0
  146.1580   73.1260  219.3210 N   0  0  0  0  0  0  0  0  0  0  0  0
  147.0680   73.6330  219.2030 H   0  0  0  0  0  0  0  0  0  0  0  0
  145.4290   73.2500  218.0500 C   0  0  0  0  0  0  0  0  0  0  0  0
  146.0653   72.8722  217.2361 H   0  0  0  0  0  0  0  0  0  0  0  0
  145.1829   74.3114  217.8988 H   0  0  0  0  0  0  0  0  0  0  0  0
  144.1200   72.4550  218.0660 C   0  0  0  0  0  0  0  0  0  0  0  0
  144.2673   71.5443  218.6650 H   0  0  0  0  0  0  0  0  0  0  0  0
  143.8609   72.2153  217.0242 H   0  0  0  0  0  0  0  0  0  0  0  0
  142.9590   73.2530  218.6630 C   0  0  0  0  0  0  0  0  0  0  0  0
  142.0080   72.8297  218.3074 H   0  0  0  0  0  0  0  0  0  0  0  0
  143.0484   74.3026  218.3464 H   0  0  0  0  0  0  0  0  0  0  0  0
  141.3600   72.4600  221.7820 N   0  0  0  0  0  0  0  0  0  0  0  0
  140.2320   72.6570  222.5150 C   0  0  0  0  0  0  0  0  0  0  0  0
  139.8020   71.6500  223.4490 N   0  0  0  0  0  0  0  0  0  0  0  0
  140.4290   71.5690  224.7740 C   0  0  0  0  0  0  0  0  0  0  0  0
  139.9235   72.2735  225.4509 H   0  0  0  0  0  0  0  0  0  0  0  0
  141.4940   71.8215  224.6646 H   0  0  0  0  0  0  0  0  0  0  0  0
  140.3330   70.1760  225.3560 C   0  0  0  0  0  0  0  0  0  0  0  0
  141.0210   69.8890  226.5460 C   0  0  0  0  0  0  0  0  0  0  0  0
  141.6376   70.6661  227.0213 H   0  0  0  0  0  0  0  0  0  0  0  0
  140.9280   68.6230  227.1310 C   0  0  0  0  0  0  0  0  0  0  0  0
  141.4705   68.4076  228.0634 H   0  0  0  0  0  0  0  0  0  0  0  0
  140.1480   67.6320  226.5340 C   0  0  0  0  0  0  0  0  0  0  0  0
  140.0816   66.6343  226.9924 H   0  0  0  0  0  0  0  0  0  0  0  0
  139.4510   67.9060  225.3540 C   0  0  0  0  0  0  0  0  0  0  0  0
  138.8424   67.1194  224.8841 H   0  0  0  0  0  0  0  0  0  0  0  0
  139.5220   69.1780  224.7640 C   0  0  0  0  0  0  0  0  0  0  0  0
  138.8030   69.4270  223.4610 C   0  0  0  0  0  0  0  0  0  0  0  0
  137.8372   68.9008  223.4791 H   0  0  0  0  0  0  0  0  0  0  0  0
  139.4349   69.0556  222.6407 H   0  0  0  0  0  0  0  0  0  0  0  0
  138.5530   70.9160  223.2380 C   0  0  0  0  0  0  0  0  0  0  0  0
  137.7924   71.2719  223.9485 H   0  0  0  0  0  0  0  0  0  0  0  0
  138.1958   71.0813  222.2108 H   0  0  0  0  0  0  0  0  0  0  0  0
  139.5100   73.7990  222.3410 N   0  0  0  0  0  0  0  0  0  0  0  0
  138.6180   73.9450  222.8660 H   0  0  0  0  0  0  0  0  0  0  0  0
  140.2120   79.4490  223.5500 C   0  0  0  0  0  0  0  0  0  0  0  0
  139.2141   79.0723  223.8188 H   0  0  0  0  0  0  0  0  0  0  0  0
  140.5460   80.7830  223.8030 C   0  0  0  0  0  0  0  0  0  0  0  0
  139.8062   81.4561  224.2608 H   0  0  0  0  0  0  0  0  0  0  0  0
  1  2  1  0
  2  3  2  0
  3  4  1  0
  3  5  1  0
  5  6  1  0
  5  7  2  0
  7  8  1  0
  8  9  1  0
  8 10  1  0
  8 11  1  0
 11 12  1  0
 11 13  1  0
 11 14  1  0
 14 15  2  0
 15 16  1  0
 16 17  2  0
 17 18  1  0
 18 19  1  0
 19 20  1  0
 19 21  1  0
 19 22  1  0
 22 23  1  0
 22 24  1  0
 22 25  1  0
 25 26  1  0
 25 27  1  0
 27 28  1  0
 27 29  1  0
 27 30  1  0
 30 31  1  0
 30 32  1  0
 30 33  1  0
 33 34  1  0
 33 35  1  0
 17 36  1  0
 36 37  2  0
 37 38  1  0
 38 39  1  0
 39 40  1  0
 39 41  1  0
 39 42  1  0
 42 43  2  0
 43 44  1  0
 43 45  1  0
 45 46  1  0
 45 47  2  0
 47 48  1  0
 47 49  1  0
 49 50  1  0
 49 51  2  0
 51 52  1  0
 52 53  1  0
 52 54  1  0
 52 55  1  0
 55 56  1  0
 55 57  1  0
 37 58  1  0
 58 59  1  0
  7 60  1  0
 60 61  1  0
 60 62  2  0
 62 63  1  0
 62  2  1  0
 58 15  1  0
 33 18  1  0
 55 38  1  0
 51 42  1  0
M  END
>  <UniqueID>  (18) 
709

>  <SMILES>  (18) 
c1ccc(CC/N=c2\nc(N3CCCNCC3)nc(N3CCc4ccccc4C3)[nH]2)cc1

>  <Energy>  (18) 
69.67474045373264

>  <Genealogy>  (18) 
c1ccc(CCN=c2nc(N3CCCNCC3)nc(N3CCc4ccccc4C3)[nH]2)cc1 (tautomer)
c1ccc(CC/N=c2\nc(N3CCCNCC3)nc(N3CCc4ccccc4C3)[nH]2)cc1 (cis-trans isomerization)
c1ccc(CC/N=c2\nc(N3CCCNCC3)nc(N3CCc4ccccc4C3)[nH]2)cc1 (3D coordinates assigned)
c1ccc(CC/N=c2\nc(N3CCCNCC3)nc(N3CCc4ccccc4C3)[nH]2)cc1 (nonaromatic ring conformer: 69.67474045373264 kcal/mol)

>  <smiles>  (18) 
c1ccc(CCNc2nc(N3CCCNCC3)nc(N3CCc4ccccc4C3)n2)cc1

>  <score_type>  (18) 
oracle

>  <origin>  (18) 
autodockgpu

>  <m_score__min__energy>  (18) 
-8.6500000000000004

>  <m_primary>  (18) 
energy

>  <meeko>  (18) 
{"free_energy": -8.21, "intermolecular_energy": -11.79, "internal_energy": -0.93, "cluster_size": 17, "cluster_id": 1, "rank_in_cluster": 12}

>  <energy>  (18) 
-6.87

>  <cluster_rmsd>  (18) 
0.0

>  <rmsd>  (18) 
268.59

>  <cluster>  (18) 
2

$$$$
IBHRIKXMMSCQIV-SCUVULFGNA-N
     RDKit          3D

 63 67  0  0  0  0  0  0  0  0999 V2000
  141.5559   73.4773  227.2534 H   0  0  0  0  0  0  0  0  0  0  0  0
  141.1620   72.4510  227.2140 C   0  0  0  0  0  0  0  0  0  0  0  0
  140.4150   71.9470  228.2830 C   0  0  0  0  0  0  0  0  0  0  0  0
  140.2188   72.5781  229.1624 H   0  0  0  0  0  0  0  0  0  0  0  0
  139.9170   70.6410  228.2350 C   0  0  0  0  0  0  0  0  0  0  0  0
  139.3234   70.2498  229.0744 H   0  0  0  0  0  0  0  0  0  0  0  0
  140.1720   69.8270  227.1190 C   0  0  0  0  0  0  0  0  0  0  0  0
  139.6150   68.4310  227.0540 C   0  0  0  0  0  0  0  0  0  0  0  0
  140.0184   67.8414  227.8905 H   0  0  0  0  0  0  0  0  0  0  0  0
  138.5182   68.4831  227.1197 H   0  0  0  0  0  0  0  0  0  0  0  0
  140.0000   67.7580  225.7310 C   0  0  0  0  0  0  0  0  0  0  0  0
  140.8423   68.3030  225.2799 H   0  0  0  0  0  0  0  0  0  0  0  0
  140.2862   66.7154  225.9335 H   0  0  0  0  0  0  0  0  0  0  0  0
  138.8700   67.7650  224.8020 N   0  0  0  0  0  0  0  0  0  0  0  0
  138.3300   68.8390  224.3010 C   0  0  0  0  0  0  0  0  0  0  0  0
  138.9320   69.5070  223.2820 N   0  0  0  0  0  0  0  0  0  0  0  0
  138.3690   70.6250  222.7570 C   0  0  0  0  0  0  0  0  0  0  0  0
  139.0120   71.3130  221.6610 N   0  0  0  0  0  0  0  0  0  0  0  0
  138.2440   72.3400  220.9280 C   0  0  0  0  0  0  0  0  0  0  0  0
  137.1740   72.1014  221.0181 H   0  0  0  0  0  0  0  0  0  0  0  0
  138.5971   72.3178  219.8865 H   0  0  0  0  0  0  0  0  0  0  0  0
  138.4640   73.7680  221.4400 C   0  0  0  0  0  0  0  0  0  0  0  0
  137.5770   74.0902  222.0051 H   0  0  0  0  0  0  0  0  0  0  0  0
  138.6283   74.4324  220.5789 H   0  0  0  0  0  0  0  0  0  0  0  0
  139.6440   73.8270  222.3170 N   0  0  0  0  0  0  0  0  0  0  0  0
  139.7400   74.8150  222.6520 H   0  0  0  0  0  0  0  0  0  0  0  0
  140.8830   73.4940  221.5990 C   0  0  0  0  0  0  0  0  0  0  0  0
  141.6712   74.1988  221.9024 H   0  0  0  0  0  0  0  0  0  0  0  0
  140.6836   73.5661  220.5196 H   0  0  0  0  0  0  0  0  0  0  0  0
  141.3490   72.0670  221.9040 C   0  0  0  0  0  0  0  0  0  0  0  0
  141.3945   71.9367  222.9953 H   0  0  0  0  0  0  0  0  0  0  0  0
  142.3364   71.9318  221.4383 H   0  0  0  0  0  0  0  0  0  0  0  0
  140.4120   71.0060  221.3220 C   0  0  0  0  0  0  0  0  0  0  0  0
  140.6774   70.0221  221.7362 H   0  0  0  0  0  0  0  0  0  0  0  0
  140.5196   70.9980  220.2273 H   0  0  0  0  0  0  0  0  0  0  0  0
  137.1890   71.0710  223.2580 N   0  0  0  0  0  0  0  0  0  0  0  0
  136.5710   70.4100  224.2730 C   0  0  0  0  0  0  0  0  0  0  0  0
  135.3220   70.9050  224.7910 N   0  0  0  0  0  0  0  0  0  0  0  0
  134.9390   72.3030  224.5570 C   0  0  0  0  0  0  0  0  0  0  0  0
  134.4498   72.3787  223.5747 H   0  0  0  0  0  0  0  0  0  0  0  0
  135.8502   72.9182  224.5927 H   0  0  0  0  0  0  0  0  0  0  0  0
  133.9870   72.8090  225.6190 C   0  0  0  0  0  0  0  0  0  0  0  0
  133.6480   74.1710  225.6320 C   0  0  0  0  0  0  0  0  0  0  0  0
  134.0949   74.8522  224.8929 H   0  0  0  0  0  0  0  0  0  0  0  0
  132.7460   74.6680  226.5780 C   0  0  0  0  0  0  0  0  0  0  0  0
  132.4872   75.7371  226.5819 H   0  0  0  0  0  0  0  0  0  0  0  0
  132.1740   73.8090  227.5170 C   0  0  0  0  0  0  0  0  0  0  0  0
  131.4684   74.2029  228.2633 H   0  0  0  0  0  0  0  0  0  0  0  0
  132.4960   72.4490  227.5110 C   0  0  0  0  0  0  0  0  0  0  0  0
  132.0477   71.7779  228.2584 H   0  0  0  0  0  0  0  0  0  0  0  0
  133.3880   71.9340  226.5570 C   0  0  0  0  0  0  0  0  0  0  0  0
  133.7570   70.4720  226.6090 C   0  0  0  0  0  0  0  0  0  0  0  0
  132.8644   69.8869  226.8754 H   0  0  0  0  0  0  0  0  0  0  0  0
  134.5485   70.3415  227.3616 H   0  0  0  0  0  0  0  0  0  0  0  0
  134.2880   69.9830  225.2640 C   0  0  0  0  0  0  0  0  0  0  0  0
  133.4653   69.9472  224.5346 H   0  0  0  0  0  0  0  0  0  0  0  0
  134.7153   68.9760  225.3793 H   0  0  0  0  0  0  0  0  0  0  0  0
  137.1520   69.2980  224.8020 N   0  0  0  0  0  0  0  0  0  0  0  0
  136.7090   68.8040  225.6100 H   0  0  0  0  0  0  0  0  0  0  0  0
  140.9100   70.3450  226.0410 C   0  0  0  0  0  0  0  0  0  0  0  0
  141.0960   69.7225  225.1534 H   0  0  0  0  0  0  0  0  0  0  0  0
  141.4080   71.6500  226.0950 C   0  0  0  0  0  0  0  0  0  0  0  0
  141.9953   72.0479  225.2543 H   0  0  0  0  0  0  0  0  0  0  0  0
  1  2  1  0
  2  3  2  0
  3  4  1  0
  3  5  1  0
  5  6  1  0
  5  7  2  0
  7  8  1  0
  8  9  1  0
  8 10  1  0
  8 11  1  0
 11 12  1  0
 11 13  1  0
 11 14  1  0
 14 15  2  0
 15 16  1  0
 16 17  2  0
 17 18  1  0
 18 19  1  0
 19 20  1  0
 19 21  1  0
 19 22  1  0
 22 23  1  0
 22 24  1  0
 22 25  1  0
 25 26  1  0
 25 27  1  0
 27 28  1  0
 27 29  1  0
 27 30  1  0
 30 31  1  0
 30 32  1  0
 30 33  1  0
 33 34  1  0
 33 35  1  0
 17 36  1  0
 36 37  2  0
 37 38  1  0
 38 39  1  0
 39 40  1  0
 39 41  1  0
 39 42  1  0
 42 43  2  0
 43 44  1  0
 43 45  1  0
 45 46  1  0
 45 47  2  0
 47 48  1  0
 47 49  1  0
 49 50  1  0
 49 51  2  0
 51 52  1  0
 52 53  1  0
 52 54  1  0
 52 55  1  0
 55 56  1  0
 55 57  1  0
 37 58  1  0
 58 59  1  0
  7 60  1  0
 60 61  1  0
 60 62  2  0
 62 63  1  0
 62  2  1  0
 58 15  1  0
 33 18  1  0
 55 38  1  0
 51 42  1  0
M  END
>  <UniqueID>  (19) 
709

>  <SMILES>  (19) 
c1ccc(CC/N=c2\nc(N3CCCNCC3)nc(N3CCc4ccccc4C3)[nH]2)cc1

>  <Energy>  (19) 
69.67474045373264

>  <Genealogy>  (19) 
c1ccc(CCN=c2nc(N3CCCNCC3)nc(N3CCc4ccccc4C3)[nH]2)cc1 (tautomer)
c1ccc(CC/N=c2\nc(N3CCCNCC3)nc(N3CCc4ccccc4C3)[nH]2)cc1 (cis-trans isomerization)
c1ccc(CC/N=c2\nc(N3CCCNCC3)nc(N3CCc4ccccc4C3)[nH]2)cc1 (3D coordinates assigned)
c1ccc(CC/N=c2\nc(N3CCCNCC3)nc(N3CCc4ccccc4C3)[nH]2)cc1 (nonaromatic ring conformer: 69.67474045373264 kcal/mol)

>  <smiles>  (19) 
c1ccc(CCNc2nc(N3CCCNCC3)nc(N3CCc4ccccc4C3)n2)cc1

>  <score_type>  (19) 
oracle

>  <origin>  (19) 
autodockgpu

>  <m_score__min__energy>  (19) 
-8.6500000000000004

>  <m_primary>  (19) 
energy

>  <meeko>  (19) 
{"free_energy": -6.87, "intermolecular_energy": -10.45, "internal_energy": -1.75, "cluster_size": 1, "cluster_id": 2, "rank_in_cluster": 1}

>  <energy>  (19) 
-6.64

>  <cluster_rmsd>  (19) 
0.0

>  <rmsd>  (19) 
268.98

>  <cluster>  (19) 
3

$$$$
IBHRIKXMMSCQIV-SCUVULFGNA-N
     RDKit          3D

 63 67  0  0  0  0  0  0  0  0999 V2000
  141.8546   82.1614  223.8524 H   0  0  0  0  0  0  0  0  0  0  0  0
  141.6800   81.1180  223.5510 C   0  0  0  0  0  0  0  0  0  0  0  0
  140.4300   80.5290  223.7630 C   0  0  0  0  0  0  0  0  0  0  0  0
  139.6201   81.1101  224.2282 H   0  0  0  0  0  0  0  0  0  0  0  0
  140.2090   79.2020  223.3840 C   0  0  0  0  0  0  0  0  0  0  0  0
  139.2222   78.7435  223.5451 H   0  0  0  0  0  0  0  0  0  0  0  0
  141.2420   78.4510  222.7980 C   0  0  0  0  0  0  0  0  0  0  0  0
  140.9970   77.0310  222.3650 C   0  0  0  0  0  0  0  0  0  0  0  0
  141.6457   76.7975  221.5079 H   0  0  0  0  0  0  0  0  0  0  0  0
  141.2222   76.3599  223.2070 H   0  0  0  0  0  0  0  0  0  0  0  0
  139.5320   76.8360  221.9560 C   0  0  0  0  0  0  0  0  0  0  0  0
  138.9068   76.7950  222.8601 H   0  0  0  0  0  0  0  0  0  0  0  0
  139.2267   77.6796  221.3195 H   0  0  0  0  0  0  0  0  0  0  0  0
  139.3680   75.5940  221.2020 N   0  0  0  0  0  0  0  0  0  0  0  0
  140.0500   74.5040  221.4130 C   0  0  0  0  0  0  0  0  0  0  0  0
  141.1580   74.2260  220.6770 N   0  0  0  0  0  0  0  0  0  0  0  0
  141.8720   73.0930  220.8970 C   0  0  0  0  0  0  0  0  0  0  0  0
  143.0580   72.8210  220.1200 N   0  0  0  0  0  0  0  0  0  0  0  0
  144.3410   72.6460  220.8300 C   0  0  0  0  0  0  0  0  0  0  0  0
  144.7623   71.6700  220.5472 H   0  0  0  0  0  0  0  0  0  0  0  0
  144.1214   72.7175  221.9055 H   0  0  0  0  0  0  0  0  0  0  0  0
  145.3810   73.7290  220.5170 C   0  0  0  0  0  0  0  0  0  0  0  0
  146.0651   73.8315  221.3723 H   0  0  0  0  0  0  0  0  0  0  0  0
  144.8592   74.6794  220.3317 H   0  0  0  0  0  0  0  0  0  0  0  0
  146.1550   73.3710  219.3190 N   0  0  0  0  0  0  0  0  0  0  0  0
  146.9110   74.0880  219.2050 H   0  0  0  0  0  0  0  0  0  0  0  0
  145.3360   73.4140  218.0990 C   0  0  0  0  0  0  0  0  0  0  0  0
  145.9958   73.3260  217.2233 H   0  0  0  0  0  0  0  0  0  0  0  0
  144.7895   74.3685  218.0860 H   0  0  0  0  0  0  0  0  0  0  0  0
  144.3120   72.2770  218.0650 C   0  0  0  0  0  0  0  0  0  0  0  0
  144.7057   71.4289  218.6444 H   0  0  0  0  0  0  0  0  0  0  0  0
  144.1482   72.0027  217.0124 H   0  0  0  0  0  0  0  0  0  0  0  0
  142.9630   72.6930  218.6560 C   0  0  0  0  0  0  0  0  0  0  0  0
  142.2088   71.9318  218.4075 H   0  0  0  0  0  0  0  0  0  0  0  0
  142.6741   73.6661  218.2321 H   0  0  0  0  0  0  0  0  0  0  0  0
  141.4690   72.2350  221.8690 N   0  0  0  0  0  0  0  0  0  0  0  0
  140.3670   72.5020  222.6190 C   0  0  0  0  0  0  0  0  0  0  0  0
  139.9570   71.5740  223.6420 N   0  0  0  0  0  0  0  0  0  0  0  0
  140.4620   71.7310  225.0110 C   0  0  0  0  0  0  0  0  0  0  0  0
  139.8253   72.4515  225.5453 H   0  0  0  0  0  0  0  0  0  0  0  0
  141.5006   72.0888  224.9542 H   0  0  0  0  0  0  0  0  0  0  0  0
  140.4560   70.4190  225.7640 C   0  0  0  0  0  0  0  0  0  0  0  0
  141.0540   70.3610  227.0330 C   0  0  0  0  0  0  0  0  0  0  0  0
  141.5382   71.2566  227.4494 H   0  0  0  0  0  0  0  0  0  0  0  0
  141.0390   69.1750  227.7710 C   0  0  0  0  0  0  0  0  0  0  0  0
  141.5119   69.1398  228.7635 H   0  0  0  0  0  0  0  0  0  0  0  0
  140.4250   68.0350  227.2510 C   0  0  0  0  0  0  0  0  0  0  0  0
  140.4188   67.1009  227.8318 H   0  0  0  0  0  0  0  0  0  0  0  0
  139.8180   68.0790  225.9930 C   0  0  0  0  0  0  0  0  0  0  0  0
  139.3414   67.1755  225.5849 H   0  0  0  0  0  0  0  0  0  0  0  0
  139.8120   69.2680  225.2460 C   0  0  0  0  0  0  0  0  0  0  0  0
  139.1970   69.2700  223.8690 C   0  0  0  0  0  0  0  0  0  0  0  0
  138.2935   68.6426  223.8797 H   0  0  0  0  0  0  0  0  0  0  0  0
  139.9381   68.8753  223.1584 H   0  0  0  0  0  0  0  0  0  0  0  0
  138.8160   70.6820  223.4310 C   0  0  0  0  0  0  0  0  0  0  0  0
  137.9593   71.0332  224.0250 H   0  0  0  0  0  0  0  0  0  0  0  0
  138.5414   70.6778  222.3658 H   0  0  0  0  0  0  0  0  0  0  0  0
  139.6490   73.6350  222.3790 N   0  0  0  0  0  0  0  0  0  0  0  0
  138.7760   73.8310  222.9190 H   0  0  0  0  0  0  0  0  0  0  0  0
  142.4910   79.0540  222.5730 C   0  0  0  0  0  0  0  0  0  0  0  0
  143.2992   78.4812  222.0948 H   0  0  0  0  0  0  0  0  0  0  0  0
  142.7080   80.3810  222.9560 C   0  0  0  0  0  0  0  0  0  0  0  0
  143.6905   80.8464  222.7886 H   0  0  0  0  0  0  0  0  0  0  0  0
  1  2  1  0
  2  3  2  0
  3  4  1  0
  3  5  1  0
  5  6  1  0
  5  7  2  0
  7  8  1  0
  8  9  1  0
  8 10  1  0
  8 11  1  0
 11 12  1  0
 11 13  1  0
 11 14  1  0
 14 15  2  0
 15 16  1  0
 16 17  2  0
 17 18  1  0
 18 19  1  0
 19 20  1  0
 19 21  1  0
 19 22  1  0
 22 23  1  0
 22 24  1  0
 22 25  1  0
 25 26  1  0
 25 27  1  0
 27 28  1  0
 27 29  1  0
 27 30  1  0
 30 31  1  0
 30 32  1  0
 30 33  1  0
 33 34  1  0
 33 35  1  0
 17 36  1  0
 36 37  2  0
 37 38  1  0
 38 39  1  0
 39 40  1  0
 39 41  1  0
 39 42  1  0
 42 43  2  0
 43 44  1  0
 43 45  1  0
 45 46  1  0
 45 47  2  0
 47 48  1  0
 47 49  1  0
 49 50  1  0
 49 51  2  0
 51 52  1  0
 52 53  1  0
 52 54  1  0
 52 55  1  0
 55 56  1  0
 55 57  1  0
 37 58  1  0
 58 59  1  0
  7 60  1  0
 60 61  1  0
 60 62  2  0
 62 63  1  0
 62  2  1  0
 58 15  1  0
 33 18  1  0
 55 38  1  0
 51 42  1  0
M  END
>  <UniqueID>  (20) 
709

>  <SMILES>  (20) 
c1ccc(CC/N=c2\nc(N3CCCNCC3)nc(N3CCc4ccccc4C3)[nH]2)cc1

>  <Energy>  (20) 
69.67474045373264

>  <Genealogy>  (20) 
c1ccc(CCN=c2nc(N3CCCNCC3)nc(N3CCc4ccccc4C3)[nH]2)cc1 (tautomer)
c1ccc(CC/N=c2\nc(N3CCCNCC3)nc(N3CCc4ccccc4C3)[nH]2)cc1 (cis-trans isomerization)
c1ccc(CC/N=c2\nc(N3CCCNCC3)nc(N3CCc4ccccc4C3)[nH]2)cc1 (3D coordinates assigned)
c1ccc(CC/N=c2\nc(N3CCCNCC3)nc(N3CCc4ccccc4C3)[nH]2)cc1 (nonaromatic ring conformer: 69.67474045373264 kcal/mol)

>  <smiles>  (20) 
c1ccc(CCNc2nc(N3CCCNCC3)nc(N3CCc4ccccc4C3)n2)cc1

>  <score_type>  (20) 
oracle

>  <origin>  (20) 
autodockgpu

>  <m_score__min__energy>  (20) 
-8.6500000000000004

>  <m_primary>  (20) 
energy

>  <meeko>  (20) 
{"free_energy": -8.27, "intermolecular_energy": -11.85, "internal_energy": -0.94, "cluster_size": 17, "cluster_id": 1, "rank_in_cluster": 10}

>  <energy>  (20) 
-5.81

>  <cluster_rmsd>  (20) 
0.0

>  <rmsd>  (20) 
268.76

>  <cluster>  (20) 
4

$$$$
IBHRIKXMMSCQIV-SCYGCCLLNA-N
     RDKit          3D

 63 67  0  0  0  0  0  0  0  0999 V2000
  141.0955   69.1613  229.2607 H   0  0  0  0  0  0  0  0  0  0  0  0
  140.9470   69.6960  228.3110 C   0  0  0  0  0  0  0  0  0  0  0  0
  140.5440   68.9960  227.1690 C   0  0  0  0  0  0  0  0  0  0  0  0
  140.3786   67.9097  227.2200 H   0  0  0  0  0  0  0  0  0  0  0  0
  140.3510   69.6770  225.9610 C   0  0  0  0  0  0  0  0  0  0  0  0
  140.0417   69.1226  225.0627 H   0  0  0  0  0  0  0  0  0  0  0  0
  140.5510   71.0660  225.8920 C   0  0  0  0  0  0  0  0  0  0  0  0
  140.3680   71.7980  224.5890 C   0  0  0  0  0  0  0  0  0  0  0  0
  139.3554   72.2264  224.5547 H   0  0  0  0  0  0  0  0  0  0  0  0
  141.1225   72.5957  224.5227 H   0  0  0  0  0  0  0  0  0  0  0  0
  140.5520   70.8460  223.4020 C   0  0  0  0  0  0  0  0  0  0  0  0
  141.5982   70.5078  223.3684 H   0  0  0  0  0  0  0  0  0  0  0  0
  139.8784   69.9857  223.5291 H   0  0  0  0  0  0  0  0  0  0  0  0
  140.2240   71.5210  222.1460 N   0  0  0  0  0  0  0  0  0  0  0  0
  140.6450   72.6900  221.7500 C   0  0  0  0  0  0  0  0  0  0  0  0
  141.7580   72.7490  220.9790 N   0  0  0  0  0  0  0  0  0  0  0  0
  142.2340   73.9390  220.5330 C   0  0  0  0  0  0  0  0  0  0  0  0
  143.4110   73.9920  219.7000 N   0  0  0  0  0  0  0  0  0  0  0  0
  144.6990   74.4430  220.2440 C   0  0  0  0  0  0  0  0  0  0  0  0
  144.5205   75.2416  220.9791 H   0  0  0  0  0  0  0  0  0  0  0  0
  145.3203   74.8169  219.4168 H   0  0  0  0  0  0  0  0  0  0  0  0
  145.4350   73.2850  220.9280 C   0  0  0  0  0  0  0  0  0  0  0  0
  144.8557   72.9626  221.8058 H   0  0  0  0  0  0  0  0  0  0  0  0
  146.4333   73.6390  221.2248 H   0  0  0  0  0  0  0  0  0  0  0  0
  145.6040   72.1380  220.0190 N   0  0  0  0  0  0  0  0  0  0  0  0
  146.2770   71.4800  220.4790 H   0  0  0  0  0  0  0  0  0  0  0  0
  144.3400   71.4070  219.8070 C   0  0  0  0  0  0  0  0  0  0  0  0
  143.6658   71.6102  220.6521 H   0  0  0  0  0  0  0  0  0  0  0  0
  144.5745   70.3347  219.7353 H   0  0  0  0  0  0  0  0  0  0  0  0
  143.6460   71.8290  218.5070 C   0  0  0  0  0  0  0  0  0  0  0  0
  142.6684   71.3270  218.4581 H   0  0  0  0  0  0  0  0  0  0  0  0
  144.3130   71.5391  217.6817 H   0  0  0  0  0  0  0  0  0  0  0  0
  143.4180   73.3440  218.3830 C   0  0  0  0  0  0  0  0  0  0  0  0
  142.4502   73.5216  217.8911 H   0  0  0  0  0  0  0  0  0  0  0  0
  144.2402   73.7714  217.7902 H   0  0  0  0  0  0  0  0  0  0  0  0
  141.5800   75.0810  220.8640 N   0  0  0  0  0  0  0  0  0  0  0  0
  140.4640   75.0500  221.6380 C   0  0  0  0  0  0  0  0  0  0  0  0
  139.7920   76.2860  221.9760 N   0  0  0  0  0  0  0  0  0  0  0  0
  140.5610   77.5470  222.0360 C   0  0  0  0  0  0  0  0  0  0  0  0
  140.7973   77.8606  221.0085 H   0  0  0  0  0  0  0  0  0  0  0  0
  141.4663   77.3476  222.6282 H   0  0  0  0  0  0  0  0  0  0  0  0
  139.8190   78.6690  222.7200 C   0  0  0  0  0  0  0  0  0  0  0  0
  140.5290   79.7570  223.2520 C   0  0  0  0  0  0  0  0  0  0  0  0
  141.6283   79.7650  223.2129 H   0  0  0  0  0  0  0  0  0  0  0  0
  139.8460   80.8300  223.8310 C   0  0  0  0  0  0  0  0  0  0  0  0
  140.4091   81.6731  224.2576 H   0  0  0  0  0  0  0  0  0  0  0  0
  138.4520   80.8340  223.8690 C   0  0  0  0  0  0  0  0  0  0  0  0
  137.9169   81.6801  224.3248 H   0  0  0  0  0  0  0  0  0  0  0  0
  137.7340   79.7630  223.3280 C   0  0  0  0  0  0  0  0  0  0  0  0
  136.6343   79.7721  223.3502 H   0  0  0  0  0  0  0  0  0  0  0  0
  138.4140   78.6770  222.7570 C   0  0  0  0  0  0  0  0  0  0  0  0
  137.6600   77.5490  222.1240 C   0  0  0  0  0  0  0  0  0  0  0  0
  137.5963   77.7166  221.0387 H   0  0  0  0  0  0  0  0  0  0  0  0
  136.6483   77.5038  222.5535 H   0  0  0  0  0  0  0  0  0  0  0  0
  138.3790   76.2280  222.3910 C   0  0  0  0  0  0  0  0  0  0  0  0
  137.8747   75.4273  221.8301 H   0  0  0  0  0  0  0  0  0  0  0  0
  138.3458   76.0307  223.4727 H   0  0  0  0  0  0  0  0  0  0  0  0
  140.0000   73.8470  222.0890 N   0  0  0  0  0  0  0  0  0  0  0  0
  139.1640   73.8250  222.7080 H   0  0  0  0  0  0  0  0  0  0  0  0
  140.9690   71.7600  227.0400 C   0  0  0  0  0  0  0  0  0  0  0  0
  141.1457   72.8446  226.9909 H   0  0  0  0  0  0  0  0  0  0  0  0
  141.1610   71.0770  228.2440 C   0  0  0  0  0  0  0  0  0  0  0  0
  141.4812   71.6266  229.1414 H   0  0  0  0  0  0  0  0  0  0  0  0
  1  2  1  0
  2  3  2  0
  3  4  1  0
  3  5  1  0
  5  6  1  0
  5  7  2  0
  7  8  1  0
  8  9  1  0
  8 10  1  0
  8 11  1  0
 11 12  1  0
 11 13  1  0
 11 14  1  0
 14 15  2  0
 15 16  1  0
 16 17  2  0
 17 18  1  0
 18 19  1  0
 19 20  1  0
 19 21  1  0
 19 22  1  0
 22 23  1  0
 22 24  1  0
 22 25  1  0
 25 26  1  0
 25 27  1  0
 27 28  1  0
 27 29  1  0
 27 30  1  0
 30 31  1  0
 30 32  1  0
 30 33  1  0
 33 34  1  0
 33 35  1  0
 17 36  1  0
 36 37  2  0
 37 38  1  0
 38 39  1  0
 39 40  1  0
 39 41  1  0
 39 42  1  0
 42 43  2  0
 43 44  1  0
 43 45  1  0
 45 46  1  0
 45 47  2  0
 47 48  1  0
 47 49  1  0
 49 50  1  0
 49 51  2  0
 51 52  1  0
 52 53  1  0
 52 54  1  0
 52 55  1  0
 55 56  1  0
 55 57  1  0
 37 58  1  0
 58 59  1  0
  7 60  1  0
 60 61  1  0
 60 62  2  0
 62 63  1  0
 62  2  1  0
 58 15  1  0
 33 18  1  0
 55 38  1  0
 51 42  1  0
M  END
>  <UniqueID>  (21) 
710

>  <SMILES>  (21) 
c1ccc(CC/N=c2/nc(N3CCCNCC3)nc(N3CCc4ccccc4C3)[nH]2)cc1

>  <Energy>  (21) 
71.07950677063752

>  <Genealogy>  (21) 
c1ccc(CCN=c2nc(N3CCCNCC3)nc(N3CCc4ccccc4C3)[nH]2)cc1 (tautomer)
c1ccc(CC/N=c2/nc(N3CCCNCC3)nc(N3CCc4ccccc4C3)[nH]2)cc1 (cis-trans isomerization)
c1ccc(CC/N=c2/nc(N3CCCNCC3)nc(N3CCc4ccccc4C3)[nH]2)cc1 (3D coordinates assigned)
c1ccc(CC/N=c2/nc(N3CCCNCC3)nc(N3CCc4ccccc4C3)[nH]2)cc1 (nonaromatic ring conformer: 71.07950677063752 kcal/mol)

>  <smiles>  (21) 
c1ccc(CCNc2nc(N3CCCNCC3)nc(N3CCc4ccccc4C3)n2)cc1

>  <score_type>  (21) 
oracle

>  <origin>  (21) 
autodockgpu

>  <m_score__min__energy>  (21) 
-8.0399999999999991

>  <m_primary>  (21) 
energy

>  <meeko>  (21) 
{"free_energy": -6.37, "intermolecular_energy": -9.95, "internal_energy": -1.02, "cluster_size": 19, "cluster_id": 1, "rank_in_cluster": 17}

>  <energy>  (21) 
-8.04

>  <cluster_rmsd>  (21) 
0.0

>  <rmsd>  (21) 
272.77

>  <cluster>  (21) 
1

$$$$
IBHRIKXMMSCQIV-SCYGCCLLNA-N
     RDKit          3D

 63 67  0  0  0  0  0  0  0  0999 V2000
  140.7327   69.5742  229.4135 H   0  0  0  0  0  0  0  0  0  0  0  0
  140.7280   69.8140  228.3400 C   0  0  0  0  0  0  0  0  0  0  0  0
  141.0710   68.8340  227.4030 C   0  0  0  0  0  0  0  0  0  0  0  0
  141.3479   67.8241  227.7399 H   0  0  0  0  0  0  0  0  0  0  0  0
  141.0620   69.1380  226.0360 C   0  0  0  0  0  0  0  0  0  0  0  0
  141.3392   68.3675  225.3015 H   0  0  0  0  0  0  0  0  0  0  0  0
  140.7000   70.4240  225.5990 C   0  0  0  0  0  0  0  0  0  0  0  0
  140.7120   70.7610  224.1330 C   0  0  0  0  0  0  0  0  0  0  0  0
  141.2107   71.7309  223.9897 H   0  0  0  0  0  0  0  0  0  0  0  0
  141.2528   69.9697  223.5932 H   0  0  0  0  0  0  0  0  0  0  0  0
  139.2830   70.8440  223.5830 C   0  0  0  0  0  0  0  0  0  0  0  0
  138.9154   69.8280  223.3767 H   0  0  0  0  0  0  0  0  0  0  0  0
  138.6430   71.3355  224.3306 H   0  0  0  0  0  0  0  0  0  0  0  0
  139.2520   71.6270  222.3470 N   0  0  0  0  0  0  0  0  0  0  0  0
  140.0130   72.6420  222.0410 C   0  0  0  0  0  0  0  0  0  0  0  0
  141.2130   72.3970  221.4630 N   0  0  0  0  0  0  0  0  0  0  0  0
  142.0400   73.4160  221.1160 C   0  0  0  0  0  0  0  0  0  0  0  0
  143.3110   73.1480  220.4870 N   0  0  0  0  0  0  0  0  0  0  0  0
  143.3960   72.2990  219.2920 C   0  0  0  0  0  0  0  0  0  0  0  0
  142.3799   72.0774  218.9337 H   0  0  0  0  0  0  0  0  0  0  0  0
  143.9194   71.3683  219.5564 H   0  0  0  0  0  0  0  0  0  0  0  0
  144.1790   73.0050  218.1790 C   0  0  0  0  0  0  0  0  0  0  0  0
  143.8832   74.0641  218.1506 H   0  0  0  0  0  0  0  0  0  0  0  0
  143.9474   72.5076  217.2256 H   0  0  0  0  0  0  0  0  0  0  0  0
  145.6330   72.9200  218.4030 N   0  0  0  0  0  0  0  0  0  0  0  0
  145.9810   73.9010  218.5220 H   0  0  0  0  0  0  0  0  0  0  0  0
  145.9630   72.1770  219.6340 C   0  0  0  0  0  0  0  0  0  0  0  0
  147.0147   71.8578  219.5881 H   0  0  0  0  0  0  0  0  0  0  0  0
  145.2931   71.3072  219.7029 H   0  0  0  0  0  0  0  0  0  0  0  0
  145.7580   73.0460  220.8880 C   0  0  0  0  0  0  0  0  0  0  0  0
  146.6341   73.7020  220.9984 H   0  0  0  0  0  0  0  0  0  0  0  0
  145.6310   72.3521  221.7320 H   0  0  0  0  0  0  0  0  0  0  0  0
  144.4990   73.9280  220.8540 C   0  0  0  0  0  0  0  0  0  0  0  0
  144.6433   74.7301  220.1152 H   0  0  0  0  0  0  0  0  0  0  0  0
  144.3420   74.3477  221.8586 H   0  0  0  0  0  0  0  0  0  0  0  0
  141.6510   74.6940  221.3510 N   0  0  0  0  0  0  0  0  0  0  0  0
  140.4540   74.9670  221.9340 C   0  0  0  0  0  0  0  0  0  0  0  0
  140.0710   76.3420  222.1740 N   0  0  0  0  0  0  0  0  0  0  0  0
  141.0780   77.4160  222.0500 C   0  0  0  0  0  0  0  0  0  0  0  0
  141.2886   77.5754  220.9822 H   0  0  0  0  0  0  0  0  0  0  0  0
  141.9705   77.0910  222.6049 H   0  0  0  0  0  0  0  0  0  0  0  0
  140.6310   78.7270  222.6510 C   0  0  0  0  0  0  0  0  0  0  0  0
  141.5840   79.6900  223.0190 C   0  0  0  0  0  0  0  0  0  0  0  0
  142.6561   79.4668  222.9149 H   0  0  0  0  0  0  0  0  0  0  0  0
  141.1770   80.9310  223.5170 C   0  0  0  0  0  0  0  0  0  0  0  0
  141.9291   81.6764  223.8149 H   0  0  0  0  0  0  0  0  0  0  0  0
  139.8190   81.2260  223.6370 C   0  0  0  0  0  0  0  0  0  0  0  0
  139.5011   82.2033  224.0292 H   0  0  0  0  0  0  0  0  0  0  0  0
  138.8620   80.2800  223.2590 C   0  0  0  0  0  0  0  0  0  0  0  0
  137.7915   80.5182  223.3446 H   0  0  0  0  0  0  0  0  0  0  0  0
  139.2630   79.0280  222.7710 C   0  0  0  0  0  0  0  0  0  0  0  0
  138.2510   78.0250  222.3090 C   0  0  0  0  0  0  0  0  0  0  0  0
  138.1357   78.0993  221.2176 H   0  0  0  0  0  0  0  0  0  0  0  0
  137.2879   78.2299  222.7993 H   0  0  0  0  0  0  0  0  0  0  0  0
  138.7120   76.6150  222.6750 C   0  0  0  0  0  0  0  0  0  0  0  0
  138.0159   75.8861  222.2344 H   0  0  0  0  0  0  0  0  0  0  0  0
  138.7260   76.5311  223.7717 H   0  0  0  0  0  0  0  0  0  0  0  0
  139.6350   73.9330  222.2860 N   0  0  0  0  0  0  0  0  0  0  0  0
  138.7320   74.1390  222.7600 H   0  0  0  0  0  0  0  0  0  0  0  0
  140.3700   71.4060  226.5480 C   0  0  0  0  0  0  0  0  0  0  0  0
  140.1035   72.4205  226.2166 H   0  0  0  0  0  0  0  0  0  0  0  0
  140.3790   71.0990  227.9120 C   0  0  0  0  0  0  0  0  0  0  0  0
  140.1111   71.8695  228.6499 H   0  0  0  0  0  0  0  0  0  0  0  0
  1  2  1  0
  2  3  2  0
  3  4  1  0
  3  5  1  0
  5  6  1  0
  5  7  2  0
  7  8  1  0
  8  9  1  0
  8 10  1  0
  8 11  1  0
 11 12  1  0
 11 13  1  0
 11 14  1  0
 14 15  2  0
 15 16  1  0
 16 17  2  0
 17 18  1  0
 18 19  1  0
 19 20  1  0
 19 21  1  0
 19 22  1  0
 22 23  1  0
 22 24  1  0
 22 25  1  0
 25 26  1  0
 25 27  1  0
 27 28  1  0
 27 29  1  0
 27 30  1  0
 30 31  1  0
 30 32  1  0
 30 33  1  0
 33 34  1  0
 33 35  1  0
 17 36  1  0
 36 37  2  0
 37 38  1  0
 38 39  1  0
 39 40  1  0
 39 41  1  0
 39 42  1  0
 42 43  2  0
 43 44  1  0
 43 45  1  0
 45 46  1  0
 45 47  2  0
 47 48  1  0
 47 49  1  0
 49 50  1  0
 49 51  2  0
 51 52  1  0
 52 53  1  0
 52 54  1  0
 52 55  1  0
 55 56  1  0
 55 57  1  0
 37 58  1  0
 58 59  1  0
  7 60  1  0
 60 61  1  0
 60 62  2  0
 62 63  1  0
 62  2  1  0
 58 15  1  0
 33 18  1  0
 55 38  1  0
 51 42  1  0
M  END
>  <UniqueID>  (22) 
710

>  <SMILES>  (22) 
c1ccc(CC/N=c2/nc(N3CCCNCC3)nc(N3CCc4ccccc4C3)[nH]2)cc1

>  <Energy>  (22) 
71.07950677063752

>  <Genealogy>  (22) 
c1ccc(CCN=c2nc(N3CCCNCC3)nc(N3CCc4ccccc4C3)[nH]2)cc1 (tautomer)
c1ccc(CC/N=c2/nc(N3CCCNCC3)nc(N3CCc4ccccc4C3)[nH]2)cc1 (cis-trans isomerization)
c1ccc(CC/N=c2/nc(N3CCCNCC3)nc(N3CCc4ccccc4C3)[nH]2)cc1 (3D coordinates assigned)
c1ccc(CC/N=c2/nc(N3CCCNCC3)nc(N3CCc4ccccc4C3)[nH]2)cc1 (nonaromatic ring conformer: 71.07950677063752 kcal/mol)

>  <smiles>  (22) 
c1ccc(CCNc2nc(N3CCCNCC3)nc(N3CCc4ccccc4C3)n2)cc1

>  <score_type>  (22) 
oracle

>  <origin>  (22) 
autodockgpu

>  <m_score__min__energy>  (22) 
-8.0399999999999991

>  <m_primary>  (22) 
energy

>  <meeko>  (22) 
{"free_energy": -7.44, "intermolecular_energy": -11.02, "internal_energy": -0.93, "cluster_size": 19, "cluster_id": 1, "rank_in_cluster": 12}

>  <energy>  (22) 
-7.95

>  <cluster_rmsd>  (22) 
1.52

>  <rmsd>  (22) 
272.76

>  <cluster>  (22) 
1

$$$$
IBHRIKXMMSCQIV-SCYGCCLLNA-N
     RDKit          3D

 63 67  0  0  0  0  0  0  0  0999 V2000
  140.3518   69.3631  229.3645 H   0  0  0  0  0  0  0  0  0  0  0  0
  140.3840   69.7300  228.3280 C   0  0  0  0  0  0  0  0  0  0  0  0
  140.6510   71.0790  228.0710 C   0  0  0  0  0  0  0  0  0  0  0  0
  140.8256   71.7737  228.9058 H   0  0  0  0  0  0  0  0  0  0  0  0
  140.6960   71.5450  226.7520 C   0  0  0  0  0  0  0  0  0  0  0  0
  140.8980   72.6078  226.5529 H   0  0  0  0  0  0  0  0  0  0  0  0
  140.4840   70.6600  225.6810 C   0  0  0  0  0  0  0  0  0  0  0  0
  140.5090   71.1630  224.2620 C   0  0  0  0  0  0  0  0  0  0  0  0
  140.6795   72.2497  224.2670 H   0  0  0  0  0  0  0  0  0  0  0  0
  141.3185   70.6524  223.7198 H   0  0  0  0  0  0  0  0  0  0  0  0
  139.1790   70.8650  223.5580 C   0  0  0  0  0  0  0  0  0  0  0  0
  139.2360   69.8754  223.0810 H   0  0  0  0  0  0  0  0  0  0  0  0
  138.3709   70.8813  224.3041 H   0  0  0  0  0  0  0  0  0  0  0  0
  138.9000   71.8750  222.5380 N   0  0  0  0  0  0  0  0  0  0  0  0
  139.7240   72.7770  222.0790 C   0  0  0  0  0  0  0  0  0  0  0  0
  140.7720   72.3700  221.3230 N   0  0  0  0  0  0  0  0  0  0  0  0
  141.6540   73.2670  220.8140 C   0  0  0  0  0  0  0  0  0  0  0  0
  142.7590   72.8260  219.9970 N   0  0  0  0  0  0  0  0  0  0  0  0
  143.8770   72.0770  220.5830 C   0  0  0  0  0  0  0  0  0  0  0  0
  144.0683   71.1801  219.9755 H   0  0  0  0  0  0  0  0  0  0  0  0
  143.6108   71.7924  221.6116 H   0  0  0  0  0  0  0  0  0  0  0  0
  145.1450   72.9370  220.6230 C   0  0  0  0  0  0  0  0  0  0  0  0
  145.7456   72.6471  221.4978 H   0  0  0  0  0  0  0  0  0  0  0  0
  144.8431   73.9928  220.6866 H   0  0  0  0  0  0  0  0  0  0  0  0
  145.9570   72.7620  219.4060 N   0  0  0  0  0  0  0  0  0  0  0  0
  146.6890   72.0450  219.6270 H   0  0  0  0  0  0  0  0  0  0  0  0
  145.1600   72.2500  218.2750 C   0  0  0  0  0  0  0  0  0  0  0  0
  144.7275   71.2784  218.5559 H   0  0  0  0  0  0  0  0  0  0  0  0
  145.8267   72.1513  217.4056 H   0  0  0  0  0  0  0  0  0  0  0  0
  144.0190   73.2110  217.8940 C   0  0  0  0  0  0  0  0  0  0  0  0
  143.9000   73.1875  216.8007 H   0  0  0  0  0  0  0  0  0  0  0  0
  144.3046   74.2034  218.2730 H   0  0  0  0  0  0  0  0  0  0  0  0
  142.6620   72.8710  218.5330 C   0  0  0  0  0  0  0  0  0  0  0  0
  142.3287   71.8893  218.1655 H   0  0  0  0  0  0  0  0  0  0  0  0
  141.9415   73.6548  218.2564 H   0  0  0  0  0  0  0  0  0  0  0  0
  141.4750   74.5870  221.0660 N   0  0  0  0  0  0  0  0  0  0  0  0
  140.4350   75.0220  221.8250 C   0  0  0  0  0  0  0  0  0  0  0  0
  140.2760   76.4380  222.0780 N   0  0  0  0  0  0  0  0  0  0  0  0
  141.4070   77.3580  221.8380 C   0  0  0  0  0  0  0  0  0  0  0  0
  141.5306   77.4831  220.7521 H   0  0  0  0  0  0  0  0  0  0  0  0
  142.2953   76.9109  222.3082 H   0  0  0  0  0  0  0  0  0  0  0  0
  141.2120   78.7210  222.4580 C   0  0  0  0  0  0  0  0  0  0  0  0
  142.3240   79.5390  222.7140 C   0  0  0  0  0  0  0  0  0  0  0  0
  143.3379   79.1651  222.5086 H   0  0  0  0  0  0  0  0  0  0  0  0
  142.1480   80.8270  223.2290 C   0  0  0  0  0  0  0  0  0  0  0  0
  143.0236   81.4586  223.4396 H   0  0  0  0  0  0  0  0  0  0  0  0
  140.8640   81.3120  223.4760 C   0  0  0  0  0  0  0  0  0  0  0  0
  140.7282   82.3258  223.8808 H   0  0  0  0  0  0  0  0  0  0  0  0
  139.7500   80.5120  223.2100 C   0  0  0  0  0  0  0  0  0  0  0  0
  138.7379   80.9003  223.3968 H   0  0  0  0  0  0  0  0  0  0  0  0
  139.9200   79.2140  222.7050 C   0  0  0  0  0  0  0  0  0  0  0  0
  138.7350   78.3640  222.3620 C   0  0  0  0  0  0  0  0  0  0  0  0
  138.5231   78.4507  221.2861 H   0  0  0  0  0  0  0  0  0  0  0  0
  137.8644   78.7056  222.9411 H   0  0  0  0  0  0  0  0  0  0  0  0
  139.0260   76.9040  222.7050 C   0  0  0  0  0  0  0  0  0  0  0  0
  138.1933   76.2805  222.3475 H   0  0  0  0  0  0  0  0  0  0  0  0
  139.1374   76.8226  223.7963 H   0  0  0  0  0  0  0  0  0  0  0  0
  139.5600   74.1090  222.3390 N   0  0  0  0  0  0  0  0  0  0  0  0
  138.7810   74.4380  222.9460 H   0  0  0  0  0  0  0  0  0  0  0  0
  140.2030   69.3100  225.9480 C   0  0  0  0  0  0  0  0  0  0  0  0
  140.0177   68.6139  225.1166 H   0  0  0  0  0  0  0  0  0  0  0  0
  140.1580   68.8480  227.2660 C   0  0  0  0  0  0  0  0  0  0  0  0
  139.9444   67.7882  227.4689 H   0  0  0  0  0  0  0  0  0  0  0  0
  1  2  1  0
  2  3  2  0
  3  4  1  0
  3  5  1  0
  5  6  1  0
  5  7  2  0
  7  8  1  0
  8  9  1  0
  8 10  1  0
  8 11  1  0
 11 12  1  0
 11 13  1  0
 11 14  1  0
 14 15  2  0
 15 16  1  0
 16 17  2  0
 17 18  1  0
 18 19  1  0
 19 20  1  0
 19 21  1  0
 19 22  1  0
 22 23  1  0
 22 24  1  0
 22 25  1  0
 25 26  1  0
 25 27  1  0
 27 28  1  0
 27 29  1  0
 27 30  1  0
 30 31  1  0
 30 32  1  0
 30 33  1  0
 33 34  1  0
 33 35  1  0
 17 36  1  0
 36 37  2  0
 37 38  1  0
 38 39  1  0
 39 40  1  0
 39 41  1  0
 39 42  1  0
 42 43  2  0
 43 44  1  0
 43 45  1  0
 45 46  1  0
 45 47  2  0
 47 48  1  0
 47 49  1  0
 49 50  1  0
 49 51  2  0
 51 52  1  0
 52 53  1  0
 52 54  1  0
 52 55  1  0
 55 56  1  0
 55 57  1  0
 37 58  1  0
 58 59  1  0
  7 60  1  0
 60 61  1  0
 60 62  2  0
 62 63  1  0
 62  2  1  0
 58 15  1  0
 33 18  1  0
 55 38  1  0
 51 42  1  0
M  END
>  <UniqueID>  (23) 
710

>  <SMILES>  (23) 
c1ccc(CC/N=c2/nc(N3CCCNCC3)nc(N3CCc4ccccc4C3)[nH]2)cc1

>  <Energy>  (23) 
71.07950677063752

>  <Genealogy>  (23) 
c1ccc(CCN=c2nc(N3CCCNCC3)nc(N3CCc4ccccc4C3)[nH]2)cc1 (tautomer)
c1ccc(CC/N=c2/nc(N3CCCNCC3)nc(N3CCc4ccccc4C3)[nH]2)cc1 (cis-trans isomerization)
c1ccc(CC/N=c2/nc(N3CCCNCC3)nc(N3CCc4ccccc4C3)[nH]2)cc1 (3D coordinates assigned)
c1ccc(CC/N=c2/nc(N3CCCNCC3)nc(N3CCc4ccccc4C3)[nH]2)cc1 (nonaromatic ring conformer: 71.07950677063752 kcal/mol)

>  <smiles>  (23) 
c1ccc(CCNc2nc(N3CCCNCC3)nc(N3CCc4ccccc4C3)n2)cc1

>  <score_type>  (23) 
oracle

>  <origin>  (23) 
autodockgpu

>  <m_score__min__energy>  (23) 
-8.0399999999999991

>  <m_primary>  (23) 
energy

>  <meeko>  (23) 
{"free_energy": -7.7, "intermolecular_energy": -11.28, "internal_energy": -0.94, "cluster_size": 19, "cluster_id": 1, "rank_in_cluster": 9}

>  <energy>  (23) 
-7.9

>  <cluster_rmsd>  (23) 
1.33

>  <rmsd>  (23) 
272.84

>  <cluster>  (23) 
1

$$$$
IBHRIKXMMSCQIV-SCYGCCLLNA-N
     RDKit          3D

 63 67  0  0  0  0  0  0  0  0999 V2000
  141.5521   73.3639  227.3577 H   0  0  0  0  0  0  0  0  0  0  0  0
  141.1360   72.3490  227.2750 C   0  0  0  0  0  0  0  0  0  0  0  0
  140.4150   71.8000  228.3400 C   0  0  0  0  0  0  0  0  0  0  0  0
  140.2669   72.3820  229.2616 H   0  0  0  0  0  0  0  0  0  0  0  0
  139.8820   70.5110  228.2340 C   0  0  0  0  0  0  0  0  0  0  0  0
  139.3222   70.0786  229.0764 H   0  0  0  0  0  0  0  0  0  0  0  0
  140.0590   69.7660  227.0550 C   0  0  0  0  0  0  0  0  0  0  0  0
  139.5070   68.3700  226.9460 C   0  0  0  0  0  0  0  0  0  0  0  0
  139.9084   67.7579  227.7671 H   0  0  0  0  0  0  0  0  0  0  0  0
  138.4097   68.4180  227.0067 H   0  0  0  0  0  0  0  0  0  0  0  0
  139.8990   67.7350  225.6070 C   0  0  0  0  0  0  0  0  0  0  0  0
  140.7592   68.2773  225.1875 H   0  0  0  0  0  0  0  0  0  0  0  0
  140.1611   66.6803  225.7773 H   0  0  0  0  0  0  0  0  0  0  0  0
  138.7830   67.7980  224.6620 N   0  0  0  0  0  0  0  0  0  0  0  0
  138.1260   68.8620  224.2920 C   0  0  0  0  0  0  0  0  0  0  0  0
  138.6160   69.6010  223.2690 N   0  0  0  0  0  0  0  0  0  0  0  0
  137.9680   70.7130  222.8380 C   0  0  0  0  0  0  0  0  0  0  0  0
  138.4890   71.4860  221.7370 N   0  0  0  0  0  0  0  0  0  0  0  0
  137.8110   72.7080  221.2860 C   0  0  0  0  0  0  0  0  0  0  0  0
  137.0494   72.9923  222.0270 H   0  0  0  0  0  0  0  0  0  0  0  0
  137.3418   72.5114  220.3107 H   0  0  0  0  0  0  0  0  0  0  0  0
  138.8110   73.8580  221.1270 C   0  0  0  0  0  0  0  0  0  0  0  0
  138.2560   74.7963  220.9799 H   0  0  0  0  0  0  0  0  0  0  0  0
  139.4510   73.6409  220.2591 H   0  0  0  0  0  0  0  0  0  0  0  0
  139.6730   73.9930  222.3140 N   0  0  0  0  0  0  0  0  0  0  0  0
  139.1960   73.4870  223.0980 H   0  0  0  0  0  0  0  0  0  0  0  0
  140.9930   73.3650  222.1160 C   0  0  0  0  0  0  0  0  0  0  0  0
  141.6715   73.7055  222.9120 H   0  0  0  0  0  0  0  0  0  0  0  0
  141.3649   73.6602  221.1238 H   0  0  0  0  0  0  0  0  0  0  0  0
  140.9110   71.8310  222.1560 C   0  0  0  0  0  0  0  0  0  0  0  0
  140.6824   71.5248  223.1875 H   0  0  0  0  0  0  0  0  0  0  0  0
  141.8825   71.4538  221.8041 H   0  0  0  0  0  0  0  0  0  0  0  0
  139.8420   71.2310  221.2270 C   0  0  0  0  0  0  0  0  0  0  0  0
  139.9989   70.1447  221.1546 H   0  0  0  0  0  0  0  0  0  0  0  0
  139.9356   71.7042  220.2384 H   0  0  0  0  0  0  0  0  0  0  0  0
  136.8110   71.0810  223.4440 N   0  0  0  0  0  0  0  0  0  0  0  0
  136.3000   70.3600  224.4750 C   0  0  0  0  0  0  0  0  0  0  0  0
  135.0650   70.7820  225.1020 N   0  0  0  0  0  0  0  0  0  0  0  0
  134.6110   72.1810  224.9580 C   0  0  0  0  0  0  0  0  0  0  0  0
  134.2355   72.3223  223.9338 H   0  0  0  0  0  0  0  0  0  0  0  0
  135.4739   72.8272  225.1766 H   0  0  0  0  0  0  0  0  0  0  0  0
  133.5150   72.5570  225.9260 C   0  0  0  0  0  0  0  0  0  0  0  0
  133.2850   73.9070  226.2340 C   0  0  0  0  0  0  0  0  0  0  0  0
  133.9361   74.6841  225.8073 H   0  0  0  0  0  0  0  0  0  0  0  0
  132.2330   74.2690  227.0800 C   0  0  0  0  0  0  0  0  0  0  0  0
  132.0662   75.3279  227.3268 H   0  0  0  0  0  0  0  0  0  0  0  0
  131.3940   73.2890  227.6120 C   0  0  0  0  0  0  0  0  0  0  0  0
  130.5669   73.5759  228.2780 H   0  0  0  0  0  0  0  0  0  0  0  0
  131.6040   71.9430  227.2990 C   0  0  0  0  0  0  0  0  0  0  0  0
  130.9350   71.1727  227.7102 H   0  0  0  0  0  0  0  0  0  0  0  0
  132.6670   71.5730  226.4610 C   0  0  0  0  0  0  0  0  0  0  0  0
  132.8720   70.1410  226.0720 C   0  0  0  0  0  0  0  0  0  0  0  0
  132.4065   69.9590  225.0921 H   0  0  0  0  0  0  0  0  0  0  0  0
  132.4105   69.4903  226.8294 H   0  0  0  0  0  0  0  0  0  0  0  0
  134.3660   69.8340  225.9880 C   0  0  0  0  0  0  0  0  0  0  0  0
  134.4997   68.8146  225.5968 H   0  0  0  0  0  0  0  0  0  0  0  0
  134.7938   69.9263  226.9972 H   0  0  0  0  0  0  0  0  0  0  0  0
  136.9660   69.2490  224.9050 N   0  0  0  0  0  0  0  0  0  0  0  0
  136.5920   68.7130  225.7150 H   0  0  0  0  0  0  0  0  0  0  0  0
  140.7960   70.3190  225.9950 C   0  0  0  0  0  0  0  0  0  0  0  0
  140.9554   69.7367  225.0755 H   0  0  0  0  0  0  0  0  0  0  0  0
  141.3280   71.6080  226.1050 C   0  0  0  0  0  0  0  0  0  0  0  0
  141.8985   72.0395  225.2694 H   0  0  0  0  0  0  0  0  0  0  0  0
  1  2  1  0
  2  3  2  0
  3  4  1  0
  3  5  1  0
  5  6  1  0
  5  7  2  0
  7  8  1  0
  8  9  1  0
  8 10  1  0
  8 11  1  0
 11 12  1  0
 11 13  1  0
 11 14  1  0
 14 15  2  0
 15 16  1  0
 16 17  2  0
 17 18  1  0
 18 19  1  0
 19 20  1  0
 19 21  1  0
 19 22  1  0
 22 23  1  0
 22 24  1  0
 22 25  1  0
 25 26  1  0
 25 27  1  0
 27 28  1  0
 27 29  1  0
 27 30  1  0
 30 31  1  0
 30 32  1  0
 30 33  1  0
 33 34  1  0
 33 35  1  0
 17 36  1  0
 36 37  2  0
 37 38  1  0
 38 39  1  0
 39 40  1  0
 39 41  1  0
 39 42  1  0
 42 43  2  0
 43 44  1  0
 43 45  1  0
 45 46  1  0
 45 47  2  0
 47 48  1  0
 47 49  1  0
 49 50  1  0
 49 51  2  0
 51 52  1  0
 52 53  1  0
 52 54  1  0
 52 55  1  0
 55 56  1  0
 55 57  1  0
 37 58  1  0
 58 59  1  0
  7 60  1  0
 60 61  1  0
 60 62  2  0
 62 63  1  0
 62  2  1  0
 58 15  1  0
 33 18  1  0
 55 38  1  0
 51 42  1  0
M  END
>  <UniqueID>  (24) 
710

>  <SMILES>  (24) 
c1ccc(CC/N=c2/nc(N3CCCNCC3)nc(N3CCc4ccccc4C3)[nH]2)cc1

>  <Energy>  (24) 
71.07950677063752

>  <Genealogy>  (24) 
c1ccc(CCN=c2nc(N3CCCNCC3)nc(N3CCc4ccccc4C3)[nH]2)cc1 (tautomer)
c1ccc(CC/N=c2/nc(N3CCCNCC3)nc(N3CCc4ccccc4C3)[nH]2)cc1 (cis-trans isomerization)
c1ccc(CC/N=c2/nc(N3CCCNCC3)nc(N3CCc4ccccc4C3)[nH]2)cc1 (3D coordinates assigned)
c1ccc(CC/N=c2/nc(N3CCCNCC3)nc(N3CCc4ccccc4C3)[nH]2)cc1 (nonaromatic ring conformer: 71.07950677063752 kcal/mol)

>  <smiles>  (24) 
c1ccc(CCNc2nc(N3CCCNCC3)nc(N3CCc4ccccc4C3)n2)cc1

>  <score_type>  (24) 
oracle

>  <origin>  (24) 
autodockgpu

>  <m_score__min__energy>  (24) 
-8.0399999999999991

>  <m_primary>  (24) 
energy

>  <meeko>  (24) 
{"free_energy": -6.84, "intermolecular_energy": -10.42, "internal_energy": -1.72, "cluster_size": 1, "cluster_id": 2, "rank_in_cluster": 1}

>  <energy>  (24) 
-7.8

>  <cluster_rmsd>  (24) 
0.71

>  <rmsd>  (24) 
272.65

>  <cluster>  (24) 
1

$$$$
IBHRIKXMMSCQIV-SCYGCCLLNA-N
     RDKit          3D

 63 67  0  0  0  0  0  0  0  0999 V2000
  142.7845   81.8991  223.5455 H   0  0  0  0  0  0  0  0  0  0  0  0
  142.1190   81.0400  223.3750 C   0  0  0  0  0  0  0  0  0  0  0  0
  140.7700   81.2500  223.0680 C   0  0  0  0  0  0  0  0  0  0  0  0
  140.3744   82.2742  223.0003 H   0  0  0  0  0  0  0  0  0  0  0  0
  139.9240   80.1570  222.8470 C   0  0  0  0  0  0  0  0  0  0  0  0
  138.8621   80.3245  222.6137 H   0  0  0  0  0  0  0  0  0  0  0  0
  140.4260   78.8460  222.9220 C   0  0  0  0  0  0  0  0  0  0  0  0
  139.5140   77.6680  222.7090 C   0  0  0  0  0  0  0  0  0  0  0  0
  139.6925   76.9252  223.5005 H   0  0  0  0  0  0  0  0  0  0  0  0
  138.4714   78.0171  222.7418 H   0  0  0  0  0  0  0  0  0  0  0  0
  139.7750   77.0210  221.3430 C   0  0  0  0  0  0  0  0  0  0  0  0
  139.2286   77.5788  220.5682 H   0  0  0  0  0  0  0  0  0  0  0  0
  140.8555   77.0463  221.1386 H   0  0  0  0  0  0  0  0  0  0  0  0
  139.3260   75.6280  221.3400 N   0  0  0  0  0  0  0  0  0  0  0  0
  140.0550   74.5680  221.5560 C   0  0  0  0  0  0  0  0  0  0  0  0
  141.2460   74.4610  220.9200 N   0  0  0  0  0  0  0  0  0  0  0  0
  142.0470   73.3830  221.1160 C   0  0  0  0  0  0  0  0  0  0  0  0
  143.3210   73.2850  220.4450 N   0  0  0  0  0  0  0  0  0  0  0  0
  143.4600   72.5220  219.1980 C   0  0  0  0  0  0  0  0  0  0  0  0
  142.4678   72.3940  218.7406 H   0  0  0  0  0  0  0  0  0  0  0  0
  143.9026   71.5422  219.4307 H   0  0  0  0  0  0  0  0  0  0  0  0
  144.3770   73.2550  218.2130 C   0  0  0  0  0  0  0  0  0  0  0  0
  144.2032   74.3376  218.3011 H   0  0  0  0  0  0  0  0  0  0  0  0
  144.1445   72.9017  217.1976 H   0  0  0  0  0  0  0  0  0  0  0  0
  145.7970   72.9750  218.4850 N   0  0  0  0  0  0  0  0  0  0  0  0
  146.2960   73.8960  218.4830 H   0  0  0  0  0  0  0  0  0  0  0  0
  145.9990   72.3630  219.8120 C   0  0  0  0  0  0  0  0  0  0  0  0
  147.0341   71.9973  219.8808 H   0  0  0  0  0  0  0  0  0  0  0  0
  145.2784   71.5389  219.9198 H   0  0  0  0  0  0  0  0  0  0  0  0
  145.7480   73.3710  220.9580 C   0  0  0  0  0  0  0  0  0  0  0  0
  146.5803   74.0901  220.9717 H   0  0  0  0  0  0  0  0  0  0  0  0
  145.6745   72.7811  221.8835 H   0  0  0  0  0  0  0  0  0  0  0  0
  144.4330   74.1600  220.8360 C   0  0  0  0  0  0  0  0  0  0  0  0
  144.5555   74.9455  220.0757 H   0  0  0  0  0  0  0  0  0  0  0  0
  144.2001   74.6009  221.8165 H   0  0  0  0  0  0  0  0  0  0  0  0
  141.6440   72.4040  221.9640 N   0  0  0  0  0  0  0  0  0  0  0  0
  140.4530   72.4840  222.6120 C   0  0  0  0  0  0  0  0  0  0  0  0
  140.0510   71.4200  223.5080 N   0  0  0  0  0  0  0  0  0  0  0  0
  140.4370   71.4770  224.9330 C   0  0  0  0  0  0  0  0  0  0  0  0
  139.8206   72.2398  225.4312 H   0  0  0  0  0  0  0  0  0  0  0  0
  141.5091   71.7204  224.9700 H   0  0  0  0  0  0  0  0  0  0  0  0
  140.2520   70.1650  225.6560 C   0  0  0  0  0  0  0  0  0  0  0  0
  140.9590   69.9120  226.8420 C   0  0  0  0  0  0  0  0  0  0  0  0
  141.6837   70.6506  227.2151 H   0  0  0  0  0  0  0  0  0  0  0  0
  140.7470   68.7270  227.5510 C   0  0  0  0  0  0  0  0  0  0  0  0
  141.3142   68.5294  228.4725 H   0  0  0  0  0  0  0  0  0  0  0  0
  139.8170   67.7940  227.0920 C   0  0  0  0  0  0  0  0  0  0  0  0
  139.6511   66.8621  227.6524 H   0  0  0  0  0  0  0  0  0  0  0  0
  139.0960   68.0420  225.9210 C   0  0  0  0  0  0  0  0  0  0  0  0
  138.3562   67.3093  225.5662 H   0  0  0  0  0  0  0  0  0  0  0  0
  139.3140   69.2240  225.1970 C   0  0  0  0  0  0  0  0  0  0  0  0
  138.5100   69.5310  223.9720 C   0  0  0  0  0  0  0  0  0  0  0  0
  137.6681   70.1852  224.2428 H   0  0  0  0  0  0  0  0  0  0  0  0
  138.1288   68.5919  223.5444 H   0  0  0  0  0  0  0  0  0  0  0  0
  139.3860   70.2350  222.9380 C   0  0  0  0  0  0  0  0  0  0  0  0
  138.7570   70.5506  222.0926 H   0  0  0  0  0  0  0  0  0  0  0  0
  140.1629   69.5298  222.6075 H   0  0  0  0  0  0  0  0  0  0  0  0
  139.6520   73.5690  222.4000 N   0  0  0  0  0  0  0  0  0  0  0  0
  138.7250   73.6170  222.8710 H   0  0  0  0  0  0  0  0  0  0  0  0
  141.7780   78.6440  223.2450 C   0  0  0  0  0  0  0  0  0  0  0  0
  142.1753   77.6214  223.3252 H   0  0  0  0  0  0  0  0  0  0  0  0
  142.6210   79.7380  223.4650 C   0  0  0  0  0  0  0  0  0  0  0  0
  143.6809   79.5739  223.7093 H   0  0  0  0  0  0  0  0  0  0  0  0
  1  2  1  0
  2  3  2  0
  3  4  1  0
  3  5  1  0
  5  6  1  0
  5  7  2  0
  7  8  1  0
  8  9  1  0
  8 10  1  0
  8 11  1  0
 11 12  1  0
 11 13  1  0
 11 14  1  0
 14 15  2  0
 15 16  1  0
 16 17  2  0
 17 18  1  0
 18 19  1  0
 19 20  1  0
 19 21  1  0
 19 22  1  0
 22 23  1  0
 22 24  1  0
 22 25  1  0
 25 26  1  0
 25 27  1  0
 27 28  1  0
 27 29  1  0
 27 30  1  0
 30 31  1  0
 30 32  1  0
 30 33  1  0
 33 34  1  0
 33 35  1  0
 17 36  1  0
 36 37  2  0
 37 38  1  0
 38 39  1  0
 39 40  1  0
 39 41  1  0
 39 42  1  0
 42 43  2  0
 43 44  1  0
 43 45  1  0
 45 46  1  0
 45 47  2  0
 47 48  1  0
 47 49  1  0
 49 50  1  0
 49 51  2  0
 51 52  1  0
 52 53  1  0
 52 54  1  0
 52 55  1  0
 55 56  1  0
 55 57  1  0
 37 58  1  0
 58 59  1  0
  7 60  1  0
 60 61  1  0
 60 62  2  0
 62 63  1  0
 62  2  1  0
 58 15  1  0
 33 18  1  0
 55 38  1  0
 51 42  1  0
M  END
>  <UniqueID>  (25) 
710

>  <SMILES>  (25) 
c1ccc(CC/N=c2/nc(N3CCCNCC3)nc(N3CCc4ccccc4C3)[nH]2)cc1

>  <Energy>  (25) 
71.07950677063752

>  <Genealogy>  (25) 
c1ccc(CCN=c2nc(N3CCCNCC3)nc(N3CCc4ccccc4C3)[nH]2)cc1 (tautomer)
c1ccc(CC/N=c2/nc(N3CCCNCC3)nc(N3CCc4ccccc4C3)[nH]2)cc1 (cis-trans isomerization)
c1ccc(CC/N=c2/nc(N3CCCNCC3)nc(N3CCc4ccccc4C3)[nH]2)cc1 (3D coordinates assigned)
c1ccc(CC/N=c2/nc(N3CCCNCC3)nc(N3CCc4ccccc4C3)[nH]2)cc1 (nonaromatic ring conformer: 71.07950677063752 kcal/mol)

>  <smiles>  (25) 
c1ccc(CCNc2nc(N3CCCNCC3)nc(N3CCc4ccccc4C3)n2)cc1

>  <score_type>  (25) 
oracle

>  <origin>  (25) 
autodockgpu

>  <m_score__min__energy>  (25) 
-8.0399999999999991

>  <m_primary>  (25) 
energy

>  <meeko>  (25) 
{"free_energy": -8.04, "intermolecular_energy": -11.62, "internal_energy": -0.88, "cluster_size": 19, "cluster_id": 1, "rank_in_cluster": 1}

>  <energy>  (25) 
-7.78

>  <cluster_rmsd>  (25) 
1.39

>  <rmsd>  (25) 
272.7

>  <cluster>  (25) 
1

$$$$
IBHRIKXMMSCQIV-SCYGCCLLNA-N
     RDKit          3D

 63 67  0  0  0  0  0  0  0  0999 V2000
  142.9455   81.7679  223.7930 H   0  0  0  0  0  0  0  0  0  0  0  0
  142.2470   80.9510  223.5590 C   0  0  0  0  0  0  0  0  0  0  0  0
  142.7280   79.7480  223.0310 C   0  0  0  0  0  0  0  0  0  0  0  0
  143.8051   79.6204  222.8476 H   0  0  0  0  0  0  0  0  0  0  0  0
  141.8410   78.7070  222.7360 C   0  0  0  0  0  0  0  0  0  0  0  0
  142.2219   77.7656  222.3132 H   0  0  0  0  0  0  0  0  0  0  0  0
  140.4650   78.8600  222.9780 C   0  0  0  0  0  0  0  0  0  0  0  0
  139.5040   77.7510  222.6410 C   0  0  0  0  0  0  0  0  0  0  0  0
  139.4876   77.0240  223.4664 H   0  0  0  0  0  0  0  0  0  0  0  0
  138.5031   78.1826  222.4932 H   0  0  0  0  0  0  0  0  0  0  0  0
  139.9300   77.0390  221.3510 C   0  0  0  0  0  0  0  0  0  0  0  0
  139.5254   77.5849  220.4859 H   0  0  0  0  0  0  0  0  0  0  0  0
  141.0288   77.0148  221.3048 H   0  0  0  0  0  0  0  0  0  0  0  0
  139.4260   75.6660  221.3320 N   0  0  0  0  0  0  0  0  0  0  0  0
  140.1130   74.5740  221.5260 C   0  0  0  0  0  0  0  0  0  0  0  0
  141.2840   74.4210  220.8630 N   0  0  0  0  0  0  0  0  0  0  0  0
  142.0420   73.3080  221.0350 C   0  0  0  0  0  0  0  0  0  0  0  0
  143.2960   73.1600  220.3360 N   0  0  0  0  0  0  0  0  0  0  0  0
  143.6420   74.0410  219.2130 C   0  0  0  0  0  0  0  0  0  0  0  0
  144.3161   74.8334  219.5705 H   0  0  0  0  0  0  0  0  0  0  0  0
  142.7169   74.4788  218.8099 H   0  0  0  0  0  0  0  0  0  0  0  0
  144.3390   73.2530  218.0990 C   0  0  0  0  0  0  0  0  0  0  0  0
  144.4111   73.8879  217.2036 H   0  0  0  0  0  0  0  0  0  0  0  0
  143.7458   72.3499  217.8926 H   0  0  0  0  0  0  0  0  0  0  0  0
  145.6940   72.8340  218.4990 N   0  0  0  0  0  0  0  0  0  0  0  0
  146.3230   73.0100  217.6800 H   0  0  0  0  0  0  0  0  0  0  0  0
  146.2080   73.6250  219.6340 C   0  0  0  0  0  0  0  0  0  0  0  0
  145.8833   74.6694  219.5163 H   0  0  0  0  0  0  0  0  0  0  0  0
  147.3054   73.5499  219.6341 H   0  0  0  0  0  0  0  0  0  0  0  0
  145.6910   73.0910  220.9840 C   0  0  0  0  0  0  0  0  0  0  0  0
  145.5484   73.9466  221.6605 H   0  0  0  0  0  0  0  0  0  0  0  0
  146.4443   72.3770  221.3484 H   0  0  0  0  0  0  0  0  0  0  0  0
  144.3630   72.3210  220.8960 C   0  0  0  0  0  0  0  0  0  0  0  0
  144.0703   71.9950  221.9050 H   0  0  0  0  0  0  0  0  0  0  0  0
  144.5072   71.4546  220.2337 H   0  0  0  0  0  0  0  0  0  0  0  0
  141.6170   72.3420  221.8860 N   0  0  0  0  0  0  0  0  0  0  0  0
  140.4440   72.4680  222.5600 C   0  0  0  0  0  0  0  0  0  0  0  0
  140.0180   71.4170  223.4590 N   0  0  0  0  0  0  0  0  0  0  0  0
  140.3860   71.4790  224.8880 C   0  0  0  0  0  0  0  0  0  0  0  0
  139.7737   72.2538  225.3724 H   0  0  0  0  0  0  0  0  0  0  0  0
  141.4609   71.7076  224.9369 H   0  0  0  0  0  0  0  0  0  0  0  0
  140.1740   70.1750  225.6190 C   0  0  0  0  0  0  0  0  0  0  0  0
  140.8630   69.9210  226.8150 C   0  0  0  0  0  0  0  0  0  0  0  0
  141.5937   70.6521  227.1913 H   0  0  0  0  0  0  0  0  0  0  0  0
  140.6260   68.7450  227.5300 C   0  0  0  0  0  0  0  0  0  0  0  0
  141.1790   68.5473  228.4601 H   0  0  0  0  0  0  0  0  0  0  0  0
  139.6890   67.8200  227.0670 C   0  0  0  0  0  0  0  0  0  0  0  0
  139.5038   66.8946  227.6321 H   0  0  0  0  0  0  0  0  0  0  0  0
  138.9860   68.0700  225.8850 C   0  0  0  0  0  0  0  0  0  0  0  0
  138.2404   67.3451  225.5263 H   0  0  0  0  0  0  0  0  0  0  0  0
  139.2290   69.2430  225.1550 C   0  0  0  0  0  0  0  0  0  0  0  0
  138.4450   69.5510  223.9170 C   0  0  0  0  0  0  0  0  0  0  0  0
  137.6082   70.2180  224.1717 H   0  0  0  0  0  0  0  0  0  0  0  0
  138.0572   68.6137  223.4915 H   0  0  0  0  0  0  0  0  0  0  0  0
  139.3440   70.2360  222.8890 C   0  0  0  0  0  0  0  0  0  0  0  0
  138.7301   70.5536  222.0333 H   0  0  0  0  0  0  0  0  0  0  0  0
  140.1156   69.5181  222.5739 H   0  0  0  0  0  0  0  0  0  0  0  0
  139.6860   73.5880  222.3720 N   0  0  0  0  0  0  0  0  0  0  0  0
  138.7730   73.6720  222.8640 H   0  0  0  0  0  0  0  0  0  0  0  0
  139.9870   80.0760  223.4960 C   0  0  0  0  0  0  0  0  0  0  0  0
  138.9096   80.2115  223.6715 H   0  0  0  0  0  0  0  0  0  0  0  0
  140.8770   81.1140  223.7890 C   0  0  0  0  0  0  0  0  0  0  0  0
  140.4988   82.0610  224.2014 H   0  0  0  0  0  0  0  0  0  0  0  0
  1  2  1  0
  2  3  2  0
  3  4  1  0
  3  5  1  0
  5  6  1  0
  5  7  2  0
  7  8  1  0
  8  9  1  0
  8 10  1  0
  8 11  1  0
 11 12  1  0
 11 13  1  0
 11 14  1  0
 14 15  2  0
 15 16  1  0
 16 17  2  0
 17 18  1  0
 18 19  1  0
 19 20  1  0
 19 21  1  0
 19 22  1  0
 22 23  1  0
 22 24  1  0
 22 25  1  0
 25 26  1  0
 25 27  1  0
 27 28  1  0
 27 29  1  0
 27 30  1  0
 30 31  1  0
 30 32  1  0
 30 33  1  0
 33 34  1  0
 33 35  1  0
 17 36  1  0
 36 37  2  0
 37 38  1  0
 38 39  1  0
 39 40  1  0
 39 41  1  0
 39 42  1  0
 42 43  2  0
 43 44  1  0
 43 45  1  0
 45 46  1  0
 45 47  2  0
 47 48  1  0
 47 49  1  0
 49 50  1  0
 49 51  2  0
 51 52  1  0
 52 53  1  0
 52 54  1  0
 52 55  1  0
 55 56  1  0
 55 57  1  0
 37 58  1  0
 58 59  1  0
  7 60  1  0
 60 61  1  0
 60 62  2  0
 62 63  1  0
 62  2  1  0
 58 15  1  0
 33 18  1  0
 55 38  1  0
 51 42  1  0
M  END
>  <UniqueID>  (26) 
710

>  <SMILES>  (26) 
c1ccc(CC/N=c2/nc(N3CCCNCC3)nc(N3CCc4ccccc4C3)[nH]2)cc1

>  <Energy>  (26) 
71.07950677063752

>  <Genealogy>  (26) 
c1ccc(CCN=c2nc(N3CCCNCC3)nc(N3CCc4ccccc4C3)[nH]2)cc1 (tautomer)
c1ccc(CC/N=c2/nc(N3CCCNCC3)nc(N3CCc4ccccc4C3)[nH]2)cc1 (cis-trans isomerization)
c1ccc(CC/N=c2/nc(N3CCCNCC3)nc(N3CCc4ccccc4C3)[nH]2)cc1 (3D coordinates assigned)
c1ccc(CC/N=c2/nc(N3CCCNCC3)nc(N3CCc4ccccc4C3)[nH]2)cc1 (nonaromatic ring conformer: 71.07950677063752 kcal/mol)

>  <smiles>  (26) 
c1ccc(CCNc2nc(N3CCCNCC3)nc(N3CCc4ccccc4C3)n2)cc1

>  <score_type>  (26) 
oracle

>  <origin>  (26) 
autodockgpu

>  <m_score__min__energy>  (26) 
-8.0399999999999991

>  <m_primary>  (26) 
energy

>  <meeko>  (26) 
{"free_energy": -7.73, "intermolecular_energy": -11.31, "internal_energy": -0.87, "cluster_size": 19, "cluster_id": 1, "rank_in_cluster": 8}

>  <energy>  (26) 
-7.76

>  <cluster_rmsd>  (26) 
1.19

>  <rmsd>  (26) 
272.67

>  <cluster>  (26) 
1

$$$$
IBHRIKXMMSCQIV-SCYGCCLLNA-N
     RDKit          3D

 63 67  0  0  0  0  0  0  0  0999 V2000
  141.0859   71.7814  229.3164 H   0  0  0  0  0  0  0  0  0  0  0  0
  140.8550   71.4570  228.2910 C   0  0  0  0  0  0  0  0  0  0  0  0
  141.2690   72.2310  227.2020 C   0  0  0  0  0  0  0  0  0  0  0  0
  141.8240   73.1655  227.3716 H   0  0  0  0  0  0  0  0  0  0  0  0
  140.9780   71.8180  225.8970 C   0  0  0  0  0  0  0  0  0  0  0  0
  141.2972   72.4335  225.0431 H   0  0  0  0  0  0  0  0  0  0  0  0
  140.2790   70.6190  225.6740 C   0  0  0  0  0  0  0  0  0  0  0  0
  139.9440   70.1830  224.2730 C   0  0  0  0  0  0  0  0  0  0  0  0
  140.7396   70.5174  223.5909 H   0  0  0  0  0  0  0  0  0  0  0  0
  139.8610   69.0863  224.2544 H   0  0  0  0  0  0  0  0  0  0  0  0
  138.6080   70.7860  223.8220 C   0  0  0  0  0  0  0  0  0  0  0  0
  137.8441   69.9949  223.7972 H   0  0  0  0  0  0  0  0  0  0  0  0
  138.3162   71.5738  224.5322 H   0  0  0  0  0  0  0  0  0  0  0  0
  138.7340   71.3750  222.4890 N   0  0  0  0  0  0  0  0  0  0  0  0
  139.5540   72.3210  222.1220 C   0  0  0  0  0  0  0  0  0  0  0  0
  140.6900   71.9740  221.4710 N   0  0  0  0  0  0  0  0  0  0  0  0
  141.5740   72.9180  221.0590 C   0  0  0  0  0  0  0  0  0  0  0  0
  142.7740   72.5410  220.3530 N   0  0  0  0  0  0  0  0  0  0  0  0
  143.9460   72.0310  221.0760 C   0  0  0  0  0  0  0  0  0  0  0  0
  144.1971   71.0299  220.6956 H   0  0  0  0  0  0  0  0  0  0  0  0
  143.7061   71.9835  222.1485 H   0  0  0  0  0  0  0  0  0  0  0  0
  145.1500   72.9590  220.8820 C   0  0  0  0  0  0  0  0  0  0  0  0
  145.7554   72.9555  221.8004 H   0  0  0  0  0  0  0  0  0  0  0  0
  144.7746   73.9696  220.6636 H   0  0  0  0  0  0  0  0  0  0  0  0
  145.9910   72.5250  219.7530 N   0  0  0  0  0  0  0  0  0  0  0  0
  146.1980   71.5080  219.8990 H   0  0  0  0  0  0  0  0  0  0  0  0
  145.2960   72.6570  218.4590 C   0  0  0  0  0  0  0  0  0  0  0  0
  145.9910   72.3832  217.6515 H   0  0  0  0  0  0  0  0  0  0  0  0
  144.9612   73.6996  218.3543 H   0  0  0  0  0  0  0  0  0  0  0  0
  144.0560   71.7440  218.3820 C   0  0  0  0  0  0  0  0  0  0  0  0
  144.2508   70.8458  218.9864 H   0  0  0  0  0  0  0  0  0  0  0  0
  143.8973   71.5152  217.3178 H   0  0  0  0  0  0  0  0  0  0  0  0
  142.7600   72.3970  218.8920 C   0  0  0  0  0  0  0  0  0  0  0  0
  141.9044   71.7694  218.6020 H   0  0  0  0  0  0  0  0  0  0  0  0
  142.6770   73.3988  218.4453 H   0  0  0  0  0  0  0  0  0  0  0  0
  141.3070   74.2260  221.3040 N   0  0  0  0  0  0  0  0  0  0  0  0
  140.1780   74.6000  221.9590 C   0  0  0  0  0  0  0  0  0  0  0  0
  139.9260   76.0040  222.2080 N   0  0  0  0  0  0  0  0  0  0  0  0
  141.0260   76.9820  222.0730 C   0  0  0  0  0  0  0  0  0  0  0  0
  141.2360   77.1253  221.0028 H   0  0  0  0  0  0  0  0  0  0  0  0
  141.8920   76.5743  222.6151 H   0  0  0  0  0  0  0  0  0  0  0  0
  140.7100   78.3260  222.6830 C   0  0  0  0  0  0  0  0  0  0  0  0
  141.7520   79.1960  223.0400 C   0  0  0  0  0  0  0  0  0  0  0  0
  142.7975   78.8755  222.9208 H   0  0  0  0  0  0  0  0  0  0  0  0
  141.4680   80.4670  223.5460 C   0  0  0  0  0  0  0  0  0  0  0  0
  142.2894   81.1391  223.8352 H   0  0  0  0  0  0  0  0  0  0  0  0
  140.1440   80.8850  223.6850 C   0  0  0  0  0  0  0  0  0  0  0  0
  139.9227   81.8860  224.0838 H   0  0  0  0  0  0  0  0  0  0  0  0
  139.0990   80.0330  223.3180 C   0  0  0  0  0  0  0  0  0  0  0  0
  138.0562   80.3685  223.4183 H   0  0  0  0  0  0  0  0  0  0  0  0
  139.3770   78.7510  222.8220 C   0  0  0  0  0  0  0  0  0  0  0  0
  138.2710   77.8470  222.3720 C   0  0  0  0  0  0  0  0  0  0  0  0
  138.1485   77.9349  221.2824 H   0  0  0  0  0  0  0  0  0  0  0  0
  137.3375   78.1382  222.8757 H   0  0  0  0  0  0  0  0  0  0  0  0
  138.6050   76.4000  222.7290 C   0  0  0  0  0  0  0  0  0  0  0  0
  137.8384   75.7397  222.2974 H   0  0  0  0  0  0  0  0  0  0  0  0
  138.6269   76.3122  223.8253 H   0  0  0  0  0  0  0  0  0  0  0  0
  139.3010   73.6410  222.3760 N   0  0  0  0  0  0  0  0  0  0  0  0
  138.4510   73.9240  222.9050 H   0  0  0  0  0  0  0  0  0  0  0  0
  139.8550   69.8540  226.7730 C   0  0  0  0  0  0  0  0  0  0  0  0
  139.2910   68.9240  226.6084 H   0  0  0  0  0  0  0  0  0  0  0  0
  140.1470   70.2700  228.0750 C   0  0  0  0  0  0  0  0  0  0  0  0
  139.8194   69.6627  228.9317 H   0  0  0  0  0  0  0  0  0  0  0  0
  1  2  1  0
  2  3  2  0
  3  4  1  0
  3  5  1  0
  5  6  1  0
  5  7  2  0
  7  8  1  0
  8  9  1  0
  8 10  1  0
  8 11  1  0
 11 12  1  0
 11 13  1  0
 11 14  1  0
 14 15  2  0
 15 16  1  0
 16 17  2  0
 17 18  1  0
 18 19  1  0
 19 20  1  0
 19 21  1  0
 19 22  1  0
 22 23  1  0
 22 24  1  0
 22 25  1  0
 25 26  1  0
 25 27  1  0
 27 28  1  0
 27 29  1  0
 27 30  1  0
 30 31  1  0
 30 32  1  0
 30 33  1  0
 33 34  1  0
 33 35  1  0
 17 36  1  0
 36 37  2  0
 37 38  1  0
 38 39  1  0
 39 40  1  0
 39 41  1  0
 39 42  1  0
 42 43  2  0
 43 44  1  0
 43 45  1  0
 45 46  1  0
 45 47  2  0
 47 48  1  0
 47 49  1  0
 49 50  1  0
 49 51  2  0
 51 52  1  0
 52 53  1  0
 52 54  1  0
 52 55  1  0
 55 56  1  0
 55 57  1  0
 37 58  1  0
 58 59  1  0
  7 60  1  0
 60 61  1  0
 60 62  2  0
 62 63  1  0
 62  2  1  0
 58 15  1  0
 33 18  1  0
 55 38  1  0
 51 42  1  0
M  END
>  <UniqueID>  (27) 
710

>  <SMILES>  (27) 
c1ccc(CC/N=c2/nc(N3CCCNCC3)nc(N3CCc4ccccc4C3)[nH]2)cc1

>  <Energy>  (27) 
71.07950677063752

>  <Genealogy>  (27) 
c1ccc(CCN=c2nc(N3CCCNCC3)nc(N3CCc4ccccc4C3)[nH]2)cc1 (tautomer)
c1ccc(CC/N=c2/nc(N3CCCNCC3)nc(N3CCc4ccccc4C3)[nH]2)cc1 (cis-trans isomerization)
c1ccc(CC/N=c2/nc(N3CCCNCC3)nc(N3CCc4ccccc4C3)[nH]2)cc1 (3D coordinates assigned)
c1ccc(CC/N=c2/nc(N3CCCNCC3)nc(N3CCc4ccccc4C3)[nH]2)cc1 (nonaromatic ring conformer: 71.07950677063752 kcal/mol)

>  <smiles>  (27) 
c1ccc(CCNc2nc(N3CCCNCC3)nc(N3CCc4ccccc4C3)n2)cc1

>  <score_type>  (27) 
oracle

>  <origin>  (27) 
autodockgpu

>  <m_score__min__energy>  (27) 
-8.0399999999999991

>  <m_primary>  (27) 
energy

>  <meeko>  (27) 
{"free_energy": -7.48, "intermolecular_energy": -11.06, "internal_energy": -1.06, "cluster_size": 19, "cluster_id": 1, "rank_in_cluster": 11}

>  <energy>  (27) 
-7.76

>  <cluster_rmsd>  (27) 
1.05

>  <rmsd>  (27) 
272.73

>  <cluster>  (27) 
1

$$$$
IBHRIKXMMSCQIV-SCYGCCLLNA-N
     RDKit          3D

 63 67  0  0  0  0  0  0  0  0999 V2000
  140.6636   69.6475  229.4017 H   0  0  0  0  0  0  0  0  0  0  0  0
  140.6330   69.9780  228.3530 C   0  0  0  0  0  0  0  0  0  0  0  0
  140.3160   69.0660  227.3410 C   0  0  0  0  0  0  0  0  0  0  0  0
  140.0988   68.0178  227.5941 H   0  0  0  0  0  0  0  0  0  0  0  0
  140.2750   69.4860  226.0070 C   0  0  0  0  0  0  0  0  0  0  0  0
  140.0345   68.7642  225.2125 H   0  0  0  0  0  0  0  0  0  0  0  0
  140.5400   70.8270  225.6780 C   0  0  0  0  0  0  0  0  0  0  0  0
  140.5190   71.2780  224.2420 C   0  0  0  0  0  0  0  0  0  0  0  0
  140.7543   72.3516  224.1973 H   0  0  0  0  0  0  0  0  0  0  0  0
  141.2662   70.6996  223.6788 H   0  0  0  0  0  0  0  0  0  0  0  0
  139.1390   71.0390  223.6190 C   0  0  0  0  0  0  0  0  0  0  0  0
  139.0484   69.9799  223.3360 H   0  0  0  0  0  0  0  0  0  0  0  0
  138.3662   71.3028  224.3560 H   0  0  0  0  0  0  0  0  0  0  0  0
  138.9610   71.8720  222.4290 N   0  0  0  0  0  0  0  0  0  0  0  0
  139.7680   72.8000  221.9920 C   0  0  0  0  0  0  0  0  0  0  0  0
  140.8090   72.4330  221.2060 N   0  0  0  0  0  0  0  0  0  0  0  0
  141.6730   73.3590  220.7180 C   0  0  0  0  0  0  0  0  0  0  0  0
  142.7700   72.9610  219.8690 N   0  0  0  0  0  0  0  0  0  0  0  0
  143.8680   73.8900  219.5720 C   0  0  0  0  0  0  0  0  0  0  0  0
  143.6049   74.8906  219.9456 H   0  0  0  0  0  0  0  0  0  0  0  0
  144.0228   73.9164  218.4833 H   0  0  0  0  0  0  0  0  0  0  0  0
  145.1670   73.4290  220.2420 C   0  0  0  0  0  0  0  0  0  0  0  0
  144.9178   72.8252  221.1270 H   0  0  0  0  0  0  0  0  0  0  0  0
  145.7440   74.3214  220.5262 H   0  0  0  0  0  0  0  0  0  0  0  0
  145.9900   72.6190  219.3260 N   0  0  0  0  0  0  0  0  0  0  0  0
  146.9570   72.5910  219.7280 H   0  0  0  0  0  0  0  0  0  0  0  0
  145.5080   71.2280  219.2290 C   0  0  0  0  0  0  0  0  0  0  0  0
  146.3085   70.5499  219.5598 H   0  0  0  0  0  0  0  0  0  0  0  0
  145.2328   71.0338  218.1818 H   0  0  0  0  0  0  0  0  0  0  0  0
  144.2620   70.9920  220.1030 C   0  0  0  0  0  0  0  0  0  0  0  0
  144.4303   71.4712  221.0787 H   0  0  0  0  0  0  0  0  0  0  0  0
  144.1323   69.9022  220.1772 H   0  0  0  0  0  0  0  0  0  0  0  0
  142.9570   71.5500  219.5120 C   0  0  0  0  0  0  0  0  0  0  0  0
  142.1094   70.9667  219.9010 H   0  0  0  0  0  0  0  0  0  0  0  0
  143.0119   71.4737  218.4160 H   0  0  0  0  0  0  0  0  0  0  0  0
  141.4830   74.6670  221.0220 N   0  0  0  0  0  0  0  0  0  0  0  0
  140.4500   75.0610  221.8110 C   0  0  0  0  0  0  0  0  0  0  0  0
  140.2790   76.4650  222.1190 N   0  0  0  0  0  0  0  0  0  0  0  0
  141.4080   77.4000  221.9330 C   0  0  0  0  0  0  0  0  0  0  0  0
  141.5469   77.5687  220.8549 H   0  0  0  0  0  0  0  0  0  0  0  0
  142.2913   76.9391  222.3991 H   0  0  0  0  0  0  0  0  0  0  0  0
  141.1970   78.7360  222.6030 C   0  0  0  0  0  0  0  0  0  0  0  0
  142.2990   79.5490  222.9090 C   0  0  0  0  0  0  0  0  0  0  0  0
  143.3182   79.1890  222.7048 H   0  0  0  0  0  0  0  0  0  0  0  0
  142.1080   80.8140  223.4720 C   0  0  0  0  0  0  0  0  0  0  0  0
  142.9768   81.4415  223.7199 H   0  0  0  0  0  0  0  0  0  0  0  0
  140.8180   81.2820  223.7200 C   0  0  0  0  0  0  0  0  0  0  0  0
  140.6704   82.2779  224.1632 H   0  0  0  0  0  0  0  0  0  0  0  0
  139.7130   80.4870  223.4060 C   0  0  0  0  0  0  0  0  0  0  0  0
  138.6960   80.8619  223.5934 H   0  0  0  0  0  0  0  0  0  0  0  0
  139.8980   79.2110  222.8520 C   0  0  0  0  0  0  0  0  0  0  0  0
  138.7230   78.3690  222.4580 C   0  0  0  0  0  0  0  0  0  0  0  0
  138.5258   78.4978  221.3835 H   0  0  0  0  0  0  0  0  0  0  0  0
  137.8421   78.6822  223.0376 H   0  0  0  0  0  0  0  0  0  0  0  0
  139.0180   76.8990  222.7460 C   0  0  0  0  0  0  0  0  0  0  0  0
  138.1941   76.2859  222.3520 H   0  0  0  0  0  0  0  0  0  0  0  0
  139.1149   76.7748  223.8347 H   0  0  0  0  0  0  0  0  0  0  0  0
  139.5930   74.1200  222.3040 N   0  0  0  0  0  0  0  0  0  0  0  0
  138.8200   74.4170  222.9330 H   0  0  0  0  0  0  0  0  0  0  0  0
  140.8700   71.7340  226.6990 C   0  0  0  0  0  0  0  0  0  0  0  0
  141.0969   72.7811  226.4498 H   0  0  0  0  0  0  0  0  0  0  0  0
  140.9110   71.3100  228.0310 C   0  0  0  0  0  0  0  0  0  0  0  0
  141.1625   72.0260  228.8273 H   0  0  0  0  0  0  0  0  0  0  0  0
  1  2  1  0
  2  3  2  0
  3  4  1  0
  3  5  1  0
  5  6  1  0
  5  7  2  0
  7  8  1  0
  8  9  1  0
  8 10  1  0
  8 11  1  0
 11 12  1  0
 11 13  1  0
 11 14  1  0
 14 15  2  0
 15 16  1  0
 16 17  2  0
 17 18  1  0
 18 19  1  0
 19 20  1  0
 19 21  1  0
 19 22  1  0
 22 23  1  0
 22 24  1  0
 22 25  1  0
 25 26  1  0
 25 27  1  0
 27 28  1  0
 27 29  1  0
 27 30  1  0
 30 31  1  0
 30 32  1  0
 30 33  1  0
 33 34  1  0
 33 35  1  0
 17 36  1  0
 36 37  2  0
 37 38  1  0
 38 39  1  0
 39 40  1  0
 39 41  1  0
 39 42  1  0
 42 43  2  0
 43 44  1  0
 43 45  1  0
 45 46  1  0
 45 47  2  0
 47 48  1  0
 47 49  1  0
 49 50  1  0
 49 51  2  0
 51 52  1  0
 52 53  1  0
 52 54  1  0
 52 55  1  0
 55 56  1  0
 55 57  1  0
 37 58  1  0
 58 59  1  0
  7 60  1  0
 60 61  1  0
 60 62  2  0
 62 63  1  0
 62  2  1  0
 58 15  1  0
 33 18  1  0
 55 38  1  0
 51 42  1  0
M  END
>  <UniqueID>  (28) 
710

>  <SMILES>  (28) 
c1ccc(CC/N=c2/nc(N3CCCNCC3)nc(N3CCc4ccccc4C3)[nH]2)cc1

>  <Energy>  (28) 
71.07950677063752

>  <Genealogy>  (28) 
c1ccc(CCN=c2nc(N3CCCNCC3)nc(N3CCc4ccccc4C3)[nH]2)cc1 (tautomer)
c1ccc(CC/N=c2/nc(N3CCCNCC3)nc(N3CCc4ccccc4C3)[nH]2)cc1 (cis-trans isomerization)
c1ccc(CC/N=c2/nc(N3CCCNCC3)nc(N3CCc4ccccc4C3)[nH]2)cc1 (3D coordinates assigned)
c1ccc(CC/N=c2/nc(N3CCCNCC3)nc(N3CCc4ccccc4C3)[nH]2)cc1 (nonaromatic ring conformer: 71.07950677063752 kcal/mol)

>  <smiles>  (28) 
c1ccc(CCNc2nc(N3CCCNCC3)nc(N3CCc4ccccc4C3)n2)cc1

>  <score_type>  (28) 
oracle

>  <origin>  (28) 
autodockgpu

>  <m_score__min__energy>  (28) 
-8.0399999999999991

>  <m_primary>  (28) 
energy

>  <meeko>  (28) 
{"free_energy": -7.9, "intermolecular_energy": -11.48, "internal_energy": -0.97, "cluster_size": 19, "cluster_id": 1, "rank_in_cluster": 3}

>  <energy>  (28) 
-7.73

>  <cluster_rmsd>  (28) 
0.58

>  <rmsd>  (28) 
272.75

>  <cluster>  (28) 
1

$$$$
IBHRIKXMMSCQIV-SCYGCCLLNA-N
     RDKit          3D

 63 67  0  0  0  0  0  0  0  0999 V2000
  142.9214   81.9569  224.4162 H   0  0  0  0  0  0  0  0  0  0  0  0
  142.4050   81.1840  223.8280 C   0  0  0  0  0  0  0  0  0  0  0  0
  143.1460   80.2230  223.1320 C   0  0  0  0  0  0  0  0  0  0  0  0
  144.2452   80.2423  223.1703 H   0  0  0  0  0  0  0  0  0  0  0  0
  142.4890   79.2370  222.3870 C   0  0  0  0  0  0  0  0  0  0  0  0
  143.0739   78.4867  221.8347 H   0  0  0  0  0  0  0  0  0  0  0  0
  141.0850   79.2020  222.3420 C   0  0  0  0  0  0  0  0  0  0  0  0
  140.3750   78.1580  221.5220 C   0  0  0  0  0  0  0  0  0  0  0  0
  139.4274   78.5744  221.1495 H   0  0  0  0  0  0  0  0  0  0  0  0
  141.0220   77.8690  220.6806 H   0  0  0  0  0  0  0  0  0  0  0  0
  140.0800   76.9130  222.3670 C   0  0  0  0  0  0  0  0  0  0  0  0
  140.9694   76.6617  222.9635 H   0  0  0  0  0  0  0  0  0  0  0  0
  139.2269   77.1265  223.0278 H   0  0  0  0  0  0  0  0  0  0  0  0
  139.7400   75.7780  221.5090 N   0  0  0  0  0  0  0  0  0  0  0  0
  140.2810   74.5910  221.5250 C   0  0  0  0  0  0  0  0  0  0  0  0
  141.2660   74.3180  220.6360 N   0  0  0  0  0  0  0  0  0  0  0  0
  141.8690   73.1020  220.6160 C   0  0  0  0  0  0  0  0  0  0  0  0
  142.9280   72.8240  219.6760 N   0  0  0  0  0  0  0  0  0  0  0  0
  143.9600   73.8270  219.3860 C   0  0  0  0  0  0  0  0  0  0  0  0
  143.4775   74.7986  219.2041 H   0  0  0  0  0  0  0  0  0  0  0  0
  144.5230   73.5065  218.4970 H   0  0  0  0  0  0  0  0  0  0  0  0
  144.9340   73.9620  220.5620 C   0  0  0  0  0  0  0  0  0  0  0  0
  144.3580   74.0387  221.4960 H   0  0  0  0  0  0  0  0  0  0  0  0
  145.5442   74.8633  220.4027 H   0  0  0  0  0  0  0  0  0  0  0  0
  145.8380   72.8020  220.6510 N   0  0  0  0  0  0  0  0  0  0  0  0
  145.5660   72.2680  221.5110 H   0  0  0  0  0  0  0  0  0  0  0  0
  145.6930   71.8940  219.4980 C   0  0  0  0  0  0  0  0  0  0  0  0
  146.6215   71.3159  219.3807 H   0  0  0  0  0  0  0  0  0  0  0  0
  145.4923   72.5039  218.6048 H   0  0  0  0  0  0  0  0  0  0  0  0
  144.5150   70.9150  219.6860 C   0  0  0  0  0  0  0  0  0  0  0  0
  144.4299   70.6807  220.7574 H   0  0  0  0  0  0  0  0  0  0  0  0
  144.7396   70.0314  219.0706 H   0  0  0  0  0  0  0  0  0  0  0  0
  143.1580   71.4540  219.2020 C   0  0  0  0  0  0  0  0  0  0  0  0
  142.3573   70.8036  219.5840 H   0  0  0  0  0  0  0  0  0  0  0  0
  143.1607   71.4633  218.1020 H   0  0  0  0  0  0  0  0  0  0  0  0
  141.4770   72.1530  221.5030 N   0  0  0  0  0  0  0  0  0  0  0  0
  140.4890   72.4000  222.4020 C   0  0  0  0  0  0  0  0  0  0  0  0
  140.0920   71.3640  223.3320 N   0  0  0  0  0  0  0  0  0  0  0  0
  140.3540   71.5360  224.7760 C   0  0  0  0  0  0  0  0  0  0  0  0
  139.6461   72.2784  225.1732 H   0  0  0  0  0  0  0  0  0  0  0  0
  141.3993   71.8622  224.8807 H   0  0  0  0  0  0  0  0  0  0  0  0
  140.2030   70.2590  225.5670 C   0  0  0  0  0  0  0  0  0  0  0  0
  140.8270   70.1320  226.8190 C   0  0  0  0  0  0  0  0  0  0  0  0
  141.4646   70.9445  227.1975 H   0  0  0  0  0  0  0  0  0  0  0  0
  140.6420   68.9790  227.5860 C   0  0  0  0  0  0  0  0  0  0  0  0
  141.1439   68.8810  228.5599 H   0  0  0  0  0  0  0  0  0  0  0  0
  139.8220   67.9520  227.1190 C   0  0  0  0  0  0  0  0  0  0  0  0
  139.6781   67.0452  227.7248 H   0  0  0  0  0  0  0  0  0  0  0  0
  139.1830   68.0740  225.8820 C   0  0  0  0  0  0  0  0  0  0  0  0
  138.5276   67.2678  225.5208 H   0  0  0  0  0  0  0  0  0  0  0  0
  139.3760   69.2230  225.1000 C   0  0  0  0  0  0  0  0  0  0  0  0
  138.6550   69.3940  223.7990 C   0  0  0  0  0  0  0  0  0  0  0  0
  137.7498   69.9978  223.9600 H   0  0  0  0  0  0  0  0  0  0  0  0
  138.3766   68.4051  223.4060 H   0  0  0  0  0  0  0  0  0  0  0  0
  139.5620   70.0990  222.7920 C   0  0  0  0  0  0  0  0  0  0  0  0
  138.9845   70.3139  221.8808 H   0  0  0  0  0  0  0  0  0  0  0  0
  140.4117   69.4362  222.5713 H   0  0  0  0  0  0  0  0  0  0  0  0
  139.8830   73.6240  222.4060 N   0  0  0  0  0  0  0  0  0  0  0  0
  139.1050   73.8030  223.0730 H   0  0  0  0  0  0  0  0  0  0  0  0
  140.3480   80.1790  223.0320 C   0  0  0  0  0  0  0  0  0  0  0  0
  139.2490   80.1707  222.9869 H   0  0  0  0  0  0  0  0  0  0  0  0
  141.0080   81.1620  223.7760 C   0  0  0  0  0  0  0  0  0  0  0  0
  140.4266   81.9198  224.3217 H   0  0  0  0  0  0  0  0  0  0  0  0
  1  2  1  0
  2  3  2  0
  3  4  1  0
  3  5  1  0
  5  6  1  0
  5  7  2  0
  7  8  1  0
  8  9  1  0
  8 10  1  0
  8 11  1  0
 11 12  1  0
 11 13  1  0
 11 14  1  0
 14 15  2  0
 15 16  1  0
 16 17  2  0
 17 18  1  0
 18 19  1  0
 19 20  1  0
 19 21  1  0
 19 22  1  0
 22 23  1  0
 22 24  1  0
 22 25  1  0
 25 26  1  0
 25 27  1  0
 27 28  1  0
 27 29  1  0
 27 30  1  0
 30 31  1  0
 30 32  1  0
 30 33  1  0
 33 34  1  0
 33 35  1  0
 17 36  1  0
 36 37  2  0
 37 38  1  0
 38 39  1  0
 39 40  1  0
 39 41  1  0
 39 42  1  0
 42 43  2  0
 43 44  1  0
 43 45  1  0
 45 46  1  0
 45 47  2  0
 47 48  1  0
 47 49  1  0
 49 50  1  0
 49 51  2  0
 51 52  1  0
 52 53  1  0
 52 54  1  0
 52 55  1  0
 55 56  1  0
 55 57  1  0
 37 58  1  0
 58 59  1  0
  7 60  1  0
 60 61  1  0
 60 62  2  0
 62 63  1  0
 62  2  1  0
 58 15  1  0
 33 18  1  0
 55 38  1  0
 51 42  1  0
M  END
>  <UniqueID>  (29) 
710

>  <SMILES>  (29) 
c1ccc(CC/N=c2/nc(N3CCCNCC3)nc(N3CCc4ccccc4C3)[nH]2)cc1

>  <Energy>  (29) 
71.07950677063752

>  <Genealogy>  (29) 
c1ccc(CCN=c2nc(N3CCCNCC3)nc(N3CCc4ccccc4C3)[nH]2)cc1 (tautomer)
c1ccc(CC/N=c2/nc(N3CCCNCC3)nc(N3CCc4ccccc4C3)[nH]2)cc1 (cis-trans isomerization)
c1ccc(CC/N=c2/nc(N3CCCNCC3)nc(N3CCc4ccccc4C3)[nH]2)cc1 (3D coordinates assigned)
c1ccc(CC/N=c2/nc(N3CCCNCC3)nc(N3CCc4ccccc4C3)[nH]2)cc1 (nonaromatic ring conformer: 71.07950677063752 kcal/mol)

>  <smiles>  (29) 
c1ccc(CCNc2nc(N3CCCNCC3)nc(N3CCc4ccccc4C3)n2)cc1

>  <score_type>  (29) 
oracle

>  <origin>  (29) 
autodockgpu

>  <m_score__min__energy>  (29) 
-8.0399999999999991

>  <m_primary>  (29) 
energy

>  <meeko>  (29) 
{"free_energy": -7.76, "intermolecular_energy": -11.34, "internal_energy": -0.91, "cluster_size": 19, "cluster_id": 1, "rank_in_cluster": 7}

>  <energy>  (29) 
-7.7

>  <cluster_rmsd>  (29) 
1.43

>  <rmsd>  (29) 
272.67

>  <cluster>  (29) 
1

$$$$
IBHRIKXMMSCQIV-SCYGCCLLNA-N
     RDKit          3D

 63 67  0  0  0  0  0  0  0  0999 V2000
  140.8227   70.5444  229.4990 H   0  0  0  0  0  0  0  0  0  0  0  0
  140.7670   70.6030  228.4020 C   0  0  0  0  0  0  0  0  0  0  0  0
  140.4540   69.4620  227.6550 C   0  0  0  0  0  0  0  0  0  0  0  0
  140.2683   68.5052  228.1649 H   0  0  0  0  0  0  0  0  0  0  0  0
  140.3770   69.5370  226.2600 C   0  0  0  0  0  0  0  0  0  0  0  0
  140.1372   68.6367  225.6752 H   0  0  0  0  0  0  0  0  0  0  0  0
  140.6050   70.7590  225.6030 C   0  0  0  0  0  0  0  0  0  0  0  0
  140.5470   70.8390  224.1010 C   0  0  0  0  0  0  0  0  0  0  0  0
  141.1499   71.6941  223.7614 H   0  0  0  0  0  0  0  0  0  0  0  0
  140.9428   69.9023  223.6815 H   0  0  0  0  0  0  0  0  0  0  0  0
  139.1010   71.0210  223.6230 C   0  0  0  0  0  0  0  0  0  0  0  0
  138.6305   70.0332  223.5093 H   0  0  0  0  0  0  0  0  0  0  0  0
  138.5537   71.6191  224.3665 H   0  0  0  0  0  0  0  0  0  0  0  0
  139.0690   71.7200  222.3380 N   0  0  0  0  0  0  0  0  0  0  0  0
  139.8440   72.6980  221.9560 C   0  0  0  0  0  0  0  0  0  0  0  0
  140.9550   72.3990  221.2410 N   0  0  0  0  0  0  0  0  0  0  0  0
  141.7910   73.3790  220.8110 C   0  0  0  0  0  0  0  0  0  0  0  0
  142.9650   73.0540  220.0370 N   0  0  0  0  0  0  0  0  0  0  0  0
  144.2640   73.6640  220.3470 C   0  0  0  0  0  0  0  0  0  0  0  0
  144.5532   73.3953  221.3737 H   0  0  0  0  0  0  0  0  0  0  0  0
  144.1742   74.7559  220.2491 H   0  0  0  0  0  0  0  0  0  0  0  0
  145.3410   73.1690  219.3750 C   0  0  0  0  0  0  0  0  0  0  0  0
  146.1283   73.9331  219.2949 H   0  0  0  0  0  0  0  0  0  0  0  0
  144.8676   72.9897  218.3984 H   0  0  0  0  0  0  0  0  0  0  0  0
  145.9450   71.9060  219.8340 N   0  0  0  0  0  0  0  0  0  0  0  0
  145.8500   71.8820  220.8770 H   0  0  0  0  0  0  0  0  0  0  0  0
  145.2410   70.7260  219.2950 C   0  0  0  0  0  0  0  0  0  0  0  0
  145.7112   69.8164  219.6969 H   0  0  0  0  0  0  0  0  0  0  0  0
  145.3131   70.7561  218.1978 H   0  0  0  0  0  0  0  0  0  0  0  0
  143.7510   70.7270  219.6770 C   0  0  0  0  0  0  0  0  0  0  0  0
  143.6772   70.7530  220.7742 H   0  0  0  0  0  0  0  0  0  0  0  0
  143.3142   69.8173  219.2391 H   0  0  0  0  0  0  0  0  0  0  0  0
  142.9510   71.9130  219.1130 C   0  0  0  0  0  0  0  0  0  0  0  0
  141.9101   71.5974  218.9492 H   0  0  0  0  0  0  0  0  0  0  0  0
  143.4162   72.2269  218.1669 H   0  0  0  0  0  0  0  0  0  0  0  0
  141.5010   74.6720  221.1020 N   0  0  0  0  0  0  0  0  0  0  0  0
  140.3950   74.9980  221.8200 C   0  0  0  0  0  0  0  0  0  0  0  0
  140.1170   76.3870  222.1160 N   0  0  0  0  0  0  0  0  0  0  0  0
  141.1820   77.3990  221.9550 C   0  0  0  0  0  0  0  0  0  0  0  0
  141.3371   77.5742  220.8802 H   0  0  0  0  0  0  0  0  0  0  0  0
  142.0834   77.0031  222.4458 H   0  0  0  0  0  0  0  0  0  0  0  0
  140.8590   78.7180  222.6130 C   0  0  0  0  0  0  0  0  0  0  0  0
  141.8930   79.6090  222.9440 C   0  0  0  0  0  0  0  0  0  0  0  0
  142.9402   79.3217  222.7684 H   0  0  0  0  0  0  0  0  0  0  0  0
  141.5980   80.8580  223.4950 C   0  0  0  0  0  0  0  0  0  0  0  0
  142.4135   81.5461  223.7624 H   0  0  0  0  0  0  0  0  0  0  0  0
  140.2720   81.2350  223.7070 C   0  0  0  0  0  0  0  0  0  0  0  0
  140.0431   82.2191  224.1420 H   0  0  0  0  0  0  0  0  0  0  0  0
  139.2340   80.3630  223.3670 C   0  0  0  0  0  0  0  0  0  0  0  0
  138.1885   80.6664  223.5245 H   0  0  0  0  0  0  0  0  0  0  0  0
  139.5230   79.1010  222.8250 C   0  0  0  0  0  0  0  0  0  0  0  0
  138.4220   78.1780  222.4050 C   0  0  0  0  0  0  0  0  0  0  0  0
  138.2446   78.2894  221.3251 H   0  0  0  0  0  0  0  0  0  0  0  0
  137.5064   78.4302  222.9600 H   0  0  0  0  0  0  0  0  0  0  0  0
  138.8120   76.7320  222.7080 C   0  0  0  0  0  0  0  0  0  0  0  0
  138.0441   76.0611  222.2953 H   0  0  0  0  0  0  0  0  0  0  0  0
  138.8880   76.6174  223.7994 H   0  0  0  0  0  0  0  0  0  0  0  0
  139.5670   74.0030  222.2550 N   0  0  0  0  0  0  0  0  0  0  0  0
  138.7370   74.2490  222.8320 H   0  0  0  0  0  0  0  0  0  0  0  0
  140.9330   71.8970  226.3590 C   0  0  0  0  0  0  0  0  0  0  0  0
  141.1307   72.8533  225.8526 H   0  0  0  0  0  0  0  0  0  0  0  0
  141.0090   71.8180  227.7530 C   0  0  0  0  0  0  0  0  0  0  0  0
  141.2597   72.7135  228.3405 H   0  0  0  0  0  0  0  0  0  0  0  0
  1  2  1  0
  2  3  2  0
  3  4  1  0
  3  5  1  0
  5  6  1  0
  5  7  2  0
  7  8  1  0
  8  9  1  0
  8 10  1  0
  8 11  1  0
 11 12  1  0
 11 13  1  0
 11 14  1  0
 14 15  2  0
 15 16  1  0
 16 17  2  0
 17 18  1  0
 18 19  1  0
 19 20  1  0
 19 21  1  0
 19 22  1  0
 22 23  1  0
 22 24  1  0
 22 25  1  0
 25 26  1  0
 25 27  1  0
 27 28  1  0
 27 29  1  0
 27 30  1  0
 30 31  1  0
 30 32  1  0
 30 33  1  0
 33 34  1  0
 33 35  1  0
 17 36  1  0
 36 37  2  0
 37 38  1  0
 38 39  1  0
 39 40  1  0
 39 41  1  0
 39 42  1  0
 42 43  2  0
 43 44  1  0
 43 45  1  0
 45 46  1  0
 45 47  2  0
 47 48  1  0
 47 49  1  0
 49 50  1  0
 49 51  2  0
 51 52  1  0
 52 53  1  0
 52 54  1  0
 52 55  1  0
 55 56  1  0
 55 57  1  0
 37 58  1  0
 58 59  1  0
  7 60  1  0
 60 61  1  0
 60 62  2  0
 62 63  1  0
 62  2  1  0
 58 15  1  0
 33 18  1  0
 55 38  1  0
 51 42  1  0
M  END
>  <UniqueID>  (30) 
710

>  <SMILES>  (30) 
c1ccc(CC/N=c2/nc(N3CCCNCC3)nc(N3CCc4ccccc4C3)[nH]2)cc1

>  <Energy>  (30) 
71.07950677063752

>  <Genealogy>  (30) 
c1ccc(CCN=c2nc(N3CCCNCC3)nc(N3CCc4ccccc4C3)[nH]2)cc1 (tautomer)
c1ccc(CC/N=c2/nc(N3CCCNCC3)nc(N3CCc4ccccc4C3)[nH]2)cc1 (cis-trans isomerization)
c1ccc(CC/N=c2/nc(N3CCCNCC3)nc(N3CCc4ccccc4C3)[nH]2)cc1 (3D coordinates assigned)
c1ccc(CC/N=c2/nc(N3CCCNCC3)nc(N3CCc4ccccc4C3)[nH]2)cc1 (nonaromatic ring conformer: 71.07950677063752 kcal/mol)

>  <smiles>  (30) 
c1ccc(CCNc2nc(N3CCCNCC3)nc(N3CCc4ccccc4C3)n2)cc1

>  <score_type>  (30) 
oracle

>  <origin>  (30) 
autodockgpu

>  <m_score__min__energy>  (30) 
-8.0399999999999991

>  <m_primary>  (30) 
energy

>  <meeko>  (30) 
{"free_energy": -7.95, "intermolecular_energy": -11.53, "internal_energy": -0.98, "cluster_size": 19, "cluster_id": 1, "rank_in_cluster": 2}

>  <energy>  (30) 
-7.58

>  <cluster_rmsd>  (30) 
1.53

>  <rmsd>  (30) 
272.59

>  <cluster>  (30) 
1

$$$$
IBHRIKXMMSCQIV-SCYGCCLLNA-N
     RDKit          3D

 63 67  0  0  0  0  0  0  0  0999 V2000
  143.4726   81.3692  223.4956 H   0  0  0  0  0  0  0  0  0  0  0  0
  142.6260   80.6890  223.3210 C   0  0  0  0  0  0  0  0  0  0  0  0
  142.8440   79.4360  222.7390 C   0  0  0  0  0  0  0  0  0  0  0  0
  143.8619   79.1324  222.4531 H   0  0  0  0  0  0  0  0  0  0  0  0
  141.7680   78.5680  222.5200 C   0  0  0  0  0  0  0  0  0  0  0  0
  141.9415   77.5862  222.0554 H   0  0  0  0  0  0  0  0  0  0  0  0
  140.4660   78.9470  222.8920 C   0  0  0  0  0  0  0  0  0  0  0  0
  139.3030   78.0260  222.6370 C   0  0  0  0  0  0  0  0  0  0  0  0
  139.2159   77.3148  223.4716 H   0  0  0  0  0  0  0  0  0  0  0  0
  138.3867   78.6287  222.5518 H   0  0  0  0  0  0  0  0  0  0  0  0
  139.5040   77.2480  221.3320 C   0  0  0  0  0  0  0  0  0  0  0  0
  138.9202   77.7268  220.5320 H   0  0  0  0  0  0  0  0  0  0  0  0
  140.5741   77.2531  221.0772 H   0  0  0  0  0  0  0  0  0  0  0  0
  139.0620   75.8610  221.4860 N   0  0  0  0  0  0  0  0  0  0  0  0
  139.8170   74.8020  221.5810 C   0  0  0  0  0  0  0  0  0  0  0  0
  140.9630   74.7590  220.8610 N   0  0  0  0  0  0  0  0  0  0  0  0
  141.7890   73.6840  220.9290 C   0  0  0  0  0  0  0  0  0  0  0  0
  143.0160   73.6530  220.1700 N   0  0  0  0  0  0  0  0  0  0  0  0
  143.2570   72.6040  219.1700 C   0  0  0  0  0  0  0  0  0  0  0  0
  143.8367   73.0266  218.3361 H   0  0  0  0  0  0  0  0  0  0  0  0
  142.2873   72.2295  218.8101 H   0  0  0  0  0  0  0  0  0  0  0  0
  144.0380   71.4370  219.7850 C   0  0  0  0  0  0  0  0  0  0  0  0
  144.2362   70.6887  219.0035 H   0  0  0  0  0  0  0  0  0  0  0  0
  143.4321   71.0066  220.5959 H   0  0  0  0  0  0  0  0  0  0  0  0
  145.3200   71.8840  220.3550 N   0  0  0  0  0  0  0  0  0  0  0  0
  146.0190   71.1260  220.1680 H   0  0  0  0  0  0  0  0  0  0  0  0
  145.8170   73.1150  219.7090 C   0  0  0  0  0  0  0  0  0  0  0  0
  145.4278   73.1597  218.6811 H   0  0  0  0  0  0  0  0  0  0  0  0
  146.9165   73.0839  219.7146 H   0  0  0  0  0  0  0  0  0  0  0  0
  145.3700   74.3800  220.4670 C   0  0  0  0  0  0  0  0  0  0  0  0
  146.0378   75.2067  220.1831 H   0  0  0  0  0  0  0  0  0  0  0  0
  145.4209   74.1412  221.5395 H   0  0  0  0  0  0  0  0  0  0  0  0
  143.9220   74.8080  220.1770 C   0  0  0  0  0  0  0  0  0  0  0  0
  143.8837   75.2995  219.1937 H   0  0  0  0  0  0  0  0  0  0  0  0
  143.5985   75.4984  220.9699 H   0  0  0  0  0  0  0  0  0  0  0  0
  141.4570   72.6440  221.7340 N   0  0  0  0  0  0  0  0  0  0  0  0
  140.3120   72.6600  222.4640 C   0  0  0  0  0  0  0  0  0  0  0  0
  139.9860   71.5320  223.3100 N   0  0  0  0  0  0  0  0  0  0  0  0
  140.3950   71.5380  224.7300 C   0  0  0  0  0  0  0  0  0  0  0  0
  139.7477   72.2397  225.2764 H   0  0  0  0  0  0  0  0  0  0  0  0
  141.4530   71.8375  224.7621 H   0  0  0  0  0  0  0  0  0  0  0  0
  140.2950   70.1830  225.3880 C   0  0  0  0  0  0  0  0  0  0  0  0
  141.0380   69.9100  226.5470 C   0  0  0  0  0  0  0  0  0  0  0  0
  141.7298   70.6671  226.9447 H   0  0  0  0  0  0  0  0  0  0  0  0
  140.9030   68.6810  227.1980 C   0  0  0  0  0  0  0  0  0  0  0  0
  141.4971   68.4694  228.0993 H   0  0  0  0  0  0  0  0  0  0  0  0
  140.0170   67.7220  226.7080 C   0  0  0  0  0  0  0  0  0  0  0  0
  139.9131   66.7554  227.2226 H   0  0  0  0  0  0  0  0  0  0  0  0
  139.2610   67.9890  225.5630 C   0  0  0  0  0  0  0  0  0  0  0  0
  138.5550   67.2357  225.1834 H   0  0  0  0  0  0  0  0  0  0  0  0
  139.4010   69.2160  224.8970 C   0  0  0  0  0  0  0  0  0  0  0  0
  138.5580   69.5390  223.7020 C   0  0  0  0  0  0  0  0  0  0  0  0
  137.6869   70.1309  224.0194 H   0  0  0  0  0  0  0  0  0  0  0  0
  138.2206   68.6029  223.2331 H   0  0  0  0  0  0  0  0  0  0  0  0
  139.3750   70.3420  222.6910 C   0  0  0  0  0  0  0  0  0  0  0  0
  138.7137   70.6647  221.8734 H   0  0  0  0  0  0  0  0  0  0  0  0
  140.1825   69.6982  222.3122 H   0  0  0  0  0  0  0  0  0  0  0  0
  139.4840   73.7430  222.3800 N   0  0  0  0  0  0  0  0  0  0  0  0
  138.5910   73.7430  222.9140 H   0  0  0  0  0  0  0  0  0  0  0  0
  140.2540   80.2130  223.4640 C   0  0  0  0  0  0  0  0  0  0  0  0
  139.2365   80.5252  223.7420 H   0  0  0  0  0  0  0  0  0  0  0  0
  141.3310   81.0770  223.6810 C   0  0  0  0  0  0  0  0  0  0  0  0
  141.1600   82.0639  224.1357 H   0  0  0  0  0  0  0  0  0  0  0  0
  1  2  1  0
  2  3  2  0
  3  4  1  0
  3  5  1  0
  5  6  1  0
  5  7  2  0
  7  8  1  0
  8  9  1  0
  8 10  1  0
  8 11  1  0
 11 12  1  0
 11 13  1  0
 11 14  1  0
 14 15  2  0
 15 16  1  0
 16 17  2  0
 17 18  1  0
 18 19  1  0
 19 20  1  0
 19 21  1  0
 19 22  1  0
 22 23  1  0
 22 24  1  0
 22 25  1  0
 25 26  1  0
 25 27  1  0
 27 28  1  0
 27 29  1  0
 27 30  1  0
 30 31  1  0
 30 32  1  0
 30 33  1  0
 33 34  1  0
 33 35  1  0
 17 36  1  0
 36 37  2  0
 37 38  1  0
 38 39  1  0
 39 40  1  0
 39 41  1  0
 39 42  1  0
 42 43  2  0
 43 44  1  0
 43 45  1  0
 45 46  1  0
 45 47  2  0
 47 48  1  0
 47 49  1  0
 49 50  1  0
 49 51  2  0
 51 52  1  0
 52 53  1  0
 52 54  1  0
 52 55  1  0
 55 56  1  0
 55 57  1  0
 37 58  1  0
 58 59  1  0
  7 60  1  0
 60 61  1  0
 60 62  2  0
 62 63  1  0
 62  2  1  0
 58 15  1  0
 33 18  1  0
 55 38  1  0
 51 42  1  0
M  END
>  <UniqueID>  (31) 
710

>  <SMILES>  (31) 
c1ccc(CC/N=c2/nc(N3CCCNCC3)nc(N3CCc4ccccc4C3)[nH]2)cc1

>  <Energy>  (31) 
71.07950677063752

>  <Genealogy>  (31) 
c1ccc(CCN=c2nc(N3CCCNCC3)nc(N3CCc4ccccc4C3)[nH]2)cc1 (tautomer)
c1ccc(CC/N=c2/nc(N3CCCNCC3)nc(N3CCc4ccccc4C3)[nH]2)cc1 (cis-trans isomerization)
c1ccc(CC/N=c2/nc(N3CCCNCC3)nc(N3CCc4ccccc4C3)[nH]2)cc1 (3D coordinates assigned)
c1ccc(CC/N=c2/nc(N3CCCNCC3)nc(N3CCc4ccccc4C3)[nH]2)cc1 (nonaromatic ring conformer: 71.07950677063752 kcal/mol)

>  <smiles>  (31) 
c1ccc(CCNc2nc(N3CCCNCC3)nc(N3CCc4ccccc4C3)n2)cc1

>  <score_type>  (31) 
oracle

>  <origin>  (31) 
autodockgpu

>  <m_score__min__energy>  (31) 
-8.0399999999999991

>  <m_primary>  (31) 
energy

>  <meeko>  (31) 
{"free_energy": -7.42, "intermolecular_energy": -11.0, "internal_energy": -1.04, "cluster_size": 19, "cluster_id": 1, "rank_in_cluster": 14}

>  <energy>  (31) 
-7.48

>  <cluster_rmsd>  (31) 
1.54

>  <rmsd>  (31) 
272.64

>  <cluster>  (31) 
1

$$$$
IBHRIKXMMSCQIV-SCYGCCLLNA-N
     RDKit          3D

 63 67  0  0  0  0  0  0  0  0999 V2000
  141.6517   71.4275  228.9020 H   0  0  0  0  0  0  0  0  0  0  0  0
  141.1340   71.1400  227.9750 C   0  0  0  0  0  0  0  0  0  0  0  0
  140.2790   70.0330  227.9650 C   0  0  0  0  0  0  0  0  0  0  0  0
  140.1268   69.4480  228.8840 H   0  0  0  0  0  0  0  0  0  0  0  0
  139.6170   69.6690  226.7870 C   0  0  0  0  0  0  0  0  0  0  0  0
  138.9514   68.7933  226.7804 H   0  0  0  0  0  0  0  0  0  0  0  0
  139.8000   70.4190  225.6120 C   0  0  0  0  0  0  0  0  0  0  0  0
  139.1080   70.0170  224.3370 C   0  0  0  0  0  0  0  0  0  0  0  0
  138.9456   68.9291  224.3418 H   0  0  0  0  0  0  0  0  0  0  0  0
  138.1456   70.5461  224.2748 H   0  0  0  0  0  0  0  0  0  0  0  0
  139.9580   70.3940  223.1170 C   0  0  0  0  0  0  0  0  0  0  0  0
  140.9808   70.6285  223.4470 H   0  0  0  0  0  0  0  0  0  0  0  0
  139.9704   69.5459  222.4165 H   0  0  0  0  0  0  0  0  0  0  0  0
  139.3920   71.5600  222.4380 N   0  0  0  0  0  0  0  0  0  0  0  0
  140.0440   72.5880  221.9680 C   0  0  0  0  0  0  0  0  0  0  0  0
  141.0910   72.3660  221.1380 N   0  0  0  0  0  0  0  0  0  0  0  0
  141.7980   73.3990  220.6150 C   0  0  0  0  0  0  0  0  0  0  0  0
  142.9020   73.1540  219.7200 N   0  0  0  0  0  0  0  0  0  0  0  0
  143.7790   74.2490  219.2860 C   0  0  0  0  0  0  0  0  0  0  0  0
  144.4430   74.5301  220.1167 H   0  0  0  0  0  0  0  0  0  0  0  0
  143.1545   75.1044  218.9888 H   0  0  0  0  0  0  0  0  0  0  0  0
  144.6300   73.8210  218.0850 C   0  0  0  0  0  0  0  0  0  0  0  0
  144.9427   74.7183  217.5309 H   0  0  0  0  0  0  0  0  0  0  0  0
  144.0219   73.1599  217.4500 H   0  0  0  0  0  0  0  0  0  0  0  0
  145.8300   73.0780  218.5090 N   0  0  0  0  0  0  0  0  0  0  0  0
  146.6390   73.7410  218.4440 H   0  0  0  0  0  0  0  0  0  0  0  0
  145.7370   72.6260  219.9110 C   0  0  0  0  0  0  0  0  0  0  0  0
  145.4343   73.4764  220.5397 H   0  0  0  0  0  0  0  0  0  0  0  0
  146.7229   72.2421  220.2120 H   0  0  0  0  0  0  0  0  0  0  0  0
  144.7120   71.4930  220.0800 C   0  0  0  0  0  0  0  0  0  0  0  0
  144.5633   71.3206  221.1562 H   0  0  0  0  0  0  0  0  0  0  0  0
  145.1234   70.6156  219.5595 H   0  0  0  0  0  0  0  0  0  0  0  0
  143.3410   71.7800  219.4440 C   0  0  0  0  0  0  0  0  0  0  0  0
  142.6010   71.0779  219.8556 H   0  0  0  0  0  0  0  0  0  0  0  0
  143.4308   71.6564  218.3547 H   0  0  0  0  0  0  0  0  0  0  0  0
  141.4430   74.6700  220.9290 N   0  0  0  0  0  0  0  0  0  0  0  0
  140.4000   74.9220  221.7620 C   0  0  0  0  0  0  0  0  0  0  0  0
  140.0500   76.2900  222.0800 N   0  0  0  0  0  0  0  0  0  0  0  0
  141.0660   77.3550  221.9540 C   0  0  0  0  0  0  0  0  0  0  0  0
  141.2275   77.5584  220.8851 H   0  0  0  0  0  0  0  0  0  0  0  0
  141.9788   76.9941  222.4505 H   0  0  0  0  0  0  0  0  0  0  0  0
  140.6690   78.6440  222.6320 C   0  0  0  0  0  0  0  0  0  0  0  0
  141.6530   79.5770  222.9940 C   0  0  0  0  0  0  0  0  0  0  0  0
  142.7153   79.3446  222.8284 H   0  0  0  0  0  0  0  0  0  0  0  0
  141.2890   80.8000  223.5640 C   0  0  0  0  0  0  0  0  0  0  0  0
  142.0658   81.5215  223.8572 H   0  0  0  0  0  0  0  0  0  0  0  0
  139.9430   81.1080  223.7620 C   0  0  0  0  0  0  0  0  0  0  0  0
  139.6596   82.0717  224.2104 H   0  0  0  0  0  0  0  0  0  0  0  0
  138.9550   80.1930  223.3910 C   0  0  0  0  0  0  0  0  0  0  0  0
  137.8937   80.4414  223.5391 H   0  0  0  0  0  0  0  0  0  0  0  0
  139.3130   78.9580  222.8300 C   0  0  0  0  0  0  0  0  0  0  0  0
  138.2650   77.9900  222.3750 C   0  0  0  0  0  0  0  0  0  0  0  0
  138.0992   78.1131  221.2946 H   0  0  0  0  0  0  0  0  0  0  0  0
  137.3296   78.1865  222.9194 H   0  0  0  0  0  0  0  0  0  0  0  0
  138.7210   76.5590  222.6580 C   0  0  0  0  0  0  0  0  0  0  0  0
  137.9932   75.8592  222.2213 H   0  0  0  0  0  0  0  0  0  0  0  0
  138.7863   76.4273  223.7481 H   0  0  0  0  0  0  0  0  0  0  0  0
  139.7020   73.8730  222.2900 N   0  0  0  0  0  0  0  0  0  0  0  0
  138.9230   74.0630  222.9520 H   0  0  0  0  0  0  0  0  0  0  0  0
  140.6710   71.5210  225.6260 C   0  0  0  0  0  0  0  0  0  0  0  0
  140.8349   72.1023  224.7066 H   0  0  0  0  0  0  0  0  0  0  0  0
  141.3300   71.8810  226.8050 C   0  0  0  0  0  0  0  0  0  0  0  0
  142.0048   72.7497  226.8127 H   0  0  0  0  0  0  0  0  0  0  0  0
  1  2  1  0
  2  3  2  0
  3  4  1  0
  3  5  1  0
  5  6  1  0
  5  7  2  0
  7  8  1  0
  8  9  1  0
  8 10  1  0
  8 11  1  0
 11 12  1  0
 11 13  1  0
 11 14  1  0
 14 15  2  0
 15 16  1  0
 16 17  2  0
 17 18  1  0
 18 19  1  0
 19 20  1  0
 19 21  1  0
 19 22  1  0
 22 23  1  0
 22 24  1  0
 22 25  1  0
 25 26  1  0
 25 27  1  0
 27 28  1  0
 27 29  1  0
 27 30  1  0
 30 31  1  0
 30 32  1  0
 30 33  1  0
 33 34  1  0
 33 35  1  0
 17 36  1  0
 36 37  2  0
 37 38  1  0
 38 39  1  0
 39 40  1  0
 39 41  1  0
 39 42  1  0
 42 43  2  0
 43 44  1  0
 43 45  1  0
 45 46  1  0
 45 47  2  0
 47 48  1  0
 47 49  1  0
 49 50  1  0
 49 51  2  0
 51 52  1  0
 52 53  1  0
 52 54  1  0
 52 55  1  0
 55 56  1  0
 55 57  1  0
 37 58  1  0
 58 59  1  0
  7 60  1  0
 60 61  1  0
 60 62  2  0
 62 63  1  0
 62  2  1  0
 58 15  1  0
 33 18  1  0
 55 38  1  0
 51 42  1  0
M  END
>  <UniqueID>  (32) 
710

>  <SMILES>  (32) 
c1ccc(CC/N=c2/nc(N3CCCNCC3)nc(N3CCc4ccccc4C3)[nH]2)cc1

>  <Energy>  (32) 
71.07950677063752

>  <Genealogy>  (32) 
c1ccc(CCN=c2nc(N3CCCNCC3)nc(N3CCc4ccccc4C3)[nH]2)cc1 (tautomer)
c1ccc(CC/N=c2/nc(N3CCCNCC3)nc(N3CCc4ccccc4C3)[nH]2)cc1 (cis-trans isomerization)
c1ccc(CC/N=c2/nc(N3CCCNCC3)nc(N3CCc4ccccc4C3)[nH]2)cc1 (3D coordinates assigned)
c1ccc(CC/N=c2/nc(N3CCCNCC3)nc(N3CCc4ccccc4C3)[nH]2)cc1 (nonaromatic ring conformer: 71.07950677063752 kcal/mol)

>  <smiles>  (32) 
c1ccc(CCNc2nc(N3CCCNCC3)nc(N3CCc4ccccc4C3)n2)cc1

>  <score_type>  (32) 
oracle

>  <origin>  (32) 
autodockgpu

>  <m_score__min__energy>  (32) 
-8.0399999999999991

>  <m_primary>  (32) 
energy

>  <meeko>  (32) 
{"free_energy": -7.76, "intermolecular_energy": -11.34, "internal_energy": -0.97, "cluster_size": 19, "cluster_id": 1, "rank_in_cluster": 6}

>  <energy>  (32) 
-7.44

>  <cluster_rmsd>  (32) 
1.05

>  <rmsd>  (32) 
272.87

>  <cluster>  (32) 
1

$$$$
IBHRIKXMMSCQIV-SCYGCCLLNA-N
     RDKit          3D

 63 67  0  0  0  0  0  0  0  0999 V2000
  140.4219   70.6676  229.3585 H   0  0  0  0  0  0  0  0  0  0  0  0
  140.4020   70.7530  228.2620 C   0  0  0  0  0  0  0  0  0  0  0  0
  139.7950   69.7550  227.4940 C   0  0  0  0  0  0  0  0  0  0  0  0
  139.3397   68.8832  227.9866 H   0  0  0  0  0  0  0  0  0  0  0  0
  139.7660   69.8640  226.0990 C   0  0  0  0  0  0  0  0  0  0  0  0
  139.2959   69.0726  225.4968 H   0  0  0  0  0  0  0  0  0  0  0  0
  140.3360   70.9820  225.4650 C   0  0  0  0  0  0  0  0  0  0  0  0
  140.3280   71.0920  223.9640 C   0  0  0  0  0  0  0  0  0  0  0  0
  140.7812   72.0502  223.6698 H   0  0  0  0  0  0  0  0  0  0  0  0
  140.9030   70.2531  223.5449 H   0  0  0  0  0  0  0  0  0  0  0  0
  138.8940   71.0260  223.4230 C   0  0  0  0  0  0  0  0  0  0  0  0
  138.7013   70.0164  223.0312 H   0  0  0  0  0  0  0  0  0  0  0  0
  138.1950   71.2560  224.2406 H   0  0  0  0  0  0  0  0  0  0  0  0
  138.7040   72.0030  222.3500 N   0  0  0  0  0  0  0  0  0  0  0  0
  139.5610   72.8980  221.9420 C   0  0  0  0  0  0  0  0  0  0  0  0
  140.6300   72.4860  221.2180 N   0  0  0  0  0  0  0  0  0  0  0  0
  141.5470   73.3760  220.7610 C   0  0  0  0  0  0  0  0  0  0  0  0
  142.6740   72.9310  219.9780 N   0  0  0  0  0  0  0  0  0  0  0  0
  143.0100   73.5790  218.7040 C   0  0  0  0  0  0  0  0  0  0  0  0
  142.1012   73.6596  218.0894 H   0  0  0  0  0  0  0  0  0  0  0  0
  143.7679   72.9714  218.1879 H   0  0  0  0  0  0  0  0  0  0  0  0
  143.5820   74.9810  218.9420 C   0  0  0  0  0  0  0  0  0  0  0  0
  142.7513   75.6984  219.0141 H   0  0  0  0  0  0  0  0  0  0  0  0
  144.2437   75.2313  218.0997 H   0  0  0  0  0  0  0  0  0  0  0  0
  144.3730   75.0380  220.1840 N   0  0  0  0  0  0  0  0  0  0  0  0
  143.7020   74.9170  220.9800 H   0  0  0  0  0  0  0  0  0  0  0  0
  145.3610   73.9460  220.2650 C   0  0  0  0  0  0  0  0  0  0  0  0
  146.2936   74.3408  220.6944 H   0  0  0  0  0  0  0  0  0  0  0  0
  145.5263   73.5586  219.2488 H   0  0  0  0  0  0  0  0  0  0  0  0
  144.8600   72.7850  221.1440 C   0  0  0  0  0  0  0  0  0  0  0  0
  144.5601   73.1963  222.1191 H   0  0  0  0  0  0  0  0  0  0  0  0
  145.6898   72.0668  221.2187 H   0  0  0  0  0  0  0  0  0  0  0  0
  143.6640   72.0150  220.5580 C   0  0  0  0  0  0  0  0  0  0  0  0
  143.1864   71.4311  221.3586 H   0  0  0  0  0  0  0  0  0  0  0  0
  144.0335   71.3525  219.7614 H   0  0  0  0  0  0  0  0  0  0  0  0
  141.3830   74.6950  221.0340 N   0  0  0  0  0  0  0  0  0  0  0  0
  140.3230   75.1340  221.7610 C   0  0  0  0  0  0  0  0  0  0  0  0
  140.1800   76.5470  222.0370 N   0  0  0  0  0  0  0  0  0  0  0  0
  141.3240   77.4570  221.8170 C   0  0  0  0  0  0  0  0  0  0  0  0
  141.4543   77.5980  220.7339 H   0  0  0  0  0  0  0  0  0  0  0  0
  142.2044   76.9914  222.2840 H   0  0  0  0  0  0  0  0  0  0  0  0
  141.1430   78.8120  222.4580 C   0  0  0  0  0  0  0  0  0  0  0  0
  142.2630   79.6120  222.7320 C   0  0  0  0  0  0  0  0  0  0  0  0
  143.2731   79.2291  222.5247 H   0  0  0  0  0  0  0  0  0  0  0  0
  142.1010   80.8930  223.2670 C   0  0  0  0  0  0  0  0  0  0  0  0
  142.9836   81.5103  223.4905 H   0  0  0  0  0  0  0  0  0  0  0  0
  140.8220   81.3900  223.5180 C   0  0  0  0  0  0  0  0  0  0  0  0
  140.6973   82.3985  223.9391 H   0  0  0  0  0  0  0  0  0  0  0  0
  139.6990   80.6080  223.2350 C   0  0  0  0  0  0  0  0  0  0  0  0
  138.6909   81.0055  223.4239 H   0  0  0  0  0  0  0  0  0  0  0  0
  139.8560   79.3160  222.7100 C   0  0  0  0  0  0  0  0  0  0  0  0
  138.6620   78.4860  222.3490 C   0  0  0  0  0  0  0  0  0  0  0  0
  138.4547   78.5933  221.2740 H   0  0  0  0  0  0  0  0  0  0  0  0
  137.7937   78.8282  222.9311 H   0  0  0  0  0  0  0  0  0  0  0  0
  138.9340   77.0180  222.6680 C   0  0  0  0  0  0  0  0  0  0  0  0
  138.0948   76.4109  222.2977 H   0  0  0  0  0  0  0  0  0  0  0  0
  139.0412   76.9171  223.7581 H   0  0  0  0  0  0  0  0  0  0  0  0
  139.4120   74.2280  222.2230 N   0  0  0  0  0  0  0  0  0  0  0  0
  138.6170   74.5590  222.8060 H   0  0  0  0  0  0  0  0  0  0  0  0
  140.9560   71.9740  226.2430 C   0  0  0  0  0  0  0  0  0  0  0  0
  141.4208   72.8431  225.7545 H   0  0  0  0  0  0  0  0  0  0  0  0
  140.9840   71.8600  227.6360 C   0  0  0  0  0  0  0  0  0  0  0  0
  141.4648   72.6427  228.2411 H   0  0  0  0  0  0  0  0  0  0  0  0
  1  2  1  0
  2  3  2  0
  3  4  1  0
  3  5  1  0
  5  6  1  0
  5  7  2  0
  7  8  1  0
  8  9  1  0
  8 10  1  0
  8 11  1  0
 11 12  1  0
 11 13  1  0
 11 14  1  0
 14 15  2  0
 15 16  1  0
 16 17  2  0
 17 18  1  0
 18 19  1  0
 19 20  1  0
 19 21  1  0
 19 22  1  0
 22 23  1  0
 22 24  1  0
 22 25  1  0
 25 26  1  0
 25 27  1  0
 27 28  1  0
 27 29  1  0
 27 30  1  0
 30 31  1  0
 30 32  1  0
 30 33  1  0
 33 34  1  0
 33 35  1  0
 17 36  1  0
 36 37  2  0
 37 38  1  0
 38 39  1  0
 39 40  1  0
 39 41  1  0
 39 42  1  0
 42 43  2  0
 43 44  1  0
 43 45  1  0
 45 46  1  0
 45 47  2  0
 47 48  1  0
 47 49  1  0
 49 50  1  0
 49 51  2  0
 51 52  1  0
 52 53  1  0
 52 54  1  0
 52 55  1  0
 55 56  1  0
 55 57  1  0
 37 58  1  0
 58 59  1  0
  7 60  1  0
 60 61  1  0
 60 62  2  0
 62 63  1  0
 62  2  1  0
 58 15  1  0
 33 18  1  0
 55 38  1  0
 51 42  1  0
M  END
>  <UniqueID>  (33) 
710

>  <SMILES>  (33) 
c1ccc(CC/N=c2/nc(N3CCCNCC3)nc(N3CCc4ccccc4C3)[nH]2)cc1

>  <Energy>  (33) 
71.07950677063752

>  <Genealogy>  (33) 
c1ccc(CCN=c2nc(N3CCCNCC3)nc(N3CCc4ccccc4C3)[nH]2)cc1 (tautomer)
c1ccc(CC/N=c2/nc(N3CCCNCC3)nc(N3CCc4ccccc4C3)[nH]2)cc1 (cis-trans isomerization)
c1ccc(CC/N=c2/nc(N3CCCNCC3)nc(N3CCc4ccccc4C3)[nH]2)cc1 (3D coordinates assigned)
c1ccc(CC/N=c2/nc(N3CCCNCC3)nc(N3CCc4ccccc4C3)[nH]2)cc1 (nonaromatic ring conformer: 71.07950677063752 kcal/mol)

>  <smiles>  (33) 
c1ccc(CCNc2nc(N3CCCNCC3)nc(N3CCc4ccccc4C3)n2)cc1

>  <score_type>  (33) 
oracle

>  <origin>  (33) 
autodockgpu

>  <m_score__min__energy>  (33) 
-8.0399999999999991

>  <m_primary>  (33) 
energy

>  <meeko>  (33) 
{"free_energy": -7.44, "intermolecular_energy": -11.02, "internal_energy": -1.7, "cluster_size": 19, "cluster_id": 1, "rank_in_cluster": 13}

>  <energy>  (33) 
-7.44

>  <cluster_rmsd>  (33) 
1.53

>  <rmsd>  (33) 
272.89

>  <cluster>  (33) 
1

$$$$
IBHRIKXMMSCQIV-SCYGCCLLNA-N
     RDKit          3D

 63 67  0  0  0  0  0  0  0  0999 V2000
  141.7553   69.6000  229.0140 H   0  0  0  0  0  0  0  0  0  0  0  0
  141.1250   69.7240  228.1210 C   0  0  0  0  0  0  0  0  0  0  0  0
  141.0610   70.9640  227.4770 C   0  0  0  0  0  0  0  0  0  0  0  0
  141.6380   71.8160  227.8658 H   0  0  0  0  0  0  0  0  0  0  0  0
  140.2630   71.1210  226.3380 C   0  0  0  0  0  0  0  0  0  0  0  0
  140.2083   72.0991  225.8377 H   0  0  0  0  0  0  0  0  0  0  0  0
  139.5310   70.0330  225.8310 C   0  0  0  0  0  0  0  0  0  0  0  0
  138.6520   70.2040  224.6200 C   0  0  0  0  0  0  0  0  0  0  0  0
  137.8977   69.4035  224.6051 H   0  0  0  0  0  0  0  0  0  0  0  0
  138.1626   71.1877  224.6736 H   0  0  0  0  0  0  0  0  0  0  0  0
  139.4840   70.1360  223.3340 C   0  0  0  0  0  0  0  0  0  0  0  0
  140.5503   70.2288  223.5876 H   0  0  0  0  0  0  0  0  0  0  0  0
  139.2941   69.1725  222.8384 H   0  0  0  0  0  0  0  0  0  0  0  0
  139.1100   71.2180  222.4230 N   0  0  0  0  0  0  0  0  0  0  0  0
  139.8620   72.2100  222.0300 C   0  0  0  0  0  0  0  0  0  0  0  0
  140.9470   71.9350  221.2670 N   0  0  0  0  0  0  0  0  0  0  0  0
  141.7580   72.9290  220.8250 C   0  0  0  0  0  0  0  0  0  0  0  0
  142.9030   72.6290  220.0000 N   0  0  0  0  0  0  0  0  0  0  0  0
  143.0780   73.2710  218.6910 C   0  0  0  0  0  0  0  0  0  0  0  0
  142.1077   73.6581  218.3466 H   0  0  0  0  0  0  0  0  0  0  0  0
  143.4664   72.5253  217.9817 H   0  0  0  0  0  0  0  0  0  0  0  0
  144.0770   74.4290  218.7820 C   0  0  0  0  0  0  0  0  0  0  0  0
  143.7213   75.2580  218.1525 H   0  0  0  0  0  0  0  0  0  0  0  0
  145.0567   74.0670  218.4369 H   0  0  0  0  0  0  0  0  0  0  0  0
  144.2240   74.9090  220.1670 N   0  0  0  0  0  0  0  0  0  0  0  0
  143.3050   74.7500  220.6460 H   0  0  0  0  0  0  0  0  0  0  0  0
  145.2500   74.1540  220.9110 C   0  0  0  0  0  0  0  0  0  0  0  0
  144.9867   74.1494  221.9790 H   0  0  0  0  0  0  0  0  0  0  0  0
  146.2228   74.6419  220.7507 H   0  0  0  0  0  0  0  0  0  0  0  0
  145.3490   72.7050  220.4150 C   0  0  0  0  0  0  0  0  0  0  0  0
  146.1350   72.1959  220.9921 H   0  0  0  0  0  0  0  0  0  0  0  0
  145.5738   72.7539  219.3393 H   0  0  0  0  0  0  0  0  0  0  0  0
  144.0470   71.8990  220.5580 C   0  0  0  0  0  0  0  0  0  0  0  0
  143.8617   71.7041  221.6246 H   0  0  0  0  0  0  0  0  0  0  0  0
  144.1604   70.9558  220.0035 H   0  0  0  0  0  0  0  0  0  0  0  0
  141.4690   74.2140  221.1530 N   0  0  0  0  0  0  0  0  0  0  0  0
  140.3900   74.5160  221.9200 C   0  0  0  0  0  0  0  0  0  0  0  0
  140.1130   75.8970  222.2540 N   0  0  0  0  0  0  0  0  0  0  0  0
  138.7840   76.2720  222.7800 C   0  0  0  0  0  0  0  0  0  0  0  0
  138.7081   75.9198  223.8193 H   0  0  0  0  0  0  0  0  0  0  0  0
  138.0322   75.8046  222.1271 H   0  0  0  0  0  0  0  0  0  0  0  0
  138.5300   77.7600  222.7590 C   0  0  0  0  0  0  0  0  0  0  0  0
  137.2140   78.2470  222.7910 C   0  0  0  0  0  0  0  0  0  0  0  0
  136.3695   77.5423  222.7806 H   0  0  0  0  0  0  0  0  0  0  0  0
  136.9710   79.6220  222.8360 C   0  0  0  0  0  0  0  0  0  0  0  0
  135.9368   79.9967  222.8486 H   0  0  0  0  0  0  0  0  0  0  0  0
  138.0380   80.5210  222.8650 C   0  0  0  0  0  0  0  0  0  0  0  0
  137.8443   81.6032  222.9005 H   0  0  0  0  0  0  0  0  0  0  0  0
  139.3520   80.0470  222.8490 C   0  0  0  0  0  0  0  0  0  0  0  0
  140.1918   80.7567  222.8819 H   0  0  0  0  0  0  0  0  0  0  0  0
  139.6030   78.6680  222.7910 C   0  0  0  0  0  0  0  0  0  0  0  0
  141.0050   78.1410  222.8290 C   0  0  0  0  0  0  0  0  0  0  0  0
  141.2604   77.8581  223.8608 H   0  0  0  0  0  0  0  0  0  0  0  0
  141.6949   78.9215  222.4757 H   0  0  0  0  0  0  0  0  0  0  0  0
  141.1250   76.9170  221.9240 C   0  0  0  0  0  0  0  0  0  0  0  0
  142.1266   76.4790  222.0468 H   0  0  0  0  0  0  0  0  0  0  0  0
  140.9622   77.2398  220.8851 H   0  0  0  0  0  0  0  0  0  0  0  0
  139.5870   73.5060  222.3660 N   0  0  0  0  0  0  0  0  0  0  0  0
  138.7780   73.7340  222.9800 H   0  0  0  0  0  0  0  0  0  0  0  0
  139.5890   68.7950  226.4920 C   0  0  0  0  0  0  0  0  0  0  0  0
  139.0045   67.9434  226.1137 H   0  0  0  0  0  0  0  0  0  0  0  0
  140.3880   68.6420  227.6300 C   0  0  0  0  0  0  0  0  0  0  0  0
  140.4366   67.6684  228.1397 H   0  0  0  0  0  0  0  0  0  0  0  0
  1  2  1  0
  2  3  2  0
  3  4  1  0
  3  5  1  0
  5  6  1  0
  5  7  2  0
  7  8  1  0
  8  9  1  0
  8 10  1  0
  8 11  1  0
 11 12  1  0
 11 13  1  0
 11 14  1  0
 14 15  2  0
 15 16  1  0
 16 17  2  0
 17 18  1  0
 18 19  1  0
 19 20  1  0
 19 21  1  0
 19 22  1  0
 22 23  1  0
 22 24  1  0
 22 25  1  0
 25 26  1  0
 25 27  1  0
 27 28  1  0
 27 29  1  0
 27 30  1  0
 30 31  1  0
 30 32  1  0
 30 33  1  0
 33 34  1  0
 33 35  1  0
 17 36  1  0
 36 37  2  0
 37 38  1  0
 38 39  1  0
 39 40  1  0
 39 41  1  0
 39 42  1  0
 42 43  2  0
 43 44  1  0
 43 45  1  0
 45 46  1  0
 45 47  2  0
 47 48  1  0
 47 49  1  0
 49 50  1  0
 49 51  2  0
 51 52  1  0
 52 53  1  0
 52 54  1  0
 52 55  1  0
 55 56  1  0
 55 57  1  0
 37 58  1  0
 58 59  1  0
  7 60  1  0
 60 61  1  0
 60 62  2  0
 62 63  1  0
 62  2  1  0
 58 15  1  0
 33 18  1  0
 55 38  1  0
 51 42  1  0
M  END
>  <UniqueID>  (34) 
710

>  <SMILES>  (34) 
c1ccc(CC/N=c2/nc(N3CCCNCC3)nc(N3CCc4ccccc4C3)[nH]2)cc1

>  <Energy>  (34) 
71.07950677063752

>  <Genealogy>  (34) 
c1ccc(CCN=c2nc(N3CCCNCC3)nc(N3CCc4ccccc4C3)[nH]2)cc1 (tautomer)
c1ccc(CC/N=c2/nc(N3CCCNCC3)nc(N3CCc4ccccc4C3)[nH]2)cc1 (cis-trans isomerization)
c1ccc(CC/N=c2/nc(N3CCCNCC3)nc(N3CCc4ccccc4C3)[nH]2)cc1 (3D coordinates assigned)
c1ccc(CC/N=c2/nc(N3CCCNCC3)nc(N3CCc4ccccc4C3)[nH]2)cc1 (nonaromatic ring conformer: 71.07950677063752 kcal/mol)

>  <smiles>  (34) 
c1ccc(CCNc2nc(N3CCCNCC3)nc(N3CCc4ccccc4C3)n2)cc1

>  <score_type>  (34) 
oracle

>  <origin>  (34) 
autodockgpu

>  <m_score__min__energy>  (34) 
-8.0399999999999991

>  <m_primary>  (34) 
energy

>  <meeko>  (34) 
{"free_energy": -5.56, "intermolecular_energy": -9.14, "internal_energy": -1.71, "cluster_size": 19, "cluster_id": 1, "rank_in_cluster": 19}

>  <energy>  (34) 
-7.42

>  <cluster_rmsd>  (34) 
0.88

>  <rmsd>  (34) 
272.72

>  <cluster>  (34) 
1

$$$$
IBHRIKXMMSCQIV-SCYGCCLLNA-N
     RDKit          3D

 63 67  0  0  0  0  0  0  0  0999 V2000
  141.5306   71.7149  228.6718 H   0  0  0  0  0  0  0  0  0  0  0  0
  140.9930   71.3180  227.7980 C   0  0  0  0  0  0  0  0  0  0  0  0
  141.1250   71.9420  226.5530 C   0  0  0  0  0  0  0  0  0  0  0  0
  141.7640   72.8312  226.4486 H   0  0  0  0  0  0  0  0  0  0  0  0
  140.4440   71.4350  225.4400 C   0  0  0  0  0  0  0  0  0  0  0  0
  140.5421   71.9324  224.4638 H   0  0  0  0  0  0  0  0  0  0  0  0
  139.6350   70.2920  225.5660 C   0  0  0  0  0  0  0  0  0  0  0  0
  138.8830   69.7580  224.3770 C   0  0  0  0  0  0  0  0  0  0  0  0
  138.7887   68.6660  224.4703 H   0  0  0  0  0  0  0  0  0  0  0  0
  137.8881   70.2264  224.3487 H   0  0  0  0  0  0  0  0  0  0  0  0
  139.6210   70.0900  223.0740 C   0  0  0  0  0  0  0  0  0  0  0  0
  140.6988   70.1697  223.2791 H   0  0  0  0  0  0  0  0  0  0  0  0
  139.4310   69.2889  222.3445 H   0  0  0  0  0  0  0  0  0  0  0  0
  139.1420   71.3560  222.5200 N   0  0  0  0  0  0  0  0  0  0  0  0
  139.8690   72.3580  222.1070 C   0  0  0  0  0  0  0  0  0  0  0  0
  140.9730   72.0930  221.3680 N   0  0  0  0  0  0  0  0  0  0  0  0
  141.7590   73.0980  220.9060 C   0  0  0  0  0  0  0  0  0  0  0  0
  142.9260   72.8070  220.1070 N   0  0  0  0  0  0  0  0  0  0  0  0
  143.1720   73.5190  218.8460 C   0  0  0  0  0  0  0  0  0  0  0  0
  142.2419   73.5454  218.2592 H   0  0  0  0  0  0  0  0  0  0  0  0
  143.9602   72.9901  218.2901 H   0  0  0  0  0  0  0  0  0  0  0  0
  143.6380   74.9540  219.1140 C   0  0  0  0  0  0  0  0  0  0  0  0
  142.7656   75.6235  219.0888 H   0  0  0  0  0  0  0  0  0  0  0  0
  144.3668   75.2304  218.3379 H   0  0  0  0  0  0  0  0  0  0  0  0
  144.2950   75.0730  220.4280 N   0  0  0  0  0  0  0  0  0  0  0  0
  143.5870   74.7990  221.1500 H   0  0  0  0  0  0  0  0  0  0  0  0
  145.4440   74.1570  220.5600 C   0  0  0  0  0  0  0  0  0  0  0  0
  146.2581   74.6790  221.0843 H   0  0  0  0  0  0  0  0  0  0  0  0
  145.7581   73.8520  219.5509 H   0  0  0  0  0  0  0  0  0  0  0  0
  145.0730   72.8940  221.3490 C   0  0  0  0  0  0  0  0  0  0  0  0
  144.6760   73.2030  222.3272 H   0  0  0  0  0  0  0  0  0  0  0  0
  145.9904   72.2926  221.4308 H   0  0  0  0  0  0  0  0  0  0  0  0
  144.0230   72.0050  220.6620 C   0  0  0  0  0  0  0  0  0  0  0  0
  143.6133   71.2992  221.3995 H   0  0  0  0  0  0  0  0  0  0  0  0
  144.5110   71.4659  219.8367 H   0  0  0  0  0  0  0  0  0  0  0  0
  141.4270   74.3820  221.1880 N   0  0  0  0  0  0  0  0  0  0  0  0
  140.3270   74.6750  221.9300 C   0  0  0  0  0  0  0  0  0  0  0  0
  140.0030   76.0570  222.2150 N   0  0  0  0  0  0  0  0  0  0  0  0
  141.0540   77.0910  222.1220 C   0  0  0  0  0  0  0  0  0  0  0  0
  141.2688   77.2755  221.0590 H   0  0  0  0  0  0  0  0  0  0  0  0
  141.9328   76.7109  222.6635 H   0  0  0  0  0  0  0  0  0  0  0  0
  140.6650   78.4000  222.7660 C   0  0  0  0  0  0  0  0  0  0  0  0
  141.6580   79.3090  223.1610 C   0  0  0  0  0  0  0  0  0  0  0  0
  142.7194   79.0440  223.0457 H   0  0  0  0  0  0  0  0  0  0  0  0
  141.3060   80.5490  223.7000 C   0  0  0  0  0  0  0  0  0  0  0  0
  142.0899   81.2520  224.0184 H   0  0  0  0  0  0  0  0  0  0  0  0
  139.9610   80.8970  223.8350 C   0  0  0  0  0  0  0  0  0  0  0  0
  139.6860   81.8737  224.2599 H   0  0  0  0  0  0  0  0  0  0  0  0
  138.9640   80.0060  223.4310 C   0  0  0  0  0  0  0  0  0  0  0  0
  137.9048   80.2864  223.5285 H   0  0  0  0  0  0  0  0  0  0  0  0
  139.3110   78.7540  222.9010 C   0  0  0  0  0  0  0  0  0  0  0  0
  138.2570   77.8100  222.4120 C   0  0  0  0  0  0  0  0  0  0  0  0
  138.1421   77.9238  221.3239 H   0  0  0  0  0  0  0  0  0  0  0  0
  137.3050   78.0397  222.9129 H   0  0  0  0  0  0  0  0  0  0  0  0
  138.6580   76.3710  222.7310 C   0  0  0  0  0  0  0  0  0  0  0  0
  137.9300   75.6868  222.2707 H   0  0  0  0  0  0  0  0  0  0  0  0
  138.6716   76.2512  223.8244 H   0  0  0  0  0  0  0  0  0  0  0  0
  139.5490   73.6550  222.3970 N   0  0  0  0  0  0  0  0  0  0  0  0
  138.7240   73.8770  222.9910 H   0  0  0  0  0  0  0  0  0  0  0  0
  139.4970   69.6800  226.8230 C   0  0  0  0  0  0  0  0  0  0  0  0
  138.8510   68.7967  226.9348 H   0  0  0  0  0  0  0  0  0  0  0  0
  140.1780   70.1900  227.9320 C   0  0  0  0  0  0  0  0  0  0  0  0
  140.0724   69.7027  228.9125 H   0  0  0  0  0  0  0  0  0  0  0  0
  1  2  1  0
  2  3  2  0
  3  4  1  0
  3  5  1  0
  5  6  1  0
  5  7  2  0
  7  8  1  0
  8  9  1  0
  8 10  1  0
  8 11  1  0
 11 12  1  0
 11 13  1  0
 11 14  1  0
 14 15  2  0
 15 16  1  0
 16 17  2  0
 17 18  1  0
 18 19  1  0
 19 20  1  0
 19 21  1  0
 19 22  1  0
 22 23  1  0
 22 24  1  0
 22 25  1  0
 25 26  1  0
 25 27  1  0
 27 28  1  0
 27 29  1  0
 27 30  1  0
 30 31  1  0
 30 32  1  0
 30 33  1  0
 33 34  1  0
 33 35  1  0
 17 36  1  0
 36 37  2  0
 37 38  1  0
 38 39  1  0
 39 40  1  0
 39 41  1  0
 39 42  1  0
 42 43  2  0
 43 44  1  0
 43 45  1  0
 45 46  1  0
 45 47  2  0
 47 48  1  0
 47 49  1  0
 49 50  1  0
 49 51  2  0
 51 52  1  0
 52 53  1  0
 52 54  1  0
 52 55  1  0
 55 56  1  0
 55 57  1  0
 37 58  1  0
 58 59  1  0
  7 60  1  0
 60 61  1  0
 60 62  2  0
 62 63  1  0
 62  2  1  0
 58 15  1  0
 33 18  1  0
 55 38  1  0
 51 42  1  0
M  END
>  <UniqueID>  (35) 
710

>  <SMILES>  (35) 
c1ccc(CC/N=c2/nc(N3CCCNCC3)nc(N3CCc4ccccc4C3)[nH]2)cc1

>  <Energy>  (35) 
71.07950677063752

>  <Genealogy>  (35) 
c1ccc(CCN=c2nc(N3CCCNCC3)nc(N3CCc4ccccc4C3)[nH]2)cc1 (tautomer)
c1ccc(CC/N=c2/nc(N3CCCNCC3)nc(N3CCc4ccccc4C3)[nH]2)cc1 (cis-trans isomerization)
c1ccc(CC/N=c2/nc(N3CCCNCC3)nc(N3CCc4ccccc4C3)[nH]2)cc1 (3D coordinates assigned)
c1ccc(CC/N=c2/nc(N3CCCNCC3)nc(N3CCc4ccccc4C3)[nH]2)cc1 (nonaromatic ring conformer: 71.07950677063752 kcal/mol)

>  <smiles>  (35) 
c1ccc(CCNc2nc(N3CCCNCC3)nc(N3CCc4ccccc4C3)n2)cc1

>  <score_type>  (35) 
oracle

>  <origin>  (35) 
autodockgpu

>  <m_score__min__energy>  (35) 
-8.0399999999999991

>  <m_primary>  (35) 
energy

>  <meeko>  (35) 
{"free_energy": -6.88, "intermolecular_energy": -10.46, "internal_energy": -1.88, "cluster_size": 19, "cluster_id": 1, "rank_in_cluster": 16}

>  <energy>  (35) 
-7.4

>  <cluster_rmsd>  (35) 
1.58

>  <rmsd>  (35) 
272.75

>  <cluster>  (35) 
1

$$$$
IBHRIKXMMSCQIV-SCYGCCLLNA-N
     RDKit          3D

 63 67  0  0  0  0  0  0  0  0999 V2000
  143.2427   81.5418  222.4111 H   0  0  0  0  0  0  0  0  0  0  0  0
  142.5960   80.6540  222.4710 C   0  0  0  0  0  0  0  0  0  0  0  0
  142.3080   80.0800  223.7140 C   0  0  0  0  0  0  0  0  0  0  0  0
  142.7312   80.5149  224.6315 H   0  0  0  0  0  0  0  0  0  0  0  0
  141.4820   78.9530  223.7910 C   0  0  0  0  0  0  0  0  0  0  0  0
  141.2641   78.4992  224.7690 H   0  0  0  0  0  0  0  0  0  0  0  0
  140.9300   78.3990  222.6240 C   0  0  0  0  0  0  0  0  0  0  0  0
  140.0600   77.1730  222.7000 C   0  0  0  0  0  0  0  0  0  0  0  0
  140.6862   76.3003  222.9373 H   0  0  0  0  0  0  0  0  0  0  0  0
  139.3033   77.3250  223.4838 H   0  0  0  0  0  0  0  0  0  0  0  0
  139.3450   76.9310  221.3660 C   0  0  0  0  0  0  0  0  0  0  0  0
  138.4073   77.5059  221.3489 H   0  0  0  0  0  0  0  0  0  0  0  0
  140.0042   77.2537  220.5467 H   0  0  0  0  0  0  0  0  0  0  0  0
  139.0410   75.5100  221.1950 N   0  0  0  0  0  0  0  0  0  0  0  0
  139.8280   74.5020  221.4550 C   0  0  0  0  0  0  0  0  0  0  0  0
  141.0320   74.4460  220.8370 N   0  0  0  0  0  0  0  0  0  0  0  0
  141.8920   73.4240  221.0780 C   0  0  0  0  0  0  0  0  0  0  0  0
  143.1790   73.3800  220.4270 N   0  0  0  0  0  0  0  0  0  0  0  0
  143.3410   73.8470  219.0450 C   0  0  0  0  0  0  0  0  0  0  0  0
  143.8546   74.8197  219.0508 H   0  0  0  0  0  0  0  0  0  0  0  0
  142.3460   73.9425  218.5859 H   0  0  0  0  0  0  0  0  0  0  0  0
  144.1660   72.8480  218.2270 C   0  0  0  0  0  0  0  0  0  0  0  0
  143.7586   72.7993  217.2064 H   0  0  0  0  0  0  0  0  0  0  0  0
  144.1067   71.8665  218.7202 H   0  0  0  0  0  0  0  0  0  0  0  0
  145.5830   73.2450  218.1580 N   0  0  0  0  0  0  0  0  0  0  0  0
  145.6040   74.2710  217.9450 H   0  0  0  0  0  0  0  0  0  0  0  0
  146.2800   73.0420  219.4430 C   0  0  0  0  0  0  0  0  0  0  0  0
  147.3228   73.3765  219.3393 H   0  0  0  0  0  0  0  0  0  0  0  0
  146.2315   71.9720  219.6934 H   0  0  0  0  0  0  0  0  0  0  0  0
  145.6140   73.8320  220.5850 C   0  0  0  0  0  0  0  0  0  0  0  0
  145.2860   74.8037  220.1872 H   0  0  0  0  0  0  0  0  0  0  0  0
  146.3654   73.9307  221.3823 H   0  0  0  0  0  0  0  0  0  0  0  0
  144.3970   73.1300  221.2080 C   0  0  0  0  0  0  0  0  0  0  0  0
  144.2505   73.5073  222.2308 H   0  0  0  0  0  0  0  0  0  0  0  0
  144.5878   72.0467  221.2163 H   0  0  0  0  0  0  0  0  0  0  0  0
  141.5350   72.4520  221.9540 N   0  0  0  0  0  0  0  0  0  0  0  0
  140.3320   72.4820  222.5840 C   0  0  0  0  0  0  0  0  0  0  0  0
  139.9820   71.4260  223.5100 N   0  0  0  0  0  0  0  0  0  0  0  0
  140.4150   71.5130  224.9200 C   0  0  0  0  0  0  0  0  0  0  0  0
  139.8019   72.2728  225.4268 H   0  0  0  0  0  0  0  0  0  0  0  0
  141.4831   71.7758  224.9162 H   0  0  0  0  0  0  0  0  0  0  0  0
  140.2790   70.2100  225.6700 C   0  0  0  0  0  0  0  0  0  0  0  0
  141.0320   69.9890  226.8340 C   0  0  0  0  0  0  0  0  0  0  0  0
  141.7567   70.7456  227.1691 H   0  0  0  0  0  0  0  0  0  0  0  0
  140.8650   68.8120  227.5690 C   0  0  0  0  0  0  0  0  0  0  0  0
  141.4664   68.6402  228.4739 H   0  0  0  0  0  0  0  0  0  0  0  0
  139.9380   67.8550  227.1580 C   0  0  0  0  0  0  0  0  0  0  0  0
  139.8094   66.9295  227.7384 H   0  0  0  0  0  0  0  0  0  0  0  0
  139.1720   68.0710  226.0090 C   0  0  0  0  0  0  0  0  0  0  0  0
  138.4338   67.3196  225.6920 H   0  0  0  0  0  0  0  0  0  0  0  0
  139.3430   69.2450  225.2590 C   0  0  0  0  0  0  0  0  0  0  0  0
  138.4920   69.5170  224.0570 C   0  0  0  0  0  0  0  0  0  0  0  0
  137.6480   70.1607  224.3457 H   0  0  0  0  0  0  0  0  0  0  0  0
  138.1135   68.5643  223.6581 H   0  0  0  0  0  0  0  0  0  0  0  0
  139.3200   70.2190  222.9820 C   0  0  0  0  0  0  0  0  0  0  0  0
  138.6573   70.5087  222.1532 H   0  0  0  0  0  0  0  0  0  0  0  0
  140.0982   69.5224  222.6370 H   0  0  0  0  0  0  0  0  0  0  0  0
  139.4720   73.5100  222.3260 N   0  0  0  0  0  0  0  0  0  0  0  0
  138.5380   73.5180  222.7840 H   0  0  0  0  0  0  0  0  0  0  0  0
  141.2350   78.9720  221.3780 C   0  0  0  0  0  0  0  0  0  0  0  0
  140.8228   78.5336  220.4572 H   0  0  0  0  0  0  0  0  0  0  0  0
  142.0610   80.0980  221.3050 C   0  0  0  0  0  0  0  0  0  0  0  0
  142.2905   80.5475  220.3276 H   0  0  0  0  0  0  0  0  0  0  0  0
  1  2  1  0
  2  3  2  0
  3  4  1  0
  3  5  1  0
  5  6  1  0
  5  7  2  0
  7  8  1  0
  8  9  1  0
  8 10  1  0
  8 11  1  0
 11 12  1  0
 11 13  1  0
 11 14  1  0
 14 15  2  0
 15 16  1  0
 16 17  2  0
 17 18  1  0
 18 19  1  0
 19 20  1  0
 19 21  1  0
 19 22  1  0
 22 23  1  0
 22 24  1  0
 22 25  1  0
 25 26  1  0
 25 27  1  0
 27 28  1  0
 27 29  1  0
 27 30  1  0
 30 31  1  0
 30 32  1  0
 30 33  1  0
 33 34  1  0
 33 35  1  0
 17 36  1  0
 36 37  2  0
 37 38  1  0
 38 39  1  0
 39 40  1  0
 39 41  1  0
 39 42  1  0
 42 43  2  0
 43 44  1  0
 43 45  1  0
 45 46  1  0
 45 47  2  0
 47 48  1  0
 47 49  1  0
 49 50  1  0
 49 51  2  0
 51 52  1  0
 52 53  1  0
 52 54  1  0
 52 55  1  0
 55 56  1  0
 55 57  1  0
 37 58  1  0
 58 59  1  0
  7 60  1  0
 60 61  1  0
 60 62  2  0
 62 63  1  0
 62  2  1  0
 58 15  1  0
 33 18  1  0
 55 38  1  0
 51 42  1  0
M  END
>  <UniqueID>  (36) 
710

>  <SMILES>  (36) 
c1ccc(CC/N=c2/nc(N3CCCNCC3)nc(N3CCc4ccccc4C3)[nH]2)cc1

>  <Energy>  (36) 
71.07950677063752

>  <Genealogy>  (36) 
c1ccc(CCN=c2nc(N3CCCNCC3)nc(N3CCc4ccccc4C3)[nH]2)cc1 (tautomer)
c1ccc(CC/N=c2/nc(N3CCCNCC3)nc(N3CCc4ccccc4C3)[nH]2)cc1 (cis-trans isomerization)
c1ccc(CC/N=c2/nc(N3CCCNCC3)nc(N3CCc4ccccc4C3)[nH]2)cc1 (3D coordinates assigned)
c1ccc(CC/N=c2/nc(N3CCCNCC3)nc(N3CCc4ccccc4C3)[nH]2)cc1 (nonaromatic ring conformer: 71.07950677063752 kcal/mol)

>  <smiles>  (36) 
c1ccc(CCNc2nc(N3CCCNCC3)nc(N3CCc4ccccc4C3)n2)cc1

>  <score_type>  (36) 
oracle

>  <origin>  (36) 
autodockgpu

>  <m_score__min__energy>  (36) 
-8.0399999999999991

>  <m_primary>  (36) 
energy

>  <meeko>  (36) 
{"free_energy": -7.8, "intermolecular_energy": -11.38, "internal_energy": -0.98, "cluster_size": 19, "cluster_id": 1, "rank_in_cluster": 4}

>  <energy>  (36) 
-6.88

>  <cluster_rmsd>  (36) 
1.48

>  <rmsd>  (36) 
272.87

>  <cluster>  (36) 
1

$$$$
IBHRIKXMMSCQIV-SCYGCCLLNA-N
     RDKit          3D

 63 67  0  0  0  0  0  0  0  0999 V2000
  141.4273   80.1469  224.5420 H   0  0  0  0  0  0  0  0  0  0  0  0
  140.9900   79.4670  223.7960 C   0  0  0  0  0  0  0  0  0  0  0  0
  139.6030   79.4160  223.6240 C   0  0  0  0  0  0  0  0  0  0  0  0
  138.9494   80.0545  224.2364 H   0  0  0  0  0  0  0  0  0  0  0  0
  139.0460   78.5530  222.6730 C   0  0  0  0  0  0  0  0  0  0  0  0
  137.9542   78.5083  222.5464 H   0  0  0  0  0  0  0  0  0  0  0  0
  139.8770   77.7430  221.8790 C   0  0  0  0  0  0  0  0  0  0  0  0
  139.2800   76.7970  220.8720 C   0  0  0  0  0  0  0  0  0  0  0  0
  138.9883   77.3622  219.9745 H   0  0  0  0  0  0  0  0  0  0  0  0
  140.0300   76.0341  220.6161 H   0  0  0  0  0  0  0  0  0  0  0  0
  138.0440   76.0980  221.4500 C   0  0  0  0  0  0  0  0  0  0  0  0
  137.9790   76.3108  222.5273 H   0  0  0  0  0  0  0  0  0  0  0  0
  137.1492   76.4749  220.9330 H   0  0  0  0  0  0  0  0  0  0  0  0
  138.1300   74.6510  221.2500 N   0  0  0  0  0  0  0  0  0  0  0  0
  139.1050   73.8650  221.6170 C   0  0  0  0  0  0  0  0  0  0  0  0
  140.2970   73.9760  220.9850 N   0  0  0  0  0  0  0  0  0  0  0  0
  141.3470   73.1880  221.3330 C   0  0  0  0  0  0  0  0  0  0  0  0
  142.6180   73.3230  220.6650 N   0  0  0  0  0  0  0  0  0  0  0  0
  143.0420   72.3520  219.6480 C   0  0  0  0  0  0  0  0  0  0  0  0
  142.8731   71.3339  220.0286 H   0  0  0  0  0  0  0  0  0  0  0  0
  144.1097   72.5081  219.4343 H   0  0  0  0  0  0  0  0  0  0  0  0
  142.2480   72.5420  218.3510 C   0  0  0  0  0  0  0  0  0  0  0  0
  141.3668   71.8840  218.3720 H   0  0  0  0  0  0  0  0  0  0  0  0
  142.9047   72.2911  217.5050 H   0  0  0  0  0  0  0  0  0  0  0  0
  141.8000   73.9370  218.1900 N   0  0  0  0  0  0  0  0  0  0  0  0
  141.1610   74.1470  218.9930 H   0  0  0  0  0  0  0  0  0  0  0  0
  142.9230   74.8910  218.2520 C   0  0  0  0  0  0  0  0  0  0  0  0
  142.7635   75.6784  217.5006 H   0  0  0  0  0  0  0  0  0  0  0  0
  143.8532   74.3385  218.0533 H   0  0  0  0  0  0  0  0  0  0  0  0
  143.0410   75.5460  219.6460 C   0  0  0  0  0  0  0  0  0  0  0  0
  142.0786   76.0222  219.8849 H   0  0  0  0  0  0  0  0  0  0  0  0
  143.8718   76.2644  219.5859 H   0  0  0  0  0  0  0  0  0  0  0  0
  143.3880   74.5680  220.7800 C   0  0  0  0  0  0  0  0  0  0  0  0
  143.1591   75.0430  221.7454 H   0  0  0  0  0  0  0  0  0  0  0  0
  144.4580   74.3221  220.7112 H   0  0  0  0  0  0  0  0  0  0  0  0
  141.1920   72.2820  222.3310 N   0  0  0  0  0  0  0  0  0  0  0  0
  140.0050   72.1470  222.9780 C   0  0  0  0  0  0  0  0  0  0  0  0
  139.8730   71.1680  224.0350 N   0  0  0  0  0  0  0  0  0  0  0  0
  140.2240   71.5350  225.4230 C   0  0  0  0  0  0  0  0  0  0  0  0
  139.4356   72.1911  225.8204 H   0  0  0  0  0  0  0  0  0  0  0  0
  141.2029   72.0356  225.3894 H   0  0  0  0  0  0  0  0  0  0  0  0
  140.3630   70.3440  226.3400 C   0  0  0  0  0  0  0  0  0  0  0  0
  141.1040   70.4570  227.5280 C   0  0  0  0  0  0  0  0  0  0  0  0
  141.6221   71.3986  227.7626 H   0  0  0  0  0  0  0  0  0  0  0  0
  141.1860   69.3790  228.4130 C   0  0  0  0  0  0  0  0  0  0  0  0
  141.7784   69.4697  229.3354 H   0  0  0  0  0  0  0  0  0  0  0  0
  140.5180   68.1880  228.1290 C   0  0  0  0  0  0  0  0  0  0  0  0
  140.5841   67.3409  228.8276 H   0  0  0  0  0  0  0  0  0  0  0  0
  139.7650   68.0700  226.9580 C   0  0  0  0  0  0  0  0  0  0  0  0
  139.2306   67.1333  226.7411 H   0  0  0  0  0  0  0  0  0  0  0  0
  139.6890   69.1440  226.0580 C   0  0  0  0  0  0  0  0  0  0  0  0
  138.8420   69.0530  224.8270 C   0  0  0  0  0  0  0  0  0  0  0  0
  137.8630   69.5147  225.0230 H   0  0  0  0  0  0  0  0  0  0  0  0
  138.7071   67.9950  224.5578 H   0  0  0  0  0  0  0  0  0  0  0  0
  139.5240   69.7830  223.6710 C   0  0  0  0  0  0  0  0  0  0  0  0
  138.8418   69.8016  222.8083 H   0  0  0  0  0  0  0  0  0  0  0  0
  140.4527   69.2471  223.4255 H   0  0  0  0  0  0  0  0  0  0  0  0
  138.9550   72.9390  222.6130 N   0  0  0  0  0  0  0  0  0  0  0  0
  138.0360   72.8160  223.0860 H   0  0  0  0  0  0  0  0  0  0  0  0
  141.2680   77.7900  222.0670 C   0  0  0  0  0  0  0  0  0  0  0  0
  141.9248   77.1461  221.4637 H   0  0  0  0  0  0  0  0  0  0  0  0
  141.8210   78.6530  223.0190 C   0  0  0  0  0  0  0  0  0  0  0  0
  142.9116   78.6916  223.1569 H   0  0  0  0  0  0  0  0  0  0  0  0
  1  2  1  0
  2  3  2  0
  3  4  1  0
  3  5  1  0
  5  6  1  0
  5  7  2  0
  7  8  1  0
  8  9  1  0
  8 10  1  0
  8 11  1  0
 11 12  1  0
 11 13  1  0
 11 14  1  0
 14 15  2  0
 15 16  1  0
 16 17  2  0
 17 18  1  0
 18 19  1  0
 19 20  1  0
 19 21  1  0
 19 22  1  0
 22 23  1  0
 22 24  1  0
 22 25  1  0
 25 26  1  0
 25 27  1  0
 27 28  1  0
 27 29  1  0
 27 30  1  0
 30 31  1  0
 30 32  1  0
 30 33  1  0
 33 34  1  0
 33 35  1  0
 17 36  1  0
 36 37  2  0
 37 38  1  0
 38 39  1  0
 39 40  1  0
 39 41  1  0
 39 42  1  0
 42 43  2  0
 43 44  1  0
 43 45  1  0
 45 46  1  0
 45 47  2  0
 47 48  1  0
 47 49  1  0
 49 50  1  0
 49 51  2  0
 51 52  1  0
 52 53  1  0
 52 54  1  0
 52 55  1  0
 55 56  1  0
 55 57  1  0
 37 58  1  0
 58 59  1  0
  7 60  1  0
 60 61  1  0
 60 62  2  0
 62 63  1  0
 62  2  1  0
 58 15  1  0
 33 18  1  0
 55 38  1  0
 51 42  1  0
M  END
>  <UniqueID>  (37) 
710

>  <SMILES>  (37) 
c1ccc(CC/N=c2/nc(N3CCCNCC3)nc(N3CCc4ccccc4C3)[nH]2)cc1

>  <Energy>  (37) 
71.07950677063752

>  <Genealogy>  (37) 
c1ccc(CCN=c2nc(N3CCCNCC3)nc(N3CCc4ccccc4C3)[nH]2)cc1 (tautomer)
c1ccc(CC/N=c2/nc(N3CCCNCC3)nc(N3CCc4ccccc4C3)[nH]2)cc1 (cis-trans isomerization)
c1ccc(CC/N=c2/nc(N3CCCNCC3)nc(N3CCc4ccccc4C3)[nH]2)cc1 (3D coordinates assigned)
c1ccc(CC/N=c2/nc(N3CCCNCC3)nc(N3CCc4ccccc4C3)[nH]2)cc1 (nonaromatic ring conformer: 71.07950677063752 kcal/mol)

>  <smiles>  (37) 
c1ccc(CCNc2nc(N3CCCNCC3)nc(N3CCc4ccccc4C3)n2)cc1

>  <score_type>  (37) 
oracle

>  <origin>  (37) 
autodockgpu

>  <m_score__min__energy>  (37) 
-8.0399999999999991

>  <m_primary>  (37) 
energy

>  <meeko>  (37) 
{"free_energy": -5.58, "intermolecular_energy": -9.16, "internal_energy": -2.12, "cluster_size": 19, "cluster_id": 1, "rank_in_cluster": 18}

>  <energy>  (37) 
-6.37

>  <cluster_rmsd>  (37) 
1.58

>  <rmsd>  (37) 
272.66

>  <cluster>  (37) 
1

$$$$
IBHRIKXMMSCQIV-SCYGCCLLNA-N
     RDKit          3D

 63 67  0  0  0  0  0  0  0  0999 V2000
  140.4591   69.9993  229.3541 H   0  0  0  0  0  0  0  0  0  0  0  0
  140.4640   70.3000  228.2960 C   0  0  0  0  0  0  0  0  0  0  0  0
  139.8850   69.4700  227.3300 C   0  0  0  0  0  0  0  0  0  0  0  0
  139.4266   68.5156  227.6283 H   0  0  0  0  0  0  0  0  0  0  0  0
  139.8890   69.8540  225.9840 C   0  0  0  0  0  0  0  0  0  0  0  0
  139.4403   69.1959  225.2253 H   0  0  0  0  0  0  0  0  0  0  0  0
  140.4640   71.0770  225.5980 C   0  0  0  0  0  0  0  0  0  0  0  0
  140.4910   71.4820  224.1480 C   0  0  0  0  0  0  0  0  0  0  0  0
  140.9380   72.4833  224.0611 H   0  0  0  0  0  0  0  0  0  0  0  0
  141.0874   70.7476  223.5869 H   0  0  0  0  0  0  0  0  0  0  0  0
  139.0730   71.5120  223.5670 C   0  0  0  0  0  0  0  0  0  0  0  0
  138.7305   70.4808  223.3960 H   0  0  0  0  0  0  0  0  0  0  0  0
  138.4081   72.0205  224.2807 H   0  0  0  0  0  0  0  0  0  0  0  0
  139.0510   72.2420  222.3000 N   0  0  0  0  0  0  0  0  0  0  0  0
  139.8400   73.2190  221.9430 C   0  0  0  0  0  0  0  0  0  0  0  0
  140.9110   72.9320  221.1640 N   0  0  0  0  0  0  0  0  0  0  0  0
  141.7580   73.9110  220.7570 C   0  0  0  0  0  0  0  0  0  0  0  0
  142.8880   73.6000  219.9150 N   0  0  0  0  0  0  0  0  0  0  0  0
  144.0450   74.5010  219.8430 C   0  0  0  0  0  0  0  0  0  0  0  0
  143.8339   75.4071  220.4298 H   0  0  0  0  0  0  0  0  0  0  0  0
  144.2250   74.7613  218.7895 H   0  0  0  0  0  0  0  0  0  0  0  0
  145.2990   73.8200  220.4030 C   0  0  0  0  0  0  0  0  0  0  0  0
  145.0098   73.1792  221.2491 H   0  0  0  0  0  0  0  0  0  0  0  0
  146.0011   74.6028  220.7258 H   0  0  0  0  0  0  0  0  0  0  0  0
  145.9670   72.9930  219.3830 N   0  0  0  0  0  0  0  0  0  0  0  0
  146.9920   73.0090  219.6000 H   0  0  0  0  0  0  0  0  0  0  0  0
  145.5240   71.5870  219.4310 C   0  0  0  0  0  0  0  0  0  0  0  0
  146.2380   71.0089  220.0359 H   0  0  0  0  0  0  0  0  0  0  0  0
  145.4811   71.2060  218.4000 H   0  0  0  0  0  0  0  0  0  0  0  0
  144.1230   71.4520  220.0500 C   0  0  0  0  0  0  0  0  0  0  0  0
  144.1736   71.7943  221.0942 H   0  0  0  0  0  0  0  0  0  0  0  0
  143.8403   70.3928  219.9596 H   0  0  0  0  0  0  0  0  0  0  0  0
  143.0310   72.2610  219.3310 C   0  0  0  0  0  0  0  0  0  0  0  0
  142.0731   71.7274  219.4191 H   0  0  0  0  0  0  0  0  0  0  0  0
  143.3191   72.3715  218.2752 H   0  0  0  0  0  0  0  0  0  0  0  0
  141.5210   75.1920  221.1360 N   0  0  0  0  0  0  0  0  0  0  0  0
  140.4570   75.5060  221.9200 C   0  0  0  0  0  0  0  0  0  0  0  0
  140.2350   76.8820  222.3090 N   0  0  0  0  0  0  0  0  0  0  0  0
  138.8880   77.3160  222.7370 C   0  0  0  0  0  0  0  0  0  0  0  0
  138.6955   76.9150  223.7431 H   0  0  0  0  0  0  0  0  0  0  0  0
  138.1720   76.9346  221.9942 H   0  0  0  0  0  0  0  0  0  0  0  0
  138.7290   78.8160  222.7810 C   0  0  0  0  0  0  0  0  0  0  0  0
  137.4470   79.3860  222.7250 C   0  0  0  0  0  0  0  0  0  0  0  0
  136.5656   78.7401  222.5987 H   0  0  0  0  0  0  0  0  0  0  0  0
  137.2860   80.7700  222.8290 C   0  0  0  0  0  0  0  0  0  0  0  0
  136.2800   81.2111  222.7712 H   0  0  0  0  0  0  0  0  0  0  0  0
  138.3980   81.5940  223.0060 C   0  0  0  0  0  0  0  0  0  0  0  0
  138.2681   82.6832  223.0881 H   0  0  0  0  0  0  0  0  0  0  0  0
  139.6770   81.0350  223.0790 C   0  0  0  0  0  0  0  0  0  0  0  0
  140.5521   81.6845  223.2285 H   0  0  0  0  0  0  0  0  0  0  0  0
  139.8470   79.6480  222.9620 C   0  0  0  0  0  0  0  0  0  0  0  0
  141.2050   79.0290  223.0930 C   0  0  0  0  0  0  0  0  0  0  0  0
  141.3469   78.6760  224.1251 H   0  0  0  0  0  0  0  0  0  0  0  0
  141.9706   79.7801  222.8484 H   0  0  0  0  0  0  0  0  0  0  0  0
  141.3330   77.8490  222.1320 C   0  0  0  0  0  0  0  0  0  0  0  0
  142.2902   77.3398  222.3178 H   0  0  0  0  0  0  0  0  0  0  0  0
  141.2867   78.2369  221.1037 H   0  0  0  0  0  0  0  0  0  0  0  0
  139.6170   74.5110  222.3310 N   0  0  0  0  0  0  0  0  0  0  0  0
  138.8190   74.7450  222.9560 H   0  0  0  0  0  0  0  0  0  0  0  0
  141.0550   71.8990  226.5720 C   0  0  0  0  0  0  0  0  0  0  0  0
  141.5236   72.8494  226.2769 H   0  0  0  0  0  0  0  0  0  0  0  0
  141.0490   71.5120  227.9160 C   0  0  0  0  0  0  0  0  0  0  0  0
  141.5057   72.1628  228.6762 H   0  0  0  0  0  0  0  0  0  0  0  0
  1  2  1  0
  2  3  2  0
  3  4  1  0
  3  5  1  0
  5  6  1  0
  5  7  2  0
  7  8  1  0
  8  9  1  0
  8 10  1  0
  8 11  1  0
 11 12  1  0
 11 13  1  0
 11 14  1  0
 14 15  2  0
 15 16  1  0
 16 17  2  0
 17 18  1  0
 18 19  1  0
 19 20  1  0
 19 21  1  0
 19 22  1  0
 22 23  1  0
 22 24  1  0
 22 25  1  0
 25 26  1  0
 25 27  1  0
 27 28  1  0
 27 29  1  0
 27 30  1  0
 30 31  1  0
 30 32  1  0
 30 33  1  0
 33 34  1  0
 33 35  1  0
 17 36  1  0
 36 37  2  0
 37 38  1  0
 38 39  1  0
 39 40  1  0
 39 41  1  0
 39 42  1  0
 42 43  2  0
 43 44  1  0
 43 45  1  0
 45 46  1  0
 45 47  2  0
 47 48  1  0
 47 49  1  0
 49 50  1  0
 49 51  2  0
 51 52  1  0
 52 53  1  0
 52 54  1  0
 52 55  1  0
 55 56  1  0
 55 57  1  0
 37 58  1  0
 58 59  1  0
  7 60  1  0
 60 61  1  0
 60 62  2  0
 62 63  1  0
 62  2  1  0
 58 15  1  0
 33 18  1  0
 55 38  1  0
 51 42  1  0
M  END
>  <UniqueID>  (38) 
710

>  <SMILES>  (38) 
c1ccc(CC/N=c2/nc(N3CCCNCC3)nc(N3CCc4ccccc4C3)[nH]2)cc1

>  <Energy>  (38) 
71.07950677063752

>  <Genealogy>  (38) 
c1ccc(CCN=c2nc(N3CCCNCC3)nc(N3CCc4ccccc4C3)[nH]2)cc1 (tautomer)
c1ccc(CC/N=c2/nc(N3CCCNCC3)nc(N3CCc4ccccc4C3)[nH]2)cc1 (cis-trans isomerization)
c1ccc(CC/N=c2/nc(N3CCCNCC3)nc(N3CCc4ccccc4C3)[nH]2)cc1 (3D coordinates assigned)
c1ccc(CC/N=c2/nc(N3CCCNCC3)nc(N3CCc4ccccc4C3)[nH]2)cc1 (nonaromatic ring conformer: 71.07950677063752 kcal/mol)

>  <smiles>  (38) 
c1ccc(CCNc2nc(N3CCCNCC3)nc(N3CCc4ccccc4C3)n2)cc1

>  <score_type>  (38) 
oracle

>  <origin>  (38) 
autodockgpu

>  <m_score__min__energy>  (38) 
-8.0399999999999991

>  <m_primary>  (38) 
energy

>  <meeko>  (38) 
{"free_energy": -7.4, "intermolecular_energy": -10.98, "internal_energy": -0.96, "cluster_size": 19, "cluster_id": 1, "rank_in_cluster": 15}

>  <energy>  (38) 
-5.58

>  <cluster_rmsd>  (38) 
1.87

>  <rmsd>  (38) 
272.25

>  <cluster>  (38) 
1

$$$$
IBHRIKXMMSCQIV-SCYGCCLLNA-N
     RDKit          3D

 63 67  0  0  0  0  0  0  0  0999 V2000
  140.8521   68.4142  229.2657 H   0  0  0  0  0  0  0  0  0  0  0  0
  140.7430   69.0030  228.3430 C   0  0  0  0  0  0  0  0  0  0  0  0
  140.3300   68.3800  227.1600 C   0  0  0  0  0  0  0  0  0  0  0  0
  140.1185   67.3006  227.1519 H   0  0  0  0  0  0  0  0  0  0  0  0
  140.1860   69.1300  225.9870 C   0  0  0  0  0  0  0  0  0  0  0  0
  139.8681   68.6364  225.0568 H   0  0  0  0  0  0  0  0  0  0  0  0
  140.4460   70.5110  225.9930 C   0  0  0  0  0  0  0  0  0  0  0  0
  140.3160   71.3170  224.7280 C   0  0  0  0  0  0  0  0  0  0  0  0
  139.8016   72.2628  224.9535 H   0  0  0  0  0  0  0  0  0  0  0  0
  141.3219   71.5158  224.3298 H   0  0  0  0  0  0  0  0  0  0  0  0
  139.5120   70.5450  223.6750 C   0  0  0  0  0  0  0  0  0  0  0  0
  140.0854   69.6614  223.3581 H   0  0  0  0  0  0  0  0  0  0  0  0
  138.5525   70.2369  224.1161 H   0  0  0  0  0  0  0  0  0  0  0  0
  139.2470   71.3900  222.5100 N   0  0  0  0  0  0  0  0  0  0  0  0
  139.9570   72.4030  222.0960 C   0  0  0  0  0  0  0  0  0  0  0  0
  141.0660   72.1560  221.3580 N   0  0  0  0  0  0  0  0  0  0  0  0
  141.8360   73.1740  220.8960 C   0  0  0  0  0  0  0  0  0  0  0  0
  143.0070   72.9030  220.0970 N   0  0  0  0  0  0  0  0  0  0  0  0
  144.1800   72.2390  220.6810 C   0  0  0  0  0  0  0  0  0  0  0  0
  144.3383   71.2752  220.1750 H   0  0  0  0  0  0  0  0  0  0  0  0
  143.9989   72.0817  221.7545 H   0  0  0  0  0  0  0  0  0  0  0  0
  145.4330   73.1060  220.5150 C   0  0  0  0  0  0  0  0  0  0  0  0
  146.0397   73.0358  221.4299 H   0  0  0  0  0  0  0  0  0  0  0  0
  145.1131   74.1430  220.3351 H   0  0  0  0  0  0  0  0  0  0  0  0
  146.2460   72.6680  219.3670 N   0  0  0  0  0  0  0  0  0  0  0  0
  146.6440   71.7310  219.6130 H   0  0  0  0  0  0  0  0  0  0  0  0
  145.4370   72.5020  218.1450 C   0  0  0  0  0  0  0  0  0  0  0  0
  145.0073   71.4894  218.1381 H   0  0  0  0  0  0  0  0  0  0  0  0
  146.0944   72.6604  217.2774 H   0  0  0  0  0  0  0  0  0  0  0  0
  144.2930   73.5280  218.0690 C   0  0  0  0  0  0  0  0  0  0  0  0
  144.1410   73.7960  217.0130 H   0  0  0  0  0  0  0  0  0  0  0  0
  144.5975   74.3838  218.6894 H   0  0  0  0  0  0  0  0  0  0  0  0
  142.9540   73.0300  218.6360 C   0  0  0  0  0  0  0  0  0  0  0  0
  142.7234   72.0471  218.1992 H   0  0  0  0  0  0  0  0  0  0  0  0
  142.1747   73.7628  218.3796 H   0  0  0  0  0  0  0  0  0  0  0  0
  141.4820   74.4530  221.1770 N   0  0  0  0  0  0  0  0  0  0  0  0
  140.3780   74.7280  221.9190 C   0  0  0  0  0  0  0  0  0  0  0  0
  140.0310   76.1040  222.2040 N   0  0  0  0  0  0  0  0  0  0  0  0
  141.0680   77.1530  222.1250 C   0  0  0  0  0  0  0  0  0  0  0  0
  141.2918   77.3432  221.0649 H   0  0  0  0  0  0  0  0  0  0  0  0
  141.9462   76.7841  222.6751 H   0  0  0  0  0  0  0  0  0  0  0  0
  140.6530   78.4550  222.7680 C   0  0  0  0  0  0  0  0  0  0  0  0
  141.6290   79.3770  223.1760 C   0  0  0  0  0  0  0  0  0  0  0  0
  142.6952   79.1274  223.0719 H   0  0  0  0  0  0  0  0  0  0  0  0
  141.2530   80.6110  223.7140 C   0  0  0  0  0  0  0  0  0  0  0  0
  142.0230   81.3246  224.0425 H   0  0  0  0  0  0  0  0  0  0  0  0
  139.9020   80.9390  223.8350 C   0  0  0  0  0  0  0  0  0  0  0  0
  139.6082   81.9106  224.2589 H   0  0  0  0  0  0  0  0  0  0  0  0
  138.9220   80.0340  223.4180 C   0  0  0  0  0  0  0  0  0  0  0  0
  137.8578   80.2985  223.5048 H   0  0  0  0  0  0  0  0  0  0  0  0
  139.2930   78.7890  222.8890 C   0  0  0  0  0  0  0  0  0  0  0  0
  138.2570   77.8310  222.3860 C   0  0  0  0  0  0  0  0  0  0  0  0
  138.1520   77.9459  221.2971 H   0  0  0  0  0  0  0  0  0  0  0  0
  137.2962   78.0458  222.8767 H   0  0  0  0  0  0  0  0  0  0  0  0
  138.6760   76.3980  222.7060 C   0  0  0  0  0  0  0  0  0  0  0  0
  137.9630   75.7043  222.2365 H   0  0  0  0  0  0  0  0  0  0  0  0
  138.6801   76.2766  223.7993 H   0  0  0  0  0  0  0  0  0  0  0  0
  139.6160   73.6950  222.3860 N   0  0  0  0  0  0  0  0  0  0  0  0
  138.7880   73.9030  222.9800 H   0  0  0  0  0  0  0  0  0  0  0  0
  140.8740   71.1270  227.1820 C   0  0  0  0  0  0  0  0  0  0  0  0
  141.0970   72.2041  227.1922 H   0  0  0  0  0  0  0  0  0  0  0  0
  141.0170   70.3740  228.3520 C   0  0  0  0  0  0  0  0  0  0  0  0
  141.3459   70.8617  229.2815 H   0  0  0  0  0  0  0  0  0  0  0  0
  1  2  1  0
  2  3  2  0
  3  4  1  0
  3  5  1  0
  5  6  1  0
  5  7  2  0
  7  8  1  0
  8  9  1  0
  8 10  1  0
  8 11  1  0
 11 12  1  0
 11 13  1  0
 11 14  1  0
 14 15  2  0
 15 16  1  0
 16 17  2  0
 17 18  1  0
 18 19  1  0
 19 20  1  0
 19 21  1  0
 19 22  1  0
 22 23  1  0
 22 24  1  0
 22 25  1  0
 25 26  1  0
 25 27  1  0
 27 28  1  0
 27 29  1  0
 27 30  1  0
 30 31  1  0
 30 32  1  0
 30 33  1  0
 33 34  1  0
 33 35  1  0
 17 36  1  0
 36 37  2  0
 37 38  1  0
 38 39  1  0
 39 40  1  0
 39 41  1  0
 39 42  1  0
 42 43  2  0
 43 44  1  0
 43 45  1  0
 45 46  1  0
 45 47  2  0
 47 48  1  0
 47 49  1  0
 49 50  1  0
 49 51  2  0
 51 52  1  0
 52 53  1  0
 52 54  1  0
 52 55  1  0
 55 56  1  0
 55 57  1  0
 37 58  1  0
 58 59  1  0
  7 60  1  0
 60 61  1  0
 60 62  2  0
 62 63  1  0
 62  2  1  0
 58 15  1  0
 33 18  1  0
 55 38  1  0
 51 42  1  0
M  END
>  <UniqueID>  (39) 
710

>  <SMILES>  (39) 
c1ccc(CC/N=c2/nc(N3CCCNCC3)nc(N3CCc4ccccc4C3)[nH]2)cc1

>  <Energy>  (39) 
71.07950677063752

>  <Genealogy>  (39) 
c1ccc(CCN=c2nc(N3CCCNCC3)nc(N3CCc4ccccc4C3)[nH]2)cc1 (tautomer)
c1ccc(CC/N=c2/nc(N3CCCNCC3)nc(N3CCc4ccccc4C3)[nH]2)cc1 (cis-trans isomerization)
c1ccc(CC/N=c2/nc(N3CCCNCC3)nc(N3CCc4ccccc4C3)[nH]2)cc1 (3D coordinates assigned)
c1ccc(CC/N=c2/nc(N3CCCNCC3)nc(N3CCc4ccccc4C3)[nH]2)cc1 (nonaromatic ring conformer: 71.07950677063752 kcal/mol)

>  <smiles>  (39) 
c1ccc(CCNc2nc(N3CCCNCC3)nc(N3CCc4ccccc4C3)n2)cc1

>  <score_type>  (39) 
oracle

>  <origin>  (39) 
autodockgpu

>  <m_score__min__energy>  (39) 
-8.0399999999999991

>  <m_primary>  (39) 
energy

>  <meeko>  (39) 
{"free_energy": -7.78, "intermolecular_energy": -11.36, "internal_energy": -0.89, "cluster_size": 19, "cluster_id": 1, "rank_in_cluster": 5}

>  <energy>  (39) 
-5.56

>  <cluster_rmsd>  (39) 
1.61

>  <rmsd>  (39) 
272.58

>  <cluster>  (39) 
1

$$$$
IBHRIKXMMSCQIV-SCYGCCLLNA-N
     RDKit          3D

 63 67  0  0  0  0  0  0  0  0999 V2000
  141.5128   71.8606  229.0259 H   0  0  0  0  0  0  0  0  0  0  0  0
  141.1010   71.4740  228.0820 C   0  0  0  0  0  0  0  0  0  0  0  0
  141.4140   72.1030  226.8730 C   0  0  0  0  0  0  0  0  0  0  0  0
  142.0701   72.9859  226.8665 H   0  0  0  0  0  0  0  0  0  0  0  0
  140.8930   71.6100  225.6710 C   0  0  0  0  0  0  0  0  0  0  0  0
  141.1346   72.1116  224.7223 H   0  0  0  0  0  0  0  0  0  0  0  0
  140.0620   70.4760  225.6720 C   0  0  0  0  0  0  0  0  0  0  0  0
  139.4810   69.9570  224.3850 C   0  0  0  0  0  0  0  0  0  0  0  0
  140.2911   69.8156  223.6544 H   0  0  0  0  0  0  0  0  0  0  0  0
  138.9762   69.0004  224.5855 H   0  0  0  0  0  0  0  0  0  0  0  0
  138.4560   70.9450  223.8150 C   0  0  0  0  0  0  0  0  0  0  0  0
  137.4596   70.4790  223.8262 H   0  0  0  0  0  0  0  0  0  0  0  0
  138.4577   71.8544  224.4339 H   0  0  0  0  0  0  0  0  0  0  0  0
  138.8010   71.3090  222.4410 N   0  0  0  0  0  0  0  0  0  0  0  0
  139.6120   72.2570  222.0600 C   0  0  0  0  0  0  0  0  0  0  0  0
  140.7330   71.9150  221.3810 N   0  0  0  0  0  0  0  0  0  0  0  0
  141.6060   72.8630  220.9540 C   0  0  0  0  0  0  0  0  0  0  0  0
  142.7910   72.4910  220.2190 N   0  0  0  0  0  0  0  0  0  0  0  0
  143.9410   71.8840  220.9010 C   0  0  0  0  0  0  0  0  0  0  0  0
  144.1298   70.8883  220.4732 H   0  0  0  0  0  0  0  0  0  0  0  0
  143.7122   71.8022  221.9738 H   0  0  0  0  0  0  0  0  0  0  0  0
  145.1930   72.7500  220.7300 C   0  0  0  0  0  0  0  0  0  0  0  0
  145.7647   72.7404  221.6697 H   0  0  0  0  0  0  0  0  0  0  0  0
  144.8727   73.7710  220.4752 H   0  0  0  0  0  0  0  0  0  0  0  0
  146.0530   72.2520  219.6420 N   0  0  0  0  0  0  0  0  0  0  0  0
  146.5290   71.3900  220.0000 H   0  0  0  0  0  0  0  0  0  0  0  0
  145.2730   71.8670  218.4500 C   0  0  0  0  0  0  0  0  0  0  0  0
  144.8416   70.8686  218.6144 H   0  0  0  0  0  0  0  0  0  0  0  0
  145.9510   71.8680  217.5838 H   0  0  0  0  0  0  0  0  0  0  0  0
  144.1330   72.8610  218.1650 C   0  0  0  0  0  0  0  0  0  0  0  0
  144.0229   72.9544  217.0745 H   0  0  0  0  0  0  0  0  0  0  0  0
  144.4135   73.8071  218.6511 H   0  0  0  0  0  0  0  0  0  0  0  0
  142.7720   72.4540  218.7520 C   0  0  0  0  0  0  0  0  0  0  0  0
  142.5307   71.4326  218.4225 H   0  0  0  0  0  0  0  0  0  0  0  0
  142.0136   73.1671  218.3967 H   0  0  0  0  0  0  0  0  0  0  0  0
  141.3430   74.1690  221.2110 N   0  0  0  0  0  0  0  0  0  0  0  0
  140.2280   74.5390  221.8920 C   0  0  0  0  0  0  0  0  0  0  0  0
  139.9790   75.9410  222.1520 N   0  0  0  0  0  0  0  0  0  0  0  0
  141.0860   76.9140  222.0470 C   0  0  0  0  0  0  0  0  0  0  0  0
  141.3154   77.0677  220.9822 H   0  0  0  0  0  0  0  0  0  0  0  0
  141.9400   76.4956  222.5998 H   0  0  0  0  0  0  0  0  0  0  0  0
  140.7670   78.2530  222.6660 C   0  0  0  0  0  0  0  0  0  0  0  0
  141.8080   79.1140  223.0500 C   0  0  0  0  0  0  0  0  0  0  0  0
  142.8537   78.7897  222.9439 H   0  0  0  0  0  0  0  0  0  0  0  0
  141.5220   80.3800  223.5660 C   0  0  0  0  0  0  0  0  0  0  0  0
  142.3419   81.0441  223.8768 H   0  0  0  0  0  0  0  0  0  0  0  0
  140.1980   80.8040  223.6880 C   0  0  0  0  0  0  0  0  0  0  0  0
  139.9755   81.8016  224.0946 H   0  0  0  0  0  0  0  0  0  0  0  0
  139.1550   79.9620  223.2940 C   0  0  0  0  0  0  0  0  0  0  0  0
  138.1124   80.3016  223.3814 H   0  0  0  0  0  0  0  0  0  0  0  0
  139.4350   78.6840  222.7870 C   0  0  0  0  0  0  0  0  0  0  0  0
  138.3320   77.7910  222.3090 C   0  0  0  0  0  0  0  0  0  0  0  0
  138.2279   77.8918  221.2186 H   0  0  0  0  0  0  0  0  0  0  0  0
  137.3920   78.0817  222.8009 H   0  0  0  0  0  0  0  0  0  0  0  0
  138.6520   76.3380  222.6550 C   0  0  0  0  0  0  0  0  0  0  0  0
  137.8893   75.6869  222.2029 H   0  0  0  0  0  0  0  0  0  0  0  0
  138.6546   76.2373  223.7504 H   0  0  0  0  0  0  0  0  0  0  0  0
  139.3620   73.5760  222.3250 N   0  0  0  0  0  0  0  0  0  0  0  0
  138.5240   73.8550  222.8740 H   0  0  0  0  0  0  0  0  0  0  0  0
  139.7410   69.8580  226.8930 C   0  0  0  0  0  0  0  0  0  0  0  0
  139.0760   68.9819  226.9058 H   0  0  0  0  0  0  0  0  0  0  0  0
  140.2640   70.3530  228.0910 C   0  0  0  0  0  0  0  0  0  0  0  0
  140.0170   69.8601  229.0429 H   0  0  0  0  0  0  0  0  0  0  0  0
  1  2  1  0
  2  3  2  0
  3  4  1  0
  3  5  1  0
  5  6  1  0
  5  7  2  0
  7  8  1  0
  8  9  1  0
  8 10  1  0
  8 11  1  0
 11 12  1  0
 11 13  1  0
 11 14  1  0
 14 15  2  0
 15 16  1  0
 16 17  2  0
 17 18  1  0
 18 19  1  0
 19 20  1  0
 19 21  1  0
 19 22  1  0
 22 23  1  0
 22 24  1  0
 22 25  1  0
 25 26  1  0
 25 27  1  0
 27 28  1  0
 27 29  1  0
 27 30  1  0
 30 31  1  0
 30 32  1  0
 30 33  1  0
 33 34  1  0
 33 35  1  0
 17 36  1  0
 36 37  2  0
 37 38  1  0
 38 39  1  0
 39 40  1  0
 39 41  1  0
 39 42  1  0
 42 43  2  0
 43 44  1  0
 43 45  1  0
 45 46  1  0
 45 47  2  0
 47 48  1  0
 47 49  1  0
 49 50  1  0
 49 51  2  0
 51 52  1  0
 52 53  1  0
 52 54  1  0
 52 55  1  0
 55 56  1  0
 55 57  1  0
 37 58  1  0
 58 59  1  0
  7 60  1  0
 60 61  1  0
 60 62  2  0
 62 63  1  0
 62  2  1  0
 58 15  1  0
 33 18  1  0
 55 38  1  0
 51 42  1  0
M  END
>  <UniqueID>  (40) 
710

>  <SMILES>  (40) 
c1ccc(CC/N=c2/nc(N3CCCNCC3)nc(N3CCc4ccccc4C3)[nH]2)cc1

>  <Energy>  (40) 
71.07950677063752

>  <Genealogy>  (40) 
c1ccc(CCN=c2nc(N3CCCNCC3)nc(N3CCc4ccccc4C3)[nH]2)cc1 (tautomer)
c1ccc(CC/N=c2/nc(N3CCCNCC3)nc(N3CCc4ccccc4C3)[nH]2)cc1 (cis-trans isomerization)
c1ccc(CC/N=c2/nc(N3CCCNCC3)nc(N3CCc4ccccc4C3)[nH]2)cc1 (3D coordinates assigned)
c1ccc(CC/N=c2/nc(N3CCCNCC3)nc(N3CCc4ccccc4C3)[nH]2)cc1 (nonaromatic ring conformer: 71.07950677063752 kcal/mol)

>  <smiles>  (40) 
c1ccc(CCNc2nc(N3CCCNCC3)nc(N3CCc4ccccc4C3)n2)cc1

>  <score_type>  (40) 
oracle

>  <origin>  (40) 
autodockgpu

>  <m_score__min__energy>  (40) 
-8.0399999999999991

>  <m_primary>  (40) 
energy

>  <meeko>  (40) 
{"free_energy": -7.58, "intermolecular_energy": -11.16, "internal_energy": -1.04, "cluster_size": 19, "cluster_id": 1, "rank_in_cluster": 10}

>  <energy>  (40) 
-6.84

>  <cluster_rmsd>  (40) 
0.0

>  <rmsd>  (40) 
271.91

>  <cluster>  (40) 
2

$$$$
IBHRIKXMMSCQIV-DXVXUIDUNA-O
     RDKit          3D

 64 68  0  0  0  0  0  0  0  0999 V2000
  143.0155   81.1348  224.3435 H   0  0  0  0  0  0  0  0  0  0  0  0
  142.5220   80.4040  223.6860 C   0  0  0  0  0  0  0  0  0  0  0  0
  141.9150   79.2700  224.2330 C   0  0  0  0  0  0  0  0  0  0  0  0
  141.9170   79.1161  225.3222 H   0  0  0  0  0  0  0  0  0  0  0  0
  141.3050   78.3310  223.3950 C   0  0  0  0  0  0  0  0  0  0  0  0
  140.8392   77.4330  223.8271 H   0  0  0  0  0  0  0  0  0  0  0  0
  141.2840   78.5290  222.0020 C   0  0  0  0  0  0  0  0  0  0  0  0
  140.5990   77.5380  221.1020 C   0  0  0  0  0  0  0  0  0  0  0  0
  140.4465   78.0008  220.1158 H   0  0  0  0  0  0  0  0  0  0  0  0
  141.2396   76.6467  221.0298 H   0  0  0  0  0  0  0  0  0  0  0  0
  139.2380   77.0980  221.6580 C   0  0  0  0  0  0  0  0  0  0  0  0
  139.2441   77.2051  222.7528 H   0  0  0  0  0  0  0  0  0  0  0  0
  138.4551   77.7314  221.2154 H   0  0  0  0  0  0  0  0  0  0  0  0
  138.9620   75.7020  221.3140 N   0  0  0  0  0  0  0  0  0  0  0  0
  139.7580   74.6960  221.5380 C   0  0  0  0  0  0  0  0  0  0  0  0
  139.4210   73.7180  222.4230 N   0  0  0  0  0  0  0  0  0  0  0  0
  140.2610   72.6770  222.6630 C   0  0  0  0  0  0  0  0  0  0  0  0
  139.8980   71.6320  223.5930 N   0  0  0  0  0  0  0  0  0  0  0  0
  140.5620   71.5730  224.9060 C   0  0  0  0  0  0  0  0  0  0  0  0
  140.1215   72.3429  225.5565 H   0  0  0  0  0  0  0  0  0  0  0  0
  141.6361   71.7417  224.7394 H   0  0  0  0  0  0  0  0  0  0  0  0
  140.4150   70.2300  225.5820 C   0  0  0  0  0  0  0  0  0  0  0  0
  141.0200   70.0360  226.8330 C   0  0  0  0  0  0  0  0  0  0  0  0
  141.5726   70.8609  227.3066 H   0  0  0  0  0  0  0  0  0  0  0  0
  140.9250   68.8000  227.4820 C   0  0  0  0  0  0  0  0  0  0  0  0
  141.4048   68.6551  228.4612 H   0  0  0  0  0  0  0  0  0  0  0  0
  140.2220   67.7510  226.8880 C   0  0  0  0  0  0  0  0  0  0  0  0
  140.1532   66.7783  227.3971 H   0  0  0  0  0  0  0  0  0  0  0  0
  139.6060   67.9340  225.6490 C   0  0  0  0  0  0  0  0  0  0  0  0
  139.0555   67.1029  225.1840 H   0  0  0  0  0  0  0  0  0  0  0  0
  139.6850   69.1740  224.9920 C   0  0  0  0  0  0  0  0  0  0  0  0
  139.0650   69.3330  223.6310 C   0  0  0  0  0  0  0  0  0  0  0  0
  138.1476   68.7282  223.5801 H   0  0  0  0  0  0  0  0  0  0  0  0
  139.7885   68.9974  222.8735 H   0  0  0  0  0  0  0  0  0  0  0  0
  138.7170   70.7910  223.3600 C   0  0  0  0  0  0  0  0  0  0  0  0
  137.9058   71.1048  224.0334 H   0  0  0  0  0  0  0  0  0  0  0  0
  138.3918   70.9003  222.3149 H   0  0  0  0  0  0  0  0  0  0  0  0
  141.4520   72.6250  222.0120 N   0  0  0  0  0  0  0  0  0  0  0  0
  141.7990   73.5950  221.1290 C   0  0  0  0  0  0  0  0  0  0  0  0
  143.0530   73.5170  220.4440 N   0  0  0  0  0  0  0  0  0  0  0  0
  143.4470   72.2340  219.8500 C   0  0  0  0  0  0  0  0  0  0  0  0
  144.1776   71.7407  220.5079 H   0  0  0  0  0  0  0  0  0  0  0  0
  142.5507   71.6064  219.7369 H   0  0  0  0  0  0  0  0  0  0  0  0
  144.0760   72.4470  218.4710 C   0  0  0  0  0  0  0  0  0  0  0  0
  145.1420   72.6848  218.6018 H   0  0  0  0  0  0  0  0  0  0  0  0
  143.9377   71.5217  217.8925 H   0  0  0  0  0  0  0  0  0  0  0  0
  143.4080   73.5890  217.6940 C   0  0  0  0  0  0  0  0  0  0  0  0
  143.4245   73.3419  216.6222 H   0  0  0  0  0  0  0  0  0  0  0  0
  142.3804   73.6912  218.0729 H   0  0  0  0  0  0  0  0  0  0  0  0
  144.0830   74.8810  217.8890 N   0  0  0  0  0  0  0  0  0  0  0  0
  143.9630   75.4870  217.0440 H   0  0  0  0  0  0  0  0  0  0  0  0
  145.1060   74.6820  217.9810 H   0  0  0  0  0  0  0  0  0  0  0  0
  143.6490   75.5810  219.1120 C   0  0  0  0  0  0  0  0  0  0  0  0
  144.2212   76.5157  219.2060 H   0  0  0  0  0  0  0  0  0  0  0  0
  142.5702   75.7764  219.0219 H   0  0  0  0  0  0  0  0  0  0  0  0
  143.8690   74.7370  220.3800 C   0  0  0  0  0  0  0  0  0  0  0  0
  144.9288   74.4450  220.4197 H   0  0  0  0  0  0  0  0  0  0  0  0
  143.5657   75.3636  221.2317 H   0  0  0  0  0  0  0  0  0  0  0  0
  140.9490   74.6280  220.8860 N   0  0  0  0  0  0  0  0  0  0  0  0
  141.2210   75.3730  220.2050 H   0  0  0  0  0  0  0  0  0  0  0  0
  141.8760   79.6820  221.4610 C   0  0  0  0  0  0  0  0  0  0  0  0
  141.8474   79.8557  220.3752 H   0  0  0  0  0  0  0  0  0  0  0  0
  142.5020   80.6100  222.3000 C   0  0  0  0  0  0  0  0  0  0  0  0
  142.9795   81.5032  221.8709 H   0  0  0  0  0  0  0  0  0  0  0  0
  1  2  1  0
  2  3  2  0
  3  4  1  0
  3  5  1  0
  5  6  1  0
  5  7  2  0
  7  8  1  0
  8  9  1  0
  8 10  1  0
  8 11  1  0
 11 12  1  0
 11 13  1  0
 11 14  1  0
 14 15  2  0
 15 16  1  0
 16 17  2  0
 17 18  1  0
 18 19  1  0
 19 20  1  0
 19 21  1  0
 19 22  1  0
 22 23  2  0
 23 24  1  0
 23 25  1  0
 25 26  1  0
 25 27  2  0
 27 28  1  0
 27 29  1  0
 29 30  1  0
 29 31  2  0
 31 32  1  0
 32 33  1  0
 32 34  1  0
 32 35  1  0
 35 36  1  0
 35 37  1  0
 17 38  1  0
 38 39  2  0
 39 40  1  0
 40 41  1  0
 41 42  1  0
 41 43  1  0
 41 44  1  0
 44 45  1  0
 44 46  1  0
 44 47  1  0
 47 48  1  0
 47 49  1  0
 47 50  1  0
 50 51  1  0
 50 52  1  0
 50 53  1  0
 53 54  1  0
 53 55  1  0
 53 56  1  0
 56 57  1  0
 56 58  1  0
 39 59  1  0
 59 60  1  0
  7 61  1  0
 61 62  1  0
 61 63  2  0
 63 64  1  0
 63  2  1  0
 59 15  1  0
 35 18  1  0
 56 40  1  0
 31 22  1  0
M  CHG  1  50   1
M  END
>  <UniqueID>  (41) 
711

>  <SMILES>  (41) 
c1ccc(CC/N=c2\nc(N3CCc4ccccc4C3)nc(N3CCC[NH2+]CC3)[nH]2)cc1

>  <Energy>  (41) 
73.4440716094754

>  <Genealogy>  (41) 
c1ccc(CCNc2nc(N3CCC[NH2+]CC3)nc(N3CCc4ccccc4C3)n2)cc1 (protonated)
c1ccc(CCN=c2nc(N3CCc4ccccc4C3)nc(N3CCC[NH2+]CC3)[nH]2)cc1 (tautomer)
c1ccc(CC/N=c2\nc(N3CCc4ccccc4C3)nc(N3CCC[NH2+]CC3)[nH]2)cc1 (cis-trans isomerization)
c1ccc(CC/N=c2\nc(N3CCc4ccccc4C3)nc(N3CCC[NH2+]CC3)[nH]2)cc1 (3D coordinates assigned)
c1ccc(CC/N=c2\nc(N3CCc4ccccc4C3)nc(N3CCC[NH2+]CC3)[nH]2)cc1 (nonaromatic ring conformer: 73.4440716094754 kcal/mol)

>  <smiles>  (41) 
c1ccc(CCNc2nc(N3CCCNCC3)nc(N3CCc4ccccc4C3)n2)cc1

>  <score_type>  (41) 
oracle

>  <origin>  (41) 
autodockgpu

>  <m_score__min__energy>  (41) 
-7.3499999999999996

>  <m_primary>  (41) 
energy

>  <meeko>  (41) 
{"free_energy": -7.35, "intermolecular_energy": -10.93, "internal_energy": -1.01, "cluster_size": 3, "cluster_id": 1, "rank_in_cluster": 1}

>  <energy>  (41) 
-7.35

>  <cluster_rmsd>  (41) 
0.0

>  <rmsd>  (41) 
270.69

>  <cluster>  (41) 
1

$$$$
IBHRIKXMMSCQIV-DXVXUIDUNA-O
     RDKit          3D

 64 68  0  0  0  0  0  0  0  0999 V2000
  142.0470   79.9490  222.4924 H   0  0  0  0  0  0  0  0  0  0  0  0
  141.1870   79.2640  222.5270 C   0  0  0  0  0  0  0  0  0  0  0  0
  141.3310   77.9390  222.1050 C   0  0  0  0  0  0  0  0  0  0  0  0
  142.3086   77.5769  221.7539 H   0  0  0  0  0  0  0  0  0  0  0  0
  140.2330   77.0740  222.1290 C   0  0  0  0  0  0  0  0  0  0  0  0
  140.3461   76.0360  221.7828 H   0  0  0  0  0  0  0  0  0  0  0  0
  138.9840   77.5250  222.5940 C   0  0  0  0  0  0  0  0  0  0  0  0
  137.8090   76.5870  222.6540 C   0  0  0  0  0  0  0  0  0  0  0  0
  138.1459   75.6221  223.0609 H   0  0  0  0  0  0  0  0  0  0  0  0
  137.0423   77.0452  223.2961 H   0  0  0  0  0  0  0  0  0  0  0  0
  137.1880   76.3510  221.2720 C   0  0  0  0  0  0  0  0  0  0  0  0
  136.1039   76.5281  221.3290 H   0  0  0  0  0  0  0  0  0  0  0  0
  137.6524   77.0433  220.5543 H   0  0  0  0  0  0  0  0  0  0  0  0
  137.4270   74.9780  220.8210 N   0  0  0  0  0  0  0  0  0  0  0  0
  138.4480   74.2400  221.1510 C   0  0  0  0  0  0  0  0  0  0  0  0
  138.3420   73.2900  222.1210 N   0  0  0  0  0  0  0  0  0  0  0  0
  139.4130   72.5310  222.4720 C   0  0  0  0  0  0  0  0  0  0  0  0
  139.2960   71.5130  223.4920 N   0  0  0  0  0  0  0  0  0  0  0  0
  140.2000   71.5520  224.6540 C   0  0  0  0  0  0  0  0  0  0  0  0
  139.8450   72.3275  225.3486 H   0  0  0  0  0  0  0  0  0  0  0  0
  141.2106   71.7696  224.2781 H   0  0  0  0  0  0  0  0  0  0  0  0
  140.2660   70.2360  225.3940 C   0  0  0  0  0  0  0  0  0  0  0  0
  141.1080   70.1340  226.5120 C   0  0  0  0  0  0  0  0  0  0  0  0
  141.6883   71.0087  226.8407 H   0  0  0  0  0  0  0  0  0  0  0  0
  141.2140   68.9270  227.2110 C   0  0  0  0  0  0  0  0  0  0  0  0
  141.8797   68.8538  228.0837 H   0  0  0  0  0  0  0  0  0  0  0  0
  140.4760   67.8160  226.8020 C   0  0  0  0  0  0  0  0  0  0  0  0
  140.5643   66.8664  227.3501 H   0  0  0  0  0  0  0  0  0  0  0  0
  139.6260   67.9070  225.6990 C   0  0  0  0  0  0  0  0  0  0  0  0
  139.0483   67.0271  225.3795 H   0  0  0  0  0  0  0  0  0  0  0  0
  139.5040   69.1170  224.9940 C   0  0  0  0  0  0  0  0  0  0  0  0
  138.6280   69.1780  223.7720 C   0  0  0  0  0  0  0  0  0  0  0  0
  137.7562   68.5238  223.9203 H   0  0  0  0  0  0  0  0  0  0  0  0
  139.2131   68.8452  222.9020 H   0  0  0  0  0  0  0  0  0  0  0  0
  138.1470   70.6020  223.5210 C   0  0  0  0  0  0  0  0  0  0  0  0
  137.4611   70.9037  224.3263 H   0  0  0  0  0  0  0  0  0  0  0  0
  137.6231   70.6450  222.5547 H   0  0  0  0  0  0  0  0  0  0  0  0
  140.6010   72.7360  221.8470 N   0  0  0  0  0  0  0  0  0  0  0  0
  140.7190   73.6810  220.8810 C   0  0  0  0  0  0  0  0  0  0  0  0
  141.9760   73.8750  220.2250 N   0  0  0  0  0  0  0  0  0  0  0  0
  142.0870   74.9430  219.2260 C   0  0  0  0  0  0  0  0  0  0  0  0
  142.3240   74.4991  218.2478 H   0  0  0  0  0  0  0  0  0  0  0  0
  141.1300   75.4833  219.1784 H   0  0  0  0  0  0  0  0  0  0  0  0
  143.1910   75.9310  219.6100 C   0  0  0  0  0  0  0  0  0  0  0  0
  143.5161   76.4664  218.7057 H   0  0  0  0  0  0  0  0  0  0  0  0
  142.7774   76.6209  220.3603 H   0  0  0  0  0  0  0  0  0  0  0  0
  144.4080   75.2350  220.2350 C   0  0  0  0  0  0  0  0  0  0  0  0
  145.2006   75.9822  220.3883 H   0  0  0  0  0  0  0  0  0  0  0  0
  144.0828   74.7865  221.1853 H   0  0  0  0  0  0  0  0  0  0  0  0
  144.9380   74.1530  219.3910 N   0  0  0  0  0  0  0  0  0  0  0  0
  145.9600   74.0200  219.5670 H   0  0  0  0  0  0  0  0  0  0  0  0
  144.8360   74.4600  218.3970 H   0  0  0  0  0  0  0  0  0  0  0  0
  144.2010   72.8850  219.5480 C   0  0  0  0  0  0  0  0  0  0  0  0
  143.7534   72.6145  218.5803 H   0  0  0  0  0  0  0  0  0  0  0  0
  144.9159   72.1217  219.8890 H   0  0  0  0  0  0  0  0  0  0  0  0
  143.0820   72.9830  220.6000 C   0  0  0  0  0  0  0  0  0  0  0  0
  142.6721   71.9752  220.7618 H   0  0  0  0  0  0  0  0  0  0  0  0
  143.5376   73.4097  221.5058 H   0  0  0  0  0  0  0  0  0  0  0  0
  139.6410   74.4290  220.5270 N   0  0  0  0  0  0  0  0  0  0  0  0
  139.7360   75.1570  219.7830 H   0  0  0  0  0  0  0  0  0  0  0  0
  138.8510   78.8510  223.0380 C   0  0  0  0  0  0  0  0  0  0  0  0
  137.8833   79.2074  223.4209 H   0  0  0  0  0  0  0  0  0  0  0  0
  139.9470   79.7190  222.9940 C   0  0  0  0  0  0  0  0  0  0  0  0
  139.8350   80.7614  223.3269 H   0  0  0  0  0  0  0  0  0  0  0  0
  1  2  1  0
  2  3  2  0
  3  4  1  0
  3  5  1  0
  5  6  1  0
  5  7  2  0
  7  8  1  0
  8  9  1  0
  8 10  1  0
  8 11  1  0
 11 12  1  0
 11 13  1  0
 11 14  1  0
 14 15  2  0
 15 16  1  0
 16 17  2  0
 17 18  1  0
 18 19  1  0
 19 20  1  0
 19 21  1  0
 19 22  1  0
 22 23  2  0
 23 24  1  0
 23 25  1  0
 25 26  1  0
 25 27  2  0
 27 28  1  0
 27 29  1  0
 29 30  1  0
 29 31  2  0
 31 32  1  0
 32 33  1  0
 32 34  1  0
 32 35  1  0
 35 36  1  0
 35 37  1  0
 17 38  1  0
 38 39  2  0
 39 40  1  0
 40 41  1  0
 41 42  1  0
 41 43  1  0
 41 44  1  0
 44 45  1  0
 44 46  1  0
 44 47  1  0
 47 48  1  0
 47 49  1  0
 47 50  1  0
 50 51  1  0
 50 52  1  0
 50 53  1  0
 53 54  1  0
 53 55  1  0
 53 56  1  0
 56 57  1  0
 56 58  1  0
 39 59  1  0
 59 60  1  0
  7 61  1  0
 61 62  1  0
 61 63  2  0
 63 64  1  0
 63  2  1  0
 59 15  1  0
 35 18  1  0
 56 40  1  0
 31 22  1  0
M  CHG  1  50   1
M  END
>  <UniqueID>  (42) 
711

>  <SMILES>  (42) 
c1ccc(CC/N=c2\nc(N3CCc4ccccc4C3)nc(N3CCC[NH2+]CC3)[nH]2)cc1

>  <Energy>  (42) 
73.4440716094754

>  <Genealogy>  (42) 
c1ccc(CCNc2nc(N3CCC[NH2+]CC3)nc(N3CCc4ccccc4C3)n2)cc1 (protonated)
c1ccc(CCN=c2nc(N3CCc4ccccc4C3)nc(N3CCC[NH2+]CC3)[nH]2)cc1 (tautomer)
c1ccc(CC/N=c2\nc(N3CCc4ccccc4C3)nc(N3CCC[NH2+]CC3)[nH]2)cc1 (cis-trans isomerization)
c1ccc(CC/N=c2\nc(N3CCc4ccccc4C3)nc(N3CCC[NH2+]CC3)[nH]2)cc1 (3D coordinates assigned)
c1ccc(CC/N=c2\nc(N3CCc4ccccc4C3)nc(N3CCC[NH2+]CC3)[nH]2)cc1 (nonaromatic ring conformer: 73.4440716094754 kcal/mol)

>  <smiles>  (42) 
c1ccc(CCNc2nc(N3CCCNCC3)nc(N3CCc4ccccc4C3)n2)cc1

>  <score_type>  (42) 
oracle

>  <origin>  (42) 
autodockgpu

>  <m_score__min__energy>  (42) 
-7.3499999999999996

>  <m_primary>  (42) 
energy

>  <meeko>  (42) 
{"free_energy": -5.73, "intermolecular_energy": -9.31, "internal_energy": -1.44, "cluster_size": 3, "cluster_id": 1, "rank_in_cluster": 3}

>  <energy>  (42) 
-6.2

>  <cluster_rmsd>  (42) 
1.13

>  <rmsd>  (42) 
271.02

>  <cluster>  (42) 
1

$$$$
IBHRIKXMMSCQIV-DXVXUIDUNA-O
     RDKit          3D

 64 68  0  0  0  0  0  0  0  0999 V2000
  143.6345   76.9054  218.4722 H   0  0  0  0  0  0  0  0  0  0  0  0
  143.6750   75.8470  218.7690 C   0  0  0  0  0  0  0  0  0  0  0  0
  143.9620   75.5030  220.0930 C   0  0  0  0  0  0  0  0  0  0  0  0
  144.1313   76.2910  220.8416 H   0  0  0  0  0  0  0  0  0  0  0  0
  144.0340   74.1570  220.4660 C   0  0  0  0  0  0  0  0  0  0  0  0
  144.2738   73.8889  221.5055 H   0  0  0  0  0  0  0  0  0  0  0  0
  143.8010   73.1440  219.5170 C   0  0  0  0  0  0  0  0  0  0  0  0
  143.8430   71.6960  219.9230 C   0  0  0  0  0  0  0  0  0  0  0  0
  144.8567   71.3073  219.7458 H   0  0  0  0  0  0  0  0  0  0  0  0
  143.5722   71.6350  220.9874 H   0  0  0  0  0  0  0  0  0  0  0  0
  142.8420   70.8450  219.1320 C   0  0  0  0  0  0  0  0  0  0  0  0
  143.1177   70.8610  218.0672 H   0  0  0  0  0  0  0  0  0  0  0  0
  142.8707   69.8163  219.5204 H   0  0  0  0  0  0  0  0  0  0  0  0
  141.4810   71.3650  219.2830 N   0  0  0  0  0  0  0  0  0  0  0  0
  141.0340   72.0240  220.3140 C   0  0  0  0  0  0  0  0  0  0  0  0
  140.6910   71.3790  221.4630 N   0  0  0  0  0  0  0  0  0  0  0  0
  140.2130   72.0680  222.5320 C   0  0  0  0  0  0  0  0  0  0  0  0
  139.8620   71.3850  223.7560 N   0  0  0  0  0  0  0  0  0  0  0  0
  140.5570   71.7420  225.0050 C   0  0  0  0  0  0  0  0  0  0  0  0
  140.1391   72.6876  225.3808 H   0  0  0  0  0  0  0  0  0  0  0  0
  141.6283   71.8306  224.7718 H   0  0  0  0  0  0  0  0  0  0  0  0
  140.4140   70.6910  226.0810 C   0  0  0  0  0  0  0  0  0  0  0  0
  141.0470   70.9020  227.3160 C   0  0  0  0  0  0  0  0  0  0  0  0
  141.6179   71.8266  227.4869 H   0  0  0  0  0  0  0  0  0  0  0  0
  140.9560   69.9430  228.3310 C   0  0  0  0  0  0  0  0  0  0  0  0
  141.4572   70.1140  229.2952 H   0  0  0  0  0  0  0  0  0  0  0  0
  140.2300   68.7700  228.1210 C   0  0  0  0  0  0  0  0  0  0  0  0
  140.1652   68.0143  228.9177 H   0  0  0  0  0  0  0  0  0  0  0  0
  139.5860   68.5540  226.9020 C   0  0  0  0  0  0  0  0  0  0  0  0
  139.0162   67.6269  226.7415 H   0  0  0  0  0  0  0  0  0  0  0  0
  139.6610   69.5140  225.8780 C   0  0  0  0  0  0  0  0  0  0  0  0
  139.0100   69.2350  224.5510 C   0  0  0  0  0  0  0  0  0  0  0  0
  138.0865   68.6608  224.7164 H   0  0  0  0  0  0  0  0  0  0  0  0
  139.7123   68.6614  223.9283 H   0  0  0  0  0  0  0  0  0  0  0  0
  138.6680   70.5340  223.8300 C   0  0  0  0  0  0  0  0  0  0  0  0
  137.8761   71.0615  224.3819 H   0  0  0  0  0  0  0  0  0  0  0  0
  138.3182   70.3059  222.8123 H   0  0  0  0  0  0  0  0  0  0  0  0
  140.0720   73.4170  222.4390 N   0  0  0  0  0  0  0  0  0  0  0  0
  140.4080   74.0690  221.2990 C   0  0  0  0  0  0  0  0  0  0  0  0
  140.2630   75.4910  221.2240 N   0  0  0  0  0  0  0  0  0  0  0  0
  139.6770   76.0710  220.0110 C   0  0  0  0  0  0  0  0  0  0  0  0
  139.1546   75.2823  219.4497 H   0  0  0  0  0  0  0  0  0  0  0  0
  138.9716   76.8629  220.3030 H   0  0  0  0  0  0  0  0  0  0  0  0
  140.7640   76.6830  219.1240 C   0  0  0  0  0  0  0  0  0  0  0  0
  141.6250   75.9990  219.0962 H   0  0  0  0  0  0  0  0  0  0  0  0
  140.3373   76.8310  218.1210 H   0  0  0  0  0  0  0  0  0  0  0  0
  141.2350   78.0500  219.6420 C   0  0  0  0  0  0  0  0  0  0  0  0
  141.9392   78.4790  218.9140 H   0  0  0  0  0  0  0  0  0  0  0  0
  140.3445   78.6835  219.7672 H   0  0  0  0  0  0  0  0  0  0  0  0
  141.9050   77.9600  220.9490 N   0  0  0  0  0  0  0  0  0  0  0  0
  142.5120   78.7980  221.1060 H   0  0  0  0  0  0  0  0  0  0  0  0
  142.5350   77.1270  220.9150 H   0  0  0  0  0  0  0  0  0  0  0  0
  140.9630   77.7680  222.0680 C   0  0  0  0  0  0  0  0  0  0  0  0
  141.3768   78.2514  222.9652 H   0  0  0  0  0  0  0  0  0  0  0  0
  140.0008   78.2149  221.7774 H   0  0  0  0  0  0  0  0  0  0  0  0
  140.7160   76.2810  222.3770 C   0  0  0  0  0  0  0  0  0  0  0  0
  141.6563   75.8449  222.7454 H   0  0  0  0  0  0  0  0  0  0  0  0
  139.9071   76.2441  223.1215 H   0  0  0  0  0  0  0  0  0  0  0  0
  140.8960   73.3740  220.2370 N   0  0  0  0  0  0  0  0  0  0  0  0
  141.1540   73.8810  219.3600 H   0  0  0  0  0  0  0  0  0  0  0  0
  143.4910   73.4970  218.1940 C   0  0  0  0  0  0  0  0  0  0  0  0
  143.2885   72.7126  217.4498 H   0  0  0  0  0  0  0  0  0  0  0  0
  143.4390   74.8440  217.8200 C   0  0  0  0  0  0  0  0  0  0  0  0
  143.2123   75.1161  216.7786 H   0  0  0  0  0  0  0  0  0  0  0  0
  1  2  1  0
  2  3  2  0
  3  4  1  0
  3  5  1  0
  5  6  1  0
  5  7  2  0
  7  8  1  0
  8  9  1  0
  8 10  1  0
  8 11  1  0
 11 12  1  0
 11 13  1  0
 11 14  1  0
 14 15  2  0
 15 16  1  0
 16 17  2  0
 17 18  1  0
 18 19  1  0
 19 20  1  0
 19 21  1  0
 19 22  1  0
 22 23  2  0
 23 24  1  0
 23 25  1  0
 25 26  1  0
 25 27  2  0
 27 28  1  0
 27 29  1  0
 29 30  1  0
 29 31  2  0
 31 32  1  0
 32 33  1  0
 32 34  1  0
 32 35  1  0
 35 36  1  0
 35 37  1  0
 17 38  1  0
 38 39  2  0
 39 40  1  0
 40 41  1  0
 41 42  1  0
 41 43  1  0
 41 44  1  0
 44 45  1  0
 44 46  1  0
 44 47  1  0
 47 48  1  0
 47 49  1  0
 47 50  1  0
 50 51  1  0
 50 52  1  0
 50 53  1  0
 53 54  1  0
 53 55  1  0
 53 56  1  0
 56 57  1  0
 56 58  1  0
 39 59  1  0
 59 60  1  0
  7 61  1  0
 61 62  1  0
 61 63  2  0
 63 64  1  0
 63  2  1  0
 59 15  1  0
 35 18  1  0
 56 40  1  0
 31 22  1  0
M  CHG  1  50   1
M  END
>  <UniqueID>  (43) 
711

>  <SMILES>  (43) 
c1ccc(CC/N=c2\nc(N3CCc4ccccc4C3)nc(N3CCC[NH2+]CC3)[nH]2)cc1

>  <Energy>  (43) 
73.4440716094754

>  <Genealogy>  (43) 
c1ccc(CCNc2nc(N3CCC[NH2+]CC3)nc(N3CCc4ccccc4C3)n2)cc1 (protonated)
c1ccc(CCN=c2nc(N3CCc4ccccc4C3)nc(N3CCC[NH2+]CC3)[nH]2)cc1 (tautomer)
c1ccc(CC/N=c2\nc(N3CCc4ccccc4C3)nc(N3CCC[NH2+]CC3)[nH]2)cc1 (cis-trans isomerization)
c1ccc(CC/N=c2\nc(N3CCc4ccccc4C3)nc(N3CCC[NH2+]CC3)[nH]2)cc1 (3D coordinates assigned)
c1ccc(CC/N=c2\nc(N3CCc4ccccc4C3)nc(N3CCC[NH2+]CC3)[nH]2)cc1 (nonaromatic ring conformer: 73.4440716094754 kcal/mol)

>  <smiles>  (43) 
c1ccc(CCNc2nc(N3CCCNCC3)nc(N3CCc4ccccc4C3)n2)cc1

>  <score_type>  (43) 
oracle

>  <origin>  (43) 
autodockgpu

>  <m_score__min__energy>  (43) 
-7.3499999999999996

>  <m_primary>  (43) 
energy

>  <meeko>  (43) 
{"free_energy": -6.17, "intermolecular_energy": -9.75, "internal_energy": -1.78, "cluster_size": 5, "cluster_id": 2, "rank_in_cluster": 3}

>  <energy>  (43) 
-5.73

>  <cluster_rmsd>  (43) 
1.63

>  <rmsd>  (43) 
270.45

>  <cluster>  (43) 
1

$$$$
IBHRIKXMMSCQIV-DXVXUIDUNA-O
     RDKit          3D

 64 68  0  0  0  0  0  0  0  0999 V2000
  134.1179   69.6747  227.2137 H   0  0  0  0  0  0  0  0  0  0  0  0
  134.3640   70.4630  226.4870 C   0  0  0  0  0  0  0  0  0  0  0  0
  133.9190   71.7710  226.6970 C   0  0  0  0  0  0  0  0  0  0  0  0
  133.3359   72.0157  227.5971 H   0  0  0  0  0  0  0  0  0  0  0  0
  134.2150   72.7690  225.7630 C   0  0  0  0  0  0  0  0  0  0  0  0
  133.8520   73.7948  225.9243 H   0  0  0  0  0  0  0  0  0  0  0  0
  134.9750   72.4670  224.6180 C   0  0  0  0  0  0  0  0  0  0  0  0
  135.3240   73.5460  223.6290 C   0  0  0  0  0  0  0  0  0  0  0  0
  134.8259   74.4790  223.9314 H   0  0  0  0  0  0  0  0  0  0  0  0
  136.4180   73.6608  223.6249 H   0  0  0  0  0  0  0  0  0  0  0  0
  134.8810   73.1880  222.2040 C   0  0  0  0  0  0  0  0  0  0  0  0
  134.1624   72.3563  222.2482 H   0  0  0  0  0  0  0  0  0  0  0  0
  134.4150   74.0735  221.7472 H   0  0  0  0  0  0  0  0  0  0  0  0
  136.0280   72.7880  221.3870 N   0  0  0  0  0  0  0  0  0  0  0  0
  137.2790   72.9230  221.7230 C   0  0  0  0  0  0  0  0  0  0  0  0
  137.8390   72.1290  222.6780 N   0  0  0  0  0  0  0  0  0  0  0  0
  139.1410   72.2820  223.0340 C   0  0  0  0  0  0  0  0  0  0  0  0
  139.7380   71.4300  224.0380 N   0  0  0  0  0  0  0  0  0  0  0  0
  139.3120   70.0240  224.1350 C   0  0  0  0  0  0  0  0  0  0  0  0
  139.7939   69.4550  223.3263 H   0  0  0  0  0  0  0  0  0  0  0  0
  138.2153   70.0057  224.0524 H   0  0  0  0  0  0  0  0  0  0  0  0
  139.6770   69.3870  225.4560 C   0  0  0  0  0  0  0  0  0  0  0  0
  139.3100   68.0510  225.6830 C   0  0  0  0  0  0  0  0  0  0  0  0
  138.7835   67.4877  224.8985 H   0  0  0  0  0  0  0  0  0  0  0  0
  139.6100   67.4320  226.9010 C   0  0  0  0  0  0  0  0  0  0  0  0
  139.3148   66.3865  227.0734 H   0  0  0  0  0  0  0  0  0  0  0  0
  140.2830   68.1390  227.8970 C   0  0  0  0  0  0  0  0  0  0  0  0
  140.5140   67.6514  228.8556 H   0  0  0  0  0  0  0  0  0  0  0  0
  140.6640   69.4640  227.6800 C   0  0  0  0  0  0  0  0  0  0  0  0
  141.1919   70.0177  228.4704 H   0  0  0  0  0  0  0  0  0  0  0  0
  140.3770   70.0950  226.4570 C   0  0  0  0  0  0  0  0  0  0  0  0
  140.7430   71.5410  226.2640 C   0  0  0  0  0  0  0  0  0  0  0  0
  141.6829   71.7488  226.7963 H   0  0  0  0  0  0  0  0  0  0  0  0
  139.9298   72.1656  226.6623 H   0  0  0  0  0  0  0  0  0  0  0  0
  140.9250   71.8630  224.7860 C   0  0  0  0  0  0  0  0  0  0  0  0
  141.8114   71.3362  224.4030 H   0  0  0  0  0  0  0  0  0  0  0  0
  141.0593   72.9477  224.6622 H   0  0  0  0  0  0  0  0  0  0  0  0
  139.8830   73.2460  222.4290 N   0  0  0  0  0  0  0  0  0  0  0  0
  139.3360   74.0430  221.4780 C   0  0  0  0  0  0  0  0  0  0  0  0
  140.1370   75.0460  220.8440 N   0  0  0  0  0  0  0  0  0  0  0  0
  139.4600   76.1840  220.2120 C   0  0  0  0  0  0  0  0  0  0  0  0
  139.6647   76.1712  219.1313 H   0  0  0  0  0  0  0  0  0  0  0  0
  138.3789   76.0994  220.3966 H   0  0  0  0  0  0  0  0  0  0  0  0
  139.9580   77.5050  220.8020 C   0  0  0  0  0  0  0  0  0  0  0  0
  139.1734   78.2657  220.6765 H   0  0  0  0  0  0  0  0  0  0  0  0
  140.1867   77.3322  221.8640 H   0  0  0  0  0  0  0  0  0  0  0  0
  141.2410   78.0040  220.1230 C   0  0  0  0  0  0  0  0  0  0  0  0
  141.1028   77.9595  219.0326 H   0  0  0  0  0  0  0  0  0  0  0  0
  141.4218   79.0330  220.4671 H   0  0  0  0  0  0  0  0  0  0  0  0
  142.4200   77.2000  220.4820 N   0  0  0  0  0  0  0  0  0  0  0  0
  142.5570   77.1970  221.5190 H   0  0  0  0  0  0  0  0  0  0  0  0
  143.2530   77.6730  220.0640 H   0  0  0  0  0  0  0  0  0  0  0  0
  142.3660   75.8270  219.9470 C   0  0  0  0  0  0  0  0  0  0  0  0
  141.8686   75.8495  218.9662 H   0  0  0  0  0  0  0  0  0  0  0  0
  143.3990   75.4576  219.8671 H   0  0  0  0  0  0  0  0  0  0  0  0
  141.5950   74.8670  220.8700 C   0  0  0  0  0  0  0  0  0  0  0  0
  141.8213   73.8358  220.5612 H   0  0  0  0  0  0  0  0  0  0  0  0
  141.9217   75.0863  221.8972 H   0  0  0  0  0  0  0  0  0  0  0  0
  138.0360   73.8780  221.1190 N   0  0  0  0  0  0  0  0  0  0  0  0
  137.6180   74.4950  220.3860 H   0  0  0  0  0  0  0  0  0  0  0  0
  135.4380   71.1550  224.4240 C   0  0  0  0  0  0  0  0  0  0  0  0
  136.0488   70.9133  223.5417 H   0  0  0  0  0  0  0  0  0  0  0  0
  135.1240   70.1560  225.3500 C   0  0  0  0  0  0  0  0  0  0  0  0
  135.4743   69.1262  225.1859 H   0  0  0  0  0  0  0  0  0  0  0  0
  1  2  1  0
  2  3  2  0
  3  4  1  0
  3  5  1  0
  5  6  1  0
  5  7  2  0
  7  8  1  0
  8  9  1  0
  8 10  1  0
  8 11  1  0
 11 12  1  0
 11 13  1  0
 11 14  1  0
 14 15  2  0
 15 16  1  0
 16 17  2  0
 17 18  1  0
 18 19  1  0
 19 20  1  0
 19 21  1  0
 19 22  1  0
 22 23  2  0
 23 24  1  0
 23 25  1  0
 25 26  1  0
 25 27  2  0
 27 28  1  0
 27 29  1  0
 29 30  1  0
 29 31  2  0
 31 32  1  0
 32 33  1  0
 32 34  1  0
 32 35  1  0
 35 36  1  0
 35 37  1  0
 17 38  1  0
 38 39  2  0
 39 40  1  0
 40 41  1  0
 41 42  1  0
 41 43  1  0
 41 44  1  0
 44 45  1  0
 44 46  1  0
 44 47  1  0
 47 48  1  0
 47 49  1  0
 47 50  1  0
 50 51  1  0
 50 52  1  0
 50 53  1  0
 53 54  1  0
 53 55  1  0
 53 56  1  0
 56 57  1  0
 56 58  1  0
 39 59  1  0
 59 60  1  0
  7 61  1  0
 61 62  1  0
 61 63  2  0
 63 64  1  0
 63  2  1  0
 59 15  1  0
 35 18  1  0
 56 40  1  0
 31 22  1  0
M  CHG  1  50   1
M  END
>  <UniqueID>  (44) 
711

>  <SMILES>  (44) 
c1ccc(CC/N=c2\nc(N3CCc4ccccc4C3)nc(N3CCC[NH2+]CC3)[nH]2)cc1

>  <Energy>  (44) 
73.4440716094754

>  <Genealogy>  (44) 
c1ccc(CCNc2nc(N3CCC[NH2+]CC3)nc(N3CCc4ccccc4C3)n2)cc1 (protonated)
c1ccc(CCN=c2nc(N3CCc4ccccc4C3)nc(N3CCC[NH2+]CC3)[nH]2)cc1 (tautomer)
c1ccc(CC/N=c2\nc(N3CCc4ccccc4C3)nc(N3CCC[NH2+]CC3)[nH]2)cc1 (cis-trans isomerization)
c1ccc(CC/N=c2\nc(N3CCc4ccccc4C3)nc(N3CCC[NH2+]CC3)[nH]2)cc1 (3D coordinates assigned)
c1ccc(CC/N=c2\nc(N3CCc4ccccc4C3)nc(N3CCC[NH2+]CC3)[nH]2)cc1 (nonaromatic ring conformer: 73.4440716094754 kcal/mol)

>  <smiles>  (44) 
c1ccc(CCNc2nc(N3CCCNCC3)nc(N3CCc4ccccc4C3)n2)cc1

>  <score_type>  (44) 
oracle

>  <origin>  (44) 
autodockgpu

>  <m_score__min__energy>  (44) 
-7.3499999999999996

>  <m_primary>  (44) 
energy

>  <meeko>  (44) 
{"free_energy": -6.08, "intermolecular_energy": -9.66, "internal_energy": -1.47, "cluster_size": 1, "cluster_id": 5, "rank_in_cluster": 1}

>  <energy>  (44) 
-7.12

>  <cluster_rmsd>  (44) 
0.0

>  <rmsd>  (44) 
270.66

>  <cluster>  (44) 
2

$$$$
IBHRIKXMMSCQIV-DXVXUIDUNA-O
     RDKit          3D

 64 68  0  0  0  0  0  0  0  0999 V2000
  141.0030   70.4306  229.3300 H   0  0  0  0  0  0  0  0  0  0  0  0
  140.7490   70.5260  228.2640 C   0  0  0  0  0  0  0  0  0  0  0  0
  141.1740   71.6440  227.5420 C   0  0  0  0  0  0  0  0  0  0  0  0
  141.7753   72.4215  228.0359 H   0  0  0  0  0  0  0  0  0  0  0  0
  140.8350   71.7750  226.1910 C   0  0  0  0  0  0  0  0  0  0  0  0
  141.1600   72.6628  225.6286 H   0  0  0  0  0  0  0  0  0  0  0  0
  140.0800   70.7760  225.5480 C   0  0  0  0  0  0  0  0  0  0  0  0
  139.7430   70.8970  224.0880 C   0  0  0  0  0  0  0  0  0  0  0  0
  139.7900   69.8984  223.6292 H   0  0  0  0  0  0  0  0  0  0  0  0
  138.7333   71.3260  224.0079 H   0  0  0  0  0  0  0  0  0  0  0  0
  140.7120   71.8280  223.3470 C   0  0  0  0  0  0  0  0  0  0  0  0
  141.0613   72.6087  224.0387 H   0  0  0  0  0  0  0  0  0  0  0  0
  141.5608   71.2322  222.9802 H   0  0  0  0  0  0  0  0  0  0  0  0
  140.0550   72.4610  222.2020 N   0  0  0  0  0  0  0  0  0  0  0  0
  139.2500   73.4830  222.2630 C   0  0  0  0  0  0  0  0  0  0  0  0
  139.7340   74.7540  222.3390 N   0  0  0  0  0  0  0  0  0  0  0  0
  138.8900   75.8170  222.4160 C   0  0  0  0  0  0  0  0  0  0  0  0
  139.4050   77.1660  222.4830 N   0  0  0  0  0  0  0  0  0  0  0  0
  140.8540   77.3910  222.3540 C   0  0  0  0  0  0  0  0  0  0  0  0
  141.1282   77.3103  221.2918 H   0  0  0  0  0  0  0  0  0  0  0  0
  141.3611   76.6317  222.9675 H   0  0  0  0  0  0  0  0  0  0  0  0
  141.2880   78.7470  222.8620 C   0  0  0  0  0  0  0  0  0  0  0  0
  142.6510   79.0790  222.8130 C   0  0  0  0  0  0  0  0  0  0  0  0
  143.3736   78.3627  222.3949 H   0  0  0  0  0  0  0  0  0  0  0  0
  143.0960   80.3160  223.2930 C   0  0  0  0  0  0  0  0  0  0  0  0
  144.1659   80.5684  223.2539 H   0  0  0  0  0  0  0  0  0  0  0  0
  142.1830   81.2290  223.8210 C   0  0  0  0  0  0  0  0  0  0  0  0
  142.5353   82.1980  224.2044 H   0  0  0  0  0  0  0  0  0  0  0  0
  140.8240   80.9160  223.8640 C   0  0  0  0  0  0  0  0  0  0  0  0
  140.1093   81.6399  224.2825 H   0  0  0  0  0  0  0  0  0  0  0  0
  140.3630   79.6820  223.3760 C   0  0  0  0  0  0  0  0  0  0  0  0
  138.9030   79.3380  223.4870 C   0  0  0  0  0  0  0  0  0  0  0  0
  138.3063   80.2525  223.3541 H   0  0  0  0  0  0  0  0  0  0  0  0
  138.7193   78.9004  224.4794 H   0  0  0  0  0  0  0  0  0  0  0  0
  138.5020   78.3220  222.4250 C   0  0  0  0  0  0  0  0  0  0  0  0
  138.5666   78.7873  221.4304 H   0  0  0  0  0  0  0  0  0  0  0  0
  137.4700   77.9889  222.6096 H   0  0  0  0  0  0  0  0  0  0  0  0
  137.5500   75.5970  222.4220 N   0  0  0  0  0  0  0  0  0  0  0  0
  137.0560   74.3360  222.3480 C   0  0  0  0  0  0  0  0  0  0  0  0
  135.6410   74.1250  222.3450 N   0  0  0  0  0  0  0  0  0  0  0  0
  134.9400   74.1080  221.0560 C   0  0  0  0  0  0  0  0  0  0  0  0
  135.6705   73.9453  220.2498 H   0  0  0  0  0  0  0  0  0  0  0  0
  134.1976   73.2964  221.0678 H   0  0  0  0  0  0  0  0  0  0  0  0
  134.2150   75.4350  220.8170 C   0  0  0  0  0  0  0  0  0  0  0  0
  134.9632   76.2182  220.6253 H   0  0  0  0  0  0  0  0  0  0  0  0
  133.5442   75.3035  219.9552 H   0  0  0  0  0  0  0  0  0  0  0  0
  133.3600   75.8520  222.0210 C   0  0  0  0  0  0  0  0  0  0  0  0
  132.7189   76.6946  221.7225 H   0  0  0  0  0  0  0  0  0  0  0  0
  132.7663   74.9776  222.3260 H   0  0  0  0  0  0  0  0  0  0  0  0
  134.1710   76.2640  223.1770 N   0  0  0  0  0  0  0  0  0  0  0  0
  133.7910   77.1450  223.5940 H   0  0  0  0  0  0  0  0  0  0  0  0
  135.1280   76.4820  222.8190 H   0  0  0  0  0  0  0  0  0  0  0  0
  134.3020   75.2050  224.1960 C   0  0  0  0  0  0  0  0  0  0  0  0
  134.9048   75.5911  225.0312 H   0  0  0  0  0  0  0  0  0  0  0  0
  133.2891   74.9282  224.5239 H   0  0  0  0  0  0  0  0  0  0  0  0
  134.9780   73.9390  223.6430 C   0  0  0  0  0  0  0  0  0  0  0  0
  135.7326   73.6057  224.3706 H   0  0  0  0  0  0  0  0  0  0  0  0
  134.1795   73.1990  223.4855 H   0  0  0  0  0  0  0  0  0  0  0  0
  137.9060   73.2780  222.2620 N   0  0  0  0  0  0  0  0  0  0  0  0
  137.5210   72.3080  222.2050 H   0  0  0  0  0  0  0  0  0  0  0  0
  139.6750   69.6440  226.2740 C   0  0  0  0  0  0  0  0  0  0  0  0
  139.1018   68.8484  225.7755 H   0  0  0  0  0  0  0  0  0  0  0  0
  139.9990   69.5260  227.6300 C   0  0  0  0  0  0  0  0  0  0  0  0
  139.6644   68.6465  228.1997 H   0  0  0  0  0  0  0  0  0  0  0  0
  1  2  1  0
  2  3  2  0
  3  4  1  0
  3  5  1  0
  5  6  1  0
  5  7  2  0
  7  8  1  0
  8  9  1  0
  8 10  1  0
  8 11  1  0
 11 12  1  0
 11 13  1  0
 11 14  1  0
 14 15  2  0
 15 16  1  0
 16 17  2  0
 17 18  1  0
 18 19  1  0
 19 20  1  0
 19 21  1  0
 19 22  1  0
 22 23  2  0
 23 24  1  0
 23 25  1  0
 25 26  1  0
 25 27  2  0
 27 28  1  0
 27 29  1  0
 29 30  1  0
 29 31  2  0
 31 32  1  0
 32 33  1  0
 32 34  1  0
 32 35  1  0
 35 36  1  0
 35 37  1  0
 17 38  1  0
 38 39  2  0
 39 40  1  0
 40 41  1  0
 41 42  1  0
 41 43  1  0
 41 44  1  0
 44 45  1  0
 44 46  1  0
 44 47  1  0
 47 48  1  0
 47 49  1  0
 47 50  1  0
 50 51  1  0
 50 52  1  0
 50 53  1  0
 53 54  1  0
 53 55  1  0
 53 56  1  0
 56 57  1  0
 56 58  1  0
 39 59  1  0
 59 60  1  0
  7 61  1  0
 61 62  1  0
 61 63  2  0
 63 64  1  0
 63  2  1  0
 59 15  1  0
 35 18  1  0
 56 40  1  0
 31 22  1  0
M  CHG  1  50   1
M  END
>  <UniqueID>  (45) 
711

>  <SMILES>  (45) 
c1ccc(CC/N=c2\nc(N3CCc4ccccc4C3)nc(N3CCC[NH2+]CC3)[nH]2)cc1

>  <Energy>  (45) 
73.4440716094754

>  <Genealogy>  (45) 
c1ccc(CCNc2nc(N3CCC[NH2+]CC3)nc(N3CCc4ccccc4C3)n2)cc1 (protonated)
c1ccc(CCN=c2nc(N3CCc4ccccc4C3)nc(N3CCC[NH2+]CC3)[nH]2)cc1 (tautomer)
c1ccc(CC/N=c2\nc(N3CCc4ccccc4C3)nc(N3CCC[NH2+]CC3)[nH]2)cc1 (cis-trans isomerization)
c1ccc(CC/N=c2\nc(N3CCc4ccccc4C3)nc(N3CCC[NH2+]CC3)[nH]2)cc1 (3D coordinates assigned)
c1ccc(CC/N=c2\nc(N3CCc4ccccc4C3)nc(N3CCC[NH2+]CC3)[nH]2)cc1 (nonaromatic ring conformer: 73.4440716094754 kcal/mol)

>  <smiles>  (45) 
c1ccc(CCNc2nc(N3CCCNCC3)nc(N3CCc4ccccc4C3)n2)cc1

>  <score_type>  (45) 
oracle

>  <origin>  (45) 
autodockgpu

>  <m_score__min__energy>  (45) 
-7.3499999999999996

>  <m_primary>  (45) 
energy

>  <meeko>  (45) 
{"free_energy": -6.15, "intermolecular_energy": -9.73, "internal_energy": -1.28, "cluster_size": 2, "cluster_id": 4, "rank_in_cluster": 2}

>  <energy>  (45) 
-6.24

>  <cluster_rmsd>  (45) 
1.53

>  <rmsd>  (45) 
270.43

>  <cluster>  (45) 
2

$$$$
IBHRIKXMMSCQIV-DXVXUIDUNA-O
     RDKit          3D

 64 68  0  0  0  0  0  0  0  0999 V2000
  144.0951   80.2591  222.4013 H   0  0  0  0  0  0  0  0  0  0  0  0
  143.0370   80.2040  222.6970 C   0  0  0  0  0  0  0  0  0  0  0  0
  142.5680   79.0980  223.4090 C   0  0  0  0  0  0  0  0  0  0  0  0
  143.2600   78.2896  223.6876 H   0  0  0  0  0  0  0  0  0  0  0  0
  141.2180   79.0180  223.7680 C   0  0  0  0  0  0  0  0  0  0  0  0
  140.8484   78.1392  224.3168 H   0  0  0  0  0  0  0  0  0  0  0  0
  140.3310   80.0570  223.4300 C   0  0  0  0  0  0  0  0  0  0  0  0
  138.8870   79.9900  223.8450 C   0  0  0  0  0  0  0  0  0  0  0  0
  138.7935   79.2954  224.6928 H   0  0  0  0  0  0  0  0  0  0  0  0
  138.5672   81.0050  224.1234 H   0  0  0  0  0  0  0  0  0  0  0  0
  137.9810   79.5050  222.7060 C   0  0  0  0  0  0  0  0  0  0  0  0
  136.9824   79.9506  222.8253 H   0  0  0  0  0  0  0  0  0  0  0  0
  138.4259   79.8114  221.7478 H   0  0  0  0  0  0  0  0  0  0  0  0
  137.8600   78.0450  222.7210 N   0  0  0  0  0  0  0  0  0  0  0  0
  138.6940   77.2120  222.1680 C   0  0  0  0  0  0  0  0  0  0  0  0
  138.6510   75.8810  222.4580 N   0  0  0  0  0  0  0  0  0  0  0  0
  139.5320   75.0170  221.8890 C   0  0  0  0  0  0  0  0  0  0  0  0
  139.4780   73.6030  222.1860 N   0  0  0  0  0  0  0  0  0  0  0  0
  138.1700   72.9270  222.2310 C   0  0  0  0  0  0  0  0  0  0  0  0
  137.8304   72.7508  221.1997 H   0  0  0  0  0  0  0  0  0  0  0  0
  137.4794   73.5811  222.7836 H   0  0  0  0  0  0  0  0  0  0  0  0
  138.2170   71.6020  222.9560 C   0  0  0  0  0  0  0  0  0  0  0  0
  137.0310   70.8630  223.0860 C   0  0  0  0  0  0  0  0  0  0  0  0
  136.0978   71.2466  222.6477 H   0  0  0  0  0  0  0  0  0  0  0  0
  137.0270   69.6420  223.7690 C   0  0  0  0  0  0  0  0  0  0  0  0
  136.0920   69.0714  223.8700 H   0  0  0  0  0  0  0  0  0  0  0  0
  138.2090   69.1480  224.3220 C   0  0  0  0  0  0  0  0  0  0  0  0
  138.2035   68.1907  224.8638 H   0  0  0  0  0  0  0  0  0  0  0  0
  139.3980   69.8660  224.1890 C   0  0  0  0  0  0  0  0  0  0  0  0
  140.3263   69.4723  224.6286 H   0  0  0  0  0  0  0  0  0  0  0  0
  139.4170   71.0890  223.4970 C   0  0  0  0  0  0  0  0  0  0  0  0
  140.6960   71.8770  223.4170 C   0  0  0  0  0  0  0  0  0  0  0  0
  141.5447   71.1805  223.3484 H   0  0  0  0  0  0  0  0  0  0  0  0
  140.7828   72.4997  224.3196 H   0  0  0  0  0  0  0  0  0  0  0  0
  140.6970   72.7870  222.1950 C   0  0  0  0  0  0  0  0  0  0  0  0
  140.7335   72.1739  221.2824 H   0  0  0  0  0  0  0  0  0  0  0  0
  141.5768   73.4463  222.2321 H   0  0  0  0  0  0  0  0  0  0  0  0
  140.4660   75.4970  221.0260 N   0  0  0  0  0  0  0  0  0  0  0  0
  140.5180   76.8200  220.7320 C   0  0  0  0  0  0  0  0  0  0  0  0
  141.5020   77.3040  219.8130 N   0  0  0  0  0  0  0  0  0  0  0  0
  142.5350   76.3760  219.3390 C   0  0  0  0  0  0  0  0  0  0  0  0
  143.5224   76.7417  219.6573 H   0  0  0  0  0  0  0  0  0  0  0  0
  142.3402   75.3815  219.7668 H   0  0  0  0  0  0  0  0  0  0  0  0
  142.5070   76.2690  217.8130 C   0  0  0  0  0  0  0  0  0  0  0  0
  142.9275   75.2959  217.5193 H   0  0  0  0  0  0  0  0  0  0  0  0
  141.4608   76.3702  217.4887 H   0  0  0  0  0  0  0  0  0  0  0  0
  143.3170   77.3810  217.1340 C   0  0  0  0  0  0  0  0  0  0  0  0
  144.3053   77.4395  217.6134 H   0  0  0  0  0  0  0  0  0  0  0  0
  143.3975   77.1293  216.0662 H   0  0  0  0  0  0  0  0  0  0  0  0
  142.6670   78.6970  217.2330 N   0  0  0  0  0  0  0  0  0  0  0  0
  141.7080   78.6630  216.8170 H   0  0  0  0  0  0  0  0  0  0  0  0
  143.2290   79.3620  216.6550 H   0  0  0  0  0  0  0  0  0  0  0  0
  142.6300   79.2200  218.6120 C   0  0  0  0  0  0  0  0  0  0  0  0
  143.5449   78.9036  219.1343 H   0  0  0  0  0  0  0  0  0  0  0  0
  142.5577   80.3160  218.5528 H   0  0  0  0  0  0  0  0  0  0  0  0
  141.4110   78.7120  219.4000 C   0  0  0  0  0  0  0  0  0  0  0  0
  141.3029   79.3299  220.3036 H   0  0  0  0  0  0  0  0  0  0  0  0
  140.5457   78.7872  218.7250 H   0  0  0  0  0  0  0  0  0  0  0  0
  139.6280   77.6770  221.2970 N   0  0  0  0  0  0  0  0  0  0  0  0
  139.6730   78.6960  221.0670 H   0  0  0  0  0  0  0  0  0  0  0  0
  140.8140   81.1770  222.7330 C   0  0  0  0  0  0  0  0  0  0  0  0
  140.1324   82.0027  222.4810 H   0  0  0  0  0  0  0  0  0  0  0  0
  142.1600   81.2440  222.3590 C   0  0  0  0  0  0  0  0  0  0  0  0
  142.5312   82.1146  221.7984 H   0  0  0  0  0  0  0  0  0  0  0  0
  1  2  1  0
  2  3  2  0
  3  4  1  0
  3  5  1  0
  5  6  1  0
  5  7  2  0
  7  8  1  0
  8  9  1  0
  8 10  1  0
  8 11  1  0
 11 12  1  0
 11 13  1  0
 11 14  1  0
 14 15  2  0
 15 16  1  0
 16 17  2  0
 17 18  1  0
 18 19  1  0
 19 20  1  0
 19 21  1  0
 19 22  1  0
 22 23  2  0
 23 24  1  0
 23 25  1  0
 25 26  1  0
 25 27  2  0
 27 28  1  0
 27 29  1  0
 29 30  1  0
 29 31  2  0
 31 32  1  0
 32 33  1  0
 32 34  1  0
 32 35  1  0
 35 36  1  0
 35 37  1  0
 17 38  1  0
 38 39  2  0
 39 40  1  0
 40 41  1  0
 41 42  1  0
 41 43  1  0
 41 44  1  0
 44 45  1  0
 44 46  1  0
 44 47  1  0
 47 48  1  0
 47 49  1  0
 47 50  1  0
 50 51  1  0
 50 52  1  0
 50 53  1  0
 53 54  1  0
 53 55  1  0
 53 56  1  0
 56 57  1  0
 56 58  1  0
 39 59  1  0
 59 60  1  0
  7 61  1  0
 61 62  1  0
 61 63  2  0
 63 64  1  0
 63  2  1  0
 59 15  1  0
 35 18  1  0
 56 40  1  0
 31 22  1  0
M  CHG  1  50   1
M  END
>  <UniqueID>  (46) 
711

>  <SMILES>  (46) 
c1ccc(CC/N=c2\nc(N3CCc4ccccc4C3)nc(N3CCC[NH2+]CC3)[nH]2)cc1

>  <Energy>  (46) 
73.4440716094754

>  <Genealogy>  (46) 
c1ccc(CCNc2nc(N3CCC[NH2+]CC3)nc(N3CCc4ccccc4C3)n2)cc1 (protonated)
c1ccc(CCN=c2nc(N3CCc4ccccc4C3)nc(N3CCC[NH2+]CC3)[nH]2)cc1 (tautomer)
c1ccc(CC/N=c2\nc(N3CCc4ccccc4C3)nc(N3CCC[NH2+]CC3)[nH]2)cc1 (cis-trans isomerization)
c1ccc(CC/N=c2\nc(N3CCc4ccccc4C3)nc(N3CCC[NH2+]CC3)[nH]2)cc1 (3D coordinates assigned)
c1ccc(CC/N=c2\nc(N3CCc4ccccc4C3)nc(N3CCC[NH2+]CC3)[nH]2)cc1 (nonaromatic ring conformer: 73.4440716094754 kcal/mol)

>  <smiles>  (46) 
c1ccc(CCNc2nc(N3CCCNCC3)nc(N3CCc4ccccc4C3)n2)cc1

>  <score_type>  (46) 
oracle

>  <origin>  (46) 
autodockgpu

>  <m_score__min__energy>  (46) 
-7.3499999999999996

>  <m_primary>  (46) 
energy

>  <meeko>  (46) 
{"free_energy": -5.82, "intermolecular_energy": -9.4, "internal_energy": -1.6, "cluster_size": 1, "cluster_id": 6, "rank_in_cluster": 1}

>  <energy>  (46) 
-6.17

>  <cluster_rmsd>  (46) 
1.13

>  <rmsd>  (46) 
270.38

>  <cluster>  (46) 
2

$$$$
IBHRIKXMMSCQIV-DXVXUIDUNA-O
     RDKit          3D

 64 68  0  0  0  0  0  0  0  0999 V2000
  143.6091   79.1379  223.3334 H   0  0  0  0  0  0  0  0  0  0  0  0
  142.5910   79.5500  223.2720 C   0  0  0  0  0  0  0  0  0  0  0  0
  142.3630   80.7500  222.5950 C   0  0  0  0  0  0  0  0  0  0  0  0
  143.1993   81.2749  222.1101 H   0  0  0  0  0  0  0  0  0  0  0  0
  141.0720   81.2850  222.5330 C   0  0  0  0  0  0  0  0  0  0  0  0
  140.8978   82.2372  222.0105 H   0  0  0  0  0  0  0  0  0  0  0  0
  139.9950   80.6090  223.1370 C   0  0  0  0  0  0  0  0  0  0  0  0
  138.6000   81.1640  223.0430 C   0  0  0  0  0  0  0  0  0  0  0  0
  138.3118   81.5675  224.0249 H   0  0  0  0  0  0  0  0  0  0  0  0
  138.5989   81.9496  222.2730 H   0  0  0  0  0  0  0  0  0  0  0  0
  137.5810   80.0950  222.6290 C   0  0  0  0  0  0  0  0  0  0  0  0
  137.7284   79.1977  223.2480 H   0  0  0  0  0  0  0  0  0  0  0  0
  136.5682   80.4990  222.7743 H   0  0  0  0  0  0  0  0  0  0  0  0
  137.7450   79.7370  221.2180 N   0  0  0  0  0  0  0  0  0  0  0  0
  138.8700   79.4160  220.6460 C   0  0  0  0  0  0  0  0  0  0  0  0
  139.5140   78.2590  220.9650 N   0  0  0  0  0  0  0  0  0  0  0  0
  140.6940   77.9340  220.3750 C   0  0  0  0  0  0  0  0  0  0  0  0
  141.3710   76.7000  220.7040 N   0  0  0  0  0  0  0  0  0  0  0  0
  142.6770   76.4090  220.0900 C   0  0  0  0  0  0  0  0  0  0  0  0
  143.4470   77.0008  220.6067 H   0  0  0  0  0  0  0  0  0  0  0  0
  142.6051   76.6703  219.0239 H   0  0  0  0  0  0  0  0  0  0  0  0
  143.0560   74.9480  220.1730 C   0  0  0  0  0  0  0  0  0  0  0  0
  144.2720   74.5350  219.6060 C   0  0  0  0  0  0  0  0  0  0  0  0
  144.9324   75.2747  219.1298 H   0  0  0  0  0  0  0  0  0  0  0  0
  144.6490   73.1880  219.6430 C   0  0  0  0  0  0  0  0  0  0  0  0
  145.6016   72.8710  219.1934 H   0  0  0  0  0  0  0  0  0  0  0  0
  143.8170   72.2470  220.2500 C   0  0  0  0  0  0  0  0  0  0  0  0
  144.1121   71.1876  220.2728 H   0  0  0  0  0  0  0  0  0  0  0  0
  142.6120   72.6460  220.8280 C   0  0  0  0  0  0  0  0  0  0  0  0
  141.9600   71.8987  221.3039 H   0  0  0  0  0  0  0  0  0  0  0  0
  142.2260   73.9970  220.8060 C   0  0  0  0  0  0  0  0  0  0  0  0
  140.8950   74.3990  221.3820 C   0  0  0  0  0  0  0  0  0  0  0  0
  140.6739   73.7662  222.2541 H   0  0  0  0  0  0  0  0  0  0  0  0
  140.1236   74.2698  220.6086 H   0  0  0  0  0  0  0  0  0  0  0  0
  140.9100   75.8590  221.8160 C   0  0  0  0  0  0  0  0  0  0  0  0
  141.5902   75.9792  222.6721 H   0  0  0  0  0  0  0  0  0  0  0  0
  139.8938   76.1636  222.1068 H   0  0  0  0  0  0  0  0  0  0  0  0
  141.2330   78.7830  219.4620 N   0  0  0  0  0  0  0  0  0  0  0  0
  140.6010   79.9390  219.1380 C   0  0  0  0  0  0  0  0  0  0  0  0
  141.1780   80.8160  218.1650 N   0  0  0  0  0  0  0  0  0  0  0  0
  142.2980   81.6710  218.5720 C   0  0  0  0  0  0  0  0  0  0  0  0
  141.9280   82.6920  218.7469 H   0  0  0  0  0  0  0  0  0  0  0  0
  142.7388   81.2620  219.4931 H   0  0  0  0  0  0  0  0  0  0  0  0
  143.3750   81.7060  217.4840 C   0  0  0  0  0  0  0  0  0  0  0  0
  144.1674   82.4034  217.7935 H   0  0  0  0  0  0  0  0  0  0  0  0
  143.7628   80.6838  217.3626 H   0  0  0  0  0  0  0  0  0  0  0  0
  142.8200   82.1610  216.1260 C   0  0  0  0  0  0  0  0  0  0  0  0
  141.8908   82.7245  216.2964 H   0  0  0  0  0  0  0  0  0  0  0  0
  143.5892   82.7820  215.6435 H   0  0  0  0  0  0  0  0  0  0  0  0
  142.5290   81.0340  215.2260 N   0  0  0  0  0  0  0  0  0  0  0  0
  143.4070   80.5140  214.9960 H   0  0  0  0  0  0  0  0  0  0  0  0
  142.1700   81.4400  214.3320 H   0  0  0  0  0  0  0  0  0  0  0  0
  141.4950   80.1250  215.7550 C   0  0  0  0  0  0  0  0  0  0  0  0
  140.8605   79.7887  214.9218 H   0  0  0  0  0  0  0  0  0  0  0  0
  142.0069   79.2799  216.2385 H   0  0  0  0  0  0  0  0  0  0  0  0
  140.6050   80.8010  216.8120 C   0  0  0  0  0  0  0  0  0  0  0  0
  140.4299   81.8413  216.5005 H   0  0  0  0  0  0  0  0  0  0  0  0
  139.6790   80.2100  216.8686 H   0  0  0  0  0  0  0  0  0  0  0  0
  139.4150   80.2530  219.7240 N   0  0  0  0  0  0  0  0  0  0  0  0
  138.9320   81.1450  219.4710 H   0  0  0  0  0  0  0  0  0  0  0  0
  140.2280   79.3920  223.7970 C   0  0  0  0  0  0  0  0  0  0  0  0
  139.3896   78.8471  224.2554 H   0  0  0  0  0  0  0  0  0  0  0  0
  141.5230   78.8710  223.8730 C   0  0  0  0  0  0  0  0  0  0  0  0
  141.7039   77.9258  224.4059 H   0  0  0  0  0  0  0  0  0  0  0  0
  1  2  1  0
  2  3  2  0
  3  4  1  0
  3  5  1  0
  5  6  1  0
  5  7  2  0
  7  8  1  0
  8  9  1  0
  8 10  1  0
  8 11  1  0
 11 12  1  0
 11 13  1  0
 11 14  1  0
 14 15  2  0
 15 16  1  0
 16 17  2  0
 17 18  1  0
 18 19  1  0
 19 20  1  0
 19 21  1  0
 19 22  1  0
 22 23  2  0
 23 24  1  0
 23 25  1  0
 25 26  1  0
 25 27  2  0
 27 28  1  0
 27 29  1  0
 29 30  1  0
 29 31  2  0
 31 32  1  0
 32 33  1  0
 32 34  1  0
 32 35  1  0
 35 36  1  0
 35 37  1  0
 17 38  1  0
 38 39  2  0
 39 40  1  0
 40 41  1  0
 41 42  1  0
 41 43  1  0
 41 44  1  0
 44 45  1  0
 44 46  1  0
 44 47  1  0
 47 48  1  0
 47 49  1  0
 47 50  1  0
 50 51  1  0
 50 52  1  0
 50 53  1  0
 53 54  1  0
 53 55  1  0
 53 56  1  0
 56 57  1  0
 56 58  1  0
 39 59  1  0
 59 60  1  0
  7 61  1  0
 61 62  1  0
 61 63  2  0
 63 64  1  0
 63  2  1  0
 59 15  1  0
 35 18  1  0
 56 40  1  0
 31 22  1  0
M  CHG  1  50   1
M  END
>  <UniqueID>  (47) 
711

>  <SMILES>  (47) 
c1ccc(CC/N=c2\nc(N3CCc4ccccc4C3)nc(N3CCC[NH2+]CC3)[nH]2)cc1

>  <Energy>  (47) 
73.4440716094754

>  <Genealogy>  (47) 
c1ccc(CCNc2nc(N3CCC[NH2+]CC3)nc(N3CCc4ccccc4C3)n2)cc1 (protonated)
c1ccc(CCN=c2nc(N3CCc4ccccc4C3)nc(N3CCC[NH2+]CC3)[nH]2)cc1 (tautomer)
c1ccc(CC/N=c2\nc(N3CCc4ccccc4C3)nc(N3CCC[NH2+]CC3)[nH]2)cc1 (cis-trans isomerization)
c1ccc(CC/N=c2\nc(N3CCc4ccccc4C3)nc(N3CCC[NH2+]CC3)[nH]2)cc1 (3D coordinates assigned)
c1ccc(CC/N=c2\nc(N3CCc4ccccc4C3)nc(N3CCC[NH2+]CC3)[nH]2)cc1 (nonaromatic ring conformer: 73.4440716094754 kcal/mol)

>  <smiles>  (47) 
c1ccc(CCNc2nc(N3CCCNCC3)nc(N3CCc4ccccc4C3)n2)cc1

>  <score_type>  (47) 
oracle

>  <origin>  (47) 
autodockgpu

>  <m_score__min__energy>  (47) 
-7.3499999999999996

>  <m_primary>  (47) 
energy

>  <meeko>  (47) 
{"free_energy": -5.13, "intermolecular_energy": -8.71, "internal_energy": -1.98, "cluster_size": 4, "cluster_id": 8, "rank_in_cluster": 2}

>  <energy>  (47) 
-5.9

>  <cluster_rmsd>  (47) 
1.14

>  <rmsd>  (47) 
270.45

>  <cluster>  (47) 
2

$$$$
IBHRIKXMMSCQIV-DXVXUIDUNA-O
     RDKit          3D

 64 68  0  0  0  0  0  0  0  0999 V2000
  143.8794   78.9504  222.9272 H   0  0  0  0  0  0  0  0  0  0  0  0
  142.8580   79.3560  222.9740 C   0  0  0  0  0  0  0  0  0  0  0  0
  142.6350   80.7150  222.7380 C   0  0  0  0  0  0  0  0  0  0  0  0
  143.4785   81.3758  222.4894 H   0  0  0  0  0  0  0  0  0  0  0  0
  141.3390   81.2350  222.8180 C   0  0  0  0  0  0  0  0  0  0  0  0
  141.1677   82.3078  222.6458 H   0  0  0  0  0  0  0  0  0  0  0  0
  140.2530   80.3910  223.1180 C   0  0  0  0  0  0  0  0  0  0  0  0
  138.8540   80.9410  223.1700 C   0  0  0  0  0  0  0  0  0  0  0  0
  138.1510   80.1504  222.8687 H   0  0  0  0  0  0  0  0  0  0  0  0
  138.6609   81.2769  224.1995 H   0  0  0  0  0  0  0  0  0  0  0  0
  138.6710   82.1460  222.2390 C   0  0  0  0  0  0  0  0  0  0  0  0
  137.8214   82.7487  222.5924 H   0  0  0  0  0  0  0  0  0  0  0  0
  139.5951   82.7426  222.2495 H   0  0  0  0  0  0  0  0  0  0  0  0
  138.4110   81.7090  220.8660 N   0  0  0  0  0  0  0  0  0  0  0  0
  139.3130   81.3130  220.0140 C   0  0  0  0  0  0  0  0  0  0  0  0
  139.7660   80.0280  220.0200 N   0  0  0  0  0  0  0  0  0  0  0  0
  140.7180   79.6230  219.1380 C   0  0  0  0  0  0  0  0  0  0  0  0
  141.1890   78.2560  219.1350 N   0  0  0  0  0  0  0  0  0  0  0  0
  140.4720   77.2460  219.9320 C   0  0  0  0  0  0  0  0  0  0  0  0
  139.5557   76.9608  219.3945 H   0  0  0  0  0  0  0  0  0  0  0  0
  140.2499   77.6956  220.9110 H   0  0  0  0  0  0  0  0  0  0  0  0
  141.2920   76.0010  220.1810 C   0  0  0  0  0  0  0  0  0  0  0  0
  140.7310   74.9670  220.9460 C   0  0  0  0  0  0  0  0  0  0  0  0
  139.7069   75.0687  221.3344 H   0  0  0  0  0  0  0  0  0  0  0  0
  141.4650   73.8080  221.2180 C   0  0  0  0  0  0  0  0  0  0  0  0
  141.0191   73.0036  221.8214 H   0  0  0  0  0  0  0  0  0  0  0  0
  142.7630   73.6720  220.7240 C   0  0  0  0  0  0  0  0  0  0  0  0
  143.3411   72.7622  220.9432 H   0  0  0  0  0  0  0  0  0  0  0  0
  143.3290   74.6870  219.9530 C   0  0  0  0  0  0  0  0  0  0  0  0
  144.3536   74.5750  219.5688 H   0  0  0  0  0  0  0  0  0  0  0  0
  142.5980   75.8520  219.6640 C   0  0  0  0  0  0  0  0  0  0  0  0
  143.2470   76.9610  218.8820 C   0  0  0  0  0  0  0  0  0  0  0  0
  143.9266   76.5251  218.1349 H   0  0  0  0  0  0  0  0  0  0  0  0
  143.8044   77.6036  219.5794 H   0  0  0  0  0  0  0  0  0  0  0  0
  142.2000   77.8080  218.1700 C   0  0  0  0  0  0  0  0  0  0  0  0
  141.7162   77.2083  217.3850 H   0  0  0  0  0  0  0  0  0  0  0  0
  142.6861   78.6847  217.7171 H   0  0  0  0  0  0  0  0  0  0  0  0
  141.2200   80.5190  218.2490 N   0  0  0  0  0  0  0  0  0  0  0  0
  140.7780   81.8010  218.2360 C   0  0  0  0  0  0  0  0  0  0  0  0
  141.3110   82.7270  217.2850 N   0  0  0  0  0  0  0  0  0  0  0  0
  142.1980   83.7920  217.7680 C   0  0  0  0  0  0  0  0  0  0  0  0
  141.8826   84.7508  217.3308 H   0  0  0  0  0  0  0  0  0  0  0  0
  142.1353   83.8344  218.8654 H   0  0  0  0  0  0  0  0  0  0  0  0
  143.6480   83.5100  217.3680 C   0  0  0  0  0  0  0  0  0  0  0  0
  144.2463   84.4159  217.5448 H   0  0  0  0  0  0  0  0  0  0  0  0
  144.0069   82.6666  217.9761 H   0  0  0  0  0  0  0  0  0  0  0  0
  143.7780   83.1130  215.8910 C   0  0  0  0  0  0  0  0  0  0  0  0
  143.1939   83.8203  215.2839 H   0  0  0  0  0  0  0  0  0  0  0  0
  144.8469   83.1407  215.6326 H   0  0  0  0  0  0  0  0  0  0  0  0
  143.2920   81.7510  215.6240 N   0  0  0  0  0  0  0  0  0  0  0  0
  143.3470   81.1670  216.4900 H   0  0  0  0  0  0  0  0  0  0  0  0
  143.9410   81.3240  214.9240 H   0  0  0  0  0  0  0  0  0  0  0  0
  141.9330   81.7250  215.0500 C   0  0  0  0  0  0  0  0  0  0  0  0
  141.9723   82.1358  214.0303 H   0  0  0  0  0  0  0  0  0  0  0  0
  141.5886   80.6803  215.0507 H   0  0  0  0  0  0  0  0  0  0  0  0
  140.9310   82.5500  215.8770 C   0  0  0  0  0  0  0  0  0  0  0  0
  140.8410   83.5450  215.4167 H   0  0  0  0  0  0  0  0  0  0  0  0
  139.9838   81.9906  215.8740 H   0  0  0  0  0  0  0  0  0  0  0  0
  139.8190   82.1970  219.1140 N   0  0  0  0  0  0  0  0  0  0  0  0
  139.4810   83.1860  219.1010 H   0  0  0  0  0  0  0  0  0  0  0  0
  140.4820   79.0220  223.3310 C   0  0  0  0  0  0  0  0  0  0  0  0
  139.6373   78.3511  223.5462 H   0  0  0  0  0  0  0  0  0  0  0  0
  141.7820   78.5100  223.2700 C   0  0  0  0  0  0  0  0  0  0  0  0
  141.9597   77.4403  223.4550 H   0  0  0  0  0  0  0  0  0  0  0  0
  1  2  1  0
  2  3  2  0
  3  4  1  0
  3  5  1  0
  5  6  1  0
  5  7  2  0
  7  8  1  0
  8  9  1  0
  8 10  1  0
  8 11  1  0
 11 12  1  0
 11 13  1  0
 11 14  1  0
 14 15  2  0
 15 16  1  0
 16 17  2  0
 17 18  1  0
 18 19  1  0
 19 20  1  0
 19 21  1  0
 19 22  1  0
 22 23  2  0
 23 24  1  0
 23 25  1  0
 25 26  1  0
 25 27  2  0
 27 28  1  0
 27 29  1  0
 29 30  1  0
 29 31  2  0
 31 32  1  0
 32 33  1  0
 32 34  1  0
 32 35  1  0
 35 36  1  0
 35 37  1  0
 17 38  1  0
 38 39  2  0
 39 40  1  0
 40 41  1  0
 41 42  1  0
 41 43  1  0
 41 44  1  0
 44 45  1  0
 44 46  1  0
 44 47  1  0
 47 48  1  0
 47 49  1  0
 47 50  1  0
 50 51  1  0
 50 52  1  0
 50 53  1  0
 53 54  1  0
 53 55  1  0
 53 56  1  0
 56 57  1  0
 56 58  1  0
 39 59  1  0
 59 60  1  0
  7 61  1  0
 61 62  1  0
 61 63  2  0
 63 64  1  0
 63  2  1  0
 59 15  1  0
 35 18  1  0
 56 40  1  0
 31 22  1  0
M  CHG  1  50   1
M  END
>  <UniqueID>  (48) 
711

>  <SMILES>  (48) 
c1ccc(CC/N=c2\nc(N3CCc4ccccc4C3)nc(N3CCC[NH2+]CC3)[nH]2)cc1

>  <Energy>  (48) 
73.4440716094754

>  <Genealogy>  (48) 
c1ccc(CCNc2nc(N3CCC[NH2+]CC3)nc(N3CCc4ccccc4C3)n2)cc1 (protonated)
c1ccc(CCN=c2nc(N3CCc4ccccc4C3)nc(N3CCC[NH2+]CC3)[nH]2)cc1 (tautomer)
c1ccc(CC/N=c2\nc(N3CCc4ccccc4C3)nc(N3CCC[NH2+]CC3)[nH]2)cc1 (cis-trans isomerization)
c1ccc(CC/N=c2\nc(N3CCc4ccccc4C3)nc(N3CCC[NH2+]CC3)[nH]2)cc1 (3D coordinates assigned)
c1ccc(CC/N=c2\nc(N3CCc4ccccc4C3)nc(N3CCC[NH2+]CC3)[nH]2)cc1 (nonaromatic ring conformer: 73.4440716094754 kcal/mol)

>  <smiles>  (48) 
c1ccc(CCNc2nc(N3CCCNCC3)nc(N3CCc4ccccc4C3)n2)cc1

>  <score_type>  (48) 
oracle

>  <origin>  (48) 
autodockgpu

>  <m_score__min__energy>  (48) 
-7.3499999999999996

>  <m_primary>  (48) 
energy

>  <meeko>  (48) 
{"free_energy": -4.88, "intermolecular_energy": -8.46, "internal_energy": -2.29, "cluster_size": 4, "cluster_id": 8, "rank_in_cluster": 4}

>  <energy>  (48) 
-5.67

>  <cluster_rmsd>  (48) 
1.2

>  <rmsd>  (48) 
270.68

>  <cluster>  (48) 
2

$$$$
IBHRIKXMMSCQIV-DXVXUIDUNA-O
     RDKit          3D

 64 68  0  0  0  0  0  0  0  0999 V2000
  146.2736   74.7034  221.8433 H   0  0  0  0  0  0  0  0  0  0  0  0
  145.7370   74.0800  221.1130 C   0  0  0  0  0  0  0  0  0  0  0  0
  146.1780   72.7810  220.8450 C   0  0  0  0  0  0  0  0  0  0  0  0
  147.0522   72.3764  221.3761 H   0  0  0  0  0  0  0  0  0  0  0  0
  145.5080   71.9960  219.9020 C   0  0  0  0  0  0  0  0  0  0  0  0
  145.8655   70.9789  219.6835 H   0  0  0  0  0  0  0  0  0  0  0  0
  144.3790   72.5000  219.2310 C   0  0  0  0  0  0  0  0  0  0  0  0
  143.6350   71.6450  218.2420 C   0  0  0  0  0  0  0  0  0  0  0  0
  143.0222   72.2959  217.6011 H   0  0  0  0  0  0  0  0  0  0  0  0
  144.3769   71.0870  217.6519 H   0  0  0  0  0  0  0  0  0  0  0  0
  142.7190   70.6270  218.9320 C   0  0  0  0  0  0  0  0  0  0  0  0
  142.6246   69.7361  218.2938 H   0  0  0  0  0  0  0  0  0  0  0  0
  143.1599   70.3574  219.9031 H   0  0  0  0  0  0  0  0  0  0  0  0
  141.3890   71.1960  219.1620 N   0  0  0  0  0  0  0  0  0  0  0  0
  141.0350   71.8960  220.2010 C   0  0  0  0  0  0  0  0  0  0  0  0
  140.6840   71.2900  221.3690 N   0  0  0  0  0  0  0  0  0  0  0  0
  140.3020   72.0240  222.4470 C   0  0  0  0  0  0  0  0  0  0  0  0
  139.9430   71.3810  223.6900 N   0  0  0  0  0  0  0  0  0  0  0  0
  140.6120   71.7950  224.9350 C   0  0  0  0  0  0  0  0  0  0  0  0
  140.1734   72.7469  225.2689 H   0  0  0  0  0  0  0  0  0  0  0  0
  141.6854   71.8925  224.7153 H   0  0  0  0  0  0  0  0  0  0  0  0
  140.4680   70.7820  226.0470 C   0  0  0  0  0  0  0  0  0  0  0  0
  141.0780   71.0490  227.2830 C   0  0  0  0  0  0  0  0  0  0  0  0
  141.6312   71.9886  227.4285 H   0  0  0  0  0  0  0  0  0  0  0  0
  140.9860   70.1260  228.3310 C   0  0  0  0  0  0  0  0  0  0  0  0
  141.4695   70.3401  229.2955 H   0  0  0  0  0  0  0  0  0  0  0  0
  140.2820   68.9350  228.1540 C   0  0  0  0  0  0  0  0  0  0  0  0
  140.2155   68.2089  228.9776 H   0  0  0  0  0  0  0  0  0  0  0  0
  139.6620   68.6630  226.9340 C   0  0  0  0  0  0  0  0  0  0  0  0
  139.1112   67.7205  226.7988 H   0  0  0  0  0  0  0  0  0  0  0  0
  139.7370   69.5860  225.8770 C   0  0  0  0  0  0  0  0  0  0  0  0
  139.1130   69.2480  224.5510 C   0  0  0  0  0  0  0  0  0  0  0  0
  138.1963   68.6647  224.7226 H   0  0  0  0  0  0  0  0  0  0  0  0
  139.8351   68.6642  223.9614 H   0  0  0  0  0  0  0  0  0  0  0  0
  138.7620   70.5130  223.7770 C   0  0  0  0  0  0  0  0  0  0  0  0
  137.9526   71.0471  224.2962 H   0  0  0  0  0  0  0  0  0  0  0  0
  138.4329   70.2414  222.7631 H   0  0  0  0  0  0  0  0  0  0  0  0
  140.2680   73.3780  222.3450 N   0  0  0  0  0  0  0  0  0  0  0  0
  140.6140   73.9930  221.1870 C   0  0  0  0  0  0  0  0  0  0  0  0
  140.5820   75.4210  221.1020 N   0  0  0  0  0  0  0  0  0  0  0  0
  140.7280   76.1970  222.3390 C   0  0  0  0  0  0  0  0  0  0  0  0
  139.9633   75.8738  223.0607 H   0  0  0  0  0  0  0  0  0  0  0  0
  141.7346   76.0255  222.7481 H   0  0  0  0  0  0  0  0  0  0  0  0
  140.5570   77.6930  222.0610 C   0  0  0  0  0  0  0  0  0  0  0  0
  139.6596   77.8362  221.4412 H   0  0  0  0  0  0  0  0  0  0  0  0
  140.4652   78.2045  223.0305 H   0  0  0  0  0  0  0  0  0  0  0  0
  141.7610   78.2960  221.3290 C   0  0  0  0  0  0  0  0  0  0  0  0
  141.4148   79.1504  220.7288 H   0  0  0  0  0  0  0  0  0  0  0  0
  142.4921   78.6009  222.0922 H   0  0  0  0  0  0  0  0  0  0  0  0
  142.4290   77.3360  220.4370 N   0  0  0  0  0  0  0  0  0  0  0  0
  142.7810   76.5150  220.9830 H   0  0  0  0  0  0  0  0  0  0  0  0
  143.2650   77.8190  220.0360 H   0  0  0  0  0  0  0  0  0  0  0  0
  141.5770   76.9030  219.3130 C   0  0  0  0  0  0  0  0  0  0  0  0
  141.1722   77.7951  218.8126 H   0  0  0  0  0  0  0  0  0  0  0  0
  142.1999   76.3057  218.6309 H   0  0  0  0  0  0  0  0  0  0  0  0
  140.4040   76.0190  219.7720 C   0  0  0  0  0  0  0  0  0  0  0  0
  139.4940   76.6367  219.7910 H   0  0  0  0  0  0  0  0  0  0  0  0
  140.3398   75.1850  219.0577 H   0  0  0  0  0  0  0  0  0  0  0  0
  141.0040   73.2530  220.1160 N   0  0  0  0  0  0  0  0  0  0  0  0
  141.2690   73.7300  219.2240 H   0  0  0  0  0  0  0  0  0  0  0  0
  143.9270   73.7980  219.5210 C   0  0  0  0  0  0  0  0  0  0  0  0
  143.0336   74.1939  219.0159 H   0  0  0  0  0  0  0  0  0  0  0  0
  144.6110   74.5880  220.4510 C   0  0  0  0  0  0  0  0  0  0  0  0
  144.2643   75.6101  220.6632 H   0  0  0  0  0  0  0  0  0  0  0  0
  1  2  1  0
  2  3  2  0
  3  4  1  0
  3  5  1  0
  5  6  1  0
  5  7  2  0
  7  8  1  0
  8  9  1  0
  8 10  1  0
  8 11  1  0
 11 12  1  0
 11 13  1  0
 11 14  1  0
 14 15  2  0
 15 16  1  0
 16 17  2  0
 17 18  1  0
 18 19  1  0
 19 20  1  0
 19 21  1  0
 19 22  1  0
 22 23  2  0
 23 24  1  0
 23 25  1  0
 25 26  1  0
 25 27  2  0
 27 28  1  0
 27 29  1  0
 29 30  1  0
 29 31  2  0
 31 32  1  0
 32 33  1  0
 32 34  1  0
 32 35  1  0
 35 36  1  0
 35 37  1  0
 17 38  1  0
 38 39  2  0
 39 40  1  0
 40 41  1  0
 41 42  1  0
 41 43  1  0
 41 44  1  0
 44 45  1  0
 44 46  1  0
 44 47  1  0
 47 48  1  0
 47 49  1  0
 47 50  1  0
 50 51  1  0
 50 52  1  0
 50 53  1  0
 53 54  1  0
 53 55  1  0
 53 56  1  0
 56 57  1  0
 56 58  1  0
 39 59  1  0
 59 60  1  0
  7 61  1  0
 61 62  1  0
 61 63  2  0
 63 64  1  0
 63  2  1  0
 59 15  1  0
 35 18  1  0
 56 40  1  0
 31 22  1  0
M  CHG  1  50   1
M  END
>  <UniqueID>  (49) 
711

>  <SMILES>  (49) 
c1ccc(CC/N=c2\nc(N3CCc4ccccc4C3)nc(N3CCC[NH2+]CC3)[nH]2)cc1

>  <Energy>  (49) 
73.4440716094754

>  <Genealogy>  (49) 
c1ccc(CCNc2nc(N3CCC[NH2+]CC3)nc(N3CCc4ccccc4C3)n2)cc1 (protonated)
c1ccc(CCN=c2nc(N3CCc4ccccc4C3)nc(N3CCC[NH2+]CC3)[nH]2)cc1 (tautomer)
c1ccc(CC/N=c2\nc(N3CCc4ccccc4C3)nc(N3CCC[NH2+]CC3)[nH]2)cc1 (cis-trans isomerization)
c1ccc(CC/N=c2\nc(N3CCc4ccccc4C3)nc(N3CCC[NH2+]CC3)[nH]2)cc1 (3D coordinates assigned)
c1ccc(CC/N=c2\nc(N3CCc4ccccc4C3)nc(N3CCC[NH2+]CC3)[nH]2)cc1 (nonaromatic ring conformer: 73.4440716094754 kcal/mol)

>  <smiles>  (49) 
c1ccc(CCNc2nc(N3CCCNCC3)nc(N3CCc4ccccc4C3)n2)cc1

>  <score_type>  (49) 
oracle

>  <origin>  (49) 
autodockgpu

>  <m_score__min__energy>  (49) 
-7.3499999999999996

>  <m_primary>  (49) 
energy

>  <meeko>  (49) 
{"free_energy": -7.12, "intermolecular_energy": -10.7, "internal_energy": -1.54, "cluster_size": 5, "cluster_id": 2, "rank_in_cluster": 1}

>  <energy>  (49) 
-7.04

>  <cluster_rmsd>  (49) 
0.0

>  <rmsd>  (49) 
270.32

>  <cluster>  (49) 
3

$$$$
IBHRIKXMMSCQIV-DXVXUIDUNA-O
     RDKit          3D

 64 68  0  0  0  0  0  0  0  0999 V2000
  141.3179   73.2351  227.9569 H   0  0  0  0  0  0  0  0  0  0  0  0
  141.0710   72.2290  227.5870 C   0  0  0  0  0  0  0  0  0  0  0  0
  141.5360   71.8110  226.3370 C   0  0  0  0  0  0  0  0  0  0  0  0
  142.1609   72.4822  225.7295 H   0  0  0  0  0  0  0  0  0  0  0  0
  141.2060   70.5380  225.8590 C   0  0  0  0  0  0  0  0  0  0  0  0
  141.5620   70.2158  224.8693 H   0  0  0  0  0  0  0  0  0  0  0  0
  140.4210   69.6680  226.6380 C   0  0  0  0  0  0  0  0  0  0  0  0
  140.0930   68.2870  226.1410 C   0  0  0  0  0  0  0  0  0  0  0  0
  140.9976   67.8458  225.6971 H   0  0  0  0  0  0  0  0  0  0  0  0
  139.7385   67.6945  226.9973 H   0  0  0  0  0  0  0  0  0  0  0  0
  138.9810   68.3020  225.0850 C   0  0  0  0  0  0  0  0  0  0  0  0
  138.8309   67.2807  224.7051 H   0  0  0  0  0  0  0  0  0  0  0  0
  138.0580   68.6773  225.5510 H   0  0  0  0  0  0  0  0  0  0  0  0
  139.3340   69.1820  223.9690 N   0  0  0  0  0  0  0  0  0  0  0  0
  138.6860   70.2560  223.6190 C   0  0  0  0  0  0  0  0  0  0  0  0
  137.5000   70.5820  224.2050 N   0  0  0  0  0  0  0  0  0  0  0  0
  136.8210   71.6960  223.8270 C   0  0  0  0  0  0  0  0  0  0  0  0
  135.5690   72.0490  224.4590 N   0  0  0  0  0  0  0  0  0  0  0  0
  135.2410   73.4700  224.6620 C   0  0  0  0  0  0  0  0  0  0  0  0
  134.9081   73.8936  223.7029 H   0  0  0  0  0  0  0  0  0  0  0  0
  136.1477   73.9670  225.0373 H   0  0  0  0  0  0  0  0  0  0  0  0
  134.1510   73.6830  225.6870 C   0  0  0  0  0  0  0  0  0  0  0  0
  133.7570   74.9960  225.9880 C   0  0  0  0  0  0  0  0  0  0  0  0
  134.2301   75.8413  225.4669 H   0  0  0  0  0  0  0  0  0  0  0  0
  132.7670   75.2370  226.9460 C   0  0  0  0  0  0  0  0  0  0  0  0
  132.4666   76.2693  227.1786 H   0  0  0  0  0  0  0  0  0  0  0  0
  132.1600   74.1680  227.6070 C   0  0  0  0  0  0  0  0  0  0  0  0
  131.3854   74.3593  228.3642 H   0  0  0  0  0  0  0  0  0  0  0  0
  132.5340   72.8570  227.3090 C   0  0  0  0  0  0  0  0  0  0  0  0
  132.0541   72.0185  227.8349 H   0  0  0  0  0  0  0  0  0  0  0  0
  133.5200   72.6020  226.3410 C   0  0  0  0  0  0  0  0  0  0  0  0
  133.9520   71.1850  226.0770 C   0  0  0  0  0  0  0  0  0  0  0  0
  133.0839   70.5178  226.1837 H   0  0  0  0  0  0  0  0  0  0  0  0
  134.7347   70.9150  226.8012 H   0  0  0  0  0  0  0  0  0  0  0  0
  134.5200   71.0440  224.6700 C   0  0  0  0  0  0  0  0  0  0  0  0
  133.7163   71.1938  223.9341 H   0  0  0  0  0  0  0  0  0  0  0  0
  134.9482   70.0381  224.5482 H   0  0  0  0  0  0  0  0  0  0  0  0
  137.3350   72.4840  222.8480 N   0  0  0  0  0  0  0  0  0  0  0  0
  138.5140   72.1680  222.2560 C   0  0  0  0  0  0  0  0  0  0  0  0
  139.0460   73.0170  221.2340 N   0  0  0  0  0  0  0  0  0  0  0  0
  138.2330   74.1460  220.7690 C   0  0  0  0  0  0  0  0  0  0  0  0
  137.9689   73.9899  219.7126 H   0  0  0  0  0  0  0  0  0  0  0  0
  137.3236   74.2044  221.3851 H   0  0  0  0  0  0  0  0  0  0  0  0
  139.0050   75.4610  220.9050 C   0  0  0  0  0  0  0  0  0  0  0  0
  139.4465   75.7141  219.9298 H   0  0  0  0  0  0  0  0  0  0  0  0
  138.2964   76.2333  221.2388 H   0  0  0  0  0  0  0  0  0  0  0  0
  140.1270   75.3740  221.9460 C   0  0  0  0  0  0  0  0  0  0  0  0
  140.2909   76.3751  222.3715 H   0  0  0  0  0  0  0  0  0  0  0  0
  139.8126   74.6523  222.7143 H   0  0  0  0  0  0  0  0  0  0  0  0
  141.3940   74.8920  221.3750 N   0  0  0  0  0  0  0  0  0  0  0  0
  142.2060   75.3670  221.8340 H   0  0  0  0  0  0  0  0  0  0  0  0
  141.4040   75.1740  220.3680 H   0  0  0  0  0  0  0  0  0  0  0  0
  141.5320   73.4250  221.4330 C   0  0  0  0  0  0  0  0  0  0  0  0
  142.4822   73.1407  220.9573 H   0  0  0  0  0  0  0  0  0  0  0  0
  141.5059   73.1278  222.4918 H   0  0  0  0  0  0  0  0  0  0  0  0
  140.3830   72.6980  220.7140 C   0  0  0  0  0  0  0  0  0  0  0  0
  140.4134   72.9738  219.6496 H   0  0  0  0  0  0  0  0  0  0  0  0
  140.5375   71.6219  220.8815 H   0  0  0  0  0  0  0  0  0  0  0  0
  139.1940   71.0580  222.6460 N   0  0  0  0  0  0  0  0  0  0  0  0
  140.1020   70.8180  222.1870 H   0  0  0  0  0  0  0  0  0  0  0  0
  139.9760   70.0870  227.9020 C   0  0  0  0  0  0  0  0  0  0  0  0
  139.3784   69.4068  228.5266 H   0  0  0  0  0  0  0  0  0  0  0  0
  140.2910   71.3680  228.3690 C   0  0  0  0  0  0  0  0  0  0  0  0
  139.9253   71.6993  229.3521 H   0  0  0  0  0  0  0  0  0  0  0  0
  1  2  1  0
  2  3  2  0
  3  4  1  0
  3  5  1  0
  5  6  1  0
  5  7  2  0
  7  8  1  0
  8  9  1  0
  8 10  1  0
  8 11  1  0
 11 12  1  0
 11 13  1  0
 11 14  1  0
 14 15  2  0
 15 16  1  0
 16 17  2  0
 17 18  1  0
 18 19  1  0
 19 20  1  0
 19 21  1  0
 19 22  1  0
 22 23  2  0
 23 24  1  0
 23 25  1  0
 25 26  1  0
 25 27  2  0
 27 28  1  0
 27 29  1  0
 29 30  1  0
 29 31  2  0
 31 32  1  0
 32 33  1  0
 32 34  1  0
 32 35  1  0
 35 36  1  0
 35 37  1  0
 17 38  1  0
 38 39  2  0
 39 40  1  0
 40 41  1  0
 41 42  1  0
 41 43  1  0
 41 44  1  0
 44 45  1  0
 44 46  1  0
 44 47  1  0
 47 48  1  0
 47 49  1  0
 47 50  1  0
 50 51  1  0
 50 52  1  0
 50 53  1  0
 53 54  1  0
 53 55  1  0
 53 56  1  0
 56 57  1  0
 56 58  1  0
 39 59  1  0
 59 60  1  0
  7 61  1  0
 61 62  1  0
 61 63  2  0
 63 64  1  0
 63  2  1  0
 59 15  1  0
 35 18  1  0
 56 40  1  0
 31 22  1  0
M  CHG  1  50   1
M  END
>  <UniqueID>  (50) 
711

>  <SMILES>  (50) 
c1ccc(CC/N=c2\nc(N3CCc4ccccc4C3)nc(N3CCC[NH2+]CC3)[nH]2)cc1

>  <Energy>  (50) 
73.4440716094754

>  <Genealogy>  (50) 
c1ccc(CCNc2nc(N3CCC[NH2+]CC3)nc(N3CCc4ccccc4C3)n2)cc1 (protonated)
c1ccc(CCN=c2nc(N3CCc4ccccc4C3)nc(N3CCC[NH2+]CC3)[nH]2)cc1 (tautomer)
c1ccc(CC/N=c2\nc(N3CCc4ccccc4C3)nc(N3CCC[NH2+]CC3)[nH]2)cc1 (cis-trans isomerization)
c1ccc(CC/N=c2\nc(N3CCc4ccccc4C3)nc(N3CCC[NH2+]CC3)[nH]2)cc1 (3D coordinates assigned)
c1ccc(CC/N=c2\nc(N3CCc4ccccc4C3)nc(N3CCC[NH2+]CC3)[nH]2)cc1 (nonaromatic ring conformer: 73.4440716094754 kcal/mol)

>  <smiles>  (50) 
c1ccc(CCNc2nc(N3CCCNCC3)nc(N3CCc4ccccc4C3)n2)cc1

>  <score_type>  (50) 
oracle

>  <origin>  (50) 
autodockgpu

>  <m_score__min__energy>  (50) 
-7.3499999999999996

>  <m_primary>  (50) 
energy

>  <meeko>  (50) 
{"free_energy": -6.13, "intermolecular_energy": -9.71, "internal_energy": -1.32, "cluster_size": 2, "cluster_id": 3, "rank_in_cluster": 2}

>  <energy>  (50) 
-6.13

>  <cluster_rmsd>  (50) 
1.5

>  <rmsd>  (50) 
270.36

>  <cluster>  (50) 
3

$$$$
IBHRIKXMMSCQIV-DXVXUIDUNA-O
     RDKit          3D

 64 68  0  0  0  0  0  0  0  0999 V2000
  143.8655   78.9674  222.7740 H   0  0  0  0  0  0  0  0  0  0  0  0
  142.8600   79.4010  222.8790 C   0  0  0  0  0  0  0  0  0  0  0  0
  141.7840   78.5900  223.2520 C   0  0  0  0  0  0  0  0  0  0  0  0
  141.9459   77.5212  223.4559 H   0  0  0  0  0  0  0  0  0  0  0  0
  140.5020   79.1370  223.3660 C   0  0  0  0  0  0  0  0  0  0  0  0
  139.6549   78.4935  223.6459 H   0  0  0  0  0  0  0  0  0  0  0  0
  140.2910   80.5080  223.1240 C   0  0  0  0  0  0  0  0  0  0  0  0
  138.9200   81.1060  223.2790 C   0  0  0  0  0  0  0  0  0  0  0  0
  138.4932   80.7708  224.2358 H   0  0  0  0  0  0  0  0  0  0  0  0
  139.0232   82.2007  223.2490 H   0  0  0  0  0  0  0  0  0  0  0  0
  137.9760   80.6900  222.1440 C   0  0  0  0  0  0  0  0  0  0  0  0
  138.0694   79.6069  221.9762 H   0  0  0  0  0  0  0  0  0  0  0  0
  136.9455   80.9460  222.4313 H   0  0  0  0  0  0  0  0  0  0  0  0
  138.3070   81.3980  220.9050 N   0  0  0  0  0  0  0  0  0  0  0  0
  139.2310   81.0480  220.0580 C   0  0  0  0  0  0  0  0  0  0  0  0
  139.7250   79.7780  220.0440 N   0  0  0  0  0  0  0  0  0  0  0  0
  140.6990   79.4210  219.1660 C   0  0  0  0  0  0  0  0  0  0  0  0
  141.2140   78.0700  219.1430 N   0  0  0  0  0  0  0  0  0  0  0  0
  140.5110   77.0190  219.8970 C   0  0  0  0  0  0  0  0  0  0  0  0
  139.6183   76.7176  219.3294 H   0  0  0  0  0  0  0  0  0  0  0  0
  140.2498   77.4374  220.8802 H   0  0  0  0  0  0  0  0  0  0  0  0
  141.3650   75.7950  220.1380 C   0  0  0  0  0  0  0  0  0  0  0  0
  140.8180   74.7250  220.8640 C   0  0  0  0  0  0  0  0  0  0  0  0
  139.7817   74.7844  221.2281 H   0  0  0  0  0  0  0  0  0  0  0  0
  141.5830   73.5840  221.1270 C   0  0  0  0  0  0  0  0  0  0  0  0
  141.1486   72.7513  221.6996 H   0  0  0  0  0  0  0  0  0  0  0  0
  142.8960   73.5010  220.6640 C   0  0  0  0  0  0  0  0  0  0  0  0
  143.4976   72.6051  220.8772 H   0  0  0  0  0  0  0  0  0  0  0  0
  143.4480   74.5520  219.9310 C   0  0  0  0  0  0  0  0  0  0  0  0
  144.4848   74.4818  219.5702 H   0  0  0  0  0  0  0  0  0  0  0  0
  142.6870   75.7000  219.6510 C   0  0  0  0  0  0  0  0  0  0  0  0
  143.3190   76.8470  218.9110 C   0  0  0  0  0  0  0  0  0  0  0  0
  144.0297   76.4504  218.1710 H   0  0  0  0  0  0  0  0  0  0  0  0
  143.8389   77.4898  219.6366 H   0  0  0  0  0  0  0  0  0  0  0  0
  142.2630   77.6780  218.1930 C   0  0  0  0  0  0  0  0  0  0  0  0
  141.8183   77.0829  217.3817 H   0  0  0  0  0  0  0  0  0  0  0  0
  142.7316   78.5806  217.7737 H   0  0  0  0  0  0  0  0  0  0  0  0
  141.1830   80.3490  218.3010 N   0  0  0  0  0  0  0  0  0  0  0  0
  140.6990   81.6160  218.3070 C   0  0  0  0  0  0  0  0  0  0  0  0
  141.2130   82.5780  217.3800 N   0  0  0  0  0  0  0  0  0  0  0  0
  142.2180   83.5370  217.8530 C   0  0  0  0  0  0  0  0  0  0  0  0
  141.9634   84.5401  217.4802 H   0  0  0  0  0  0  0  0  0  0  0  0
  142.2244   83.5286  218.9529 H   0  0  0  0  0  0  0  0  0  0  0  0
  143.6120   83.1530  217.3500 C   0  0  0  0  0  0  0  0  0  0  0  0
  144.3018   83.9861  217.5503 H   0  0  0  0  0  0  0  0  0  0  0  0
  143.9196   82.2390  217.8792 H   0  0  0  0  0  0  0  0  0  0  0  0
  143.6280   82.8510  215.8470 C   0  0  0  0  0  0  0  0  0  0  0  0
  143.1145   83.6673  215.3179 H   0  0  0  0  0  0  0  0  0  0  0  0
  144.6793   82.7644  215.5351 H   0  0  0  0  0  0  0  0  0  0  0  0
  142.9590   81.5820  215.5190 N   0  0  0  0  0  0  0  0  0  0  0  0
  142.9760   80.9370  216.3430 H   0  0  0  0  0  0  0  0  0  0  0  0
  143.5180   81.1260  214.7620 H   0  0  0  0  0  0  0  0  0  0  0  0
  141.5850   81.7660  215.0160 C   0  0  0  0  0  0  0  0  0  0  0  0
  141.6274   82.3233  214.0686 H   0  0  0  0  0  0  0  0  0  0  0  0
  141.1423   80.7686  214.8776 H   0  0  0  0  0  0  0  0  0  0  0  0
  140.6970   82.5400  216.0050 C   0  0  0  0  0  0  0  0  0  0  0  0
  140.6010   83.5748  215.6445 H   0  0  0  0  0  0  0  0  0  0  0  0
  139.7341   82.0097  216.0448 H   0  0  0  0  0  0  0  0  0  0  0  0
  139.7180   81.9650  219.1800 N   0  0  0  0  0  0  0  0  0  0  0  0
  139.3490   82.9430  219.1820 H   0  0  0  0  0  0  0  0  0  0  0  0
  141.3800   81.3210  222.7710 C   0  0  0  0  0  0  0  0  0  0  0  0
  141.2285   82.3967  222.5979 H   0  0  0  0  0  0  0  0  0  0  0  0
  142.6570   80.7660  222.6390 C   0  0  0  0  0  0  0  0  0  0  0  0
  143.5043   81.4033  222.3459 H   0  0  0  0  0  0  0  0  0  0  0  0
  1  2  1  0
  2  3  2  0
  3  4  1  0
  3  5  1  0
  5  6  1  0
  5  7  2  0
  7  8  1  0
  8  9  1  0
  8 10  1  0
  8 11  1  0
 11 12  1  0
 11 13  1  0
 11 14  1  0
 14 15  2  0
 15 16  1  0
 16 17  2  0
 17 18  1  0
 18 19  1  0
 19 20  1  0
 19 21  1  0
 19 22  1  0
 22 23  2  0
 23 24  1  0
 23 25  1  0
 25 26  1  0
 25 27  2  0
 27 28  1  0
 27 29  1  0
 29 30  1  0
 29 31  2  0
 31 32  1  0
 32 33  1  0
 32 34  1  0
 32 35  1  0
 35 36  1  0
 35 37  1  0
 17 38  1  0
 38 39  2  0
 39 40  1  0
 40 41  1  0
 41 42  1  0
 41 43  1  0
 41 44  1  0
 44 45  1  0
 44 46  1  0
 44 47  1  0
 47 48  1  0
 47 49  1  0
 47 50  1  0
 50 51  1  0
 50 52  1  0
 50 53  1  0
 53 54  1  0
 53 55  1  0
 53 56  1  0
 56 57  1  0
 56 58  1  0
 39 59  1  0
 59 60  1  0
  7 61  1  0
 61 62  1  0
 61 63  2  0
 63 64  1  0
 63  2  1  0
 59 15  1  0
 35 18  1  0
 56 40  1  0
 31 22  1  0
M  CHG  1  50   1
M  END
>  <UniqueID>  (51) 
711

>  <SMILES>  (51) 
c1ccc(CC/N=c2\nc(N3CCc4ccccc4C3)nc(N3CCC[NH2+]CC3)[nH]2)cc1

>  <Energy>  (51) 
73.4440716094754

>  <Genealogy>  (51) 
c1ccc(CCNc2nc(N3CCC[NH2+]CC3)nc(N3CCc4ccccc4C3)n2)cc1 (protonated)
c1ccc(CCN=c2nc(N3CCc4ccccc4C3)nc(N3CCC[NH2+]CC3)[nH]2)cc1 (tautomer)
c1ccc(CC/N=c2\nc(N3CCc4ccccc4C3)nc(N3CCC[NH2+]CC3)[nH]2)cc1 (cis-trans isomerization)
c1ccc(CC/N=c2\nc(N3CCc4ccccc4C3)nc(N3CCC[NH2+]CC3)[nH]2)cc1 (3D coordinates assigned)
c1ccc(CC/N=c2\nc(N3CCc4ccccc4C3)nc(N3CCC[NH2+]CC3)[nH]2)cc1 (nonaromatic ring conformer: 73.4440716094754 kcal/mol)

>  <smiles>  (51) 
c1ccc(CCNc2nc(N3CCCNCC3)nc(N3CCc4ccccc4C3)n2)cc1

>  <score_type>  (51) 
oracle

>  <origin>  (51) 
autodockgpu

>  <m_score__min__energy>  (51) 
-7.3499999999999996

>  <m_primary>  (51) 
energy

>  <meeko>  (51) 
{"free_energy": -5.16, "intermolecular_energy": -8.74, "internal_energy": -2.32, "cluster_size": 4, "cluster_id": 8, "rank_in_cluster": 1}

>  <energy>  (51) 
-6.18

>  <cluster_rmsd>  (51) 
0.0

>  <rmsd>  (51) 
270.51

>  <cluster>  (51) 
4

$$$$
IBHRIKXMMSCQIV-DXVXUIDUNA-O
     RDKit          3D

 64 68  0  0  0  0  0  0  0  0999 V2000
  140.9386   73.3503  227.5806 H   0  0  0  0  0  0  0  0  0  0  0  0
  140.9230   72.2660  227.3960 C   0  0  0  0  0  0  0  0  0  0  0  0
  141.3970   71.7570  226.1840 C   0  0  0  0  0  0  0  0  0  0  0  0
  141.7991   72.4392  225.4205 H   0  0  0  0  0  0  0  0  0  0  0  0
  141.3600   70.3800  225.9420 C   0  0  0  0  0  0  0  0  0  0  0  0
  141.7218   69.9829  224.9821 H   0  0  0  0  0  0  0  0  0  0  0  0
  140.8620   69.5000  226.9210 C   0  0  0  0  0  0  0  0  0  0  0  0
  140.8530   68.0160  226.6760 C   0  0  0  0  0  0  0  0  0  0  0  0
  141.5116   67.7934  225.8235 H   0  0  0  0  0  0  0  0  0  0  0  0
  141.2043   67.5195  227.5926 H   0  0  0  0  0  0  0  0  0  0  0  0
  139.4450   67.4900  226.3640 C   0  0  0  0  0  0  0  0  0  0  0  0
  139.4148   66.4067  226.5523 H   0  0  0  0  0  0  0  0  0  0  0  0
  138.7229   68.0112  227.0096 H   0  0  0  0  0  0  0  0  0  0  0  0
  139.0930   67.7440  224.9660 N   0  0  0  0  0  0  0  0  0  0  0  0
  138.5050   68.8160  224.5160 C   0  0  0  0  0  0  0  0  0  0  0  0
  137.2960   69.2100  225.0040 N   0  0  0  0  0  0  0  0  0  0  0  0
  136.6810   70.3220  224.5230 C   0  0  0  0  0  0  0  0  0  0  0  0
  135.4040   70.7470  225.0510 N   0  0  0  0  0  0  0  0  0  0  0  0
  134.8960   72.0880  224.7140 C   0  0  0  0  0  0  0  0  0  0  0  0
  134.4958   72.0642  223.6897 H   0  0  0  0  0  0  0  0  0  0  0  0
  135.7356   72.7921  224.8100 H   0  0  0  0  0  0  0  0  0  0  0  0
  133.8040   72.5560  225.6470 C   0  0  0  0  0  0  0  0  0  0  0  0
  133.2460   73.8280  225.4460 C   0  0  0  0  0  0  0  0  0  0  0  0
  133.5958   74.4520  224.6103 H   0  0  0  0  0  0  0  0  0  0  0  0
  132.2480   74.3080  226.3010 C   0  0  0  0  0  0  0  0  0  0  0  0
  131.8198   75.3083  226.1397 H   0  0  0  0  0  0  0  0  0  0  0  0
  131.7960   73.5180  227.3580 C   0  0  0  0  0  0  0  0  0  0  0  0
  131.0144   73.8982  228.0321 H   0  0  0  0  0  0  0  0  0  0  0  0
  132.3330   72.2470  227.5620 C   0  0  0  0  0  0  0  0  0  0  0  0
  131.9744   71.6300  228.3991 H   0  0  0  0  0  0  0  0  0  0  0  0
  133.3290   71.7500  226.7050 C   0  0  0  0  0  0  0  0  0  0  0  0
  133.9380   70.4010  226.9770 C   0  0  0  0  0  0  0  0  0  0  0  0
  133.1660   69.7334  227.3872 H   0  0  0  0  0  0  0  0  0  0  0  0
  134.7604   70.5253  227.6969 H   0  0  0  0  0  0  0  0  0  0  0  0
  134.4980   69.7900  225.6990 C   0  0  0  0  0  0  0  0  0  0  0  0
  133.6706   69.5488  225.0155 H   0  0  0  0  0  0  0  0  0  0  0  0
  135.0518   68.8721  225.9453 H   0  0  0  0  0  0  0  0  0  0  0  0
  137.2840   71.0380  223.5390 N   0  0  0  0  0  0  0  0  0  0  0  0
  138.4870   70.6540  223.0450 C   0  0  0  0  0  0  0  0  0  0  0  0
  139.1130   71.4280  222.0170 N   0  0  0  0  0  0  0  0  0  0  0  0
  140.5780   71.4950  221.9850 C   0  0  0  0  0  0  0  0  0  0  0  0
  140.9840   70.9323  222.8385 H   0  0  0  0  0  0  0  0  0  0  0  0
  140.9315   71.0601  221.0385 H   0  0  0  0  0  0  0  0  0  0  0  0
  141.0550   72.9480  222.0680 C   0  0  0  0  0  0  0  0  0  0  0  0
  140.9340   73.3011  223.1027 H   0  0  0  0  0  0  0  0  0  0  0  0
  142.1090   72.9738  221.7544 H   0  0  0  0  0  0  0  0  0  0  0  0
  140.2660   73.8760  221.1350 C   0  0  0  0  0  0  0  0  0  0  0  0
  140.9030   74.7327  220.8698 H   0  0  0  0  0  0  0  0  0  0  0  0
  139.9808   73.2910  220.2482 H   0  0  0  0  0  0  0  0  0  0  0  0
  139.0290   74.3820  221.7500 N   0  0  0  0  0  0  0  0  0  0  0  0
  138.8640   75.3770  221.4730 H   0  0  0  0  0  0  0  0  0  0  0  0
  139.1730   74.3710  222.7850 H   0  0  0  0  0  0  0  0  0  0  0  0
  137.8520   73.5440  221.4510 C   0  0  0  0  0  0  0  0  0  0  0  0
  137.2125   73.5017  222.3450 H   0  0  0  0  0  0  0  0  0  0  0  0
  137.3252   73.9984  220.5989 H   0  0  0  0  0  0  0  0  0  0  0  0
  138.2380   72.1100  221.0520 C   0  0  0  0  0  0  0  0  0  0  0  0
  137.3148   71.5210  220.9480 H   0  0  0  0  0  0  0  0  0  0  0  0
  138.8047   72.1863  220.1123 H   0  0  0  0  0  0  0  0  0  0  0  0
  139.1020   69.5470  223.5380 N   0  0  0  0  0  0  0  0  0  0  0  0
  140.0290   69.2550  223.1530 H   0  0  0  0  0  0  0  0  0  0  0  0
  140.4070   70.0160  228.1450 C   0  0  0  0  0  0  0  0  0  0  0  0
  140.0335   69.3345  228.9235 H   0  0  0  0  0  0  0  0  0  0  0  0
  140.4280   71.3960  228.3760 C   0  0  0  0  0  0  0  0  0  0  0  0
  140.0549   71.7985  229.3293 H   0  0  0  0  0  0  0  0  0  0  0  0
  1  2  1  0
  2  3  2  0
  3  4  1  0
  3  5  1  0
  5  6  1  0
  5  7  2  0
  7  8  1  0
  8  9  1  0
  8 10  1  0
  8 11  1  0
 11 12  1  0
 11 13  1  0
 11 14  1  0
 14 15  2  0
 15 16  1  0
 16 17  2  0
 17 18  1  0
 18 19  1  0
 19 20  1  0
 19 21  1  0
 19 22  1  0
 22 23  2  0
 23 24  1  0
 23 25  1  0
 25 26  1  0
 25 27  2  0
 27 28  1  0
 27 29  1  0
 29 30  1  0
 29 31  2  0
 31 32  1  0
 32 33  1  0
 32 34  1  0
 32 35  1  0
 35 36  1  0
 35 37  1  0
 17 38  1  0
 38 39  2  0
 39 40  1  0
 40 41  1  0
 41 42  1  0
 41 43  1  0
 41 44  1  0
 44 45  1  0
 44 46  1  0
 44 47  1  0
 47 48  1  0
 47 49  1  0
 47 50  1  0
 50 51  1  0
 50 52  1  0
 50 53  1  0
 53 54  1  0
 53 55  1  0
 53 56  1  0
 56 57  1  0
 56 58  1  0
 39 59  1  0
 59 60  1  0
  7 61  1  0
 61 62  1  0
 61 63  2  0
 63 64  1  0
 63  2  1  0
 59 15  1  0
 35 18  1  0
 56 40  1  0
 31 22  1  0
M  CHG  1  50   1
M  END
>  <UniqueID>  (52) 
711

>  <SMILES>  (52) 
c1ccc(CC/N=c2\nc(N3CCc4ccccc4C3)nc(N3CCC[NH2+]CC3)[nH]2)cc1

>  <Energy>  (52) 
73.4440716094754

>  <Genealogy>  (52) 
c1ccc(CCNc2nc(N3CCC[NH2+]CC3)nc(N3CCc4ccccc4C3)n2)cc1 (protonated)
c1ccc(CCN=c2nc(N3CCc4ccccc4C3)nc(N3CCC[NH2+]CC3)[nH]2)cc1 (tautomer)
c1ccc(CC/N=c2\nc(N3CCc4ccccc4C3)nc(N3CCC[NH2+]CC3)[nH]2)cc1 (cis-trans isomerization)
c1ccc(CC/N=c2\nc(N3CCc4ccccc4C3)nc(N3CCC[NH2+]CC3)[nH]2)cc1 (3D coordinates assigned)
c1ccc(CC/N=c2\nc(N3CCc4ccccc4C3)nc(N3CCC[NH2+]CC3)[nH]2)cc1 (nonaromatic ring conformer: 73.4440716094754 kcal/mol)

>  <smiles>  (52) 
c1ccc(CCNc2nc(N3CCCNCC3)nc(N3CCc4ccccc4C3)n2)cc1

>  <score_type>  (52) 
oracle

>  <origin>  (52) 
autodockgpu

>  <m_score__min__energy>  (52) 
-7.3499999999999996

>  <m_primary>  (52) 
energy

>  <meeko>  (52) 
{"free_energy": -7.04, "intermolecular_energy": -10.62, "internal_energy": -1.62, "cluster_size": 2, "cluster_id": 3, "rank_in_cluster": 1}

>  <energy>  (52) 
-6.15

>  <cluster_rmsd>  (52) 
0.8

>  <rmsd>  (52) 
270.56

>  <cluster>  (52) 
4

$$$$
IBHRIKXMMSCQIV-DXVXUIDUNA-O
     RDKit          3D

 64 68  0  0  0  0  0  0  0  0999 V2000
  140.9253   70.3282  229.1572 H   0  0  0  0  0  0  0  0  0  0  0  0
  140.6400   70.4750  228.1050 C   0  0  0  0  0  0  0  0  0  0  0  0
  139.7990   69.5540  227.4730 C   0  0  0  0  0  0  0  0  0  0  0  0
  139.4094   68.6911  228.0330 H   0  0  0  0  0  0  0  0  0  0  0  0
  139.4530   69.7290  226.1300 C   0  0  0  0  0  0  0  0  0  0  0  0
  138.8029   68.9947  225.6319 H   0  0  0  0  0  0  0  0  0  0  0  0
  139.9330   70.8410  225.4120 C   0  0  0  0  0  0  0  0  0  0  0  0
  139.5340   71.0510  223.9770 C   0  0  0  0  0  0  0  0  0  0  0  0
  139.1432   70.1044  223.5754 H   0  0  0  0  0  0  0  0  0  0  0  0
  138.7699   71.8418  223.9503 H   0  0  0  0  0  0  0  0  0  0  0  0
  140.7150   71.5060  223.1100 C   0  0  0  0  0  0  0  0  0  0  0  0
  141.4298   72.0596  223.7365 H   0  0  0  0  0  0  0  0  0  0  0  0
  141.1950   70.6172  222.6744 H   0  0  0  0  0  0  0  0  0  0  0  0
  140.2590   72.3730  222.0220 N   0  0  0  0  0  0  0  0  0  0  0  0
  139.4230   73.3630  222.1440 C   0  0  0  0  0  0  0  0  0  0  0  0
  139.8650   74.6490  222.2270 N   0  0  0  0  0  0  0  0  0  0  0  0
  138.9890   75.6780  222.3680 C   0  0  0  0  0  0  0  0  0  0  0  0
  139.4580   77.0430  222.4430 N   0  0  0  0  0  0  0  0  0  0  0  0
  140.9000   77.3170  222.3190 C   0  0  0  0  0  0  0  0  0  0  0  0
  141.1793   77.2504  221.2571 H   0  0  0  0  0  0  0  0  0  0  0  0
  141.4301   76.5721  222.9307 H   0  0  0  0  0  0  0  0  0  0  0  0
  141.2880   78.6830  222.8340 C   0  0  0  0  0  0  0  0  0  0  0  0
  142.6390   79.0610  222.7900 C   0  0  0  0  0  0  0  0  0  0  0  0
  143.3861   78.3719  222.3693 H   0  0  0  0  0  0  0  0  0  0  0  0
  143.0410   80.3090  223.2780 C   0  0  0  0  0  0  0  0  0  0  0  0
  144.1023   80.5961  223.2438 H   0  0  0  0  0  0  0  0  0  0  0  0
  142.0980   81.1900  223.8080 C   0  0  0  0  0  0  0  0  0  0  0  0
  142.4173   82.1684  224.1963 H   0  0  0  0  0  0  0  0  0  0  0  0
  140.7500   80.8310  223.8460 C   0  0  0  0  0  0  0  0  0  0  0  0
  140.0106   81.5285  224.2664 H   0  0  0  0  0  0  0  0  0  0  0  0
  140.3310   79.5850  223.3510 C   0  0  0  0  0  0  0  0  0  0  0  0
  138.8820   79.1930  223.4560 C   0  0  0  0  0  0  0  0  0  0  0  0
  138.2562   80.0881  223.3251 H   0  0  0  0  0  0  0  0  0  0  0  0
  138.7094   78.7455  224.4459 H   0  0  0  0  0  0  0  0  0  0  0  0
  138.5180   78.1690  222.3880 C   0  0  0  0  0  0  0  0  0  0  0  0
  138.5701   78.6410  221.3958 H   0  0  0  0  0  0  0  0  0  0  0  0
  137.4972   77.8011  222.5683 H   0  0  0  0  0  0  0  0  0  0  0  0
  137.6590   75.4100  222.4310 N   0  0  0  0  0  0  0  0  0  0  0  0
  137.2070   74.1340  222.3500 C   0  0  0  0  0  0  0  0  0  0  0  0
  135.8020   73.8730  222.4070 N   0  0  0  0  0  0  0  0  0  0  0  0
  135.1770   73.6930  223.7230 C   0  0  0  0  0  0  0  0  0  0  0  0
  134.5040   72.8236  223.6874 H   0  0  0  0  0  0  0  0  0  0  0  0
  135.9674   73.5332  224.4712 H   0  0  0  0  0  0  0  0  0  0  0  0
  134.3730   74.9350  224.1140 C   0  0  0  0  0  0  0  0  0  0  0  0
  133.7595   74.6966  224.9953 H   0  0  0  0  0  0  0  0  0  0  0  0
  135.0861   75.7445  224.3291 H   0  0  0  0  0  0  0  0  0  0  0  0
  133.4500   75.4090  222.9830 C   0  0  0  0  0  0  0  0  0  0  0  0
  132.8916   74.5430  222.5980 H   0  0  0  0  0  0  0  0  0  0  0  0
  132.7777   76.1731  223.4005 H   0  0  0  0  0  0  0  0  0  0  0  0
  134.1880   76.0260  221.8700 N   0  0  0  0  0  0  0  0  0  0  0  0
  135.1020   76.4070  222.2050 H   0  0  0  0  0  0  0  0  0  0  0  0
  133.6200   76.8390  221.5370 H   0  0  0  0  0  0  0  0  0  0  0  0
  134.3780   75.1130  220.7280 C   0  0  0  0  0  0  0  0  0  0  0  0
  133.3936   74.8743  220.2992 H   0  0  0  0  0  0  0  0  0  0  0  0
  135.0242   75.6209  219.9969 H   0  0  0  0  0  0  0  0  0  0  0  0
  135.0710   73.8010  221.1340 C   0  0  0  0  0  0  0  0  0  0  0  0
  134.3031   73.0183  221.2213 H   0  0  0  0  0  0  0  0  0  0  0  0
  135.8159   73.5833  220.3544 H   0  0  0  0  0  0  0  0  0  0  0  0
  138.0880   73.1100  222.1990 N   0  0  0  0  0  0  0  0  0  0  0  0
  137.7360   72.1280  222.1380 H   0  0  0  0  0  0  0  0  0  0  0  0
  140.7590   71.7750  226.0590 C   0  0  0  0  0  0  0  0  0  0  0  0
  141.1233   72.6573  225.5124 H   0  0  0  0  0  0  0  0  0  0  0  0
  141.1190   71.5850  227.3970 C   0  0  0  0  0  0  0  0  0  0  0  0
  141.7803   72.3093  227.8950 H   0  0  0  0  0  0  0  0  0  0  0  0
  1  2  1  0
  2  3  2  0
  3  4  1  0
  3  5  1  0
  5  6  1  0
  5  7  2  0
  7  8  1  0
  8  9  1  0
  8 10  1  0
  8 11  1  0
 11 12  1  0
 11 13  1  0
 11 14  1  0
 14 15  2  0
 15 16  1  0
 16 17  2  0
 17 18  1  0
 18 19  1  0
 19 20  1  0
 19 21  1  0
 19 22  1  0
 22 23  2  0
 23 24  1  0
 23 25  1  0
 25 26  1  0
 25 27  2  0
 27 28  1  0
 27 29  1  0
 29 30  1  0
 29 31  2  0
 31 32  1  0
 32 33  1  0
 32 34  1  0
 32 35  1  0
 35 36  1  0
 35 37  1  0
 17 38  1  0
 38 39  2  0
 39 40  1  0
 40 41  1  0
 41 42  1  0
 41 43  1  0
 41 44  1  0
 44 45  1  0
 44 46  1  0
 44 47  1  0
 47 48  1  0
 47 49  1  0
 47 50  1  0
 50 51  1  0
 50 52  1  0
 50 53  1  0
 53 54  1  0
 53 55  1  0
 53 56  1  0
 56 57  1  0
 56 58  1  0
 39 59  1  0
 59 60  1  0
  7 61  1  0
 61 62  1  0
 61 63  2  0
 63 64  1  0
 63  2  1  0
 59 15  1  0
 35 18  1  0
 56 40  1  0
 31 22  1  0
M  CHG  1  50   1
M  END
>  <UniqueID>  (53) 
711

>  <SMILES>  (53) 
c1ccc(CC/N=c2\nc(N3CCc4ccccc4C3)nc(N3CCC[NH2+]CC3)[nH]2)cc1

>  <Energy>  (53) 
73.4440716094754

>  <Genealogy>  (53) 
c1ccc(CCNc2nc(N3CCC[NH2+]CC3)nc(N3CCc4ccccc4C3)n2)cc1 (protonated)
c1ccc(CCN=c2nc(N3CCc4ccccc4C3)nc(N3CCC[NH2+]CC3)[nH]2)cc1 (tautomer)
c1ccc(CC/N=c2\nc(N3CCc4ccccc4C3)nc(N3CCC[NH2+]CC3)[nH]2)cc1 (cis-trans isomerization)
c1ccc(CC/N=c2\nc(N3CCc4ccccc4C3)nc(N3CCC[NH2+]CC3)[nH]2)cc1 (3D coordinates assigned)
c1ccc(CC/N=c2\nc(N3CCc4ccccc4C3)nc(N3CCC[NH2+]CC3)[nH]2)cc1 (nonaromatic ring conformer: 73.4440716094754 kcal/mol)

>  <smiles>  (53) 
c1ccc(CCNc2nc(N3CCCNCC3)nc(N3CCc4ccccc4C3)n2)cc1

>  <score_type>  (53) 
oracle

>  <origin>  (53) 
autodockgpu

>  <m_score__min__energy>  (53) 
-7.3499999999999996

>  <m_primary>  (53) 
energy

>  <meeko>  (53) 
{"free_energy": -6.18, "intermolecular_energy": -9.76, "internal_energy": -1.25, "cluster_size": 2, "cluster_id": 4, "rank_in_cluster": 1}

>  <energy>  (53) 
-6.08

>  <cluster_rmsd>  (53) 
0.0

>  <rmsd>  (53) 
270.14

>  <cluster>  (53) 
5

$$$$
IBHRIKXMMSCQIV-DXVXUIDUNA-O
     RDKit          3D

 64 68  0  0  0  0  0  0  0  0999 V2000
  142.8109   77.1994  218.2732 H   0  0  0  0  0  0  0  0  0  0  0  0
  143.2990   76.2590  218.5690 C   0  0  0  0  0  0  0  0  0  0  0  0
  143.5050   75.2510  217.6230 C   0  0  0  0  0  0  0  0  0  0  0  0
  143.1930   75.4038  216.5793 H   0  0  0  0  0  0  0  0  0  0  0  0
  144.1080   74.0480  218.0040 C   0  0  0  0  0  0  0  0  0  0  0  0
  144.2578   73.2512  217.2605 H   0  0  0  0  0  0  0  0  0  0  0  0
  144.5240   73.8520  219.3340 C   0  0  0  0  0  0  0  0  0  0  0  0
  145.2040   72.5720  219.7380 C   0  0  0  0  0  0  0  0  0  0  0  0
  145.6990   72.1395  218.8560 H   0  0  0  0  0  0  0  0  0  0  0  0
  145.9321   72.8095  220.5276 H   0  0  0  0  0  0  0  0  0  0  0  0
  144.2130   71.5460  220.3020 C   0  0  0  0  0  0  0  0  0  0  0  0
  144.4443   70.5547  219.8851 H   0  0  0  0  0  0  0  0  0  0  0  0
  144.3060   71.5324  221.3980 H   0  0  0  0  0  0  0  0  0  0  0  0
  142.8370   71.9040  219.9530 N   0  0  0  0  0  0  0  0  0  0  0  0
  141.9570   72.4080  220.7700 C   0  0  0  0  0  0  0  0  0  0  0  0
  141.4880   71.6890  221.8270 N   0  0  0  0  0  0  0  0  0  0  0  0
  140.5600   72.2150  222.6690 C   0  0  0  0  0  0  0  0  0  0  0  0
  140.0720   71.4560  223.7990 N   0  0  0  0  0  0  0  0  0  0  0  0
  140.6430   71.7030  225.1330 C   0  0  0  0  0  0  0  0  0  0  0  0
  140.2087   72.6307  225.5338 H   0  0  0  0  0  0  0  0  0  0  0  0
  141.7341   71.7776  225.0150 H   0  0  0  0  0  0  0  0  0  0  0  0
  140.3700   70.5830  226.1090 C   0  0  0  0  0  0  0  0  0  0  0  0
  140.8770   70.6860  227.4130 C   0  0  0  0  0  0  0  0  0  0  0  0
  141.4463   71.5797  227.7084 H   0  0  0  0  0  0  0  0  0  0  0  0
  140.6640   69.6610  228.3400 C   0  0  0  0  0  0  0  0  0  0  0  0
  141.0683   69.7489  229.3592 H   0  0  0  0  0  0  0  0  0  0  0  0
  139.9390   68.5270  227.9730 C   0  0  0  0  0  0  0  0  0  0  0  0
  139.7777   67.7189  228.7017 H   0  0  0  0  0  0  0  0  0  0  0  0
  139.4180   68.4160  226.6830 C   0  0  0  0  0  0  0  0  0  0  0  0
  138.8486   67.5190  226.3983 H   0  0  0  0  0  0  0  0  0  0  0  0
  139.6170   69.4440  225.7460 C   0  0  0  0  0  0  0  0  0  0  0  0
  139.0990   69.2790  224.3430 C   0  0  0  0  0  0  0  0  0  0  0  0
  138.1515   68.7209  224.3720 H   0  0  0  0  0  0  0  0  0  0  0  0
  139.8488   68.7314  223.7531 H   0  0  0  0  0  0  0  0  0  0  0  0
  138.8600   70.6350  223.6900 C   0  0  0  0  0  0  0  0  0  0  0  0
  138.0268   71.1435  224.1972 H   0  0  0  0  0  0  0  0  0  0  0  0
  138.6121   70.4899  222.6282 H   0  0  0  0  0  0  0  0  0  0  0  0
  140.0970   73.4710  222.4410 N   0  0  0  0  0  0  0  0  0  0  0  0
  140.5560   74.1960  221.3910 C   0  0  0  0  0  0  0  0  0  0  0  0
  140.0640   75.5220  221.1730 N   0  0  0  0  0  0  0  0  0  0  0  0
  139.6340   76.3080  222.3350 C   0  0  0  0  0  0  0  0  0  0  0  0
  138.7245   76.8693  222.0747 H   0  0  0  0  0  0  0  0  0  0  0  0
  139.4331   75.6220  223.1711 H   0  0  0  0  0  0  0  0  0  0  0  0
  140.7280   77.2920  222.7580 C   0  0  0  0  0  0  0  0  0  0  0  0
  140.4976   77.6629  223.7676 H   0  0  0  0  0  0  0  0  0  0  0  0
  141.6878   76.7552  222.7333 H   0  0  0  0  0  0  0  0  0  0  0  0
  140.8400   78.4900  221.8080 C   0  0  0  0  0  0  0  0  0  0  0  0
  139.8623   78.9915  221.7576 H   0  0  0  0  0  0  0  0  0  0  0  0
  141.6198   79.1565  222.2051 H   0  0  0  0  0  0  0  0  0  0  0  0
  141.2400   78.1010  220.4460 N   0  0  0  0  0  0  0  0  0  0  0  0
  142.0500   77.4400  220.4780 H   0  0  0  0  0  0  0  0  0  0  0  0
  141.5700   78.9680  219.9640 H   0  0  0  0  0  0  0  0  0  0  0  0
  140.1270   77.5420  219.6560 C   0  0  0  0  0  0  0  0  0  0  0  0
  139.1856   77.9917  220.0047 H   0  0  0  0  0  0  0  0  0  0  0  0
  140.3172   77.7743  218.5978 H   0  0  0  0  0  0  0  0  0  0  0  0
  140.0230   76.0130  219.7890 C   0  0  0  0  0  0  0  0  0  0  0  0
  139.0727   75.6919  219.3376 H   0  0  0  0  0  0  0  0  0  0  0  0
  140.9023   75.5921  219.2794 H   0  0  0  0  0  0  0  0  0  0  0  0
  141.4910   73.6680  220.5580 N   0  0  0  0  0  0  0  0  0  0  0  0
  141.8420   74.2300  219.7500 H   0  0  0  0  0  0  0  0  0  0  0  0
  144.3340   74.8780  220.2740 C   0  0  0  0  0  0  0  0  0  0  0  0
  144.6737   74.7419  221.3113 H   0  0  0  0  0  0  0  0  0  0  0  0
  143.7140   76.0720  219.8940 C   0  0  0  0  0  0  0  0  0  0  0  0
  143.5516   76.8666  220.6371 H   0  0  0  0  0  0  0  0  0  0  0  0
  1  2  1  0
  2  3  2  0
  3  4  1  0
  3  5  1  0
  5  6  1  0
  5  7  2  0
  7  8  1  0
  8  9  1  0
  8 10  1  0
  8 11  1  0
 11 12  1  0
 11 13  1  0
 11 14  1  0
 14 15  2  0
 15 16  1  0
 16 17  2  0
 17 18  1  0
 18 19  1  0
 19 20  1  0
 19 21  1  0
 19 22  1  0
 22 23  2  0
 23 24  1  0
 23 25  1  0
 25 26  1  0
 25 27  2  0
 27 28  1  0
 27 29  1  0
 29 30  1  0
 29 31  2  0
 31 32  1  0
 32 33  1  0
 32 34  1  0
 32 35  1  0
 35 36  1  0
 35 37  1  0
 17 38  1  0
 38 39  2  0
 39 40  1  0
 40 41  1  0
 41 42  1  0
 41 43  1  0
 41 44  1  0
 44 45  1  0
 44 46  1  0
 44 47  1  0
 47 48  1  0
 47 49  1  0
 47 50  1  0
 50 51  1  0
 50 52  1  0
 50 53  1  0
 53 54  1  0
 53 55  1  0
 53 56  1  0
 56 57  1  0
 56 58  1  0
 39 59  1  0
 59 60  1  0
  7 61  1  0
 61 62  1  0
 61 63  2  0
 63 64  1  0
 63  2  1  0
 59 15  1  0
 35 18  1  0
 56 40  1  0
 31 22  1  0
M  CHG  1  50   1
M  END
>  <UniqueID>  (54) 
711

>  <SMILES>  (54) 
c1ccc(CC/N=c2\nc(N3CCc4ccccc4C3)nc(N3CCC[NH2+]CC3)[nH]2)cc1

>  <Energy>  (54) 
73.4440716094754

>  <Genealogy>  (54) 
c1ccc(CCNc2nc(N3CCC[NH2+]CC3)nc(N3CCc4ccccc4C3)n2)cc1 (protonated)
c1ccc(CCN=c2nc(N3CCc4ccccc4C3)nc(N3CCC[NH2+]CC3)[nH]2)cc1 (tautomer)
c1ccc(CC/N=c2\nc(N3CCc4ccccc4C3)nc(N3CCC[NH2+]CC3)[nH]2)cc1 (cis-trans isomerization)
c1ccc(CC/N=c2\nc(N3CCc4ccccc4C3)nc(N3CCC[NH2+]CC3)[nH]2)cc1 (3D coordinates assigned)
c1ccc(CC/N=c2\nc(N3CCc4ccccc4C3)nc(N3CCC[NH2+]CC3)[nH]2)cc1 (nonaromatic ring conformer: 73.4440716094754 kcal/mol)

>  <smiles>  (54) 
c1ccc(CCNc2nc(N3CCCNCC3)nc(N3CCc4ccccc4C3)n2)cc1

>  <score_type>  (54) 
oracle

>  <origin>  (54) 
autodockgpu

>  <m_score__min__energy>  (54) 
-7.3499999999999996

>  <m_primary>  (54) 
energy

>  <meeko>  (54) 
{"free_energy": -5.67, "intermolecular_energy": -9.25, "internal_energy": -1.7, "cluster_size": 5, "cluster_id": 2, "rank_in_cluster": 5}

>  <energy>  (54) 
-5.82

>  <cluster_rmsd>  (54) 
0.0

>  <rmsd>  (54) 
270.34

>  <cluster>  (54) 
6

$$$$
IBHRIKXMMSCQIV-DXVXUIDUNA-O
     RDKit          3D

 64 68  0  0  0  0  0  0  0  0999 V2000
  141.2688   77.6220  223.5785 H   0  0  0  0  0  0  0  0  0  0  0  0
  141.3130   78.6670  223.2380 C   0  0  0  0  0  0  0  0  0  0  0  0
  140.1920   79.4920  223.3670 C   0  0  0  0  0  0  0  0  0  0  0  0
  139.2708   79.1011  223.8238 H   0  0  0  0  0  0  0  0  0  0  0  0
  140.2420   80.8150  222.9150 C   0  0  0  0  0  0  0  0  0  0  0  0
  139.3541   81.4581  223.0047 H   0  0  0  0  0  0  0  0  0  0  0  0
  141.4230   81.3270  222.3460 C   0  0  0  0  0  0  0  0  0  0  0  0
  141.4910   82.7590  221.8920 C   0  0  0  0  0  0  0  0  0  0  0  0
  141.5831   83.4073  222.7759 H   0  0  0  0  0  0  0  0  0  0  0  0
  142.3620   82.8629  221.2283 H   0  0  0  0  0  0  0  0  0  0  0  0
  140.2430   83.1740  221.1020 C   0  0  0  0  0  0  0  0  0  0  0  0
  139.5279   82.3382  221.0927 H   0  0  0  0  0  0  0  0  0  0  0  0
  139.7968   84.0552  221.5862 H   0  0  0  0  0  0  0  0  0  0  0  0
  140.5910   83.5230  219.7230 N   0  0  0  0  0  0  0  0  0  0  0  0
  141.0470   82.6960  218.8260 C   0  0  0  0  0  0  0  0  0  0  0  0
  141.1290   81.3600  219.0800 N   0  0  0  0  0  0  0  0  0  0  0  0
  141.6170   80.5030  218.1460 C   0  0  0  0  0  0  0  0  0  0  0  0
  141.6930   79.0840  218.4110 N   0  0  0  0  0  0  0  0  0  0  0  0
  140.7470   78.4790  219.3640 C   0  0  0  0  0  0  0  0  0  0  0  0
  139.7735   78.3620  218.8653 H   0  0  0  0  0  0  0  0  0  0  0  0
  140.6839   79.1478  220.2350 H   0  0  0  0  0  0  0  0  0  0  0  0
  141.1980   77.1260  219.8640 C   0  0  0  0  0  0  0  0  0  0  0  0
  140.3940   76.4500  220.7940 C   0  0  0  0  0  0  0  0  0  0  0  0
  139.4486   76.9015  221.1292 H   0  0  0  0  0  0  0  0  0  0  0  0
  140.7870   75.2050  221.2980 C   0  0  0  0  0  0  0  0  0  0  0  0
  140.1527   74.6828  222.0294 H   0  0  0  0  0  0  0  0  0  0  0  0
  141.9830   74.6260  220.8730 C   0  0  0  0  0  0  0  0  0  0  0  0
  142.2937   73.6504  221.2749 H   0  0  0  0  0  0  0  0  0  0  0  0
  142.7860   75.2820  219.9390 C   0  0  0  0  0  0  0  0  0  0  0  0
  143.7287   74.8213  219.6087 H   0  0  0  0  0  0  0  0  0  0  0  0
  142.3970   76.5280  219.4180 C   0  0  0  0  0  0  0  0  0  0  0  0
  143.3060   77.2470  218.4590 C   0  0  0  0  0  0  0  0  0  0  0  0
  143.8176   76.5082  217.8246 H   0  0  0  0  0  0  0  0  0  0  0  0
  144.0389   77.8287  219.0373 H   0  0  0  0  0  0  0  0  0  0  0  0
  142.5140   78.2020  217.5740 C   0  0  0  0  0  0  0  0  0  0  0  0
  141.8621   77.6234  216.9030 H   0  0  0  0  0  0  0  0  0  0  0  0
  143.2108   78.8095  216.9778 H   0  0  0  0  0  0  0  0  0  0  0  0
  142.0310   80.9950  216.9490 N   0  0  0  0  0  0  0  0  0  0  0  0
  141.9550   82.3240  216.6850 C   0  0  0  0  0  0  0  0  0  0  0  0
  142.3850   82.8220  215.4150 N   0  0  0  0  0  0  0  0  0  0  0  0
  143.1470   84.0750  215.3770 C   0  0  0  0  0  0  0  0  0  0  0  0
  142.4469   84.9234  215.3679 H   0  0  0  0  0  0  0  0  0  0  0  0
  143.7932   84.1235  216.2659 H   0  0  0  0  0  0  0  0  0  0  0  0
  144.0260   84.1350  214.1250 C   0  0  0  0  0  0  0  0  0  0  0  0
  143.3838   84.0281  213.2383 H   0  0  0  0  0  0  0  0  0  0  0  0
  144.5503   85.1020  214.1323 H   0  0  0  0  0  0  0  0  0  0  0  0
  145.0930   83.0270  214.0970 C   0  0  0  0  0  0  0  0  0  0  0  0
  145.6871   83.1329  213.1773 H   0  0  0  0  0  0  0  0  0  0  0  0
  145.7155   83.1405  214.9968 H   0  0  0  0  0  0  0  0  0  0  0  0
  144.5070   81.6780  214.1270 N   0  0  0  0  0  0  0  0  0  0  0  0
  144.3920   81.3510  215.1140 H   0  0  0  0  0  0  0  0  0  0  0  0
  145.1930   81.0340  213.6690 H   0  0  0  0  0  0  0  0  0  0  0  0
  143.2370   81.5830  213.3830 C   0  0  0  0  0  0  0  0  0  0  0  0
  143.3039   82.2176  212.4870 H   0  0  0  0  0  0  0  0  0  0  0  0
  143.0814   80.5269  213.1175 H   0  0  0  0  0  0  0  0  0  0  0  0
  142.0310   82.0390  214.2230 C   0  0  0  0  0  0  0  0  0  0  0  0
  141.3812   82.6567  213.5857 H   0  0  0  0  0  0  0  0  0  0  0  0
  141.5344   81.1256  214.5825 H   0  0  0  0  0  0  0  0  0  0  0  0
  141.4560   83.1740  217.6210 N   0  0  0  0  0  0  0  0  0  0  0  0
  141.3990   84.1970  217.4130 H   0  0  0  0  0  0  0  0  0  0  0  0
  142.5530   80.4990  222.2410 C   0  0  0  0  0  0  0  0  0  0  0  0
  143.4869   80.8961  221.8165 H   0  0  0  0  0  0  0  0  0  0  0  0
  142.4930   79.1710  222.6750 C   0  0  0  0  0  0  0  0  0  0  0  0
  143.3743   78.5205  222.5742 H   0  0  0  0  0  0  0  0  0  0  0  0
  1  2  1  0
  2  3  2  0
  3  4  1  0
  3  5  1  0
  5  6  1  0
  5  7  2  0
  7  8  1  0
  8  9  1  0
  8 10  1  0
  8 11  1  0
 11 12  1  0
 11 13  1  0
 11 14  1  0
 14 15  2  0
 15 16  1  0
 16 17  2  0
 17 18  1  0
 18 19  1  0
 19 20  1  0
 19 21  1  0
 19 22  1  0
 22 23  2  0
 23 24  1  0
 23 25  1  0
 25 26  1  0
 25 27  2  0
 27 28  1  0
 27 29  1  0
 29 30  1  0
 29 31  2  0
 31 32  1  0
 32 33  1  0
 32 34  1  0
 32 35  1  0
 35 36  1  0
 35 37  1  0
 17 38  1  0
 38 39  2  0
 39 40  1  0
 40 41  1  0
 41 42  1  0
 41 43  1  0
 41 44  1  0
 44 45  1  0
 44 46  1  0
 44 47  1  0
 47 48  1  0
 47 49  1  0
 47 50  1  0
 50 51  1  0
 50 52  1  0
 50 53  1  0
 53 54  1  0
 53 55  1  0
 53 56  1  0
 56 57  1  0
 56 58  1  0
 39 59  1  0
 59 60  1  0
  7 61  1  0
 61 62  1  0
 61 63  2  0
 63 64  1  0
 63  2  1  0
 59 15  1  0
 35 18  1  0
 56 40  1  0
 31 22  1  0
M  CHG  1  50   1
M  END
>  <UniqueID>  (55) 
711

>  <SMILES>  (55) 
c1ccc(CC/N=c2\nc(N3CCc4ccccc4C3)nc(N3CCC[NH2+]CC3)[nH]2)cc1

>  <Energy>  (55) 
73.4440716094754

>  <Genealogy>  (55) 
c1ccc(CCNc2nc(N3CCC[NH2+]CC3)nc(N3CCc4ccccc4C3)n2)cc1 (protonated)
c1ccc(CCN=c2nc(N3CCc4ccccc4C3)nc(N3CCC[NH2+]CC3)[nH]2)cc1 (tautomer)
c1ccc(CC/N=c2\nc(N3CCc4ccccc4C3)nc(N3CCC[NH2+]CC3)[nH]2)cc1 (cis-trans isomerization)
c1ccc(CC/N=c2\nc(N3CCc4ccccc4C3)nc(N3CCC[NH2+]CC3)[nH]2)cc1 (3D coordinates assigned)
c1ccc(CC/N=c2\nc(N3CCc4ccccc4C3)nc(N3CCC[NH2+]CC3)[nH]2)cc1 (nonaromatic ring conformer: 73.4440716094754 kcal/mol)

>  <smiles>  (55) 
c1ccc(CCNc2nc(N3CCCNCC3)nc(N3CCc4ccccc4C3)n2)cc1

>  <score_type>  (55) 
oracle

>  <origin>  (55) 
autodockgpu

>  <m_score__min__energy>  (55) 
-7.3499999999999996

>  <m_primary>  (55) 
energy

>  <meeko>  (55) 
{"free_energy": -4.97, "intermolecular_energy": -8.55, "internal_energy": -2.17, "cluster_size": 4, "cluster_id": 8, "rank_in_cluster": 3}

>  <energy>  (55) 
-5.68

>  <cluster_rmsd>  (55) 
0.0

>  <rmsd>  (55) 
270.33

>  <cluster>  (55) 
7

$$$$
IBHRIKXMMSCQIV-DXVXUIDUNA-O
     RDKit          3D

 64 68  0  0  0  0  0  0  0  0999 V2000
  142.8137   81.4839  223.3126 H   0  0  0  0  0  0  0  0  0  0  0  0
  142.1020   80.6540  223.1910 C   0  0  0  0  0  0  0  0  0  0  0  0
  142.5490   79.3330  223.2730 C   0  0  0  0  0  0  0  0  0  0  0  0
  143.6098   79.1228  223.4744 H   0  0  0  0  0  0  0  0  0  0  0  0
  141.6480   78.2780  223.0990 C   0  0  0  0  0  0  0  0  0  0  0  0
  142.0053   77.2389  223.1507 H   0  0  0  0  0  0  0  0  0  0  0  0
  140.2860   78.5390  222.8580 C   0  0  0  0  0  0  0  0  0  0  0  0
  139.3090   77.4070  222.7050 C   0  0  0  0  0  0  0  0  0  0  0  0
  139.7094   76.5212  223.2198 H   0  0  0  0  0  0  0  0  0  0  0  0
  138.3515   77.7252  223.1430 H   0  0  0  0  0  0  0  0  0  0  0  0
  139.0600   77.0530  221.2340 C   0  0  0  0  0  0  0  0  0  0  0  0
  138.1837   77.6111  220.8725 H   0  0  0  0  0  0  0  0  0  0  0  0
  139.9535   77.3219  220.6514 H   0  0  0  0  0  0  0  0  0  0  0  0
  138.8130   75.6180  221.0770 N   0  0  0  0  0  0  0  0  0  0  0  0
  139.6520   74.6690  221.3790 C   0  0  0  0  0  0  0  0  0  0  0  0
  139.3440   73.7330  222.3190 N   0  0  0  0  0  0  0  0  0  0  0  0
  140.2280   72.7520  222.6400 C   0  0  0  0  0  0  0  0  0  0  0  0
  139.8950   71.7510  223.6280 N   0  0  0  0  0  0  0  0  0  0  0  0
  140.5460   71.7980  224.9480 C   0  0  0  0  0  0  0  0  0  0  0  0
  140.0683   72.5876  225.5466 H   0  0  0  0  0  0  0  0  0  0  0  0
  141.6145   71.9991  224.7811 H   0  0  0  0  0  0  0  0  0  0  0  0
  140.4440   70.4930  225.7030 C   0  0  0  0  0  0  0  0  0  0  0  0
  141.0420   70.3990  226.9690 C   0  0  0  0  0  0  0  0  0  0  0  0
  141.5560   71.2725  227.3966 H   0  0  0  0  0  0  0  0  0  0  0  0
  140.9890   69.2020  227.6910 C   0  0  0  0  0  0  0  0  0  0  0  0
  141.4630   69.1358  228.6814 H   0  0  0  0  0  0  0  0  0  0  0  0
  140.3350   68.0920  227.1550 C   0  0  0  0  0  0  0  0  0  0  0  0
  140.2994   67.1496  227.7212 H   0  0  0  0  0  0  0  0  0  0  0  0
  139.7260   68.1750  225.9020 C   0  0  0  0  0  0  0  0  0  0  0  0
  139.2135   67.2962  225.4836 H   0  0  0  0  0  0  0  0  0  0  0  0
  139.7640   69.3750  225.1720 C   0  0  0  0  0  0  0  0  0  0  0  0
  139.1540   69.4270  223.7980 C   0  0  0  0  0  0  0  0  0  0  0  0
  138.2622   68.7834  223.7752 H   0  0  0  0  0  0  0  0  0  0  0  0
  139.8993   69.0764  223.0689 H   0  0  0  0  0  0  0  0  0  0  0  0
  138.7510   70.8510  223.4360 C   0  0  0  0  0  0  0  0  0  0  0  0
  137.9205   71.1718  224.0820 H   0  0  0  0  0  0  0  0  0  0  0  0
  138.4331   70.8841  222.3835 H   0  0  0  0  0  0  0  0  0  0  0  0
  141.4330   72.7180  222.0150 N   0  0  0  0  0  0  0  0  0  0  0  0
  141.7520   73.6460  221.0780 C   0  0  0  0  0  0  0  0  0  0  0  0
  143.0220   73.5860  220.4220 N   0  0  0  0  0  0  0  0  0  0  0  0
  143.3280   74.5920  219.3980 C   0  0  0  0  0  0  0  0  0  0  0  0
  142.3970   75.0932  219.0946 H   0  0  0  0  0  0  0  0  0  0  0  0
  144.0346   75.3221  219.8194 H   0  0  0  0  0  0  0  0  0  0  0  0
  143.9690   73.9380  218.1720 C   0  0  0  0  0  0  0  0  0  0  0  0
  143.2620   73.2084  217.7503 H   0  0  0  0  0  0  0  0  0  0  0  0
  144.2035   74.7344  217.4504 H   0  0  0  0  0  0  0  0  0  0  0  0
  145.2820   73.2130  218.5150 C   0  0  0  0  0  0  0  0  0  0  0  0
  145.0739   72.1372  218.6122 H   0  0  0  0  0  0  0  0  0  0  0  0
  145.9953   73.4202  217.7037 H   0  0  0  0  0  0  0  0  0  0  0  0
  145.8880   73.6890  219.7680 N   0  0  0  0  0  0  0  0  0  0  0  0
  145.7430   74.7190  219.8760 H   0  0  0  0  0  0  0  0  0  0  0  0
  146.9190   73.5310  219.6900 H   0  0  0  0  0  0  0  0  0  0  0  0
  145.4100   72.9560  220.9550 C   0  0  0  0  0  0  0  0  0  0  0  0
  146.0370   72.0631  221.0946 H   0  0  0  0  0  0  0  0  0  0  0  0
  145.4771   73.6354  221.8175 H   0  0  0  0  0  0  0  0  0  0  0  0
  143.9430   72.5130  220.8210 C   0  0  0  0  0  0  0  0  0  0  0  0
  143.8915   71.7157  220.0649 H   0  0  0  0  0  0  0  0  0  0  0  0
  143.6227   72.1773  221.8183 H   0  0  0  0  0  0  0  0  0  0  0  0
  140.8590   74.6180  220.7540 N   0  0  0  0  0  0  0  0  0  0  0  0
  141.1090   75.3310  220.0320 H   0  0  0  0  0  0  0  0  0  0  0  0
  139.8400   79.8700  222.7990 C   0  0  0  0  0  0  0  0  0  0  0  0
  138.7744   80.0849  222.6305 H   0  0  0  0  0  0  0  0  0  0  0  0
  140.7480   80.9220  222.9540 C   0  0  0  0  0  0  0  0  0  0  0  0
  140.3979   81.9628  222.8896 H   0  0  0  0  0  0  0  0  0  0  0  0
  1  2  1  0
  2  3  2  0
  3  4  1  0
  3  5  1  0
  5  6  1  0
  5  7  2  0
  7  8  1  0
  8  9  1  0
  8 10  1  0
  8 11  1  0
 11 12  1  0
 11 13  1  0
 11 14  1  0
 14 15  2  0
 15 16  1  0
 16 17  2  0
 17 18  1  0
 18 19  1  0
 19 20  1  0
 19 21  1  0
 19 22  1  0
 22 23  2  0
 23 24  1  0
 23 25  1  0
 25 26  1  0
 25 27  2  0
 27 28  1  0
 27 29  1  0
 29 30  1  0
 29 31  2  0
 31 32  1  0
 32 33  1  0
 32 34  1  0
 32 35  1  0
 35 36  1  0
 35 37  1  0
 17 38  1  0
 38 39  2  0
 39 40  1  0
 40 41  1  0
 41 42  1  0
 41 43  1  0
 41 44  1  0
 44 45  1  0
 44 46  1  0
 44 47  1  0
 47 48  1  0
 47 49  1  0
 47 50  1  0
 50 51  1  0
 50 52  1  0
 50 53  1  0
 53 54  1  0
 53 55  1  0
 53 56  1  0
 56 57  1  0
 56 58  1  0
 39 59  1  0
 59 60  1  0
  7 61  1  0
 61 62  1  0
 61 63  2  0
 63 64  1  0
 63  2  1  0
 59 15  1  0
 35 18  1  0
 56 40  1  0
 31 22  1  0
M  CHG  1  50   1
M  END
>  <UniqueID>  (56) 
711

>  <SMILES>  (56) 
c1ccc(CC/N=c2\nc(N3CCc4ccccc4C3)nc(N3CCC[NH2+]CC3)[nH]2)cc1

>  <Energy>  (56) 
73.4440716094754

>  <Genealogy>  (56) 
c1ccc(CCNc2nc(N3CCC[NH2+]CC3)nc(N3CCc4ccccc4C3)n2)cc1 (protonated)
c1ccc(CCN=c2nc(N3CCc4ccccc4C3)nc(N3CCC[NH2+]CC3)[nH]2)cc1 (tautomer)
c1ccc(CC/N=c2\nc(N3CCc4ccccc4C3)nc(N3CCC[NH2+]CC3)[nH]2)cc1 (cis-trans isomerization)
c1ccc(CC/N=c2\nc(N3CCc4ccccc4C3)nc(N3CCC[NH2+]CC3)[nH]2)cc1 (3D coordinates assigned)
c1ccc(CC/N=c2\nc(N3CCc4ccccc4C3)nc(N3CCC[NH2+]CC3)[nH]2)cc1 (nonaromatic ring conformer: 73.4440716094754 kcal/mol)

>  <smiles>  (56) 
c1ccc(CCNc2nc(N3CCCNCC3)nc(N3CCc4ccccc4C3)n2)cc1

>  <score_type>  (56) 
oracle

>  <origin>  (56) 
autodockgpu

>  <m_score__min__energy>  (56) 
-7.3499999999999996

>  <m_primary>  (56) 
energy

>  <meeko>  (56) 
{"free_energy": -6.2, "intermolecular_energy": -9.78, "internal_energy": -0.92, "cluster_size": 3, "cluster_id": 1, "rank_in_cluster": 2}

>  <energy>  (56) 
-5.16

>  <cluster_rmsd>  (56) 
0.0

>  <rmsd>  (56) 
270.33

>  <cluster>  (56) 
8

$$$$
IBHRIKXMMSCQIV-DXVXUIDUNA-O
     RDKit          3D

 64 68  0  0  0  0  0  0  0  0999 V2000
  145.6676   74.7918  220.0860 H   0  0  0  0  0  0  0  0  0  0  0  0
  145.1570   73.8250  219.9650 C   0  0  0  0  0  0  0  0  0  0  0  0
  144.7340   73.1130  221.0900 C   0  0  0  0  0  0  0  0  0  0  0  0
  144.8971   73.5267  222.0961 H   0  0  0  0  0  0  0  0  0  0  0  0
  144.1030   71.8740  220.9370 C   0  0  0  0  0  0  0  0  0  0  0  0
  143.7835   71.3090  221.8251 H   0  0  0  0  0  0  0  0  0  0  0  0
  143.8750   71.3470  219.6520 C   0  0  0  0  0  0  0  0  0  0  0  0
  143.1650   70.0320  219.4830 C   0  0  0  0  0  0  0  0  0  0  0  0
  143.9013   69.2651  219.2008 H   0  0  0  0  0  0  0  0  0  0  0  0
  142.6775   69.7852  220.4377 H   0  0  0  0  0  0  0  0  0  0  0  0
  142.0790   70.0970  218.4010 C   0  0  0  0  0  0  0  0  0  0  0  0
  142.4428   70.7075  217.5613 H   0  0  0  0  0  0  0  0  0  0  0  0
  141.8567   69.0741  218.0631 H   0  0  0  0  0  0  0  0  0  0  0  0
  140.8510   70.6930  218.9310 N   0  0  0  0  0  0  0  0  0  0  0  0
  140.7740   71.4620  219.9780 C   0  0  0  0  0  0  0  0  0  0  0  0
  140.4350   70.9560  221.1970 N   0  0  0  0  0  0  0  0  0  0  0  0
  140.3430   71.7650  222.2850 C   0  0  0  0  0  0  0  0  0  0  0  0
  139.9960   71.2250  223.5800 N   0  0  0  0  0  0  0  0  0  0  0  0
  140.6350   71.7790  224.7860 C   0  0  0  0  0  0  0  0  0  0  0  0
  140.1560   72.7395  225.0268 H   0  0  0  0  0  0  0  0  0  0  0  0
  141.7061   71.8983  224.5657 H   0  0  0  0  0  0  0  0  0  0  0  0
  140.5190   70.8690  225.9860 C   0  0  0  0  0  0  0  0  0  0  0  0
  141.1050   71.2720  227.1960 C   0  0  0  0  0  0  0  0  0  0  0  0
  141.6197   72.2422  227.2572 H   0  0  0  0  0  0  0  0  0  0  0  0
  141.0390   70.4480  228.3250 C   0  0  0  0  0  0  0  0  0  0  0  0
  141.5041   70.7696  229.2685 H   0  0  0  0  0  0  0  0  0  0  0  0
  140.3830   69.2180  228.2540 C   0  0  0  0  0  0  0  0  0  0  0  0
  140.3365   68.5685  229.1405 H   0  0  0  0  0  0  0  0  0  0  0  0
  139.7860   68.8110  227.0600 C   0  0  0  0  0  0  0  0  0  0  0  0
  139.2722   67.8397  227.0093 H   0  0  0  0  0  0  0  0  0  0  0  0
  139.8370   69.6340  225.9220 C   0  0  0  0  0  0  0  0  0  0  0  0
  139.2400   69.1500  224.6290 C   0  0  0  0  0  0  0  0  0  0  0  0
  138.3446   68.5497  224.8480 H   0  0  0  0  0  0  0  0  0  0  0  0
  139.9897   68.5424  224.1010 H   0  0  0  0  0  0  0  0  0  0  0  0
  138.8490   70.3230  223.7390 C   0  0  0  0  0  0  0  0  0  0  0  0
  138.0142   70.8705  224.2009 H   0  0  0  0  0  0  0  0  0  0  0  0
  138.5415   69.9460  222.7524 H   0  0  0  0  0  0  0  0  0  0  0  0
  140.5890   73.0930  222.1440 N   0  0  0  0  0  0  0  0  0  0  0  0
  140.9260   73.6080  220.9350 C   0  0  0  0  0  0  0  0  0  0  0  0
  141.1920   75.0090  220.8080 N   0  0  0  0  0  0  0  0  0  0  0  0
  141.5790   75.5300  219.4920 C   0  0  0  0  0  0  0  0  0  0  0  0
  141.9651   74.7046  218.8759 H   0  0  0  0  0  0  0  0  0  0  0  0
  140.6956   75.9802  219.0156 H   0  0  0  0  0  0  0  0  0  0  0  0
  142.6630   76.6020  219.6330 C   0  0  0  0  0  0  0  0  0  0  0  0
  143.3326   76.3210  220.4592 H   0  0  0  0  0  0  0  0  0  0  0  0
  143.2049   76.6594  218.6775 H   0  0  0  0  0  0  0  0  0  0  0  0
  142.0780   77.9880  219.9230 C   0  0  0  0  0  0  0  0  0  0  0  0
  142.8308   78.7479  219.6665 H   0  0  0  0  0  0  0  0  0  0  0  0
  141.1663   78.0960  219.3171 H   0  0  0  0  0  0  0  0  0  0  0  0
  141.6960   78.1620  221.3330 N   0  0  0  0  0  0  0  0  0  0  0  0
  141.4710   79.1650  221.5290 H   0  0  0  0  0  0  0  0  0  0  0  0
  142.5320   77.9160  221.9110 H   0  0  0  0  0  0  0  0  0  0  0  0
  140.5900   77.2770  221.7440 C   0  0  0  0  0  0  0  0  0  0  0  0
  140.1386   77.6794  222.6629 H   0  0  0  0  0  0  0  0  0  0  0  0
  139.8636   77.2434  220.9187 H   0  0  0  0  0  0  0  0  0  0  0  0
  141.0590   75.8370  222.0140 C   0  0  0  0  0  0  0  0  0  0  0  0
  142.0391   75.8813  222.5114 H   0  0  0  0  0  0  0  0  0  0  0  0
  140.2849   75.3649  222.6368 H   0  0  0  0  0  0  0  0  0  0  0  0
  141.0260   72.7920  219.8530 N   0  0  0  0  0  0  0  0  0  0  0  0
  141.2860   73.1930  218.9230 H   0  0  0  0  0  0  0  0  0  0  0  0
  144.2820   72.0790  218.5250 C   0  0  0  0  0  0  0  0  0  0  0  0
  144.0901   71.6852  217.5160 H   0  0  0  0  0  0  0  0  0  0  0  0
  144.9310   73.3080  218.6830 C   0  0  0  0  0  0  0  0  0  0  0  0
  145.2647   73.8699  217.7982 H   0  0  0  0  0  0  0  0  0  0  0  0
  1  2  1  0
  2  3  2  0
  3  4  1  0
  3  5  1  0
  5  6  1  0
  5  7  2  0
  7  8  1  0
  8  9  1  0
  8 10  1  0
  8 11  1  0
 11 12  1  0
 11 13  1  0
 11 14  1  0
 14 15  2  0
 15 16  1  0
 16 17  2  0
 17 18  1  0
 18 19  1  0
 19 20  1  0
 19 21  1  0
 19 22  1  0
 22 23  2  0
 23 24  1  0
 23 25  1  0
 25 26  1  0
 25 27  2  0
 27 28  1  0
 27 29  1  0
 29 30  1  0
 29 31  2  0
 31 32  1  0
 32 33  1  0
 32 34  1  0
 32 35  1  0
 35 36  1  0
 35 37  1  0
 17 38  1  0
 38 39  2  0
 39 40  1  0
 40 41  1  0
 41 42  1  0
 41 43  1  0
 41 44  1  0
 44 45  1  0
 44 46  1  0
 44 47  1  0
 47 48  1  0
 47 49  1  0
 47 50  1  0
 50 51  1  0
 50 52  1  0
 50 53  1  0
 53 54  1  0
 53 55  1  0
 53 56  1  0
 56 57  1  0
 56 58  1  0
 39 59  1  0
 59 60  1  0
  7 61  1  0
 61 62  1  0
 61 63  2  0
 63 64  1  0
 63  2  1  0
 59 15  1  0
 35 18  1  0
 56 40  1  0
 31 22  1  0
M  CHG  1  50   1
M  END
>  <UniqueID>  (57) 
711

>  <SMILES>  (57) 
c1ccc(CC/N=c2\nc(N3CCc4ccccc4C3)nc(N3CCC[NH2+]CC3)[nH]2)cc1

>  <Energy>  (57) 
73.4440716094754

>  <Genealogy>  (57) 
c1ccc(CCNc2nc(N3CCC[NH2+]CC3)nc(N3CCc4ccccc4C3)n2)cc1 (protonated)
c1ccc(CCN=c2nc(N3CCc4ccccc4C3)nc(N3CCC[NH2+]CC3)[nH]2)cc1 (tautomer)
c1ccc(CC/N=c2\nc(N3CCc4ccccc4C3)nc(N3CCC[NH2+]CC3)[nH]2)cc1 (cis-trans isomerization)
c1ccc(CC/N=c2\nc(N3CCc4ccccc4C3)nc(N3CCC[NH2+]CC3)[nH]2)cc1 (3D coordinates assigned)
c1ccc(CC/N=c2\nc(N3CCc4ccccc4C3)nc(N3CCC[NH2+]CC3)[nH]2)cc1 (nonaromatic ring conformer: 73.4440716094754 kcal/mol)

>  <smiles>  (57) 
c1ccc(CCNc2nc(N3CCCNCC3)nc(N3CCc4ccccc4C3)n2)cc1

>  <score_type>  (57) 
oracle

>  <origin>  (57) 
autodockgpu

>  <m_score__min__energy>  (57) 
-7.3499999999999996

>  <m_primary>  (57) 
energy

>  <meeko>  (57) 
{"free_energy": -5.9, "intermolecular_energy": -9.48, "internal_energy": -1.85, "cluster_size": 5, "cluster_id": 2, "rank_in_cluster": 4}

>  <energy>  (57) 
-5.13

>  <cluster_rmsd>  (57) 
1.47

>  <rmsd>  (57) 
270.36

>  <cluster>  (57) 
8

$$$$
IBHRIKXMMSCQIV-DXVXUIDUNA-O
     RDKit          3D

 64 68  0  0  0  0  0  0  0  0999 V2000
  143.7384   79.3065  222.3074 H   0  0  0  0  0  0  0  0  0  0  0  0
  142.7440   79.5920  222.6810 C   0  0  0  0  0  0  0  0  0  0  0  0
  142.0050   78.6950  223.4570 C   0  0  0  0  0  0  0  0  0  0  0  0
  142.4244   77.7093  223.7070 H   0  0  0  0  0  0  0  0  0  0  0  0
  140.7320   79.0500  223.9160 C   0  0  0  0  0  0  0  0  0  0  0  0
  140.1469   78.3364  224.5147 H   0  0  0  0  0  0  0  0  0  0  0  0
  140.1970   80.3160  223.6150 C   0  0  0  0  0  0  0  0  0  0  0  0
  138.8430   80.7130  224.1360 C   0  0  0  0  0  0  0  0  0  0  0  0
  138.8178   80.5440  225.2227 H   0  0  0  0  0  0  0  0  0  0  0  0
  138.6848   81.7740  223.8926 H   0  0  0  0  0  0  0  0  0  0  0  0
  137.7130   79.9060  223.4840 C   0  0  0  0  0  0  0  0  0  0  0  0
  137.3725   79.1306  224.1859 H   0  0  0  0  0  0  0  0  0  0  0  0
  136.8876   80.5906  223.2389 H   0  0  0  0  0  0  0  0  0  0  0  0
  138.1740   79.2670  222.2500 N   0  0  0  0  0  0  0  0  0  0  0  0
  138.2790   77.9840  222.0560 C   0  0  0  0  0  0  0  0  0  0  0  0
  139.4060   77.4460  221.5130 N   0  0  0  0  0  0  0  0  0  0  0  0
  139.5060   76.1070  221.3010 C   0  0  0  0  0  0  0  0  0  0  0  0
  140.7070   75.5350  220.7360 N   0  0  0  0  0  0  0  0  0  0  0  0
  140.9990   74.1090  220.9600 C   0  0  0  0  0  0  0  0  0  0  0  0
  140.3658   73.5114  220.2877 H   0  0  0  0  0  0  0  0  0  0  0  0
  140.7917   73.8923  222.0183 H   0  0  0  0  0  0  0  0  0  0  0  0
  142.4460   73.7560  220.7000 C   0  0  0  0  0  0  0  0  0  0  0  0
  142.8600   72.4290  220.8960 C   0  0  0  0  0  0  0  0  0  0  0  0
  142.1306   71.6702  221.2157 H   0  0  0  0  0  0  0  0  0  0  0  0
  144.1950   72.0660  220.6870 C   0  0  0  0  0  0  0  0  0  0  0  0
  144.5129   71.0250  220.8462 H   0  0  0  0  0  0  0  0  0  0  0  0
  145.1230   73.0230  220.2770 C   0  0  0  0  0  0  0  0  0  0  0  0
  146.1732   72.7367  220.1188 H   0  0  0  0  0  0  0  0  0  0  0  0
  144.7220   74.3430  220.0670 C   0  0  0  0  0  0  0  0  0  0  0  0
  145.4591   75.0938  219.7461 H   0  0  0  0  0  0  0  0  0  0  0  0
  143.3820   74.7190  220.2630 C   0  0  0  0  0  0  0  0  0  0  0  0
  142.9820   76.1580  220.0900 C   0  0  0  0  0  0  0  0  0  0  0  0
  143.5762   76.6019  219.2776 H   0  0  0  0  0  0  0  0  0  0  0  0
  143.1657   76.6901  221.0351 H   0  0  0  0  0  0  0  0  0  0  0  0
  141.5020   76.2730  219.7460 C   0  0  0  0  0  0  0  0  0  0  0  0
  141.3248   75.8507  218.7459 H   0  0  0  0  0  0  0  0  0  0  0  0
  141.2060   77.3324  219.7563 H   0  0  0  0  0  0  0  0  0  0  0  0
  138.4600   75.3060  221.6320 N   0  0  0  0  0  0  0  0  0  0  0  0
  137.3320   75.8310  222.1720 C   0  0  0  0  0  0  0  0  0  0  0  0
  136.2460   74.9690  222.5250 N   0  0  0  0  0  0  0  0  0  0  0  0
  135.7050   74.0690  221.5000 C   0  0  0  0  0  0  0  0  0  0  0  0
  134.6144   73.9954  221.6229 H   0  0  0  0  0  0  0  0  0  0  0  0
  135.9499   74.4747  220.5073 H   0  0  0  0  0  0  0  0  0  0  0  0
  136.3210   72.6730  221.6280 C   0  0  0  0  0  0  0  0  0  0  0  0
  136.0611   72.0889  220.7328 H   0  0  0  0  0  0  0  0  0  0  0  0
  137.4096   72.7951  221.7282 H   0  0  0  0  0  0  0  0  0  0  0  0
  135.8190   71.9230  222.8680 C   0  0  0  0  0  0  0  0  0  0  0  0
  134.7223   71.8538  222.8174 H   0  0  0  0  0  0  0  0  0  0  0  0
  136.2898   70.9288  222.8682 H   0  0  0  0  0  0  0  0  0  0  0  0
  136.1910   72.5910  224.1250 N   0  0  0  0  0  0  0  0  0  0  0  0
  137.1840   72.9170  224.0850 H   0  0  0  0  0  0  0  0  0  0  0  0
  136.1350   71.8720  224.8830 H   0  0  0  0  0  0  0  0  0  0  0  0
  135.2810   73.6950  224.4830 C   0  0  0  0  0  0  0  0  0  0  0  0
  134.2777   73.4659  224.0946 H   0  0  0  0  0  0  0  0  0  0  0  0
  135.2780   73.7850  225.5793 H   0  0  0  0  0  0  0  0  0  0  0  0
  135.7390   75.0440  223.9030 C   0  0  0  0  0  0  0  0  0  0  0  0
  134.8825   75.7341  223.9179 H   0  0  0  0  0  0  0  0  0  0  0  0
  136.5760   75.3880  224.5284 H   0  0  0  0  0  0  0  0  0  0  0  0
  137.2430   77.1690  222.3920 N   0  0  0  0  0  0  0  0  0  0  0  0
  136.3720   77.5690  222.8080 H   0  0  0  0  0  0  0  0  0  0  0  0
  140.9540   81.2210  222.8530 C   0  0  0  0  0  0  0  0  0  0  0  0
  140.5518   82.2199  222.6285 H   0  0  0  0  0  0  0  0  0  0  0  0
  142.2180   80.8550  222.3790 C   0  0  0  0  0  0  0  0  0  0  0  0
  142.8003   81.5602  221.7678 H   0  0  0  0  0  0  0  0  0  0  0  0
  1  2  1  0
  2  3  2  0
  3  4  1  0
  3  5  1  0
  5  6  1  0
  5  7  2  0
  7  8  1  0
  8  9  1  0
  8 10  1  0
  8 11  1  0
 11 12  1  0
 11 13  1  0
 11 14  1  0
 14 15  2  0
 15 16  1  0
 16 17  2  0
 17 18  1  0
 18 19  1  0
 19 20  1  0
 19 21  1  0
 19 22  1  0
 22 23  2  0
 23 24  1  0
 23 25  1  0
 25 26  1  0
 25 27  2  0
 27 28  1  0
 27 29  1  0
 29 30  1  0
 29 31  2  0
 31 32  1  0
 32 33  1  0
 32 34  1  0
 32 35  1  0
 35 36  1  0
 35 37  1  0
 17 38  1  0
 38 39  2  0
 39 40  1  0
 40 41  1  0
 41 42  1  0
 41 43  1  0
 41 44  1  0
 44 45  1  0
 44 46  1  0
 44 47  1  0
 47 48  1  0
 47 49  1  0
 47 50  1  0
 50 51  1  0
 50 52  1  0
 50 53  1  0
 53 54  1  0
 53 55  1  0
 53 56  1  0
 56 57  1  0
 56 58  1  0
 39 59  1  0
 59 60  1  0
  7 61  1  0
 61 62  1  0
 61 63  2  0
 63 64  1  0
 63  2  1  0
 59 15  1  0
 35 18  1  0
 56 40  1  0
 31 22  1  0
M  CHG  1  50   1
M  END
>  <UniqueID>  (58) 
711

>  <SMILES>  (58) 
c1ccc(CC/N=c2\nc(N3CCc4ccccc4C3)nc(N3CCC[NH2+]CC3)[nH]2)cc1

>  <Energy>  (58) 
73.4440716094754

>  <Genealogy>  (58) 
c1ccc(CCNc2nc(N3CCC[NH2+]CC3)nc(N3CCc4ccccc4C3)n2)cc1 (protonated)
c1ccc(CCN=c2nc(N3CCc4ccccc4C3)nc(N3CCC[NH2+]CC3)[nH]2)cc1 (tautomer)
c1ccc(CC/N=c2\nc(N3CCc4ccccc4C3)nc(N3CCC[NH2+]CC3)[nH]2)cc1 (cis-trans isomerization)
c1ccc(CC/N=c2\nc(N3CCc4ccccc4C3)nc(N3CCC[NH2+]CC3)[nH]2)cc1 (3D coordinates assigned)
c1ccc(CC/N=c2\nc(N3CCc4ccccc4C3)nc(N3CCC[NH2+]CC3)[nH]2)cc1 (nonaromatic ring conformer: 73.4440716094754 kcal/mol)

>  <smiles>  (58) 
c1ccc(CCNc2nc(N3CCCNCC3)nc(N3CCc4ccccc4C3)n2)cc1

>  <score_type>  (58) 
oracle

>  <origin>  (58) 
autodockgpu

>  <m_score__min__energy>  (58) 
-7.3499999999999996

>  <m_primary>  (58) 
energy

>  <meeko>  (58) 
{"free_energy": -4.96, "intermolecular_energy": -8.54, "internal_energy": -1.57, "cluster_size": 1, "cluster_id": 9, "rank_in_cluster": 1}

>  <energy>  (58) 
-4.97

>  <cluster_rmsd>  (58) 
1.75

>  <rmsd>  (58) 
270.12

>  <cluster>  (58) 
8

$$$$
IBHRIKXMMSCQIV-DXVXUIDUNA-O
     RDKit          3D

 64 68  0  0  0  0  0  0  0  0999 V2000
  141.4427   73.4637  227.1857 H   0  0  0  0  0  0  0  0  0  0  0  0
  141.1140   72.4140  227.1780 C   0  0  0  0  0  0  0  0  0  0  0  0
  141.4800   71.5760  226.1220 C   0  0  0  0  0  0  0  0  0  0  0  0
  142.1105   71.9608  225.3069 H   0  0  0  0  0  0  0  0  0  0  0  0
  141.0440   70.2470  226.1020 C   0  0  0  0  0  0  0  0  0  0  0  0
  141.3218   69.5926  225.2626 H   0  0  0  0  0  0  0  0  0  0  0  0
  140.2520   69.7430  227.1500 C   0  0  0  0  0  0  0  0  0  0  0  0
  139.8120   68.3050  227.1480 C   0  0  0  0  0  0  0  0  0  0  0  0
  140.3463   67.7696  227.9467 H   0  0  0  0  0  0  0  0  0  0  0  0
  138.7244   68.2837  227.3111 H   0  0  0  0  0  0  0  0  0  0  0  0
  140.1020   67.6140  225.8100 C   0  0  0  0  0  0  0  0  0  0  0  0
  140.9438   68.1221  225.3168 H   0  0  0  0  0  0  0  0  0  0  0  0
  140.3512   66.5604  226.0043 H   0  0  0  0  0  0  0  0  0  0  0  0
  138.9300   67.6650  224.9330 N   0  0  0  0  0  0  0  0  0  0  0  0
  138.3770   68.7500  224.4720 C   0  0  0  0  0  0  0  0  0  0  0  0
  139.0720   69.6060  223.6730 N   0  0  0  0  0  0  0  0  0  0  0  0
  138.4950   70.7440  223.2050 C   0  0  0  0  0  0  0  0  0  0  0  0
  139.2290   71.6460  222.3460 N   0  0  0  0  0  0  0  0  0  0  0  0
  140.5690   71.2600  221.8730 C   0  0  0  0  0  0  0  0  0  0  0  0
  140.4561   70.5313  221.0568 H   0  0  0  0  0  0  0  0  0  0  0  0
  141.1109   70.8352  222.7308 H   0  0  0  0  0  0  0  0  0  0  0  0
  141.3760   72.4320  221.3640 C   0  0  0  0  0  0  0  0  0  0  0  0
  142.6810   72.2010  220.9020 C   0  0  0  0  0  0  0  0  0  0  0  0
  143.0879   71.1790  220.9009 H   0  0  0  0  0  0  0  0  0  0  0  0
  143.4670   73.2630  220.4430 C   0  0  0  0  0  0  0  0  0  0  0  0
  144.4903   73.0747  220.0862 H   0  0  0  0  0  0  0  0  0  0  0  0
  142.9550   74.5610  220.4370 C   0  0  0  0  0  0  0  0  0  0  0  0
  143.5769   75.3952  220.0803 H   0  0  0  0  0  0  0  0  0  0  0  0
  141.6550   74.8020  220.8830 C   0  0  0  0  0  0  0  0  0  0  0  0
  141.2571   75.8275  220.8791 H   0  0  0  0  0  0  0  0  0  0  0  0
  140.8510   73.7430  221.3370 C   0  0  0  0  0  0  0  0  0  0  0  0
  139.4740   74.0320  221.8700 C   0  0  0  0  0  0  0  0  0  0  0  0
  139.0356   74.8659  221.3022 H   0  0  0  0  0  0  0  0  0  0  0  0
  139.5570   74.2945  222.9350 H   0  0  0  0  0  0  0  0  0  0  0  0
  138.5730   72.8100  221.7380 C   0  0  0  0  0  0  0  0  0  0  0  0
  138.3831   72.6085  220.6734 H   0  0  0  0  0  0  0  0  0  0  0  0
  137.6198   73.0019  222.2524 H   0  0  0  0  0  0  0  0  0  0  0  0
  137.2110   71.0250  223.5500 N   0  0  0  0  0  0  0  0  0  0  0  0
  136.5110   70.1800  224.3460 C   0  0  0  0  0  0  0  0  0  0  0  0
  135.1560   70.4870  224.6890 N   0  0  0  0  0  0  0  0  0  0  0  0
  134.6530   70.0620  226.0010 C   0  0  0  0  0  0  0  0  0  0  0  0
  133.7645   69.4291  225.8594 H   0  0  0  0  0  0  0  0  0  0  0  0
  135.4442   69.4989  226.5177 H   0  0  0  0  0  0  0  0  0  0  0  0
  134.2750   71.2750  226.8540 C   0  0  0  0  0  0  0  0  0  0  0  0
  133.6700   70.9327  227.7065 H   0  0  0  0  0  0  0  0  0  0  0  0
  135.2073   71.7539  227.1880 H   0  0  0  0  0  0  0  0  0  0  0  0
  133.4700   72.3170  226.0650 C   0  0  0  0  0  0  0  0  0  0  0  0
  132.7619   71.7906  225.4081 H   0  0  0  0  0  0  0  0  0  0  0  0
  132.9512   72.9568  226.7941 H   0  0  0  0  0  0  0  0  0  0  0  0
  134.3210   73.1870  225.2380 N   0  0  0  0  0  0  0  0  0  0  0  0
  135.2720   73.2790  225.6640 H   0  0  0  0  0  0  0  0  0  0  0  0
  133.8880   74.1380  225.2460 H   0  0  0  0  0  0  0  0  0  0  0  0
  134.4070   72.7440  223.8340 C   0  0  0  0  0  0  0  0  0  0  0  0
  133.5663   73.1796  223.2741 H   0  0  0  0  0  0  0  0  0  0  0  0
  135.3751   73.0810  223.4350 H   0  0  0  0  0  0  0  0  0  0  0  0
  134.3510   71.2120  223.6970 C   0  0  0  0  0  0  0  0  0  0  0  0
  133.3034   70.8945  223.8049 H   0  0  0  0  0  0  0  0  0  0  0  0
  134.7720   70.9682  222.7104 H   0  0  0  0  0  0  0  0  0  0  0  0
  137.0900   69.0380  224.8020 N   0  0  0  0  0  0  0  0  0  0  0  0
  136.5460   68.3900  225.4160 H   0  0  0  0  0  0  0  0  0  0  0  0
  139.9080   70.5850  228.2200 C   0  0  0  0  0  0  0  0  0  0  0  0
  139.3064   70.1948  229.0542 H   0  0  0  0  0  0  0  0  0  0  0  0
  140.3290   71.9190  228.2270 C   0  0  0  0  0  0  0  0  0  0  0  0
  140.0430   72.5805  229.0580 H   0  0  0  0  0  0  0  0  0  0  0  0
  1  2  1  0
  2  3  2  0
  3  4  1  0
  3  5  1  0
  5  6  1  0
  5  7  2  0
  7  8  1  0
  8  9  1  0
  8 10  1  0
  8 11  1  0
 11 12  1  0
 11 13  1  0
 11 14  1  0
 14 15  2  0
 15 16  1  0
 16 17  2  0
 17 18  1  0
 18 19  1  0
 19 20  1  0
 19 21  1  0
 19 22  1  0
 22 23  2  0
 23 24  1  0
 23 25  1  0
 25 26  1  0
 25 27  2  0
 27 28  1  0
 27 29  1  0
 29 30  1  0
 29 31  2  0
 31 32  1  0
 32 33  1  0
 32 34  1  0
 32 35  1  0
 35 36  1  0
 35 37  1  0
 17 38  1  0
 38 39  2  0
 39 40  1  0
 40 41  1  0
 41 42  1  0
 41 43  1  0
 41 44  1  0
 44 45  1  0
 44 46  1  0
 44 47  1  0
 47 48  1  0
 47 49  1  0
 47 50  1  0
 50 51  1  0
 50 52  1  0
 50 53  1  0
 53 54  1  0
 53 55  1  0
 53 56  1  0
 56 57  1  0
 56 58  1  0
 39 59  1  0
 59 60  1  0
  7 61  1  0
 61 62  1  0
 61 63  2  0
 63 64  1  0
 63  2  1  0
 59 15  1  0
 35 18  1  0
 56 40  1  0
 31 22  1  0
M  CHG  1  50   1
M  END
>  <UniqueID>  (59) 
711

>  <SMILES>  (59) 
c1ccc(CC/N=c2\nc(N3CCc4ccccc4C3)nc(N3CCC[NH2+]CC3)[nH]2)cc1

>  <Energy>  (59) 
73.4440716094754

>  <Genealogy>  (59) 
c1ccc(CCNc2nc(N3CCC[NH2+]CC3)nc(N3CCc4ccccc4C3)n2)cc1 (protonated)
c1ccc(CCN=c2nc(N3CCc4ccccc4C3)nc(N3CCC[NH2+]CC3)[nH]2)cc1 (tautomer)
c1ccc(CC/N=c2\nc(N3CCc4ccccc4C3)nc(N3CCC[NH2+]CC3)[nH]2)cc1 (cis-trans isomerization)
c1ccc(CC/N=c2\nc(N3CCc4ccccc4C3)nc(N3CCC[NH2+]CC3)[nH]2)cc1 (3D coordinates assigned)
c1ccc(CC/N=c2\nc(N3CCc4ccccc4C3)nc(N3CCC[NH2+]CC3)[nH]2)cc1 (nonaromatic ring conformer: 73.4440716094754 kcal/mol)

>  <smiles>  (59) 
c1ccc(CCNc2nc(N3CCCNCC3)nc(N3CCc4ccccc4C3)n2)cc1

>  <score_type>  (59) 
oracle

>  <origin>  (59) 
autodockgpu

>  <m_score__min__energy>  (59) 
-7.3499999999999996

>  <m_primary>  (59) 
energy

>  <meeko>  (59) 
{"free_energy": -5.68, "intermolecular_energy": -9.26, "internal_energy": -1.74, "cluster_size": 1, "cluster_id": 7, "rank_in_cluster": 1}

>  <energy>  (59) 
-4.88

>  <cluster_rmsd>  (59) 
0.35

>  <rmsd>  (59) 
270.43

>  <cluster>  (59) 
8

$$$$
IBHRIKXMMSCQIV-DXVXUIDUNA-O
     RDKit          3D

 64 68  0  0  0  0  0  0  0  0999 V2000
  146.5304   74.6258  221.6394 H   0  0  0  0  0  0  0  0  0  0  0  0
  145.8940   74.0540  220.9480 C   0  0  0  0  0  0  0  0  0  0  0  0
  144.7210   74.6230  220.4460 C   0  0  0  0  0  0  0  0  0  0  0  0
  144.4423   75.6486  220.7296 H   0  0  0  0  0  0  0  0  0  0  0  0
  143.9010   73.8890  219.5830 C   0  0  0  0  0  0  0  0  0  0  0  0
  142.9715   74.3350  219.1995 H   0  0  0  0  0  0  0  0  0  0  0  0
  144.2600   72.5820  219.2030 C   0  0  0  0  0  0  0  0  0  0  0  0
  143.3980   71.8030  218.2490 C   0  0  0  0  0  0  0  0  0  0  0  0
  142.5615   72.4400  217.9258 H   0  0  0  0  0  0  0  0  0  0  0  0
  144.0236   71.5022  217.3957 H   0  0  0  0  0  0  0  0  0  0  0  0
  142.8310   70.5300  218.8910 C   0  0  0  0  0  0  0  0  0  0  0  0
  142.9472   69.6904  218.1899 H   0  0  0  0  0  0  0  0  0  0  0  0
  143.3808   70.3308  219.8227 H   0  0  0  0  0  0  0  0  0  0  0  0
  141.4110   70.6950  219.2110 N   0  0  0  0  0  0  0  0  0  0  0  0
  140.9350   71.4180  220.1840 C   0  0  0  0  0  0  0  0  0  0  0  0
  140.6550   70.8640  221.3960 N   0  0  0  0  0  0  0  0  0  0  0  0
  140.1460   71.6190  222.4050 C   0  0  0  0  0  0  0  0  0  0  0  0
  139.8620   71.0340  223.6960 N   0  0  0  0  0  0  0  0  0  0  0  0
  140.5470   71.5580  224.8900 C   0  0  0  0  0  0  0  0  0  0  0  0
  140.0679   72.5040  225.1824 H   0  0  0  0  0  0  0  0  0  0  0  0
  141.6059   71.6988  224.6274 H   0  0  0  0  0  0  0  0  0  0  0  0
  140.4940   70.6080  226.0640 C   0  0  0  0  0  0  0  0  0  0  0  0
  141.1270   70.9800  227.2600 C   0  0  0  0  0  0  0  0  0  0  0  0
  141.6319   71.9547  227.3308 H   0  0  0  0  0  0  0  0  0  0  0  0
  141.1200   70.1190  228.3630 C   0  0  0  0  0  0  0  0  0  0  0  0
  141.6220   70.4164  229.2955 H   0  0  0  0  0  0  0  0  0  0  0  0
  140.4770   68.8840  228.2810 C   0  0  0  0  0  0  0  0  0  0  0  0
  140.4776   68.2061  229.1473 H   0  0  0  0  0  0  0  0  0  0  0  0
  139.8330   68.5070  227.1020 C   0  0  0  0  0  0  0  0  0  0  0  0
  139.3284   67.5313  227.0427 H   0  0  0  0  0  0  0  0  0  0  0  0
  139.8250   69.3660  225.9900 C   0  0  0  0  0  0  0  0  0  0  0  0
  139.1770   68.9160  224.7090 C   0  0  0  0  0  0  0  0  0  0  0  0
  138.2989   68.2979  224.9473 H   0  0  0  0  0  0  0  0  0  0  0  0
  139.9096   68.3351  224.1294 H   0  0  0  0  0  0  0  0  0  0  0  0
  138.7340   70.1120  223.8750 C   0  0  0  0  0  0  0  0  0  0  0  0
  137.9136   70.6333  224.3899 H   0  0  0  0  0  0  0  0  0  0  0  0
  138.3888   69.7625  222.8908 H   0  0  0  0  0  0  0  0  0  0  0  0
  139.9100   72.9390  222.1890 N   0  0  0  0  0  0  0  0  0  0  0  0
  140.1840   73.5010  220.9840 C   0  0  0  0  0  0  0  0  0  0  0  0
  139.9390   74.8960  220.7790 N   0  0  0  0  0  0  0  0  0  0  0  0
  141.0370   75.8400  221.0150 C   0  0  0  0  0  0  0  0  0  0  0  0
  141.9874   75.2872  221.0487 H   0  0  0  0  0  0  0  0  0  0  0  0
  141.0523   76.5761  220.1977 H   0  0  0  0  0  0  0  0  0  0  0  0
  140.8390   76.5800  222.3400 C   0  0  0  0  0  0  0  0  0  0  0  0
  141.0268   75.8797  223.1672 H   0  0  0  0  0  0  0  0  0  0  0  0
  141.5423   77.4256  222.3603 H   0  0  0  0  0  0  0  0  0  0  0  0
  139.4190   77.1480  222.4870 C   0  0  0  0  0  0  0  0  0  0  0  0
  139.4022   77.8374  223.3440 H   0  0  0  0  0  0  0  0  0  0  0  0
  139.1668   77.6622  221.5478 H   0  0  0  0  0  0  0  0  0  0  0  0
  138.4100   76.0990  222.7060 N   0  0  0  0  0  0  0  0  0  0  0  0
  137.7600   76.3740  223.4770 H   0  0  0  0  0  0  0  0  0  0  0  0
  138.9200   75.2440  223.0240 H   0  0  0  0  0  0  0  0  0  0  0  0
  137.6670   75.7490  221.4810 C   0  0  0  0  0  0  0  0  0  0  0  0
  136.9665   74.9335  221.7139 H   0  0  0  0  0  0  0  0  0  0  0  0
  137.1377   76.6514  221.1413 H   0  0  0  0  0  0  0  0  0  0  0  0
  138.5940   75.2930  220.3410 C   0  0  0  0  0  0  0  0  0  0  0  0
  138.1266   74.4325  219.8400 H   0  0  0  0  0  0  0  0  0  0  0  0
  138.7220   76.1578  219.6734 H   0  0  0  0  0  0  0  0  0  0  0  0
  140.7030   72.7420  219.9830 N   0  0  0  0  0  0  0  0  0  0  0  0
  140.9110   73.1790  219.0570 H   0  0  0  0  0  0  0  0  0  0  0  0
  145.4520   72.0250  219.6940 C   0  0  0  0  0  0  0  0  0  0  0  0
  145.7508   71.0116  219.3878 H   0  0  0  0  0  0  0  0  0  0  0  0
  146.2600   72.7550  220.5710 C   0  0  0  0  0  0  0  0  0  0  0  0
  147.1847   72.3088  220.9657 H   0  0  0  0  0  0  0  0  0  0  0  0
  1  2  1  0
  2  3  2  0
  3  4  1  0
  3  5  1  0
  5  6  1  0
  5  7  2  0
  7  8  1  0
  8  9  1  0
  8 10  1  0
  8 11  1  0
 11 12  1  0
 11 13  1  0
 11 14  1  0
 14 15  2  0
 15 16  1  0
 16 17  2  0
 17 18  1  0
 18 19  1  0
 19 20  1  0
 19 21  1  0
 19 22  1  0
 22 23  2  0
 23 24  1  0
 23 25  1  0
 25 26  1  0
 25 27  2  0
 27 28  1  0
 27 29  1  0
 29 30  1  0
 29 31  2  0
 31 32  1  0
 32 33  1  0
 32 34  1  0
 32 35  1  0
 35 36  1  0
 35 37  1  0
 17 38  1  0
 38 39  2  0
 39 40  1  0
 40 41  1  0
 41 42  1  0
 41 43  1  0
 41 44  1  0
 44 45  1  0
 44 46  1  0
 44 47  1  0
 47 48  1  0
 47 49  1  0
 47 50  1  0
 50 51  1  0
 50 52  1  0
 50 53  1  0
 53 54  1  0
 53 55  1  0
 53 56  1  0
 56 57  1  0
 56 58  1  0
 39 59  1  0
 59 60  1  0
  7 61  1  0
 61 62  1  0
 61 63  2  0
 63 64  1  0
 63  2  1  0
 59 15  1  0
 35 18  1  0
 56 40  1  0
 31 22  1  0
M  CHG  1  50   1
M  END
>  <UniqueID>  (60) 
711

>  <SMILES>  (60) 
c1ccc(CC/N=c2\nc(N3CCc4ccccc4C3)nc(N3CCC[NH2+]CC3)[nH]2)cc1

>  <Energy>  (60) 
73.4440716094754

>  <Genealogy>  (60) 
c1ccc(CCNc2nc(N3CCC[NH2+]CC3)nc(N3CCc4ccccc4C3)n2)cc1 (protonated)
c1ccc(CCN=c2nc(N3CCc4ccccc4C3)nc(N3CCC[NH2+]CC3)[nH]2)cc1 (tautomer)
c1ccc(CC/N=c2\nc(N3CCc4ccccc4C3)nc(N3CCC[NH2+]CC3)[nH]2)cc1 (cis-trans isomerization)
c1ccc(CC/N=c2\nc(N3CCc4ccccc4C3)nc(N3CCC[NH2+]CC3)[nH]2)cc1 (3D coordinates assigned)
c1ccc(CC/N=c2\nc(N3CCc4ccccc4C3)nc(N3CCC[NH2+]CC3)[nH]2)cc1 (nonaromatic ring conformer: 73.4440716094754 kcal/mol)

>  <smiles>  (60) 
c1ccc(CCNc2nc(N3CCCNCC3)nc(N3CCc4ccccc4C3)n2)cc1

>  <score_type>  (60) 
oracle

>  <origin>  (60) 
autodockgpu

>  <m_score__min__energy>  (60) 
-7.3499999999999996

>  <m_primary>  (60) 
energy

>  <meeko>  (60) 
{"free_energy": -6.24, "intermolecular_energy": -9.82, "internal_energy": -1.7, "cluster_size": 5, "cluster_id": 2, "rank_in_cluster": 2}

>  <energy>  (60) 
-4.96

>  <cluster_rmsd>  (60) 
0.0

>  <rmsd>  (60) 
270.31

>  <cluster>  (60) 
9

$$$$
IBHRIKXMMSCQIV-DXVXUIDUNA-O
     RDKit          3D

 64 68  0  0  0  0  0  0  0  0999 V2000
  143.0155   81.1348  224.3435 H   0  0  0  0  0  0  0  0  0  0  0  0
  142.5220   80.4040  223.6860 C   0  0  0  0  0  0  0  0  0  0  0  0
  141.9150   79.2700  224.2330 C   0  0  0  0  0  0  0  0  0  0  0  0
  141.9170   79.1161  225.3222 H   0  0  0  0  0  0  0  0  0  0  0  0
  141.3050   78.3310  223.3950 C   0  0  0  0  0  0  0  0  0  0  0  0
  140.8392   77.4330  223.8271 H   0  0  0  0  0  0  0  0  0  0  0  0
  141.2840   78.5290  222.0020 C   0  0  0  0  0  0  0  0  0  0  0  0
  140.5990   77.5380  221.1020 C   0  0  0  0  0  0  0  0  0  0  0  0
  140.4465   78.0008  220.1158 H   0  0  0  0  0  0  0  0  0  0  0  0
  141.2396   76.6467  221.0298 H   0  0  0  0  0  0  0  0  0  0  0  0
  139.2380   77.0980  221.6580 C   0  0  0  0  0  0  0  0  0  0  0  0
  139.2441   77.2051  222.7528 H   0  0  0  0  0  0  0  0  0  0  0  0
  138.4551   77.7314  221.2154 H   0  0  0  0  0  0  0  0  0  0  0  0
  138.9620   75.7020  221.3140 N   0  0  0  0  0  0  0  0  0  0  0  0
  139.7580   74.6960  221.5380 C   0  0  0  0  0  0  0  0  0  0  0  0
  139.4210   73.7180  222.4230 N   0  0  0  0  0  0  0  0  0  0  0  0
  140.2610   72.6770  222.6630 C   0  0  0  0  0  0  0  0  0  0  0  0
  139.8980   71.6320  223.5930 N   0  0  0  0  0  0  0  0  0  0  0  0
  140.5620   71.5730  224.9060 C   0  0  0  0  0  0  0  0  0  0  0  0
  140.1215   72.3429  225.5565 H   0  0  0  0  0  0  0  0  0  0  0  0
  141.6361   71.7417  224.7394 H   0  0  0  0  0  0  0  0  0  0  0  0
  140.4150   70.2300  225.5820 C   0  0  0  0  0  0  0  0  0  0  0  0
  141.0200   70.0360  226.8330 C   0  0  0  0  0  0  0  0  0  0  0  0
  141.5726   70.8609  227.3066 H   0  0  0  0  0  0  0  0  0  0  0  0
  140.9250   68.8000  227.4820 C   0  0  0  0  0  0  0  0  0  0  0  0
  141.4048   68.6551  228.4612 H   0  0  0  0  0  0  0  0  0  0  0  0
  140.2220   67.7510  226.8880 C   0  0  0  0  0  0  0  0  0  0  0  0
  140.1532   66.7783  227.3971 H   0  0  0  0  0  0  0  0  0  0  0  0
  139.6060   67.9340  225.6490 C   0  0  0  0  0  0  0  0  0  0  0  0
  139.0555   67.1029  225.1840 H   0  0  0  0  0  0  0  0  0  0  0  0
  139.6850   69.1740  224.9920 C   0  0  0  0  0  0  0  0  0  0  0  0
  139.0650   69.3330  223.6310 C   0  0  0  0  0  0  0  0  0  0  0  0
  138.1476   68.7282  223.5801 H   0  0  0  0  0  0  0  0  0  0  0  0
  139.7885   68.9974  222.8735 H   0  0  0  0  0  0  0  0  0  0  0  0
  138.7170   70.7910  223.3600 C   0  0  0  0  0  0  0  0  0  0  0  0
  137.9058   71.1048  224.0334 H   0  0  0  0  0  0  0  0  0  0  0  0
  138.3918   70.9003  222.3149 H   0  0  0  0  0  0  0  0  0  0  0  0
  141.4520   72.6250  222.0120 N   0  0  0  0  0  0  0  0  0  0  0  0
  141.7990   73.5950  221.1290 C   0  0  0  0  0  0  0  0  0  0  0  0
  143.0530   73.5170  220.4440 N   0  0  0  0  0  0  0  0  0  0  0  0
  143.4470   72.2340  219.8500 C   0  0  0  0  0  0  0  0  0  0  0  0
  144.1776   71.7407  220.5079 H   0  0  0  0  0  0  0  0  0  0  0  0
  142.5507   71.6064  219.7369 H   0  0  0  0  0  0  0  0  0  0  0  0
  144.0760   72.4470  218.4710 C   0  0  0  0  0  0  0  0  0  0  0  0
  145.1420   72.6848  218.6018 H   0  0  0  0  0  0  0  0  0  0  0  0
  143.9377   71.5217  217.8925 H   0  0  0  0  0  0  0  0  0  0  0  0
  143.4080   73.5890  217.6940 C   0  0  0  0  0  0  0  0  0  0  0  0
  143.4245   73.3419  216.6222 H   0  0  0  0  0  0  0  0  0  0  0  0
  142.3804   73.6912  218.0729 H   0  0  0  0  0  0  0  0  0  0  0  0
  144.0830   74.8810  217.8890 N   0  0  0  0  0  0  0  0  0  0  0  0
  143.9630   75.4870  217.0440 H   0  0  0  0  0  0  0  0  0  0  0  0
  145.1060   74.6820  217.9810 H   0  0  0  0  0  0  0  0  0  0  0  0
  143.6490   75.5810  219.1120 C   0  0  0  0  0  0  0  0  0  0  0  0
  144.2212   76.5157  219.2060 H   0  0  0  0  0  0  0  0  0  0  0  0
  142.5702   75.7764  219.0219 H   0  0  0  0  0  0  0  0  0  0  0  0
  143.8690   74.7370  220.3800 C   0  0  0  0  0  0  0  0  0  0  0  0
  144.9288   74.4450  220.4197 H   0  0  0  0  0  0  0  0  0  0  0  0
  143.5657   75.3636  221.2317 H   0  0  0  0  0  0  0  0  0  0  0  0
  140.9490   74.6280  220.8860 N   0  0  0  0  0  0  0  0  0  0  0  0
  141.2210   75.3730  220.2050 H   0  0  0  0  0  0  0  0  0  0  0  0
  141.8760   79.6820  221.4610 C   0  0  0  0  0  0  0  0  0  0  0  0
  141.8474   79.8557  220.3752 H   0  0  0  0  0  0  0  0  0  0  0  0
  142.5020   80.6100  222.3000 C   0  0  0  0  0  0  0  0  0  0  0  0
  142.9795   81.5032  221.8709 H   0  0  0  0  0  0  0  0  0  0  0  0
  1  2  1  0
  2  3  2  0
  3  4  1  0
  3  5  1  0
  5  6  1  0
  5  7  2  0
  7  8  1  0
  8  9  1  0
  8 10  1  0
  8 11  1  0
 11 12  1  0
 11 13  1  0
 11 14  1  0
 14 15  2  0
 15 16  1  0
 16 17  2  0
 17 18  1  0
 18 19  1  0
 19 20  1  0
 19 21  1  0
 19 22  1  0
 22 23  2  0
 23 24  1  0
 23 25  1  0
 25 26  1  0
 25 27  2  0
 27 28  1  0
 27 29  1  0
 29 30  1  0
 29 31  2  0
 31 32  1  0
 32 33  1  0
 32 34  1  0
 32 35  1  0
 35 36  1  0
 35 37  1  0
 17 38  1  0
 38 39  2  0
 39 40  1  0
 40 41  1  0
 41 42  1  0
 41 43  1  0
 41 44  1  0
 44 45  1  0
 44 46  1  0
 44 47  1  0
 47 48  1  0
 47 49  1  0
 47 50  1  0
 50 51  1  0
 50 52  1  0
 50 53  1  0
 53 54  1  0
 53 55  1  0
 53 56  1  0
 56 57  1  0
 56 58  1  0
 39 59  1  0
 59 60  1  0
  7 61  1  0
 61 62  1  0
 61 63  2  0
 63 64  1  0
 63  2  1  0
 59 15  1  0
 35 18  1  0
 56 40  1  0
 31 22  1  0
M  CHG  1  50   1
M  END
>  <UniqueID>  (61) 
712

>  <SMILES>  (61) 
c1ccc(CC/N=c2\nc(N3CCc4ccccc4C3)nc(N3CCC[NH2+]CC3)[nH]2)cc1

>  <Energy>  (61) 
73.68142630792696

>  <Genealogy>  (61) 
c1ccc(CCNc2nc(N3CCC[NH2+]CC3)nc(N3CCc4ccccc4C3)n2)cc1 (protonated)
c1ccc(CCN=c2nc(N3CCc4ccccc4C3)nc(N3CCC[NH2+]CC3)[nH]2)cc1 (tautomer)
c1ccc(CC/N=c2\nc(N3CCc4ccccc4C3)nc(N3CCC[NH2+]CC3)[nH]2)cc1 (cis-trans isomerization)
c1ccc(CC/N=c2\nc(N3CCc4ccccc4C3)nc(N3CCC[NH2+]CC3)[nH]2)cc1 (3D coordinates assigned)
c1ccc(CC/N=c2\nc(N3CCc4ccccc4C3)nc(N3CCC[NH2+]CC3)[nH]2)cc1 (nonaromatic ring conformer: 73.68142630792696 kcal/mol)

>  <smiles>  (61) 
c1ccc(CCNc2nc(N3CCCNCC3)nc(N3CCc4ccccc4C3)n2)cc1

>  <score_type>  (61) 
oracle

>  <origin>  (61) 
autodockgpu

>  <m_score__min__energy>  (61) 
-7.3499999999999996

>  <m_primary>  (61) 
energy

>  <meeko>  (61) 
{"free_energy": -7.35, "intermolecular_energy": -10.93, "internal_energy": -1.01, "cluster_size": 3, "cluster_id": 1, "rank_in_cluster": 1}

>  <energy>  (61) 
-7.35

>  <cluster_rmsd>  (61) 
0.0

>  <rmsd>  (61) 
270.69

>  <cluster>  (61) 
1

$$$$
IBHRIKXMMSCQIV-DXVXUIDUNA-O
     RDKit          3D

 64 68  0  0  0  0  0  0  0  0999 V2000
  142.0470   79.9490  222.4924 H   0  0  0  0  0  0  0  0  0  0  0  0
  141.1870   79.2640  222.5270 C   0  0  0  0  0  0  0  0  0  0  0  0
  141.3310   77.9390  222.1050 C   0  0  0  0  0  0  0  0  0  0  0  0
  142.3086   77.5769  221.7539 H   0  0  0  0  0  0  0  0  0  0  0  0
  140.2330   77.0740  222.1290 C   0  0  0  0  0  0  0  0  0  0  0  0
  140.3461   76.0360  221.7828 H   0  0  0  0  0  0  0  0  0  0  0  0
  138.9840   77.5250  222.5940 C   0  0  0  0  0  0  0  0  0  0  0  0
  137.8090   76.5870  222.6540 C   0  0  0  0  0  0  0  0  0  0  0  0
  138.1459   75.6221  223.0609 H   0  0  0  0  0  0  0  0  0  0  0  0
  137.0423   77.0452  223.2961 H   0  0  0  0  0  0  0  0  0  0  0  0
  137.1880   76.3510  221.2720 C   0  0  0  0  0  0  0  0  0  0  0  0
  136.1039   76.5281  221.3290 H   0  0  0  0  0  0  0  0  0  0  0  0
  137.6524   77.0433  220.5543 H   0  0  0  0  0  0  0  0  0  0  0  0
  137.4270   74.9780  220.8210 N   0  0  0  0  0  0  0  0  0  0  0  0
  138.4480   74.2400  221.1510 C   0  0  0  0  0  0  0  0  0  0  0  0
  138.3420   73.2900  222.1210 N   0  0  0  0  0  0  0  0  0  0  0  0
  139.4130   72.5310  222.4720 C   0  0  0  0  0  0  0  0  0  0  0  0
  139.2960   71.5130  223.4920 N   0  0  0  0  0  0  0  0  0  0  0  0
  140.2000   71.5520  224.6540 C   0  0  0  0  0  0  0  0  0  0  0  0
  139.8450   72.3275  225.3486 H   0  0  0  0  0  0  0  0  0  0  0  0
  141.2106   71.7696  224.2781 H   0  0  0  0  0  0  0  0  0  0  0  0
  140.2660   70.2360  225.3940 C   0  0  0  0  0  0  0  0  0  0  0  0
  141.1080   70.1340  226.5120 C   0  0  0  0  0  0  0  0  0  0  0  0
  141.6883   71.0087  226.8407 H   0  0  0  0  0  0  0  0  0  0  0  0
  141.2140   68.9270  227.2110 C   0  0  0  0  0  0  0  0  0  0  0  0
  141.8797   68.8538  228.0837 H   0  0  0  0  0  0  0  0  0  0  0  0
  140.4760   67.8160  226.8020 C   0  0  0  0  0  0  0  0  0  0  0  0
  140.5643   66.8664  227.3501 H   0  0  0  0  0  0  0  0  0  0  0  0
  139.6260   67.9070  225.6990 C   0  0  0  0  0  0  0  0  0  0  0  0
  139.0483   67.0271  225.3795 H   0  0  0  0  0  0  0  0  0  0  0  0
  139.5040   69.1170  224.9940 C   0  0  0  0  0  0  0  0  0  0  0  0
  138.6280   69.1780  223.7720 C   0  0  0  0  0  0  0  0  0  0  0  0
  137.7562   68.5238  223.9203 H   0  0  0  0  0  0  0  0  0  0  0  0
  139.2131   68.8452  222.9020 H   0  0  0  0  0  0  0  0  0  0  0  0
  138.1470   70.6020  223.5210 C   0  0  0  0  0  0  0  0  0  0  0  0
  137.4611   70.9037  224.3263 H   0  0  0  0  0  0  0  0  0  0  0  0
  137.6231   70.6450  222.5547 H   0  0  0  0  0  0  0  0  0  0  0  0
  140.6010   72.7360  221.8470 N   0  0  0  0  0  0  0  0  0  0  0  0
  140.7190   73.6810  220.8810 C   0  0  0  0  0  0  0  0  0  0  0  0
  141.9760   73.8750  220.2250 N   0  0  0  0  0  0  0  0  0  0  0  0
  142.0870   74.9430  219.2260 C   0  0  0  0  0  0  0  0  0  0  0  0
  142.3240   74.4991  218.2478 H   0  0  0  0  0  0  0  0  0  0  0  0
  141.1300   75.4833  219.1784 H   0  0  0  0  0  0  0  0  0  0  0  0
  143.1910   75.9310  219.6100 C   0  0  0  0  0  0  0  0  0  0  0  0
  143.5161   76.4664  218.7057 H   0  0  0  0  0  0  0  0  0  0  0  0
  142.7774   76.6209  220.3603 H   0  0  0  0  0  0  0  0  0  0  0  0
  144.4080   75.2350  220.2350 C   0  0  0  0  0  0  0  0  0  0  0  0
  145.2006   75.9822  220.3883 H   0  0  0  0  0  0  0  0  0  0  0  0
  144.0828   74.7865  221.1853 H   0  0  0  0  0  0  0  0  0  0  0  0
  144.9380   74.1530  219.3910 N   0  0  0  0  0  0  0  0  0  0  0  0
  145.9600   74.0200  219.5670 H   0  0  0  0  0  0  0  0  0  0  0  0
  144.8360   74.4600  218.3970 H   0  0  0  0  0  0  0  0  0  0  0  0
  144.2010   72.8850  219.5480 C   0  0  0  0  0  0  0  0  0  0  0  0
  143.7534   72.6145  218.5803 H   0  0  0  0  0  0  0  0  0  0  0  0
  144.9159   72.1217  219.8890 H   0  0  0  0  0  0  0  0  0  0  0  0
  143.0820   72.9830  220.6000 C   0  0  0  0  0  0  0  0  0  0  0  0
  142.6721   71.9752  220.7618 H   0  0  0  0  0  0  0  0  0  0  0  0
  143.5376   73.4097  221.5058 H   0  0  0  0  0  0  0  0  0  0  0  0
  139.6410   74.4290  220.5270 N   0  0  0  0  0  0  0  0  0  0  0  0
  139.7360   75.1570  219.7830 H   0  0  0  0  0  0  0  0  0  0  0  0
  138.8510   78.8510  223.0380 C   0  0  0  0  0  0  0  0  0  0  0  0
  137.8833   79.2074  223.4209 H   0  0  0  0  0  0  0  0  0  0  0  0
  139.9470   79.7190  222.9940 C   0  0  0  0  0  0  0  0  0  0  0  0
  139.8350   80.7614  223.3269 H   0  0  0  0  0  0  0  0  0  0  0  0
  1  2  1  0
  2  3  2  0
  3  4  1  0
  3  5  1  0
  5  6  1  0
  5  7  2  0
  7  8  1  0
  8  9  1  0
  8 10  1  0
  8 11  1  0
 11 12  1  0
 11 13  1  0
 11 14  1  0
 14 15  2  0
 15 16  1  0
 16 17  2  0
 17 18  1  0
 18 19  1  0
 19 20  1  0
 19 21  1  0
 19 22  1  0
 22 23  2  0
 23 24  1  0
 23 25  1  0
 25 26  1  0
 25 27  2  0
 27 28  1  0
 27 29  1  0
 29 30  1  0
 29 31  2  0
 31 32  1  0
 32 33  1  0
 32 34  1  0
 32 35  1  0
 35 36  1  0
 35 37  1  0
 17 38  1  0
 38 39  2  0
 39 40  1  0
 40 41  1  0
 41 42  1  0
 41 43  1  0
 41 44  1  0
 44 45  1  0
 44 46  1  0
 44 47  1  0
 47 48  1  0
 47 49  1  0
 47 50  1  0
 50 51  1  0
 50 52  1  0
 50 53  1  0
 53 54  1  0
 53 55  1  0
 53 56  1  0
 56 57  1  0
 56 58  1  0
 39 59  1  0
 59 60  1  0
  7 61  1  0
 61 62  1  0
 61 63  2  0
 63 64  1  0
 63  2  1  0
 59 15  1  0
 35 18  1  0
 56 40  1  0
 31 22  1  0
M  CHG  1  50   1
M  END
>  <UniqueID>  (62) 
712

>  <SMILES>  (62) 
c1ccc(CC/N=c2\nc(N3CCc4ccccc4C3)nc(N3CCC[NH2+]CC3)[nH]2)cc1

>  <Energy>  (62) 
73.68142630792696

>  <Genealogy>  (62) 
c1ccc(CCNc2nc(N3CCC[NH2+]CC3)nc(N3CCc4ccccc4C3)n2)cc1 (protonated)
c1ccc(CCN=c2nc(N3CCc4ccccc4C3)nc(N3CCC[NH2+]CC3)[nH]2)cc1 (tautomer)
c1ccc(CC/N=c2\nc(N3CCc4ccccc4C3)nc(N3CCC[NH2+]CC3)[nH]2)cc1 (cis-trans isomerization)
c1ccc(CC/N=c2\nc(N3CCc4ccccc4C3)nc(N3CCC[NH2+]CC3)[nH]2)cc1 (3D coordinates assigned)
c1ccc(CC/N=c2\nc(N3CCc4ccccc4C3)nc(N3CCC[NH2+]CC3)[nH]2)cc1 (nonaromatic ring conformer: 73.68142630792696 kcal/mol)

>  <smiles>  (62) 
c1ccc(CCNc2nc(N3CCCNCC3)nc(N3CCc4ccccc4C3)n2)cc1

>  <score_type>  (62) 
oracle

>  <origin>  (62) 
autodockgpu

>  <m_score__min__energy>  (62) 
-7.3499999999999996

>  <m_primary>  (62) 
energy

>  <meeko>  (62) 
{"free_energy": -5.73, "intermolecular_energy": -9.31, "internal_energy": -1.44, "cluster_size": 3, "cluster_id": 1, "rank_in_cluster": 3}

>  <energy>  (62) 
-6.2

>  <cluster_rmsd>  (62) 
1.13

>  <rmsd>  (62) 
271.02

>  <cluster>  (62) 
1

$$$$
IBHRIKXMMSCQIV-DXVXUIDUNA-O
     RDKit          3D

 64 68  0  0  0  0  0  0  0  0999 V2000
  143.6345   76.9054  218.4722 H   0  0  0  0  0  0  0  0  0  0  0  0
  143.6750   75.8470  218.7690 C   0  0  0  0  0  0  0  0  0  0  0  0
  143.9620   75.5030  220.0930 C   0  0  0  0  0  0  0  0  0  0  0  0
  144.1313   76.2910  220.8416 H   0  0  0  0  0  0  0  0  0  0  0  0
  144.0340   74.1570  220.4660 C   0  0  0  0  0  0  0  0  0  0  0  0
  144.2738   73.8889  221.5055 H   0  0  0  0  0  0  0  0  0  0  0  0
  143.8010   73.1440  219.5170 C   0  0  0  0  0  0  0  0  0  0  0  0
  143.8430   71.6960  219.9230 C   0  0  0  0  0  0  0  0  0  0  0  0
  144.8567   71.3073  219.7458 H   0  0  0  0  0  0  0  0  0  0  0  0
  143.5722   71.6350  220.9874 H   0  0  0  0  0  0  0  0  0  0  0  0
  142.8420   70.8450  219.1320 C   0  0  0  0  0  0  0  0  0  0  0  0
  143.1177   70.8610  218.0672 H   0  0  0  0  0  0  0  0  0  0  0  0
  142.8707   69.8163  219.5204 H   0  0  0  0  0  0  0  0  0  0  0  0
  141.4810   71.3650  219.2830 N   0  0  0  0  0  0  0  0  0  0  0  0
  141.0340   72.0240  220.3140 C   0  0  0  0  0  0  0  0  0  0  0  0
  140.6910   71.3790  221.4630 N   0  0  0  0  0  0  0  0  0  0  0  0
  140.2130   72.0680  222.5320 C   0  0  0  0  0  0  0  0  0  0  0  0
  139.8620   71.3850  223.7560 N   0  0  0  0  0  0  0  0  0  0  0  0
  140.5570   71.7420  225.0050 C   0  0  0  0  0  0  0  0  0  0  0  0
  140.1391   72.6876  225.3808 H   0  0  0  0  0  0  0  0  0  0  0  0
  141.6283   71.8306  224.7718 H   0  0  0  0  0  0  0  0  0  0  0  0
  140.4140   70.6910  226.0810 C   0  0  0  0  0  0  0  0  0  0  0  0
  141.0470   70.9020  227.3160 C   0  0  0  0  0  0  0  0  0  0  0  0
  141.6179   71.8266  227.4869 H   0  0  0  0  0  0  0  0  0  0  0  0
  140.9560   69.9430  228.3310 C   0  0  0  0  0  0  0  0  0  0  0  0
  141.4572   70.1140  229.2952 H   0  0  0  0  0  0  0  0  0  0  0  0
  140.2300   68.7700  228.1210 C   0  0  0  0  0  0  0  0  0  0  0  0
  140.1652   68.0143  228.9177 H   0  0  0  0  0  0  0  0  0  0  0  0
  139.5860   68.5540  226.9020 C   0  0  0  0  0  0  0  0  0  0  0  0
  139.0162   67.6269  226.7415 H   0  0  0  0  0  0  0  0  0  0  0  0
  139.6610   69.5140  225.8780 C   0  0  0  0  0  0  0  0  0  0  0  0
  139.0100   69.2350  224.5510 C   0  0  0  0  0  0  0  0  0  0  0  0
  138.0865   68.6608  224.7164 H   0  0  0  0  0  0  0  0  0  0  0  0
  139.7123   68.6614  223.9283 H   0  0  0  0  0  0  0  0  0  0  0  0
  138.6680   70.5340  223.8300 C   0  0  0  0  0  0  0  0  0  0  0  0
  137.8761   71.0615  224.3819 H   0  0  0  0  0  0  0  0  0  0  0  0
  138.3182   70.3059  222.8123 H   0  0  0  0  0  0  0  0  0  0  0  0
  140.0720   73.4170  222.4390 N   0  0  0  0  0  0  0  0  0  0  0  0
  140.4080   74.0690  221.2990 C   0  0  0  0  0  0  0  0  0  0  0  0
  140.2630   75.4910  221.2240 N   0  0  0  0  0  0  0  0  0  0  0  0
  139.6770   76.0710  220.0110 C   0  0  0  0  0  0  0  0  0  0  0  0
  139.1546   75.2823  219.4497 H   0  0  0  0  0  0  0  0  0  0  0  0
  138.9716   76.8629  220.3030 H   0  0  0  0  0  0  0  0  0  0  0  0
  140.7640   76.6830  219.1240 C   0  0  0  0  0  0  0  0  0  0  0  0
  141.6250   75.9990  219.0962 H   0  0  0  0  0  0  0  0  0  0  0  0
  140.3373   76.8310  218.1210 H   0  0  0  0  0  0  0  0  0  0  0  0
  141.2350   78.0500  219.6420 C   0  0  0  0  0  0  0  0  0  0  0  0
  141.9392   78.4790  218.9140 H   0  0  0  0  0  0  0  0  0  0  0  0
  140.3445   78.6835  219.7672 H   0  0  0  0  0  0  0  0  0  0  0  0
  141.9050   77.9600  220.9490 N   0  0  0  0  0  0  0  0  0  0  0  0
  142.5120   78.7980  221.1060 H   0  0  0  0  0  0  0  0  0  0  0  0
  142.5350   77.1270  220.9150 H   0  0  0  0  0  0  0  0  0  0  0  0
  140.9630   77.7680  222.0680 C   0  0  0  0  0  0  0  0  0  0  0  0
  141.3768   78.2514  222.9652 H   0  0  0  0  0  0  0  0  0  0  0  0
  140.0008   78.2149  221.7774 H   0  0  0  0  0  0  0  0  0  0  0  0
  140.7160   76.2810  222.3770 C   0  0  0  0  0  0  0  0  0  0  0  0
  141.6563   75.8449  222.7454 H   0  0  0  0  0  0  0  0  0  0  0  0
  139.9071   76.2441  223.1215 H   0  0  0  0  0  0  0  0  0  0  0  0
  140.8960   73.3740  220.2370 N   0  0  0  0  0  0  0  0  0  0  0  0
  141.1540   73.8810  219.3600 H   0  0  0  0  0  0  0  0  0  0  0  0
  143.4910   73.4970  218.1940 C   0  0  0  0  0  0  0  0  0  0  0  0
  143.2885   72.7126  217.4498 H   0  0  0  0  0  0  0  0  0  0  0  0
  143.4390   74.8440  217.8200 C   0  0  0  0  0  0  0  0  0  0  0  0
  143.2123   75.1161  216.7786 H   0  0  0  0  0  0  0  0  0  0  0  0
  1  2  1  0
  2  3  2  0
  3  4  1  0
  3  5  1  0
  5  6  1  0
  5  7  2  0
  7  8  1  0
  8  9  1  0
  8 10  1  0
  8 11  1  0
 11 12  1  0
 11 13  1  0
 11 14  1  0
 14 15  2  0
 15 16  1  0
 16 17  2  0
 17 18  1  0
 18 19  1  0
 19 20  1  0
 19 21  1  0
 19 22  1  0
 22 23  2  0
 23 24  1  0
 23 25  1  0
 25 26  1  0
 25 27  2  0
 27 28  1  0
 27 29  1  0
 29 30  1  0
 29 31  2  0
 31 32  1  0
 32 33  1  0
 32 34  1  0
 32 35  1  0
 35 36  1  0
 35 37  1  0
 17 38  1  0
 38 39  2  0
 39 40  1  0
 40 41  1  0
 41 42  1  0
 41 43  1  0
 41 44  1  0
 44 45  1  0
 44 46  1  0
 44 47  1  0
 47 48  1  0
 47 49  1  0
 47 50  1  0
 50 51  1  0
 50 52  1  0
 50 53  1  0
 53 54  1  0
 53 55  1  0
 53 56  1  0
 56 57  1  0
 56 58  1  0
 39 59  1  0
 59 60  1  0
  7 61  1  0
 61 62  1  0
 61 63  2  0
 63 64  1  0
 63  2  1  0
 59 15  1  0
 35 18  1  0
 56 40  1  0
 31 22  1  0
M  CHG  1  50   1
M  END
>  <UniqueID>  (63) 
712

>  <SMILES>  (63) 
c1ccc(CC/N=c2\nc(N3CCc4ccccc4C3)nc(N3CCC[NH2+]CC3)[nH]2)cc1

>  <Energy>  (63) 
73.68142630792696

>  <Genealogy>  (63) 
c1ccc(CCNc2nc(N3CCC[NH2+]CC3)nc(N3CCc4ccccc4C3)n2)cc1 (protonated)
c1ccc(CCN=c2nc(N3CCc4ccccc4C3)nc(N3CCC[NH2+]CC3)[nH]2)cc1 (tautomer)
c1ccc(CC/N=c2\nc(N3CCc4ccccc4C3)nc(N3CCC[NH2+]CC3)[nH]2)cc1 (cis-trans isomerization)
c1ccc(CC/N=c2\nc(N3CCc4ccccc4C3)nc(N3CCC[NH2+]CC3)[nH]2)cc1 (3D coordinates assigned)
c1ccc(CC/N=c2\nc(N3CCc4ccccc4C3)nc(N3CCC[NH2+]CC3)[nH]2)cc1 (nonaromatic ring conformer: 73.68142630792696 kcal/mol)

>  <smiles>  (63) 
c1ccc(CCNc2nc(N3CCCNCC3)nc(N3CCc4ccccc4C3)n2)cc1

>  <score_type>  (63) 
oracle

>  <origin>  (63) 
autodockgpu

>  <m_score__min__energy>  (63) 
-7.3499999999999996

>  <m_primary>  (63) 
energy

>  <meeko>  (63) 
{"free_energy": -6.17, "intermolecular_energy": -9.75, "internal_energy": -1.78, "cluster_size": 5, "cluster_id": 2, "rank_in_cluster": 3}

>  <energy>  (63) 
-5.73

>  <cluster_rmsd>  (63) 
1.63

>  <rmsd>  (63) 
270.45

>  <cluster>  (63) 
1

$$$$
IBHRIKXMMSCQIV-DXVXUIDUNA-O
     RDKit          3D

 64 68  0  0  0  0  0  0  0  0999 V2000
  134.1179   69.6747  227.2137 H   0  0  0  0  0  0  0  0  0  0  0  0
  134.3640   70.4630  226.4870 C   0  0  0  0  0  0  0  0  0  0  0  0
  133.9190   71.7710  226.6970 C   0  0  0  0  0  0  0  0  0  0  0  0
  133.3359   72.0157  227.5971 H   0  0  0  0  0  0  0  0  0  0  0  0
  134.2150   72.7690  225.7630 C   0  0  0  0  0  0  0  0  0  0  0  0
  133.8520   73.7948  225.9243 H   0  0  0  0  0  0  0  0  0  0  0  0
  134.9750   72.4670  224.6180 C   0  0  0  0  0  0  0  0  0  0  0  0
  135.3240   73.5460  223.6290 C   0  0  0  0  0  0  0  0  0  0  0  0
  134.8259   74.4790  223.9314 H   0  0  0  0  0  0  0  0  0  0  0  0
  136.4180   73.6608  223.6249 H   0  0  0  0  0  0  0  0  0  0  0  0
  134.8810   73.1880  222.2040 C   0  0  0  0  0  0  0  0  0  0  0  0
  134.1624   72.3563  222.2482 H   0  0  0  0  0  0  0  0  0  0  0  0
  134.4150   74.0735  221.7472 H   0  0  0  0  0  0  0  0  0  0  0  0
  136.0280   72.7880  221.3870 N   0  0  0  0  0  0  0  0  0  0  0  0
  137.2790   72.9230  221.7230 C   0  0  0  0  0  0  0  0  0  0  0  0
  137.8390   72.1290  222.6780 N   0  0  0  0  0  0  0  0  0  0  0  0
  139.1410   72.2820  223.0340 C   0  0  0  0  0  0  0  0  0  0  0  0
  139.7380   71.4300  224.0380 N   0  0  0  0  0  0  0  0  0  0  0  0
  139.3120   70.0240  224.1350 C   0  0  0  0  0  0  0  0  0  0  0  0
  139.7939   69.4550  223.3263 H   0  0  0  0  0  0  0  0  0  0  0  0
  138.2153   70.0057  224.0524 H   0  0  0  0  0  0  0  0  0  0  0  0
  139.6770   69.3870  225.4560 C   0  0  0  0  0  0  0  0  0  0  0  0
  139.3100   68.0510  225.6830 C   0  0  0  0  0  0  0  0  0  0  0  0
  138.7835   67.4877  224.8985 H   0  0  0  0  0  0  0  0  0  0  0  0
  139.6100   67.4320  226.9010 C   0  0  0  0  0  0  0  0  0  0  0  0
  139.3148   66.3865  227.0734 H   0  0  0  0  0  0  0  0  0  0  0  0
  140.2830   68.1390  227.8970 C   0  0  0  0  0  0  0  0  0  0  0  0
  140.5140   67.6514  228.8556 H   0  0  0  0  0  0  0  0  0  0  0  0
  140.6640   69.4640  227.6800 C   0  0  0  0  0  0  0  0  0  0  0  0
  141.1919   70.0177  228.4704 H   0  0  0  0  0  0  0  0  0  0  0  0
  140.3770   70.0950  226.4570 C   0  0  0  0  0  0  0  0  0  0  0  0
  140.7430   71.5410  226.2640 C   0  0  0  0  0  0  0  0  0  0  0  0
  141.6829   71.7488  226.7963 H   0  0  0  0  0  0  0  0  0  0  0  0
  139.9298   72.1656  226.6623 H   0  0  0  0  0  0  0  0  0  0  0  0
  140.9250   71.8630  224.7860 C   0  0  0  0  0  0  0  0  0  0  0  0
  141.8114   71.3362  224.4030 H   0  0  0  0  0  0  0  0  0  0  0  0
  141.0593   72.9477  224.6622 H   0  0  0  0  0  0  0  0  0  0  0  0
  139.8830   73.2460  222.4290 N   0  0  0  0  0  0  0  0  0  0  0  0
  139.3360   74.0430  221.4780 C   0  0  0  0  0  0  0  0  0  0  0  0
  140.1370   75.0460  220.8440 N   0  0  0  0  0  0  0  0  0  0  0  0
  139.4600   76.1840  220.2120 C   0  0  0  0  0  0  0  0  0  0  0  0
  139.6647   76.1712  219.1313 H   0  0  0  0  0  0  0  0  0  0  0  0
  138.3789   76.0994  220.3966 H   0  0  0  0  0  0  0  0  0  0  0  0
  139.9580   77.5050  220.8020 C   0  0  0  0  0  0  0  0  0  0  0  0
  139.1734   78.2657  220.6765 H   0  0  0  0  0  0  0  0  0  0  0  0
  140.1867   77.3322  221.8640 H   0  0  0  0  0  0  0  0  0  0  0  0
  141.2410   78.0040  220.1230 C   0  0  0  0  0  0  0  0  0  0  0  0
  141.1028   77.9595  219.0326 H   0  0  0  0  0  0  0  0  0  0  0  0
  141.4218   79.0330  220.4671 H   0  0  0  0  0  0  0  0  0  0  0  0
  142.4200   77.2000  220.4820 N   0  0  0  0  0  0  0  0  0  0  0  0
  142.5570   77.1970  221.5190 H   0  0  0  0  0  0  0  0  0  0  0  0
  143.2530   77.6730  220.0640 H   0  0  0  0  0  0  0  0  0  0  0  0
  142.3660   75.8270  219.9470 C   0  0  0  0  0  0  0  0  0  0  0  0
  141.8686   75.8495  218.9662 H   0  0  0  0  0  0  0  0  0  0  0  0
  143.3990   75.4576  219.8671 H   0  0  0  0  0  0  0  0  0  0  0  0
  141.5950   74.8670  220.8700 C   0  0  0  0  0  0  0  0  0  0  0  0
  141.8213   73.8358  220.5612 H   0  0  0  0  0  0  0  0  0  0  0  0
  141.9217   75.0863  221.8972 H   0  0  0  0  0  0  0  0  0  0  0  0
  138.0360   73.8780  221.1190 N   0  0  0  0  0  0  0  0  0  0  0  0
  137.6180   74.4950  220.3860 H   0  0  0  0  0  0  0  0  0  0  0  0
  135.4380   71.1550  224.4240 C   0  0  0  0  0  0  0  0  0  0  0  0
  136.0488   70.9133  223.5417 H   0  0  0  0  0  0  0  0  0  0  0  0
  135.1240   70.1560  225.3500 C   0  0  0  0  0  0  0  0  0  0  0  0
  135.4743   69.1262  225.1859 H   0  0  0  0  0  0  0  0  0  0  0  0
  1  2  1  0
  2  3  2  0
  3  4  1  0
  3  5  1  0
  5  6  1  0
  5  7  2  0
  7  8  1  0
  8  9  1  0
  8 10  1  0
  8 11  1  0
 11 12  1  0
 11 13  1  0
 11 14  1  0
 14 15  2  0
 15 16  1  0
 16 17  2  0
 17 18  1  0
 18 19  1  0
 19 20  1  0
 19 21  1  0
 19 22  1  0
 22 23  2  0
 23 24  1  0
 23 25  1  0
 25 26  1  0
 25 27  2  0
 27 28  1  0
 27 29  1  0
 29 30  1  0
 29 31  2  0
 31 32  1  0
 32 33  1  0
 32 34  1  0
 32 35  1  0
 35 36  1  0
 35 37  1  0
 17 38  1  0
 38 39  2  0
 39 40  1  0
 40 41  1  0
 41 42  1  0
 41 43  1  0
 41 44  1  0
 44 45  1  0
 44 46  1  0
 44 47  1  0
 47 48  1  0
 47 49  1  0
 47 50  1  0
 50 51  1  0
 50 52  1  0
 50 53  1  0
 53 54  1  0
 53 55  1  0
 53 56  1  0
 56 57  1  0
 56 58  1  0
 39 59  1  0
 59 60  1  0
  7 61  1  0
 61 62  1  0
 61 63  2  0
 63 64  1  0
 63  2  1  0
 59 15  1  0
 35 18  1  0
 56 40  1  0
 31 22  1  0
M  CHG  1  50   1
M  END
>  <UniqueID>  (64) 
712

>  <SMILES>  (64) 
c1ccc(CC/N=c2\nc(N3CCc4ccccc4C3)nc(N3CCC[NH2+]CC3)[nH]2)cc1

>  <Energy>  (64) 
73.68142630792696

>  <Genealogy>  (64) 
c1ccc(CCNc2nc(N3CCC[NH2+]CC3)nc(N3CCc4ccccc4C3)n2)cc1 (protonated)
c1ccc(CCN=c2nc(N3CCc4ccccc4C3)nc(N3CCC[NH2+]CC3)[nH]2)cc1 (tautomer)
c1ccc(CC/N=c2\nc(N3CCc4ccccc4C3)nc(N3CCC[NH2+]CC3)[nH]2)cc1 (cis-trans isomerization)
c1ccc(CC/N=c2\nc(N3CCc4ccccc4C3)nc(N3CCC[NH2+]CC3)[nH]2)cc1 (3D coordinates assigned)
c1ccc(CC/N=c2\nc(N3CCc4ccccc4C3)nc(N3CCC[NH2+]CC3)[nH]2)cc1 (nonaromatic ring conformer: 73.68142630792696 kcal/mol)

>  <smiles>  (64) 
c1ccc(CCNc2nc(N3CCCNCC3)nc(N3CCc4ccccc4C3)n2)cc1

>  <score_type>  (64) 
oracle

>  <origin>  (64) 
autodockgpu

>  <m_score__min__energy>  (64) 
-7.3499999999999996

>  <m_primary>  (64) 
energy

>  <meeko>  (64) 
{"free_energy": -6.08, "intermolecular_energy": -9.66, "internal_energy": -1.47, "cluster_size": 1, "cluster_id": 5, "rank_in_cluster": 1}

>  <energy>  (64) 
-7.12

>  <cluster_rmsd>  (64) 
0.0

>  <rmsd>  (64) 
270.66

>  <cluster>  (64) 
2

$$$$
IBHRIKXMMSCQIV-DXVXUIDUNA-O
     RDKit          3D

 64 68  0  0  0  0  0  0  0  0999 V2000
  141.0030   70.4306  229.3300 H   0  0  0  0  0  0  0  0  0  0  0  0
  140.7490   70.5260  228.2640 C   0  0  0  0  0  0  0  0  0  0  0  0
  141.1740   71.6440  227.5420 C   0  0  0  0  0  0  0  0  0  0  0  0
  141.7753   72.4215  228.0359 H   0  0  0  0  0  0  0  0  0  0  0  0
  140.8350   71.7750  226.1910 C   0  0  0  0  0  0  0  0  0  0  0  0
  141.1600   72.6628  225.6286 H   0  0  0  0  0  0  0  0  0  0  0  0
  140.0800   70.7760  225.5480 C   0  0  0  0  0  0  0  0  0  0  0  0
  139.7430   70.8970  224.0880 C   0  0  0  0  0  0  0  0  0  0  0  0
  139.7900   69.8984  223.6292 H   0  0  0  0  0  0  0  0  0  0  0  0
  138.7333   71.3260  224.0079 H   0  0  0  0  0  0  0  0  0  0  0  0
  140.7120   71.8280  223.3470 C   0  0  0  0  0  0  0  0  0  0  0  0
  141.0613   72.6087  224.0387 H   0  0  0  0  0  0  0  0  0  0  0  0
  141.5608   71.2322  222.9802 H   0  0  0  0  0  0  0  0  0  0  0  0
  140.0550   72.4610  222.2020 N   0  0  0  0  0  0  0  0  0  0  0  0
  139.2500   73.4830  222.2630 C   0  0  0  0  0  0  0  0  0  0  0  0
  139.7340   74.7540  222.3390 N   0  0  0  0  0  0  0  0  0  0  0  0
  138.8900   75.8170  222.4160 C   0  0  0  0  0  0  0  0  0  0  0  0
  139.4050   77.1660  222.4830 N   0  0  0  0  0  0  0  0  0  0  0  0
  140.8540   77.3910  222.3540 C   0  0  0  0  0  0  0  0  0  0  0  0
  141.1282   77.3103  221.2918 H   0  0  0  0  0  0  0  0  0  0  0  0
  141.3611   76.6317  222.9675 H   0  0  0  0  0  0  0  0  0  0  0  0
  141.2880   78.7470  222.8620 C   0  0  0  0  0  0  0  0  0  0  0  0
  142.6510   79.0790  222.8130 C   0  0  0  0  0  0  0  0  0  0  0  0
  143.3736   78.3627  222.3949 H   0  0  0  0  0  0  0  0  0  0  0  0
  143.0960   80.3160  223.2930 C   0  0  0  0  0  0  0  0  0  0  0  0
  144.1659   80.5684  223.2539 H   0  0  0  0  0  0  0  0  0  0  0  0
  142.1830   81.2290  223.8210 C   0  0  0  0  0  0  0  0  0  0  0  0
  142.5353   82.1980  224.2044 H   0  0  0  0  0  0  0  0  0  0  0  0
  140.8240   80.9160  223.8640 C   0  0  0  0  0  0  0  0  0  0  0  0
  140.1093   81.6399  224.2825 H   0  0  0  0  0  0  0  0  0  0  0  0
  140.3630   79.6820  223.3760 C   0  0  0  0  0  0  0  0  0  0  0  0
  138.9030   79.3380  223.4870 C   0  0  0  0  0  0  0  0  0  0  0  0
  138.3063   80.2525  223.3541 H   0  0  0  0  0  0  0  0  0  0  0  0
  138.7193   78.9004  224.4794 H   0  0  0  0  0  0  0  0  0  0  0  0
  138.5020   78.3220  222.4250 C   0  0  0  0  0  0  0  0  0  0  0  0
  138.5666   78.7873  221.4304 H   0  0  0  0  0  0  0  0  0  0  0  0
  137.4700   77.9889  222.6096 H   0  0  0  0  0  0  0  0  0  0  0  0
  137.5500   75.5970  222.4220 N   0  0  0  0  0  0  0  0  0  0  0  0
  137.0560   74.3360  222.3480 C   0  0  0  0  0  0  0  0  0  0  0  0
  135.6410   74.1250  222.3450 N   0  0  0  0  0  0  0  0  0  0  0  0
  134.9400   74.1080  221.0560 C   0  0  0  0  0  0  0  0  0  0  0  0
  135.6705   73.9453  220.2498 H   0  0  0  0  0  0  0  0  0  0  0  0
  134.1976   73.2964  221.0678 H   0  0  0  0  0  0  0  0  0  0  0  0
  134.2150   75.4350  220.8170 C   0  0  0  0  0  0  0  0  0  0  0  0
  134.9632   76.2182  220.6253 H   0  0  0  0  0  0  0  0  0  0  0  0
  133.5442   75.3035  219.9552 H   0  0  0  0  0  0  0  0  0  0  0  0
  133.3600   75.8520  222.0210 C   0  0  0  0  0  0  0  0  0  0  0  0
  132.7189   76.6946  221.7225 H   0  0  0  0  0  0  0  0  0  0  0  0
  132.7663   74.9776  222.3260 H   0  0  0  0  0  0  0  0  0  0  0  0
  134.1710   76.2640  223.1770 N   0  0  0  0  0  0  0  0  0  0  0  0
  133.7910   77.1450  223.5940 H   0  0  0  0  0  0  0  0  0  0  0  0
  135.1280   76.4820  222.8190 H   0  0  0  0  0  0  0  0  0  0  0  0
  134.3020   75.2050  224.1960 C   0  0  0  0  0  0  0  0  0  0  0  0
  134.9048   75.5911  225.0312 H   0  0  0  0  0  0  0  0  0  0  0  0
  133.2891   74.9282  224.5239 H   0  0  0  0  0  0  0  0  0  0  0  0
  134.9780   73.9390  223.6430 C   0  0  0  0  0  0  0  0  0  0  0  0
  135.7326   73.6057  224.3706 H   0  0  0  0  0  0  0  0  0  0  0  0
  134.1795   73.1990  223.4855 H   0  0  0  0  0  0  0  0  0  0  0  0
  137.9060   73.2780  222.2620 N   0  0  0  0  0  0  0  0  0  0  0  0
  137.5210   72.3080  222.2050 H   0  0  0  0  0  0  0  0  0  0  0  0
  139.6750   69.6440  226.2740 C   0  0  0  0  0  0  0  0  0  0  0  0
  139.1018   68.8484  225.7755 H   0  0  0  0  0  0  0  0  0  0  0  0
  139.9990   69.5260  227.6300 C   0  0  0  0  0  0  0  0  0  0  0  0
  139.6644   68.6465  228.1997 H   0  0  0  0  0  0  0  0  0  0  0  0
  1  2  1  0
  2  3  2  0
  3  4  1  0
  3  5  1  0
  5  6  1  0
  5  7  2  0
  7  8  1  0
  8  9  1  0
  8 10  1  0
  8 11  1  0
 11 12  1  0
 11 13  1  0
 11 14  1  0
 14 15  2  0
 15 16  1  0
 16 17  2  0
 17 18  1  0
 18 19  1  0
 19 20  1  0
 19 21  1  0
 19 22  1  0
 22 23  2  0
 23 24  1  0
 23 25  1  0
 25 26  1  0
 25 27  2  0
 27 28  1  0
 27 29  1  0
 29 30  1  0
 29 31  2  0
 31 32  1  0
 32 33  1  0
 32 34  1  0
 32 35  1  0
 35 36  1  0
 35 37  1  0
 17 38  1  0
 38 39  2  0
 39 40  1  0
 40 41  1  0
 41 42  1  0
 41 43  1  0
 41 44  1  0
 44 45  1  0
 44 46  1  0
 44 47  1  0
 47 48  1  0
 47 49  1  0
 47 50  1  0
 50 51  1  0
 50 52  1  0
 50 53  1  0
 53 54  1  0
 53 55  1  0
 53 56  1  0
 56 57  1  0
 56 58  1  0
 39 59  1  0
 59 60  1  0
  7 61  1  0
 61 62  1  0
 61 63  2  0
 63 64  1  0
 63  2  1  0
 59 15  1  0
 35 18  1  0
 56 40  1  0
 31 22  1  0
M  CHG  1  50   1
M  END
>  <UniqueID>  (65) 
712

>  <SMILES>  (65) 
c1ccc(CC/N=c2\nc(N3CCc4ccccc4C3)nc(N3CCC[NH2+]CC3)[nH]2)cc1

>  <Energy>  (65) 
73.68142630792696

>  <Genealogy>  (65) 
c1ccc(CCNc2nc(N3CCC[NH2+]CC3)nc(N3CCc4ccccc4C3)n2)cc1 (protonated)
c1ccc(CCN=c2nc(N3CCc4ccccc4C3)nc(N3CCC[NH2+]CC3)[nH]2)cc1 (tautomer)
c1ccc(CC/N=c2\nc(N3CCc4ccccc4C3)nc(N3CCC[NH2+]CC3)[nH]2)cc1 (cis-trans isomerization)
c1ccc(CC/N=c2\nc(N3CCc4ccccc4C3)nc(N3CCC[NH2+]CC3)[nH]2)cc1 (3D coordinates assigned)
c1ccc(CC/N=c2\nc(N3CCc4ccccc4C3)nc(N3CCC[NH2+]CC3)[nH]2)cc1 (nonaromatic ring conformer: 73.68142630792696 kcal/mol)

>  <smiles>  (65) 
c1ccc(CCNc2nc(N3CCCNCC3)nc(N3CCc4ccccc4C3)n2)cc1

>  <score_type>  (65) 
oracle

>  <origin>  (65) 
autodockgpu

>  <m_score__min__energy>  (65) 
-7.3499999999999996

>  <m_primary>  (65) 
energy

>  <meeko>  (65) 
{"free_energy": -6.15, "intermolecular_energy": -9.73, "internal_energy": -1.28, "cluster_size": 2, "cluster_id": 4, "rank_in_cluster": 2}

>  <energy>  (65) 
-6.24

>  <cluster_rmsd>  (65) 
1.53

>  <rmsd>  (65) 
270.43

>  <cluster>  (65) 
2

$$$$
IBHRIKXMMSCQIV-DXVXUIDUNA-O
     RDKit          3D

 64 68  0  0  0  0  0  0  0  0999 V2000
  144.0951   80.2591  222.4013 H   0  0  0  0  0  0  0  0  0  0  0  0
  143.0370   80.2040  222.6970 C   0  0  0  0  0  0  0  0  0  0  0  0
  142.5680   79.0980  223.4090 C   0  0  0  0  0  0  0  0  0  0  0  0
  143.2600   78.2896  223.6876 H   0  0  0  0  0  0  0  0  0  0  0  0
  141.2180   79.0180  223.7680 C   0  0  0  0  0  0  0  0  0  0  0  0
  140.8484   78.1392  224.3168 H   0  0  0  0  0  0  0  0  0  0  0  0
  140.3310   80.0570  223.4300 C   0  0  0  0  0  0  0  0  0  0  0  0
  138.8870   79.9900  223.8450 C   0  0  0  0  0  0  0  0  0  0  0  0
  138.7935   79.2954  224.6928 H   0  0  0  0  0  0  0  0  0  0  0  0
  138.5672   81.0050  224.1234 H   0  0  0  0  0  0  0  0  0  0  0  0
  137.9810   79.5050  222.7060 C   0  0  0  0  0  0  0  0  0  0  0  0
  136.9824   79.9506  222.8253 H   0  0  0  0  0  0  0  0  0  0  0  0
  138.4259   79.8114  221.7478 H   0  0  0  0  0  0  0  0  0  0  0  0
  137.8600   78.0450  222.7210 N   0  0  0  0  0  0  0  0  0  0  0  0
  138.6940   77.2120  222.1680 C   0  0  0  0  0  0  0  0  0  0  0  0
  138.6510   75.8810  222.4580 N   0  0  0  0  0  0  0  0  0  0  0  0
  139.5320   75.0170  221.8890 C   0  0  0  0  0  0  0  0  0  0  0  0
  139.4780   73.6030  222.1860 N   0  0  0  0  0  0  0  0  0  0  0  0
  138.1700   72.9270  222.2310 C   0  0  0  0  0  0  0  0  0  0  0  0
  137.8304   72.7508  221.1997 H   0  0  0  0  0  0  0  0  0  0  0  0
  137.4794   73.5811  222.7836 H   0  0  0  0  0  0  0  0  0  0  0  0
  138.2170   71.6020  222.9560 C   0  0  0  0  0  0  0  0  0  0  0  0
  137.0310   70.8630  223.0860 C   0  0  0  0  0  0  0  0  0  0  0  0
  136.0978   71.2466  222.6477 H   0  0  0  0  0  0  0  0  0  0  0  0
  137.0270   69.6420  223.7690 C   0  0  0  0  0  0  0  0  0  0  0  0
  136.0920   69.0714  223.8700 H   0  0  0  0  0  0  0  0  0  0  0  0
  138.2090   69.1480  224.3220 C   0  0  0  0  0  0  0  0  0  0  0  0
  138.2035   68.1907  224.8638 H   0  0  0  0  0  0  0  0  0  0  0  0
  139.3980   69.8660  224.1890 C   0  0  0  0  0  0  0  0  0  0  0  0
  140.3263   69.4723  224.6286 H   0  0  0  0  0  0  0  0  0  0  0  0
  139.4170   71.0890  223.4970 C   0  0  0  0  0  0  0  0  0  0  0  0
  140.6960   71.8770  223.4170 C   0  0  0  0  0  0  0  0  0  0  0  0
  141.5447   71.1805  223.3484 H   0  0  0  0  0  0  0  0  0  0  0  0
  140.7828   72.4997  224.3196 H   0  0  0  0  0  0  0  0  0  0  0  0
  140.6970   72.7870  222.1950 C   0  0  0  0  0  0  0  0  0  0  0  0
  140.7335   72.1739  221.2824 H   0  0  0  0  0  0  0  0  0  0  0  0
  141.5768   73.4463  222.2321 H   0  0  0  0  0  0  0  0  0  0  0  0
  140.4660   75.4970  221.0260 N   0  0  0  0  0  0  0  0  0  0  0  0
  140.5180   76.8200  220.7320 C   0  0  0  0  0  0  0  0  0  0  0  0
  141.5020   77.3040  219.8130 N   0  0  0  0  0  0  0  0  0  0  0  0
  142.5350   76.3760  219.3390 C   0  0  0  0  0  0  0  0  0  0  0  0
  143.5224   76.7417  219.6573 H   0  0  0  0  0  0  0  0  0  0  0  0
  142.3402   75.3815  219.7668 H   0  0  0  0  0  0  0  0  0  0  0  0
  142.5070   76.2690  217.8130 C   0  0  0  0  0  0  0  0  0  0  0  0
  142.9275   75.2959  217.5193 H   0  0  0  0  0  0  0  0  0  0  0  0
  141.4608   76.3702  217.4887 H   0  0  0  0  0  0  0  0  0  0  0  0
  143.3170   77.3810  217.1340 C   0  0  0  0  0  0  0  0  0  0  0  0
  144.3053   77.4395  217.6134 H   0  0  0  0  0  0  0  0  0  0  0  0
  143.3975   77.1293  216.0662 H   0  0  0  0  0  0  0  0  0  0  0  0
  142.6670   78.6970  217.2330 N   0  0  0  0  0  0  0  0  0  0  0  0
  141.7080   78.6630  216.8170 H   0  0  0  0  0  0  0  0  0  0  0  0
  143.2290   79.3620  216.6550 H   0  0  0  0  0  0  0  0  0  0  0  0
  142.6300   79.2200  218.6120 C   0  0  0  0  0  0  0  0  0  0  0  0
  143.5449   78.9036  219.1343 H   0  0  0  0  0  0  0  0  0  0  0  0
  142.5577   80.3160  218.5528 H   0  0  0  0  0  0  0  0  0  0  0  0
  141.4110   78.7120  219.4000 C   0  0  0  0  0  0  0  0  0  0  0  0
  141.3029   79.3299  220.3036 H   0  0  0  0  0  0  0  0  0  0  0  0
  140.5457   78.7872  218.7250 H   0  0  0  0  0  0  0  0  0  0  0  0
  139.6280   77.6770  221.2970 N   0  0  0  0  0  0  0  0  0  0  0  0
  139.6730   78.6960  221.0670 H   0  0  0  0  0  0  0  0  0  0  0  0
  140.8140   81.1770  222.7330 C   0  0  0  0  0  0  0  0  0  0  0  0
  140.1324   82.0027  222.4810 H   0  0  0  0  0  0  0  0  0  0  0  0
  142.1600   81.2440  222.3590 C   0  0  0  0  0  0  0  0  0  0  0  0
  142.5312   82.1146  221.7984 H   0  0  0  0  0  0  0  0  0  0  0  0
  1  2  1  0
  2  3  2  0
  3  4  1  0
  3  5  1  0
  5  6  1  0
  5  7  2  0
  7  8  1  0
  8  9  1  0
  8 10  1  0
  8 11  1  0
 11 12  1  0
 11 13  1  0
 11 14  1  0
 14 15  2  0
 15 16  1  0
 16 17  2  0
 17 18  1  0
 18 19  1  0
 19 20  1  0
 19 21  1  0
 19 22  1  0
 22 23  2  0
 23 24  1  0
 23 25  1  0
 25 26  1  0
 25 27  2  0
 27 28  1  0
 27 29  1  0
 29 30  1  0
 29 31  2  0
 31 32  1  0
 32 33  1  0
 32 34  1  0
 32 35  1  0
 35 36  1  0
 35 37  1  0
 17 38  1  0
 38 39  2  0
 39 40  1  0
 40 41  1  0
 41 42  1  0
 41 43  1  0
 41 44  1  0
 44 45  1  0
 44 46  1  0
 44 47  1  0
 47 48  1  0
 47 49  1  0
 47 50  1  0
 50 51  1  0
 50 52  1  0
 50 53  1  0
 53 54  1  0
 53 55  1  0
 53 56  1  0
 56 57  1  0
 56 58  1  0
 39 59  1  0
 59 60  1  0
  7 61  1  0
 61 62  1  0
 61 63  2  0
 63 64  1  0
 63  2  1  0
 59 15  1  0
 35 18  1  0
 56 40  1  0
 31 22  1  0
M  CHG  1  50   1
M  END
>  <UniqueID>  (66) 
712

>  <SMILES>  (66) 
c1ccc(CC/N=c2\nc(N3CCc4ccccc4C3)nc(N3CCC[NH2+]CC3)[nH]2)cc1

>  <Energy>  (66) 
73.68142630792696

>  <Genealogy>  (66) 
c1ccc(CCNc2nc(N3CCC[NH2+]CC3)nc(N3CCc4ccccc4C3)n2)cc1 (protonated)
c1ccc(CCN=c2nc(N3CCc4ccccc4C3)nc(N3CCC[NH2+]CC3)[nH]2)cc1 (tautomer)
c1ccc(CC/N=c2\nc(N3CCc4ccccc4C3)nc(N3CCC[NH2+]CC3)[nH]2)cc1 (cis-trans isomerization)
c1ccc(CC/N=c2\nc(N3CCc4ccccc4C3)nc(N3CCC[NH2+]CC3)[nH]2)cc1 (3D coordinates assigned)
c1ccc(CC/N=c2\nc(N3CCc4ccccc4C3)nc(N3CCC[NH2+]CC3)[nH]2)cc1 (nonaromatic ring conformer: 73.68142630792696 kcal/mol)

>  <smiles>  (66) 
c1ccc(CCNc2nc(N3CCCNCC3)nc(N3CCc4ccccc4C3)n2)cc1

>  <score_type>  (66) 
oracle

>  <origin>  (66) 
autodockgpu

>  <m_score__min__energy>  (66) 
-7.3499999999999996

>  <m_primary>  (66) 
energy

>  <meeko>  (66) 
{"free_energy": -5.82, "intermolecular_energy": -9.4, "internal_energy": -1.6, "cluster_size": 1, "cluster_id": 6, "rank_in_cluster": 1}

>  <energy>  (66) 
-6.17

>  <cluster_rmsd>  (66) 
1.13

>  <rmsd>  (66) 
270.38

>  <cluster>  (66) 
2

$$$$
IBHRIKXMMSCQIV-DXVXUIDUNA-O
     RDKit          3D

 64 68  0  0  0  0  0  0  0  0999 V2000
  143.6091   79.1379  223.3334 H   0  0  0  0  0  0  0  0  0  0  0  0
  142.5910   79.5500  223.2720 C   0  0  0  0  0  0  0  0  0  0  0  0
  142.3630   80.7500  222.5950 C   0  0  0  0  0  0  0  0  0  0  0  0
  143.1993   81.2749  222.1101 H   0  0  0  0  0  0  0  0  0  0  0  0
  141.0720   81.2850  222.5330 C   0  0  0  0  0  0  0  0  0  0  0  0
  140.8978   82.2372  222.0105 H   0  0  0  0  0  0  0  0  0  0  0  0
  139.9950   80.6090  223.1370 C   0  0  0  0  0  0  0  0  0  0  0  0
  138.6000   81.1640  223.0430 C   0  0  0  0  0  0  0  0  0  0  0  0
  138.3118   81.5675  224.0249 H   0  0  0  0  0  0  0  0  0  0  0  0
  138.5989   81.9496  222.2730 H   0  0  0  0  0  0  0  0  0  0  0  0
  137.5810   80.0950  222.6290 C   0  0  0  0  0  0  0  0  0  0  0  0
  137.7284   79.1977  223.2480 H   0  0  0  0  0  0  0  0  0  0  0  0
  136.5682   80.4990  222.7743 H   0  0  0  0  0  0  0  0  0  0  0  0
  137.7450   79.7370  221.2180 N   0  0  0  0  0  0  0  0  0  0  0  0
  138.8700   79.4160  220.6460 C   0  0  0  0  0  0  0  0  0  0  0  0
  139.5140   78.2590  220.9650 N   0  0  0  0  0  0  0  0  0  0  0  0
  140.6940   77.9340  220.3750 C   0  0  0  0  0  0  0  0  0  0  0  0
  141.3710   76.7000  220.7040 N   0  0  0  0  0  0  0  0  0  0  0  0
  142.6770   76.4090  220.0900 C   0  0  0  0  0  0  0  0  0  0  0  0
  143.4470   77.0008  220.6067 H   0  0  0  0  0  0  0  0  0  0  0  0
  142.6051   76.6703  219.0239 H   0  0  0  0  0  0  0  0  0  0  0  0
  143.0560   74.9480  220.1730 C   0  0  0  0  0  0  0  0  0  0  0  0
  144.2720   74.5350  219.6060 C   0  0  0  0  0  0  0  0  0  0  0  0
  144.9324   75.2747  219.1298 H   0  0  0  0  0  0  0  0  0  0  0  0
  144.6490   73.1880  219.6430 C   0  0  0  0  0  0  0  0  0  0  0  0
  145.6016   72.8710  219.1934 H   0  0  0  0  0  0  0  0  0  0  0  0
  143.8170   72.2470  220.2500 C   0  0  0  0  0  0  0  0  0  0  0  0
  144.1121   71.1876  220.2728 H   0  0  0  0  0  0  0  0  0  0  0  0
  142.6120   72.6460  220.8280 C   0  0  0  0  0  0  0  0  0  0  0  0
  141.9600   71.8987  221.3039 H   0  0  0  0  0  0  0  0  0  0  0  0
  142.2260   73.9970  220.8060 C   0  0  0  0  0  0  0  0  0  0  0  0
  140.8950   74.3990  221.3820 C   0  0  0  0  0  0  0  0  0  0  0  0
  140.6739   73.7662  222.2541 H   0  0  0  0  0  0  0  0  0  0  0  0
  140.1236   74.2698  220.6086 H   0  0  0  0  0  0  0  0  0  0  0  0
  140.9100   75.8590  221.8160 C   0  0  0  0  0  0  0  0  0  0  0  0
  141.5902   75.9792  222.6721 H   0  0  0  0  0  0  0  0  0  0  0  0
  139.8938   76.1636  222.1068 H   0  0  0  0  0  0  0  0  0  0  0  0
  141.2330   78.7830  219.4620 N   0  0  0  0  0  0  0  0  0  0  0  0
  140.6010   79.9390  219.1380 C   0  0  0  0  0  0  0  0  0  0  0  0
  141.1780   80.8160  218.1650 N   0  0  0  0  0  0  0  0  0  0  0  0
  142.2980   81.6710  218.5720 C   0  0  0  0  0  0  0  0  0  0  0  0
  141.9280   82.6920  218.7469 H   0  0  0  0  0  0  0  0  0  0  0  0
  142.7388   81.2620  219.4931 H   0  0  0  0  0  0  0  0  0  0  0  0
  143.3750   81.7060  217.4840 C   0  0  0  0  0  0  0  0  0  0  0  0
  144.1674   82.4034  217.7935 H   0  0  0  0  0  0  0  0  0  0  0  0
  143.7628   80.6838  217.3626 H   0  0  0  0  0  0  0  0  0  0  0  0
  142.8200   82.1610  216.1260 C   0  0  0  0  0  0  0  0  0  0  0  0
  141.8908   82.7245  216.2964 H   0  0  0  0  0  0  0  0  0  0  0  0
  143.5892   82.7820  215.6435 H   0  0  0  0  0  0  0  0  0  0  0  0
  142.5290   81.0340  215.2260 N   0  0  0  0  0  0  0  0  0  0  0  0
  143.4070   80.5140  214.9960 H   0  0  0  0  0  0  0  0  0  0  0  0
  142.1700   81.4400  214.3320 H   0  0  0  0  0  0  0  0  0  0  0  0
  141.4950   80.1250  215.7550 C   0  0  0  0  0  0  0  0  0  0  0  0
  140.8605   79.7887  214.9218 H   0  0  0  0  0  0  0  0  0  0  0  0
  142.0069   79.2799  216.2385 H   0  0  0  0  0  0  0  0  0  0  0  0
  140.6050   80.8010  216.8120 C   0  0  0  0  0  0  0  0  0  0  0  0
  140.4299   81.8413  216.5005 H   0  0  0  0  0  0  0  0  0  0  0  0
  139.6790   80.2100  216.8686 H   0  0  0  0  0  0  0  0  0  0  0  0
  139.4150   80.2530  219.7240 N   0  0  0  0  0  0  0  0  0  0  0  0
  138.9320   81.1450  219.4710 H   0  0  0  0  0  0  0  0  0  0  0  0
  140.2280   79.3920  223.7970 C   0  0  0  0  0  0  0  0  0  0  0  0
  139.3896   78.8471  224.2554 H   0  0  0  0  0  0  0  0  0  0  0  0
  141.5230   78.8710  223.8730 C   0  0  0  0  0  0  0  0  0  0  0  0
  141.7039   77.9258  224.4059 H   0  0  0  0  0  0  0  0  0  0  0  0
  1  2  1  0
  2  3  2  0
  3  4  1  0
  3  5  1  0
  5  6  1  0
  5  7  2  0
  7  8  1  0
  8  9  1  0
  8 10  1  0
  8 11  1  0
 11 12  1  0
 11 13  1  0
 11 14  1  0
 14 15  2  0
 15 16  1  0
 16 17  2  0
 17 18  1  0
 18 19  1  0
 19 20  1  0
 19 21  1  0
 19 22  1  0
 22 23  2  0
 23 24  1  0
 23 25  1  0
 25 26  1  0
 25 27  2  0
 27 28  1  0
 27 29  1  0
 29 30  1  0
 29 31  2  0
 31 32  1  0
 32 33  1  0
 32 34  1  0
 32 35  1  0
 35 36  1  0
 35 37  1  0
 17 38  1  0
 38 39  2  0
 39 40  1  0
 40 41  1  0
 41 42  1  0
 41 43  1  0
 41 44  1  0
 44 45  1  0
 44 46  1  0
 44 47  1  0
 47 48  1  0
 47 49  1  0
 47 50  1  0
 50 51  1  0
 50 52  1  0
 50 53  1  0
 53 54  1  0
 53 55  1  0
 53 56  1  0
 56 57  1  0
 56 58  1  0
 39 59  1  0
 59 60  1  0
  7 61  1  0
 61 62  1  0
 61 63  2  0
 63 64  1  0
 63  2  1  0
 59 15  1  0
 35 18  1  0
 56 40  1  0
 31 22  1  0
M  CHG  1  50   1
M  END
>  <UniqueID>  (67) 
712

>  <SMILES>  (67) 
c1ccc(CC/N=c2\nc(N3CCc4ccccc4C3)nc(N3CCC[NH2+]CC3)[nH]2)cc1

>  <Energy>  (67) 
73.68142630792696

>  <Genealogy>  (67) 
c1ccc(CCNc2nc(N3CCC[NH2+]CC3)nc(N3CCc4ccccc4C3)n2)cc1 (protonated)
c1ccc(CCN=c2nc(N3CCc4ccccc4C3)nc(N3CCC[NH2+]CC3)[nH]2)cc1 (tautomer)
c1ccc(CC/N=c2\nc(N3CCc4ccccc4C3)nc(N3CCC[NH2+]CC3)[nH]2)cc1 (cis-trans isomerization)
c1ccc(CC/N=c2\nc(N3CCc4ccccc4C3)nc(N3CCC[NH2+]CC3)[nH]2)cc1 (3D coordinates assigned)
c1ccc(CC/N=c2\nc(N3CCc4ccccc4C3)nc(N3CCC[NH2+]CC3)[nH]2)cc1 (nonaromatic ring conformer: 73.68142630792696 kcal/mol)

>  <smiles>  (67) 
c1ccc(CCNc2nc(N3CCCNCC3)nc(N3CCc4ccccc4C3)n2)cc1

>  <score_type>  (67) 
oracle

>  <origin>  (67) 
autodockgpu

>  <m_score__min__energy>  (67) 
-7.3499999999999996

>  <m_primary>  (67) 
energy

>  <meeko>  (67) 
{"free_energy": -5.13, "intermolecular_energy": -8.71, "internal_energy": -1.98, "cluster_size": 4, "cluster_id": 8, "rank_in_cluster": 2}

>  <energy>  (67) 
-5.9

>  <cluster_rmsd>  (67) 
1.14

>  <rmsd>  (67) 
270.45

>  <cluster>  (67) 
2

$$$$
IBHRIKXMMSCQIV-DXVXUIDUNA-O
     RDKit          3D

 64 68  0  0  0  0  0  0  0  0999 V2000
  143.8794   78.9504  222.9272 H   0  0  0  0  0  0  0  0  0  0  0  0
  142.8580   79.3560  222.9740 C   0  0  0  0  0  0  0  0  0  0  0  0
  142.6350   80.7150  222.7380 C   0  0  0  0  0  0  0  0  0  0  0  0
  143.4785   81.3758  222.4894 H   0  0  0  0  0  0  0  0  0  0  0  0
  141.3390   81.2350  222.8180 C   0  0  0  0  0  0  0  0  0  0  0  0
  141.1677   82.3078  222.6458 H   0  0  0  0  0  0  0  0  0  0  0  0
  140.2530   80.3910  223.1180 C   0  0  0  0  0  0  0  0  0  0  0  0
  138.8540   80.9410  223.1700 C   0  0  0  0  0  0  0  0  0  0  0  0
  138.1510   80.1504  222.8687 H   0  0  0  0  0  0  0  0  0  0  0  0
  138.6609   81.2769  224.1995 H   0  0  0  0  0  0  0  0  0  0  0  0
  138.6710   82.1460  222.2390 C   0  0  0  0  0  0  0  0  0  0  0  0
  137.8214   82.7487  222.5924 H   0  0  0  0  0  0  0  0  0  0  0  0
  139.5951   82.7426  222.2495 H   0  0  0  0  0  0  0  0  0  0  0  0
  138.4110   81.7090  220.8660 N   0  0  0  0  0  0  0  0  0  0  0  0
  139.3130   81.3130  220.0140 C   0  0  0  0  0  0  0  0  0  0  0  0
  139.7660   80.0280  220.0200 N   0  0  0  0  0  0  0  0  0  0  0  0
  140.7180   79.6230  219.1380 C   0  0  0  0  0  0  0  0  0  0  0  0
  141.1890   78.2560  219.1350 N   0  0  0  0  0  0  0  0  0  0  0  0
  140.4720   77.2460  219.9320 C   0  0  0  0  0  0  0  0  0  0  0  0
  139.5557   76.9608  219.3945 H   0  0  0  0  0  0  0  0  0  0  0  0
  140.2499   77.6956  220.9110 H   0  0  0  0  0  0  0  0  0  0  0  0
  141.2920   76.0010  220.1810 C   0  0  0  0  0  0  0  0  0  0  0  0
  140.7310   74.9670  220.9460 C   0  0  0  0  0  0  0  0  0  0  0  0
  139.7069   75.0687  221.3344 H   0  0  0  0  0  0  0  0  0  0  0  0
  141.4650   73.8080  221.2180 C   0  0  0  0  0  0  0  0  0  0  0  0
  141.0191   73.0036  221.8214 H   0  0  0  0  0  0  0  0  0  0  0  0
  142.7630   73.6720  220.7240 C   0  0  0  0  0  0  0  0  0  0  0  0
  143.3411   72.7622  220.9432 H   0  0  0  0  0  0  0  0  0  0  0  0
  143.3290   74.6870  219.9530 C   0  0  0  0  0  0  0  0  0  0  0  0
  144.3536   74.5750  219.5688 H   0  0  0  0  0  0  0  0  0  0  0  0
  142.5980   75.8520  219.6640 C   0  0  0  0  0  0  0  0  0  0  0  0
  143.2470   76.9610  218.8820 C   0  0  0  0  0  0  0  0  0  0  0  0
  143.9266   76.5251  218.1349 H   0  0  0  0  0  0  0  0  0  0  0  0
  143.8044   77.6036  219.5794 H   0  0  0  0  0  0  0  0  0  0  0  0
  142.2000   77.8080  218.1700 C   0  0  0  0  0  0  0  0  0  0  0  0
  141.7162   77.2083  217.3850 H   0  0  0  0  0  0  0  0  0  0  0  0
  142.6861   78.6847  217.7171 H   0  0  0  0  0  0  0  0  0  0  0  0
  141.2200   80.5190  218.2490 N   0  0  0  0  0  0  0  0  0  0  0  0
  140.7780   81.8010  218.2360 C   0  0  0  0  0  0  0  0  0  0  0  0
  141.3110   82.7270  217.2850 N   0  0  0  0  0  0  0  0  0  0  0  0
  142.1980   83.7920  217.7680 C   0  0  0  0  0  0  0  0  0  0  0  0
  141.8826   84.7508  217.3308 H   0  0  0  0  0  0  0  0  0  0  0  0
  142.1353   83.8344  218.8654 H   0  0  0  0  0  0  0  0  0  0  0  0
  143.6480   83.5100  217.3680 C   0  0  0  0  0  0  0  0  0  0  0  0
  144.2463   84.4159  217.5448 H   0  0  0  0  0  0  0  0  0  0  0  0
  144.0069   82.6666  217.9761 H   0  0  0  0  0  0  0  0  0  0  0  0
  143.7780   83.1130  215.8910 C   0  0  0  0  0  0  0  0  0  0  0  0
  143.1939   83.8203  215.2839 H   0  0  0  0  0  0  0  0  0  0  0  0
  144.8469   83.1407  215.6326 H   0  0  0  0  0  0  0  0  0  0  0  0
  143.2920   81.7510  215.6240 N   0  0  0  0  0  0  0  0  0  0  0  0
  143.3470   81.1670  216.4900 H   0  0  0  0  0  0  0  0  0  0  0  0
  143.9410   81.3240  214.9240 H   0  0  0  0  0  0  0  0  0  0  0  0
  141.9330   81.7250  215.0500 C   0  0  0  0  0  0  0  0  0  0  0  0
  141.9723   82.1358  214.0303 H   0  0  0  0  0  0  0  0  0  0  0  0
  141.5886   80.6803  215.0507 H   0  0  0  0  0  0  0  0  0  0  0  0
  140.9310   82.5500  215.8770 C   0  0  0  0  0  0  0  0  0  0  0  0
  140.8410   83.5450  215.4167 H   0  0  0  0  0  0  0  0  0  0  0  0
  139.9838   81.9906  215.8740 H   0  0  0  0  0  0  0  0  0  0  0  0
  139.8190   82.1970  219.1140 N   0  0  0  0  0  0  0  0  0  0  0  0
  139.4810   83.1860  219.1010 H   0  0  0  0  0  0  0  0  0  0  0  0
  140.4820   79.0220  223.3310 C   0  0  0  0  0  0  0  0  0  0  0  0
  139.6373   78.3511  223.5462 H   0  0  0  0  0  0  0  0  0  0  0  0
  141.7820   78.5100  223.2700 C   0  0  0  0  0  0  0  0  0  0  0  0
  141.9597   77.4403  223.4550 H   0  0  0  0  0  0  0  0  0  0  0  0
  1  2  1  0
  2  3  2  0
  3  4  1  0
  3  5  1  0
  5  6  1  0
  5  7  2  0
  7  8  1  0
  8  9  1  0
  8 10  1  0
  8 11  1  0
 11 12  1  0
 11 13  1  0
 11 14  1  0
 14 15  2  0
 15 16  1  0
 16 17  2  0
 17 18  1  0
 18 19  1  0
 19 20  1  0
 19 21  1  0
 19 22  1  0
 22 23  2  0
 23 24  1  0
 23 25  1  0
 25 26  1  0
 25 27  2  0
 27 28  1  0
 27 29  1  0
 29 30  1  0
 29 31  2  0
 31 32  1  0
 32 33  1  0
 32 34  1  0
 32 35  1  0
 35 36  1  0
 35 37  1  0
 17 38  1  0
 38 39  2  0
 39 40  1  0
 40 41  1  0
 41 42  1  0
 41 43  1  0
 41 44  1  0
 44 45  1  0
 44 46  1  0
 44 47  1  0
 47 48  1  0
 47 49  1  0
 47 50  1  0
 50 51  1  0
 50 52  1  0
 50 53  1  0
 53 54  1  0
 53 55  1  0
 53 56  1  0
 56 57  1  0
 56 58  1  0
 39 59  1  0
 59 60  1  0
  7 61  1  0
 61 62  1  0
 61 63  2  0
 63 64  1  0
 63  2  1  0
 59 15  1  0
 35 18  1  0
 56 40  1  0
 31 22  1  0
M  CHG  1  50   1
M  END
>  <UniqueID>  (68) 
712

>  <SMILES>  (68) 
c1ccc(CC/N=c2\nc(N3CCc4ccccc4C3)nc(N3CCC[NH2+]CC3)[nH]2)cc1

>  <Energy>  (68) 
73.68142630792696

>  <Genealogy>  (68) 
c1ccc(CCNc2nc(N3CCC[NH2+]CC3)nc(N3CCc4ccccc4C3)n2)cc1 (protonated)
c1ccc(CCN=c2nc(N3CCc4ccccc4C3)nc(N3CCC[NH2+]CC3)[nH]2)cc1 (tautomer)
c1ccc(CC/N=c2\nc(N3CCc4ccccc4C3)nc(N3CCC[NH2+]CC3)[nH]2)cc1 (cis-trans isomerization)
c1ccc(CC/N=c2\nc(N3CCc4ccccc4C3)nc(N3CCC[NH2+]CC3)[nH]2)cc1 (3D coordinates assigned)
c1ccc(CC/N=c2\nc(N3CCc4ccccc4C3)nc(N3CCC[NH2+]CC3)[nH]2)cc1 (nonaromatic ring conformer: 73.68142630792696 kcal/mol)

>  <smiles>  (68) 
c1ccc(CCNc2nc(N3CCCNCC3)nc(N3CCc4ccccc4C3)n2)cc1

>  <score_type>  (68) 
oracle

>  <origin>  (68) 
autodockgpu

>  <m_score__min__energy>  (68) 
-7.3499999999999996

>  <m_primary>  (68) 
energy

>  <meeko>  (68) 
{"free_energy": -4.88, "intermolecular_energy": -8.46, "internal_energy": -2.29, "cluster_size": 4, "cluster_id": 8, "rank_in_cluster": 4}

>  <energy>  (68) 
-5.67

>  <cluster_rmsd>  (68) 
1.2

>  <rmsd>  (68) 
270.68

>  <cluster>  (68) 
2

$$$$
IBHRIKXMMSCQIV-DXVXUIDUNA-O
     RDKit          3D

 64 68  0  0  0  0  0  0  0  0999 V2000
  146.2736   74.7034  221.8433 H   0  0  0  0  0  0  0  0  0  0  0  0
  145.7370   74.0800  221.1130 C   0  0  0  0  0  0  0  0  0  0  0  0
  146.1780   72.7810  220.8450 C   0  0  0  0  0  0  0  0  0  0  0  0
  147.0522   72.3764  221.3761 H   0  0  0  0  0  0  0  0  0  0  0  0
  145.5080   71.9960  219.9020 C   0  0  0  0  0  0  0  0  0  0  0  0
  145.8655   70.9789  219.6835 H   0  0  0  0  0  0  0  0  0  0  0  0
  144.3790   72.5000  219.2310 C   0  0  0  0  0  0  0  0  0  0  0  0
  143.6350   71.6450  218.2420 C   0  0  0  0  0  0  0  0  0  0  0  0
  143.0222   72.2959  217.6011 H   0  0  0  0  0  0  0  0  0  0  0  0
  144.3769   71.0870  217.6519 H   0  0  0  0  0  0  0  0  0  0  0  0
  142.7190   70.6270  218.9320 C   0  0  0  0  0  0  0  0  0  0  0  0
  142.6246   69.7361  218.2938 H   0  0  0  0  0  0  0  0  0  0  0  0
  143.1599   70.3574  219.9031 H   0  0  0  0  0  0  0  0  0  0  0  0
  141.3890   71.1960  219.1620 N   0  0  0  0  0  0  0  0  0  0  0  0
  141.0350   71.8960  220.2010 C   0  0  0  0  0  0  0  0  0  0  0  0
  140.6840   71.2900  221.3690 N   0  0  0  0  0  0  0  0  0  0  0  0
  140.3020   72.0240  222.4470 C   0  0  0  0  0  0  0  0  0  0  0  0
  139.9430   71.3810  223.6900 N   0  0  0  0  0  0  0  0  0  0  0  0
  140.6120   71.7950  224.9350 C   0  0  0  0  0  0  0  0  0  0  0  0
  140.1734   72.7469  225.2689 H   0  0  0  0  0  0  0  0  0  0  0  0
  141.6854   71.8925  224.7153 H   0  0  0  0  0  0  0  0  0  0  0  0
  140.4680   70.7820  226.0470 C   0  0  0  0  0  0  0  0  0  0  0  0
  141.0780   71.0490  227.2830 C   0  0  0  0  0  0  0  0  0  0  0  0
  141.6312   71.9886  227.4285 H   0  0  0  0  0  0  0  0  0  0  0  0
  140.9860   70.1260  228.3310 C   0  0  0  0  0  0  0  0  0  0  0  0
  141.4695   70.3401  229.2955 H   0  0  0  0  0  0  0  0  0  0  0  0
  140.2820   68.9350  228.1540 C   0  0  0  0  0  0  0  0  0  0  0  0
  140.2155   68.2089  228.9776 H   0  0  0  0  0  0  0  0  0  0  0  0
  139.6620   68.6630  226.9340 C   0  0  0  0  0  0  0  0  0  0  0  0
  139.1112   67.7205  226.7988 H   0  0  0  0  0  0  0  0  0  0  0  0
  139.7370   69.5860  225.8770 C   0  0  0  0  0  0  0  0  0  0  0  0
  139.1130   69.2480  224.5510 C   0  0  0  0  0  0  0  0  0  0  0  0
  138.1963   68.6647  224.7226 H   0  0  0  0  0  0  0  0  0  0  0  0
  139.8351   68.6642  223.9614 H   0  0  0  0  0  0  0  0  0  0  0  0
  138.7620   70.5130  223.7770 C   0  0  0  0  0  0  0  0  0  0  0  0
  137.9526   71.0471  224.2962 H   0  0  0  0  0  0  0  0  0  0  0  0
  138.4329   70.2414  222.7631 H   0  0  0  0  0  0  0  0  0  0  0  0
  140.2680   73.3780  222.3450 N   0  0  0  0  0  0  0  0  0  0  0  0
  140.6140   73.9930  221.1870 C   0  0  0  0  0  0  0  0  0  0  0  0
  140.5820   75.4210  221.1020 N   0  0  0  0  0  0  0  0  0  0  0  0
  140.7280   76.1970  222.3390 C   0  0  0  0  0  0  0  0  0  0  0  0
  139.9633   75.8738  223.0607 H   0  0  0  0  0  0  0  0  0  0  0  0
  141.7346   76.0255  222.7481 H   0  0  0  0  0  0  0  0  0  0  0  0
  140.5570   77.6930  222.0610 C   0  0  0  0  0  0  0  0  0  0  0  0
  139.6596   77.8362  221.4412 H   0  0  0  0  0  0  0  0  0  0  0  0
  140.4652   78.2045  223.0305 H   0  0  0  0  0  0  0  0  0  0  0  0
  141.7610   78.2960  221.3290 C   0  0  0  0  0  0  0  0  0  0  0  0
  141.4148   79.1504  220.7288 H   0  0  0  0  0  0  0  0  0  0  0  0
  142.4921   78.6009  222.0922 H   0  0  0  0  0  0  0  0  0  0  0  0
  142.4290   77.3360  220.4370 N   0  0  0  0  0  0  0  0  0  0  0  0
  142.7810   76.5150  220.9830 H   0  0  0  0  0  0  0  0  0  0  0  0
  143.2650   77.8190  220.0360 H   0  0  0  0  0  0  0  0  0  0  0  0
  141.5770   76.9030  219.3130 C   0  0  0  0  0  0  0  0  0  0  0  0
  141.1722   77.7951  218.8126 H   0  0  0  0  0  0  0  0  0  0  0  0
  142.1999   76.3057  218.6309 H   0  0  0  0  0  0  0  0  0  0  0  0
  140.4040   76.0190  219.7720 C   0  0  0  0  0  0  0  0  0  0  0  0
  139.4940   76.6367  219.7910 H   0  0  0  0  0  0  0  0  0  0  0  0
  140.3398   75.1850  219.0577 H   0  0  0  0  0  0  0  0  0  0  0  0
  141.0040   73.2530  220.1160 N   0  0  0  0  0  0  0  0  0  0  0  0
  141.2690   73.7300  219.2240 H   0  0  0  0  0  0  0  0  0  0  0  0
  143.9270   73.7980  219.5210 C   0  0  0  0  0  0  0  0  0  0  0  0
  143.0336   74.1939  219.0159 H   0  0  0  0  0  0  0  0  0  0  0  0
  144.6110   74.5880  220.4510 C   0  0  0  0  0  0  0  0  0  0  0  0
  144.2643   75.6101  220.6632 H   0  0  0  0  0  0  0  0  0  0  0  0
  1  2  1  0
  2  3  2  0
  3  4  1  0
  3  5  1  0
  5  6  1  0
  5  7  2  0
  7  8  1  0
  8  9  1  0
  8 10  1  0
  8 11  1  0
 11 12  1  0
 11 13  1  0
 11 14  1  0
 14 15  2  0
 15 16  1  0
 16 17  2  0
 17 18  1  0
 18 19  1  0
 19 20  1  0
 19 21  1  0
 19 22  1  0
 22 23  2  0
 23 24  1  0
 23 25  1  0
 25 26  1  0
 25 27  2  0
 27 28  1  0
 27 29  1  0
 29 30  1  0
 29 31  2  0
 31 32  1  0
 32 33  1  0
 32 34  1  0
 32 35  1  0
 35 36  1  0
 35 37  1  0
 17 38  1  0
 38 39  2  0
 39 40  1  0
 40 41  1  0
 41 42  1  0
 41 43  1  0
 41 44  1  0
 44 45  1  0
 44 46  1  0
 44 47  1  0
 47 48  1  0
 47 49  1  0
 47 50  1  0
 50 51  1  0
 50 52  1  0
 50 53  1  0
 53 54  1  0
 53 55  1  0
 53 56  1  0
 56 57  1  0
 56 58  1  0
 39 59  1  0
 59 60  1  0
  7 61  1  0
 61 62  1  0
 61 63  2  0
 63 64  1  0
 63  2  1  0
 59 15  1  0
 35 18  1  0
 56 40  1  0
 31 22  1  0
M  CHG  1  50   1
M  END
>  <UniqueID>  (69) 
712

>  <SMILES>  (69) 
c1ccc(CC/N=c2\nc(N3CCc4ccccc4C3)nc(N3CCC[NH2+]CC3)[nH]2)cc1

>  <Energy>  (69) 
73.68142630792696

>  <Genealogy>  (69) 
c1ccc(CCNc2nc(N3CCC[NH2+]CC3)nc(N3CCc4ccccc4C3)n2)cc1 (protonated)
c1ccc(CCN=c2nc(N3CCc4ccccc4C3)nc(N3CCC[NH2+]CC3)[nH]2)cc1 (tautomer)
c1ccc(CC/N=c2\nc(N3CCc4ccccc4C3)nc(N3CCC[NH2+]CC3)[nH]2)cc1 (cis-trans isomerization)
c1ccc(CC/N=c2\nc(N3CCc4ccccc4C3)nc(N3CCC[NH2+]CC3)[nH]2)cc1 (3D coordinates assigned)
c1ccc(CC/N=c2\nc(N3CCc4ccccc4C3)nc(N3CCC[NH2+]CC3)[nH]2)cc1 (nonaromatic ring conformer: 73.68142630792696 kcal/mol)

>  <smiles>  (69) 
c1ccc(CCNc2nc(N3CCCNCC3)nc(N3CCc4ccccc4C3)n2)cc1

>  <score_type>  (69) 
oracle

>  <origin>  (69) 
autodockgpu

>  <m_score__min__energy>  (69) 
-7.3499999999999996

>  <m_primary>  (69) 
energy

>  <meeko>  (69) 
{"free_energy": -7.12, "intermolecular_energy": -10.7, "internal_energy": -1.54, "cluster_size": 5, "cluster_id": 2, "rank_in_cluster": 1}

>  <energy>  (69) 
-7.04

>  <cluster_rmsd>  (69) 
0.0

>  <rmsd>  (69) 
270.32

>  <cluster>  (69) 
3

$$$$
IBHRIKXMMSCQIV-DXVXUIDUNA-O
     RDKit          3D

 64 68  0  0  0  0  0  0  0  0999 V2000
  141.3179   73.2351  227.9569 H   0  0  0  0  0  0  0  0  0  0  0  0
  141.0710   72.2290  227.5870 C   0  0  0  0  0  0  0  0  0  0  0  0
  141.5360   71.8110  226.3370 C   0  0  0  0  0  0  0  0  0  0  0  0
  142.1609   72.4822  225.7295 H   0  0  0  0  0  0  0  0  0  0  0  0
  141.2060   70.5380  225.8590 C   0  0  0  0  0  0  0  0  0  0  0  0
  141.5620   70.2158  224.8693 H   0  0  0  0  0  0  0  0  0  0  0  0
  140.4210   69.6680  226.6380 C   0  0  0  0  0  0  0  0  0  0  0  0
  140.0930   68.2870  226.1410 C   0  0  0  0  0  0  0  0  0  0  0  0
  140.9976   67.8458  225.6971 H   0  0  0  0  0  0  0  0  0  0  0  0
  139.7385   67.6945  226.9973 H   0  0  0  0  0  0  0  0  0  0  0  0
  138.9810   68.3020  225.0850 C   0  0  0  0  0  0  0  0  0  0  0  0
  138.8309   67.2807  224.7051 H   0  0  0  0  0  0  0  0  0  0  0  0
  138.0580   68.6773  225.5510 H   0  0  0  0  0  0  0  0  0  0  0  0
  139.3340   69.1820  223.9690 N   0  0  0  0  0  0  0  0  0  0  0  0
  138.6860   70.2560  223.6190 C   0  0  0  0  0  0  0  0  0  0  0  0
  137.5000   70.5820  224.2050 N   0  0  0  0  0  0  0  0  0  0  0  0
  136.8210   71.6960  223.8270 C   0  0  0  0  0  0  0  0  0  0  0  0
  135.5690   72.0490  224.4590 N   0  0  0  0  0  0  0  0  0  0  0  0
  135.2410   73.4700  224.6620 C   0  0  0  0  0  0  0  0  0  0  0  0
  134.9081   73.8936  223.7029 H   0  0  0  0  0  0  0  0  0  0  0  0
  136.1477   73.9670  225.0373 H   0  0  0  0  0  0  0  0  0  0  0  0
  134.1510   73.6830  225.6870 C   0  0  0  0  0  0  0  0  0  0  0  0
  133.7570   74.9960  225.9880 C   0  0  0  0  0  0  0  0  0  0  0  0
  134.2301   75.8413  225.4669 H   0  0  0  0  0  0  0  0  0  0  0  0
  132.7670   75.2370  226.9460 C   0  0  0  0  0  0  0  0  0  0  0  0
  132.4666   76.2693  227.1786 H   0  0  0  0  0  0  0  0  0  0  0  0
  132.1600   74.1680  227.6070 C   0  0  0  0  0  0  0  0  0  0  0  0
  131.3854   74.3593  228.3642 H   0  0  0  0  0  0  0  0  0  0  0  0
  132.5340   72.8570  227.3090 C   0  0  0  0  0  0  0  0  0  0  0  0
  132.0541   72.0185  227.8349 H   0  0  0  0  0  0  0  0  0  0  0  0
  133.5200   72.6020  226.3410 C   0  0  0  0  0  0  0  0  0  0  0  0
  133.9520   71.1850  226.0770 C   0  0  0  0  0  0  0  0  0  0  0  0
  133.0839   70.5178  226.1837 H   0  0  0  0  0  0  0  0  0  0  0  0
  134.7347   70.9150  226.8012 H   0  0  0  0  0  0  0  0  0  0  0  0
  134.5200   71.0440  224.6700 C   0  0  0  0  0  0  0  0  0  0  0  0
  133.7163   71.1938  223.9341 H   0  0  0  0  0  0  0  0  0  0  0  0
  134.9482   70.0381  224.5482 H   0  0  0  0  0  0  0  0  0  0  0  0
  137.3350   72.4840  222.8480 N   0  0  0  0  0  0  0  0  0  0  0  0
  138.5140   72.1680  222.2560 C   0  0  0  0  0  0  0  0  0  0  0  0
  139.0460   73.0170  221.2340 N   0  0  0  0  0  0  0  0  0  0  0  0
  138.2330   74.1460  220.7690 C   0  0  0  0  0  0  0  0  0  0  0  0
  137.9689   73.9899  219.7126 H   0  0  0  0  0  0  0  0  0  0  0  0
  137.3236   74.2044  221.3851 H   0  0  0  0  0  0  0  0  0  0  0  0
  139.0050   75.4610  220.9050 C   0  0  0  0  0  0  0  0  0  0  0  0
  139.4465   75.7141  219.9298 H   0  0  0  0  0  0  0  0  0  0  0  0
  138.2964   76.2333  221.2388 H   0  0  0  0  0  0  0  0  0  0  0  0
  140.1270   75.3740  221.9460 C   0  0  0  0  0  0  0  0  0  0  0  0
  140.2909   76.3751  222.3715 H   0  0  0  0  0  0  0  0  0  0  0  0
  139.8126   74.6523  222.7143 H   0  0  0  0  0  0  0  0  0  0  0  0
  141.3940   74.8920  221.3750 N   0  0  0  0  0  0  0  0  0  0  0  0
  142.2060   75.3670  221.8340 H   0  0  0  0  0  0  0  0  0  0  0  0
  141.4040   75.1740  220.3680 H   0  0  0  0  0  0  0  0  0  0  0  0
  141.5320   73.4250  221.4330 C   0  0  0  0  0  0  0  0  0  0  0  0
  142.4822   73.1407  220.9573 H   0  0  0  0  0  0  0  0  0  0  0  0
  141.5059   73.1278  222.4918 H   0  0  0  0  0  0  0  0  0  0  0  0
  140.3830   72.6980  220.7140 C   0  0  0  0  0  0  0  0  0  0  0  0
  140.4134   72.9738  219.6496 H   0  0  0  0  0  0  0  0  0  0  0  0
  140.5375   71.6219  220.8815 H   0  0  0  0  0  0  0  0  0  0  0  0
  139.1940   71.0580  222.6460 N   0  0  0  0  0  0  0  0  0  0  0  0
  140.1020   70.8180  222.1870 H   0  0  0  0  0  0  0  0  0  0  0  0
  139.9760   70.0870  227.9020 C   0  0  0  0  0  0  0  0  0  0  0  0
  139.3784   69.4068  228.5266 H   0  0  0  0  0  0  0  0  0  0  0  0
  140.2910   71.3680  228.3690 C   0  0  0  0  0  0  0  0  0  0  0  0
  139.9253   71.6993  229.3521 H   0  0  0  0  0  0  0  0  0  0  0  0
  1  2  1  0
  2  3  2  0
  3  4  1  0
  3  5  1  0
  5  6  1  0
  5  7  2  0
  7  8  1  0
  8  9  1  0
  8 10  1  0
  8 11  1  0
 11 12  1  0
 11 13  1  0
 11 14  1  0
 14 15  2  0
 15 16  1  0
 16 17  2  0
 17 18  1  0
 18 19  1  0
 19 20  1  0
 19 21  1  0
 19 22  1  0
 22 23  2  0
 23 24  1  0
 23 25  1  0
 25 26  1  0
 25 27  2  0
 27 28  1  0
 27 29  1  0
 29 30  1  0
 29 31  2  0
 31 32  1  0
 32 33  1  0
 32 34  1  0
 32 35  1  0
 35 36  1  0
 35 37  1  0
 17 38  1  0
 38 39  2  0
 39 40  1  0
 40 41  1  0
 41 42  1  0
 41 43  1  0
 41 44  1  0
 44 45  1  0
 44 46  1  0
 44 47  1  0
 47 48  1  0
 47 49  1  0
 47 50  1  0
 50 51  1  0
 50 52  1  0
 50 53  1  0
 53 54  1  0
 53 55  1  0
 53 56  1  0
 56 57  1  0
 56 58  1  0
 39 59  1  0
 59 60  1  0
  7 61  1  0
 61 62  1  0
 61 63  2  0
 63 64  1  0
 63  2  1  0
 59 15  1  0
 35 18  1  0
 56 40  1  0
 31 22  1  0
M  CHG  1  50   1
M  END
>  <UniqueID>  (70) 
712

>  <SMILES>  (70) 
c1ccc(CC/N=c2\nc(N3CCc4ccccc4C3)nc(N3CCC[NH2+]CC3)[nH]2)cc1

>  <Energy>  (70) 
73.68142630792696

>  <Genealogy>  (70) 
c1ccc(CCNc2nc(N3CCC[NH2+]CC3)nc(N3CCc4ccccc4C3)n2)cc1 (protonated)
c1ccc(CCN=c2nc(N3CCc4ccccc4C3)nc(N3CCC[NH2+]CC3)[nH]2)cc1 (tautomer)
c1ccc(CC/N=c2\nc(N3CCc4ccccc4C3)nc(N3CCC[NH2+]CC3)[nH]2)cc1 (cis-trans isomerization)
c1ccc(CC/N=c2\nc(N3CCc4ccccc4C3)nc(N3CCC[NH2+]CC3)[nH]2)cc1 (3D coordinates assigned)
c1ccc(CC/N=c2\nc(N3CCc4ccccc4C3)nc(N3CCC[NH2+]CC3)[nH]2)cc1 (nonaromatic ring conformer: 73.68142630792696 kcal/mol)

>  <smiles>  (70) 
c1ccc(CCNc2nc(N3CCCNCC3)nc(N3CCc4ccccc4C3)n2)cc1

>  <score_type>  (70) 
oracle

>  <origin>  (70) 
autodockgpu

>  <m_score__min__energy>  (70) 
-7.3499999999999996

>  <m_primary>  (70) 
energy

>  <meeko>  (70) 
{"free_energy": -6.13, "intermolecular_energy": -9.71, "internal_energy": -1.32, "cluster_size": 2, "cluster_id": 3, "rank_in_cluster": 2}

>  <energy>  (70) 
-6.13

>  <cluster_rmsd>  (70) 
1.5

>  <rmsd>  (70) 
270.36

>  <cluster>  (70) 
3

$$$$
IBHRIKXMMSCQIV-DXVXUIDUNA-O
     RDKit          3D

 64 68  0  0  0  0  0  0  0  0999 V2000
  143.8655   78.9674  222.7740 H   0  0  0  0  0  0  0  0  0  0  0  0
  142.8600   79.4010  222.8790 C   0  0  0  0  0  0  0  0  0  0  0  0
  141.7840   78.5900  223.2520 C   0  0  0  0  0  0  0  0  0  0  0  0
  141.9459   77.5212  223.4559 H   0  0  0  0  0  0  0  0  0  0  0  0
  140.5020   79.1370  223.3660 C   0  0  0  0  0  0  0  0  0  0  0  0
  139.6549   78.4935  223.6459 H   0  0  0  0  0  0  0  0  0  0  0  0
  140.2910   80.5080  223.1240 C   0  0  0  0  0  0  0  0  0  0  0  0
  138.9200   81.1060  223.2790 C   0  0  0  0  0  0  0  0  0  0  0  0
  138.4932   80.7708  224.2358 H   0  0  0  0  0  0  0  0  0  0  0  0
  139.0232   82.2007  223.2490 H   0  0  0  0  0  0  0  0  0  0  0  0
  137.9760   80.6900  222.1440 C   0  0  0  0  0  0  0  0  0  0  0  0
  138.0694   79.6069  221.9762 H   0  0  0  0  0  0  0  0  0  0  0  0
  136.9455   80.9460  222.4313 H   0  0  0  0  0  0  0  0  0  0  0  0
  138.3070   81.3980  220.9050 N   0  0  0  0  0  0  0  0  0  0  0  0
  139.2310   81.0480  220.0580 C   0  0  0  0  0  0  0  0  0  0  0  0
  139.7250   79.7780  220.0440 N   0  0  0  0  0  0  0  0  0  0  0  0
  140.6990   79.4210  219.1660 C   0  0  0  0  0  0  0  0  0  0  0  0
  141.2140   78.0700  219.1430 N   0  0  0  0  0  0  0  0  0  0  0  0
  140.5110   77.0190  219.8970 C   0  0  0  0  0  0  0  0  0  0  0  0
  139.6183   76.7176  219.3294 H   0  0  0  0  0  0  0  0  0  0  0  0
  140.2498   77.4374  220.8802 H   0  0  0  0  0  0  0  0  0  0  0  0
  141.3650   75.7950  220.1380 C   0  0  0  0  0  0  0  0  0  0  0  0
  140.8180   74.7250  220.8640 C   0  0  0  0  0  0  0  0  0  0  0  0
  139.7817   74.7844  221.2281 H   0  0  0  0  0  0  0  0  0  0  0  0
  141.5830   73.5840  221.1270 C   0  0  0  0  0  0  0  0  0  0  0  0
  141.1486   72.7513  221.6996 H   0  0  0  0  0  0  0  0  0  0  0  0
  142.8960   73.5010  220.6640 C   0  0  0  0  0  0  0  0  0  0  0  0
  143.4976   72.6051  220.8772 H   0  0  0  0  0  0  0  0  0  0  0  0
  143.4480   74.5520  219.9310 C   0  0  0  0  0  0  0  0  0  0  0  0
  144.4848   74.4818  219.5702 H   0  0  0  0  0  0  0  0  0  0  0  0
  142.6870   75.7000  219.6510 C   0  0  0  0  0  0  0  0  0  0  0  0
  143.3190   76.8470  218.9110 C   0  0  0  0  0  0  0  0  0  0  0  0
  144.0297   76.4504  218.1710 H   0  0  0  0  0  0  0  0  0  0  0  0
  143.8389   77.4898  219.6366 H   0  0  0  0  0  0  0  0  0  0  0  0
  142.2630   77.6780  218.1930 C   0  0  0  0  0  0  0  0  0  0  0  0
  141.8183   77.0829  217.3817 H   0  0  0  0  0  0  0  0  0  0  0  0
  142.7316   78.5806  217.7737 H   0  0  0  0  0  0  0  0  0  0  0  0
  141.1830   80.3490  218.3010 N   0  0  0  0  0  0  0  0  0  0  0  0
  140.6990   81.6160  218.3070 C   0  0  0  0  0  0  0  0  0  0  0  0
  141.2130   82.5780  217.3800 N   0  0  0  0  0  0  0  0  0  0  0  0
  142.2180   83.5370  217.8530 C   0  0  0  0  0  0  0  0  0  0  0  0
  141.9634   84.5401  217.4802 H   0  0  0  0  0  0  0  0  0  0  0  0
  142.2244   83.5286  218.9529 H   0  0  0  0  0  0  0  0  0  0  0  0
  143.6120   83.1530  217.3500 C   0  0  0  0  0  0  0  0  0  0  0  0
  144.3018   83.9861  217.5503 H   0  0  0  0  0  0  0  0  0  0  0  0
  143.9196   82.2390  217.8792 H   0  0  0  0  0  0  0  0  0  0  0  0
  143.6280   82.8510  215.8470 C   0  0  0  0  0  0  0  0  0  0  0  0
  143.1145   83.6673  215.3179 H   0  0  0  0  0  0  0  0  0  0  0  0
  144.6793   82.7644  215.5351 H   0  0  0  0  0  0  0  0  0  0  0  0
  142.9590   81.5820  215.5190 N   0  0  0  0  0  0  0  0  0  0  0  0
  142.9760   80.9370  216.3430 H   0  0  0  0  0  0  0  0  0  0  0  0
  143.5180   81.1260  214.7620 H   0  0  0  0  0  0  0  0  0  0  0  0
  141.5850   81.7660  215.0160 C   0  0  0  0  0  0  0  0  0  0  0  0
  141.6274   82.3233  214.0686 H   0  0  0  0  0  0  0  0  0  0  0  0
  141.1423   80.7686  214.8776 H   0  0  0  0  0  0  0  0  0  0  0  0
  140.6970   82.5400  216.0050 C   0  0  0  0  0  0  0  0  0  0  0  0
  140.6010   83.5748  215.6445 H   0  0  0  0  0  0  0  0  0  0  0  0
  139.7341   82.0097  216.0448 H   0  0  0  0  0  0  0  0  0  0  0  0
  139.7180   81.9650  219.1800 N   0  0  0  0  0  0  0  0  0  0  0  0
  139.3490   82.9430  219.1820 H   0  0  0  0  0  0  0  0  0  0  0  0
  141.3800   81.3210  222.7710 C   0  0  0  0  0  0  0  0  0  0  0  0
  141.2285   82.3967  222.5979 H   0  0  0  0  0  0  0  0  0  0  0  0
  142.6570   80.7660  222.6390 C   0  0  0  0  0  0  0  0  0  0  0  0
  143.5043   81.4033  222.3459 H   0  0  0  0  0  0  0  0  0  0  0  0
  1  2  1  0
  2  3  2  0
  3  4  1  0
  3  5  1  0
  5  6  1  0
  5  7  2  0
  7  8  1  0
  8  9  1  0
  8 10  1  0
  8 11  1  0
 11 12  1  0
 11 13  1  0
 11 14  1  0
 14 15  2  0
 15 16  1  0
 16 17  2  0
 17 18  1  0
 18 19  1  0
 19 20  1  0
 19 21  1  0
 19 22  1  0
 22 23  2  0
 23 24  1  0
 23 25  1  0
 25 26  1  0
 25 27  2  0
 27 28  1  0
 27 29  1  0
 29 30  1  0
 29 31  2  0
 31 32  1  0
 32 33  1  0
 32 34  1  0
 32 35  1  0
 35 36  1  0
 35 37  1  0
 17 38  1  0
 38 39  2  0
 39 40  1  0
 40 41  1  0
 41 42  1  0
 41 43  1  0
 41 44  1  0
 44 45  1  0
 44 46  1  0
 44 47  1  0
 47 48  1  0
 47 49  1  0
 47 50  1  0
 50 51  1  0
 50 52  1  0
 50 53  1  0
 53 54  1  0
 53 55  1  0
 53 56  1  0
 56 57  1  0
 56 58  1  0
 39 59  1  0
 59 60  1  0
  7 61  1  0
 61 62  1  0
 61 63  2  0
 63 64  1  0
 63  2  1  0
 59 15  1  0
 35 18  1  0
 56 40  1  0
 31 22  1  0
M  CHG  1  50   1
M  END
>  <UniqueID>  (71) 
712

>  <SMILES>  (71) 
c1ccc(CC/N=c2\nc(N3CCc4ccccc4C3)nc(N3CCC[NH2+]CC3)[nH]2)cc1

>  <Energy>  (71) 
73.68142630792696

>  <Genealogy>  (71) 
c1ccc(CCNc2nc(N3CCC[NH2+]CC3)nc(N3CCc4ccccc4C3)n2)cc1 (protonated)
c1ccc(CCN=c2nc(N3CCc4ccccc4C3)nc(N3CCC[NH2+]CC3)[nH]2)cc1 (tautomer)
c1ccc(CC/N=c2\nc(N3CCc4ccccc4C3)nc(N3CCC[NH2+]CC3)[nH]2)cc1 (cis-trans isomerization)
c1ccc(CC/N=c2\nc(N3CCc4ccccc4C3)nc(N3CCC[NH2+]CC3)[nH]2)cc1 (3D coordinates assigned)
c1ccc(CC/N=c2\nc(N3CCc4ccccc4C3)nc(N3CCC[NH2+]CC3)[nH]2)cc1 (nonaromatic ring conformer: 73.68142630792696 kcal/mol)

>  <smiles>  (71) 
c1ccc(CCNc2nc(N3CCCNCC3)nc(N3CCc4ccccc4C3)n2)cc1

>  <score_type>  (71) 
oracle

>  <origin>  (71) 
autodockgpu

>  <m_score__min__energy>  (71) 
-7.3499999999999996

>  <m_primary>  (71) 
energy

>  <meeko>  (71) 
{"free_energy": -5.16, "intermolecular_energy": -8.74, "internal_energy": -2.32, "cluster_size": 4, "cluster_id": 8, "rank_in_cluster": 1}

>  <energy>  (71) 
-6.18

>  <cluster_rmsd>  (71) 
0.0

>  <rmsd>  (71) 
270.51

>  <cluster>  (71) 
4

$$$$
IBHRIKXMMSCQIV-DXVXUIDUNA-O
     RDKit          3D

 64 68  0  0  0  0  0  0  0  0999 V2000
  140.9386   73.3503  227.5806 H   0  0  0  0  0  0  0  0  0  0  0  0
  140.9230   72.2660  227.3960 C   0  0  0  0  0  0  0  0  0  0  0  0
  141.3970   71.7570  226.1840 C   0  0  0  0  0  0  0  0  0  0  0  0
  141.7991   72.4392  225.4205 H   0  0  0  0  0  0  0  0  0  0  0  0
  141.3600   70.3800  225.9420 C   0  0  0  0  0  0  0  0  0  0  0  0
  141.7218   69.9829  224.9821 H   0  0  0  0  0  0  0  0  0  0  0  0
  140.8620   69.5000  226.9210 C   0  0  0  0  0  0  0  0  0  0  0  0
  140.8530   68.0160  226.6760 C   0  0  0  0  0  0  0  0  0  0  0  0
  141.5116   67.7934  225.8235 H   0  0  0  0  0  0  0  0  0  0  0  0
  141.2043   67.5195  227.5926 H   0  0  0  0  0  0  0  0  0  0  0  0
  139.4450   67.4900  226.3640 C   0  0  0  0  0  0  0  0  0  0  0  0
  139.4148   66.4067  226.5523 H   0  0  0  0  0  0  0  0  0  0  0  0
  138.7229   68.0112  227.0096 H   0  0  0  0  0  0  0  0  0  0  0  0
  139.0930   67.7440  224.9660 N   0  0  0  0  0  0  0  0  0  0  0  0
  138.5050   68.8160  224.5160 C   0  0  0  0  0  0  0  0  0  0  0  0
  137.2960   69.2100  225.0040 N   0  0  0  0  0  0  0  0  0  0  0  0
  136.6810   70.3220  224.5230 C   0  0  0  0  0  0  0  0  0  0  0  0
  135.4040   70.7470  225.0510 N   0  0  0  0  0  0  0  0  0  0  0  0
  134.8960   72.0880  224.7140 C   0  0  0  0  0  0  0  0  0  0  0  0
  134.4958   72.0642  223.6897 H   0  0  0  0  0  0  0  0  0  0  0  0
  135.7356   72.7921  224.8100 H   0  0  0  0  0  0  0  0  0  0  0  0
  133.8040   72.5560  225.6470 C   0  0  0  0  0  0  0  0  0  0  0  0
  133.2460   73.8280  225.4460 C   0  0  0  0  0  0  0  0  0  0  0  0
  133.5958   74.4520  224.6103 H   0  0  0  0  0  0  0  0  0  0  0  0
  132.2480   74.3080  226.3010 C   0  0  0  0  0  0  0  0  0  0  0  0
  131.8198   75.3083  226.1397 H   0  0  0  0  0  0  0  0  0  0  0  0
  131.7960   73.5180  227.3580 C   0  0  0  0  0  0  0  0  0  0  0  0
  131.0144   73.8982  228.0321 H   0  0  0  0  0  0  0  0  0  0  0  0
  132.3330   72.2470  227.5620 C   0  0  0  0  0  0  0  0  0  0  0  0
  131.9744   71.6300  228.3991 H   0  0  0  0  0  0  0  0  0  0  0  0
  133.3290   71.7500  226.7050 C   0  0  0  0  0  0  0  0  0  0  0  0
  133.9380   70.4010  226.9770 C   0  0  0  0  0  0  0  0  0  0  0  0
  133.1660   69.7334  227.3872 H   0  0  0  0  0  0  0  0  0  0  0  0
  134.7604   70.5253  227.6969 H   0  0  0  0  0  0  0  0  0  0  0  0
  134.4980   69.7900  225.6990 C   0  0  0  0  0  0  0  0  0  0  0  0
  133.6706   69.5488  225.0155 H   0  0  0  0  0  0  0  0  0  0  0  0
  135.0518   68.8721  225.9453 H   0  0  0  0  0  0  0  0  0  0  0  0
  137.2840   71.0380  223.5390 N   0  0  0  0  0  0  0  0  0  0  0  0
  138.4870   70.6540  223.0450 C   0  0  0  0  0  0  0  0  0  0  0  0
  139.1130   71.4280  222.0170 N   0  0  0  0  0  0  0  0  0  0  0  0
  140.5780   71.4950  221.9850 C   0  0  0  0  0  0  0  0  0  0  0  0
  140.9840   70.9323  222.8385 H   0  0  0  0  0  0  0  0  0  0  0  0
  140.9315   71.0601  221.0385 H   0  0  0  0  0  0  0  0  0  0  0  0
  141.0550   72.9480  222.0680 C   0  0  0  0  0  0  0  0  0  0  0  0
  140.9340   73.3011  223.1027 H   0  0  0  0  0  0  0  0  0  0  0  0
  142.1090   72.9738  221.7544 H   0  0  0  0  0  0  0  0  0  0  0  0
  140.2660   73.8760  221.1350 C   0  0  0  0  0  0  0  0  0  0  0  0
  140.9030   74.7327  220.8698 H   0  0  0  0  0  0  0  0  0  0  0  0
  139.9808   73.2910  220.2482 H   0  0  0  0  0  0  0  0  0  0  0  0
  139.0290   74.3820  221.7500 N   0  0  0  0  0  0  0  0  0  0  0  0
  138.8640   75.3770  221.4730 H   0  0  0  0  0  0  0  0  0  0  0  0
  139.1730   74.3710  222.7850 H   0  0  0  0  0  0  0  0  0  0  0  0
  137.8520   73.5440  221.4510 C   0  0  0  0  0  0  0  0  0  0  0  0
  137.2125   73.5017  222.3450 H   0  0  0  0  0  0  0  0  0  0  0  0
  137.3252   73.9984  220.5989 H   0  0  0  0  0  0  0  0  0  0  0  0
  138.2380   72.1100  221.0520 C   0  0  0  0  0  0  0  0  0  0  0  0
  137.3148   71.5210  220.9480 H   0  0  0  0  0  0  0  0  0  0  0  0
  138.8047   72.1863  220.1123 H   0  0  0  0  0  0  0  0  0  0  0  0
  139.1020   69.5470  223.5380 N   0  0  0  0  0  0  0  0  0  0  0  0
  140.0290   69.2550  223.1530 H   0  0  0  0  0  0  0  0  0  0  0  0
  140.4070   70.0160  228.1450 C   0  0  0  0  0  0  0  0  0  0  0  0
  140.0335   69.3345  228.9235 H   0  0  0  0  0  0  0  0  0  0  0  0
  140.4280   71.3960  228.3760 C   0  0  0  0  0  0  0  0  0  0  0  0
  140.0549   71.7985  229.3293 H   0  0  0  0  0  0  0  0  0  0  0  0
  1  2  1  0
  2  3  2  0
  3  4  1  0
  3  5  1  0
  5  6  1  0
  5  7  2  0
  7  8  1  0
  8  9  1  0
  8 10  1  0
  8 11  1  0
 11 12  1  0
 11 13  1  0
 11 14  1  0
 14 15  2  0
 15 16  1  0
 16 17  2  0
 17 18  1  0
 18 19  1  0
 19 20  1  0
 19 21  1  0
 19 22  1  0
 22 23  2  0
 23 24  1  0
 23 25  1  0
 25 26  1  0
 25 27  2  0
 27 28  1  0
 27 29  1  0
 29 30  1  0
 29 31  2  0
 31 32  1  0
 32 33  1  0
 32 34  1  0
 32 35  1  0
 35 36  1  0
 35 37  1  0
 17 38  1  0
 38 39  2  0
 39 40  1  0
 40 41  1  0
 41 42  1  0
 41 43  1  0
 41 44  1  0
 44 45  1  0
 44 46  1  0
 44 47  1  0
 47 48  1  0
 47 49  1  0
 47 50  1  0
 50 51  1  0
 50 52  1  0
 50 53  1  0
 53 54  1  0
 53 55  1  0
 53 56  1  0
 56 57  1  0
 56 58  1  0
 39 59  1  0
 59 60  1  0
  7 61  1  0
 61 62  1  0
 61 63  2  0
 63 64  1  0
 63  2  1  0
 59 15  1  0
 35 18  1  0
 56 40  1  0
 31 22  1  0
M  CHG  1  50   1
M  END
>  <UniqueID>  (72) 
712

>  <SMILES>  (72) 
c1ccc(CC/N=c2\nc(N3CCc4ccccc4C3)nc(N3CCC[NH2+]CC3)[nH]2)cc1

>  <Energy>  (72) 
73.68142630792696

>  <Genealogy>  (72) 
c1ccc(CCNc2nc(N3CCC[NH2+]CC3)nc(N3CCc4ccccc4C3)n2)cc1 (protonated)
c1ccc(CCN=c2nc(N3CCc4ccccc4C3)nc(N3CCC[NH2+]CC3)[nH]2)cc1 (tautomer)
c1ccc(CC/N=c2\nc(N3CCc4ccccc4C3)nc(N3CCC[NH2+]CC3)[nH]2)cc1 (cis-trans isomerization)
c1ccc(CC/N=c2\nc(N3CCc4ccccc4C3)nc(N3CCC[NH2+]CC3)[nH]2)cc1 (3D coordinates assigned)
c1ccc(CC/N=c2\nc(N3CCc4ccccc4C3)nc(N3CCC[NH2+]CC3)[nH]2)cc1 (nonaromatic ring conformer: 73.68142630792696 kcal/mol)

>  <smiles>  (72) 
c1ccc(CCNc2nc(N3CCCNCC3)nc(N3CCc4ccccc4C3)n2)cc1

>  <score_type>  (72) 
oracle

>  <origin>  (72) 
autodockgpu

>  <m_score__min__energy>  (72) 
-7.3499999999999996

>  <m_primary>  (72) 
energy

>  <meeko>  (72) 
{"free_energy": -7.04, "intermolecular_energy": -10.62, "internal_energy": -1.62, "cluster_size": 2, "cluster_id": 3, "rank_in_cluster": 1}

>  <energy>  (72) 
-6.15

>  <cluster_rmsd>  (72) 
0.8

>  <rmsd>  (72) 
270.56

>  <cluster>  (72) 
4

$$$$
IBHRIKXMMSCQIV-DXVXUIDUNA-O
     RDKit          3D

 64 68  0  0  0  0  0  0  0  0999 V2000
  140.9253   70.3282  229.1572 H   0  0  0  0  0  0  0  0  0  0  0  0
  140.6400   70.4750  228.1050 C   0  0  0  0  0  0  0  0  0  0  0  0
  139.7990   69.5540  227.4730 C   0  0  0  0  0  0  0  0  0  0  0  0
  139.4094   68.6911  228.0330 H   0  0  0  0  0  0  0  0  0  0  0  0
  139.4530   69.7290  226.1300 C   0  0  0  0  0  0  0  0  0  0  0  0
  138.8029   68.9947  225.6319 H   0  0  0  0  0  0  0  0  0  0  0  0
  139.9330   70.8410  225.4120 C   0  0  0  0  0  0  0  0  0  0  0  0
  139.5340   71.0510  223.9770 C   0  0  0  0  0  0  0  0  0  0  0  0
  139.1432   70.1044  223.5754 H   0  0  0  0  0  0  0  0  0  0  0  0
  138.7699   71.8418  223.9503 H   0  0  0  0  0  0  0  0  0  0  0  0
  140.7150   71.5060  223.1100 C   0  0  0  0  0  0  0  0  0  0  0  0
  141.4298   72.0596  223.7365 H   0  0  0  0  0  0  0  0  0  0  0  0
  141.1950   70.6172  222.6744 H   0  0  0  0  0  0  0  0  0  0  0  0
  140.2590   72.3730  222.0220 N   0  0  0  0  0  0  0  0  0  0  0  0
  139.4230   73.3630  222.1440 C   0  0  0  0  0  0  0  0  0  0  0  0
  139.8650   74.6490  222.2270 N   0  0  0  0  0  0  0  0  0  0  0  0
  138.9890   75.6780  222.3680 C   0  0  0  0  0  0  0  0  0  0  0  0
  139.4580   77.0430  222.4430 N   0  0  0  0  0  0  0  0  0  0  0  0
  140.9000   77.3170  222.3190 C   0  0  0  0  0  0  0  0  0  0  0  0
  141.1793   77.2504  221.2571 H   0  0  0  0  0  0  0  0  0  0  0  0
  141.4301   76.5721  222.9307 H   0  0  0  0  0  0  0  0  0  0  0  0
  141.2880   78.6830  222.8340 C   0  0  0  0  0  0  0  0  0  0  0  0
  142.6390   79.0610  222.7900 C   0  0  0  0  0  0  0  0  0  0  0  0
  143.3861   78.3719  222.3693 H   0  0  0  0  0  0  0  0  0  0  0  0
  143.0410   80.3090  223.2780 C   0  0  0  0  0  0  0  0  0  0  0  0
  144.1023   80.5961  223.2438 H   0  0  0  0  0  0  0  0  0  0  0  0
  142.0980   81.1900  223.8080 C   0  0  0  0  0  0  0  0  0  0  0  0
  142.4173   82.1684  224.1963 H   0  0  0  0  0  0  0  0  0  0  0  0
  140.7500   80.8310  223.8460 C   0  0  0  0  0  0  0  0  0  0  0  0
  140.0106   81.5285  224.2664 H   0  0  0  0  0  0  0  0  0  0  0  0
  140.3310   79.5850  223.3510 C   0  0  0  0  0  0  0  0  0  0  0  0
  138.8820   79.1930  223.4560 C   0  0  0  0  0  0  0  0  0  0  0  0
  138.2562   80.0881  223.3251 H   0  0  0  0  0  0  0  0  0  0  0  0
  138.7094   78.7455  224.4459 H   0  0  0  0  0  0  0  0  0  0  0  0
  138.5180   78.1690  222.3880 C   0  0  0  0  0  0  0  0  0  0  0  0
  138.5701   78.6410  221.3958 H   0  0  0  0  0  0  0  0  0  0  0  0
  137.4972   77.8011  222.5683 H   0  0  0  0  0  0  0  0  0  0  0  0
  137.6590   75.4100  222.4310 N   0  0  0  0  0  0  0  0  0  0  0  0
  137.2070   74.1340  222.3500 C   0  0  0  0  0  0  0  0  0  0  0  0
  135.8020   73.8730  222.4070 N   0  0  0  0  0  0  0  0  0  0  0  0
  135.1770   73.6930  223.7230 C   0  0  0  0  0  0  0  0  0  0  0  0
  134.5040   72.8236  223.6874 H   0  0  0  0  0  0  0  0  0  0  0  0
  135.9674   73.5332  224.4712 H   0  0  0  0  0  0  0  0  0  0  0  0
  134.3730   74.9350  224.1140 C   0  0  0  0  0  0  0  0  0  0  0  0
  133.7595   74.6966  224.9953 H   0  0  0  0  0  0  0  0  0  0  0  0
  135.0861   75.7445  224.3291 H   0  0  0  0  0  0  0  0  0  0  0  0
  133.4500   75.4090  222.9830 C   0  0  0  0  0  0  0  0  0  0  0  0
  132.8916   74.5430  222.5980 H   0  0  0  0  0  0  0  0  0  0  0  0
  132.7777   76.1731  223.4005 H   0  0  0  0  0  0  0  0  0  0  0  0
  134.1880   76.0260  221.8700 N   0  0  0  0  0  0  0  0  0  0  0  0
  135.1020   76.4070  222.2050 H   0  0  0  0  0  0  0  0  0  0  0  0
  133.6200   76.8390  221.5370 H   0  0  0  0  0  0  0  0  0  0  0  0
  134.3780   75.1130  220.7280 C   0  0  0  0  0  0  0  0  0  0  0  0
  133.3936   74.8743  220.2992 H   0  0  0  0  0  0  0  0  0  0  0  0
  135.0242   75.6209  219.9969 H   0  0  0  0  0  0  0  0  0  0  0  0
  135.0710   73.8010  221.1340 C   0  0  0  0  0  0  0  0  0  0  0  0
  134.3031   73.0183  221.2213 H   0  0  0  0  0  0  0  0  0  0  0  0
  135.8159   73.5833  220.3544 H   0  0  0  0  0  0  0  0  0  0  0  0
  138.0880   73.1100  222.1990 N   0  0  0  0  0  0  0  0  0  0  0  0
  137.7360   72.1280  222.1380 H   0  0  0  0  0  0  0  0  0  0  0  0
  140.7590   71.7750  226.0590 C   0  0  0  0  0  0  0  0  0  0  0  0
  141.1233   72.6573  225.5124 H   0  0  0  0  0  0  0  0  0  0  0  0
  141.1190   71.5850  227.3970 C   0  0  0  0  0  0  0  0  0  0  0  0
  141.7803   72.3093  227.8950 H   0  0  0  0  0  0  0  0  0  0  0  0
  1  2  1  0
  2  3  2  0
  3  4  1  0
  3  5  1  0
  5  6  1  0
  5  7  2  0
  7  8  1  0
  8  9  1  0
  8 10  1  0
  8 11  1  0
 11 12  1  0
 11 13  1  0
 11 14  1  0
 14 15  2  0
 15 16  1  0
 16 17  2  0
 17 18  1  0
 18 19  1  0
 19 20  1  0
 19 21  1  0
 19 22  1  0
 22 23  2  0
 23 24  1  0
 23 25  1  0
 25 26  1  0
 25 27  2  0
 27 28  1  0
 27 29  1  0
 29 30  1  0
 29 31  2  0
 31 32  1  0
 32 33  1  0
 32 34  1  0
 32 35  1  0
 35 36  1  0
 35 37  1  0
 17 38  1  0
 38 39  2  0
 39 40  1  0
 40 41  1  0
 41 42  1  0
 41 43  1  0
 41 44  1  0
 44 45  1  0
 44 46  1  0
 44 47  1  0
 47 48  1  0
 47 49  1  0
 47 50  1  0
 50 51  1  0
 50 52  1  0
 50 53  1  0
 53 54  1  0
 53 55  1  0
 53 56  1  0
 56 57  1  0
 56 58  1  0
 39 59  1  0
 59 60  1  0
  7 61  1  0
 61 62  1  0
 61 63  2  0
 63 64  1  0
 63  2  1  0
 59 15  1  0
 35 18  1  0
 56 40  1  0
 31 22  1  0
M  CHG  1  50   1
M  END
>  <UniqueID>  (73) 
712

>  <SMILES>  (73) 
c1ccc(CC/N=c2\nc(N3CCc4ccccc4C3)nc(N3CCC[NH2+]CC3)[nH]2)cc1

>  <Energy>  (73) 
73.68142630792696

>  <Genealogy>  (73) 
c1ccc(CCNc2nc(N3CCC[NH2+]CC3)nc(N3CCc4ccccc4C3)n2)cc1 (protonated)
c1ccc(CCN=c2nc(N3CCc4ccccc4C3)nc(N3CCC[NH2+]CC3)[nH]2)cc1 (tautomer)
c1ccc(CC/N=c2\nc(N3CCc4ccccc4C3)nc(N3CCC[NH2+]CC3)[nH]2)cc1 (cis-trans isomerization)
c1ccc(CC/N=c2\nc(N3CCc4ccccc4C3)nc(N3CCC[NH2+]CC3)[nH]2)cc1 (3D coordinates assigned)
c1ccc(CC/N=c2\nc(N3CCc4ccccc4C3)nc(N3CCC[NH2+]CC3)[nH]2)cc1 (nonaromatic ring conformer: 73.68142630792696 kcal/mol)

>  <smiles>  (73) 
c1ccc(CCNc2nc(N3CCCNCC3)nc(N3CCc4ccccc4C3)n2)cc1

>  <score_type>  (73) 
oracle

>  <origin>  (73) 
autodockgpu

>  <m_score__min__energy>  (73) 
-7.3499999999999996

>  <m_primary>  (73) 
energy

>  <meeko>  (73) 
{"free_energy": -6.18, "intermolecular_energy": -9.76, "internal_energy": -1.25, "cluster_size": 2, "cluster_id": 4, "rank_in_cluster": 1}

>  <energy>  (73) 
-6.08

>  <cluster_rmsd>  (73) 
0.0

>  <rmsd>  (73) 
270.14

>  <cluster>  (73) 
5

$$$$
IBHRIKXMMSCQIV-DXVXUIDUNA-O
     RDKit          3D

 64 68  0  0  0  0  0  0  0  0999 V2000
  142.8109   77.1994  218.2732 H   0  0  0  0  0  0  0  0  0  0  0  0
  143.2990   76.2590  218.5690 C   0  0  0  0  0  0  0  0  0  0  0  0
  143.5050   75.2510  217.6230 C   0  0  0  0  0  0  0  0  0  0  0  0
  143.1930   75.4038  216.5793 H   0  0  0  0  0  0  0  0  0  0  0  0
  144.1080   74.0480  218.0040 C   0  0  0  0  0  0  0  0  0  0  0  0
  144.2578   73.2512  217.2605 H   0  0  0  0  0  0  0  0  0  0  0  0
  144.5240   73.8520  219.3340 C   0  0  0  0  0  0  0  0  0  0  0  0
  145.2040   72.5720  219.7380 C   0  0  0  0  0  0  0  0  0  0  0  0
  145.6990   72.1395  218.8560 H   0  0  0  0  0  0  0  0  0  0  0  0
  145.9321   72.8095  220.5276 H   0  0  0  0  0  0  0  0  0  0  0  0
  144.2130   71.5460  220.3020 C   0  0  0  0  0  0  0  0  0  0  0  0
  144.4443   70.5547  219.8851 H   0  0  0  0  0  0  0  0  0  0  0  0
  144.3060   71.5324  221.3980 H   0  0  0  0  0  0  0  0  0  0  0  0
  142.8370   71.9040  219.9530 N   0  0  0  0  0  0  0  0  0  0  0  0
  141.9570   72.4080  220.7700 C   0  0  0  0  0  0  0  0  0  0  0  0
  141.4880   71.6890  221.8270 N   0  0  0  0  0  0  0  0  0  0  0  0
  140.5600   72.2150  222.6690 C   0  0  0  0  0  0  0  0  0  0  0  0
  140.0720   71.4560  223.7990 N   0  0  0  0  0  0  0  0  0  0  0  0
  140.6430   71.7030  225.1330 C   0  0  0  0  0  0  0  0  0  0  0  0
  140.2087   72.6307  225.5338 H   0  0  0  0  0  0  0  0  0  0  0  0
  141.7341   71.7776  225.0150 H   0  0  0  0  0  0  0  0  0  0  0  0
  140.3700   70.5830  226.1090 C   0  0  0  0  0  0  0  0  0  0  0  0
  140.8770   70.6860  227.4130 C   0  0  0  0  0  0  0  0  0  0  0  0
  141.4463   71.5797  227.7084 H   0  0  0  0  0  0  0  0  0  0  0  0
  140.6640   69.6610  228.3400 C   0  0  0  0  0  0  0  0  0  0  0  0
  141.0683   69.7489  229.3592 H   0  0  0  0  0  0  0  0  0  0  0  0
  139.9390   68.5270  227.9730 C   0  0  0  0  0  0  0  0  0  0  0  0
  139.7777   67.7189  228.7017 H   0  0  0  0  0  0  0  0  0  0  0  0
  139.4180   68.4160  226.6830 C   0  0  0  0  0  0  0  0  0  0  0  0
  138.8486   67.5190  226.3983 H   0  0  0  0  0  0  0  0  0  0  0  0
  139.6170   69.4440  225.7460 C   0  0  0  0  0  0  0  0  0  0  0  0
  139.0990   69.2790  224.3430 C   0  0  0  0  0  0  0  0  0  0  0  0
  138.1515   68.7209  224.3720 H   0  0  0  0  0  0  0  0  0  0  0  0
  139.8488   68.7314  223.7531 H   0  0  0  0  0  0  0  0  0  0  0  0
  138.8600   70.6350  223.6900 C   0  0  0  0  0  0  0  0  0  0  0  0
  138.0268   71.1435  224.1972 H   0  0  0  0  0  0  0  0  0  0  0  0
  138.6121   70.4899  222.6282 H   0  0  0  0  0  0  0  0  0  0  0  0
  140.0970   73.4710  222.4410 N   0  0  0  0  0  0  0  0  0  0  0  0
  140.5560   74.1960  221.3910 C   0  0  0  0  0  0  0  0  0  0  0  0
  140.0640   75.5220  221.1730 N   0  0  0  0  0  0  0  0  0  0  0  0
  139.6340   76.3080  222.3350 C   0  0  0  0  0  0  0  0  0  0  0  0
  138.7245   76.8693  222.0747 H   0  0  0  0  0  0  0  0  0  0  0  0
  139.4331   75.6220  223.1711 H   0  0  0  0  0  0  0  0  0  0  0  0
  140.7280   77.2920  222.7580 C   0  0  0  0  0  0  0  0  0  0  0  0
  140.4976   77.6629  223.7676 H   0  0  0  0  0  0  0  0  0  0  0  0
  141.6878   76.7552  222.7333 H   0  0  0  0  0  0  0  0  0  0  0  0
  140.8400   78.4900  221.8080 C   0  0  0  0  0  0  0  0  0  0  0  0
  139.8623   78.9915  221.7576 H   0  0  0  0  0  0  0  0  0  0  0  0
  141.6198   79.1565  222.2051 H   0  0  0  0  0  0  0  0  0  0  0  0
  141.2400   78.1010  220.4460 N   0  0  0  0  0  0  0  0  0  0  0  0
  142.0500   77.4400  220.4780 H   0  0  0  0  0  0  0  0  0  0  0  0
  141.5700   78.9680  219.9640 H   0  0  0  0  0  0  0  0  0  0  0  0
  140.1270   77.5420  219.6560 C   0  0  0  0  0  0  0  0  0  0  0  0
  139.1856   77.9917  220.0047 H   0  0  0  0  0  0  0  0  0  0  0  0
  140.3172   77.7743  218.5978 H   0  0  0  0  0  0  0  0  0  0  0  0
  140.0230   76.0130  219.7890 C   0  0  0  0  0  0  0  0  0  0  0  0
  139.0727   75.6919  219.3376 H   0  0  0  0  0  0  0  0  0  0  0  0
  140.9023   75.5921  219.2794 H   0  0  0  0  0  0  0  0  0  0  0  0
  141.4910   73.6680  220.5580 N   0  0  0  0  0  0  0  0  0  0  0  0
  141.8420   74.2300  219.7500 H   0  0  0  0  0  0  0  0  0  0  0  0
  144.3340   74.8780  220.2740 C   0  0  0  0  0  0  0  0  0  0  0  0
  144.6737   74.7419  221.3113 H   0  0  0  0  0  0  0  0  0  0  0  0
  143.7140   76.0720  219.8940 C   0  0  0  0  0  0  0  0  0  0  0  0
  143.5516   76.8666  220.6371 H   0  0  0  0  0  0  0  0  0  0  0  0
  1  2  1  0
  2  3  2  0
  3  4  1  0
  3  5  1  0
  5  6  1  0
  5  7  2  0
  7  8  1  0
  8  9  1  0
  8 10  1  0
  8 11  1  0
 11 12  1  0
 11 13  1  0
 11 14  1  0
 14 15  2  0
 15 16  1  0
 16 17  2  0
 17 18  1  0
 18 19  1  0
 19 20  1  0
 19 21  1  0
 19 22  1  0
 22 23  2  0
 23 24  1  0
 23 25  1  0
 25 26  1  0
 25 27  2  0
 27 28  1  0
 27 29  1  0
 29 30  1  0
 29 31  2  0
 31 32  1  0
 32 33  1  0
 32 34  1  0
 32 35  1  0
 35 36  1  0
 35 37  1  0
 17 38  1  0
 38 39  2  0
 39 40  1  0
 40 41  1  0
 41 42  1  0
 41 43  1  0
 41 44  1  0
 44 45  1  0
 44 46  1  0
 44 47  1  0
 47 48  1  0
 47 49  1  0
 47 50  1  0
 50 51  1  0
 50 52  1  0
 50 53  1  0
 53 54  1  0
 53 55  1  0
 53 56  1  0
 56 57  1  0
 56 58  1  0
 39 59  1  0
 59 60  1  0
  7 61  1  0
 61 62  1  0
 61 63  2  0
 63 64  1  0
 63  2  1  0
 59 15  1  0
 35 18  1  0
 56 40  1  0
 31 22  1  0
M  CHG  1  50   1
M  END
>  <UniqueID>  (74) 
712

>  <SMILES>  (74) 
c1ccc(CC/N=c2\nc(N3CCc4ccccc4C3)nc(N3CCC[NH2+]CC3)[nH]2)cc1

>  <Energy>  (74) 
73.68142630792696

>  <Genealogy>  (74) 
c1ccc(CCNc2nc(N3CCC[NH2+]CC3)nc(N3CCc4ccccc4C3)n2)cc1 (protonated)
c1ccc(CCN=c2nc(N3CCc4ccccc4C3)nc(N3CCC[NH2+]CC3)[nH]2)cc1 (tautomer)
c1ccc(CC/N=c2\nc(N3CCc4ccccc4C3)nc(N3CCC[NH2+]CC3)[nH]2)cc1 (cis-trans isomerization)
c1ccc(CC/N=c2\nc(N3CCc4ccccc4C3)nc(N3CCC[NH2+]CC3)[nH]2)cc1 (3D coordinates assigned)
c1ccc(CC/N=c2\nc(N3CCc4ccccc4C3)nc(N3CCC[NH2+]CC3)[nH]2)cc1 (nonaromatic ring conformer: 73.68142630792696 kcal/mol)

>  <smiles>  (74) 
c1ccc(CCNc2nc(N3CCCNCC3)nc(N3CCc4ccccc4C3)n2)cc1

>  <score_type>  (74) 
oracle

>  <origin>  (74) 
autodockgpu

>  <m_score__min__energy>  (74) 
-7.3499999999999996

>  <m_primary>  (74) 
energy

>  <meeko>  (74) 
{"free_energy": -5.67, "intermolecular_energy": -9.25, "internal_energy": -1.7, "cluster_size": 5, "cluster_id": 2, "rank_in_cluster": 5}

>  <energy>  (74) 
-5.82

>  <cluster_rmsd>  (74) 
0.0

>  <rmsd>  (74) 
270.34

>  <cluster>  (74) 
6

$$$$
IBHRIKXMMSCQIV-DXVXUIDUNA-O
     RDKit          3D

 64 68  0  0  0  0  0  0  0  0999 V2000
  141.2688   77.6220  223.5785 H   0  0  0  0  0  0  0  0  0  0  0  0
  141.3130   78.6670  223.2380 C   0  0  0  0  0  0  0  0  0  0  0  0
  140.1920   79.4920  223.3670 C   0  0  0  0  0  0  0  0  0  0  0  0
  139.2708   79.1011  223.8238 H   0  0  0  0  0  0  0  0  0  0  0  0
  140.2420   80.8150  222.9150 C   0  0  0  0  0  0  0  0  0  0  0  0
  139.3541   81.4581  223.0047 H   0  0  0  0  0  0  0  0  0  0  0  0
  141.4230   81.3270  222.3460 C   0  0  0  0  0  0  0  0  0  0  0  0
  141.4910   82.7590  221.8920 C   0  0  0  0  0  0  0  0  0  0  0  0
  141.5831   83.4073  222.7759 H   0  0  0  0  0  0  0  0  0  0  0  0
  142.3620   82.8629  221.2283 H   0  0  0  0  0  0  0  0  0  0  0  0
  140.2430   83.1740  221.1020 C   0  0  0  0  0  0  0  0  0  0  0  0
  139.5279   82.3382  221.0927 H   0  0  0  0  0  0  0  0  0  0  0  0
  139.7968   84.0552  221.5862 H   0  0  0  0  0  0  0  0  0  0  0  0
  140.5910   83.5230  219.7230 N   0  0  0  0  0  0  0  0  0  0  0  0
  141.0470   82.6960  218.8260 C   0  0  0  0  0  0  0  0  0  0  0  0
  141.1290   81.3600  219.0800 N   0  0  0  0  0  0  0  0  0  0  0  0
  141.6170   80.5030  218.1460 C   0  0  0  0  0  0  0  0  0  0  0  0
  141.6930   79.0840  218.4110 N   0  0  0  0  0  0  0  0  0  0  0  0
  140.7470   78.4790  219.3640 C   0  0  0  0  0  0  0  0  0  0  0  0
  139.7735   78.3620  218.8653 H   0  0  0  0  0  0  0  0  0  0  0  0
  140.6839   79.1478  220.2350 H   0  0  0  0  0  0  0  0  0  0  0  0
  141.1980   77.1260  219.8640 C   0  0  0  0  0  0  0  0  0  0  0  0
  140.3940   76.4500  220.7940 C   0  0  0  0  0  0  0  0  0  0  0  0
  139.4486   76.9015  221.1292 H   0  0  0  0  0  0  0  0  0  0  0  0
  140.7870   75.2050  221.2980 C   0  0  0  0  0  0  0  0  0  0  0  0
  140.1527   74.6828  222.0294 H   0  0  0  0  0  0  0  0  0  0  0  0
  141.9830   74.6260  220.8730 C   0  0  0  0  0  0  0  0  0  0  0  0
  142.2937   73.6504  221.2749 H   0  0  0  0  0  0  0  0  0  0  0  0
  142.7860   75.2820  219.9390 C   0  0  0  0  0  0  0  0  0  0  0  0
  143.7287   74.8213  219.6087 H   0  0  0  0  0  0  0  0  0  0  0  0
  142.3970   76.5280  219.4180 C   0  0  0  0  0  0  0  0  0  0  0  0
  143.3060   77.2470  218.4590 C   0  0  0  0  0  0  0  0  0  0  0  0
  143.8176   76.5082  217.8246 H   0  0  0  0  0  0  0  0  0  0  0  0
  144.0389   77.8287  219.0373 H   0  0  0  0  0  0  0  0  0  0  0  0
  142.5140   78.2020  217.5740 C   0  0  0  0  0  0  0  0  0  0  0  0
  141.8621   77.6234  216.9030 H   0  0  0  0  0  0  0  0  0  0  0  0
  143.2108   78.8095  216.9778 H   0  0  0  0  0  0  0  0  0  0  0  0
  142.0310   80.9950  216.9490 N   0  0  0  0  0  0  0  0  0  0  0  0
  141.9550   82.3240  216.6850 C   0  0  0  0  0  0  0  0  0  0  0  0
  142.3850   82.8220  215.4150 N   0  0  0  0  0  0  0  0  0  0  0  0
  143.1470   84.0750  215.3770 C   0  0  0  0  0  0  0  0  0  0  0  0
  142.4469   84.9234  215.3679 H   0  0  0  0  0  0  0  0  0  0  0  0
  143.7932   84.1235  216.2659 H   0  0  0  0  0  0  0  0  0  0  0  0
  144.0260   84.1350  214.1250 C   0  0  0  0  0  0  0  0  0  0  0  0
  143.3838   84.0281  213.2383 H   0  0  0  0  0  0  0  0  0  0  0  0
  144.5503   85.1020  214.1323 H   0  0  0  0  0  0  0  0  0  0  0  0
  145.0930   83.0270  214.0970 C   0  0  0  0  0  0  0  0  0  0  0  0
  145.6871   83.1329  213.1773 H   0  0  0  0  0  0  0  0  0  0  0  0
  145.7155   83.1405  214.9968 H   0  0  0  0  0  0  0  0  0  0  0  0
  144.5070   81.6780  214.1270 N   0  0  0  0  0  0  0  0  0  0  0  0
  144.3920   81.3510  215.1140 H   0  0  0  0  0  0  0  0  0  0  0  0
  145.1930   81.0340  213.6690 H   0  0  0  0  0  0  0  0  0  0  0  0
  143.2370   81.5830  213.3830 C   0  0  0  0  0  0  0  0  0  0  0  0
  143.3039   82.2176  212.4870 H   0  0  0  0  0  0  0  0  0  0  0  0
  143.0814   80.5269  213.1175 H   0  0  0  0  0  0  0  0  0  0  0  0
  142.0310   82.0390  214.2230 C   0  0  0  0  0  0  0  0  0  0  0  0
  141.3812   82.6567  213.5857 H   0  0  0  0  0  0  0  0  0  0  0  0
  141.5344   81.1256  214.5825 H   0  0  0  0  0  0  0  0  0  0  0  0
  141.4560   83.1740  217.6210 N   0  0  0  0  0  0  0  0  0  0  0  0
  141.3990   84.1970  217.4130 H   0  0  0  0  0  0  0  0  0  0  0  0
  142.5530   80.4990  222.2410 C   0  0  0  0  0  0  0  0  0  0  0  0
  143.4869   80.8961  221.8165 H   0  0  0  0  0  0  0  0  0  0  0  0
  142.4930   79.1710  222.6750 C   0  0  0  0  0  0  0  0  0  0  0  0
  143.3743   78.5205  222.5742 H   0  0  0  0  0  0  0  0  0  0  0  0
  1  2  1  0
  2  3  2  0
  3  4  1  0
  3  5  1  0
  5  6  1  0
  5  7  2  0
  7  8  1  0
  8  9  1  0
  8 10  1  0
  8 11  1  0
 11 12  1  0
 11 13  1  0
 11 14  1  0
 14 15  2  0
 15 16  1  0
 16 17  2  0
 17 18  1  0
 18 19  1  0
 19 20  1  0
 19 21  1  0
 19 22  1  0
 22 23  2  0
 23 24  1  0
 23 25  1  0
 25 26  1  0
 25 27  2  0
 27 28  1  0
 27 29  1  0
 29 30  1  0
 29 31  2  0
 31 32  1  0
 32 33  1  0
 32 34  1  0
 32 35  1  0
 35 36  1  0
 35 37  1  0
 17 38  1  0
 38 39  2  0
 39 40  1  0
 40 41  1  0
 41 42  1  0
 41 43  1  0
 41 44  1  0
 44 45  1  0
 44 46  1  0
 44 47  1  0
 47 48  1  0
 47 49  1  0
 47 50  1  0
 50 51  1  0
 50 52  1  0
 50 53  1  0
 53 54  1  0
 53 55  1  0
 53 56  1  0
 56 57  1  0
 56 58  1  0
 39 59  1  0
 59 60  1  0
  7 61  1  0
 61 62  1  0
 61 63  2  0
 63 64  1  0
 63  2  1  0
 59 15  1  0
 35 18  1  0
 56 40  1  0
 31 22  1  0
M  CHG  1  50   1
M  END
>  <UniqueID>  (75) 
712

>  <SMILES>  (75) 
c1ccc(CC/N=c2\nc(N3CCc4ccccc4C3)nc(N3CCC[NH2+]CC3)[nH]2)cc1

>  <Energy>  (75) 
73.68142630792696

>  <Genealogy>  (75) 
c1ccc(CCNc2nc(N3CCC[NH2+]CC3)nc(N3CCc4ccccc4C3)n2)cc1 (protonated)
c1ccc(CCN=c2nc(N3CCc4ccccc4C3)nc(N3CCC[NH2+]CC3)[nH]2)cc1 (tautomer)
c1ccc(CC/N=c2\nc(N3CCc4ccccc4C3)nc(N3CCC[NH2+]CC3)[nH]2)cc1 (cis-trans isomerization)
c1ccc(CC/N=c2\nc(N3CCc4ccccc4C3)nc(N3CCC[NH2+]CC3)[nH]2)cc1 (3D coordinates assigned)
c1ccc(CC/N=c2\nc(N3CCc4ccccc4C3)nc(N3CCC[NH2+]CC3)[nH]2)cc1 (nonaromatic ring conformer: 73.68142630792696 kcal/mol)

>  <smiles>  (75) 
c1ccc(CCNc2nc(N3CCCNCC3)nc(N3CCc4ccccc4C3)n2)cc1

>  <score_type>  (75) 
oracle

>  <origin>  (75) 
autodockgpu

>  <m_score__min__energy>  (75) 
-7.3499999999999996

>  <m_primary>  (75) 
energy

>  <meeko>  (75) 
{"free_energy": -4.97, "intermolecular_energy": -8.55, "internal_energy": -2.17, "cluster_size": 4, "cluster_id": 8, "rank_in_cluster": 3}

>  <energy>  (75) 
-5.68

>  <cluster_rmsd>  (75) 
0.0

>  <rmsd>  (75) 
270.33

>  <cluster>  (75) 
7

$$$$
IBHRIKXMMSCQIV-DXVXUIDUNA-O
     RDKit          3D

 64 68  0  0  0  0  0  0  0  0999 V2000
  142.8137   81.4839  223.3126 H   0  0  0  0  0  0  0  0  0  0  0  0
  142.1020   80.6540  223.1910 C   0  0  0  0  0  0  0  0  0  0  0  0
  142.5490   79.3330  223.2730 C   0  0  0  0  0  0  0  0  0  0  0  0
  143.6098   79.1228  223.4744 H   0  0  0  0  0  0  0  0  0  0  0  0
  141.6480   78.2780  223.0990 C   0  0  0  0  0  0  0  0  0  0  0  0
  142.0053   77.2389  223.1507 H   0  0  0  0  0  0  0  0  0  0  0  0
  140.2860   78.5390  222.8580 C   0  0  0  0  0  0  0  0  0  0  0  0
  139.3090   77.4070  222.7050 C   0  0  0  0  0  0  0  0  0  0  0  0
  139.7094   76.5212  223.2198 H   0  0  0  0  0  0  0  0  0  0  0  0
  138.3515   77.7252  223.1430 H   0  0  0  0  0  0  0  0  0  0  0  0
  139.0600   77.0530  221.2340 C   0  0  0  0  0  0  0  0  0  0  0  0
  138.1837   77.6111  220.8725 H   0  0  0  0  0  0  0  0  0  0  0  0
  139.9535   77.3219  220.6514 H   0  0  0  0  0  0  0  0  0  0  0  0
  138.8130   75.6180  221.0770 N   0  0  0  0  0  0  0  0  0  0  0  0
  139.6520   74.6690  221.3790 C   0  0  0  0  0  0  0  0  0  0  0  0
  139.3440   73.7330  222.3190 N   0  0  0  0  0  0  0  0  0  0  0  0
  140.2280   72.7520  222.6400 C   0  0  0  0  0  0  0  0  0  0  0  0
  139.8950   71.7510  223.6280 N   0  0  0  0  0  0  0  0  0  0  0  0
  140.5460   71.7980  224.9480 C   0  0  0  0  0  0  0  0  0  0  0  0
  140.0683   72.5876  225.5466 H   0  0  0  0  0  0  0  0  0  0  0  0
  141.6145   71.9991  224.7811 H   0  0  0  0  0  0  0  0  0  0  0  0
  140.4440   70.4930  225.7030 C   0  0  0  0  0  0  0  0  0  0  0  0
  141.0420   70.3990  226.9690 C   0  0  0  0  0  0  0  0  0  0  0  0
  141.5560   71.2725  227.3966 H   0  0  0  0  0  0  0  0  0  0  0  0
  140.9890   69.2020  227.6910 C   0  0  0  0  0  0  0  0  0  0  0  0
  141.4630   69.1358  228.6814 H   0  0  0  0  0  0  0  0  0  0  0  0
  140.3350   68.0920  227.1550 C   0  0  0  0  0  0  0  0  0  0  0  0
  140.2994   67.1496  227.7212 H   0  0  0  0  0  0  0  0  0  0  0  0
  139.7260   68.1750  225.9020 C   0  0  0  0  0  0  0  0  0  0  0  0
  139.2135   67.2962  225.4836 H   0  0  0  0  0  0  0  0  0  0  0  0
  139.7640   69.3750  225.1720 C   0  0  0  0  0  0  0  0  0  0  0  0
  139.1540   69.4270  223.7980 C   0  0  0  0  0  0  0  0  0  0  0  0
  138.2622   68.7834  223.7752 H   0  0  0  0  0  0  0  0  0  0  0  0
  139.8993   69.0764  223.0689 H   0  0  0  0  0  0  0  0  0  0  0  0
  138.7510   70.8510  223.4360 C   0  0  0  0  0  0  0  0  0  0  0  0
  137.9205   71.1718  224.0820 H   0  0  0  0  0  0  0  0  0  0  0  0
  138.4331   70.8841  222.3835 H   0  0  0  0  0  0  0  0  0  0  0  0
  141.4330   72.7180  222.0150 N   0  0  0  0  0  0  0  0  0  0  0  0
  141.7520   73.6460  221.0780 C   0  0  0  0  0  0  0  0  0  0  0  0
  143.0220   73.5860  220.4220 N   0  0  0  0  0  0  0  0  0  0  0  0
  143.3280   74.5920  219.3980 C   0  0  0  0  0  0  0  0  0  0  0  0
  142.3970   75.0932  219.0946 H   0  0  0  0  0  0  0  0  0  0  0  0
  144.0346   75.3221  219.8194 H   0  0  0  0  0  0  0  0  0  0  0  0
  143.9690   73.9380  218.1720 C   0  0  0  0  0  0  0  0  0  0  0  0
  143.2620   73.2084  217.7503 H   0  0  0  0  0  0  0  0  0  0  0  0
  144.2035   74.7344  217.4504 H   0  0  0  0  0  0  0  0  0  0  0  0
  145.2820   73.2130  218.5150 C   0  0  0  0  0  0  0  0  0  0  0  0
  145.0739   72.1372  218.6122 H   0  0  0  0  0  0  0  0  0  0  0  0
  145.9953   73.4202  217.7037 H   0  0  0  0  0  0  0  0  0  0  0  0
  145.8880   73.6890  219.7680 N   0  0  0  0  0  0  0  0  0  0  0  0
  145.7430   74.7190  219.8760 H   0  0  0  0  0  0  0  0  0  0  0  0
  146.9190   73.5310  219.6900 H   0  0  0  0  0  0  0  0  0  0  0  0
  145.4100   72.9560  220.9550 C   0  0  0  0  0  0  0  0  0  0  0  0
  146.0370   72.0631  221.0946 H   0  0  0  0  0  0  0  0  0  0  0  0
  145.4771   73.6354  221.8175 H   0  0  0  0  0  0  0  0  0  0  0  0
  143.9430   72.5130  220.8210 C   0  0  0  0  0  0  0  0  0  0  0  0
  143.8915   71.7157  220.0649 H   0  0  0  0  0  0  0  0  0  0  0  0
  143.6227   72.1773  221.8183 H   0  0  0  0  0  0  0  0  0  0  0  0
  140.8590   74.6180  220.7540 N   0  0  0  0  0  0  0  0  0  0  0  0
  141.1090   75.3310  220.0320 H   0  0  0  0  0  0  0  0  0  0  0  0
  139.8400   79.8700  222.7990 C   0  0  0  0  0  0  0  0  0  0  0  0
  138.7744   80.0849  222.6305 H   0  0  0  0  0  0  0  0  0  0  0  0
  140.7480   80.9220  222.9540 C   0  0  0  0  0  0  0  0  0  0  0  0
  140.3979   81.9628  222.8896 H   0  0  0  0  0  0  0  0  0  0  0  0
  1  2  1  0
  2  3  2  0
  3  4  1  0
  3  5  1  0
  5  6  1  0
  5  7  2  0
  7  8  1  0
  8  9  1  0
  8 10  1  0
  8 11  1  0
 11 12  1  0
 11 13  1  0
 11 14  1  0
 14 15  2  0
 15 16  1  0
 16 17  2  0
 17 18  1  0
 18 19  1  0
 19 20  1  0
 19 21  1  0
 19 22  1  0
 22 23  2  0
 23 24  1  0
 23 25  1  0
 25 26  1  0
 25 27  2  0
 27 28  1  0
 27 29  1  0
 29 30  1  0
 29 31  2  0
 31 32  1  0
 32 33  1  0
 32 34  1  0
 32 35  1  0
 35 36  1  0
 35 37  1  0
 17 38  1  0
 38 39  2  0
 39 40  1  0
 40 41  1  0
 41 42  1  0
 41 43  1  0
 41 44  1  0
 44 45  1  0
 44 46  1  0
 44 47  1  0
 47 48  1  0
 47 49  1  0
 47 50  1  0
 50 51  1  0
 50 52  1  0
 50 53  1  0
 53 54  1  0
 53 55  1  0
 53 56  1  0
 56 57  1  0
 56 58  1  0
 39 59  1  0
 59 60  1  0
  7 61  1  0
 61 62  1  0
 61 63  2  0
 63 64  1  0
 63  2  1  0
 59 15  1  0
 35 18  1  0
 56 40  1  0
 31 22  1  0
M  CHG  1  50   1
M  END
>  <UniqueID>  (76) 
712

>  <SMILES>  (76) 
c1ccc(CC/N=c2\nc(N3CCc4ccccc4C3)nc(N3CCC[NH2+]CC3)[nH]2)cc1

>  <Energy>  (76) 
73.68142630792696

>  <Genealogy>  (76) 
c1ccc(CCNc2nc(N3CCC[NH2+]CC3)nc(N3CCc4ccccc4C3)n2)cc1 (protonated)
c1ccc(CCN=c2nc(N3CCc4ccccc4C3)nc(N3CCC[NH2+]CC3)[nH]2)cc1 (tautomer)
c1ccc(CC/N=c2\nc(N3CCc4ccccc4C3)nc(N3CCC[NH2+]CC3)[nH]2)cc1 (cis-trans isomerization)
c1ccc(CC/N=c2\nc(N3CCc4ccccc4C3)nc(N3CCC[NH2+]CC3)[nH]2)cc1 (3D coordinates assigned)
c1ccc(CC/N=c2\nc(N3CCc4ccccc4C3)nc(N3CCC[NH2+]CC3)[nH]2)cc1 (nonaromatic ring conformer: 73.68142630792696 kcal/mol)

>  <smiles>  (76) 
c1ccc(CCNc2nc(N3CCCNCC3)nc(N3CCc4ccccc4C3)n2)cc1

>  <score_type>  (76) 
oracle

>  <origin>  (76) 
autodockgpu

>  <m_score__min__energy>  (76) 
-7.3499999999999996

>  <m_primary>  (76) 
energy

>  <meeko>  (76) 
{"free_energy": -6.2, "intermolecular_energy": -9.78, "internal_energy": -0.92, "cluster_size": 3, "cluster_id": 1, "rank_in_cluster": 2}

>  <energy>  (76) 
-5.16

>  <cluster_rmsd>  (76) 
0.0

>  <rmsd>  (76) 
270.33

>  <cluster>  (76) 
8

$$$$
IBHRIKXMMSCQIV-DXVXUIDUNA-O
     RDKit          3D

 64 68  0  0  0  0  0  0  0  0999 V2000
  145.6676   74.7918  220.0860 H   0  0  0  0  0  0  0  0  0  0  0  0
  145.1570   73.8250  219.9650 C   0  0  0  0  0  0  0  0  0  0  0  0
  144.7340   73.1130  221.0900 C   0  0  0  0  0  0  0  0  0  0  0  0
  144.8971   73.5267  222.0961 H   0  0  0  0  0  0  0  0  0  0  0  0
  144.1030   71.8740  220.9370 C   0  0  0  0  0  0  0  0  0  0  0  0
  143.7835   71.3090  221.8251 H   0  0  0  0  0  0  0  0  0  0  0  0
  143.8750   71.3470  219.6520 C   0  0  0  0  0  0  0  0  0  0  0  0
  143.1650   70.0320  219.4830 C   0  0  0  0  0  0  0  0  0  0  0  0
  143.9013   69.2651  219.2008 H   0  0  0  0  0  0  0  0  0  0  0  0
  142.6775   69.7852  220.4377 H   0  0  0  0  0  0  0  0  0  0  0  0
  142.0790   70.0970  218.4010 C   0  0  0  0  0  0  0  0  0  0  0  0
  142.4428   70.7075  217.5613 H   0  0  0  0  0  0  0  0  0  0  0  0
  141.8567   69.0741  218.0631 H   0  0  0  0  0  0  0  0  0  0  0  0
  140.8510   70.6930  218.9310 N   0  0  0  0  0  0  0  0  0  0  0  0
  140.7740   71.4620  219.9780 C   0  0  0  0  0  0  0  0  0  0  0  0
  140.4350   70.9560  221.1970 N   0  0  0  0  0  0  0  0  0  0  0  0
  140.3430   71.7650  222.2850 C   0  0  0  0  0  0  0  0  0  0  0  0
  139.9960   71.2250  223.5800 N   0  0  0  0  0  0  0  0  0  0  0  0
  140.6350   71.7790  224.7860 C   0  0  0  0  0  0  0  0  0  0  0  0
  140.1560   72.7395  225.0268 H   0  0  0  0  0  0  0  0  0  0  0  0
  141.7061   71.8983  224.5657 H   0  0  0  0  0  0  0  0  0  0  0  0
  140.5190   70.8690  225.9860 C   0  0  0  0  0  0  0  0  0  0  0  0
  141.1050   71.2720  227.1960 C   0  0  0  0  0  0  0  0  0  0  0  0
  141.6197   72.2422  227.2572 H   0  0  0  0  0  0  0  0  0  0  0  0
  141.0390   70.4480  228.3250 C   0  0  0  0  0  0  0  0  0  0  0  0
  141.5041   70.7696  229.2685 H   0  0  0  0  0  0  0  0  0  0  0  0
  140.3830   69.2180  228.2540 C   0  0  0  0  0  0  0  0  0  0  0  0
  140.3365   68.5685  229.1405 H   0  0  0  0  0  0  0  0  0  0  0  0
  139.7860   68.8110  227.0600 C   0  0  0  0  0  0  0  0  0  0  0  0
  139.2722   67.8397  227.0093 H   0  0  0  0  0  0  0  0  0  0  0  0
  139.8370   69.6340  225.9220 C   0  0  0  0  0  0  0  0  0  0  0  0
  139.2400   69.1500  224.6290 C   0  0  0  0  0  0  0  0  0  0  0  0
  138.3446   68.5497  224.8480 H   0  0  0  0  0  0  0  0  0  0  0  0
  139.9897   68.5424  224.1010 H   0  0  0  0  0  0  0  0  0  0  0  0
  138.8490   70.3230  223.7390 C   0  0  0  0  0  0  0  0  0  0  0  0
  138.0142   70.8705  224.2009 H   0  0  0  0  0  0  0  0  0  0  0  0
  138.5415   69.9460  222.7524 H   0  0  0  0  0  0  0  0  0  0  0  0
  140.5890   73.0930  222.1440 N   0  0  0  0  0  0  0  0  0  0  0  0
  140.9260   73.6080  220.9350 C   0  0  0  0  0  0  0  0  0  0  0  0
  141.1920   75.0090  220.8080 N   0  0  0  0  0  0  0  0  0  0  0  0
  141.5790   75.5300  219.4920 C   0  0  0  0  0  0  0  0  0  0  0  0
  141.9651   74.7046  218.8759 H   0  0  0  0  0  0  0  0  0  0  0  0
  140.6956   75.9802  219.0156 H   0  0  0  0  0  0  0  0  0  0  0  0
  142.6630   76.6020  219.6330 C   0  0  0  0  0  0  0  0  0  0  0  0
  143.3326   76.3210  220.4592 H   0  0  0  0  0  0  0  0  0  0  0  0
  143.2049   76.6594  218.6775 H   0  0  0  0  0  0  0  0  0  0  0  0
  142.0780   77.9880  219.9230 C   0  0  0  0  0  0  0  0  0  0  0  0
  142.8308   78.7479  219.6665 H   0  0  0  0  0  0  0  0  0  0  0  0
  141.1663   78.0960  219.3171 H   0  0  0  0  0  0  0  0  0  0  0  0
  141.6960   78.1620  221.3330 N   0  0  0  0  0  0  0  0  0  0  0  0
  141.4710   79.1650  221.5290 H   0  0  0  0  0  0  0  0  0  0  0  0
  142.5320   77.9160  221.9110 H   0  0  0  0  0  0  0  0  0  0  0  0
  140.5900   77.2770  221.7440 C   0  0  0  0  0  0  0  0  0  0  0  0
  140.1386   77.6794  222.6629 H   0  0  0  0  0  0  0  0  0  0  0  0
  139.8636   77.2434  220.9187 H   0  0  0  0  0  0  0  0  0  0  0  0
  141.0590   75.8370  222.0140 C   0  0  0  0  0  0  0  0  0  0  0  0
  142.0391   75.8813  222.5114 H   0  0  0  0  0  0  0  0  0  0  0  0
  140.2849   75.3649  222.6368 H   0  0  0  0  0  0  0  0  0  0  0  0
  141.0260   72.7920  219.8530 N   0  0  0  0  0  0  0  0  0  0  0  0
  141.2860   73.1930  218.9230 H   0  0  0  0  0  0  0  0  0  0  0  0
  144.2820   72.0790  218.5250 C   0  0  0  0  0  0  0  0  0  0  0  0
  144.0901   71.6852  217.5160 H   0  0  0  0  0  0  0  0  0  0  0  0
  144.9310   73.3080  218.6830 C   0  0  0  0  0  0  0  0  0  0  0  0
  145.2647   73.8699  217.7982 H   0  0  0  0  0  0  0  0  0  0  0  0
  1  2  1  0
  2  3  2  0
  3  4  1  0
  3  5  1  0
  5  6  1  0
  5  7  2  0
  7  8  1  0
  8  9  1  0
  8 10  1  0
  8 11  1  0
 11 12  1  0
 11 13  1  0
 11 14  1  0
 14 15  2  0
 15 16  1  0
 16 17  2  0
 17 18  1  0
 18 19  1  0
 19 20  1  0
 19 21  1  0
 19 22  1  0
 22 23  2  0
 23 24  1  0
 23 25  1  0
 25 26  1  0
 25 27  2  0
 27 28  1  0
 27 29  1  0
 29 30  1  0
 29 31  2  0
 31 32  1  0
 32 33  1  0
 32 34  1  0
 32 35  1  0
 35 36  1  0
 35 37  1  0
 17 38  1  0
 38 39  2  0
 39 40  1  0
 40 41  1  0
 41 42  1  0
 41 43  1  0
 41 44  1  0
 44 45  1  0
 44 46  1  0
 44 47  1  0
 47 48  1  0
 47 49  1  0
 47 50  1  0
 50 51  1  0
 50 52  1  0
 50 53  1  0
 53 54  1  0
 53 55  1  0
 53 56  1  0
 56 57  1  0
 56 58  1  0
 39 59  1  0
 59 60  1  0
  7 61  1  0
 61 62  1  0
 61 63  2  0
 63 64  1  0
 63  2  1  0
 59 15  1  0
 35 18  1  0
 56 40  1  0
 31 22  1  0
M  CHG  1  50   1
M  END
>  <UniqueID>  (77) 
712

>  <SMILES>  (77) 
c1ccc(CC/N=c2\nc(N3CCc4ccccc4C3)nc(N3CCC[NH2+]CC3)[nH]2)cc1

>  <Energy>  (77) 
73.68142630792696

>  <Genealogy>  (77) 
c1ccc(CCNc2nc(N3CCC[NH2+]CC3)nc(N3CCc4ccccc4C3)n2)cc1 (protonated)
c1ccc(CCN=c2nc(N3CCc4ccccc4C3)nc(N3CCC[NH2+]CC3)[nH]2)cc1 (tautomer)
c1ccc(CC/N=c2\nc(N3CCc4ccccc4C3)nc(N3CCC[NH2+]CC3)[nH]2)cc1 (cis-trans isomerization)
c1ccc(CC/N=c2\nc(N3CCc4ccccc4C3)nc(N3CCC[NH2+]CC3)[nH]2)cc1 (3D coordinates assigned)
c1ccc(CC/N=c2\nc(N3CCc4ccccc4C3)nc(N3CCC[NH2+]CC3)[nH]2)cc1 (nonaromatic ring conformer: 73.68142630792696 kcal/mol)

>  <smiles>  (77) 
c1ccc(CCNc2nc(N3CCCNCC3)nc(N3CCc4ccccc4C3)n2)cc1

>  <score_type>  (77) 
oracle

>  <origin>  (77) 
autodockgpu

>  <m_score__min__energy>  (77) 
-7.3499999999999996

>  <m_primary>  (77) 
energy

>  <meeko>  (77) 
{"free_energy": -5.9, "intermolecular_energy": -9.48, "internal_energy": -1.85, "cluster_size": 5, "cluster_id": 2, "rank_in_cluster": 4}

>  <energy>  (77) 
-5.13

>  <cluster_rmsd>  (77) 
1.47

>  <rmsd>  (77) 
270.36

>  <cluster>  (77) 
8

$$$$
IBHRIKXMMSCQIV-DXVXUIDUNA-O
     RDKit          3D

 64 68  0  0  0  0  0  0  0  0999 V2000
  143.7384   79.3065  222.3074 H   0  0  0  0  0  0  0  0  0  0  0  0
  142.7440   79.5920  222.6810 C   0  0  0  0  0  0  0  0  0  0  0  0
  142.0050   78.6950  223.4570 C   0  0  0  0  0  0  0  0  0  0  0  0
  142.4244   77.7093  223.7070 H   0  0  0  0  0  0  0  0  0  0  0  0
  140.7320   79.0500  223.9160 C   0  0  0  0  0  0  0  0  0  0  0  0
  140.1469   78.3364  224.5147 H   0  0  0  0  0  0  0  0  0  0  0  0
  140.1970   80.3160  223.6150 C   0  0  0  0  0  0  0  0  0  0  0  0
  138.8430   80.7130  224.1360 C   0  0  0  0  0  0  0  0  0  0  0  0
  138.8178   80.5440  225.2227 H   0  0  0  0  0  0  0  0  0  0  0  0
  138.6848   81.7740  223.8926 H   0  0  0  0  0  0  0  0  0  0  0  0
  137.7130   79.9060  223.4840 C   0  0  0  0  0  0  0  0  0  0  0  0
  137.3725   79.1306  224.1859 H   0  0  0  0  0  0  0  0  0  0  0  0
  136.8876   80.5906  223.2389 H   0  0  0  0  0  0  0  0  0  0  0  0
  138.1740   79.2670  222.2500 N   0  0  0  0  0  0  0  0  0  0  0  0
  138.2790   77.9840  222.0560 C   0  0  0  0  0  0  0  0  0  0  0  0
  139.4060   77.4460  221.5130 N   0  0  0  0  0  0  0  0  0  0  0  0
  139.5060   76.1070  221.3010 C   0  0  0  0  0  0  0  0  0  0  0  0
  140.7070   75.5350  220.7360 N   0  0  0  0  0  0  0  0  0  0  0  0
  140.9990   74.1090  220.9600 C   0  0  0  0  0  0  0  0  0  0  0  0
  140.3658   73.5114  220.2877 H   0  0  0  0  0  0  0  0  0  0  0  0
  140.7917   73.8923  222.0183 H   0  0  0  0  0  0  0  0  0  0  0  0
  142.4460   73.7560  220.7000 C   0  0  0  0  0  0  0  0  0  0  0  0
  142.8600   72.4290  220.8960 C   0  0  0  0  0  0  0  0  0  0  0  0
  142.1306   71.6702  221.2157 H   0  0  0  0  0  0  0  0  0  0  0  0
  144.1950   72.0660  220.6870 C   0  0  0  0  0  0  0  0  0  0  0  0
  144.5129   71.0250  220.8462 H   0  0  0  0  0  0  0  0  0  0  0  0
  145.1230   73.0230  220.2770 C   0  0  0  0  0  0  0  0  0  0  0  0
  146.1732   72.7367  220.1188 H   0  0  0  0  0  0  0  0  0  0  0  0
  144.7220   74.3430  220.0670 C   0  0  0  0  0  0  0  0  0  0  0  0
  145.4591   75.0938  219.7461 H   0  0  0  0  0  0  0  0  0  0  0  0
  143.3820   74.7190  220.2630 C   0  0  0  0  0  0  0  0  0  0  0  0
  142.9820   76.1580  220.0900 C   0  0  0  0  0  0  0  0  0  0  0  0
  143.5762   76.6019  219.2776 H   0  0  0  0  0  0  0  0  0  0  0  0
  143.1657   76.6901  221.0351 H   0  0  0  0  0  0  0  0  0  0  0  0
  141.5020   76.2730  219.7460 C   0  0  0  0  0  0  0  0  0  0  0  0
  141.3248   75.8507  218.7459 H   0  0  0  0  0  0  0  0  0  0  0  0
  141.2060   77.3324  219.7563 H   0  0  0  0  0  0  0  0  0  0  0  0
  138.4600   75.3060  221.6320 N   0  0  0  0  0  0  0  0  0  0  0  0
  137.3320   75.8310  222.1720 C   0  0  0  0  0  0  0  0  0  0  0  0
  136.2460   74.9690  222.5250 N   0  0  0  0  0  0  0  0  0  0  0  0
  135.7050   74.0690  221.5000 C   0  0  0  0  0  0  0  0  0  0  0  0
  134.6144   73.9954  221.6229 H   0  0  0  0  0  0  0  0  0  0  0  0
  135.9499   74.4747  220.5073 H   0  0  0  0  0  0  0  0  0  0  0  0
  136.3210   72.6730  221.6280 C   0  0  0  0  0  0  0  0  0  0  0  0
  136.0611   72.0889  220.7328 H   0  0  0  0  0  0  0  0  0  0  0  0
  137.4096   72.7951  221.7282 H   0  0  0  0  0  0  0  0  0  0  0  0
  135.8190   71.9230  222.8680 C   0  0  0  0  0  0  0  0  0  0  0  0
  134.7223   71.8538  222.8174 H   0  0  0  0  0  0  0  0  0  0  0  0
  136.2898   70.9288  222.8682 H   0  0  0  0  0  0  0  0  0  0  0  0
  136.1910   72.5910  224.1250 N   0  0  0  0  0  0  0  0  0  0  0  0
  137.1840   72.9170  224.0850 H   0  0  0  0  0  0  0  0  0  0  0  0
  136.1350   71.8720  224.8830 H   0  0  0  0  0  0  0  0  0  0  0  0
  135.2810   73.6950  224.4830 C   0  0  0  0  0  0  0  0  0  0  0  0
  134.2777   73.4659  224.0946 H   0  0  0  0  0  0  0  0  0  0  0  0
  135.2780   73.7850  225.5793 H   0  0  0  0  0  0  0  0  0  0  0  0
  135.7390   75.0440  223.9030 C   0  0  0  0  0  0  0  0  0  0  0  0
  134.8825   75.7341  223.9179 H   0  0  0  0  0  0  0  0  0  0  0  0
  136.5760   75.3880  224.5284 H   0  0  0  0  0  0  0  0  0  0  0  0
  137.2430   77.1690  222.3920 N   0  0  0  0  0  0  0  0  0  0  0  0
  136.3720   77.5690  222.8080 H   0  0  0  0  0  0  0  0  0  0  0  0
  140.9540   81.2210  222.8530 C   0  0  0  0  0  0  0  0  0  0  0  0
  140.5518   82.2199  222.6285 H   0  0  0  0  0  0  0  0  0  0  0  0
  142.2180   80.8550  222.3790 C   0  0  0  0  0  0  0  0  0  0  0  0
  142.8003   81.5602  221.7678 H   0  0  0  0  0  0  0  0  0  0  0  0
  1  2  1  0
  2  3  2  0
  3  4  1  0
  3  5  1  0
  5  6  1  0
  5  7  2  0
  7  8  1  0
  8  9  1  0
  8 10  1  0
  8 11  1  0
 11 12  1  0
 11 13  1  0
 11 14  1  0
 14 15  2  0
 15 16  1  0
 16 17  2  0
 17 18  1  0
 18 19  1  0
 19 20  1  0
 19 21  1  0
 19 22  1  0
 22 23  2  0
 23 24  1  0
 23 25  1  0
 25 26  1  0
 25 27  2  0
 27 28  1  0
 27 29  1  0
 29 30  1  0
 29 31  2  0
 31 32  1  0
 32 33  1  0
 32 34  1  0
 32 35  1  0
 35 36  1  0
 35 37  1  0
 17 38  1  0
 38 39  2  0
 39 40  1  0
 40 41  1  0
 41 42  1  0
 41 43  1  0
 41 44  1  0
 44 45  1  0
 44 46  1  0
 44 47  1  0
 47 48  1  0
 47 49  1  0
 47 50  1  0
 50 51  1  0
 50 52  1  0
 50 53  1  0
 53 54  1  0
 53 55  1  0
 53 56  1  0
 56 57  1  0
 56 58  1  0
 39 59  1  0
 59 60  1  0
  7 61  1  0
 61 62  1  0
 61 63  2  0
 63 64  1  0
 63  2  1  0
 59 15  1  0
 35 18  1  0
 56 40  1  0
 31 22  1  0
M  CHG  1  50   1
M  END
>  <UniqueID>  (78) 
712

>  <SMILES>  (78) 
c1ccc(CC/N=c2\nc(N3CCc4ccccc4C3)nc(N3CCC[NH2+]CC3)[nH]2)cc1

>  <Energy>  (78) 
73.68142630792696

>  <Genealogy>  (78) 
c1ccc(CCNc2nc(N3CCC[NH2+]CC3)nc(N3CCc4ccccc4C3)n2)cc1 (protonated)
c1ccc(CCN=c2nc(N3CCc4ccccc4C3)nc(N3CCC[NH2+]CC3)[nH]2)cc1 (tautomer)
c1ccc(CC/N=c2\nc(N3CCc4ccccc4C3)nc(N3CCC[NH2+]CC3)[nH]2)cc1 (cis-trans isomerization)
c1ccc(CC/N=c2\nc(N3CCc4ccccc4C3)nc(N3CCC[NH2+]CC3)[nH]2)cc1 (3D coordinates assigned)
c1ccc(CC/N=c2\nc(N3CCc4ccccc4C3)nc(N3CCC[NH2+]CC3)[nH]2)cc1 (nonaromatic ring conformer: 73.68142630792696 kcal/mol)

>  <smiles>  (78) 
c1ccc(CCNc2nc(N3CCCNCC3)nc(N3CCc4ccccc4C3)n2)cc1

>  <score_type>  (78) 
oracle

>  <origin>  (78) 
autodockgpu

>  <m_score__min__energy>  (78) 
-7.3499999999999996

>  <m_primary>  (78) 
energy

>  <meeko>  (78) 
{"free_energy": -4.96, "intermolecular_energy": -8.54, "internal_energy": -1.57, "cluster_size": 1, "cluster_id": 9, "rank_in_cluster": 1}

>  <energy>  (78) 
-4.97

>  <cluster_rmsd>  (78) 
1.75

>  <rmsd>  (78) 
270.12

>  <cluster>  (78) 
8

$$$$
IBHRIKXMMSCQIV-DXVXUIDUNA-O
     RDKit          3D

 64 68  0  0  0  0  0  0  0  0999 V2000
  141.4427   73.4637  227.1857 H   0  0  0  0  0  0  0  0  0  0  0  0
  141.1140   72.4140  227.1780 C   0  0  0  0  0  0  0  0  0  0  0  0
  141.4800   71.5760  226.1220 C   0  0  0  0  0  0  0  0  0  0  0  0
  142.1105   71.9608  225.3069 H   0  0  0  0  0  0  0  0  0  0  0  0
  141.0440   70.2470  226.1020 C   0  0  0  0  0  0  0  0  0  0  0  0
  141.3218   69.5926  225.2626 H   0  0  0  0  0  0  0  0  0  0  0  0
  140.2520   69.7430  227.1500 C   0  0  0  0  0  0  0  0  0  0  0  0
  139.8120   68.3050  227.1480 C   0  0  0  0  0  0  0  0  0  0  0  0
  140.3463   67.7696  227.9467 H   0  0  0  0  0  0  0  0  0  0  0  0
  138.7244   68.2837  227.3111 H   0  0  0  0  0  0  0  0  0  0  0  0
  140.1020   67.6140  225.8100 C   0  0  0  0  0  0  0  0  0  0  0  0
  140.9438   68.1221  225.3168 H   0  0  0  0  0  0  0  0  0  0  0  0
  140.3512   66.5604  226.0043 H   0  0  0  0  0  0  0  0  0  0  0  0
  138.9300   67.6650  224.9330 N   0  0  0  0  0  0  0  0  0  0  0  0
  138.3770   68.7500  224.4720 C   0  0  0  0  0  0  0  0  0  0  0  0
  139.0720   69.6060  223.6730 N   0  0  0  0  0  0  0  0  0  0  0  0
  138.4950   70.7440  223.2050 C   0  0  0  0  0  0  0  0  0  0  0  0
  139.2290   71.6460  222.3460 N   0  0  0  0  0  0  0  0  0  0  0  0
  140.5690   71.2600  221.8730 C   0  0  0  0  0  0  0  0  0  0  0  0
  140.4561   70.5313  221.0568 H   0  0  0  0  0  0  0  0  0  0  0  0
  141.1109   70.8352  222.7308 H   0  0  0  0  0  0  0  0  0  0  0  0
  141.3760   72.4320  221.3640 C   0  0  0  0  0  0  0  0  0  0  0  0
  142.6810   72.2010  220.9020 C   0  0  0  0  0  0  0  0  0  0  0  0
  143.0879   71.1790  220.9009 H   0  0  0  0  0  0  0  0  0  0  0  0
  143.4670   73.2630  220.4430 C   0  0  0  0  0  0  0  0  0  0  0  0
  144.4903   73.0747  220.0862 H   0  0  0  0  0  0  0  0  0  0  0  0
  142.9550   74.5610  220.4370 C   0  0  0  0  0  0  0  0  0  0  0  0
  143.5769   75.3952  220.0803 H   0  0  0  0  0  0  0  0  0  0  0  0
  141.6550   74.8020  220.8830 C   0  0  0  0  0  0  0  0  0  0  0  0
  141.2571   75.8275  220.8791 H   0  0  0  0  0  0  0  0  0  0  0  0
  140.8510   73.7430  221.3370 C   0  0  0  0  0  0  0  0  0  0  0  0
  139.4740   74.0320  221.8700 C   0  0  0  0  0  0  0  0  0  0  0  0
  139.0356   74.8659  221.3022 H   0  0  0  0  0  0  0  0  0  0  0  0
  139.5570   74.2945  222.9350 H   0  0  0  0  0  0  0  0  0  0  0  0
  138.5730   72.8100  221.7380 C   0  0  0  0  0  0  0  0  0  0  0  0
  138.3831   72.6085  220.6734 H   0  0  0  0  0  0  0  0  0  0  0  0
  137.6198   73.0019  222.2524 H   0  0  0  0  0  0  0  0  0  0  0  0
  137.2110   71.0250  223.5500 N   0  0  0  0  0  0  0  0  0  0  0  0
  136.5110   70.1800  224.3460 C   0  0  0  0  0  0  0  0  0  0  0  0
  135.1560   70.4870  224.6890 N   0  0  0  0  0  0  0  0  0  0  0  0
  134.6530   70.0620  226.0010 C   0  0  0  0  0  0  0  0  0  0  0  0
  133.7645   69.4291  225.8594 H   0  0  0  0  0  0  0  0  0  0  0  0
  135.4442   69.4989  226.5177 H   0  0  0  0  0  0  0  0  0  0  0  0
  134.2750   71.2750  226.8540 C   0  0  0  0  0  0  0  0  0  0  0  0
  133.6700   70.9327  227.7065 H   0  0  0  0  0  0  0  0  0  0  0  0
  135.2073   71.7539  227.1880 H   0  0  0  0  0  0  0  0  0  0  0  0
  133.4700   72.3170  226.0650 C   0  0  0  0  0  0  0  0  0  0  0  0
  132.7619   71.7906  225.4081 H   0  0  0  0  0  0  0  0  0  0  0  0
  132.9512   72.9568  226.7941 H   0  0  0  0  0  0  0  0  0  0  0  0
  134.3210   73.1870  225.2380 N   0  0  0  0  0  0  0  0  0  0  0  0
  135.2720   73.2790  225.6640 H   0  0  0  0  0  0  0  0  0  0  0  0
  133.8880   74.1380  225.2460 H   0  0  0  0  0  0  0  0  0  0  0  0
  134.4070   72.7440  223.8340 C   0  0  0  0  0  0  0  0  0  0  0  0
  133.5663   73.1796  223.2741 H   0  0  0  0  0  0  0  0  0  0  0  0
  135.3751   73.0810  223.4350 H   0  0  0  0  0  0  0  0  0  0  0  0
  134.3510   71.2120  223.6970 C   0  0  0  0  0  0  0  0  0  0  0  0
  133.3034   70.8945  223.8049 H   0  0  0  0  0  0  0  0  0  0  0  0
  134.7720   70.9682  222.7104 H   0  0  0  0  0  0  0  0  0  0  0  0
  137.0900   69.0380  224.8020 N   0  0  0  0  0  0  0  0  0  0  0  0
  136.5460   68.3900  225.4160 H   0  0  0  0  0  0  0  0  0  0  0  0
  139.9080   70.5850  228.2200 C   0  0  0  0  0  0  0  0  0  0  0  0
  139.3064   70.1948  229.0542 H   0  0  0  0  0  0  0  0  0  0  0  0
  140.3290   71.9190  228.2270 C   0  0  0  0  0  0  0  0  0  0  0  0
  140.0430   72.5805  229.0580 H   0  0  0  0  0  0  0  0  0  0  0  0
  1  2  1  0
  2  3  2  0
  3  4  1  0
  3  5  1  0
  5  6  1  0
  5  7  2  0
  7  8  1  0
  8  9  1  0
  8 10  1  0
  8 11  1  0
 11 12  1  0
 11 13  1  0
 11 14  1  0
 14 15  2  0
 15 16  1  0
 16 17  2  0
 17 18  1  0
 18 19  1  0
 19 20  1  0
 19 21  1  0
 19 22  1  0
 22 23  2  0
 23 24  1  0
 23 25  1  0
 25 26  1  0
 25 27  2  0
 27 28  1  0
 27 29  1  0
 29 30  1  0
 29 31  2  0
 31 32  1  0
 32 33  1  0
 32 34  1  0
 32 35  1  0
 35 36  1  0
 35 37  1  0
 17 38  1  0
 38 39  2  0
 39 40  1  0
 40 41  1  0
 41 42  1  0
 41 43  1  0
 41 44  1  0
 44 45  1  0
 44 46  1  0
 44 47  1  0
 47 48  1  0
 47 49  1  0
 47 50  1  0
 50 51  1  0
 50 52  1  0
 50 53  1  0
 53 54  1  0
 53 55  1  0
 53 56  1  0
 56 57  1  0
 56 58  1  0
 39 59  1  0
 59 60  1  0
  7 61  1  0
 61 62  1  0
 61 63  2  0
 63 64  1  0
 63  2  1  0
 59 15  1  0
 35 18  1  0
 56 40  1  0
 31 22  1  0
M  CHG  1  50   1
M  END
>  <UniqueID>  (79) 
712

>  <SMILES>  (79) 
c1ccc(CC/N=c2\nc(N3CCc4ccccc4C3)nc(N3CCC[NH2+]CC3)[nH]2)cc1

>  <Energy>  (79) 
73.68142630792696

>  <Genealogy>  (79) 
c1ccc(CCNc2nc(N3CCC[NH2+]CC3)nc(N3CCc4ccccc4C3)n2)cc1 (protonated)
c1ccc(CCN=c2nc(N3CCc4ccccc4C3)nc(N3CCC[NH2+]CC3)[nH]2)cc1 (tautomer)
c1ccc(CC/N=c2\nc(N3CCc4ccccc4C3)nc(N3CCC[NH2+]CC3)[nH]2)cc1 (cis-trans isomerization)
c1ccc(CC/N=c2\nc(N3CCc4ccccc4C3)nc(N3CCC[NH2+]CC3)[nH]2)cc1 (3D coordinates assigned)
c1ccc(CC/N=c2\nc(N3CCc4ccccc4C3)nc(N3CCC[NH2+]CC3)[nH]2)cc1 (nonaromatic ring conformer: 73.68142630792696 kcal/mol)

>  <smiles>  (79) 
c1ccc(CCNc2nc(N3CCCNCC3)nc(N3CCc4ccccc4C3)n2)cc1

>  <score_type>  (79) 
oracle

>  <origin>  (79) 
autodockgpu

>  <m_score__min__energy>  (79) 
-7.3499999999999996

>  <m_primary>  (79) 
energy

>  <meeko>  (79) 
{"free_energy": -5.68, "intermolecular_energy": -9.26, "internal_energy": -1.74, "cluster_size": 1, "cluster_id": 7, "rank_in_cluster": 1}

>  <energy>  (79) 
-4.88

>  <cluster_rmsd>  (79) 
0.35

>  <rmsd>  (79) 
270.43

>  <cluster>  (79) 
8

$$$$
IBHRIKXMMSCQIV-DXVXUIDUNA-O
     RDKit          3D

 64 68  0  0  0  0  0  0  0  0999 V2000
  146.5304   74.6258  221.6394 H   0  0  0  0  0  0  0  0  0  0  0  0
  145.8940   74.0540  220.9480 C   0  0  0  0  0  0  0  0  0  0  0  0
  144.7210   74.6230  220.4460 C   0  0  0  0  0  0  0  0  0  0  0  0
  144.4423   75.6486  220.7296 H   0  0  0  0  0  0  0  0  0  0  0  0
  143.9010   73.8890  219.5830 C   0  0  0  0  0  0  0  0  0  0  0  0
  142.9715   74.3350  219.1995 H   0  0  0  0  0  0  0  0  0  0  0  0
  144.2600   72.5820  219.2030 C   0  0  0  0  0  0  0  0  0  0  0  0
  143.3980   71.8030  218.2490 C   0  0  0  0  0  0  0  0  0  0  0  0
  142.5615   72.4400  217.9258 H   0  0  0  0  0  0  0  0  0  0  0  0
  144.0236   71.5022  217.3957 H   0  0  0  0  0  0  0  0  0  0  0  0
  142.8310   70.5300  218.8910 C   0  0  0  0  0  0  0  0  0  0  0  0
  142.9472   69.6904  218.1899 H   0  0  0  0  0  0  0  0  0  0  0  0
  143.3808   70.3308  219.8227 H   0  0  0  0  0  0  0  0  0  0  0  0
  141.4110   70.6950  219.2110 N   0  0  0  0  0  0  0  0  0  0  0  0
  140.9350   71.4180  220.1840 C   0  0  0  0  0  0  0  0  0  0  0  0
  140.6550   70.8640  221.3960 N   0  0  0  0  0  0  0  0  0  0  0  0
  140.1460   71.6190  222.4050 C   0  0  0  0  0  0  0  0  0  0  0  0
  139.8620   71.0340  223.6960 N   0  0  0  0  0  0  0  0  0  0  0  0
  140.5470   71.5580  224.8900 C   0  0  0  0  0  0  0  0  0  0  0  0
  140.0679   72.5040  225.1824 H   0  0  0  0  0  0  0  0  0  0  0  0
  141.6059   71.6988  224.6274 H   0  0  0  0  0  0  0  0  0  0  0  0
  140.4940   70.6080  226.0640 C   0  0  0  0  0  0  0  0  0  0  0  0
  141.1270   70.9800  227.2600 C   0  0  0  0  0  0  0  0  0  0  0  0
  141.6319   71.9547  227.3308 H   0  0  0  0  0  0  0  0  0  0  0  0
  141.1200   70.1190  228.3630 C   0  0  0  0  0  0  0  0  0  0  0  0
  141.6220   70.4164  229.2955 H   0  0  0  0  0  0  0  0  0  0  0  0
  140.4770   68.8840  228.2810 C   0  0  0  0  0  0  0  0  0  0  0  0
  140.4776   68.2061  229.1473 H   0  0  0  0  0  0  0  0  0  0  0  0
  139.8330   68.5070  227.1020 C   0  0  0  0  0  0  0  0  0  0  0  0
  139.3284   67.5313  227.0427 H   0  0  0  0  0  0  0  0  0  0  0  0
  139.8250   69.3660  225.9900 C   0  0  0  0  0  0  0  0  0  0  0  0
  139.1770   68.9160  224.7090 C   0  0  0  0  0  0  0  0  0  0  0  0
  138.2989   68.2979  224.9473 H   0  0  0  0  0  0  0  0  0  0  0  0
  139.9096   68.3351  224.1294 H   0  0  0  0  0  0  0  0  0  0  0  0
  138.7340   70.1120  223.8750 C   0  0  0  0  0  0  0  0  0  0  0  0
  137.9136   70.6333  224.3899 H   0  0  0  0  0  0  0  0  0  0  0  0
  138.3888   69.7625  222.8908 H   0  0  0  0  0  0  0  0  0  0  0  0
  139.9100   72.9390  222.1890 N   0  0  0  0  0  0  0  0  0  0  0  0
  140.1840   73.5010  220.9840 C   0  0  0  0  0  0  0  0  0  0  0  0
  139.9390   74.8960  220.7790 N   0  0  0  0  0  0  0  0  0  0  0  0
  141.0370   75.8400  221.0150 C   0  0  0  0  0  0  0  0  0  0  0  0
  141.9874   75.2872  221.0487 H   0  0  0  0  0  0  0  0  0  0  0  0
  141.0523   76.5761  220.1977 H   0  0  0  0  0  0  0  0  0  0  0  0
  140.8390   76.5800  222.3400 C   0  0  0  0  0  0  0  0  0  0  0  0
  141.0268   75.8797  223.1672 H   0  0  0  0  0  0  0  0  0  0  0  0
  141.5423   77.4256  222.3603 H   0  0  0  0  0  0  0  0  0  0  0  0
  139.4190   77.1480  222.4870 C   0  0  0  0  0  0  0  0  0  0  0  0
  139.4022   77.8374  223.3440 H   0  0  0  0  0  0  0  0  0  0  0  0
  139.1668   77.6622  221.5478 H   0  0  0  0  0  0  0  0  0  0  0  0
  138.4100   76.0990  222.7060 N   0  0  0  0  0  0  0  0  0  0  0  0
  137.7600   76.3740  223.4770 H   0  0  0  0  0  0  0  0  0  0  0  0
  138.9200   75.2440  223.0240 H   0  0  0  0  0  0  0  0  0  0  0  0
  137.6670   75.7490  221.4810 C   0  0  0  0  0  0  0  0  0  0  0  0
  136.9665   74.9335  221.7139 H   0  0  0  0  0  0  0  0  0  0  0  0
  137.1377   76.6514  221.1413 H   0  0  0  0  0  0  0  0  0  0  0  0
  138.5940   75.2930  220.3410 C   0  0  0  0  0  0  0  0  0  0  0  0
  138.1266   74.4325  219.8400 H   0  0  0  0  0  0  0  0  0  0  0  0
  138.7220   76.1578  219.6734 H   0  0  0  0  0  0  0  0  0  0  0  0
  140.7030   72.7420  219.9830 N   0  0  0  0  0  0  0  0  0  0  0  0
  140.9110   73.1790  219.0570 H   0  0  0  0  0  0  0  0  0  0  0  0
  145.4520   72.0250  219.6940 C   0  0  0  0  0  0  0  0  0  0  0  0
  145.7508   71.0116  219.3878 H   0  0  0  0  0  0  0  0  0  0  0  0
  146.2600   72.7550  220.5710 C   0  0  0  0  0  0  0  0  0  0  0  0
  147.1847   72.3088  220.9657 H   0  0  0  0  0  0  0  0  0  0  0  0
  1  2  1  0
  2  3  2  0
  3  4  1  0
  3  5  1  0
  5  6  1  0
  5  7  2  0
  7  8  1  0
  8  9  1  0
  8 10  1  0
  8 11  1  0
 11 12  1  0
 11 13  1  0
 11 14  1  0
 14 15  2  0
 15 16  1  0
 16 17  2  0
 17 18  1  0
 18 19  1  0
 19 20  1  0
 19 21  1  0
 19 22  1  0
 22 23  2  0
 23 24  1  0
 23 25  1  0
 25 26  1  0
 25 27  2  0
 27 28  1  0
 27 29  1  0
 29 30  1  0
 29 31  2  0
 31 32  1  0
 32 33  1  0
 32 34  1  0
 32 35  1  0
 35 36  1  0
 35 37  1  0
 17 38  1  0
 38 39  2  0
 39 40  1  0
 40 41  1  0
 41 42  1  0
 41 43  1  0
 41 44  1  0
 44 45  1  0
 44 46  1  0
 44 47  1  0
 47 48  1  0
 47 49  1  0
 47 50  1  0
 50 51  1  0
 50 52  1  0
 50 53  1  0
 53 54  1  0
 53 55  1  0
 53 56  1  0
 56 57  1  0
 56 58  1  0
 39 59  1  0
 59 60  1  0
  7 61  1  0
 61 62  1  0
 61 63  2  0
 63 64  1  0
 63  2  1  0
 59 15  1  0
 35 18  1  0
 56 40  1  0
 31 22  1  0
M  CHG  1  50   1
M  END
>  <UniqueID>  (80) 
712

>  <SMILES>  (80) 
c1ccc(CC/N=c2\nc(N3CCc4ccccc4C3)nc(N3CCC[NH2+]CC3)[nH]2)cc1

>  <Energy>  (80) 
73.68142630792696

>  <Genealogy>  (80) 
c1ccc(CCNc2nc(N3CCC[NH2+]CC3)nc(N3CCc4ccccc4C3)n2)cc1 (protonated)
c1ccc(CCN=c2nc(N3CCc4ccccc4C3)nc(N3CCC[NH2+]CC3)[nH]2)cc1 (tautomer)
c1ccc(CC/N=c2\nc(N3CCc4ccccc4C3)nc(N3CCC[NH2+]CC3)[nH]2)cc1 (cis-trans isomerization)
c1ccc(CC/N=c2\nc(N3CCc4ccccc4C3)nc(N3CCC[NH2+]CC3)[nH]2)cc1 (3D coordinates assigned)
c1ccc(CC/N=c2\nc(N3CCc4ccccc4C3)nc(N3CCC[NH2+]CC3)[nH]2)cc1 (nonaromatic ring conformer: 73.68142630792696 kcal/mol)

>  <smiles>  (80) 
c1ccc(CCNc2nc(N3CCCNCC3)nc(N3CCc4ccccc4C3)n2)cc1

>  <score_type>  (80) 
oracle

>  <origin>  (80) 
autodockgpu

>  <m_score__min__energy>  (80) 
-7.3499999999999996

>  <m_primary>  (80) 
energy

>  <meeko>  (80) 
{"free_energy": -6.24, "intermolecular_energy": -9.82, "internal_energy": -1.7, "cluster_size": 5, "cluster_id": 2, "rank_in_cluster": 2}

>  <energy>  (80) 
-4.96

>  <cluster_rmsd>  (80) 
0.0

>  <rmsd>  (80) 
270.31

>  <cluster>  (80) 
9

$$$$
