
     RDKit          3D

 37 38  0  0  0  0  0  0  0  0999 V2000
  139.4550   74.5110  222.2360 O   0  0  0  0  0  0  0  0  0  0  0  0
  140.5770   74.7060  221.7490 C   0  0  0  0  0  0  0  0  0  0  0  0
  141.3360   73.6280  221.1010 C   0  0  0  0  0  0  0  0  0  0  0  0
  141.3950   72.4080  221.9470 C   0  0  0  0  0  0  0  0  0  0  0  0
  140.0640   71.7770  222.1780 C   0  0  0  0  0  0  0  0  0  0  0  0
  139.6170   71.7940  223.4780 O   0  0  0  0  0  0  0  0  0  0  0  0
  139.9240   71.1160  224.6010 C   0  0  0  0  0  0  0  0  0  0  0  0
  140.7870   71.4930  225.6020 C   0  0  0  0  0  0  0  0  0  0  0  0
  141.0290   70.7120  226.7270 C   0  0  0  0  0  0  0  0  0  0  0  0
  140.3980   69.5000  226.8860 C   0  0  0  0  0  0  0  0  0  0  0  0
  140.7210   68.5460  228.3030 Cl  0  0  0  0  0  0  0  0  0  0  0  0
  139.5300   69.1010  225.8990 C   0  0  0  0  0  0  0  0  0  0  0  0
  139.2960   69.8750  224.7930 C   0  0  0  0  0  0  0  0  0  0  0  0
  138.0670   69.2230  223.4800 Br  0  0  0  0  0  0  0  0  0  0  0  0
  141.1430   75.9900  221.8140 N   0  0  0  0  0  0  0  0  0  0  0  0
  140.5850   77.1500  222.3880 C   0  0  0  0  0  0  0  0  0  0  0  0
  141.4550   78.0430  223.0340 C   0  0  0  0  0  0  0  0  0  0  0  0
  141.0070   79.2010  223.6230 C   0  0  0  0  0  0  0  0  0  0  0  0
  139.6750   79.5480  223.6100 C   0  0  0  0  0  0  0  0  0  0  0  0
  139.2140   80.7100  224.1990 O   0  0  0  0  0  0  0  0  0  0  0  0
  138.8100   78.6820  222.9800 C   0  0  0  0  0  0  0  0  0  0  0  0
  137.4960   79.0040  222.9560 F   0  0  0  0  0  0  0  0  0  0  0  0
  139.2740   77.5050  222.3830 C   0  0  0  0  0  0  0  0  0  0  0  0
  140.8516   73.3759  220.1461 H   0  0  0  0  0  0  0  0  0  0  0  0
  142.3648   73.9830  220.9412 H   0  0  0  0  0  0  0  0  0  0  0  0
  142.0472   71.6731  221.4525 H   0  0  0  0  0  0  0  0  0  0  0  0
  141.7813   72.7154  222.9300 H   0  0  0  0  0  0  0  0  0  0  0  0
  139.3256   72.3078  221.5591 H   0  0  0  0  0  0  0  0  0  0  0  0
  140.1838   70.7158  221.9144 H   0  0  0  0  0  0  0  0  0  0  0  0
  141.3101   72.4562  225.5091 H   0  0  0  0  0  0  0  0  0  0  0  0
  141.7309   71.0664  227.4962 H   0  0  0  0  0  0  0  0  0  0  0  0
  139.0102   68.1367  225.9990 H   0  0  0  0  0  0  0  0  0  0  0  0
  142.1100   76.0890  221.3750 H   0  0  0  0  0  0  0  0  0  0  0  0
  142.5291   77.8083  223.0697 H   0  0  0  0  0  0  0  0  0  0  0  0
  141.7303   79.8666  224.1168 H   0  0  0  0  0  0  0  0  0  0  0  0
  138.2390   80.9450  224.0820 H   0  0  0  0  0  0  0  0  0  0  0  0
  138.5486   76.8410  221.8902 H   0  0  0  0  0  0  0  0  0  0  0  0
  1  2  2  0
  2  3  1  0
  3  4  1  0
  4  5  1  0
  5  6  1  0
  6  7  1  0
  7  8  2  0
  8  9  1  0
  9 10  2  0
 10 11  1  0
 10 12  1  0
 12 13  2  0
 13 14  1  0
  2 15  1  0
 15 16  1  0
 16 17  2  0
 17 18  1  0
 18 19  2  0
 19 20  1  0
 19 21  1  0
 21 22  1  0
 21 23  2  0
 13  7  1  0
 23 16  1  0
  3 24  1  0
  3 25  1  0
  4 26  1  0
  4 27  1  0
  5 28  1  0
  5 29  1  0
  8 30  1  0
  9 31  1  0
 12 32  1  0
 15 33  1  0
 17 34  1  0
 18 35  1  0
 20 36  1  0
 23 37  1  0
M  END
>  <smiles>  (1) 
O=C(CCCOc1ccc(Cl)cc1Br)Nc1ccc(O)c(F)c1

>  <score_type>  (1) 
oracle

>  <origin>  (1) 
autodockgpu

>  <m_score__min__energy>  (1) 
-6.5700000000000003

>  <m_primary>  (1) 
energy

>  <meeko>  (1) 
{"free_energy": -6.57, "intermolecular_energy": -8.66, "internal_energy": -0.67, "cluster_size": 1, "cluster_id": 1, "rank_in_cluster": 1}

>  <energy>  (1) 
-6.57

>  <cluster_rmsd>  (1) 
0.0

>  <rmsd>  (1) 
272.06

>  <cluster>  (1) 
1

$$$$

     RDKit          3D

 37 38  0  0  0  0  0  0  0  0999 V2000
  135.2450   72.7110  221.3750 O   0  0  0  0  0  0  0  0  0  0  0  0
  136.3980   72.6220  221.8180 C   0  0  0  0  0  0  0  0  0  0  0  0
  137.5540   72.4260  220.9320 C   0  0  0  0  0  0  0  0  0  0  0  0
  138.7830   73.0540  221.4820 C   0  0  0  0  0  0  0  0  0  0  0  0
  139.6290   72.1170  222.2760 C   0  0  0  0  0  0  0  0  0  0  0  0
  139.0890   71.6950  223.4670 O   0  0  0  0  0  0  0  0  0  0  0  0
  139.5710   71.1040  224.5760 C   0  0  0  0  0  0  0  0  0  0  0  0
  140.6400   71.5010  225.3450 C   0  0  0  0  0  0  0  0  0  0  0  0
  141.0520   70.8130  226.4810 C   0  0  0  0  0  0  0  0  0  0  0  0
  140.3910   69.6790  226.8910 C   0  0  0  0  0  0  0  0  0  0  0  0
  140.9320   68.8400  228.3150 Cl  0  0  0  0  0  0  0  0  0  0  0  0
  139.3200   69.2620  226.1400 C   0  0  0  0  0  0  0  0  0  0  0  0
  138.9170   69.9440  225.0210 C   0  0  0  0  0  0  0  0  0  0  0  0
  137.4120   69.2740  224.0500 Br  0  0  0  0  0  0  0  0  0  0  0  0
  136.6130   72.7110  223.2030 N   0  0  0  0  0  0  0  0  0  0  0  0
  135.6500   72.8960  224.2150 C   0  0  0  0  0  0  0  0  0  0  0  0
  135.3590   74.2130  224.6080 C   0  0  0  0  0  0  0  0  0  0  0  0
  134.4350   74.4950  225.5850 C   0  0  0  0  0  0  0  0  0  0  0  0
  133.7430   73.4970  226.2340 C   0  0  0  0  0  0  0  0  0  0  0  0
  132.8120   73.7700  227.2180 O   0  0  0  0  0  0  0  0  0  0  0  0
  134.0180   72.2020  225.8590 C   0  0  0  0  0  0  0  0  0  0  0  0
  133.3480   71.2050  226.4830 F   0  0  0  0  0  0  0  0  0  0  0  0
  134.9600   71.9220  224.8630 C   0  0  0  0  0  0  0  0  0  0  0  0
  137.7297   71.3471  220.8093 H   0  0  0  0  0  0  0  0  0  0  0  0
  137.3294   72.9022  219.9662 H   0  0  0  0  0  0  0  0  0  0  0  0
  139.3824   73.4378  220.6433 H   0  0  0  0  0  0  0  0  0  0  0  0
  138.4587   73.8529  222.1650 H   0  0  0  0  0  0  0  0  0  0  0  0
  139.8215   71.2279  221.6576 H   0  0  0  0  0  0  0  0  0  0  0  0
  140.5366   72.6800  222.5393 H   0  0  0  0  0  0  0  0  0  0  0  0
  141.1941   72.4036  225.0479 H   0  0  0  0  0  0  0  0  0  0  0  0
  141.9146   71.1792  227.0570 H   0  0  0  0  0  0  0  0  0  0  0  0
  138.7715   68.3581  226.4437 H   0  0  0  0  0  0  0  0  0  0  0  0
  137.6290   72.6270  223.5170 H   0  0  0  0  0  0  0  0  0  0  0  0
  135.8873   75.0443  224.1183 H   0  0  0  0  0  0  0  0  0  0  0  0
  134.2433   75.5439  225.8554 H   0  0  0  0  0  0  0  0  0  0  0  0
  132.7330   73.1220  227.9870 H   0  0  0  0  0  0  0  0  0  0  0  0
  135.1491   70.8722  224.5944 H   0  0  0  0  0  0  0  0  0  0  0  0
  1  2  2  0
  2  3  1  0
  3  4  1  0
  4  5  1  0
  5  6  1  0
  6  7  1  0
  7  8  2  0
  8  9  1  0
  9 10  2  0
 10 11  1  0
 10 12  1  0
 12 13  2  0
 13 14  1  0
  2 15  1  0
 15 16  1  0
 16 17  2  0
 17 18  1  0
 18 19  2  0
 19 20  1  0
 19 21  1  0
 21 22  1  0
 21 23  2  0
 13  7  1  0
 23 16  1  0
  3 24  1  0
  3 25  1  0
  4 26  1  0
  4 27  1  0
  5 28  1  0
  5 29  1  0
  8 30  1  0
  9 31  1  0
 12 32  1  0
 15 33  1  0
 17 34  1  0
 18 35  1  0
 20 36  1  0
 23 37  1  0
M  END
>  <smiles>  (2) 
O=C(CCCOc1ccc(Cl)cc1Br)Nc1ccc(O)c(F)c1

>  <score_type>  (2) 
oracle

>  <origin>  (2) 
autodockgpu

>  <m_score__min__energy>  (2) 
-6.5700000000000003

>  <m_primary>  (2) 
energy

>  <meeko>  (2) 
{"free_energy": -5.72, "intermolecular_energy": -7.81, "internal_energy": -1.99, "cluster_size": 8, "cluster_id": 4, "rank_in_cluster": 7}

>  <energy>  (2) 
-6.08

>  <cluster_rmsd>  (2) 
0.0

>  <rmsd>  (2) 
271.34

>  <cluster>  (2) 
2

$$$$

     RDKit          3D

 37 38  0  0  0  0  0  0  0  0999 V2000
  141.3570   78.2440  217.7470 O   0  0  0  0  0  0  0  0  0  0  0  0
  141.9610   78.9980  218.5220 C   0  0  0  0  0  0  0  0  0  0  0  0
  142.6340   80.2150  218.0490 C   0  0  0  0  0  0  0  0  0  0  0  0
  141.7450   81.4030  218.1270 C   0  0  0  0  0  0  0  0  0  0  0  0
  141.8090   82.1130  219.4360 C   0  0  0  0  0  0  0  0  0  0  0  0
  141.5960   81.3310  220.5460 O   0  0  0  0  0  0  0  0  0  0  0  0
  140.6390   81.2580  221.4910 C   0  0  0  0  0  0  0  0  0  0  0  0
  139.3220   81.6390  221.3870 C   0  0  0  0  0  0  0  0  0  0  0  0
  138.4130   81.5150  222.4320 C   0  0  0  0  0  0  0  0  0  0  0  0
  138.8060   80.9930  223.6430 C   0  0  0  0  0  0  0  0  0  0  0  0
  137.6460   80.8520  224.9310 Cl  0  0  0  0  0  0  0  0  0  0  0  0
  140.1170   80.6050  223.7720 C   0  0  0  0  0  0  0  0  0  0  0  0
  141.0080   80.7300  222.7380 C   0  0  0  0  0  0  0  0  0  0  0  0
  142.8100   80.1560  223.0270 Br  0  0  0  0  0  0  0  0  0  0  0  0
  142.0070   78.6860  219.8900 N   0  0  0  0  0  0  0  0  0  0  0  0
  141.4320   77.5760  220.5420 C   0  0  0  0  0  0  0  0  0  0  0  0
  141.9650   76.3070  220.2640 C   0  0  0  0  0  0  0  0  0  0  0  0
  141.4730   75.1650  220.8490 C   0  0  0  0  0  0  0  0  0  0  0  0
  140.4270   75.2060  221.7430 C   0  0  0  0  0  0  0  0  0  0  0  0
  139.9250   74.0630  222.3370 O   0  0  0  0  0  0  0  0  0  0  0  0
  139.8950   76.4430  222.0250 C   0  0  0  0  0  0  0  0  0  0  0  0
  138.8650   76.5060  222.9010 F   0  0  0  0  0  0  0  0  0  0  0  0
  140.4010   77.6010  221.4250 C   0  0  0  0  0  0  0  0  0  0  0  0
  143.5235   80.3945  218.6707 H   0  0  0  0  0  0  0  0  0  0  0  0
  142.9119   80.0645  216.9954 H   0  0  0  0  0  0  0  0  0  0  0  0
  142.0368   82.1080  217.3347 H   0  0  0  0  0  0  0  0  0  0  0  0
  140.7131   81.0414  218.0070 H   0  0  0  0  0  0  0  0  0  0  0  0
  142.8074   82.5656  219.5272 H   0  0  0  0  0  0  0  0  0  0  0  0
  140.9887   82.8457  219.4217 H   0  0  0  0  0  0  0  0  0  0  0  0
  138.9714   82.0612  220.4336 H   0  0  0  0  0  0  0  0  0  0  0  0
  137.3709   81.8369  222.2894 H   0  0  0  0  0  0  0  0  0  0  0  0
  140.4604   80.1837  224.7283 H   0  0  0  0  0  0  0  0  0  0  0  0
  142.5420   79.3770  220.5020 H   0  0  0  0  0  0  0  0  0  0  0  0
  142.8026   76.2244  219.5558 H   0  0  0  0  0  0  0  0  0  0  0  0
  141.9259   74.1948  220.5968 H   0  0  0  0  0  0  0  0  0  0  0  0
  139.1100   74.1550  222.9250 H   0  0  0  0  0  0  0  0  0  0  0  0
  139.9457   78.5697  221.6786 H   0  0  0  0  0  0  0  0  0  0  0  0
  1  2  2  0
  2  3  1  0
  3  4  1  0
  4  5  1  0
  5  6  1  0
  6  7  1  0
  7  8  2  0
  8  9  1  0
  9 10  2  0
 10 11  1  0
 10 12  1  0
 12 13  2  0
 13 14  1  0
  2 15  1  0
 15 16  1  0
 16 17  2  0
 17 18  1  0
 18 19  2  0
 19 20  1  0
 19 21  1  0
 21 22  1  0
 21 23  2  0
 13  7  1  0
 23 16  1  0
  3 24  1  0
  3 25  1  0
  4 26  1  0
  4 27  1  0
  5 28  1  0
  5 29  1  0
  8 30  1  0
  9 31  1  0
 12 32  1  0
 15 33  1  0
 17 34  1  0
 18 35  1  0
 20 36  1  0
 23 37  1  0
M  END
>  <smiles>  (3) 
O=C(CCCOc1ccc(Cl)cc1Br)Nc1ccc(O)c(F)c1

>  <score_type>  (3) 
oracle

>  <origin>  (3) 
autodockgpu

>  <m_score__min__energy>  (3) 
-6.5700000000000003

>  <m_primary>  (3) 
energy

>  <meeko>  (3) 
{"free_energy": -5.58, "intermolecular_energy": -7.67, "internal_energy": -2.29, "cluster_size": 3, "cluster_id": 5, "rank_in_cluster": 3}

>  <energy>  (3) 
-6.08

>  <cluster_rmsd>  (3) 
0.04

>  <rmsd>  (3) 
271.34

>  <cluster>  (3) 
2

$$$$

     RDKit          3D

 37 38  0  0  0  0  0  0  0  0999 V2000
  135.2650   71.5810  221.6450 O   0  0  0  0  0  0  0  0  0  0  0  0
  136.3760   72.0540  221.9200 C   0  0  0  0  0  0  0  0  0  0  0  0
  137.5060   71.9690  220.9840 C   0  0  0  0  0  0  0  0  0  0  0  0
  138.5890   71.0940  221.5040 C   0  0  0  0  0  0  0  0  0  0  0  0
  139.4980   71.7780  222.4680 C   0  0  0  0  0  0  0  0  0  0  0  0
  139.1310   71.6950  223.7900 O   0  0  0  0  0  0  0  0  0  0  0  0
  139.5930   71.0330  224.8680 C   0  0  0  0  0  0  0  0  0  0  0  0
  140.6650   71.3620  225.6630 C   0  0  0  0  0  0  0  0  0  0  0  0
  141.0550   70.6020  226.7610 C   0  0  0  0  0  0  0  0  0  0  0  0
  140.3660   69.4620  227.1040 C   0  0  0  0  0  0  0  0  0  0  0  0
  140.8780   68.5340  228.4820 Cl  0  0  0  0  0  0  0  0  0  0  0  0
  139.2900   69.1130  226.3250 C   0  0  0  0  0  0  0  0  0  0  0  0
  138.9100   69.8650  225.2440 C   0  0  0  0  0  0  0  0  0  0  0  0
  137.3960   69.2850  224.2300 Br  0  0  0  0  0  0  0  0  0  0  0  0
  136.5680   72.6910  223.1570 N   0  0  0  0  0  0  0  0  0  0  0  0
  135.6230   72.8760  224.1860 C   0  0  0  0  0  0  0  0  0  0  0  0
  135.3320   74.1940  224.5780 C   0  0  0  0  0  0  0  0  0  0  0  0
  134.4260   74.4770  225.5710 C   0  0  0  0  0  0  0  0  0  0  0  0
  133.7520   73.4790  226.2380 C   0  0  0  0  0  0  0  0  0  0  0  0
  132.8380   73.7530  227.2380 O   0  0  0  0  0  0  0  0  0  0  0  0
  134.0260   72.1830  225.8640 C   0  0  0  0  0  0  0  0  0  0  0  0
  133.3740   71.1860  226.5070 F   0  0  0  0  0  0  0  0  0  0  0  0
  134.9500   71.9030  224.8520 C   0  0  0  0  0  0  0  0  0  0  0  0
  137.1465   71.5606  220.0280 H   0  0  0  0  0  0  0  0  0  0  0  0
  137.9175   72.9806  220.8521 H   0  0  0  0  0  0  0  0  0  0  0  0
  138.1277   70.2339  222.0114 H   0  0  0  0  0  0  0  0  0  0  0  0
  139.2016   70.7919  220.6418 H   0  0  0  0  0  0  0  0  0  0  0  0
  140.4981   71.3316  222.3655 H   0  0  0  0  0  0  0  0  0  0  0  0
  139.4604   72.8470  222.2113 H   0  0  0  0  0  0  0  0  0  0  0  0
  141.2406   72.2673  225.4200 H   0  0  0  0  0  0  0  0  0  0  0  0
  141.9224   70.9156  227.3604 H   0  0  0  0  0  0  0  0  0  0  0  0
  138.7187   68.2069  226.5751 H   0  0  0  0  0  0  0  0  0  0  0  0
  137.5470   73.0760  223.3300 H   0  0  0  0  0  0  0  0  0  0  0  0
  135.8461   75.0254  224.0736 H   0  0  0  0  0  0  0  0  0  0  0  0
  134.2344   75.5263  225.8397 H   0  0  0  0  0  0  0  0  0  0  0  0
  132.7610   73.0960  228.0000 H   0  0  0  0  0  0  0  0  0  0  0  0
  135.1389   70.8527  224.5851 H   0  0  0  0  0  0  0  0  0  0  0  0
  1  2  2  0
  2  3  1  0
  3  4  1  0
  4  5  1  0
  5  6  1  0
  6  7  1  0
  7  8  2  0
  8  9  1  0
  9 10  2  0
 10 11  1  0
 10 12  1  0
 12 13  2  0
 13 14  1  0
  2 15  1  0
 15 16  1  0
 16 17  2  0
 17 18  1  0
 18 19  2  0
 19 20  1  0
 19 21  1  0
 21 22  1  0
 21 23  2  0
 13  7  1  0
 23 16  1  0
  3 24  1  0
  3 25  1  0
  4 26  1  0
  4 27  1  0
  5 28  1  0
  5 29  1  0
  8 30  1  0
  9 31  1  0
 12 32  1  0
 15 33  1  0
 17 34  1  0
 18 35  1  0
 20 36  1  0
 23 37  1  0
M  END
>  <smiles>  (4) 
O=C(CCCOc1ccc(Cl)cc1Br)Nc1ccc(O)c(F)c1

>  <score_type>  (4) 
oracle

>  <origin>  (4) 
autodockgpu

>  <m_score__min__energy>  (4) 
-6.5700000000000003

>  <m_primary>  (4) 
energy

>  <meeko>  (4) 
{"free_energy": -5.76, "intermolecular_energy": -7.85, "internal_energy": -1.95, "cluster_size": 8, "cluster_id": 4, "rank_in_cluster": 3}

>  <energy>  (4) 
-5.95

>  <cluster_rmsd>  (4) 
0.91

>  <rmsd>  (4) 
271.32

>  <cluster>  (4) 
2

$$$$

     RDKit          3D

 37 38  0  0  0  0  0  0  0  0999 V2000
  135.2520   71.6280  221.6100 O   0  0  0  0  0  0  0  0  0  0  0  0
  136.3700   72.0740  221.9010 C   0  0  0  0  0  0  0  0  0  0  0  0
  137.5030   71.9840  220.9690 C   0  0  0  0  0  0  0  0  0  0  0  0
  138.5690   71.0840  221.4810 C   0  0  0  0  0  0  0  0  0  0  0  0
  139.5150   71.7510  222.4200 C   0  0  0  0  0  0  0  0  0  0  0  0
  139.1720   71.6920  223.7500 O   0  0  0  0  0  0  0  0  0  0  0  0
  139.6320   71.0240  224.8240 C   0  0  0  0  0  0  0  0  0  0  0  0
  140.7160   71.3370  225.6100 C   0  0  0  0  0  0  0  0  0  0  0  0
  141.1030   70.5730  226.7060 C   0  0  0  0  0  0  0  0  0  0  0  0
  140.3980   69.4440  227.0560 C   0  0  0  0  0  0  0  0  0  0  0  0
  140.9070   68.5100  228.4310 Cl  0  0  0  0  0  0  0  0  0  0  0  0
  139.3110   69.1110  226.2860 C   0  0  0  0  0  0  0  0  0  0  0  0
  138.9340   69.8670  225.2080 C   0  0  0  0  0  0  0  0  0  0  0  0
  137.4030   69.3100  224.2060 Br  0  0  0  0  0  0  0  0  0  0  0  0
  136.5670   72.6820  223.1510 N   0  0  0  0  0  0  0  0  0  0  0  0
  135.6200   72.8660  224.1790 C   0  0  0  0  0  0  0  0  0  0  0  0
  135.3120   74.1840  224.5560 C   0  0  0  0  0  0  0  0  0  0  0  0
  134.4020   74.4660  225.5470 C   0  0  0  0  0  0  0  0  0  0  0  0
  133.7410   73.4660  226.2240 C   0  0  0  0  0  0  0  0  0  0  0  0
  132.8240   73.7380  227.2220 O   0  0  0  0  0  0  0  0  0  0  0  0
  134.0320   72.1700  225.8640 C   0  0  0  0  0  0  0  0  0  0  0  0
  133.3930   71.1720  226.5180 F   0  0  0  0  0  0  0  0  0  0  0  0
  134.9600   71.8910  224.8550 C   0  0  0  0  0  0  0  0  0  0  0  0
  137.1414   71.5955  220.0055 H   0  0  0  0  0  0  0  0  0  0  0  0
  137.9316   72.9905  220.8538 H   0  0  0  0  0  0  0  0  0  0  0  0
  138.0916   70.2441  222.0070 H   0  0  0  0  0  0  0  0  0  0  0  0
  139.1570   70.7544  220.6118 H   0  0  0  0  0  0  0  0  0  0  0  0
  140.4999   71.2752  222.3030 H   0  0  0  0  0  0  0  0  0  0  0  0
  139.5021   72.8180  222.1529 H   0  0  0  0  0  0  0  0  0  0  0  0
  141.3040   72.2326  225.3606 H   0  0  0  0  0  0  0  0  0  0  0  0
  141.9800   70.8737  227.2980 H   0  0  0  0  0  0  0  0  0  0  0  0
  138.7280   68.2139  226.5415 H   0  0  0  0  0  0  0  0  0  0  0  0
  137.5530   73.0440  223.3360 H   0  0  0  0  0  0  0  0  0  0  0  0
  135.8149   75.0164  224.0420 H   0  0  0  0  0  0  0  0  0  0  0  0
  134.1971   75.5155  225.8051 H   0  0  0  0  0  0  0  0  0  0  0  0
  132.7250   73.0670  227.9680 H   0  0  0  0  0  0  0  0  0  0  0  0
  135.1629   70.8405  224.5993 H   0  0  0  0  0  0  0  0  0  0  0  0
  1  2  2  0
  2  3  1  0
  3  4  1  0
  4  5  1  0
  5  6  1  0
  6  7  1  0
  7  8  2  0
  8  9  1  0
  9 10  2  0
 10 11  1  0
 10 12  1  0
 12 13  2  0
 13 14  1  0
  2 15  1  0
 15 16  1  0
 16 17  2  0
 17 18  1  0
 18 19  2  0
 19 20  1  0
 19 21  1  0
 21 22  1  0
 21 23  2  0
 13  7  1  0
 23 16  1  0
  3 24  1  0
  3 25  1  0
  4 26  1  0
  4 27  1  0
  5 28  1  0
  5 29  1  0
  8 30  1  0
  9 31  1  0
 12 32  1  0
 15 33  1  0
 17 34  1  0
 18 35  1  0
 20 36  1  0
 23 37  1  0
M  END
>  <smiles>  (5) 
O=C(CCCOc1ccc(Cl)cc1Br)Nc1ccc(O)c(F)c1

>  <score_type>  (5) 
oracle

>  <origin>  (5) 
autodockgpu

>  <m_score__min__energy>  (5) 
-6.5700000000000003

>  <m_primary>  (5) 
energy

>  <meeko>  (5) 
{"free_energy": -5.76, "intermolecular_energy": -7.85, "internal_energy": -1.94, "cluster_size": 8, "cluster_id": 4, "rank_in_cluster": 2}

>  <energy>  (5) 
-5.95

>  <cluster_rmsd>  (5) 
1.53

>  <rmsd>  (5) 
271.44

>  <cluster>  (5) 
2

$$$$

     RDKit          3D

 37 38  0  0  0  0  0  0  0  0999 V2000
  141.7140   78.0900  217.6110 O   0  0  0  0  0  0  0  0  0  0  0  0
  142.1800   78.8900  218.4330 C   0  0  0  0  0  0  0  0  0  0  0  0
  142.7400   80.1850  218.0190 C   0  0  0  0  0  0  0  0  0  0  0  0
  141.7480   81.2830  218.1520 C   0  0  0  0  0  0  0  0  0  0  0  0
  141.7750   81.9560  219.4820 C   0  0  0  0  0  0  0  0  0  0  0  0
  141.4990   81.1490  220.5610 O   0  0  0  0  0  0  0  0  0  0  0  0
  140.5520   81.1270  221.5170 C   0  0  0  0  0  0  0  0  0  0  0  0
  139.2330   81.4990  221.4050 C   0  0  0  0  0  0  0  0  0  0  0  0
  138.3350   81.4320  222.4650 C   0  0  0  0  0  0  0  0  0  0  0  0
  138.7400   80.9790  223.6990 C   0  0  0  0  0  0  0  0  0  0  0  0
  137.5940   80.9080  225.0040 Cl  0  0  0  0  0  0  0  0  0  0  0  0
  140.0530   80.6010  223.8360 C   0  0  0  0  0  0  0  0  0  0  0  0
  140.9340   80.6690  222.7880 C   0  0  0  0  0  0  0  0  0  0  0  0
  142.7400   80.1160  223.0910 Br  0  0  0  0  0  0  0  0  0  0  0  0
  142.1750   78.5590  219.7970 N   0  0  0  0  0  0  0  0  0  0  0  0
  141.6900   77.3780  220.3960 C   0  0  0  0  0  0  0  0  0  0  0  0
  140.6170   77.4950  221.2950 C   0  0  0  0  0  0  0  0  0  0  0  0
  140.0730   76.4030  221.9280 C   0  0  0  0  0  0  0  0  0  0  0  0
  140.5560   75.1310  221.7140 C   0  0  0  0  0  0  0  0  0  0  0  0
  140.0170   74.0270  222.3460 O   0  0  0  0  0  0  0  0  0  0  0  0
  141.6070   75.0020  220.8350 C   0  0  0  0  0  0  0  0  0  0  0  0
  142.0960   73.7610  220.6100 F   0  0  0  0  0  0  0  0  0  0  0  0
  142.1540   76.1190  220.1940 C   0  0  0  0  0  0  0  0  0  0  0  0
  143.6115   80.4141  218.6499 H   0  0  0  0  0  0  0  0  0  0  0  0
  143.0274   80.1103  216.9598 H   0  0  0  0  0  0  0  0  0  0  0  0
  141.9568   82.0356  217.3774 H   0  0  0  0  0  0  0  0  0  0  0  0
  140.7512   80.8315  218.0399 H   0  0  0  0  0  0  0  0  0  0  0  0
  142.7790   82.3819  219.6257 H   0  0  0  0  0  0  0  0  0  0  0  0
  140.9730   82.7084  219.4554 H   0  0  0  0  0  0  0  0  0  0  0  0
  138.8717   81.8662  220.4331 H   0  0  0  0  0  0  0  0  0  0  0  0
  137.2910   81.7443  222.3151 H   0  0  0  0  0  0  0  0  0  0  0  0
  140.4066   80.2345  224.8110 H   0  0  0  0  0  0  0  0  0  0  0  0
  142.5910   79.2920  220.4510 H   0  0  0  0  0  0  0  0  0  0  0  0
  140.1990   78.4919  221.4988 H   0  0  0  0  0  0  0  0  0  0  0  0
  139.2320   76.5484  222.6219 H   0  0  0  0  0  0  0  0  0  0  0  0
  139.1830   74.1590  222.8990 H   0  0  0  0  0  0  0  0  0  0  0  0
  142.9934   75.9706  219.4988 H   0  0  0  0  0  0  0  0  0  0  0  0
  1  2  2  0
  2  3  1  0
  3  4  1  0
  4  5  1  0
  5  6  1  0
  6  7  1  0
  7  8  2  0
  8  9  1  0
  9 10  2  0
 10 11  1  0
 10 12  1  0
 12 13  2  0
 13 14  1  0
  2 15  1  0
 15 16  1  0
 16 17  2  0
 17 18  1  0
 18 19  2  0
 19 20  1  0
 19 21  1  0
 21 22  1  0
 21 23  2  0
 13  7  1  0
 23 16  1  0
  3 24  1  0
  3 25  1  0
  4 26  1  0
  4 27  1  0
  5 28  1  0
  5 29  1  0
  8 30  1  0
  9 31  1  0
 12 32  1  0
 15 33  1  0
 17 34  1  0
 18 35  1  0
 20 36  1  0
 23 37  1  0
M  END
>  <smiles>  (6) 
O=C(CCCOc1ccc(Cl)cc1Br)Nc1ccc(O)c(F)c1

>  <score_type>  (6) 
oracle

>  <origin>  (6) 
autodockgpu

>  <m_score__min__energy>  (6) 
-6.5700000000000003

>  <m_primary>  (6) 
energy

>  <meeko>  (6) 
{"free_energy": -5.61, "intermolecular_energy": -7.7, "internal_energy": -2.11, "cluster_size": 3, "cluster_id": 5, "rank_in_cluster": 1}

>  <energy>  (6) 
-5.78

>  <cluster_rmsd>  (6) 
1.03

>  <rmsd>  (6) 
271.15

>  <cluster>  (6) 
2

$$$$

     RDKit          3D

 37 38  0  0  0  0  0  0  0  0999 V2000
  135.2450   71.7220  221.5810 O   0  0  0  0  0  0  0  0  0  0  0  0
  136.3700   72.1440  221.8820 C   0  0  0  0  0  0  0  0  0  0  0  0
  137.5040   72.0530  220.9520 C   0  0  0  0  0  0  0  0  0  0  0  0
  138.5410   71.1060  221.4370 C   0  0  0  0  0  0  0  0  0  0  0  0
  139.5170   71.7210  222.3810 C   0  0  0  0  0  0  0  0  0  0  0  0
  139.1660   71.6780  223.7100 O   0  0  0  0  0  0  0  0  0  0  0  0
  139.6160   71.0190  224.7940 C   0  0  0  0  0  0  0  0  0  0  0  0
  140.6940   71.3390  225.5850 C   0  0  0  0  0  0  0  0  0  0  0  0
  141.0710   70.5850  226.6920 C   0  0  0  0  0  0  0  0  0  0  0  0
  140.3630   69.4600  227.0470 C   0  0  0  0  0  0  0  0  0  0  0  0
  140.8600   68.5380  228.4340 Cl  0  0  0  0  0  0  0  0  0  0  0  0
  139.2820   69.1200  226.2710 C   0  0  0  0  0  0  0  0  0  0  0  0
  138.9140   69.8670  225.1830 C   0  0  0  0  0  0  0  0  0  0  0  0
  137.3910   69.3020  224.1740 Br  0  0  0  0  0  0  0  0  0  0  0  0
  136.5730   72.7270  223.1440 N   0  0  0  0  0  0  0  0  0  0  0  0
  135.6270   72.9080  224.1720 C   0  0  0  0  0  0  0  0  0  0  0  0
  135.3170   74.2240  224.5510 C   0  0  0  0  0  0  0  0  0  0  0  0
  134.4070   74.5030  225.5430 C   0  0  0  0  0  0  0  0  0  0  0  0
  133.7490   73.5010  226.2200 C   0  0  0  0  0  0  0  0  0  0  0  0
  132.8320   73.7700  227.2190 O   0  0  0  0  0  0  0  0  0  0  0  0
  134.0430   72.2060  225.8590 C   0  0  0  0  0  0  0  0  0  0  0  0
  133.4070   71.2060  226.5130 F   0  0  0  0  0  0  0  0  0  0  0  0
  134.9700   71.9300  224.8490 C   0  0  0  0  0  0  0  0  0  0  0  0
  137.1360   71.7079  219.9745 H   0  0  0  0  0  0  0  0  0  0  0  0
  137.9619   73.0500  220.8727 H   0  0  0  0  0  0  0  0  0  0  0  0
  138.0383   70.2731  221.9504 H   0  0  0  0  0  0  0  0  0  0  0  0
  139.1102   70.7728  220.5567 H   0  0  0  0  0  0  0  0  0  0  0  0
  140.4760   71.1944  222.2670 H   0  0  0  0  0  0  0  0  0  0  0  0
  139.5611   72.7876  222.1157 H   0  0  0  0  0  0  0  0  0  0  0  0
  141.2851   72.2313  225.3313 H   0  0  0  0  0  0  0  0  0  0  0  0
  141.9429   70.8911  227.2887 H   0  0  0  0  0  0  0  0  0  0  0  0
  138.6968   68.2252  226.5296 H   0  0  0  0  0  0  0  0  0  0  0  0
  137.5650   73.0690  223.3380 H   0  0  0  0  0  0  0  0  0  0  0  0
  135.8181   75.0581  224.0380 H   0  0  0  0  0  0  0  0  0  0  0  0
  134.1997   75.5518  225.8020 H   0  0  0  0  0  0  0  0  0  0  0  0
  132.7380   73.1000  227.9670 H   0  0  0  0  0  0  0  0  0  0  0  0
  135.1754   70.8802  224.5926 H   0  0  0  0  0  0  0  0  0  0  0  0
  1  2  2  0
  2  3  1  0
  3  4  1  0
  4  5  1  0
  5  6  1  0
  6  7  1  0
  7  8  2  0
  8  9  1  0
  9 10  2  0
 10 11  1  0
 10 12  1  0
 12 13  2  0
 13 14  1  0
  2 15  1  0
 15 16  1  0
 16 17  2  0
 17 18  1  0
 18 19  2  0
 19 20  1  0
 19 21  1  0
 21 22  1  0
 21 23  2  0
 13  7  1  0
 23 16  1  0
  3 24  1  0
  3 25  1  0
  4 26  1  0
  4 27  1  0
  5 28  1  0
  5 29  1  0
  8 30  1  0
  9 31  1  0
 12 32  1  0
 15 33  1  0
 17 34  1  0
 18 35  1  0
 20 36  1  0
 23 37  1  0
M  END
>  <smiles>  (7) 
O=C(CCCOc1ccc(Cl)cc1Br)Nc1ccc(O)c(F)c1

>  <score_type>  (7) 
oracle

>  <origin>  (7) 
autodockgpu

>  <m_score__min__energy>  (7) 
-6.5700000000000003

>  <m_primary>  (7) 
energy

>  <meeko>  (7) 
{"free_energy": -5.76, "intermolecular_energy": -7.85, "internal_energy": -1.95, "cluster_size": 8, "cluster_id": 4, "rank_in_cluster": 4}

>  <energy>  (7) 
-5.95

>  <cluster_rmsd>  (7) 
0.0

>  <rmsd>  (7) 
270.94

>  <cluster>  (7) 
3

$$$$

     RDKit          3D

 37 38  0  0  0  0  0  0  0  0999 V2000
  140.6970   72.7230  222.5170 O   0  0  0  0  0  0  0  0  0  0  0  0
  140.1410   73.4500  221.6830 C   0  0  0  0  0  0  0  0  0  0  0  0
  138.7160   73.7940  221.7870 C   0  0  0  0  0  0  0  0  0  0  0  0
  138.5140   75.2530  221.9820 C   0  0  0  0  0  0  0  0  0  0  0  0
  138.7860   76.0640  220.7610 C   0  0  0  0  0  0  0  0  0  0  0  0
  140.0110   76.6870  220.7230 O   0  0  0  0  0  0  0  0  0  0  0  0
  140.6290   77.6200  221.4710 C   0  0  0  0  0  0  0  0  0  0  0  0
  140.5070   77.8300  222.8240 C   0  0  0  0  0  0  0  0  0  0  0  0
  141.2010   78.8290  223.5010 C   0  0  0  0  0  0  0  0  0  0  0  0
  142.0570   79.6670  222.8250 C   0  0  0  0  0  0  0  0  0  0  0  0
  142.9090   80.9060  223.6980 Cl  0  0  0  0  0  0  0  0  0  0  0  0
  142.1960   79.4760  221.4720 C   0  0  0  0  0  0  0  0  0  0  0  0
  141.5110   78.4900  220.8110 C   0  0  0  0  0  0  0  0  0  0  0  0
  141.7810   78.3130  218.9260 Br  0  0  0  0  0  0  0  0  0  0  0  0
  140.8860   73.9630  220.6100 N   0  0  0  0  0  0  0  0  0  0  0  0
  142.2520   73.7550  220.3300 C   0  0  0  0  0  0  0  0  0  0  0  0
  143.1040   74.8700  220.3690 C   0  0  0  0  0  0  0  0  0  0  0  0
  144.4510   74.7690  220.1120 C   0  0  0  0  0  0  0  0  0  0  0  0
  145.0360   73.5620  219.8010 C   0  0  0  0  0  0  0  0  0  0  0  0
  146.3890   73.4490  219.5410 O   0  0  0  0  0  0  0  0  0  0  0  0
  144.2130   72.4600  219.7600 C   0  0  0  0  0  0  0  0  0  0  0  0
  144.7680   71.2640  219.4560 F   0  0  0  0  0  0  0  0  0  0  0  0
  142.8430   72.5720  220.0220 C   0  0  0  0  0  0  0  0  0  0  0  0
  138.2065   73.4843  220.8626 H   0  0  0  0  0  0  0  0  0  0  0  0
  138.3007   73.2712  222.6612 H   0  0  0  0  0  0  0  0  0  0  0  0
  137.4702   75.4216  222.2855 H   0  0  0  0  0  0  0  0  0  0  0  0
  139.2319   75.5772  222.7498 H   0  0  0  0  0  0  0  0  0  0  0  0
  138.7185   75.3965  219.8893 H   0  0  0  0  0  0  0  0  0  0  0  0
  138.0379   76.8704  220.7623 H   0  0  0  0  0  0  0  0  0  0  0  0
  139.8305   77.1793  223.3976 H   0  0  0  0  0  0  0  0  0  0  0  0
  141.0637   78.9492  224.5858 H   0  0  0  0  0  0  0  0  0  0  0  0
  142.8740   80.1307  220.9048 H   0  0  0  0  0  0  0  0  0  0  0  0
  140.3460   74.5820  219.9290 H   0  0  0  0  0  0  0  0  0  0  0  0
  142.6807   75.8556  220.6129 H   0  0  0  0  0  0  0  0  0  0  0  0
  145.0757   75.6734  220.1559 H   0  0  0  0  0  0  0  0  0  0  0  0
  146.8190   74.1530  218.9600 H   0  0  0  0  0  0  0  0  0  0  0  0
  142.2205   71.6662  219.9767 H   0  0  0  0  0  0  0  0  0  0  0  0
  1  2  2  0
  2  3  1  0
  3  4  1  0
  4  5  1  0
  5  6  1  0
  6  7  1  0
  7  8  2  0
  8  9  1  0
  9 10  2  0
 10 11  1  0
 10 12  1  0
 12 13  2  0
 13 14  1  0
  2 15  1  0
 15 16  1  0
 16 17  2  0
 17 18  1  0
 18 19  2  0
 19 20  1  0
 19 21  1  0
 21 22  1  0
 21 23  2  0
 13  7  1  0
 23 16  1  0
  3 24  1  0
  3 25  1  0
  4 26  1  0
  4 27  1  0
  5 28  1  0
  5 29  1  0
  8 30  1  0
  9 31  1  0
 12 32  1  0
 15 33  1  0
 17 34  1  0
 18 35  1  0
 20 36  1  0
 23 37  1  0
M  END
>  <smiles>  (8) 
O=C(CCCOc1ccc(Cl)cc1Br)Nc1ccc(O)c(F)c1

>  <score_type>  (8) 
oracle

>  <origin>  (8) 
autodockgpu

>  <m_score__min__energy>  (8) 
-6.5700000000000003

>  <m_primary>  (8) 
energy

>  <meeko>  (8) 
{"free_energy": -5.78, "intermolecular_energy": -7.87, "internal_energy": -1.75, "cluster_size": 5, "cluster_id": 2, "rank_in_cluster": 5}

>  <energy>  (8) 
-5.9

>  <cluster_rmsd>  (8) 
1.51

>  <rmsd>  (8) 
270.9

>  <cluster>  (8) 
3

$$$$

     RDKit          3D

 37 38  0  0  0  0  0  0  0  0999 V2000
  143.3390   76.3310  217.1820 O   0  0  0  0  0  0  0  0  0  0  0  0
  143.1800   77.1480  218.0990 C   0  0  0  0  0  0  0  0  0  0  0  0
  142.9430   78.5740  217.8310 C   0  0  0  0  0  0  0  0  0  0  0  0
  141.5140   78.8490  217.5330 C   0  0  0  0  0  0  0  0  0  0  0  0
  140.5660   78.0790  218.3880 C   0  0  0  0  0  0  0  0  0  0  0  0
  140.9330   77.9430  219.7060 O   0  0  0  0  0  0  0  0  0  0  0  0
  141.3260   78.7870  220.6780 C   0  0  0  0  0  0  0  0  0  0  0  0
  141.7730   80.0800  220.5410 C   0  0  0  0  0  0  0  0  0  0  0  0
  142.1530   80.8690  221.6220 C   0  0  0  0  0  0  0  0  0  0  0  0
  142.0950   80.3740  222.9040 C   0  0  0  0  0  0  0  0  0  0  0  0
  142.5770   81.3840  224.2340 Cl  0  0  0  0  0  0  0  0  0  0  0  0
  141.6500   79.0850  223.0680 C   0  0  0  0  0  0  0  0  0  0  0  0
  141.2770   78.3120  221.9990 C   0  0  0  0  0  0  0  0  0  0  0  0
  140.6720   76.5310  222.3420 Br  0  0  0  0  0  0  0  0  0  0  0  0
  143.2240   76.7070  219.4310 N   0  0  0  0  0  0  0  0  0  0  0  0
  143.4370   75.3940  219.8980 C   0  0  0  0  0  0  0  0  0  0  0  0
  142.3420   74.5150  219.9000 C   0  0  0  0  0  0  0  0  0  0  0  0
  142.4500   73.2160  220.3350 C   0  0  0  0  0  0  0  0  0  0  0  0
  143.6430   72.7070  220.7950 C   0  0  0  0  0  0  0  0  0  0  0  0
  143.7630   71.4020  221.2360 O   0  0  0  0  0  0  0  0  0  0  0  0
  144.7250   73.5570  220.7990 C   0  0  0  0  0  0  0  0  0  0  0  0
  145.9080   73.0760  221.2470 F   0  0  0  0  0  0  0  0  0  0  0  0
  144.6070   74.8780  220.3540 C   0  0  0  0  0  0  0  0  0  0  0  0
  143.2410   79.1568  218.7151 H   0  0  0  0  0  0  0  0  0  0  0  0
  143.5371   78.8599  216.9505 H   0  0  0  0  0  0  0  0  0  0  0  0
  141.3273   79.9221  217.6864 H   0  0  0  0  0  0  0  0  0  0  0  0
  141.3360   78.5372  216.4932 H   0  0  0  0  0  0  0  0  0  0  0  0
  139.5921   78.5895  218.3585 H   0  0  0  0  0  0  0  0  0  0  0  0
  140.5458   77.0601  217.9739 H   0  0  0  0  0  0  0  0  0  0  0  0
  141.8329   80.5103  219.5304 H   0  0  0  0  0  0  0  0  0  0  0  0
  142.5029   81.8976  221.4500 H   0  0  0  0  0  0  0  0  0  0  0  0
  141.5914   78.6625  224.0819 H   0  0  0  0  0  0  0  0  0  0  0  0
  143.0790   77.4620  220.1710 H   0  0  0  0  0  0  0  0  0  0  0  0
  141.3671   74.8776  219.5421 H   0  0  0  0  0  0  0  0  0  0  0  0
  141.5617   72.5675  220.3151 H   0  0  0  0  0  0  0  0  0  0  0  0
  144.4390   71.2070  221.9580 H   0  0  0  0  0  0  0  0  0  0  0  0
  145.4971   75.5240  220.3744 H   0  0  0  0  0  0  0  0  0  0  0  0
  1  2  2  0
  2  3  1  0
  3  4  1  0
  4  5  1  0
  5  6  1  0
  6  7  1  0
  7  8  2  0
  8  9  1  0
  9 10  2  0
 10 11  1  0
 10 12  1  0
 12 13  2  0
 13 14  1  0
  2 15  1  0
 15 16  1  0
 16 17  2  0
 17 18  1  0
 18 19  2  0
 19 20  1  0
 19 21  1  0
 21 22  1  0
 21 23  2  0
 13  7  1  0
 23 16  1  0
  3 24  1  0
  3 25  1  0
  4 26  1  0
  4 27  1  0
  5 28  1  0
  5 29  1  0
  8 30  1  0
  9 31  1  0
 12 32  1  0
 15 33  1  0
 17 34  1  0
 18 35  1  0
 20 36  1  0
 23 37  1  0
M  END
>  <smiles>  (9) 
O=C(CCCOc1ccc(Cl)cc1Br)Nc1ccc(O)c(F)c1

>  <score_type>  (9) 
oracle

>  <origin>  (9) 
autodockgpu

>  <m_score__min__energy>  (9) 
-6.5700000000000003

>  <m_primary>  (9) 
energy

>  <meeko>  (9) 
{"free_energy": -5.48, "intermolecular_energy": -7.57, "internal_energy": -1.85, "cluster_size": 1, "cluster_id": 6, "rank_in_cluster": 1}

>  <energy>  (9) 
-5.81

>  <cluster_rmsd>  (9) 
0.0

>  <rmsd>  (9) 
270.78

>  <cluster>  (9) 
4

$$$$

     RDKit          3D

 37 38  0  0  0  0  0  0  0  0999 V2000
  135.1880   72.0150  221.5260 O   0  0  0  0  0  0  0  0  0  0  0  0
  136.3520   72.1720  221.9200 C   0  0  0  0  0  0  0  0  0  0  0  0
  137.5020   71.9840  221.0250 C   0  0  0  0  0  0  0  0  0  0  0  0
  138.6650   72.8100  221.4420 C   0  0  0  0  0  0  0  0  0  0  0  0
  139.6130   72.0960  222.3440 C   0  0  0  0  0  0  0  0  0  0  0  0
  139.1020   71.7230  223.5650 O   0  0  0  0  0  0  0  0  0  0  0  0
  139.5840   71.0740  224.6420 C   0  0  0  0  0  0  0  0  0  0  0  0
  140.6350   71.4440  225.4470 C   0  0  0  0  0  0  0  0  0  0  0  0
  141.0490   70.6940  226.5440 C   0  0  0  0  0  0  0  0  0  0  0  0
  140.4070   69.5240  226.8740 C   0  0  0  0  0  0  0  0  0  0  0  0
  140.9480   68.6090  228.2500 Cl  0  0  0  0  0  0  0  0  0  0  0  0
  139.3530   69.1330  226.0840 C   0  0  0  0  0  0  0  0  0  0  0  0
  138.9500   69.8750  225.0050 C   0  0  0  0  0  0  0  0  0  0  0  0
  137.4700   69.2370  223.9750 Br  0  0  0  0  0  0  0  0  0  0  0  0
  136.5840   72.5400  223.2550 N   0  0  0  0  0  0  0  0  0  0  0  0
  135.6280   72.7670  224.2660 C   0  0  0  0  0  0  0  0  0  0  0  0
  135.3610   74.0980  224.6270 C   0  0  0  0  0  0  0  0  0  0  0  0
  134.4460   74.4210  225.6000 C   0  0  0  0  0  0  0  0  0  0  0  0
  133.7400   73.4510  226.2750 C   0  0  0  0  0  0  0  0  0  0  0  0
  132.8170   73.7650  227.2560 O   0  0  0  0  0  0  0  0  0  0  0  0
  133.9900   72.1430  225.9310 C   0  0  0  0  0  0  0  0  0  0  0  0
  133.3060   71.1740  226.5830 F   0  0  0  0  0  0  0  0  0  0  0  0
  134.9230   71.8220  224.9400 C   0  0  0  0  0  0  0  0  0  0  0  0
  137.7947   70.9238  221.0389 H   0  0  0  0  0  0  0  0  0  0  0  0
  137.2039   72.2979  220.0138 H   0  0  0  0  0  0  0  0  0  0  0  0
  139.2116   73.1212  220.5396 H   0  0  0  0  0  0  0  0  0  0  0  0
  138.2662   73.6658  222.0064 H   0  0  0  0  0  0  0  0  0  0  0  0
  139.9528   71.1866  221.8268 H   0  0  0  0  0  0  0  0  0  0  0  0
  140.4202   72.8112  222.5605 H   0  0  0  0  0  0  0  0  0  0  0  0
  141.1730   72.3746  225.2138 H   0  0  0  0  0  0  0  0  0  0  0  0
  141.8974   71.0405  227.1523 H   0  0  0  0  0  0  0  0  0  0  0  0
  138.8196   68.2013  226.3237 H   0  0  0  0  0  0  0  0  0  0  0  0
  137.6080   72.6590  223.5280 H   0  0  0  0  0  0  0  0  0  0  0  0
  135.9015   74.9074  224.1145 H   0  0  0  0  0  0  0  0  0  0  0  0
  134.2737   75.4794  225.8452 H   0  0  0  0  0  0  0  0  0  0  0  0
  132.7000   73.1160  228.0190 H   0  0  0  0  0  0  0  0  0  0  0  0
  135.0925   70.7627  224.6969 H   0  0  0  0  0  0  0  0  0  0  0  0
  1  2  2  0
  2  3  1  0
  3  4  1  0
  4  5  1  0
  5  6  1  0
  6  7  1  0
  7  8  2  0
  8  9  1  0
  9 10  2  0
 10 11  1  0
 10 12  1  0
 12 13  2  0
 13 14  1  0
  2 15  1  0
 15 16  1  0
 16 17  2  0
 17 18  1  0
 18 19  2  0
 19 20  1  0
 19 21  1  0
 21 22  1  0
 21 23  2  0
 13  7  1  0
 23 16  1  0
  3 24  1  0
  3 25  1  0
  4 26  1  0
  4 27  1  0
  5 28  1  0
  5 29  1  0
  8 30  1  0
  9 31  1  0
 12 32  1  0
 15 33  1  0
 17 34  1  0
 18 35  1  0
 20 36  1  0
 23 37  1  0
M  END
>  <smiles>  (10) 
O=C(CCCOc1ccc(Cl)cc1Br)Nc1ccc(O)c(F)c1

>  <score_type>  (10) 
oracle

>  <origin>  (10) 
autodockgpu

>  <m_score__min__energy>  (10) 
-6.5700000000000003

>  <m_primary>  (10) 
energy

>  <meeko>  (10) 
{"free_energy": -5.72, "intermolecular_energy": -7.81, "internal_energy": -1.99, "cluster_size": 8, "cluster_id": 4, "rank_in_cluster": 6}

>  <energy>  (10) 
-5.76

>  <cluster_rmsd>  (10) 
0.34

>  <rmsd>  (10) 
270.73

>  <cluster>  (10) 
4

$$$$

     RDKit          3D

 37 38  0  0  0  0  0  0  0  0999 V2000
  140.8820   70.5490  219.0290 O   0  0  0  0  0  0  0  0  0  0  0  0
  140.5180   71.0760  220.0890 C   0  0  0  0  0  0  0  0  0  0  0  0
  139.1610   70.8880  220.6190 C   0  0  0  0  0  0  0  0  0  0  0  0
  138.6570   72.1140  221.2930 C   0  0  0  0  0  0  0  0  0  0  0  0
  139.1000   72.2410  222.7110 C   0  0  0  0  0  0  0  0  0  0  0  0
  139.8710   71.2070  223.1870 O   0  0  0  0  0  0  0  0  0  0  0  0
  140.1030   70.6710  224.3990 C   0  0  0  0  0  0  0  0  0  0  0  0
  140.8390   71.2070  225.4300 C   0  0  0  0  0  0  0  0  0  0  0  0
  141.0130   70.5640  226.6510 C   0  0  0  0  0  0  0  0  0  0  0  0
  140.4410   69.3340  226.8820 C   0  0  0  0  0  0  0  0  0  0  0  0
  140.6780   68.5550  228.4180 Cl  0  0  0  0  0  0  0  0  0  0  0  0
  139.7010   68.7780  225.8680 C   0  0  0  0  0  0  0  0  0  0  0  0
  139.5330   69.4160  224.6670 C   0  0  0  0  0  0  0  0  0  0  0  0
  138.4810   68.5490  223.3250 Br  0  0  0  0  0  0  0  0  0  0  0  0
  141.4220   71.8740  220.8070 N   0  0  0  0  0  0  0  0  0  0  0  0
  142.7580   72.1780  220.4740 C   0  0  0  0  0  0  0  0  0  0  0  0
  143.1710   73.5160  220.5840 C   0  0  0  0  0  0  0  0  0  0  0  0
  144.4530   73.9110  220.2830 C   0  0  0  0  0  0  0  0  0  0  0  0
  145.4030   73.0110  219.8550 C   0  0  0  0  0  0  0  0  0  0  0  0
  146.6940   73.3980  219.5490 O   0  0  0  0  0  0  0  0  0  0  0  0
  145.0120   71.6960  219.7430 C   0  0  0  0  0  0  0  0  0  0  0  0
  145.9310   70.7950  219.3250 F   0  0  0  0  0  0  0  0  0  0  0  0
  143.7060   71.3020  220.0520 C   0  0  0  0  0  0  0  0  0  0  0  0
  138.4860   70.6354  219.7880 H   0  0  0  0  0  0  0  0  0  0  0  0
  139.1933   70.0777  221.3623 H   0  0  0  0  0  0  0  0  0  0  0  0
  139.0188   72.9907  220.7359 H   0  0  0  0  0  0  0  0  0  0  0  0
  137.5590   72.0483  221.3029 H   0  0  0  0  0  0  0  0  0  0  0  0
  139.6845   73.1685  222.8012 H   0  0  0  0  0  0  0  0  0  0  0  0
  138.1809   72.2342  223.3153 H   0  0  0  0  0  0  0  0  0  0  0  0
  141.3117   72.1892  225.2821 H   0  0  0  0  0  0  0  0  0  0  0  0
  141.6131   71.0429  227.4388 H   0  0  0  0  0  0  0  0  0  0  0  0
  139.2312   67.7956  226.0236 H   0  0  0  0  0  0  0  0  0  0  0  0
  141.0450   72.2980  221.7110 H   0  0  0  0  0  0  0  0  0  0  0  0
  142.4461   74.2714  220.9215 H   0  0  0  0  0  0  0  0  0  0  0  0
  144.7263   74.9715  220.3866 H   0  0  0  0  0  0  0  0  0  0  0  0
  146.8530   74.3650  219.3120 H   0  0  0  0  0  0  0  0  0  0  0  0
  143.4361   70.2406  219.9491 H   0  0  0  0  0  0  0  0  0  0  0  0
  1  2  2  0
  2  3  1  0
  3  4  1  0
  4  5  1  0
  5  6  1  0
  6  7  1  0
  7  8  2  0
  8  9  1  0
  9 10  2  0
 10 11  1  0
 10 12  1  0
 12 13  2  0
 13 14  1  0
  2 15  1  0
 15 16  1  0
 16 17  2  0
 17 18  1  0
 18 19  2  0
 19 20  1  0
 19 21  1  0
 21 22  1  0
 21 23  2  0
 13  7  1  0
 23 16  1  0
  3 24  1  0
  3 25  1  0
  4 26  1  0
  4 27  1  0
  5 28  1  0
  5 29  1  0
  8 30  1  0
  9 31  1  0
 12 32  1  0
 15 33  1  0
 17 34  1  0
 18 35  1  0
 20 36  1  0
 23 37  1  0
M  END
>  <smiles>  (11) 
O=C(CCCOc1ccc(Cl)cc1Br)Nc1ccc(O)c(F)c1

>  <score_type>  (11) 
oracle

>  <origin>  (11) 
autodockgpu

>  <m_score__min__energy>  (11) 
-6.5700000000000003

>  <m_primary>  (11) 
energy

>  <meeko>  (11) 
{"free_energy": -5.9, "intermolecular_energy": -7.99, "internal_energy": -1.5, "cluster_size": 2, "cluster_id": 3, "rank_in_cluster": 2}

>  <energy>  (11) 
-5.76

>  <cluster_rmsd>  (11) 
0.35

>  <rmsd>  (11) 
270.75

>  <cluster>  (11) 
4

$$$$

     RDKit          3D

 37 38  0  0  0  0  0  0  0  0999 V2000
  140.3320   73.3150  222.3480 O   0  0  0  0  0  0  0  0  0  0  0  0
  140.2210   74.2940  221.5980 C   0  0  0  0  0  0  0  0  0  0  0  0
  139.0170   75.1370  221.6010 C   0  0  0  0  0  0  0  0  0  0  0  0
  138.6470   75.5750  220.2300 C   0  0  0  0  0  0  0  0  0  0  0  0
  139.1790   76.9200  219.8680 C   0  0  0  0  0  0  0  0  0  0  0  0
  140.4540   77.1910  220.3060 O   0  0  0  0  0  0  0  0  0  0  0  0
  140.9870   77.9830  221.2550 C   0  0  0  0  0  0  0  0  0  0  0  0
  140.9810   77.7870  222.6160 C   0  0  0  0  0  0  0  0  0  0  0  0
  141.5700   78.6750  223.5110 C   0  0  0  0  0  0  0  0  0  0  0  0
  142.1950   79.8130  223.0580 C   0  0  0  0  0  0  0  0  0  0  0  0
  142.9210   80.9040  224.2020 Cl  0  0  0  0  0  0  0  0  0  0  0  0
  142.2140   80.0310  221.7020 C   0  0  0  0  0  0  0  0  0  0  0  0
  141.6340   79.1530  220.8250 C   0  0  0  0  0  0  0  0  0  0  0  0
  141.7200   79.5540  218.9570 Br  0  0  0  0  0  0  0  0  0  0  0  0
  141.2690   74.6140  220.7210 N   0  0  0  0  0  0  0  0  0  0  0  0
  142.4980   73.9390  220.5630 C   0  0  0  0  0  0  0  0  0  0  0  0
  143.6590   74.7180  220.4350 C   0  0  0  0  0  0  0  0  0  0  0  0
  144.9030   74.1540  220.2780 C   0  0  0  0  0  0  0  0  0  0  0  0
  145.0750   72.7890  220.2370 C   0  0  0  0  0  0  0  0  0  0  0  0
  146.3210   72.2110  220.0800 O   0  0  0  0  0  0  0  0  0  0  0  0
  143.9450   72.0130  220.3620 C   0  0  0  0  0  0  0  0  0  0  0  0
  144.0920   70.6680  220.3260 F   0  0  0  0  0  0  0  0  0  0  0  0
  142.6830   72.5950  220.5220 C   0  0  0  0  0  0  0  0  0  0  0  0
  138.1817   74.5634  222.0292 H   0  0  0  0  0  0  0  0  0  0  0  0
  139.2290   76.0341  222.2012 H   0  0  0  0  0  0  0  0  0  0  0  0
  139.0413   74.8406  219.5122 H   0  0  0  0  0  0  0  0  0  0  0  0
  137.5496   75.6436  220.1989 H   0  0  0  0  0  0  0  0  0  0  0  0
  139.1730   77.0026  218.7711 H   0  0  0  0  0  0  0  0  0  0  0  0
  138.5261   77.6480  220.3717 H   0  0  0  0  0  0  0  0  0  0  0  0
  140.4886   76.8880  223.0152 H   0  0  0  0  0  0  0  0  0  0  0  0
  141.5353   78.4648  224.5902 H   0  0  0  0  0  0  0  0  0  0  0  0
  142.7072   80.9330  221.3106 H   0  0  0  0  0  0  0  0  0  0  0  0
  141.1090   75.4690  220.1030 H   0  0  0  0  0  0  0  0  0  0  0  0
  143.5705   75.8141  220.4611 H   0  0  0  0  0  0  0  0  0  0  0  0
  145.7815   74.8091  220.1829 H   0  0  0  0  0  0  0  0  0  0  0  0
  146.6080   71.5170  220.7530 H   0  0  0  0  0  0  0  0  0  0  0  0
  141.8063   71.9377  220.6184 H   0  0  0  0  0  0  0  0  0  0  0  0
  1  2  2  0
  2  3  1  0
  3  4  1  0
  4  5  1  0
  5  6  1  0
  6  7  1  0
  7  8  2  0
  8  9  1  0
  9 10  2  0
 10 11  1  0
 10 12  1  0
 12 13  2  0
 13 14  1  0
  2 15  1  0
 15 16  1  0
 16 17  2  0
 17 18  1  0
 18 19  2  0
 19 20  1  0
 19 21  1  0
 21 22  1  0
 21 23  2  0
 13  7  1  0
 23 16  1  0
  3 24  1  0
  3 25  1  0
  4 26  1  0
  4 27  1  0
  5 28  1  0
  5 29  1  0
  8 30  1  0
  9 31  1  0
 12 32  1  0
 15 33  1  0
 17 34  1  0
 18 35  1  0
 20 36  1  0
 23 37  1  0
M  END
>  <smiles>  (12) 
O=C(CCCOc1ccc(Cl)cc1Br)Nc1ccc(O)c(F)c1

>  <score_type>  (12) 
oracle

>  <origin>  (12) 
autodockgpu

>  <m_score__min__energy>  (12) 
-6.5700000000000003

>  <m_primary>  (12) 
energy

>  <meeko>  (12) 
{"free_energy": -6.08, "intermolecular_energy": -8.17, "internal_energy": -1.83, "cluster_size": 5, "cluster_id": 2, "rank_in_cluster": 1}

>  <energy>  (12) 
-5.76

>  <cluster_rmsd>  (12) 
0.35

>  <rmsd>  (12) 
270.72

>  <cluster>  (12) 
4

$$$$

     RDKit          3D

 37 38  0  0  0  0  0  0  0  0999 V2000
  135.2410   71.6170  221.6590 O   0  0  0  0  0  0  0  0  0  0  0  0
  136.3920   71.9160  222.0070 C   0  0  0  0  0  0  0  0  0  0  0  0
  137.5430   71.7220  221.1140 C   0  0  0  0  0  0  0  0  0  0  0  0
  138.6970   72.5710  221.5100 C   0  0  0  0  0  0  0  0  0  0  0  0
  139.6590   71.8860  222.4200 C   0  0  0  0  0  0  0  0  0  0  0  0
  139.2160   71.6810  223.7050 O   0  0  0  0  0  0  0  0  0  0  0  0
  139.6880   71.0280  224.7830 C   0  0  0  0  0  0  0  0  0  0  0  0
  140.6230   71.4670  225.6910 C   0  0  0  0  0  0  0  0  0  0  0  0
  141.0390   70.7060  226.7780 C   0  0  0  0  0  0  0  0  0  0  0  0
  140.5190   69.4510  226.9940 C   0  0  0  0  0  0  0  0  0  0  0  0
  141.0590   68.5230  228.3610 Cl  0  0  0  0  0  0  0  0  0  0  0  0
  139.5830   68.9900  226.1010 C   0  0  0  0  0  0  0  0  0  0  0  0
  139.1760   69.7440  225.0310 C   0  0  0  0  0  0  0  0  0  0  0  0
  137.8660   69.0040  223.8510 Br  0  0  0  0  0  0  0  0  0  0  0  0
  136.6090   72.4540  223.2850 N   0  0  0  0  0  0  0  0  0  0  0  0
  135.6490   72.7170  224.2840 C   0  0  0  0  0  0  0  0  0  0  0  0
  135.4040   74.0590  224.6180 C   0  0  0  0  0  0  0  0  0  0  0  0
  134.4870   74.4160  225.5780 C   0  0  0  0  0  0  0  0  0  0  0  0
  133.7590   73.4710  226.2660 C   0  0  0  0  0  0  0  0  0  0  0  0
  132.8350   73.8200  227.2330 O   0  0  0  0  0  0  0  0  0  0  0  0
  133.9890   72.1520  225.9490 C   0  0  0  0  0  0  0  0  0  0  0  0
  133.2830   71.2080  226.6130 F   0  0  0  0  0  0  0  0  0  0  0  0
  134.9230   71.7970  224.9700 C   0  0  0  0  0  0  0  0  0  0  0  0
  137.8485   70.6659  221.1509 H   0  0  0  0  0  0  0  0  0  0  0  0
  137.2393   72.0099  220.0967 H   0  0  0  0  0  0  0  0  0  0  0  0
  139.2350   72.8730  220.5993 H   0  0  0  0  0  0  0  0  0  0  0  0
  138.2896   73.4316  222.0608 H   0  0  0  0  0  0  0  0  0  0  0  0
  139.8981   70.9050  221.9836 H   0  0  0  0  0  0  0  0  0  0  0  0
  140.5258   72.5580  222.5035 H   0  0  0  0  0  0  0  0  0  0  0  0
  141.0619   72.4659  225.5510 H   0  0  0  0  0  0  0  0  0  0  0  0
  141.7907   71.1113  227.4714 H   0  0  0  0  0  0  0  0  0  0  0  0
  139.1488   67.9901  226.2481 H   0  0  0  0  0  0  0  0  0  0  0  0
  137.6220   72.6890  223.5200 H   0  0  0  0  0  0  0  0  0  0  0  0
  135.9632   74.8489  224.0952 H   0  0  0  0  0  0  0  0  0  0  0  0
  134.3311   75.4816  225.8019 H   0  0  0  0  0  0  0  0  0  0  0  0
  132.7760   73.2440  228.0600 H   0  0  0  0  0  0  0  0  0  0  0  0
  135.0754   70.7307  224.7471 H   0  0  0  0  0  0  0  0  0  0  0  0
  1  2  2  0
  2  3  1  0
  3  4  1  0
  4  5  1  0
  5  6  1  0
  6  7  1  0
  7  8  2  0
  8  9  1  0
  9 10  2  0
 10 11  1  0
 10 12  1  0
 12 13  2  0
 13 14  1  0
  2 15  1  0
 15 16  1  0
 16 17  2  0
 17 18  1  0
 18 19  2  0
 19 20  1  0
 19 21  1  0
 21 22  1  0
 21 23  2  0
 13  7  1  0
 23 16  1  0
  3 24  1  0
  3 25  1  0
  4 26  1  0
  4 27  1  0
  5 28  1  0
  5 29  1  0
  8 30  1  0
  9 31  1  0
 12 32  1  0
 15 33  1  0
 17 34  1  0
 18 35  1  0
 20 36  1  0
 23 37  1  0
M  END
>  <smiles>  (13) 
O=C(CCCOc1ccc(Cl)cc1Br)Nc1ccc(O)c(F)c1

>  <score_type>  (13) 
oracle

>  <origin>  (13) 
autodockgpu

>  <m_score__min__energy>  (13) 
-6.5700000000000003

>  <m_primary>  (13) 
energy

>  <meeko>  (13) 
{"free_energy": -5.81, "intermolecular_energy": -7.9, "internal_energy": -1.93, "cluster_size": 8, "cluster_id": 4, "rank_in_cluster": 1}

>  <energy>  (13) 
-5.73

>  <cluster_rmsd>  (13) 
0.3

>  <rmsd>  (13) 
270.77

>  <cluster>  (13) 
4

$$$$

     RDKit          3D

 37 38  0  0  0  0  0  0  0  0999 V2000
  140.3420   73.3610  222.3370 O   0  0  0  0  0  0  0  0  0  0  0  0
  140.2360   74.3400  221.5870 C   0  0  0  0  0  0  0  0  0  0  0  0
  139.0350   75.1880  221.5880 C   0  0  0  0  0  0  0  0  0  0  0  0
  138.6540   75.6060  220.2140 C   0  0  0  0  0  0  0  0  0  0  0  0
  139.2060   76.9330  219.8180 C   0  0  0  0  0  0  0  0  0  0  0  0
  140.4780   77.2040  220.2630 O   0  0  0  0  0  0  0  0  0  0  0  0
  141.0070   77.9950  221.2160 C   0  0  0  0  0  0  0  0  0  0  0  0
  140.9990   77.7950  222.5760 C   0  0  0  0  0  0  0  0  0  0  0  0
  141.5820   78.6820  223.4750 C   0  0  0  0  0  0  0  0  0  0  0  0
  142.2050   79.8240  223.0270 C   0  0  0  0  0  0  0  0  0  0  0  0
  142.9230   80.9140  224.1760 Cl  0  0  0  0  0  0  0  0  0  0  0  0
  142.2260   80.0460  221.6720 C   0  0  0  0  0  0  0  0  0  0  0  0
  141.6500   79.1680  220.7910 C   0  0  0  0  0  0  0  0  0  0  0  0
  141.7400   79.5750  218.9240 Br  0  0  0  0  0  0  0  0  0  0  0  0
  141.2870   74.6550  220.7110 N   0  0  0  0  0  0  0  0  0  0  0  0
  142.5120   73.9750  220.5550 C   0  0  0  0  0  0  0  0  0  0  0  0
  143.6760   74.7490  220.4150 C   0  0  0  0  0  0  0  0  0  0  0  0
  144.9170   74.1790  220.2590 C   0  0  0  0  0  0  0  0  0  0  0  0
  145.0840   72.8120  220.2300 C   0  0  0  0  0  0  0  0  0  0  0  0
  146.3270   72.2290  220.0730 O   0  0  0  0  0  0  0  0  0  0  0  0
  143.9520   72.0420  220.3660 C   0  0  0  0  0  0  0  0  0  0  0  0
  144.0950   70.6960  220.3410 F   0  0  0  0  0  0  0  0  0  0  0  0
  142.6930   72.6290  220.5250 C   0  0  0  0  0  0  0  0  0  0  0  0
  138.2016   74.6245  222.0328 H   0  0  0  0  0  0  0  0  0  0  0  0
  139.2561   76.0935  222.1721 H   0  0  0  0  0  0  0  0  0  0  0  0
  139.0241   74.8502  219.5056 H   0  0  0  0  0  0  0  0  0  0  0  0
  137.5578   75.6951  220.1968 H   0  0  0  0  0  0  0  0  0  0  0  0
  139.2143   76.9818  218.7191 H   0  0  0  0  0  0  0  0  0  0  0  0
  138.5554   77.6830  220.2916 H   0  0  0  0  0  0  0  0  0  0  0  0
  140.5094   76.8927  222.9712 H   0  0  0  0  0  0  0  0  0  0  0  0
  141.5446   78.4686  224.5535 H   0  0  0  0  0  0  0  0  0  0  0  0
  142.7171   80.9506  221.2841 H   0  0  0  0  0  0  0  0  0  0  0  0
  141.1310   75.5100  220.0930 H   0  0  0  0  0  0  0  0  0  0  0  0
  143.5916   75.8456  220.4307 H   0  0  0  0  0  0  0  0  0  0  0  0
  145.7976   74.8299  220.1549 H   0  0  0  0  0  0  0  0  0  0  0  0
  146.6090   71.5310  220.7450 H   0  0  0  0  0  0  0  0  0  0  0  0
  141.8146   71.9752  220.6299 H   0  0  0  0  0  0  0  0  0  0  0  0
  1  2  2  0
  2  3  1  0
  3  4  1  0
  4  5  1  0
  5  6  1  0
  6  7  1  0
  7  8  2  0
  8  9  1  0
  9 10  2  0
 10 11  1  0
 10 12  1  0
 12 13  2  0
 13 14  1  0
  2 15  1  0
 15 16  1  0
 16 17  2  0
 17 18  1  0
 18 19  2  0
 19 20  1  0
 19 21  1  0
 21 22  1  0
 21 23  2  0
 13  7  1  0
 23 16  1  0
  3 24  1  0
  3 25  1  0
  4 26  1  0
  4 27  1  0
  5 28  1  0
  5 29  1  0
  8 30  1  0
  9 31  1  0
 12 32  1  0
 15 33  1  0
 17 34  1  0
 18 35  1  0
 20 36  1  0
 23 37  1  0
M  END
>  <smiles>  (14) 
O=C(CCCOc1ccc(Cl)cc1Br)Nc1ccc(O)c(F)c1

>  <score_type>  (14) 
oracle

>  <origin>  (14) 
autodockgpu

>  <m_score__min__energy>  (14) 
-6.5700000000000003

>  <m_primary>  (14) 
energy

>  <meeko>  (14) 
{"free_energy": -6.08, "intermolecular_energy": -8.17, "internal_energy": -1.84, "cluster_size": 5, "cluster_id": 2, "rank_in_cluster": 2}

>  <energy>  (14) 
-5.72

>  <cluster_rmsd>  (14) 
0.21

>  <rmsd>  (14) 
270.72

>  <cluster>  (14) 
4

$$$$

     RDKit          3D

 37 38  0  0  0  0  0  0  0  0999 V2000
  140.6480   72.8000  222.6260 O   0  0  0  0  0  0  0  0  0  0  0  0
  140.1380   73.5790  221.8090 C   0  0  0  0  0  0  0  0  0  0  0  0
  138.7270   73.9800  221.9000 C   0  0  0  0  0  0  0  0  0  0  0  0
  138.5810   75.4520  222.0430 C   0  0  0  0  0  0  0  0  0  0  0  0
  138.8720   76.2070  220.7910 C   0  0  0  0  0  0  0  0  0  0  0  0
  140.1000   76.8230  220.7430 O   0  0  0  0  0  0  0  0  0  0  0  0
  140.7540   77.7070  221.5200 C   0  0  0  0  0  0  0  0  0  0  0  0
  140.8170   77.7370  222.8930 C   0  0  0  0  0  0  0  0  0  0  0  0
  141.5300   78.7010  223.5980 C   0  0  0  0  0  0  0  0  0  0  0  0
  142.2180   79.6880  222.9320 C   0  0  0  0  0  0  0  0  0  0  0  0
  143.0990   80.8800  223.8420 Cl  0  0  0  0  0  0  0  0  0  0  0  0
  142.1710   79.6800  221.5600 C   0  0  0  0  0  0  0  0  0  0  0  0
  141.4670   78.7280  220.8700 C   0  0  0  0  0  0  0  0  0  0  0  0
  141.4720   78.8110  218.9590 Br  0  0  0  0  0  0  0  0  0  0  0  0
  140.9250   74.0970  220.7680 N   0  0  0  0  0  0  0  0  0  0  0  0
  142.2860   73.8400  220.5060 C   0  0  0  0  0  0  0  0  0  0  0  0
  143.1410   74.9440  220.3460 C   0  0  0  0  0  0  0  0  0  0  0  0
  144.4820   74.7960  220.0880 C   0  0  0  0  0  0  0  0  0  0  0  0
  145.0620   73.5520  219.9720 C   0  0  0  0  0  0  0  0  0  0  0  0
  146.4100   73.3930  219.7140 O   0  0  0  0  0  0  0  0  0  0  0  0
  144.2370   72.4620  220.1270 C   0  0  0  0  0  0  0  0  0  0  0  0
  144.7860   71.2300  220.0180 F   0  0  0  0  0  0  0  0  0  0  0  0
  142.8710   72.6210  220.3890 C   0  0  0  0  0  0  0  0  0  0  0  0
  138.2053   73.6572  220.9870 H   0  0  0  0  0  0  0  0  0  0  0  0
  138.2927   73.5045  222.7918 H   0  0  0  0  0  0  0  0  0  0  0  0
  137.5470   75.6705  222.3480 H   0  0  0  0  0  0  0  0  0  0  0  0
  139.3171   75.7769  222.7930 H   0  0  0  0  0  0  0  0  0  0  0  0
  138.8134   75.5019  219.9487 H   0  0  0  0  0  0  0  0  0  0  0  0
  138.1270   77.0150  220.7456 H   0  0  0  0  0  0  0  0  0  0  0  0
  140.2789   76.9631  223.4601 H   0  0  0  0  0  0  0  0  0  0  0  0
  141.5436   78.6736  224.6976 H   0  0  0  0  0  0  0  0  0  0  0  0
  142.7120   80.4573  221.0004 H   0  0  0  0  0  0  0  0  0  0  0  0
  140.4250   74.7620  220.1010 H   0  0  0  0  0  0  0  0  0  0  0  0
  142.7233   75.9581  220.4300 H   0  0  0  0  0  0  0  0  0  0  0  0
  145.1081   75.6929  219.9712 H   0  0  0  0  0  0  0  0  0  0  0  0
  146.9160   74.1820  219.3410 H   0  0  0  0  0  0  0  0  0  0  0  0
  142.2472   71.7224  220.5046 H   0  0  0  0  0  0  0  0  0  0  0  0
  1  2  2  0
  2  3  1  0
  3  4  1  0
  4  5  1  0
  5  6  1  0
  6  7  1  0
  7  8  2  0
  8  9  1  0
  9 10  2  0
 10 11  1  0
 10 12  1  0
 12 13  2  0
 13 14  1  0
  2 15  1  0
 15 16  1  0
 16 17  2  0
 17 18  1  0
 18 19  2  0
 19 20  1  0
 19 21  1  0
 21 22  1  0
 21 23  2  0
 13  7  1  0
 23 16  1  0
  3 24  1  0
  3 25  1  0
  4 26  1  0
  4 27  1  0
  5 28  1  0
  5 29  1  0
  8 30  1  0
  9 31  1  0
 12 32  1  0
 15 33  1  0
 17 34  1  0
 18 35  1  0
 20 36  1  0
 23 37  1  0
M  END
>  <smiles>  (15) 
O=C(CCCOc1ccc(Cl)cc1Br)Nc1ccc(O)c(F)c1

>  <score_type>  (15) 
oracle

>  <origin>  (15) 
autodockgpu

>  <m_score__min__energy>  (15) 
-6.5700000000000003

>  <m_primary>  (15) 
energy

>  <meeko>  (15) 
{"free_energy": -5.95, "intermolecular_energy": -8.04, "internal_energy": -1.76, "cluster_size": 5, "cluster_id": 2, "rank_in_cluster": 3}

>  <energy>  (15) 
-5.72

>  <cluster_rmsd>  (15) 
0.4

>  <rmsd>  (15) 
270.73

>  <cluster>  (15) 
4

$$$$

     RDKit          3D

 37 38  0  0  0  0  0  0  0  0999 V2000
  135.1800   72.8880  221.4110 O   0  0  0  0  0  0  0  0  0  0  0  0
  136.3410   72.8070  221.8320 C   0  0  0  0  0  0  0  0  0  0  0  0
  137.4840   72.6440  220.9220 C   0  0  0  0  0  0  0  0  0  0  0  0
  138.2700   71.4220  221.2360 C   0  0  0  0  0  0  0  0  0  0  0  0
  139.4220   71.6720  222.1480 C   0  0  0  0  0  0  0  0  0  0  0  0
  139.1180   71.7230  223.4880 O   0  0  0  0  0  0  0  0  0  0  0  0
  139.5900   71.1220  224.5960 C   0  0  0  0  0  0  0  0  0  0  0  0
  140.6750   71.4890  225.3570 C   0  0  0  0  0  0  0  0  0  0  0  0
  141.0740   70.7920  226.4920 C   0  0  0  0  0  0  0  0  0  0  0  0
  140.3830   69.6790  226.9100 C   0  0  0  0  0  0  0  0  0  0  0  0
  140.9080   68.8290  228.3330 Cl  0  0  0  0  0  0  0  0  0  0  0  0
  139.2950   69.2920  226.1660 C   0  0  0  0  0  0  0  0  0  0  0  0
  138.9060   69.9820  225.0480 C   0  0  0  0  0  0  0  0  0  0  0  0
  137.3750   69.3550  224.0890 Br  0  0  0  0  0  0  0  0  0  0  0  0
  136.5800   72.8730  223.2140 N   0  0  0  0  0  0  0  0  0  0  0  0
  135.6330   73.0260  224.2460 C   0  0  0  0  0  0  0  0  0  0  0  0
  135.3120   74.3320  224.6520 C   0  0  0  0  0  0  0  0  0  0  0  0
  134.4000   74.5830  225.6490 C   0  0  0  0  0  0  0  0  0  0  0  0
  133.7510   73.5620  226.3060 C   0  0  0  0  0  0  0  0  0  0  0  0
  132.8320   73.8040  227.3100 O   0  0  0  0  0  0  0  0  0  0  0  0
  134.0550   72.2770  225.9190 C   0  0  0  0  0  0  0  0  0  0  0  0
  133.4280   71.2590  226.5530 F   0  0  0  0  0  0  0  0  0  0  0  0
  134.9850   72.0300  224.9030 C   0  0  0  0  0  0  0  0  0  0  0  0
  137.1100   72.5713  219.8901 H   0  0  0  0  0  0  0  0  0  0  0  0
  138.1442   73.5155  221.0429 H   0  0  0  0  0  0  0  0  0  0  0  0
  137.6008   70.6910  221.7133 H   0  0  0  0  0  0  0  0  0  0  0  0
  138.6844   71.0519  220.2866 H   0  0  0  0  0  0  0  0  0  0  0  0
  140.1543   70.8651  221.9974 H   0  0  0  0  0  0  0  0  0  0  0  0
  139.8015   72.6709  221.8870 H   0  0  0  0  0  0  0  0  0  0  0  0
  141.2535   72.3742  225.0540 H   0  0  0  0  0  0  0  0  0  0  0  0
  141.9509   71.1342  227.0611 H   0  0  0  0  0  0  0  0  0  0  0  0
  138.7216   68.4058  226.4756 H   0  0  0  0  0  0  0  0  0  0  0  0
  137.6030   72.7970  223.5080 H   0  0  0  0  0  0  0  0  0  0  0  0
  135.8062   75.1805  224.1562 H   0  0  0  0  0  0  0  0  0  0  0  0
  134.1834   75.6246  225.9287 H   0  0  0  0  0  0  0  0  0  0  0  0
  132.7820   73.1460  228.0730 H   0  0  0  0  0  0  0  0  0  0  0  0
  135.1996   70.9874  224.6256 H   0  0  0  0  0  0  0  0  0  0  0  0
  1  2  2  0
  2  3  1  0
  3  4  1  0
  4  5  1  0
  5  6  1  0
  6  7  1  0
  7  8  2  0
  8  9  1  0
  9 10  2  0
 10 11  1  0
 10 12  1  0
 12 13  2  0
 13 14  1  0
  2 15  1  0
 15 16  1  0
 16 17  2  0
 17 18  1  0
 18 19  2  0
 19 20  1  0
 19 21  1  0
 21 22  1  0
 21 23  2  0
 13  7  1  0
 23 16  1  0
  3 24  1  0
  3 25  1  0
  4 26  1  0
  4 27  1  0
  5 28  1  0
  5 29  1  0
  8 30  1  0
  9 31  1  0
 12 32  1  0
 15 33  1  0
 17 34  1  0
 18 35  1  0
 20 36  1  0
 23 37  1  0
M  END
>  <smiles>  (16) 
O=C(CCCOc1ccc(Cl)cc1Br)Nc1ccc(O)c(F)c1

>  <score_type>  (16) 
oracle

>  <origin>  (16) 
autodockgpu

>  <m_score__min__energy>  (16) 
-6.5700000000000003

>  <m_primary>  (16) 
energy

>  <meeko>  (16) 
{"free_energy": -5.62, "intermolecular_energy": -7.7, "internal_energy": -1.99, "cluster_size": 8, "cluster_id": 4, "rank_in_cluster": 8}

>  <energy>  (16) 
-5.62

>  <cluster_rmsd>  (16) 
0.49

>  <rmsd>  (16) 
270.73

>  <cluster>  (16) 
4

$$$$

     RDKit          3D

 37 38  0  0  0  0  0  0  0  0999 V2000
  135.2830   71.6860  221.6990 O   0  0  0  0  0  0  0  0  0  0  0  0
  136.4030   72.1200  222.0000 C   0  0  0  0  0  0  0  0  0  0  0  0
  137.5450   72.0150  221.0820 C   0  0  0  0  0  0  0  0  0  0  0  0
  138.6450   72.9390  221.4610 C   0  0  0  0  0  0  0  0  0  0  0  0
  139.6330   72.3380  222.4020 C   0  0  0  0  0  0  0  0  0  0  0  0
  139.0980   71.6270  223.4500 O   0  0  0  0  0  0  0  0  0  0  0  0
  139.5900   71.0620  224.5680 C   0  0  0  0  0  0  0  0  0  0  0  0
  140.6950   71.4460  225.2900 C   0  0  0  0  0  0  0  0  0  0  0  0
  141.1140   70.7880  226.4410 C   0  0  0  0  0  0  0  0  0  0  0  0
  140.4220   69.6970  226.9150 C   0  0  0  0  0  0  0  0  0  0  0  0
  140.9720   68.8950  228.3560 Cl  0  0  0  0  0  0  0  0  0  0  0  0
  139.3140   69.2940  226.2110 C   0  0  0  0  0  0  0  0  0  0  0  0
  138.9050   69.9470  225.0780 C   0  0  0  0  0  0  0  0  0  0  0  0
  137.3470   69.3000  224.1770 Br  0  0  0  0  0  0  0  0  0  0  0  0
  136.5920   72.7310  223.2500 N   0  0  0  0  0  0  0  0  0  0  0  0
  135.6350   72.9300  224.2660 C   0  0  0  0  0  0  0  0  0  0  0  0
  135.3590   74.2510  224.6550 C   0  0  0  0  0  0  0  0  0  0  0  0
  134.4420   74.5470  225.6350 C   0  0  0  0  0  0  0  0  0  0  0  0
  133.7450   73.5580  226.2920 C   0  0  0  0  0  0  0  0  0  0  0  0
  132.8210   73.8440  227.2800 O   0  0  0  0  0  0  0  0  0  0  0  0
  134.0060   72.2580  225.9220 C   0  0  0  0  0  0  0  0  0  0  0  0
  133.3300   71.2710  226.5540 F   0  0  0  0  0  0  0  0  0  0  0  0
  134.9400   71.9660  224.9220 C   0  0  0  0  0  0  0  0  0  0  0  0
  137.9243   70.9827  221.1024 H   0  0  0  0  0  0  0  0  0  0  0  0
  137.1998   72.2898  220.0744 H   0  0  0  0  0  0  0  0  0  0  0  0
  139.1757   73.2413  220.5462 H   0  0  0  0  0  0  0  0  0  0  0  0
  138.1843   73.7928  221.9795 H   0  0  0  0  0  0  0  0  0  0  0  0
  140.2786   71.6584  221.8264 H   0  0  0  0  0  0  0  0  0  0  0  0
  140.1704   73.1840  222.8552 H   0  0  0  0  0  0  0  0  0  0  0  0
  141.2743   72.3136  224.9411 H   0  0  0  0  0  0  0  0  0  0  0  0
  142.0065   71.1426  226.9774 H   0  0  0  0  0  0  0  0  0  0  0  0
  138.7403   68.4250  226.5656 H   0  0  0  0  0  0  0  0  0  0  0  0
  137.5800   73.0840  223.4450 H   0  0  0  0  0  0  0  0  0  0  0  0
  135.8937   75.0748  224.1596 H   0  0  0  0  0  0  0  0  0  0  0  0
  134.2607   75.5989  225.9007 H   0  0  0  0  0  0  0  0  0  0  0  0
  132.7920   73.2410  228.0880 H   0  0  0  0  0  0  0  0  0  0  0  0
  135.1182   70.9134  224.6569 H   0  0  0  0  0  0  0  0  0  0  0  0
  1  2  2  0
  2  3  1  0
  3  4  1  0
  4  5  1  0
  5  6  1  0
  6  7  1  0
  7  8  2  0
  8  9  1  0
  9 10  2  0
 10 11  1  0
 10 12  1  0
 12 13  2  0
 13 14  1  0
  2 15  1  0
 15 16  1  0
 16 17  2  0
 17 18  1  0
 18 19  2  0
 19 20  1  0
 19 21  1  0
 21 22  1  0
 21 23  2  0
 13  7  1  0
 23 16  1  0
  3 24  1  0
  3 25  1  0
  4 26  1  0
  4 27  1  0
  5 28  1  0
  5 29  1  0
  8 30  1  0
  9 31  1  0
 12 32  1  0
 15 33  1  0
 17 34  1  0
 18 35  1  0
 20 36  1  0
 23 37  1  0
M  END
>  <smiles>  (17) 
O=C(CCCOc1ccc(Cl)cc1Br)Nc1ccc(O)c(F)c1

>  <score_type>  (17) 
oracle

>  <origin>  (17) 
autodockgpu

>  <m_score__min__energy>  (17) 
-6.5700000000000003

>  <m_primary>  (17) 
energy

>  <meeko>  (17) 
{"free_energy": -5.73, "intermolecular_energy": -7.82, "internal_energy": -1.93, "cluster_size": 8, "cluster_id": 4, "rank_in_cluster": 5}

>  <energy>  (17) 
-5.61

>  <cluster_rmsd>  (17) 
0.0

>  <rmsd>  (17) 
271.63

>  <cluster>  (17) 
5

$$$$

     RDKit          3D

 37 38  0  0  0  0  0  0  0  0999 V2000
  140.4260   73.2760  220.3690 O   0  0  0  0  0  0  0  0  0  0  0  0
  140.6490   74.2470  221.1050 C   0  0  0  0  0  0  0  0  0  0  0  0
  139.6040   74.8200  221.9650 C   0  0  0  0  0  0  0  0  0  0  0  0
  138.8660   75.9140  221.2820 C   0  0  0  0  0  0  0  0  0  0  0  0
  139.6900   76.6630  220.2910 C   0  0  0  0  0  0  0  0  0  0  0  0
  140.8890   77.1460  220.7600 O   0  0  0  0  0  0  0  0  0  0  0  0
  141.2560   78.1180  221.6150 C   0  0  0  0  0  0  0  0  0  0  0  0
  141.2430   78.0790  222.9900 C   0  0  0  0  0  0  0  0  0  0  0  0
  141.6500   79.1480  223.7810 C   0  0  0  0  0  0  0  0  0  0  0  0
  142.0930   80.3160  223.2060 C   0  0  0  0  0  0  0  0  0  0  0  0
  142.5940   81.6350  224.2220 Cl  0  0  0  0  0  0  0  0  0  0  0  0
  142.1150   80.3790  221.8340 C   0  0  0  0  0  0  0  0  0  0  0  0
  141.7140   79.3230  221.0590 C   0  0  0  0  0  0  0  0  0  0  0  0
  141.7880   79.5200  219.1580 Br  0  0  0  0  0  0  0  0  0  0  0  0
  141.9310   74.8190  221.1230 N   0  0  0  0  0  0  0  0  0  0  0  0
  143.0620   74.4240  220.3810 C   0  0  0  0  0  0  0  0  0  0  0  0
  143.0560   74.6720  218.9980 C   0  0  0  0  0  0  0  0  0  0  0  0
  144.1120   74.3250  218.1900 C   0  0  0  0  0  0  0  0  0  0  0  0
  145.2360   73.7110  218.6960 C   0  0  0  0  0  0  0  0  0  0  0  0
  146.3030   73.3570  217.8920 O   0  0  0  0  0  0  0  0  0  0  0  0
  145.2560   73.4620  220.0500 C   0  0  0  0  0  0  0  0  0  0  0  0
  146.3510   72.8600  220.5680 F   0  0  0  0  0  0  0  0  0  0  0  0
  144.1770   73.8190  220.8660 C   0  0  0  0  0  0  0  0  0  0  0  0
  138.8925   74.0266  222.2376 H   0  0  0  0  0  0  0  0  0  0  0  0
  140.0888   75.2403  222.8585 H   0  0  0  0  0  0  0  0  0  0  0  0
  138.0037   75.4768  220.7574 H   0  0  0  0  0  0  0  0  0  0  0  0
  138.5638   76.6324  222.0583 H   0  0  0  0  0  0  0  0  0  0  0  0
  139.9030   75.9882  219.4489 H   0  0  0  0  0  0  0  0  0  0  0  0
  139.0972   77.5470  220.0132 H   0  0  0  0  0  0  0  0  0  0  0  0
  140.8950   77.1610  223.4862 H   0  0  0  0  0  0  0  0  0  0  0  0
  141.6172   79.0584  224.8769 H   0  0  0  0  0  0  0  0  0  0  0  0
  142.4635   81.3008  221.3452 H   0  0  0  0  0  0  0  0  0  0  0  0
  142.0540   75.6520  221.7790 H   0  0  0  0  0  0  0  0  0  0  0  0
  142.1785   75.1592  218.5479 H   0  0  0  0  0  0  0  0  0  0  0  0
  144.0582   74.5429  217.1132 H   0  0  0  0  0  0  0  0  0  0  0  0
  146.8400   74.0980  217.4680 H   0  0  0  0  0  0  0  0  0  0  0  0
  144.2340   73.6011  221.9427 H   0  0  0  0  0  0  0  0  0  0  0  0
  1  2  2  0
  2  3  1  0
  3  4  1  0
  4  5  1  0
  5  6  1  0
  6  7  1  0
  7  8  2  0
  8  9  1  0
  9 10  2  0
 10 11  1  0
 10 12  1  0
 12 13  2  0
 13 14  1  0
  2 15  1  0
 15 16  1  0
 16 17  2  0
 17 18  1  0
 18 19  2  0
 19 20  1  0
 19 21  1  0
 21 22  1  0
 21 23  2  0
 13  7  1  0
 23 16  1  0
  3 24  1  0
  3 25  1  0
  4 26  1  0
  4 27  1  0
  5 28  1  0
  5 29  1  0
  8 30  1  0
  9 31  1  0
 12 32  1  0
 15 33  1  0
 17 34  1  0
 18 35  1  0
 20 36  1  0
 23 37  1  0
M  END
>  <smiles>  (18) 
O=C(CCCOc1ccc(Cl)cc1Br)Nc1ccc(O)c(F)c1

>  <score_type>  (18) 
oracle

>  <origin>  (18) 
autodockgpu

>  <m_score__min__energy>  (18) 
-6.5700000000000003

>  <m_primary>  (18) 
energy

>  <meeko>  (18) 
{"free_energy": -5.95, "intermolecular_energy": -8.03, "internal_energy": -1.67, "cluster_size": 5, "cluster_id": 2, "rank_in_cluster": 4}

>  <energy>  (18) 
-5.6

>  <cluster_rmsd>  (18) 
0.98

>  <rmsd>  (18) 
271.71

>  <cluster>  (18) 
5

$$$$

     RDKit          3D

 37 38  0  0  0  0  0  0  0  0999 V2000
  141.3970   78.2580  217.7640 O   0  0  0  0  0  0  0  0  0  0  0  0
  141.9920   79.0150  218.5420 C   0  0  0  0  0  0  0  0  0  0  0  0
  142.6580   80.2390  218.0730 C   0  0  0  0  0  0  0  0  0  0  0  0
  141.7590   81.4200  218.1510 C   0  0  0  0  0  0  0  0  0  0  0  0
  141.8170   82.1300  219.4600 C   0  0  0  0  0  0  0  0  0  0  0  0
  141.6000   81.3480  220.5690 O   0  0  0  0  0  0  0  0  0  0  0  0
  140.6460   81.2820  221.5170 C   0  0  0  0  0  0  0  0  0  0  0  0
  139.3310   81.6690  221.4160 C   0  0  0  0  0  0  0  0  0  0  0  0
  138.4250   81.5520  222.4650 C   0  0  0  0  0  0  0  0  0  0  0  0
  138.8190   81.0320  223.6760 C   0  0  0  0  0  0  0  0  0  0  0  0
  137.6630   80.9000  224.9680 Cl  0  0  0  0  0  0  0  0  0  0  0  0
  140.1280   80.6380  223.8020 C   0  0  0  0  0  0  0  0  0  0  0  0
  141.0170   80.7550  222.7650 C   0  0  0  0  0  0  0  0  0  0  0  0
  142.8170   80.1730  223.0500 Br  0  0  0  0  0  0  0  0  0  0  0  0
  142.0340   78.7030  219.9110 N   0  0  0  0  0  0  0  0  0  0  0  0
  141.4650   77.5880  220.5590 C   0  0  0  0  0  0  0  0  0  0  0  0
  142.0060   76.3220  220.2780 C   0  0  0  0  0  0  0  0  0  0  0  0
  141.5210   75.1760  220.8600 C   0  0  0  0  0  0  0  0  0  0  0  0
  140.4720   75.2080  221.7520 C   0  0  0  0  0  0  0  0  0  0  0  0
  139.9770   74.0610  222.3430 O   0  0  0  0  0  0  0  0  0  0  0  0
  139.9330   76.4420  222.0370 C   0  0  0  0  0  0  0  0  0  0  0  0
  138.9020   76.4960  222.9120 F   0  0  0  0  0  0  0  0  0  0  0  0
  140.4330   77.6040  221.4410 C   0  0  0  0  0  0  0  0  0  0  0  0
  143.5443   80.4241  218.6977 H   0  0  0  0  0  0  0  0  0  0  0  0
  142.9406   80.0929  217.0200 H   0  0  0  0  0  0  0  0  0  0  0  0
  142.0452   82.1276  217.3589 H   0  0  0  0  0  0  0  0  0  0  0  0
  140.7301   81.0500  218.0306 H   0  0  0  0  0  0  0  0  0  0  0  0
  142.8147   82.5834  219.5554 H   0  0  0  0  0  0  0  0  0  0  0  0
  140.9961   82.8620  219.4423 H   0  0  0  0  0  0  0  0  0  0  0  0
  138.9792   82.0902  220.4627 H   0  0  0  0  0  0  0  0  0  0  0  0
  137.3839   81.8783  222.3248 H   0  0  0  0  0  0  0  0  0  0  0  0
  140.4721   80.2180  224.7587 H   0  0  0  0  0  0  0  0  0  0  0  0
  142.5620   79.3970  220.5250 H   0  0  0  0  0  0  0  0  0  0  0  0
  142.8442   76.2461  219.5697 H   0  0  0  0  0  0  0  0  0  0  0  0
  141.9815   74.2095  220.6075 H   0  0  0  0  0  0  0  0  0  0  0  0
  139.1690   74.1500  222.9410 H   0  0  0  0  0  0  0  0  0  0  0  0
  139.9719   78.5693  221.6969 H   0  0  0  0  0  0  0  0  0  0  0  0
  1  2  2  0
  2  3  1  0
  3  4  1  0
  4  5  1  0
  5  6  1  0
  6  7  1  0
  7  8  2  0
  8  9  1  0
  9 10  2  0
 10 11  1  0
 10 12  1  0
 12 13  2  0
 13 14  1  0
  2 15  1  0
 15 16  1  0
 16 17  2  0
 17 18  1  0
 18 19  2  0
 19 20  1  0
 19 21  1  0
 21 22  1  0
 21 23  2  0
 13  7  1  0
 23 16  1  0
  3 24  1  0
  3 25  1  0
  4 26  1  0
  4 27  1  0
  5 28  1  0
  5 29  1  0
  8 30  1  0
  9 31  1  0
 12 32  1  0
 15 33  1  0
 17 34  1  0
 18 35  1  0
 20 36  1  0
 23 37  1  0
M  END
>  <smiles>  (19) 
O=C(CCCOc1ccc(Cl)cc1Br)Nc1ccc(O)c(F)c1

>  <score_type>  (19) 
oracle

>  <origin>  (19) 
autodockgpu

>  <m_score__min__energy>  (19) 
-6.5700000000000003

>  <m_primary>  (19) 
energy

>  <meeko>  (19) 
{"free_energy": -5.6, "intermolecular_energy": -7.69, "internal_energy": -2.27, "cluster_size": 3, "cluster_id": 5, "rank_in_cluster": 2}

>  <energy>  (19) 
-5.58

>  <cluster_rmsd>  (19) 
0.98

>  <rmsd>  (19) 
271.67

>  <cluster>  (19) 
5

$$$$

     RDKit          3D

 37 38  0  0  0  0  0  0  0  0999 V2000
  140.6730   74.9010  221.9620 O   0  0  0  0  0  0  0  0  0  0  0  0
  140.2190   73.7960  221.6350 C   0  0  0  0  0  0  0  0  0  0  0  0
  138.8280   73.4170  221.9190 C   0  0  0  0  0  0  0  0  0  0  0  0
  138.3290   72.3960  220.9620 C   0  0  0  0  0  0  0  0  0  0  0  0
  138.4710   70.9950  221.4530 C   0  0  0  0  0  0  0  0  0  0  0  0
  139.6020   70.7380  222.1910 O   0  0  0  0  0  0  0  0  0  0  0  0
  139.8940   70.6940  223.5040 C   0  0  0  0  0  0  0  0  0  0  0  0
  140.5770   71.6280  224.2460 C   0  0  0  0  0  0  0  0  0  0  0  0
  140.8210   71.4820  225.6080 C   0  0  0  0  0  0  0  0  0  0  0  0
  140.3780   70.3680  226.2830 C   0  0  0  0  0  0  0  0  0  0  0  0
  140.6990   70.2140  227.9850 Cl  0  0  0  0  0  0  0  0  0  0  0  0
  139.6920   69.4210  225.5630 C   0  0  0  0  0  0  0  0  0  0  0  0
  139.4540   69.5700  224.2220 C   0  0  0  0  0  0  0  0  0  0  0  0
  138.4880   68.1890  223.3180 Br  0  0  0  0  0  0  0  0  0  0  0  0
  141.0510   72.8780  220.9730 N   0  0  0  0  0  0  0  0  0  0  0  0
  142.4030   73.0450  220.6110 C   0  0  0  0  0  0  0  0  0  0  0  0
  143.0740   71.9410  220.0610 C   0  0  0  0  0  0  0  0  0  0  0  0
  144.3910   72.0040  219.6760 C   0  0  0  0  0  0  0  0  0  0  0  0
  145.1270   73.1610  219.8120 C   0  0  0  0  0  0  0  0  0  0  0  0
  146.4530   73.2350  219.4280 O   0  0  0  0  0  0  0  0  0  0  0  0
  144.4820   74.2510  220.3490 C   0  0  0  0  0  0  0  0  0  0  0  0
  145.1870   75.3980  220.4900 F   0  0  0  0  0  0  0  0  0  0  0  0
  143.1410   74.1780  220.7380 C   0  0  0  0  0  0  0  0  0  0  0  0
  138.7714   73.0076  222.9384 H   0  0  0  0  0  0  0  0  0  0  0  0
  138.2011   74.3154  221.8189 H   0  0  0  0  0  0  0  0  0  0  0  0
  137.2634   72.5907  220.7706 H   0  0  0  0  0  0  0  0  0  0  0  0
  138.9410   72.4816  220.0520 H   0  0  0  0  0  0  0  0  0  0  0  0
  137.5974   70.7658  222.0809 H   0  0  0  0  0  0  0  0  0  0  0  0
  138.5481   70.3663  220.5537 H   0  0  0  0  0  0  0  0  0  0  0  0
  140.9474   72.5318  223.7401 H   0  0  0  0  0  0  0  0  0  0  0  0
  141.3729   72.2641  226.1499 H   0  0  0  0  0  0  0  0  0  0  0  0
  139.3243   68.5200  226.0759 H   0  0  0  0  0  0  0  0  0  0  0  0
  140.5980   71.9470  220.7200 H   0  0  0  0  0  0  0  0  0  0  0  0
  142.5272   70.9950  219.9344 H   0  0  0  0  0  0  0  0  0  0  0  0
  144.8693   71.1101  219.2492 H   0  0  0  0  0  0  0  0  0  0  0  0
  146.8360   74.1470  219.2310 H   0  0  0  0  0  0  0  0  0  0  0  0
  142.6649   75.0736  221.1637 H   0  0  0  0  0  0  0  0  0  0  0  0
  1  2  2  0
  2  3  1  0
  3  4  1  0
  4  5  1  0
  5  6  1  0
  6  7  1  0
  7  8  2  0
  8  9  1  0
  9 10  2  0
 10 11  1  0
 10 12  1  0
 12 13  2  0
 13 14  1  0
  2 15  1  0
 15 16  1  0
 16 17  2  0
 17 18  1  0
 18 19  2  0
 19 20  1  0
 19 21  1  0
 21 22  1  0
 21 23  2  0
 13  7  1  0
 23 16  1  0
  3 24  1  0
  3 25  1  0
  4 26  1  0
  4 27  1  0
  5 28  1  0
  5 29  1  0
  8 30  1  0
  9 31  1  0
 12 32  1  0
 15 33  1  0
 17 34  1  0
 18 35  1  0
 20 36  1  0
 23 37  1  0
M  END
>  <smiles>  (20) 
O=C(CCCOc1ccc(Cl)cc1Br)Nc1ccc(O)c(F)c1

>  <score_type>  (20) 
oracle

>  <origin>  (20) 
autodockgpu

>  <m_score__min__energy>  (20) 
-6.5700000000000003

>  <m_primary>  (20) 
energy

>  <meeko>  (20) 
{"free_energy": -5.95, "intermolecular_energy": -8.04, "internal_energy": -1.65, "cluster_size": 2, "cluster_id": 3, "rank_in_cluster": 1}

>  <energy>  (20) 
-5.48

>  <cluster_rmsd>  (20) 
0.0

>  <rmsd>  (20) 
271.44

>  <cluster>  (20) 
6

$$$$
