BQTJSOOYCKASGQ-IDUMZPQDNA-O
     RDKit          3D

 49 52  0  0  0  0  0  0  0  0999 V2000
  141.1577   71.2281  221.0557 H   0  0  0  0  0  0  0  0  0  0  0  0
  140.4810   71.9420  221.5480 C   0  0  0  0  0  0  0  0  0  0  0  0
  139.4410   71.4670  222.2460 C   0  0  0  0  0  0  0  0  0  0  0  0
  138.4226   71.5903  221.8491 H   0  0  0  0  0  0  0  0  0  0  0  0
  139.6380   70.7780  223.5440 C   0  0  0  0  0  0  0  0  0  0  0  0
  140.1650   71.5070  224.5640 N   0  0  0  0  0  0  0  0  0  0  0  0
  140.3660   70.9830  225.7930 C   0  0  0  0  0  0  0  0  0  0  0  0
  140.9090   71.7760  226.8120 C   0  0  0  0  0  0  0  0  0  0  0  0
  141.1740   72.8245  226.6109 H   0  0  0  0  0  0  0  0  0  0  0  0
  141.1140   71.2350  228.0840 C   0  0  0  0  0  0  0  0  0  0  0  0
  141.5434   71.8572  228.8831 H   0  0  0  0  0  0  0  0  0  0  0  0
  140.7740   69.9040  228.3420 C   0  0  0  0  0  0  0  0  0  0  0  0
  140.9340   69.4819  229.3451 H   0  0  0  0  0  0  0  0  0  0  0  0
  140.2310   69.1070  227.3290 C   0  0  0  0  0  0  0  0  0  0  0  0
  139.9661   68.0596  227.5361 H   0  0  0  0  0  0  0  0  0  0  0  0
  140.0230   69.6450  226.0430 C   0  0  0  0  0  0  0  0  0  0  0  0
  139.4880   68.8870  224.9870 C   0  0  0  0  0  0  0  0  0  0  0  0
  139.1900   67.6740  225.1860 O   0  0  0  0  0  0  0  0  0  0  0  0
  139.3010   69.4530  223.7450 N   0  0  0  0  0  0  0  0  0  0  0  0
  138.8250   68.5860  222.6390 C   0  0  0  0  0  0  0  0  0  0  0  0
  139.3776   68.8410  221.7227 H   0  0  0  0  0  0  0  0  0  0  0  0
  138.9990   67.5381  222.9247 H   0  0  0  0  0  0  0  0  0  0  0  0
  137.3120   68.7710  222.3800 C   0  0  0  0  0  0  0  0  0  0  0  0
  137.2068   69.5404  221.6010 H   0  0  0  0  0  0  0  0  0  0  0  0
  136.6850   67.4480  221.8790 C   0  0  0  0  0  0  0  0  0  0  0  0
  136.8687   67.3594  220.7981 H   0  0  0  0  0  0  0  0  0  0  0  0
  137.1526   66.6265  222.4416 H   0  0  0  0  0  0  0  0  0  0  0  0
  135.1640   67.3740  222.1280 C   0  0  0  0  0  0  0  0  0  0  0  0
  134.6946   66.8110  221.3079 H   0  0  0  0  0  0  0  0  0  0  0  0
  134.9963   66.8734  223.0930 H   0  0  0  0  0  0  0  0  0  0  0  0
  134.5630   68.7130  222.1930 N   0  0  0  0  0  0  0  0  0  0  0  0
  133.5230   68.6140  222.2740 H   0  0  0  0  0  0  0  0  0  0  0  0
  134.7650   69.2320  221.3060 H   0  0  0  0  0  0  0  0  0  0  0  0
  135.0570   69.4840  223.3510 C   0  0  0  0  0  0  0  0  0  0  0  0
  134.8811   70.5528  223.1591 H   0  0  0  0  0  0  0  0  0  0  0  0
  134.5117   69.1256  224.2366 H   0  0  0  0  0  0  0  0  0  0  0  0
  136.5650   69.2770  223.6280 C   0  0  0  0  0  0  0  0  0  0  0  0
  137.0042   70.2356  223.9415 H   0  0  0  0  0  0  0  0  0  0  0  0
  136.6663   68.5182  224.4180 H   0  0  0  0  0  0  0  0  0  0  0  0
  140.7540   73.3870  221.4140 C   0  0  0  0  0  0  0  0  0  0  0  0
  139.9490   74.3100  222.0160 N   0  0  0  0  0  0  0  0  0  0  0  0
  140.1900   75.6450  221.9240 C   0  0  0  0  0  0  0  0  0  0  0  0
  139.5195   76.3600  222.4232 H   0  0  0  0  0  0  0  0  0  0  0  0
  141.2870   76.1090  221.1970 C   0  0  0  0  0  0  0  0  0  0  0  0
  141.4900   77.1877  221.1243 H   0  0  0  0  0  0  0  0  0  0  0  0
  142.1240   75.1890  220.5630 C   0  0  0  0  0  0  0  0  0  0  0  0
  142.9875   75.5408  219.9794 H   0  0  0  0  0  0  0  0  0  0  0  0
  141.8630   73.8210  220.6710 C   0  0  0  0  0  0  0  0  0  0  0  0
  142.5209   73.0901  220.1780 H   0  0  0  0  0  0  0  0  0  0  0  0
  1  2  1  0
  2  3  2  0
  3  4  1  0
  3  5  1  0
  5  6  2  0
  6  7  1  0
  7  8  2  0
  8  9  1  0
  8 10  1  0
 10 11  1  0
 10 12  2  0
 12 13  1  0
 12 14  1  0
 14 15  1  0
 14 16  2  0
 16 17  1  0
 17 18  2  0
 17 19  1  0
 19 20  1  0
 20 21  1  0
 20 22  1  0
 20 23  1  0
 23 24  1  0
 23 25  1  0
 25 26  1  0
 25 27  1  0
 25 28  1  0
 28 29  1  0
 28 30  1  0
 28 31  1  0
 31 32  1  0
 31 33  1  0
 31 34  1  0
 34 35  1  0
 34 36  1  0
 34 37  1  0
 37 38  1  0
 37 39  1  0
  2 40  1  0
 40 41  2  0
 41 42  1  0
 42 43  1  0
 42 44  2  0
 44 45  1  0
 44 46  1  0
 46 47  1  0
 46 48  2  0
 48 49  1  0
 19  5  1  0
 37 23  1  0
 48 40  1  0
 16  7  1  0
M  CHG  1  31   1
M  END
>  <UniqueID>  (1) 
439

>  <SMILES>  (1) 
O=c1c2ccccc2nc(/C=C/c2ccccn2)n1CC1CC[NH2+]CC1

>  <Energy>  (1) 
62.6427407089206

>  <Genealogy>  (1) 
O=c1c2ccccc2nc(/C=C/c2ccccn2)n1CC1CC[NH2+]CC1 (protonated)
O=c1c2ccccc2nc(/C=C/c2ccccn2)n1CC1CC[NH2+]CC1 (cis-trans isomerization)
O=c1c2ccccc2nc(/C=C/c2ccccn2)n1CC1CC[NH2+]CC1 (3D coordinates assigned)
O=c1c2ccccc2nc(/C=C/c2ccccn2)n1CC1CC[NH2+]CC1 (nonaromatic ring conformer: 62.6427407089206 kcal/mol)

>  <smiles>  (1) 
O=c1c2ccccc2nc(/C=C/c2ccccn2)n1CC1CCNCC1

>  <score_type>  (1) 
oracle

>  <origin>  (1) 
autodockgpu

>  <m_score__min__energy>  (1) 
-7.5

>  <m_primary>  (1) 
energy

>  <meeko>  (1) 
{"free_energy": -7.5, "intermolecular_energy": -8.99, "internal_energy": -0.99, "cluster_size": 1, "cluster_id": 1, "rank_in_cluster": 1}

>  <energy>  (1) 
-7.5

>  <cluster_rmsd>  (1) 
0.0

>  <rmsd>  (1) 
272.05

>  <cluster>  (1) 
1

$$$$
BQTJSOOYCKASGQ-IDUMZPQDNA-O
     RDKit          3D

 49 52  0  0  0  0  0  0  0  0999 V2000
  143.7572   79.8010  222.7192 H   0  0  0  0  0  0  0  0  0  0  0  0
  142.6700   79.8390  222.5560 C   0  0  0  0  0  0  0  0  0  0  0  0
  141.8940   78.9340  223.1690 C   0  0  0  0  0  0  0  0  0  0  0  0
  142.3628   78.1119  223.7297 H   0  0  0  0  0  0  0  0  0  0  0  0
  140.4160   79.0210  223.1050 C   0  0  0  0  0  0  0  0  0  0  0  0
  139.8010   79.8500  223.9900 N   0  0  0  0  0  0  0  0  0  0  0  0
  138.4610   80.0200  224.0040 C   0  0  0  0  0  0  0  0  0  0  0  0
  137.8740   80.8870  224.9350 C   0  0  0  0  0  0  0  0  0  0  0  0
  138.5043   81.4270  225.6569 H   0  0  0  0  0  0  0  0  0  0  0  0
  136.4890   81.0660  224.9470 C   0  0  0  0  0  0  0  0  0  0  0  0
  136.0292   81.7450  225.6802 H   0  0  0  0  0  0  0  0  0  0  0  0
  135.6860   80.3830  224.0280 C   0  0  0  0  0  0  0  0  0  0  0  0
  134.5956   80.5279  224.0381 H   0  0  0  0  0  0  0  0  0  0  0  0
  136.2660   79.5160  223.0960 C   0  0  0  0  0  0  0  0  0  0  0  0
  135.6311   78.9795  222.3755 H   0  0  0  0  0  0  0  0  0  0  0  0
  137.6630   79.3290  223.0790 C   0  0  0  0  0  0  0  0  0  0  0  0
  138.2960   78.4640  222.1700 C   0  0  0  0  0  0  0  0  0  0  0  0
  137.5930   77.8180  221.3400 O   0  0  0  0  0  0  0  0  0  0  0  0
  139.6650   78.3110  222.1870 N   0  0  0  0  0  0  0  0  0  0  0  0
  140.2760   77.3150  221.2730 C   0  0  0  0  0  0  0  0  0  0  0  0
  140.8756   76.6081  221.8652 H   0  0  0  0  0  0  0  0  0  0  0  0
  139.4660   76.7945  220.7410 H   0  0  0  0  0  0  0  0  0  0  0  0
  141.1880   77.9890  220.2230 C   0  0  0  0  0  0  0  0  0  0  0  0
  141.5207   78.9474  220.6481 H   0  0  0  0  0  0  0  0  0  0  0  0
  142.4230   77.1020  219.9330 C   0  0  0  0  0  0  0  0  0  0  0  0
  143.1756   77.2813  220.7149 H   0  0  0  0  0  0  0  0  0  0  0  0
  142.0839   76.0556  219.9244 H   0  0  0  0  0  0  0  0  0  0  0  0
  143.0610   77.3940  218.5590 C   0  0  0  0  0  0  0  0  0  0  0  0
  144.1490   77.2496  218.6320 H   0  0  0  0  0  0  0  0  0  0  0  0
  142.6236   76.7050  217.8215 H   0  0  0  0  0  0  0  0  0  0  0  0
  142.7900   78.7710  218.1220 N   0  0  0  0  0  0  0  0  0  0  0  0
  143.3130   78.9520  217.2320 H   0  0  0  0  0  0  0  0  0  0  0  0
  143.1440   79.4440  218.8410 H   0  0  0  0  0  0  0  0  0  0  0  0
  141.3520   79.0010  217.8810 C   0  0  0  0  0  0  0  0  0  0  0  0
  141.1603   80.0835  217.9200 H   0  0  0  0  0  0  0  0  0  0  0  0
  141.1145   78.5729  216.8960 H   0  0  0  0  0  0  0  0  0  0  0  0
  140.4380   78.3030  218.9160 C   0  0  0  0  0  0  0  0  0  0  0  0
  139.5884   78.9637  219.1432 H   0  0  0  0  0  0  0  0  0  0  0  0
  140.0952   77.3520  218.4822 H   0  0  0  0  0  0  0  0  0  0  0  0
  142.1210   80.8850  221.6700 C   0  0  0  0  0  0  0  0  0  0  0  0
  142.1880   80.7580  220.3130 N   0  0  0  0  0  0  0  0  0  0  0  0
  141.6720   81.6970  219.4750 C   0  0  0  0  0  0  0  0  0  0  0  0
  141.7440   81.5605  218.3859 H   0  0  0  0  0  0  0  0  0  0  0  0
  141.0510   82.8340  219.9960 C   0  0  0  0  0  0  0  0  0  0  0  0
  140.6266   83.5939  219.3234 H   0  0  0  0  0  0  0  0  0  0  0  0
  140.9750   82.9950  221.3820 C   0  0  0  0  0  0  0  0  0  0  0  0
  140.4966   83.8896  221.8072 H   0  0  0  0  0  0  0  0  0  0  0  0
  141.5070   82.0190  222.2260 C   0  0  0  0  0  0  0  0  0  0  0  0
  141.4458   82.1371  223.3179 H   0  0  0  0  0  0  0  0  0  0  0  0
  1  2  1  0
  2  3  2  0
  3  4  1  0
  3  5  1  0
  5  6  2  0
  6  7  1  0
  7  8  2  0
  8  9  1  0
  8 10  1  0
 10 11  1  0
 10 12  2  0
 12 13  1  0
 12 14  1  0
 14 15  1  0
 14 16  2  0
 16 17  1  0
 17 18  2  0
 17 19  1  0
 19 20  1  0
 20 21  1  0
 20 22  1  0
 20 23  1  0
 23 24  1  0
 23 25  1  0
 25 26  1  0
 25 27  1  0
 25 28  1  0
 28 29  1  0
 28 30  1  0
 28 31  1  0
 31 32  1  0
 31 33  1  0
 31 34  1  0
 34 35  1  0
 34 36  1  0
 34 37  1  0
 37 38  1  0
 37 39  1  0
  2 40  1  0
 40 41  2  0
 41 42  1  0
 42 43  1  0
 42 44  2  0
 44 45  1  0
 44 46  1  0
 46 47  1  0
 46 48  2  0
 48 49  1  0
 19  5  1  0
 37 23  1  0
 48 40  1  0
 16  7  1  0
M  CHG  1  31   1
M  END
>  <UniqueID>  (2) 
439

>  <SMILES>  (2) 
O=c1c2ccccc2nc(/C=C/c2ccccn2)n1CC1CC[NH2+]CC1

>  <Energy>  (2) 
62.6427407089206

>  <Genealogy>  (2) 
O=c1c2ccccc2nc(/C=C/c2ccccn2)n1CC1CC[NH2+]CC1 (protonated)
O=c1c2ccccc2nc(/C=C/c2ccccn2)n1CC1CC[NH2+]CC1 (cis-trans isomerization)
O=c1c2ccccc2nc(/C=C/c2ccccn2)n1CC1CC[NH2+]CC1 (3D coordinates assigned)
O=c1c2ccccc2nc(/C=C/c2ccccn2)n1CC1CC[NH2+]CC1 (nonaromatic ring conformer: 62.6427407089206 kcal/mol)

>  <smiles>  (2) 
O=c1c2ccccc2nc(/C=C/c2ccccn2)n1CC1CCNCC1

>  <score_type>  (2) 
oracle

>  <origin>  (2) 
autodockgpu

>  <m_score__min__energy>  (2) 
-7.5

>  <m_primary>  (2) 
energy

>  <meeko>  (2) 
{"free_energy": -6.34, "intermolecular_energy": -7.83, "internal_energy": -2.42, "cluster_size": 11, "cluster_id": 5, "rank_in_cluster": 3}

>  <energy>  (2) 
-7.39

>  <cluster_rmsd>  (2) 
0.0

>  <rmsd>  (2) 
272.77

>  <cluster>  (2) 
2

$$$$
BQTJSOOYCKASGQ-IDUMZPQDNA-O
     RDKit          3D

 49 52  0  0  0  0  0  0  0  0999 V2000
  138.7365   77.4612  223.5066 H   0  0  0  0  0  0  0  0  0  0  0  0
  139.4690   77.7460  222.7370 C   0  0  0  0  0  0  0  0  0  0  0  0
  139.4800   77.0740  221.5780 C   0  0  0  0  0  0  0  0  0  0  0  0
  138.5795   77.0728  220.9463 H   0  0  0  0  0  0  0  0  0  0  0  0
  140.6830   76.3320  221.1310 C   0  0  0  0  0  0  0  0  0  0  0  0
  140.7050   74.9900  221.3480 N   0  0  0  0  0  0  0  0  0  0  0  0
  141.7420   74.2160  220.9620 C   0  0  0  0  0  0  0  0  0  0  0  0
  141.7160   72.8370  221.2060 C   0  0  0  0  0  0  0  0  0  0  0  0
  140.8520   72.3845  221.7147 H   0  0  0  0  0  0  0  0  0  0  0  0
  142.7880   72.0360  220.8030 C   0  0  0  0  0  0  0  0  0  0  0  0
  142.7679   70.9534  220.9966 H   0  0  0  0  0  0  0  0  0  0  0  0
  143.8860   72.6090  220.1540 C   0  0  0  0  0  0  0  0  0  0  0  0
  144.7276   71.9757  219.8368 H   0  0  0  0  0  0  0  0  0  0  0  0
  143.9170   73.9860  219.9070 C   0  0  0  0  0  0  0  0  0  0  0  0
  144.7824   74.4332  219.3961 H   0  0  0  0  0  0  0  0  0  0  0  0
  142.8410   74.8000  220.3120 C   0  0  0  0  0  0  0  0  0  0  0  0
  142.8250   76.1890  220.0970 C   0  0  0  0  0  0  0  0  0  0  0  0
  143.8130   76.7370  219.5290 O   0  0  0  0  0  0  0  0  0  0  0  0
  141.7520   76.9480  220.5080 N   0  0  0  0  0  0  0  0  0  0  0  0
  141.8250   78.4210  220.3450 C   0  0  0  0  0  0  0  0  0  0  0  0
  140.8450   78.8561  220.5906 H   0  0  0  0  0  0  0  0  0  0  0  0
  142.6054   78.8029  221.0196 H   0  0  0  0  0  0  0  0  0  0  0  0
  142.2010   78.8170  218.8990 C   0  0  0  0  0  0  0  0  0  0  0  0
  143.2781   78.6282  218.7796 H   0  0  0  0  0  0  0  0  0  0  0  0
  141.4160   77.9550  217.8820 C   0  0  0  0  0  0  0  0  0  0  0  0
  141.9350   76.9924  217.7630 H   0  0  0  0  0  0  0  0  0  0  0  0
  140.3974   77.8241  218.2761 H   0  0  0  0  0  0  0  0  0  0  0  0
  141.2950   78.6240  216.4970 C   0  0  0  0  0  0  0  0  0  0  0  0
  141.3095   77.8444  215.7211 H   0  0  0  0  0  0  0  0  0  0  0  0
  140.3512   79.1883  216.4677 H   0  0  0  0  0  0  0  0  0  0  0  0
  142.4000   79.5610  216.2530 N   0  0  0  0  0  0  0  0  0  0  0  0
  142.3260   79.9230  215.2730 H   0  0  0  0  0  0  0  0  0  0  0  0
  143.3130   79.0570  216.3380 H   0  0  0  0  0  0  0  0  0  0  0  0
  142.3680   80.7060  217.1840 C   0  0  0  0  0  0  0  0  0  0  0  0
  143.3697   81.1595  217.2137 H   0  0  0  0  0  0  0  0  0  0  0  0
  141.6058   81.4064  216.8118 H   0  0  0  0  0  0  0  0  0  0  0  0
  141.9640   80.3140  218.6250 C   0  0  0  0  0  0  0  0  0  0  0  0
  142.5611   80.9047  219.3352 H   0  0  0  0  0  0  0  0  0  0  0  0
  140.8898   80.5176  218.7460 H   0  0  0  0  0  0  0  0  0  0  0  0
  140.4030   78.8550  223.0210 C   0  0  0  0  0  0  0  0  0  0  0  0
  141.6770   78.6060  223.4430 N   0  0  0  0  0  0  0  0  0  0  0  0
  142.5620   79.6080  223.6910 C   0  0  0  0  0  0  0  0  0  0  0  0
  143.5813   79.3698  224.0290 H   0  0  0  0  0  0  0  0  0  0  0  0
  142.1780   80.9390  223.5170 C   0  0  0  0  0  0  0  0  0  0  0  0
  142.8912   81.7537  223.7109 H   0  0  0  0  0  0  0  0  0  0  0  0
  140.8780   81.2240  223.0940 C   0  0  0  0  0  0  0  0  0  0  0  0
  140.5587   82.2682  222.9610 H   0  0  0  0  0  0  0  0  0  0  0  0
  139.9840   80.1820  222.8400 C   0  0  0  0  0  0  0  0  0  0  0  0
  138.9603   80.3993  222.5010 H   0  0  0  0  0  0  0  0  0  0  0  0
  1  2  1  0
  2  3  2  0
  3  4  1  0
  3  5  1  0
  5  6  2  0
  6  7  1  0
  7  8  2  0
  8  9  1  0
  8 10  1  0
 10 11  1  0
 10 12  2  0
 12 13  1  0
 12 14  1  0
 14 15  1  0
 14 16  2  0
 16 17  1  0
 17 18  2  0
 17 19  1  0
 19 20  1  0
 20 21  1  0
 20 22  1  0
 20 23  1  0
 23 24  1  0
 23 25  1  0
 25 26  1  0
 25 27  1  0
 25 28  1  0
 28 29  1  0
 28 30  1  0
 28 31  1  0
 31 32  1  0
 31 33  1  0
 31 34  1  0
 34 35  1  0
 34 36  1  0
 34 37  1  0
 37 38  1  0
 37 39  1  0
  2 40  1  0
 40 41  2  0
 41 42  1  0
 42 43  1  0
 42 44  2  0
 44 45  1  0
 44 46  1  0
 46 47  1  0
 46 48  2  0
 48 49  1  0
 19  5  1  0
 37 23  1  0
 48 40  1  0
 16  7  1  0
M  CHG  1  31   1
M  END
>  <UniqueID>  (3) 
439

>  <SMILES>  (3) 
O=c1c2ccccc2nc(/C=C/c2ccccn2)n1CC1CC[NH2+]CC1

>  <Energy>  (3) 
62.6427407089206

>  <Genealogy>  (3) 
O=c1c2ccccc2nc(/C=C/c2ccccn2)n1CC1CC[NH2+]CC1 (protonated)
O=c1c2ccccc2nc(/C=C/c2ccccn2)n1CC1CC[NH2+]CC1 (cis-trans isomerization)
O=c1c2ccccc2nc(/C=C/c2ccccn2)n1CC1CC[NH2+]CC1 (3D coordinates assigned)
O=c1c2ccccc2nc(/C=C/c2ccccn2)n1CC1CC[NH2+]CC1 (nonaromatic ring conformer: 62.6427407089206 kcal/mol)

>  <smiles>  (3) 
O=c1c2ccccc2nc(/C=C/c2ccccn2)n1CC1CCNCC1

>  <score_type>  (3) 
oracle

>  <origin>  (3) 
autodockgpu

>  <m_score__min__energy>  (3) 
-7.5

>  <m_primary>  (3) 
energy

>  <meeko>  (3) 
{"free_energy": -7.28, "intermolecular_energy": -8.77, "internal_energy": -1.21, "cluster_size": 4, "cluster_id": 2, "rank_in_cluster": 4}

>  <energy>  (3) 
-7.38

>  <cluster_rmsd>  (3) 
0.03

>  <rmsd>  (3) 
272.77

>  <cluster>  (3) 
2

$$$$
BQTJSOOYCKASGQ-IDUMZPQDNA-O
     RDKit          3D

 49 52  0  0  0  0  0  0  0  0999 V2000
  143.7451   79.7750  222.7514 H   0  0  0  0  0  0  0  0  0  0  0  0
  142.6580   79.8250  222.5910 C   0  0  0  0  0  0  0  0  0  0  0  0
  141.8760   78.9170  223.1910 C   0  0  0  0  0  0  0  0  0  0  0  0
  142.3385   78.0863  223.7441 H   0  0  0  0  0  0  0  0  0  0  0  0
  140.3980   79.0130  223.1220 C   0  0  0  0  0  0  0  0  0  0  0  0
  139.7840   79.8350  224.0140 N   0  0  0  0  0  0  0  0  0  0  0  0
  138.4450   80.0120  224.0250 C   0  0  0  0  0  0  0  0  0  0  0  0
  137.8590   80.8720  224.9630 C   0  0  0  0  0  0  0  0  0  0  0  0
  138.4891   81.4009  225.6932 H   0  0  0  0  0  0  0  0  0  0  0  0
  136.4740   81.0580  224.9710 C   0  0  0  0  0  0  0  0  0  0  0  0
  136.0144   81.7317  225.7092 H   0  0  0  0  0  0  0  0  0  0  0  0
  135.6720   80.3890  224.0420 C   0  0  0  0  0  0  0  0  0  0  0  0
  134.5822   80.5385  224.0501 H   0  0  0  0  0  0  0  0  0  0  0  0
  136.2510   79.5300  223.1020 C   0  0  0  0  0  0  0  0  0  0  0  0
  135.6164   79.0056  222.3724 H   0  0  0  0  0  0  0  0  0  0  0  0
  137.6460   79.3360  223.0890 C   0  0  0  0  0  0  0  0  0  0  0  0
  138.2790   78.4770  222.1720 C   0  0  0  0  0  0  0  0  0  0  0  0
  137.5760   77.8450  221.3330 O   0  0  0  0  0  0  0  0  0  0  0  0
  139.6470   78.3170  222.1930 N   0  0  0  0  0  0  0  0  0  0  0  0
  140.2560   77.3280  221.2710 C   0  0  0  0  0  0  0  0  0  0  0  0
  140.8464   76.6092  221.8582 H   0  0  0  0  0  0  0  0  0  0  0  0
  139.4455   76.8203  220.7276 H   0  0  0  0  0  0  0  0  0  0  0  0
  141.1800   78.0080  220.2350 C   0  0  0  0  0  0  0  0  0  0  0  0
  141.5128   78.9609  220.6723 H   0  0  0  0  0  0  0  0  0  0  0  0
  142.4140   77.1200  219.9470 C   0  0  0  0  0  0  0  0  0  0  0  0
  143.1605   77.2892  220.7370 H   0  0  0  0  0  0  0  0  0  0  0  0
  142.0714   76.0749  219.9253 H   0  0  0  0  0  0  0  0  0  0  0  0
  143.0650   77.4230  218.5810 C   0  0  0  0  0  0  0  0  0  0  0  0
  144.1519   77.2746  218.6620 H   0  0  0  0  0  0  0  0  0  0  0  0
  142.6321   76.7423  217.8332 H   0  0  0  0  0  0  0  0  0  0  0  0
  142.8020   78.8040  218.1550 N   0  0  0  0  0  0  0  0  0  0  0  0
  143.3330   78.9920  217.2700 H   0  0  0  0  0  0  0  0  0  0  0  0
  143.1520   79.4690  218.8830 H   0  0  0  0  0  0  0  0  0  0  0  0
  141.3670   79.0410  217.9040 C   0  0  0  0  0  0  0  0  0  0  0  0
  141.1786   80.1237  217.9514 H   0  0  0  0  0  0  0  0  0  0  0  0
  141.1366   78.6226  216.9131 H   0  0  0  0  0  0  0  0  0  0  0  0
  140.4420   78.3370  218.9240 C   0  0  0  0  0  0  0  0  0  0  0  0
  139.5928   78.9986  219.1501 H   0  0  0  0  0  0  0  0  0  0  0  0
  140.0995   77.3914  218.4784 H   0  0  0  0  0  0  0  0  0  0  0  0
  142.1170   80.8900  221.7230 C   0  0  0  0  0  0  0  0  0  0  0  0
  142.1990   80.7940  220.3650 N   0  0  0  0  0  0  0  0  0  0  0  0
  141.6910   81.7510  219.5430 C   0  0  0  0  0  0  0  0  0  0  0  0
  141.7749   81.6394  218.4519 H   0  0  0  0  0  0  0  0  0  0  0  0
  141.0630   82.8750  220.0830 C   0  0  0  0  0  0  0  0  0  0  0  0
  140.6447   83.6493  219.4231 H   0  0  0  0  0  0  0  0  0  0  0  0
  140.9720   83.0050  221.4700 C   0  0  0  0  0  0  0  0  0  0  0  0
  140.4884   83.8896  221.9099 H   0  0  0  0  0  0  0  0  0  0  0  0
  141.4960   82.0100  222.2980 C   0  0  0  0  0  0  0  0  0  0  0  0
  141.4228   82.1031  223.3916 H   0  0  0  0  0  0  0  0  0  0  0  0
  1  2  1  0
  2  3  2  0
  3  4  1  0
  3  5  1  0
  5  6  2  0
  6  7  1  0
  7  8  2  0
  8  9  1  0
  8 10  1  0
 10 11  1  0
 10 12  2  0
 12 13  1  0
 12 14  1  0
 14 15  1  0
 14 16  2  0
 16 17  1  0
 17 18  2  0
 17 19  1  0
 19 20  1  0
 20 21  1  0
 20 22  1  0
 20 23  1  0
 23 24  1  0
 23 25  1  0
 25 26  1  0
 25 27  1  0
 25 28  1  0
 28 29  1  0
 28 30  1  0
 28 31  1  0
 31 32  1  0
 31 33  1  0
 31 34  1  0
 34 35  1  0
 34 36  1  0
 34 37  1  0
 37 38  1  0
 37 39  1  0
  2 40  1  0
 40 41  2  0
 41 42  1  0
 42 43  1  0
 42 44  2  0
 44 45  1  0
 44 46  1  0
 46 47  1  0
 46 48  2  0
 48 49  1  0
 19  5  1  0
 37 23  1  0
 48 40  1  0
 16  7  1  0
M  CHG  1  31   1
M  END
>  <UniqueID>  (4) 
439

>  <SMILES>  (4) 
O=c1c2ccccc2nc(/C=C/c2ccccn2)n1CC1CC[NH2+]CC1

>  <Energy>  (4) 
62.6427407089206

>  <Genealogy>  (4) 
O=c1c2ccccc2nc(/C=C/c2ccccn2)n1CC1CC[NH2+]CC1 (protonated)
O=c1c2ccccc2nc(/C=C/c2ccccn2)n1CC1CC[NH2+]CC1 (cis-trans isomerization)
O=c1c2ccccc2nc(/C=C/c2ccccn2)n1CC1CC[NH2+]CC1 (3D coordinates assigned)
O=c1c2ccccc2nc(/C=C/c2ccccn2)n1CC1CC[NH2+]CC1 (nonaromatic ring conformer: 62.6427407089206 kcal/mol)

>  <smiles>  (4) 
O=c1c2ccccc2nc(/C=C/c2ccccn2)n1CC1CCNCC1

>  <score_type>  (4) 
oracle

>  <origin>  (4) 
autodockgpu

>  <m_score__min__energy>  (4) 
-7.5

>  <m_primary>  (4) 
energy

>  <meeko>  (4) 
{"free_energy": -6.33, "intermolecular_energy": -7.82, "internal_energy": -2.43, "cluster_size": 11, "cluster_id": 5, "rank_in_cluster": 5}

>  <energy>  (4) 
-7.35

>  <cluster_rmsd>  (4) 
0.08

>  <rmsd>  (4) 
272.73

>  <cluster>  (4) 
2

$$$$
BQTJSOOYCKASGQ-IDUMZPQDNA-O
     RDKit          3D

 49 52  0  0  0  0  0  0  0  0999 V2000
  136.3070   68.5250  221.6347 H   0  0  0  0  0  0  0  0  0  0  0  0
  136.6730   68.5310  222.6720 C   0  0  0  0  0  0  0  0  0  0  0  0
  137.9280   68.1310  222.9140 C   0  0  0  0  0  0  0  0  0  0  0  0
  138.3457   67.2877  222.3445 H   0  0  0  0  0  0  0  0  0  0  0  0
  138.7640   68.8050  223.9360 C   0  0  0  0  0  0  0  0  0  0  0  0
  138.8140   68.2410  225.1720 N   0  0  0  0  0  0  0  0  0  0  0  0
  139.5610   68.7610  226.1700 C   0  0  0  0  0  0  0  0  0  0  0  0
  139.5820   68.1420  227.4260 C   0  0  0  0  0  0  0  0  0  0  0  0
  138.9873   67.2333  227.6010 H   0  0  0  0  0  0  0  0  0  0  0  0
  140.3580   68.6780  228.4570 C   0  0  0  0  0  0  0  0  0  0  0  0
  140.3717   68.1921  229.4438 H   0  0  0  0  0  0  0  0  0  0  0  0
  141.1170   69.8310  228.2360 C   0  0  0  0  0  0  0  0  0  0  0  0
  141.7290   70.2492  229.0487 H   0  0  0  0  0  0  0  0  0  0  0  0
  141.1000   70.4540  226.9840 C   0  0  0  0  0  0  0  0  0  0  0  0
  141.6967   71.3624  226.8144 H   0  0  0  0  0  0  0  0  0  0  0  0
  140.3200   69.9200  225.9400 C   0  0  0  0  0  0  0  0  0  0  0  0
  140.2600   70.5120  224.6660 C   0  0  0  0  0  0  0  0  0  0  0  0
  140.9210   71.5660  224.4430 O   0  0  0  0  0  0  0  0  0  0  0  0
  139.4840   69.9560  223.6720 N   0  0  0  0  0  0  0  0  0  0  0  0
  139.3790   70.6690  222.3760 C   0  0  0  0  0  0  0  0  0  0  0  0
  140.3913   70.8532  221.9871 H   0  0  0  0  0  0  0  0  0  0  0  0
  138.8000   70.0400  221.6838 H   0  0  0  0  0  0  0  0  0  0  0  0
  138.6460   72.0220  222.5270 C   0  0  0  0  0  0  0  0  0  0  0  0
  138.4641   72.1759  223.6009 H   0  0  0  0  0  0  0  0  0  0  0  0
  139.5260   73.1750  221.9880 C   0  0  0  0  0  0  0  0  0  0  0  0
  140.2424   73.4656  222.7706 H   0  0  0  0  0  0  0  0  0  0  0  0
  140.0348   72.8083  221.0843 H   0  0  0  0  0  0  0  0  0  0  0  0
  138.7040   74.4180  221.5860 C   0  0  0  0  0  0  0  0  0  0  0  0
  139.2964   75.3212  221.7941 H   0  0  0  0  0  0  0  0  0  0  0  0
  138.4672   74.3441  220.5143 H   0  0  0  0  0  0  0  0  0  0  0  0
  137.4410   74.4920  222.3340 N   0  0  0  0  0  0  0  0  0  0  0  0
  136.9590   75.3920  222.0950 H   0  0  0  0  0  0  0  0  0  0  0  0
  137.6400   74.5010  223.3610 H   0  0  0  0  0  0  0  0  0  0  0  0
  136.5380   73.3710  222.0050 C   0  0  0  0  0  0  0  0  0  0  0  0
  135.8058   73.2622  222.8186 H   0  0  0  0  0  0  0  0  0  0  0  0
  136.0581   73.6104  221.0446 H   0  0  0  0  0  0  0  0  0  0  0  0
  137.2760   72.0230  221.8250 C   0  0  0  0  0  0  0  0  0  0  0  0
  136.6575   71.2191  222.2505 H   0  0  0  0  0  0  0  0  0  0  0  0
  137.4434   71.8663  220.7492 H   0  0  0  0  0  0  0  0  0  0  0  0
  135.7610   68.9800  223.7440 C   0  0  0  0  0  0  0  0  0  0  0  0
  134.8020   68.1470  224.2410 N   0  0  0  0  0  0  0  0  0  0  0  0
  133.9640   68.5280  225.2410 C   0  0  0  0  0  0  0  0  0  0  0  0
  133.2026   67.8285  225.6165 H   0  0  0  0  0  0  0  0  0  0  0  0
  134.0690   69.8070  225.7920 C   0  0  0  0  0  0  0  0  0  0  0  0
  133.3982   70.1192  226.6060 H   0  0  0  0  0  0  0  0  0  0  0  0
  135.0360   70.6850  225.2970 C   0  0  0  0  0  0  0  0  0  0  0  0
  135.1245   71.6989  225.7143 H   0  0  0  0  0  0  0  0  0  0  0  0
  135.8900   70.2740  224.2720 C   0  0  0  0  0  0  0  0  0  0  0  0
  136.6575   70.9585  223.8815 H   0  0  0  0  0  0  0  0  0  0  0  0
  1  2  1  0
  2  3  2  0
  3  4  1  0
  3  5  1  0
  5  6  2  0
  6  7  1  0
  7  8  2  0
  8  9  1  0
  8 10  1  0
 10 11  1  0
 10 12  2  0
 12 13  1  0
 12 14  1  0
 14 15  1  0
 14 16  2  0
 16 17  1  0
 17 18  2  0
 17 19  1  0
 19 20  1  0
 20 21  1  0
 20 22  1  0
 20 23  1  0
 23 24  1  0
 23 25  1  0
 25 26  1  0
 25 27  1  0
 25 28  1  0
 28 29  1  0
 28 30  1  0
 28 31  1  0
 31 32  1  0
 31 33  1  0
 31 34  1  0
 34 35  1  0
 34 36  1  0
 34 37  1  0
 37 38  1  0
 37 39  1  0
  2 40  1  0
 40 41  2  0
 41 42  1  0
 42 43  1  0
 42 44  2  0
 44 45  1  0
 44 46  1  0
 46 47  1  0
 46 48  2  0
 48 49  1  0
 19  5  1  0
 37 23  1  0
 48 40  1  0
 16  7  1  0
M  CHG  1  31   1
M  END
>  <UniqueID>  (5) 
439

>  <SMILES>  (5) 
O=c1c2ccccc2nc(/C=C/c2ccccn2)n1CC1CC[NH2+]CC1

>  <Energy>  (5) 
62.6427407089206

>  <Genealogy>  (5) 
O=c1c2ccccc2nc(/C=C/c2ccccn2)n1CC1CC[NH2+]CC1 (protonated)
O=c1c2ccccc2nc(/C=C/c2ccccn2)n1CC1CC[NH2+]CC1 (cis-trans isomerization)
O=c1c2ccccc2nc(/C=C/c2ccccn2)n1CC1CC[NH2+]CC1 (3D coordinates assigned)
O=c1c2ccccc2nc(/C=C/c2ccccn2)n1CC1CC[NH2+]CC1 (nonaromatic ring conformer: 62.6427407089206 kcal/mol)

>  <smiles>  (5) 
O=c1c2ccccc2nc(/C=C/c2ccccn2)n1CC1CCNCC1

>  <score_type>  (5) 
oracle

>  <origin>  (5) 
autodockgpu

>  <m_score__min__energy>  (5) 
-7.5

>  <m_primary>  (5) 
energy

>  <meeko>  (5) 
{"free_energy": -7.07, "intermolecular_energy": -8.56, "internal_energy": -1.5, "cluster_size": 2, "cluster_id": 4, "rank_in_cluster": 1}

>  <energy>  (5) 
-7.28

>  <cluster_rmsd>  (5) 
0.53

>  <rmsd>  (5) 
272.74

>  <cluster>  (5) 
2

$$$$
BQTJSOOYCKASGQ-IDUMZPQDNA-O
     RDKit          3D

 49 52  0  0  0  0  0  0  0  0999 V2000
  143.7471   79.8777  222.7442 H   0  0  0  0  0  0  0  0  0  0  0  0
  142.6640   79.8800  222.5520 C   0  0  0  0  0  0  0  0  0  0  0  0
  141.9020   78.9510  223.1460 C   0  0  0  0  0  0  0  0  0  0  0  0
  142.3830   78.1183  223.6800 H   0  0  0  0  0  0  0  0  0  0  0  0
  140.4230   79.0260  223.0960 C   0  0  0  0  0  0  0  0  0  0  0  0
  139.8090   79.8540  223.9820 N   0  0  0  0  0  0  0  0  0  0  0  0
  138.4680   80.0130  224.0080 C   0  0  0  0  0  0  0  0  0  0  0  0
  137.8830   80.8820  224.9390 C   0  0  0  0  0  0  0  0  0  0  0  0
  138.5160   81.4328  225.6503 H   0  0  0  0  0  0  0  0  0  0  0  0
  136.4960   81.0490  224.9640 C   0  0  0  0  0  0  0  0  0  0  0  0
  136.0374   81.7287  225.6972 H   0  0  0  0  0  0  0  0  0  0  0  0
  135.6910   80.3530  224.0580 C   0  0  0  0  0  0  0  0  0  0  0  0
  134.5995   80.4880  224.0784 H   0  0  0  0  0  0  0  0  0  0  0  0
  136.2690   79.4850  223.1250 C   0  0  0  0  0  0  0  0  0  0  0  0
  135.6315   78.9387  222.4143 H   0  0  0  0  0  0  0  0  0  0  0  0
  137.6670   79.3100  223.0950 C   0  0  0  0  0  0  0  0  0  0  0  0
  138.2980   78.4440  222.1850 C   0  0  0  0  0  0  0  0  0  0  0  0
  137.5930   77.7880  221.3670 O   0  0  0  0  0  0  0  0  0  0  0  0
  139.6690   78.3040  222.1900 N   0  0  0  0  0  0  0  0  0  0  0  0
  140.2790   77.3070  221.2760 C   0  0  0  0  0  0  0  0  0  0  0  0
  140.8793   76.6006  221.8681 H   0  0  0  0  0  0  0  0  0  0  0  0
  139.4683   76.7861  220.7455 H   0  0  0  0  0  0  0  0  0  0  0  0
  141.1900   77.9800  220.2240 C   0  0  0  0  0  0  0  0  0  0  0  0
  141.5147   78.9440  220.6427 H   0  0  0  0  0  0  0  0  0  0  0  0
  142.4320   77.1010  219.9450 C   0  0  0  0  0  0  0  0  0  0  0  0
  143.1802   77.2913  220.7285 H   0  0  0  0  0  0  0  0  0  0  0  0
  142.1011   76.0520  219.9424 H   0  0  0  0  0  0  0  0  0  0  0  0
  143.0730   77.3890  218.5710 C   0  0  0  0  0  0  0  0  0  0  0  0
  144.1620   77.2547  218.6495 H   0  0  0  0  0  0  0  0  0  0  0  0
  142.6441   76.6909  217.8371 H   0  0  0  0  0  0  0  0  0  0  0  0
  142.7920   78.7600  218.1220 N   0  0  0  0  0  0  0  0  0  0  0  0
  143.3160   78.9390  217.2330 H   0  0  0  0  0  0  0  0  0  0  0  0
  143.1380   79.4410  218.8380 H   0  0  0  0  0  0  0  0  0  0  0  0
  141.3530   78.9760  217.8750 C   0  0  0  0  0  0  0  0  0  0  0  0
  141.1522   80.0571  217.9055 H   0  0  0  0  0  0  0  0  0  0  0  0
  141.1224   78.5384  216.8925 H   0  0  0  0  0  0  0  0  0  0  0  0
  140.4410   78.2780  218.9120 C   0  0  0  0  0  0  0  0  0  0  0  0
  139.5852   78.9333  219.1316 H   0  0  0  0  0  0  0  0  0  0  0  0
  140.1071   77.3212  218.4842 H   0  0  0  0  0  0  0  0  0  0  0  0
  142.1050   80.9070  221.6490 C   0  0  0  0  0  0  0  0  0  0  0  0
  142.1950   80.7700  220.2940 N   0  0  0  0  0  0  0  0  0  0  0  0
  141.6710   81.6900  219.4410 C   0  0  0  0  0  0  0  0  0  0  0  0
  141.7617   81.5461  218.3542 H   0  0  0  0  0  0  0  0  0  0  0  0
  141.0180   82.8170  219.9430 C   0  0  0  0  0  0  0  0  0  0  0  0
  140.5872   83.5618  219.2576 H   0  0  0  0  0  0  0  0  0  0  0  0
  140.9180   82.9880  221.3250 C   0  0  0  0  0  0  0  0  0  0  0  0
  140.4137   83.8754  221.7351 H   0  0  0  0  0  0  0  0  0  0  0  0
  141.4590   82.0310  222.1860 C   0  0  0  0  0  0  0  0  0  0  0  0
  141.3795   82.1571  223.2758 H   0  0  0  0  0  0  0  0  0  0  0  0
  1  2  1  0
  2  3  2  0
  3  4  1  0
  3  5  1  0
  5  6  2  0
  6  7  1  0
  7  8  2  0
  8  9  1  0
  8 10  1  0
 10 11  1  0
 10 12  2  0
 12 13  1  0
 12 14  1  0
 14 15  1  0
 14 16  2  0
 16 17  1  0
 17 18  2  0
 17 19  1  0
 19 20  1  0
 20 21  1  0
 20 22  1  0
 20 23  1  0
 23 24  1  0
 23 25  1  0
 25 26  1  0
 25 27  1  0
 25 28  1  0
 28 29  1  0
 28 30  1  0
 28 31  1  0
 31 32  1  0
 31 33  1  0
 31 34  1  0
 34 35  1  0
 34 36  1  0
 34 37  1  0
 37 38  1  0
 37 39  1  0
  2 40  1  0
 40 41  2  0
 41 42  1  0
 42 43  1  0
 42 44  2  0
 44 45  1  0
 44 46  1  0
 46 47  1  0
 46 48  2  0
 48 49  1  0
 19  5  1  0
 37 23  1  0
 48 40  1  0
 16  7  1  0
M  CHG  1  31   1
M  END
>  <UniqueID>  (6) 
439

>  <SMILES>  (6) 
O=c1c2ccccc2nc(/C=C/c2ccccn2)n1CC1CC[NH2+]CC1

>  <Energy>  (6) 
62.6427407089206

>  <Genealogy>  (6) 
O=c1c2ccccc2nc(/C=C/c2ccccn2)n1CC1CC[NH2+]CC1 (protonated)
O=c1c2ccccc2nc(/C=C/c2ccccn2)n1CC1CC[NH2+]CC1 (cis-trans isomerization)
O=c1c2ccccc2nc(/C=C/c2ccccn2)n1CC1CC[NH2+]CC1 (3D coordinates assigned)
O=c1c2ccccc2nc(/C=C/c2ccccn2)n1CC1CC[NH2+]CC1 (nonaromatic ring conformer: 62.6427407089206 kcal/mol)

>  <smiles>  (6) 
O=c1c2ccccc2nc(/C=C/c2ccccn2)n1CC1CCNCC1

>  <score_type>  (6) 
oracle

>  <origin>  (6) 
autodockgpu

>  <m_score__min__energy>  (6) 
-7.5

>  <m_primary>  (6) 
energy

>  <meeko>  (6) 
{"free_energy": -6.33, "intermolecular_energy": -7.82, "internal_energy": -2.42, "cluster_size": 11, "cluster_id": 5, "rank_in_cluster": 6}

>  <energy>  (6) 
-7.34

>  <cluster_rmsd>  (6) 
0.0

>  <rmsd>  (6) 
272.74

>  <cluster>  (6) 
3

$$$$
BQTJSOOYCKASGQ-IDUMZPQDNA-O
     RDKit          3D

 49 52  0  0  0  0  0  0  0  0999 V2000
  143.7387   79.7491  222.7485 H   0  0  0  0  0  0  0  0  0  0  0  0
  142.6550   79.7840  222.5630 C   0  0  0  0  0  0  0  0  0  0  0  0
  141.8710   78.8690  223.1500 C   0  0  0  0  0  0  0  0  0  0  0  0
  142.3321   78.0237  223.6819 H   0  0  0  0  0  0  0  0  0  0  0  0
  140.3940   78.9760  223.0950 C   0  0  0  0  0  0  0  0  0  0  0  0
  139.7940   79.8050  223.9910 N   0  0  0  0  0  0  0  0  0  0  0  0
  138.4570   79.9920  224.0140 C   0  0  0  0  0  0  0  0  0  0  0  0
  137.8870   80.8590  224.9550 C   0  0  0  0  0  0  0  0  0  0  0  0
  138.5284   81.3849  225.6775 H   0  0  0  0  0  0  0  0  0  0  0  0
  136.5030   81.0560  224.9760 C   0  0  0  0  0  0  0  0  0  0  0  0
  136.0560   81.7353  225.7168 H   0  0  0  0  0  0  0  0  0  0  0  0
  135.6870   80.3910  224.0570 C   0  0  0  0  0  0  0  0  0  0  0  0
  134.5985   80.5488  224.0751 H   0  0  0  0  0  0  0  0  0  0  0  0
  136.2510   79.5250  223.1140 C   0  0  0  0  0  0  0  0  0  0  0  0
  135.6052   79.0033  222.3923 H   0  0  0  0  0  0  0  0  0  0  0  0
  137.6440   79.3200  223.0870 C   0  0  0  0  0  0  0  0  0  0  0  0
  138.2610   78.4540  222.1670 C   0  0  0  0  0  0  0  0  0  0  0  0
  137.5460   77.8250  221.3360 O   0  0  0  0  0  0  0  0  0  0  0  0
  139.6280   78.2840  222.1750 N   0  0  0  0  0  0  0  0  0  0  0  0
  140.2210   77.2880  221.2500 C   0  0  0  0  0  0  0  0  0  0  0  0
  140.8028   76.5603  221.8348 H   0  0  0  0  0  0  0  0  0  0  0  0
  139.4019   76.7928  220.7079 H   0  0  0  0  0  0  0  0  0  0  0  0
  141.1520   77.9560  220.2120 C   0  0  0  0  0  0  0  0  0  0  0  0
  141.4833   78.9131  220.6411 H   0  0  0  0  0  0  0  0  0  0  0  0
  142.3870   77.0630  219.9410 C   0  0  0  0  0  0  0  0  0  0  0  0
  143.1289   77.2393  220.7338 H   0  0  0  0  0  0  0  0  0  0  0  0
  142.0437   76.0180  219.9283 H   0  0  0  0  0  0  0  0  0  0  0  0
  143.0460   77.3520  218.5760 C   0  0  0  0  0  0  0  0  0  0  0  0
  144.1321   77.2017  218.6644 H   0  0  0  0  0  0  0  0  0  0  0  0
  142.6150   76.6655  217.8324 H   0  0  0  0  0  0  0  0  0  0  0  0
  142.7890   78.7300  218.1350 N   0  0  0  0  0  0  0  0  0  0  0  0
  143.3250   78.9080  217.2520 H   0  0  0  0  0  0  0  0  0  0  0  0
  143.1350   79.4010  218.8590 H   0  0  0  0  0  0  0  0  0  0  0  0
  141.3550   78.9660  217.8730 C   0  0  0  0  0  0  0  0  0  0  0  0
  141.1675   80.0493  217.9088 H   0  0  0  0  0  0  0  0  0  0  0  0
  141.1302   78.5381  216.8849 H   0  0  0  0  0  0  0  0  0  0  0  0
  140.4230   78.2730  218.8940 C   0  0  0  0  0  0  0  0  0  0  0  0
  139.5732   78.9377  219.1084 H   0  0  0  0  0  0  0  0  0  0  0  0
  140.0823   77.3235  218.4555 H   0  0  0  0  0  0  0  0  0  0  0  0
  142.1200   80.8370  221.6770 C   0  0  0  0  0  0  0  0  0  0  0  0
  142.2020   80.7180  220.3200 N   0  0  0  0  0  0  0  0  0  0  0  0
  141.6990   81.6630  219.4820 C   0  0  0  0  0  0  0  0  0  0  0  0
  141.7824   81.5321  218.3930 H   0  0  0  0  0  0  0  0  0  0  0  0
  141.0770   82.7990  220.0020 C   0  0  0  0  0  0  0  0  0  0  0  0
  140.6641   83.5648  219.3289 H   0  0  0  0  0  0  0  0  0  0  0  0
  140.9850   82.9520  221.3870 C   0  0  0  0  0  0  0  0  0  0  0  0
  140.5040   83.8456  221.8115 H   0  0  0  0  0  0  0  0  0  0  0  0
  141.5040   81.9700  222.2320 C   0  0  0  0  0  0  0  0  0  0  0  0
  141.4310   82.0828  223.3238 H   0  0  0  0  0  0  0  0  0  0  0  0
  1  2  1  0
  2  3  2  0
  3  4  1  0
  3  5  1  0
  5  6  2  0
  6  7  1  0
  7  8  2  0
  8  9  1  0
  8 10  1  0
 10 11  1  0
 10 12  2  0
 12 13  1  0
 12 14  1  0
 14 15  1  0
 14 16  2  0
 16 17  1  0
 17 18  2  0
 17 19  1  0
 19 20  1  0
 20 21  1  0
 20 22  1  0
 20 23  1  0
 23 24  1  0
 23 25  1  0
 25 26  1  0
 25 27  1  0
 25 28  1  0
 28 29  1  0
 28 30  1  0
 28 31  1  0
 31 32  1  0
 31 33  1  0
 31 34  1  0
 34 35  1  0
 34 36  1  0
 34 37  1  0
 37 38  1  0
 37 39  1  0
  2 40  1  0
 40 41  2  0
 41 42  1  0
 42 43  1  0
 42 44  2  0
 44 45  1  0
 44 46  1  0
 46 47  1  0
 46 48  2  0
 48 49  1  0
 19  5  1  0
 37 23  1  0
 48 40  1  0
 16  7  1  0
M  CHG  1  31   1
M  END
>  <UniqueID>  (7) 
439

>  <SMILES>  (7) 
O=c1c2ccccc2nc(/C=C/c2ccccn2)n1CC1CC[NH2+]CC1

>  <Energy>  (7) 
62.6427407089206

>  <Genealogy>  (7) 
O=c1c2ccccc2nc(/C=C/c2ccccn2)n1CC1CC[NH2+]CC1 (protonated)
O=c1c2ccccc2nc(/C=C/c2ccccn2)n1CC1CC[NH2+]CC1 (cis-trans isomerization)
O=c1c2ccccc2nc(/C=C/c2ccccn2)n1CC1CC[NH2+]CC1 (3D coordinates assigned)
O=c1c2ccccc2nc(/C=C/c2ccccn2)n1CC1CC[NH2+]CC1 (nonaromatic ring conformer: 62.6427407089206 kcal/mol)

>  <smiles>  (7) 
O=c1c2ccccc2nc(/C=C/c2ccccn2)n1CC1CCNCC1

>  <score_type>  (7) 
oracle

>  <origin>  (7) 
autodockgpu

>  <m_score__min__energy>  (7) 
-7.5

>  <m_primary>  (7) 
energy

>  <meeko>  (7) 
{"free_energy": -6.32, "intermolecular_energy": -7.81, "internal_energy": -2.43, "cluster_size": 11, "cluster_id": 5, "rank_in_cluster": 11}

>  <energy>  (7) 
-7.07

>  <cluster_rmsd>  (7) 
0.0

>  <rmsd>  (7) 
272.26

>  <cluster>  (7) 
4

$$$$
BQTJSOOYCKASGQ-IDUMZPQDNA-O
     RDKit          3D

 49 52  0  0  0  0  0  0  0  0999 V2000
  136.1872   68.1718  221.5594 H   0  0  0  0  0  0  0  0  0  0  0  0
  136.6410   68.3730  222.5410 C   0  0  0  0  0  0  0  0  0  0  0  0
  137.9410   68.0980  222.7190 C   0  0  0  0  0  0  0  0  0  0  0  0
  138.4245   67.3399  222.0853 H   0  0  0  0  0  0  0  0  0  0  0  0
  138.7380   68.7970  223.7540 C   0  0  0  0  0  0  0  0  0  0  0  0
  138.8120   68.2190  224.9820 N   0  0  0  0  0  0  0  0  0  0  0  0
  139.5290   68.7610  225.9900 C   0  0  0  0  0  0  0  0  0  0  0  0
  139.5760   68.1240  227.2380 C   0  0  0  0  0  0  0  0  0  0  0  0
  139.0265   67.1845  227.3973 H   0  0  0  0  0  0  0  0  0  0  0  0
  140.3210   68.6830  228.2790 C   0  0  0  0  0  0  0  0  0  0  0  0
  140.3562   68.1838  229.2586 H   0  0  0  0  0  0  0  0  0  0  0  0
  141.0220   69.8760  228.0780 C   0  0  0  0  0  0  0  0  0  0  0  0
  141.6089   70.3124  228.8996 H   0  0  0  0  0  0  0  0  0  0  0  0
  140.9790   70.5160  226.8350 C   0  0  0  0  0  0  0  0  0  0  0  0
  141.5306   71.4552  226.6812 H   0  0  0  0  0  0  0  0  0  0  0  0
  140.2300   69.9590  225.7800 C   0  0  0  0  0  0  0  0  0  0  0  0
  140.1450   70.5650  224.5140 C   0  0  0  0  0  0  0  0  0  0  0  0
  140.7540   71.6540  224.3090 O   0  0  0  0  0  0  0  0  0  0  0  0
  139.4010   69.9860  223.5100 N   0  0  0  0  0  0  0  0  0  0  0  0
  139.2650   70.7120  222.2230 C   0  0  0  0  0  0  0  0  0  0  0  0
  140.2648   70.8576  221.7881 H   0  0  0  0  0  0  0  0  0  0  0  0
  138.6293   70.1118  221.5554 H   0  0  0  0  0  0  0  0  0  0  0  0
  138.5960   72.0920  222.4150 C   0  0  0  0  0  0  0  0  0  0  0  0
  138.3836   72.2049  223.4884 H   0  0  0  0  0  0  0  0  0  0  0  0
  139.5510   73.2220  221.9630 C   0  0  0  0  0  0  0  0  0  0  0  0
  140.2519   73.4385  222.7827 H   0  0  0  0  0  0  0  0  0  0  0  0
  140.0736   72.8723  221.0604 H   0  0  0  0  0  0  0  0  0  0  0  0
  138.8070   74.5230  221.5940 C   0  0  0  0  0  0  0  0  0  0  0  0
  139.4356   75.3838  221.8657 H   0  0  0  0  0  0  0  0  0  0  0  0
  138.6061   74.5113  220.5126 H   0  0  0  0  0  0  0  0  0  0  0  0
  137.5230   74.6270  222.3010 N   0  0  0  0  0  0  0  0  0  0  0  0
  137.0960   75.5610  222.0900 H   0  0  0  0  0  0  0  0  0  0  0  0
  137.6850   74.5770  223.3340 H   0  0  0  0  0  0  0  0  0  0  0  0
  136.5790   73.5710  221.8880 C   0  0  0  0  0  0  0  0  0  0  0  0
  135.8131   73.4624  222.6701 H   0  0  0  0  0  0  0  0  0  0  0  0
  136.1477   73.8793  220.9242 H   0  0  0  0  0  0  0  0  0  0  0  0
  137.2540   72.1960  221.6680 C   0  0  0  0  0  0  0  0  0  0  0  0
  136.5810   71.4064  222.0334 H   0  0  0  0  0  0  0  0  0  0  0  0
  137.4517   72.0803  220.5921 H   0  0  0  0  0  0  0  0  0  0  0  0
  135.7950   68.9360  223.6130 C   0  0  0  0  0  0  0  0  0  0  0  0
  134.9160   68.1480  224.2960 N   0  0  0  0  0  0  0  0  0  0  0  0
  134.1400   68.6360  225.3000 C   0  0  0  0  0  0  0  0  0  0  0  0
  133.4425   67.9700  225.8291 H   0  0  0  0  0  0  0  0  0  0  0  0
  134.2280   69.9830  225.6600 C   0  0  0  0  0  0  0  0  0  0  0  0
  133.6076   70.3827  226.4757 H   0  0  0  0  0  0  0  0  0  0  0  0
  135.1130   70.8160  224.9720 C   0  0  0  0  0  0  0  0  0  0  0  0
  135.1868   71.8808  225.2379 H   0  0  0  0  0  0  0  0  0  0  0  0
  135.9040   70.2950  223.9460 C   0  0  0  0  0  0  0  0  0  0  0  0
  136.6067   70.9443  223.4033 H   0  0  0  0  0  0  0  0  0  0  0  0
  1  2  1  0
  2  3  2  0
  3  4  1  0
  3  5  1  0
  5  6  2  0
  6  7  1  0
  7  8  2  0
  8  9  1  0
  8 10  1  0
 10 11  1  0
 10 12  2  0
 12 13  1  0
 12 14  1  0
 14 15  1  0
 14 16  2  0
 16 17  1  0
 17 18  2  0
 17 19  1  0
 19 20  1  0
 20 21  1  0
 20 22  1  0
 20 23  1  0
 23 24  1  0
 23 25  1  0
 25 26  1  0
 25 27  1  0
 25 28  1  0
 28 29  1  0
 28 30  1  0
 28 31  1  0
 31 32  1  0
 31 33  1  0
 31 34  1  0
 34 35  1  0
 34 36  1  0
 34 37  1  0
 37 38  1  0
 37 39  1  0
  2 40  1  0
 40 41  2  0
 41 42  1  0
 42 43  1  0
 42 44  2  0
 44 45  1  0
 44 46  1  0
 46 47  1  0
 46 48  2  0
 48 49  1  0
 19  5  1  0
 37 23  1  0
 48 40  1  0
 16  7  1  0
M  CHG  1  31   1
M  END
>  <UniqueID>  (8) 
439

>  <SMILES>  (8) 
O=c1c2ccccc2nc(/C=C/c2ccccn2)n1CC1CC[NH2+]CC1

>  <Energy>  (8) 
62.6427407089206

>  <Genealogy>  (8) 
O=c1c2ccccc2nc(/C=C/c2ccccn2)n1CC1CC[NH2+]CC1 (protonated)
O=c1c2ccccc2nc(/C=C/c2ccccn2)n1CC1CC[NH2+]CC1 (cis-trans isomerization)
O=c1c2ccccc2nc(/C=C/c2ccccn2)n1CC1CC[NH2+]CC1 (3D coordinates assigned)
O=c1c2ccccc2nc(/C=C/c2ccccn2)n1CC1CC[NH2+]CC1 (nonaromatic ring conformer: 62.6427407089206 kcal/mol)

>  <smiles>  (8) 
O=c1c2ccccc2nc(/C=C/c2ccccn2)n1CC1CCNCC1

>  <score_type>  (8) 
oracle

>  <origin>  (8) 
autodockgpu

>  <m_score__min__energy>  (8) 
-7.5

>  <m_primary>  (8) 
energy

>  <meeko>  (8) 
{"free_energy": -7.05, "intermolecular_energy": -8.55, "internal_energy": -1.52, "cluster_size": 2, "cluster_id": 4, "rank_in_cluster": 2}

>  <energy>  (8) 
-7.05

>  <cluster_rmsd>  (8) 
0.2

>  <rmsd>  (8) 
272.17

>  <cluster>  (8) 
4

$$$$
BQTJSOOYCKASGQ-IDUMZPQDNA-O
     RDKit          3D

 49 52  0  0  0  0  0  0  0  0999 V2000
  143.1422   77.5311  217.0831 H   0  0  0  0  0  0  0  0  0  0  0  0
  142.4540   77.5770  217.9400 C   0  0  0  0  0  0  0  0  0  0  0  0
  141.6050   78.6100  218.0300 C   0  0  0  0  0  0  0  0  0  0  0  0
  140.8895   78.7938  217.2150 H   0  0  0  0  0  0  0  0  0  0  0  0
  141.6130   79.5090  219.2080 C   0  0  0  0  0  0  0  0  0  0  0  0
  141.8410   78.9440  220.4230 N   0  0  0  0  0  0  0  0  0  0  0  0
  141.8910   79.6750  221.5580 C   0  0  0  0  0  0  0  0  0  0  0  0
  142.1310   79.0460  222.7870 C   0  0  0  0  0  0  0  0  0  0  0  0
  142.2753   77.9563  222.8282 H   0  0  0  0  0  0  0  0  0  0  0  0
  142.1870   79.8030  223.9600 C   0  0  0  0  0  0  0  0  0  0  0  0
  142.3746   79.3083  224.9244 H   0  0  0  0  0  0  0  0  0  0  0  0
  142.0050   81.1880  223.9100 C   0  0  0  0  0  0  0  0  0  0  0  0
  142.0506   81.7810  224.8353 H   0  0  0  0  0  0  0  0  0  0  0  0
  141.7650   81.8220  222.6860 C   0  0  0  0  0  0  0  0  0  0  0  0
  141.6215   82.9120  222.6504 H   0  0  0  0  0  0  0  0  0  0  0  0
  141.7070   81.0650  221.4990 C   0  0  0  0  0  0  0  0  0  0  0  0
  141.4600   81.6500  220.2450 C   0  0  0  0  0  0  0  0  0  0  0  0
  141.2730   82.8990  220.1710 O   0  0  0  0  0  0  0  0  0  0  0  0
  141.4120   80.8730  219.1080 N   0  0  0  0  0  0  0  0  0  0  0  0
  141.0530   81.5230  217.8230 C   0  0  0  0  0  0  0  0  0  0  0  0
  140.2978   80.9086  217.3110 H   0  0  0  0  0  0  0  0  0  0  0  0
  140.6598   82.5264  218.0433 H   0  0  0  0  0  0  0  0  0  0  0  0
  142.2830   81.6780  216.9000 C   0  0  0  0  0  0  0  0  0  0  0  0
  142.9107   80.7858  217.0415 H   0  0  0  0  0  0  0  0  0  0  0  0
  141.8390   81.7610  215.4200 C   0  0  0  0  0  0  0  0  0  0  0  0
  141.6748   80.7401  215.0449 H   0  0  0  0  0  0  0  0  0  0  0  0
  140.9189   82.3627  215.3843 H   0  0  0  0  0  0  0  0  0  0  0  0
  142.8820   82.4550  214.5190 C   0  0  0  0  0  0  0  0  0  0  0  0
  142.8559   81.9936  213.5208 H   0  0  0  0  0  0  0  0  0  0  0  0
  142.6323   83.5248  214.4618 H   0  0  0  0  0  0  0  0  0  0  0  0
  144.2390   82.3260  215.0700 N   0  0  0  0  0  0  0  0  0  0  0  0
  144.9210   82.7320  214.3860 H   0  0  0  0  0  0  0  0  0  0  0  0
  144.4740   81.3140  215.1920 H   0  0  0  0  0  0  0  0  0  0  0  0
  144.3810   83.0350  216.3570 C   0  0  0  0  0  0  0  0  0  0  0  0
  145.2504   82.6216  216.8892 H   0  0  0  0  0  0  0  0  0  0  0  0
  144.5045   84.1038  216.1279 H   0  0  0  0  0  0  0  0  0  0  0  0
  143.1380   82.9030  217.2700 C   0  0  0  0  0  0  0  0  0  0  0  0
  143.4719   82.8019  218.3132 H   0  0  0  0  0  0  0  0  0  0  0  0
  142.5200   83.8033  217.1375 H   0  0  0  0  0  0  0  0  0  0  0  0
  142.5010   76.4980  218.9470 C   0  0  0  0  0  0  0  0  0  0  0  0
  141.3850   76.1510  219.6530 N   0  0  0  0  0  0  0  0  0  0  0  0
  141.3960   75.1470  220.5710 C   0  0  0  0  0  0  0  0  0  0  0  0
  140.4769   74.8938  221.1197 H   0  0  0  0  0  0  0  0  0  0  0  0
  142.5730   74.4380  220.8170 C   0  0  0  0  0  0  0  0  0  0  0  0
  142.5869   73.6222  221.5547 H   0  0  0  0  0  0  0  0  0  0  0  0
  143.7330   74.7760  220.1160 C   0  0  0  0  0  0  0  0  0  0  0  0
  144.6697   74.2311  220.3049 H   0  0  0  0  0  0  0  0  0  0  0  0
  143.7010   75.8070  219.1750 C   0  0  0  0  0  0  0  0  0  0  0  0
  144.6098   76.0757  218.6164 H   0  0  0  0  0  0  0  0  0  0  0  0
  1  2  1  0
  2  3  2  0
  3  4  1  0
  3  5  1  0
  5  6  2  0
  6  7  1  0
  7  8  2  0
  8  9  1  0
  8 10  1  0
 10 11  1  0
 10 12  2  0
 12 13  1  0
 12 14  1  0
 14 15  1  0
 14 16  2  0
 16 17  1  0
 17 18  2  0
 17 19  1  0
 19 20  1  0
 20 21  1  0
 20 22  1  0
 20 23  1  0
 23 24  1  0
 23 25  1  0
 25 26  1  0
 25 27  1  0
 25 28  1  0
 28 29  1  0
 28 30  1  0
 28 31  1  0
 31 32  1  0
 31 33  1  0
 31 34  1  0
 34 35  1  0
 34 36  1  0
 34 37  1  0
 37 38  1  0
 37 39  1  0
  2 40  1  0
 40 41  2  0
 41 42  1  0
 42 43  1  0
 42 44  2  0
 44 45  1  0
 44 46  1  0
 46 47  1  0
 46 48  2  0
 48 49  1  0
 19  5  1  0
 37 23  1  0
 48 40  1  0
 16  7  1  0
M  CHG  1  31   1
M  END
>  <UniqueID>  (9) 
439

>  <SMILES>  (9) 
O=c1c2ccccc2nc(/C=C/c2ccccn2)n1CC1CC[NH2+]CC1

>  <Energy>  (9) 
62.6427407089206

>  <Genealogy>  (9) 
O=c1c2ccccc2nc(/C=C/c2ccccn2)n1CC1CC[NH2+]CC1 (protonated)
O=c1c2ccccc2nc(/C=C/c2ccccn2)n1CC1CC[NH2+]CC1 (cis-trans isomerization)
O=c1c2ccccc2nc(/C=C/c2ccccn2)n1CC1CC[NH2+]CC1 (3D coordinates assigned)
O=c1c2ccccc2nc(/C=C/c2ccccn2)n1CC1CC[NH2+]CC1 (nonaromatic ring conformer: 62.6427407089206 kcal/mol)

>  <smiles>  (9) 
O=c1c2ccccc2nc(/C=C/c2ccccn2)n1CC1CCNCC1

>  <score_type>  (9) 
oracle

>  <origin>  (9) 
autodockgpu

>  <m_score__min__energy>  (9) 
-7.5

>  <m_primary>  (9) 
energy

>  <meeko>  (9) 
{"free_energy": -7.34, "intermolecular_energy": -8.83, "internal_energy": -1.14, "cluster_size": 1, "cluster_id": 3, "rank_in_cluster": 1}

>  <energy>  (9) 
-6.79

>  <cluster_rmsd>  (9) 
0.0

>  <rmsd>  (9) 
273.54

>  <cluster>  (9) 
5

$$$$
BQTJSOOYCKASGQ-IDUMZPQDNA-O
     RDKit          3D

 49 52  0  0  0  0  0  0  0  0999 V2000
  143.5668   80.5655  222.9592 H   0  0  0  0  0  0  0  0  0  0  0  0
  142.5600   80.5140  222.5190 C   0  0  0  0  0  0  0  0  0  0  0  0
  141.8680   81.6500  222.3590 C   0  0  0  0  0  0  0  0  0  0  0  0
  142.4094   82.6004  222.2426 H   0  0  0  0  0  0  0  0  0  0  0  0
  140.3860   81.6490  222.3360 C   0  0  0  0  0  0  0  0  0  0  0  0
  139.7460   81.1120  223.4090 N   0  0  0  0  0  0  0  0  0  0  0  0
  138.3980   81.0800  223.5000 C   0  0  0  0  0  0  0  0  0  0  0  0
  137.7850   80.5190  224.6280 C   0  0  0  0  0  0  0  0  0  0  0  0
  138.4009   80.1029  225.4389 H   0  0  0  0  0  0  0  0  0  0  0  0
  136.3910   80.4880  224.7230 C   0  0  0  0  0  0  0  0  0  0  0  0
  135.9102   80.0446  225.6075 H   0  0  0  0  0  0  0  0  0  0  0  0
  135.6070   81.0200  223.6950 C   0  0  0  0  0  0  0  0  0  0  0  0
  134.5101   80.9967  223.7740 H   0  0  0  0  0  0  0  0  0  0  0  0
  136.2130   81.5820  222.5660 C   0  0  0  0  0  0  0  0  0  0  0  0
  135.5925   81.9982  221.7586 H   0  0  0  0  0  0  0  0  0  0  0  0
  137.6180   81.6150  222.4630 C   0  0  0  0  0  0  0  0  0  0  0  0
  138.2780   82.1600  221.3470 C   0  0  0  0  0  0  0  0  0  0  0  0
  137.5940   82.6310  220.3940 O   0  0  0  0  0  0  0  0  0  0  0  0
  139.6550   82.1730  221.2870 N   0  0  0  0  0  0  0  0  0  0  0  0
  140.3020   82.6700  220.0480 C   0  0  0  0  0  0  0  0  0  0  0  0
  139.5241   82.8815  219.2996 H   0  0  0  0  0  0  0  0  0  0  0  0
  140.8667   83.5806  220.2971 H   0  0  0  0  0  0  0  0  0  0  0  0
  141.2900   81.6340  219.4650 C   0  0  0  0  0  0  0  0  0  0  0  0
  141.9323   81.2956  220.2914 H   0  0  0  0  0  0  0  0  0  0  0  0
  140.5220   80.4220  218.8870 C   0  0  0  0  0  0  0  0  0  0  0  0
  140.2756   79.7367  219.7114 H   0  0  0  0  0  0  0  0  0  0  0  0
  139.6184   80.8082  218.3927 H   0  0  0  0  0  0  0  0  0  0  0  0
  141.3350   79.6470  217.8280 C   0  0  0  0  0  0  0  0  0  0  0  0
  141.0832   78.5783  217.8954 H   0  0  0  0  0  0  0  0  0  0  0  0
  141.0798   80.0471  216.8356 H   0  0  0  0  0  0  0  0  0  0  0  0
  142.7800   79.8110  218.0340 N   0  0  0  0  0  0  0  0  0  0  0  0
  143.2910   79.2020  217.3510 H   0  0  0  0  0  0  0  0  0  0  0  0
  143.0360   79.4930  218.9970 H   0  0  0  0  0  0  0  0  0  0  0  0
  143.2110   81.2090  217.8330 C   0  0  0  0  0  0  0  0  0  0  0  0
  144.1778   81.3521  218.3377 H   0  0  0  0  0  0  0  0  0  0  0  0
  143.2807   81.3751  216.7478 H   0  0  0  0  0  0  0  0  0  0  0  0
  142.2080   82.2460  218.3910 C   0  0  0  0  0  0  0  0  0  0  0  0
  142.7696   83.0805  218.8362 H   0  0  0  0  0  0  0  0  0  0  0  0
  141.5770   82.5928  217.5594 H   0  0  0  0  0  0  0  0  0  0  0  0
  142.0230   79.1950  222.1270 C   0  0  0  0  0  0  0  0  0  0  0  0
  142.1680   78.7320  220.8520 N   0  0  0  0  0  0  0  0  0  0  0  0
  141.7010   77.5130  220.4710 C   0  0  0  0  0  0  0  0  0  0  0  0
  141.8376   77.1717  219.4343 H   0  0  0  0  0  0  0  0  0  0  0  0
  141.0480   76.6940  221.3950 C   0  0  0  0  0  0  0  0  0  0  0  0
  140.6729   75.7046  221.0942 H   0  0  0  0  0  0  0  0  0  0  0  0
  140.8770   77.1460  222.7050 C   0  0  0  0  0  0  0  0  0  0  0  0
  140.3566   76.5159  223.4414 H   0  0  0  0  0  0  0  0  0  0  0  0
  141.3670   78.3980  223.0790 C   0  0  0  0  0  0  0  0  0  0  0  0
  141.2404   78.7575  224.1109 H   0  0  0  0  0  0  0  0  0  0  0  0
  1  2  1  0
  2  3  2  0
  3  4  1  0
  3  5  1  0
  5  6  2  0
  6  7  1  0
  7  8  2  0
  8  9  1  0
  8 10  1  0
 10 11  1  0
 10 12  2  0
 12 13  1  0
 12 14  1  0
 14 15  1  0
 14 16  2  0
 16 17  1  0
 17 18  2  0
 17 19  1  0
 19 20  1  0
 20 21  1  0
 20 22  1  0
 20 23  1  0
 23 24  1  0
 23 25  1  0
 25 26  1  0
 25 27  1  0
 25 28  1  0
 28 29  1  0
 28 30  1  0
 28 31  1  0
 31 32  1  0
 31 33  1  0
 31 34  1  0
 34 35  1  0
 34 36  1  0
 34 37  1  0
 37 38  1  0
 37 39  1  0
  2 40  1  0
 40 41  2  0
 41 42  1  0
 42 43  1  0
 42 44  2  0
 44 45  1  0
 44 46  1  0
 46 47  1  0
 46 48  2  0
 48 49  1  0
 19  5  1  0
 37 23  1  0
 48 40  1  0
 16  7  1  0
M  CHG  1  31   1
M  END
>  <UniqueID>  (10) 
439

>  <SMILES>  (10) 
O=c1c2ccccc2nc(/C=C/c2ccccn2)n1CC1CC[NH2+]CC1

>  <Energy>  (10) 
62.6427407089206

>  <Genealogy>  (10) 
O=c1c2ccccc2nc(/C=C/c2ccccn2)n1CC1CC[NH2+]CC1 (protonated)
O=c1c2ccccc2nc(/C=C/c2ccccn2)n1CC1CC[NH2+]CC1 (cis-trans isomerization)
O=c1c2ccccc2nc(/C=C/c2ccccn2)n1CC1CC[NH2+]CC1 (3D coordinates assigned)
O=c1c2ccccc2nc(/C=C/c2ccccn2)n1CC1CC[NH2+]CC1 (nonaromatic ring conformer: 62.6427407089206 kcal/mol)

>  <smiles>  (10) 
O=c1c2ccccc2nc(/C=C/c2ccccn2)n1CC1CCNCC1

>  <score_type>  (10) 
oracle

>  <origin>  (10) 
autodockgpu

>  <m_score__min__energy>  (10) 
-7.5

>  <m_primary>  (10) 
energy

>  <meeko>  (10) 
{"free_energy": -5.78, "intermolecular_energy": -7.28, "internal_energy": -2.34, "cluster_size": 1, "cluster_id": 6, "rank_in_cluster": 1}

>  <energy>  (10) 
-6.35

>  <cluster_rmsd>  (10) 
0.51

>  <rmsd>  (10) 
273.5

>  <cluster>  (10) 
5

$$$$
BQTJSOOYCKASGQ-IDUMZPQDNA-O
     RDKit          3D

 49 52  0  0  0  0  0  0  0  0999 V2000
  143.7438   79.7615  222.7175 H   0  0  0  0  0  0  0  0  0  0  0  0
  142.6570   79.8120  222.5550 C   0  0  0  0  0  0  0  0  0  0  0  0
  141.8730   78.9090  223.1590 C   0  0  0  0  0  0  0  0  0  0  0  0
  142.3336   78.0751  223.7090 H   0  0  0  0  0  0  0  0  0  0  0  0
  140.3960   79.0140  223.0990 C   0  0  0  0  0  0  0  0  0  0  0  0
  139.7920   79.8420  223.9930 N   0  0  0  0  0  0  0  0  0  0  0  0
  138.4540   80.0270  224.0120 C   0  0  0  0  0  0  0  0  0  0  0  0
  137.8790   80.8930  224.9510 C   0  0  0  0  0  0  0  0  0  0  0  0
  138.5172   81.4199  225.6756 H   0  0  0  0  0  0  0  0  0  0  0  0
  136.4960   81.0880  224.9680 C   0  0  0  0  0  0  0  0  0  0  0  0
  136.0458   81.7660  225.7080 H   0  0  0  0  0  0  0  0  0  0  0  0
  135.6830   80.4220  224.0450 C   0  0  0  0  0  0  0  0  0  0  0  0
  134.5943   80.5786  224.0596 H   0  0  0  0  0  0  0  0  0  0  0  0
  136.2510   79.5570  223.1030 C   0  0  0  0  0  0  0  0  0  0  0  0
  135.6088   79.0346  222.3787 H   0  0  0  0  0  0  0  0  0  0  0  0
  137.6450   79.3550  223.0820 C   0  0  0  0  0  0  0  0  0  0  0  0
  138.2670   78.4900  222.1630 C   0  0  0  0  0  0  0  0  0  0  0  0
  137.5550   77.8610  221.3290 O   0  0  0  0  0  0  0  0  0  0  0  0
  139.6340   78.3220  222.1760 N   0  0  0  0  0  0  0  0  0  0  0  0
  140.2310   77.3270  221.2520 C   0  0  0  0  0  0  0  0  0  0  0  0
  140.8175   76.6034  221.8372 H   0  0  0  0  0  0  0  0  0  0  0  0
  139.4142   76.8258  220.7120 H   0  0  0  0  0  0  0  0  0  0  0  0
  141.1570   77.9990  220.2120 C   0  0  0  0  0  0  0  0  0  0  0  0
  141.4898   78.9554  220.6417 H   0  0  0  0  0  0  0  0  0  0  0  0
  142.3910   77.1080  219.9330 C   0  0  0  0  0  0  0  0  0  0  0  0
  143.1368   77.2835  220.7223 H   0  0  0  0  0  0  0  0  0  0  0  0
  142.0485   76.0628  219.9201 H   0  0  0  0  0  0  0  0  0  0  0  0
  143.0430   77.4000  218.5650 C   0  0  0  0  0  0  0  0  0  0  0  0
  144.1297   77.2511  218.6480 H   0  0  0  0  0  0  0  0  0  0  0  0
  142.6092   76.7140  217.8226 H   0  0  0  0  0  0  0  0  0  0  0  0
  142.7820   78.7780  218.1270 N   0  0  0  0  0  0  0  0  0  0  0  0
  143.3140   78.9580  217.2420 H   0  0  0  0  0  0  0  0  0  0  0  0
  143.1310   79.4490  218.8510 H   0  0  0  0  0  0  0  0  0  0  0  0
  141.3470   79.0130  217.8730 C   0  0  0  0  0  0  0  0  0  0  0  0
  141.1588   80.0961  217.9120 H   0  0  0  0  0  0  0  0  0  0  0  0
  141.1179   78.5866  216.8852 H   0  0  0  0  0  0  0  0  0  0  0  0
  140.4200   78.3170  218.8970 C   0  0  0  0  0  0  0  0  0  0  0  0
  139.5703   78.9802  219.1164 H   0  0  0  0  0  0  0  0  0  0  0  0
  140.0778   77.3679  218.4587 H   0  0  0  0  0  0  0  0  0  0  0  0
  142.1190   80.8720  221.6800 C   0  0  0  0  0  0  0  0  0  0  0  0
  142.1980   80.7650  220.3220 N   0  0  0  0  0  0  0  0  0  0  0  0
  141.6920   81.7170  219.4930 C   0  0  0  0  0  0  0  0  0  0  0  0
  141.7729   81.5958  218.4027 H   0  0  0  0  0  0  0  0  0  0  0  0
  141.0700   82.8480  220.0250 C   0  0  0  0  0  0  0  0  0  0  0  0
  140.6532   83.6185  219.3597 H   0  0  0  0  0  0  0  0  0  0  0  0
  140.9830   82.9900  221.4120 C   0  0  0  0  0  0  0  0  0  0  0  0
  140.5041   83.8802  221.8457 H   0  0  0  0  0  0  0  0  0  0  0  0
  141.5050   82.0000  222.2470 C   0  0  0  0  0  0  0  0  0  0  0  0
  141.4357   82.1031  223.3400 H   0  0  0  0  0  0  0  0  0  0  0  0
  1  2  1  0
  2  3  2  0
  3  4  1  0
  3  5  1  0
  5  6  2  0
  6  7  1  0
  7  8  2  0
  8  9  1  0
  8 10  1  0
 10 11  1  0
 10 12  2  0
 12 13  1  0
 12 14  1  0
 14 15  1  0
 14 16  2  0
 16 17  1  0
 17 18  2  0
 17 19  1  0
 19 20  1  0
 20 21  1  0
 20 22  1  0
 20 23  1  0
 23 24  1  0
 23 25  1  0
 25 26  1  0
 25 27  1  0
 25 28  1  0
 28 29  1  0
 28 30  1  0
 28 31  1  0
 31 32  1  0
 31 33  1  0
 31 34  1  0
 34 35  1  0
 34 36  1  0
 34 37  1  0
 37 38  1  0
 37 39  1  0
  2 40  1  0
 40 41  2  0
 41 42  1  0
 42 43  1  0
 42 44  2  0
 44 45  1  0
 44 46  1  0
 46 47  1  0
 46 48  2  0
 48 49  1  0
 19  5  1  0
 37 23  1  0
 48 40  1  0
 16  7  1  0
M  CHG  1  31   1
M  END
>  <UniqueID>  (11) 
439

>  <SMILES>  (11) 
O=c1c2ccccc2nc(/C=C/c2ccccn2)n1CC1CC[NH2+]CC1

>  <Energy>  (11) 
62.6427407089206

>  <Genealogy>  (11) 
O=c1c2ccccc2nc(/C=C/c2ccccn2)n1CC1CC[NH2+]CC1 (protonated)
O=c1c2ccccc2nc(/C=C/c2ccccn2)n1CC1CC[NH2+]CC1 (cis-trans isomerization)
O=c1c2ccccc2nc(/C=C/c2ccccn2)n1CC1CC[NH2+]CC1 (3D coordinates assigned)
O=c1c2ccccc2nc(/C=C/c2ccccn2)n1CC1CC[NH2+]CC1 (nonaromatic ring conformer: 62.6427407089206 kcal/mol)

>  <smiles>  (11) 
O=c1c2ccccc2nc(/C=C/c2ccccn2)n1CC1CCNCC1

>  <score_type>  (11) 
oracle

>  <origin>  (11) 
autodockgpu

>  <m_score__min__energy>  (11) 
-7.5

>  <m_primary>  (11) 
energy

>  <meeko>  (11) 
{"free_energy": -6.33, "intermolecular_energy": -7.82, "internal_energy": -2.43, "cluster_size": 11, "cluster_id": 5, "rank_in_cluster": 8}

>  <energy>  (11) 
-6.34

>  <cluster_rmsd>  (11) 
0.59

>  <rmsd>  (11) 
273.49

>  <cluster>  (11) 
5

$$$$
BQTJSOOYCKASGQ-IDUMZPQDNA-O
     RDKit          3D

 49 52  0  0  0  0  0  0  0  0999 V2000
  138.7932   77.5376  223.5869 H   0  0  0  0  0  0  0  0  0  0  0  0
  139.4950   77.8220  222.7890 C   0  0  0  0  0  0  0  0  0  0  0  0
  139.4750   77.1350  221.6380 C   0  0  0  0  0  0  0  0  0  0  0  0
  138.5591   77.1276  221.0288 H   0  0  0  0  0  0  0  0  0  0  0  0
  140.6660   76.3850  221.1720 C   0  0  0  0  0  0  0  0  0  0  0  0
  140.6830   75.0430  221.3910 N   0  0  0  0  0  0  0  0  0  0  0  0
  141.7080   74.2620  220.9880 C   0  0  0  0  0  0  0  0  0  0  0  0
  141.6780   72.8830  221.2340 C   0  0  0  0  0  0  0  0  0  0  0  0
  140.8200   72.4368  221.7582 H   0  0  0  0  0  0  0  0  0  0  0  0
  142.7370   72.0740  220.8140 C   0  0  0  0  0  0  0  0  0  0  0  0
  142.7131   70.9918  221.0098 H   0  0  0  0  0  0  0  0  0  0  0  0
  143.8270   72.6390  220.1450 C   0  0  0  0  0  0  0  0  0  0  0  0
  144.6585   71.9997  219.8135 H   0  0  0  0  0  0  0  0  0  0  0  0
  143.8630   74.0160  219.8960 C   0  0  0  0  0  0  0  0  0  0  0  0
  144.7231   74.4572  219.3710 H   0  0  0  0  0  0  0  0  0  0  0  0
  142.7990   74.8370  220.3170 C   0  0  0  0  0  0  0  0  0  0  0  0
  142.7890   76.2260  220.1010 C   0  0  0  0  0  0  0  0  0  0  0  0
  143.7700   76.7670  219.5150 O   0  0  0  0  0  0  0  0  0  0  0  0
  141.7270   76.9930  220.5290 N   0  0  0  0  0  0  0  0  0  0  0  0
  141.8070   78.4650  220.3630 C   0  0  0  0  0  0  0  0  0  0  0  0
  140.8260   78.9042  220.5969 H   0  0  0  0  0  0  0  0  0  0  0  0
  142.5815   78.8459  221.0450 H   0  0  0  0  0  0  0  0  0  0  0  0
  142.2000   78.8560  218.9200 C   0  0  0  0  0  0  0  0  0  0  0  0
  143.2636   78.6058  218.7930 H   0  0  0  0  0  0  0  0  0  0  0  0
  141.3610   78.0540  217.8970 C   0  0  0  0  0  0  0  0  0  0  0  0
  141.8216   77.0639  217.7642 H   0  0  0  0  0  0  0  0  0  0  0  0
  140.3381   77.9787  218.2946 H   0  0  0  0  0  0  0  0  0  0  0  0
  141.2740   78.7460  216.5200 C   0  0  0  0  0  0  0  0  0  0  0  0
  141.2385   77.9765  215.7348 H   0  0  0  0  0  0  0  0  0  0  0  0
  140.3655   79.3659  216.5018 H   0  0  0  0  0  0  0  0  0  0  0  0
  142.4320   79.6180  216.2820 N   0  0  0  0  0  0  0  0  0  0  0  0
  142.3760   79.9970  215.3060 H   0  0  0  0  0  0  0  0  0  0  0  0
  143.3140   79.0600  216.3570 H   0  0  0  0  0  0  0  0  0  0  0  0
  142.4720   80.7520  217.2270 C   0  0  0  0  0  0  0  0  0  0  0  0
  143.4991   81.1447  217.2575 H   0  0  0  0  0  0  0  0  0  0  0  0
  141.7516   81.5012  216.8668 H   0  0  0  0  0  0  0  0  0  0  0  0
  142.0510   80.3670  218.6650 C   0  0  0  0  0  0  0  0  0  0  0  0
  142.6847   80.9127  219.3795 H   0  0  0  0  0  0  0  0  0  0  0  0
  140.9912   80.6322  218.7932 H   0  0  0  0  0  0  0  0  0  0  0  0
  140.4230   78.9460  223.0270 C   0  0  0  0  0  0  0  0  0  0  0  0
  140.0770   80.2220  222.6900 N   0  0  0  0  0  0  0  0  0  0  0  0
  140.9050   81.2770  222.9170 C   0  0  0  0  0  0  0  0  0  0  0  0
  140.5920   82.2924  222.6325 H   0  0  0  0  0  0  0  0  0  0  0  0
  142.1520   81.0720  223.5110 C   0  0  0  0  0  0  0  0  0  0  0  0
  142.8232   81.9220  223.7034 H   0  0  0  0  0  0  0  0  0  0  0  0
  142.5370   79.7750  223.8580 C   0  0  0  0  0  0  0  0  0  0  0  0
  143.5205   79.5968  224.3174 H   0  0  0  0  0  0  0  0  0  0  0  0
  141.6720   78.7050  223.6210 C   0  0  0  0  0  0  0  0  0  0  0  0
  141.9666   77.6819  223.8974 H   0  0  0  0  0  0  0  0  0  0  0  0
  1  2  1  0
  2  3  2  0
  3  4  1  0
  3  5  1  0
  5  6  2  0
  6  7  1  0
  7  8  2  0
  8  9  1  0
  8 10  1  0
 10 11  1  0
 10 12  2  0
 12 13  1  0
 12 14  1  0
 14 15  1  0
 14 16  2  0
 16 17  1  0
 17 18  2  0
 17 19  1  0
 19 20  1  0
 20 21  1  0
 20 22  1  0
 20 23  1  0
 23 24  1  0
 23 25  1  0
 25 26  1  0
 25 27  1  0
 25 28  1  0
 28 29  1  0
 28 30  1  0
 28 31  1  0
 31 32  1  0
 31 33  1  0
 31 34  1  0
 34 35  1  0
 34 36  1  0
 34 37  1  0
 37 38  1  0
 37 39  1  0
  2 40  1  0
 40 41  2  0
 41 42  1  0
 42 43  1  0
 42 44  2  0
 44 45  1  0
 44 46  1  0
 46 47  1  0
 46 48  2  0
 48 49  1  0
 19  5  1  0
 37 23  1  0
 48 40  1  0
 16  7  1  0
M  CHG  1  31   1
M  END
>  <UniqueID>  (12) 
439

>  <SMILES>  (12) 
O=c1c2ccccc2nc(/C=C/c2ccccn2)n1CC1CC[NH2+]CC1

>  <Energy>  (12) 
62.6427407089206

>  <Genealogy>  (12) 
O=c1c2ccccc2nc(/C=C/c2ccccn2)n1CC1CC[NH2+]CC1 (protonated)
O=c1c2ccccc2nc(/C=C/c2ccccn2)n1CC1CC[NH2+]CC1 (cis-trans isomerization)
O=c1c2ccccc2nc(/C=C/c2ccccn2)n1CC1CC[NH2+]CC1 (3D coordinates assigned)
O=c1c2ccccc2nc(/C=C/c2ccccn2)n1CC1CC[NH2+]CC1 (nonaromatic ring conformer: 62.6427407089206 kcal/mol)

>  <smiles>  (12) 
O=c1c2ccccc2nc(/C=C/c2ccccn2)n1CC1CCNCC1

>  <score_type>  (12) 
oracle

>  <origin>  (12) 
autodockgpu

>  <m_score__min__energy>  (12) 
-7.5

>  <m_primary>  (12) 
energy

>  <meeko>  (12) 
{"free_energy": -7.38, "intermolecular_energy": -8.87, "internal_energy": -1.19, "cluster_size": 4, "cluster_id": 2, "rank_in_cluster": 2}

>  <energy>  (12) 
-6.34

>  <cluster_rmsd>  (12) 
0.6

>  <rmsd>  (12) 
273.5

>  <cluster>  (12) 
5

$$$$
BQTJSOOYCKASGQ-IDUMZPQDNA-O
     RDKit          3D

 49 52  0  0  0  0  0  0  0  0999 V2000
  143.9319   80.2975  222.8834 H   0  0  0  0  0  0  0  0  0  0  0  0
  142.8630   80.1400  222.6770 C   0  0  0  0  0  0  0  0  0  0  0  0
  142.2480   79.0840  223.2290 C   0  0  0  0  0  0  0  0  0  0  0  0
  142.8437   78.3330  223.7685 H   0  0  0  0  0  0  0  0  0  0  0  0
  140.7800   78.9110  223.1250 C   0  0  0  0  0  0  0  0  0  0  0  0
  139.9990   79.7510  223.8540 N   0  0  0  0  0  0  0  0  0  0  0  0
  138.6500   79.6930  223.8160 C   0  0  0  0  0  0  0  0  0  0  0  0
  137.8890   80.5840  224.5850 C   0  0  0  0  0  0  0  0  0  0  0  0
  138.3900   81.3285  225.2212 H   0  0  0  0  0  0  0  0  0  0  0  0
  136.4930   80.5260  224.5430 C   0  0  0  0  0  0  0  0  0  0  0  0
  135.8958   81.2233  225.1489 H   0  0  0  0  0  0  0  0  0  0  0  0
  135.8550   79.5830  223.7320 C   0  0  0  0  0  0  0  0  0  0  0  0
  134.7563   79.5415  223.6992 H   0  0  0  0  0  0  0  0  0  0  0  0
  136.6100   78.6920  222.9620 C   0  0  0  0  0  0  0  0  0  0  0  0
  136.1042   77.9506  222.3260 H   0  0  0  0  0  0  0  0  0  0  0  0
  138.0170   78.7430  223.0000 C   0  0  0  0  0  0  0  0  0  0  0  0
  138.8230   77.8650  222.2540 C   0  0  0  0  0  0  0  0  0  0  0  0
  138.2730   76.9890  221.5260 O   0  0  0  0  0  0  0  0  0  0  0  0
  140.1970   77.9500  222.3200 N   0  0  0  0  0  0  0  0  0  0  0  0
  141.0020   76.9410  221.5890 C   0  0  0  0  0  0  0  0  0  0  0  0
  141.7150   76.4792  222.2878 H   0  0  0  0  0  0  0  0  0  0  0  0
  140.3149   76.1892  221.1734 H   0  0  0  0  0  0  0  0  0  0  0  0
  141.7870   77.5760  220.4190 C   0  0  0  0  0  0  0  0  0  0  0  0
  142.4388   78.3517  220.8472 H   0  0  0  0  0  0  0  0  0  0  0  0
  142.6590   76.5100  219.7130 C   0  0  0  0  0  0  0  0  0  0  0  0
  143.5914   76.3850  220.2830 H   0  0  0  0  0  0  0  0  0  0  0  0
  142.0762   75.5779  219.6745 H   0  0  0  0  0  0  0  0  0  0  0  0
  143.0160   76.8950  218.2620 C   0  0  0  0  0  0  0  0  0  0  0  0
  144.0194   76.5104  218.0269 H   0  0  0  0  0  0  0  0  0  0  0  0
  142.2612   76.4559  217.5931 H   0  0  0  0  0  0  0  0  0  0  0  0
  143.0070   78.3520  218.0730 N   0  0  0  0  0  0  0  0  0  0  0  0
  143.3380   78.5700  217.1030 H   0  0  0  0  0  0  0  0  0  0  0  0
  143.6730   78.7980  218.7450 H   0  0  0  0  0  0  0  0  0  0  0  0
  141.6560   78.9230  218.2500 C   0  0  0  0  0  0  0  0  0  0  0  0
  141.7563   79.9976  218.4624 H   0  0  0  0  0  0  0  0  0  0  0  0
  141.0984   78.7341  217.3208 H   0  0  0  0  0  0  0  0  0  0  0  0
  140.8600   78.2670  219.4030 C   0  0  0  0  0  0  0  0  0  0  0  0
  140.2798   79.0442  219.9220 H   0  0  0  0  0  0  0  0  0  0  0  0
  140.1988   77.5023  218.9693 H   0  0  0  0  0  0  0  0  0  0  0  0
  142.1590   81.1000  221.8020 C   0  0  0  0  0  0  0  0  0  0  0  0
  142.1590   80.9390  220.4460 N   0  0  0  0  0  0  0  0  0  0  0  0
  141.5020   81.7970  219.6200 C   0  0  0  0  0  0  0  0  0  0  0  0
  141.5225   81.6361  218.5320 H   0  0  0  0  0  0  0  0  0  0  0  0
  140.8020   82.8810  220.1510 C   0  0  0  0  0  0  0  0  0  0  0  0
  140.2640   83.5743  219.4878 H   0  0  0  0  0  0  0  0  0  0  0  0
  140.7920   83.0760  221.5340 C   0  0  0  0  0  0  0  0  0  0  0  0
  140.2519   83.9313  221.9661 H   0  0  0  0  0  0  0  0  0  0  0  0
  141.4690   82.1830  222.3670 C   0  0  0  0  0  0  0  0  0  0  0  0
  141.4614   82.3275  223.4574 H   0  0  0  0  0  0  0  0  0  0  0  0
  1  2  1  0
  2  3  2  0
  3  4  1  0
  3  5  1  0
  5  6  2  0
  6  7  1  0
  7  8  2  0
  8  9  1  0
  8 10  1  0
 10 11  1  0
 10 12  2  0
 12 13  1  0
 12 14  1  0
 14 15  1  0
 14 16  2  0
 16 17  1  0
 17 18  2  0
 17 19  1  0
 19 20  1  0
 20 21  1  0
 20 22  1  0
 20 23  1  0
 23 24  1  0
 23 25  1  0
 25 26  1  0
 25 27  1  0
 25 28  1  0
 28 29  1  0
 28 30  1  0
 28 31  1  0
 31 32  1  0
 31 33  1  0
 31 34  1  0
 34 35  1  0
 34 36  1  0
 34 37  1  0
 37 38  1  0
 37 39  1  0
  2 40  1  0
 40 41  2  0
 41 42  1  0
 42 43  1  0
 42 44  2  0
 44 45  1  0
 44 46  1  0
 46 47  1  0
 46 48  2  0
 48 49  1  0
 19  5  1  0
 37 23  1  0
 48 40  1  0
 16  7  1  0
M  CHG  1  31   1
M  END
>  <UniqueID>  (13) 
439

>  <SMILES>  (13) 
O=c1c2ccccc2nc(/C=C/c2ccccn2)n1CC1CC[NH2+]CC1

>  <Energy>  (13) 
62.6427407089206

>  <Genealogy>  (13) 
O=c1c2ccccc2nc(/C=C/c2ccccn2)n1CC1CC[NH2+]CC1 (protonated)
O=c1c2ccccc2nc(/C=C/c2ccccn2)n1CC1CC[NH2+]CC1 (cis-trans isomerization)
O=c1c2ccccc2nc(/C=C/c2ccccn2)n1CC1CC[NH2+]CC1 (3D coordinates assigned)
O=c1c2ccccc2nc(/C=C/c2ccccn2)n1CC1CC[NH2+]CC1 (nonaromatic ring conformer: 62.6427407089206 kcal/mol)

>  <smiles>  (13) 
O=c1c2ccccc2nc(/C=C/c2ccccn2)n1CC1CCNCC1

>  <score_type>  (13) 
oracle

>  <origin>  (13) 
autodockgpu

>  <m_score__min__energy>  (13) 
-7.5

>  <m_primary>  (13) 
energy

>  <meeko>  (13) 
{"free_energy": -6.79, "intermolecular_energy": -8.28, "internal_energy": -1.82, "cluster_size": 11, "cluster_id": 5, "rank_in_cluster": 1}

>  <energy>  (13) 
-6.33

>  <cluster_rmsd>  (13) 
0.6

>  <rmsd>  (13) 
273.51

>  <cluster>  (13) 
5

$$$$
BQTJSOOYCKASGQ-IDUMZPQDNA-O
     RDKit          3D

 49 52  0  0  0  0  0  0  0  0999 V2000
  138.7909   77.5579  223.5558 H   0  0  0  0  0  0  0  0  0  0  0  0
  139.5010   77.8300  222.7610 C   0  0  0  0  0  0  0  0  0  0  0  0
  139.4860   77.1320  221.6180 C   0  0  0  0  0  0  0  0  0  0  0  0
  138.5696   77.1107  221.0100 H   0  0  0  0  0  0  0  0  0  0  0  0
  140.6820   76.3880  221.1580 C   0  0  0  0  0  0  0  0  0  0  0  0
  140.7050   75.0460  221.3770 N   0  0  0  0  0  0  0  0  0  0  0  0
  141.7360   74.2700  220.9800 C   0  0  0  0  0  0  0  0  0  0  0  0
  141.7110   72.8910  221.2270 C   0  0  0  0  0  0  0  0  0  0  0  0
  140.8527   72.4409  221.7474 H   0  0  0  0  0  0  0  0  0  0  0  0
  142.7770   72.0870  220.8120 C   0  0  0  0  0  0  0  0  0  0  0  0
  142.7578   71.0048  221.0082 H   0  0  0  0  0  0  0  0  0  0  0  0
  143.8670   72.6570  220.1480 C   0  0  0  0  0  0  0  0  0  0  0  0
  144.7035   72.0218  219.8212 H   0  0  0  0  0  0  0  0  0  0  0  0
  143.8970   74.0330  219.8980 C   0  0  0  0  0  0  0  0  0  0  0  0
  144.7570   74.4778  219.3760 H   0  0  0  0  0  0  0  0  0  0  0  0
  142.8270   74.8500  220.3140 C   0  0  0  0  0  0  0  0  0  0  0  0
  142.8110   76.2390  220.0960 C   0  0  0  0  0  0  0  0  0  0  0  0
  143.7930   76.7840  219.5150 O   0  0  0  0  0  0  0  0  0  0  0  0
  141.7440   77.0010  220.5190 N   0  0  0  0  0  0  0  0  0  0  0  0
  141.8170   78.4730  220.3520 C   0  0  0  0  0  0  0  0  0  0  0  0
  140.8339   78.9078  220.5856 H   0  0  0  0  0  0  0  0  0  0  0  0
  142.5895   78.8583  221.0338 H   0  0  0  0  0  0  0  0  0  0  0  0
  142.2080   78.8640  218.9090 C   0  0  0  0  0  0  0  0  0  0  0  0
  143.2693   78.6062  218.7783 H   0  0  0  0  0  0  0  0  0  0  0  0
  141.3610   78.0700  217.8860 C   0  0  0  0  0  0  0  0  0  0  0  0
  141.8151   77.0775  217.7491 H   0  0  0  0  0  0  0  0  0  0  0  0
  140.3389   78.0002  218.2864 H   0  0  0  0  0  0  0  0  0  0  0  0
  141.2740   78.7660  216.5110 C   0  0  0  0  0  0  0  0  0  0  0  0
  141.2317   77.9987  215.7239 H   0  0  0  0  0  0  0  0  0  0  0  0
  140.3690   79.3912  216.4969 H   0  0  0  0  0  0  0  0  0  0  0  0
  142.4370   79.6320  216.2720 N   0  0  0  0  0  0  0  0  0  0  0  0
  142.3810   80.0130  215.2980 H   0  0  0  0  0  0  0  0  0  0  0  0
  143.3160   79.0680  216.3430 H   0  0  0  0  0  0  0  0  0  0  0  0
  142.4880   80.7630  217.2200 C   0  0  0  0  0  0  0  0  0  0  0  0
  143.5179   81.1484  217.2483 H   0  0  0  0  0  0  0  0  0  0  0  0
  141.7717   81.5182  216.8642 H   0  0  0  0  0  0  0  0  0  0  0  0
  142.0690   80.3770  218.6580 C   0  0  0  0  0  0  0  0  0  0  0  0
  142.7089   80.9164  219.3719 H   0  0  0  0  0  0  0  0  0  0  0  0
  141.0114   80.6491  218.7900 H   0  0  0  0  0  0  0  0  0  0  0  0
  140.4340   78.9510  222.9960 C   0  0  0  0  0  0  0  0  0  0  0  0
  140.0990   80.2250  222.6380 N   0  0  0  0  0  0  0  0  0  0  0  0
  140.9310   81.2770  222.8610 C   0  0  0  0  0  0  0  0  0  0  0  0
  140.6273   82.2906  222.5602 H   0  0  0  0  0  0  0  0  0  0  0  0
  142.1700   81.0730  223.4710 C   0  0  0  0  0  0  0  0  0  0  0  0
  142.8444   81.9214  223.6589 H   0  0  0  0  0  0  0  0  0  0  0  0
  142.5430   79.7780  223.8400 C   0  0  0  0  0  0  0  0  0  0  0  0
  143.5198   79.6000  224.3134 H   0  0  0  0  0  0  0  0  0  0  0  0
  141.6740   78.7100  223.6070 C   0  0  0  0  0  0  0  0  0  0  0  0
  141.9590   77.6887  223.8999 H   0  0  0  0  0  0  0  0  0  0  0  0
  1  2  1  0
  2  3  2  0
  3  4  1  0
  3  5  1  0
  5  6  2  0
  6  7  1  0
  7  8  2  0
  8  9  1  0
  8 10  1  0
 10 11  1  0
 10 12  2  0
 12 13  1  0
 12 14  1  0
 14 15  1  0
 14 16  2  0
 16 17  1  0
 17 18  2  0
 17 19  1  0
 19 20  1  0
 20 21  1  0
 20 22  1  0
 20 23  1  0
 23 24  1  0
 23 25  1  0
 25 26  1  0
 25 27  1  0
 25 28  1  0
 28 29  1  0
 28 30  1  0
 28 31  1  0
 31 32  1  0
 31 33  1  0
 31 34  1  0
 34 35  1  0
 34 36  1  0
 34 37  1  0
 37 38  1  0
 37 39  1  0
  2 40  1  0
 40 41  2  0
 41 42  1  0
 42 43  1  0
 42 44  2  0
 44 45  1  0
 44 46  1  0
 46 47  1  0
 46 48  2  0
 48 49  1  0
 19  5  1  0
 37 23  1  0
 48 40  1  0
 16  7  1  0
M  CHG  1  31   1
M  END
>  <UniqueID>  (14) 
439

>  <SMILES>  (14) 
O=c1c2ccccc2nc(/C=C/c2ccccn2)n1CC1CC[NH2+]CC1

>  <Energy>  (14) 
62.6427407089206

>  <Genealogy>  (14) 
O=c1c2ccccc2nc(/C=C/c2ccccn2)n1CC1CC[NH2+]CC1 (protonated)
O=c1c2ccccc2nc(/C=C/c2ccccn2)n1CC1CC[NH2+]CC1 (cis-trans isomerization)
O=c1c2ccccc2nc(/C=C/c2ccccn2)n1CC1CC[NH2+]CC1 (3D coordinates assigned)
O=c1c2ccccc2nc(/C=C/c2ccccn2)n1CC1CC[NH2+]CC1 (nonaromatic ring conformer: 62.6427407089206 kcal/mol)

>  <smiles>  (14) 
O=c1c2ccccc2nc(/C=C/c2ccccn2)n1CC1CCNCC1

>  <score_type>  (14) 
oracle

>  <origin>  (14) 
autodockgpu

>  <m_score__min__energy>  (14) 
-7.5

>  <m_primary>  (14) 
energy

>  <meeko>  (14) 
{"free_energy": -7.39, "intermolecular_energy": -8.88, "internal_energy": -1.19, "cluster_size": 4, "cluster_id": 2, "rank_in_cluster": 1}

>  <energy>  (14) 
-6.33

>  <cluster_rmsd>  (14) 
0.58

>  <rmsd>  (14) 
273.48

>  <cluster>  (14) 
5

$$$$
BQTJSOOYCKASGQ-IDUMZPQDNA-O
     RDKit          3D

 49 52  0  0  0  0  0  0  0  0999 V2000
  143.7688   79.8140  222.7584 H   0  0  0  0  0  0  0  0  0  0  0  0
  142.6830   79.8450  222.5850 C   0  0  0  0  0  0  0  0  0  0  0  0
  141.9080   78.9310  223.1860 C   0  0  0  0  0  0  0  0  0  0  0  0
  142.3772   78.1030  223.7376 H   0  0  0  0  0  0  0  0  0  0  0  0
  140.4290   79.0170  223.1200 C   0  0  0  0  0  0  0  0  0  0  0  0
  139.8130   79.8470  224.0040 N   0  0  0  0  0  0  0  0  0  0  0  0
  138.4730   80.0160  224.0160 C   0  0  0  0  0  0  0  0  0  0  0  0
  137.8850   80.8850  224.9450 C   0  0  0  0  0  0  0  0  0  0  0  0
  138.5144   81.4269  225.6662 H   0  0  0  0  0  0  0  0  0  0  0  0
  136.4990   81.0630  224.9550 C   0  0  0  0  0  0  0  0  0  0  0  0
  136.0379   81.7440  225.6855 H   0  0  0  0  0  0  0  0  0  0  0  0
  135.6970   80.3760  224.0370 C   0  0  0  0  0  0  0  0  0  0  0  0
  134.6064   80.5188  224.0466 H   0  0  0  0  0  0  0  0  0  0  0  0
  136.2790   79.5080  223.1070 C   0  0  0  0  0  0  0  0  0  0  0  0
  135.6456   78.9695  222.3867 H   0  0  0  0  0  0  0  0  0  0  0  0
  137.6750   79.3230  223.0920 C   0  0  0  0  0  0  0  0  0  0  0  0
  138.3100   78.4560  222.1850 C   0  0  0  0  0  0  0  0  0  0  0  0
  137.6090   77.8080  221.3560 O   0  0  0  0  0  0  0  0  0  0  0  0
  139.6790   78.3050  222.2030 N   0  0  0  0  0  0  0  0  0  0  0  0
  140.2920   77.3070  221.2920 C   0  0  0  0  0  0  0  0  0  0  0  0
  140.8929   76.6030  221.8864 H   0  0  0  0  0  0  0  0  0  0  0  0
  139.4831   76.7831  220.7616 H   0  0  0  0  0  0  0  0  0  0  0  0
  141.2030   77.9800  220.2400 C   0  0  0  0  0  0  0  0  0  0  0  0
  141.5319   78.9414  220.6614 H   0  0  0  0  0  0  0  0  0  0  0  0
  142.4410   77.0960  219.9550 C   0  0  0  0  0  0  0  0  0  0  0  0
  143.1923   77.2810  220.7368 H   0  0  0  0  0  0  0  0  0  0  0  0
  142.1057   76.0484  219.9507 H   0  0  0  0  0  0  0  0  0  0  0  0
  143.0790   77.3850  218.5800 C   0  0  0  0  0  0  0  0  0  0  0  0
  144.1674   77.2445  218.6543 H   0  0  0  0  0  0  0  0  0  0  0  0
  142.6440   76.6917  217.8450 H   0  0  0  0  0  0  0  0  0  0  0  0
  142.8040   78.7590  218.1370 N   0  0  0  0  0  0  0  0  0  0  0  0
  143.3270   78.9380  217.2460 H   0  0  0  0  0  0  0  0  0  0  0  0
  143.1540   79.4360  218.8540 H   0  0  0  0  0  0  0  0  0  0  0  0
  141.3650   78.9820  217.8940 C   0  0  0  0  0  0  0  0  0  0  0  0
  141.1691   80.0639  217.9279 H   0  0  0  0  0  0  0  0  0  0  0  0
  141.1303   78.5479  216.9109 H   0  0  0  0  0  0  0  0  0  0  0  0
  140.4530   78.2860  218.9300 C   0  0  0  0  0  0  0  0  0  0  0  0
  139.6009   78.9448  219.1534 H   0  0  0  0  0  0  0  0  0  0  0  0
  140.1139   77.3320  218.4999 H   0  0  0  0  0  0  0  0  0  0  0  0
  142.1350   80.8920  221.6990 C   0  0  0  0  0  0  0  0  0  0  0  0
  142.2070   80.7670  220.3420 N   0  0  0  0  0  0  0  0  0  0  0  0
  141.6930   81.7070  219.5040 C   0  0  0  0  0  0  0  0  0  0  0  0
  141.7697   81.5731  218.4149 H   0  0  0  0  0  0  0  0  0  0  0  0
  141.0680   82.8420  220.0250 C   0  0  0  0  0  0  0  0  0  0  0  0
  140.6446   83.6024  219.3523 H   0  0  0  0  0  0  0  0  0  0  0  0
  140.9870   83.0000  221.4100 C   0  0  0  0  0  0  0  0  0  0  0  0
  140.5055   83.8930  221.8351 H   0  0  0  0  0  0  0  0  0  0  0  0
  141.5180   82.0230  222.2550 C   0  0  0  0  0  0  0  0  0  0  0  0
  141.4531   82.1391  223.3469 H   0  0  0  0  0  0  0  0  0  0  0  0
  1  2  1  0
  2  3  2  0
  3  4  1  0
  3  5  1  0
  5  6  2  0
  6  7  1  0
  7  8  2  0
  8  9  1  0
  8 10  1  0
 10 11  1  0
 10 12  2  0
 12 13  1  0
 12 14  1  0
 14 15  1  0
 14 16  2  0
 16 17  1  0
 17 18  2  0
 17 19  1  0
 19 20  1  0
 20 21  1  0
 20 22  1  0
 20 23  1  0
 23 24  1  0
 23 25  1  0
 25 26  1  0
 25 27  1  0
 25 28  1  0
 28 29  1  0
 28 30  1  0
 28 31  1  0
 31 32  1  0
 31 33  1  0
 31 34  1  0
 34 35  1  0
 34 36  1  0
 34 37  1  0
 37 38  1  0
 37 39  1  0
  2 40  1  0
 40 41  2  0
 41 42  1  0
 42 43  1  0
 42 44  2  0
 44 45  1  0
 44 46  1  0
 46 47  1  0
 46 48  2  0
 48 49  1  0
 19  5  1  0
 37 23  1  0
 48 40  1  0
 16  7  1  0
M  CHG  1  31   1
M  END
>  <UniqueID>  (15) 
439

>  <SMILES>  (15) 
O=c1c2ccccc2nc(/C=C/c2ccccn2)n1CC1CC[NH2+]CC1

>  <Energy>  (15) 
62.6427407089206

>  <Genealogy>  (15) 
O=c1c2ccccc2nc(/C=C/c2ccccn2)n1CC1CC[NH2+]CC1 (protonated)
O=c1c2ccccc2nc(/C=C/c2ccccn2)n1CC1CC[NH2+]CC1 (cis-trans isomerization)
O=c1c2ccccc2nc(/C=C/c2ccccn2)n1CC1CC[NH2+]CC1 (3D coordinates assigned)
O=c1c2ccccc2nc(/C=C/c2ccccn2)n1CC1CC[NH2+]CC1 (nonaromatic ring conformer: 62.6427407089206 kcal/mol)

>  <smiles>  (15) 
O=c1c2ccccc2nc(/C=C/c2ccccn2)n1CC1CCNCC1

>  <score_type>  (15) 
oracle

>  <origin>  (15) 
autodockgpu

>  <m_score__min__energy>  (15) 
-7.5

>  <m_primary>  (15) 
energy

>  <meeko>  (15) 
{"free_energy": -6.33, "intermolecular_energy": -7.82, "internal_energy": -2.42, "cluster_size": 11, "cluster_id": 5, "rank_in_cluster": 7}

>  <energy>  (15) 
-6.33

>  <cluster_rmsd>  (15) 
0.58

>  <rmsd>  (15) 
273.51

>  <cluster>  (15) 
5

$$$$
BQTJSOOYCKASGQ-IDUMZPQDNA-O
     RDKit          3D

 49 52  0  0  0  0  0  0  0  0999 V2000
  143.7503   79.7694  222.7718 H   0  0  0  0  0  0  0  0  0  0  0  0
  142.6650   79.8120  222.5980 C   0  0  0  0  0  0  0  0  0  0  0  0
  141.8810   78.9010  223.1910 C   0  0  0  0  0  0  0  0  0  0  0  0
  142.3422   78.0640  223.7357 H   0  0  0  0  0  0  0  0  0  0  0  0
  140.4040   79.0010  223.1260 C   0  0  0  0  0  0  0  0  0  0  0  0
  139.7940   79.8270  224.0170 N   0  0  0  0  0  0  0  0  0  0  0  0
  138.4550   80.0080  224.0300 C   0  0  0  0  0  0  0  0  0  0  0  0
  137.8740   80.8720  224.9670 C   0  0  0  0  0  0  0  0  0  0  0  0
  138.5075   81.4010  225.6942 H   0  0  0  0  0  0  0  0  0  0  0  0
  136.4890   81.0620  224.9780 C   0  0  0  0  0  0  0  0  0  0  0  0
  136.0329   81.7389  225.7154 H   0  0  0  0  0  0  0  0  0  0  0  0
  135.6830   80.3920  224.0520 C   0  0  0  0  0  0  0  0  0  0  0  0
  134.5937   80.5449  224.0613 H   0  0  0  0  0  0  0  0  0  0  0  0
  136.2580   79.5280  223.1140 C   0  0  0  0  0  0  0  0  0  0  0  0
  135.6204   79.0019  222.3882 H   0  0  0  0  0  0  0  0  0  0  0  0
  137.6530   79.3310  223.0980 C   0  0  0  0  0  0  0  0  0  0  0  0
  138.2800   78.4680  222.1830 C   0  0  0  0  0  0  0  0  0  0  0  0
  137.5740   77.8340  221.3470 O   0  0  0  0  0  0  0  0  0  0  0  0
  139.6480   78.3040  222.2010 N   0  0  0  0  0  0  0  0  0  0  0  0
  140.2530   77.3110  221.2800 C   0  0  0  0  0  0  0  0  0  0  0  0
  140.8426   76.5922  221.8680 H   0  0  0  0  0  0  0  0  0  0  0  0
  139.4399   76.8046  220.7393 H   0  0  0  0  0  0  0  0  0  0  0  0
  141.1770   77.9850  220.2400 C   0  0  0  0  0  0  0  0  0  0  0  0
  141.5041   78.9439  220.6684 H   0  0  0  0  0  0  0  0  0  0  0  0
  142.4160   77.0990  219.9650 C   0  0  0  0  0  0  0  0  0  0  0  0
  143.1590   77.2787  220.7560 H   0  0  0  0  0  0  0  0  0  0  0  0
  142.0780   76.0523  219.9523 H   0  0  0  0  0  0  0  0  0  0  0  0
  143.0700   77.3920  218.5990 C   0  0  0  0  0  0  0  0  0  0  0  0
  144.1573   77.2490  218.6853 H   0  0  0  0  0  0  0  0  0  0  0  0
  142.6419   76.7025  217.8565 H   0  0  0  0  0  0  0  0  0  0  0  0
  142.8030   78.7680  218.1580 N   0  0  0  0  0  0  0  0  0  0  0  0
  143.3350   78.9500  217.2740 H   0  0  0  0  0  0  0  0  0  0  0  0
  143.1470   79.4420  218.8810 H   0  0  0  0  0  0  0  0  0  0  0  0
  141.3670   78.9960  217.9000 C   0  0  0  0  0  0  0  0  0  0  0  0
  141.1736   80.0783  217.9360 H   0  0  0  0  0  0  0  0  0  0  0  0
  141.1417   78.5667  216.9126 H   0  0  0  0  0  0  0  0  0  0  0  0
  140.4420   78.2980  218.9240 C   0  0  0  0  0  0  0  0  0  0  0  0
  139.5893   78.9581  219.1410 H   0  0  0  0  0  0  0  0  0  0  0  0
  140.1051   77.3466  218.4866 H   0  0  0  0  0  0  0  0  0  0  0  0
  142.1270   80.8710  221.7200 C   0  0  0  0  0  0  0  0  0  0  0  0
  142.2020   80.7580  220.3620 N   0  0  0  0  0  0  0  0  0  0  0  0
  141.6970   81.7080  219.5310 C   0  0  0  0  0  0  0  0  0  0  0  0
  141.7753   81.5825  218.4410 H   0  0  0  0  0  0  0  0  0  0  0  0
  141.0790   82.8430  220.0600 C   0  0  0  0  0  0  0  0  0  0  0  0
  140.6632   83.6123  219.3926 H   0  0  0  0  0  0  0  0  0  0  0  0
  140.9950   82.9900  221.4460 C   0  0  0  0  0  0  0  0  0  0  0  0
  140.5190   83.8830  221.8772 H   0  0  0  0  0  0  0  0  0  0  0  0
  141.5160   82.0020  222.2840 C   0  0  0  0  0  0  0  0  0  0  0  0
  141.4482   82.1090  223.3767 H   0  0  0  0  0  0  0  0  0  0  0  0
  1  2  1  0
  2  3  2  0
  3  4  1  0
  3  5  1  0
  5  6  2  0
  6  7  1  0
  7  8  2  0
  8  9  1  0
  8 10  1  0
 10 11  1  0
 10 12  2  0
 12 13  1  0
 12 14  1  0
 14 15  1  0
 14 16  2  0
 16 17  1  0
 17 18  2  0
 17 19  1  0
 19 20  1  0
 20 21  1  0
 20 22  1  0
 20 23  1  0
 23 24  1  0
 23 25  1  0
 25 26  1  0
 25 27  1  0
 25 28  1  0
 28 29  1  0
 28 30  1  0
 28 31  1  0
 31 32  1  0
 31 33  1  0
 31 34  1  0
 34 35  1  0
 34 36  1  0
 34 37  1  0
 37 38  1  0
 37 39  1  0
  2 40  1  0
 40 41  2  0
 41 42  1  0
 42 43  1  0
 42 44  2  0
 44 45  1  0
 44 46  1  0
 46 47  1  0
 46 48  2  0
 48 49  1  0
 19  5  1  0
 37 23  1  0
 48 40  1  0
 16  7  1  0
M  CHG  1  31   1
M  END
>  <UniqueID>  (16) 
439

>  <SMILES>  (16) 
O=c1c2ccccc2nc(/C=C/c2ccccn2)n1CC1CC[NH2+]CC1

>  <Energy>  (16) 
62.6427407089206

>  <Genealogy>  (16) 
O=c1c2ccccc2nc(/C=C/c2ccccn2)n1CC1CC[NH2+]CC1 (protonated)
O=c1c2ccccc2nc(/C=C/c2ccccn2)n1CC1CC[NH2+]CC1 (cis-trans isomerization)
O=c1c2ccccc2nc(/C=C/c2ccccn2)n1CC1CC[NH2+]CC1 (3D coordinates assigned)
O=c1c2ccccc2nc(/C=C/c2ccccn2)n1CC1CC[NH2+]CC1 (nonaromatic ring conformer: 62.6427407089206 kcal/mol)

>  <smiles>  (16) 
O=c1c2ccccc2nc(/C=C/c2ccccn2)n1CC1CCNCC1

>  <score_type>  (16) 
oracle

>  <origin>  (16) 
autodockgpu

>  <m_score__min__energy>  (16) 
-7.5

>  <m_primary>  (16) 
energy

>  <meeko>  (16) 
{"free_energy": -6.32, "intermolecular_energy": -7.81, "internal_energy": -2.42, "cluster_size": 11, "cluster_id": 5, "rank_in_cluster": 10}

>  <energy>  (16) 
-6.33

>  <cluster_rmsd>  (16) 
0.61

>  <rmsd>  (16) 
273.49

>  <cluster>  (16) 
5

$$$$
BQTJSOOYCKASGQ-IDUMZPQDNA-O
     RDKit          3D

 49 52  0  0  0  0  0  0  0  0999 V2000
  143.7533   79.7920  222.7149 H   0  0  0  0  0  0  0  0  0  0  0  0
  142.6650   79.8390  222.5620 C   0  0  0  0  0  0  0  0  0  0  0  0
  141.8870   78.9440  223.1860 C   0  0  0  0  0  0  0  0  0  0  0  0
  142.3536   78.1271  223.7560 H   0  0  0  0  0  0  0  0  0  0  0  0
  140.4090   79.0350  223.1220 C   0  0  0  0  0  0  0  0  0  0  0  0
  139.7950   79.8660  224.0060 N   0  0  0  0  0  0  0  0  0  0  0  0
  138.4560   80.0400  224.0190 C   0  0  0  0  0  0  0  0  0  0  0  0
  137.8710   80.9100  224.9490 C   0  0  0  0  0  0  0  0  0  0  0  0
  138.5024   81.4495  225.6703 H   0  0  0  0  0  0  0  0  0  0  0  0
  136.4860   81.0920  224.9600 C   0  0  0  0  0  0  0  0  0  0  0  0
  136.0273   81.7734  225.6916 H   0  0  0  0  0  0  0  0  0  0  0  0
  135.6820   80.4090  224.0420 C   0  0  0  0  0  0  0  0  0  0  0  0
  134.5920   80.5564  224.0514 H   0  0  0  0  0  0  0  0  0  0  0  0
  136.2600   79.5390  223.1120 C   0  0  0  0  0  0  0  0  0  0  0  0
  135.6239   79.0023  222.3928 H   0  0  0  0  0  0  0  0  0  0  0  0
  137.6560   79.3490  223.0950 C   0  0  0  0  0  0  0  0  0  0  0  0
  138.2870   78.4810  222.1870 C   0  0  0  0  0  0  0  0  0  0  0  0
  137.5830   77.8360  221.3580 O   0  0  0  0  0  0  0  0  0  0  0  0
  139.6560   78.3250  222.2050 N   0  0  0  0  0  0  0  0  0  0  0  0
  140.2650   77.3260  221.2930 C   0  0  0  0  0  0  0  0  0  0  0  0
  140.8645   76.6199  221.8863 H   0  0  0  0  0  0  0  0  0  0  0  0
  139.4540   76.8048  220.7632 H   0  0  0  0  0  0  0  0  0  0  0  0
  141.1770   77.9970  220.2400 C   0  0  0  0  0  0  0  0  0  0  0  0
  141.5187   78.9519  220.6660 H   0  0  0  0  0  0  0  0  0  0  0  0
  142.4040   77.1020  219.9410 C   0  0  0  0  0  0  0  0  0  0  0  0
  143.1620   77.2735  220.7195 H   0  0  0  0  0  0  0  0  0  0  0  0
  142.0575   76.0581  219.9311 H   0  0  0  0  0  0  0  0  0  0  0  0
  143.0370   77.3940  218.5640 C   0  0  0  0  0  0  0  0  0  0  0  0
  144.1244   77.2420  218.6307 H   0  0  0  0  0  0  0  0  0  0  0  0
  142.5912   76.7103  217.8266 H   0  0  0  0  0  0  0  0  0  0  0  0
  142.7730   78.7740  218.1330 N   0  0  0  0  0  0  0  0  0  0  0  0
  143.2920   78.9540  217.2400 H   0  0  0  0  0  0  0  0  0  0  0  0
  143.1350   79.4420  218.8520 H   0  0  0  0  0  0  0  0  0  0  0  0
  141.3350   79.0140  217.9000 C   0  0  0  0  0  0  0  0  0  0  0  0
  141.1505   80.0976  217.9433 H   0  0  0  0  0  0  0  0  0  0  0  0
  141.0898   78.5904  216.9149 H   0  0  0  0  0  0  0  0  0  0  0  0
  140.4220   78.3190  218.9370 C   0  0  0  0  0  0  0  0  0  0  0  0
  139.5775   78.9842  219.1701 H   0  0  0  0  0  0  0  0  0  0  0  0
  140.0711   77.3714  218.5024 H   0  0  0  0  0  0  0  0  0  0  0  0
  142.1160   80.8870  221.6760 C   0  0  0  0  0  0  0  0  0  0  0  0
  142.2020   80.7700  220.3190 N   0  0  0  0  0  0  0  0  0  0  0  0
  141.6870   81.7090  219.4820 C   0  0  0  0  0  0  0  0  0  0  0  0
  141.7728   81.5804  218.3929 H   0  0  0  0  0  0  0  0  0  0  0  0
  141.0490   82.8370  220.0030 C   0  0  0  0  0  0  0  0  0  0  0  0
  140.6265   83.5980  219.3304 H   0  0  0  0  0  0  0  0  0  0  0  0
  140.9540   82.9870  221.3880 C   0  0  0  0  0  0  0  0  0  0  0  0
  140.4614   83.8738  221.8134 H   0  0  0  0  0  0  0  0  0  0  0  0
  141.4850   82.0100  222.2320 C   0  0  0  0  0  0  0  0  0  0  0  0
  141.4093   82.1197  223.3239 H   0  0  0  0  0  0  0  0  0  0  0  0
  1  2  1  0
  2  3  2  0
  3  4  1  0
  3  5  1  0
  5  6  2  0
  6  7  1  0
  7  8  2  0
  8  9  1  0
  8 10  1  0
 10 11  1  0
 10 12  2  0
 12 13  1  0
 12 14  1  0
 14 15  1  0
 14 16  2  0
 16 17  1  0
 17 18  2  0
 17 19  1  0
 19 20  1  0
 20 21  1  0
 20 22  1  0
 20 23  1  0
 23 24  1  0
 23 25  1  0
 25 26  1  0
 25 27  1  0
 25 28  1  0
 28 29  1  0
 28 30  1  0
 28 31  1  0
 31 32  1  0
 31 33  1  0
 31 34  1  0
 34 35  1  0
 34 36  1  0
 34 37  1  0
 37 38  1  0
 37 39  1  0
  2 40  1  0
 40 41  2  0
 41 42  1  0
 42 43  1  0
 42 44  2  0
 44 45  1  0
 44 46  1  0
 46 47  1  0
 46 48  2  0
 48 49  1  0
 19  5  1  0
 37 23  1  0
 48 40  1  0
 16  7  1  0
M  CHG  1  31   1
M  END
>  <UniqueID>  (17) 
439

>  <SMILES>  (17) 
O=c1c2ccccc2nc(/C=C/c2ccccn2)n1CC1CC[NH2+]CC1

>  <Energy>  (17) 
62.6427407089206

>  <Genealogy>  (17) 
O=c1c2ccccc2nc(/C=C/c2ccccn2)n1CC1CC[NH2+]CC1 (protonated)
O=c1c2ccccc2nc(/C=C/c2ccccn2)n1CC1CC[NH2+]CC1 (cis-trans isomerization)
O=c1c2ccccc2nc(/C=C/c2ccccn2)n1CC1CC[NH2+]CC1 (3D coordinates assigned)
O=c1c2ccccc2nc(/C=C/c2ccccn2)n1CC1CC[NH2+]CC1 (nonaromatic ring conformer: 62.6427407089206 kcal/mol)

>  <smiles>  (17) 
O=c1c2ccccc2nc(/C=C/c2ccccn2)n1CC1CCNCC1

>  <score_type>  (17) 
oracle

>  <origin>  (17) 
autodockgpu

>  <m_score__min__energy>  (17) 
-7.5

>  <m_primary>  (17) 
energy

>  <meeko>  (17) 
{"free_energy": -6.34, "intermolecular_energy": -7.83, "internal_energy": -2.42, "cluster_size": 11, "cluster_id": 5, "rank_in_cluster": 4}

>  <energy>  (17) 
-6.32

>  <cluster_rmsd>  (17) 
0.56

>  <rmsd>  (17) 
273.48

>  <cluster>  (17) 
5

$$$$
BQTJSOOYCKASGQ-IDUMZPQDNA-O
     RDKit          3D

 49 52  0  0  0  0  0  0  0  0999 V2000
  143.7314   79.9360  222.9272 H   0  0  0  0  0  0  0  0  0  0  0  0
  142.6620   79.8830  222.6750 C   0  0  0  0  0  0  0  0  0  0  0  0
  141.9120   78.9330  223.2480 C   0  0  0  0  0  0  0  0  0  0  0  0
  142.4024   78.1087  223.7866 H   0  0  0  0  0  0  0  0  0  0  0  0
  140.4320   78.9730  223.1690 C   0  0  0  0  0  0  0  0  0  0  0  0
  139.7840   79.8180  224.0140 N   0  0  0  0  0  0  0  0  0  0  0  0
  138.4400   79.9480  224.0100 C   0  0  0  0  0  0  0  0  0  0  0  0
  137.8190   80.8350  224.8990 C   0  0  0  0  0  0  0  0  0  0  0  0
  138.4266   81.4233  225.6024 H   0  0  0  0  0  0  0  0  0  0  0  0
  136.4290   80.9730  224.8930 C   0  0  0  0  0  0  0  0  0  0  0  0
  135.9427   81.6688  225.5926 H   0  0  0  0  0  0  0  0  0  0  0  0
  135.6550   80.2270  223.9980 C   0  0  0  0  0  0  0  0  0  0  0  0
  134.5607   80.3383  223.9942 H   0  0  0  0  0  0  0  0  0  0  0  0
  136.2690   79.3400  223.1080 C   0  0  0  0  0  0  0  0  0  0  0  0
  135.6570   78.7541  222.4064 H   0  0  0  0  0  0  0  0  0  0  0  0
  137.6710   79.1960  223.1090 C   0  0  0  0  0  0  0  0  0  0  0  0
  138.3380   78.3120  222.2420 C   0  0  0  0  0  0  0  0  0  0  0  0
  137.6620   77.6120  221.4350 O   0  0  0  0  0  0  0  0  0  0  0  0
  139.7110   78.2020  222.2760 N   0  0  0  0  0  0  0  0  0  0  0  0
  140.3590   77.1880  221.4090 C   0  0  0  0  0  0  0  0  0  0  0  0
  140.9783   76.5277  222.0339 H   0  0  0  0  0  0  0  0  0  0  0  0
  139.5692   76.6185  220.8972 H   0  0  0  0  0  0  0  0  0  0  0  0
  141.2540   77.8450  220.3340 C   0  0  0  0  0  0  0  0  0  0  0  0
  141.5814   78.8166  220.7325 H   0  0  0  0  0  0  0  0  0  0  0  0
  142.4950   76.9630  220.0530 C   0  0  0  0  0  0  0  0  0  0  0  0
  143.2537   77.1687  220.8224 H   0  0  0  0  0  0  0  0  0  0  0  0
  142.1665   75.9134  220.0736 H   0  0  0  0  0  0  0  0  0  0  0  0
  143.1160   77.2280  218.6650 C   0  0  0  0  0  0  0  0  0  0  0  0
  144.2061   77.0956  218.7297 H   0  0  0  0  0  0  0  0  0  0  0  0
  142.6776   76.5174  217.9489 H   0  0  0  0  0  0  0  0  0  0  0  0
  142.8270   78.5920  218.1980 N   0  0  0  0  0  0  0  0  0  0  0  0
  143.3380   78.7560  217.2980 H   0  0  0  0  0  0  0  0  0  0  0  0
  143.1810   79.2850  218.8970 H   0  0  0  0  0  0  0  0  0  0  0  0
  141.3840   78.8010  217.9670 C   0  0  0  0  0  0  0  0  0  0  0  0
  141.1814   79.8821  217.9816 H   0  0  0  0  0  0  0  0  0  0  0  0
  141.1412   78.3459  216.9955 H   0  0  0  0  0  0  0  0  0  0  0  0
  140.4880   78.1200  219.0270 C   0  0  0  0  0  0  0  0  0  0  0  0
  139.6341   78.7778  219.2467 H   0  0  0  0  0  0  0  0  0  0  0  0
  140.1506   77.1555  218.6198 H   0  0  0  0  0  0  0  0  0  0  0  0
  142.1090   80.8630  221.7170 C   0  0  0  0  0  0  0  0  0  0  0  0
  142.2030   80.6550  220.3720 N   0  0  0  0  0  0  0  0  0  0  0  0
  141.6840   81.5300  219.4700 C   0  0  0  0  0  0  0  0  0  0  0  0
  141.7778   81.3288  218.3926 H   0  0  0  0  0  0  0  0  0  0  0  0
  141.0320   82.6840  219.9100 C   0  0  0  0  0  0  0  0  0  0  0  0
  140.6046   83.3924  219.1851 H   0  0  0  0  0  0  0  0  0  0  0  0
  140.9290   82.9280  221.2810 C   0  0  0  0  0  0  0  0  0  0  0  0
  140.4264   83.8372  221.6426 H   0  0  0  0  0  0  0  0  0  0  0  0
  141.4650   82.0160  222.1920 C   0  0  0  0  0  0  0  0  0  0  0  0
  141.3832   82.1996  223.2735 H   0  0  0  0  0  0  0  0  0  0  0  0
  1  2  1  0
  2  3  2  0
  3  4  1  0
  3  5  1  0
  5  6  2  0
  6  7  1  0
  7  8  2  0
  8  9  1  0
  8 10  1  0
 10 11  1  0
 10 12  2  0
 12 13  1  0
 12 14  1  0
 14 15  1  0
 14 16  2  0
 16 17  1  0
 17 18  2  0
 17 19  1  0
 19 20  1  0
 20 21  1  0
 20 22  1  0
 20 23  1  0
 23 24  1  0
 23 25  1  0
 25 26  1  0
 25 27  1  0
 25 28  1  0
 28 29  1  0
 28 30  1  0
 28 31  1  0
 31 32  1  0
 31 33  1  0
 31 34  1  0
 34 35  1  0
 34 36  1  0
 34 37  1  0
 37 38  1  0
 37 39  1  0
  2 40  1  0
 40 41  2  0
 41 42  1  0
 42 43  1  0
 42 44  2  0
 44 45  1  0
 44 46  1  0
 46 47  1  0
 46 48  2  0
 48 49  1  0
 19  5  1  0
 37 23  1  0
 48 40  1  0
 16  7  1  0
M  CHG  1  31   1
M  END
>  <UniqueID>  (18) 
439

>  <SMILES>  (18) 
O=c1c2ccccc2nc(/C=C/c2ccccn2)n1CC1CC[NH2+]CC1

>  <Energy>  (18) 
62.6427407089206

>  <Genealogy>  (18) 
O=c1c2ccccc2nc(/C=C/c2ccccn2)n1CC1CC[NH2+]CC1 (protonated)
O=c1c2ccccc2nc(/C=C/c2ccccn2)n1CC1CC[NH2+]CC1 (cis-trans isomerization)
O=c1c2ccccc2nc(/C=C/c2ccccn2)n1CC1CC[NH2+]CC1 (3D coordinates assigned)
O=c1c2ccccc2nc(/C=C/c2ccccn2)n1CC1CC[NH2+]CC1 (nonaromatic ring conformer: 62.6427407089206 kcal/mol)

>  <smiles>  (18) 
O=c1c2ccccc2nc(/C=C/c2ccccn2)n1CC1CCNCC1

>  <score_type>  (18) 
oracle

>  <origin>  (18) 
autodockgpu

>  <m_score__min__energy>  (18) 
-7.5

>  <m_primary>  (18) 
energy

>  <meeko>  (18) 
{"free_energy": -6.35, "intermolecular_energy": -7.84, "internal_energy": -2.38, "cluster_size": 11, "cluster_id": 5, "rank_in_cluster": 2}

>  <energy>  (18) 
-6.32

>  <cluster_rmsd>  (18) 
0.59

>  <rmsd>  (18) 
273.51

>  <cluster>  (18) 
5

$$$$
BQTJSOOYCKASGQ-IDUMZPQDNA-O
     RDKit          3D

 49 52  0  0  0  0  0  0  0  0999 V2000
  138.7914   77.5514  223.5078 H   0  0  0  0  0  0  0  0  0  0  0  0
  139.5060   77.8320  222.7200 C   0  0  0  0  0  0  0  0  0  0  0  0
  139.5010   77.1430  221.5710 C   0  0  0  0  0  0  0  0  0  0  0  0
  138.5941   77.1368  220.9485 H   0  0  0  0  0  0  0  0  0  0  0  0
  140.6960   76.3890  221.1240 C   0  0  0  0  0  0  0  0  0  0  0  0
  140.7070   75.0480  221.3460 N   0  0  0  0  0  0  0  0  0  0  0  0
  141.7370   74.2640  220.9600 C   0  0  0  0  0  0  0  0  0  0  0  0
  141.7000   72.8850  221.2100 C   0  0  0  0  0  0  0  0  0  0  0  0
  140.8338   72.4423  221.7236 H   0  0  0  0  0  0  0  0  0  0  0  0
  142.7630   72.0730  220.8070 C   0  0  0  0  0  0  0  0  0  0  0  0
  142.7340   70.9914  221.0051 H   0  0  0  0  0  0  0  0  0  0  0  0
  143.8640   72.6340  220.1520 C   0  0  0  0  0  0  0  0  0  0  0  0
  144.6991   71.9922  219.8348 H   0  0  0  0  0  0  0  0  0  0  0  0
  143.9060   74.0100  219.8990 C   0  0  0  0  0  0  0  0  0  0  0  0
  144.7740   74.4477  219.3841 H   0  0  0  0  0  0  0  0  0  0  0  0
  142.8380   74.8350  220.3030 C   0  0  0  0  0  0  0  0  0  0  0  0
  142.8340   76.2230  220.0820 C   0  0  0  0  0  0  0  0  0  0  0  0
  143.8240   76.7600  219.5090 O   0  0  0  0  0  0  0  0  0  0  0  0
  141.7680   76.9930  220.4940 N   0  0  0  0  0  0  0  0  0  0  0  0
  141.8530   78.4650  220.3240 C   0  0  0  0  0  0  0  0  0  0  0  0
  140.8824   78.9110  220.5868 H   0  0  0  0  0  0  0  0  0  0  0  0
  142.6502   78.8411  220.9820 H   0  0  0  0  0  0  0  0  0  0  0  0
  142.2050   78.8520  218.8700 C   0  0  0  0  0  0  0  0  0  0  0  0
  143.2839   78.6812  218.7402 H   0  0  0  0  0  0  0  0  0  0  0  0
  141.4240   77.9650  217.8710 C   0  0  0  0  0  0  0  0  0  0  0  0
  141.9594   77.0110  217.7555 H   0  0  0  0  0  0  0  0  0  0  0  0
  140.4128   77.8196  218.2787 H   0  0  0  0  0  0  0  0  0  0  0  0
  141.2740   78.6170  216.4810 C   0  0  0  0  0  0  0  0  0  0  0  0
  141.2928   77.8298  215.7129 H   0  0  0  0  0  0  0  0  0  0  0  0
  140.3200   79.1642  216.4573 H   0  0  0  0  0  0  0  0  0  0  0  0
  142.3600   79.5710  216.2140 N   0  0  0  0  0  0  0  0  0  0  0  0
  142.2680   79.9220  215.2310 H   0  0  0  0  0  0  0  0  0  0  0  0
  143.2830   79.0840  216.2930 H   0  0  0  0  0  0  0  0  0  0  0  0
  142.3190   80.7250  217.1340 C   0  0  0  0  0  0  0  0  0  0  0  0
  143.3131   81.1957  217.1478 H   0  0  0  0  0  0  0  0  0  0  0  0
  141.5409   81.4086  216.7636 H   0  0  0  0  0  0  0  0  0  0  0  0
  141.9380   80.3410  218.5830 C   0  0  0  0  0  0  0  0  0  0  0  0
  142.5320   80.9499  219.2804 H   0  0  0  0  0  0  0  0  0  0  0  0
  140.8616   80.5263  218.7136 H   0  0  0  0  0  0  0  0  0  0  0  0
  140.4340   78.9540  222.9700 C   0  0  0  0  0  0  0  0  0  0  0  0
  140.0990   80.2300  222.6200 N   0  0  0  0  0  0  0  0  0  0  0  0
  140.9260   81.2820  222.8580 C   0  0  0  0  0  0  0  0  0  0  0  0
  140.6214   82.2973  222.5642 H   0  0  0  0  0  0  0  0  0  0  0  0
  142.1620   81.0760  223.4750 C   0  0  0  0  0  0  0  0  0  0  0  0
  142.8330   81.9244  223.6747 H   0  0  0  0  0  0  0  0  0  0  0  0
  142.5350   79.7800  223.8350 C   0  0  0  0  0  0  0  0  0  0  0  0
  143.5090   79.6004  224.3137 H   0  0  0  0  0  0  0  0  0  0  0  0
  141.6710   78.7120  223.5870 C   0  0  0  0  0  0  0  0  0  0  0  0
  141.9574   77.6891  223.8729 H   0  0  0  0  0  0  0  0  0  0  0  0
  1  2  1  0
  2  3  2  0
  3  4  1  0
  3  5  1  0
  5  6  2  0
  6  7  1  0
  7  8  2  0
  8  9  1  0
  8 10  1  0
 10 11  1  0
 10 12  2  0
 12 13  1  0
 12 14  1  0
 14 15  1  0
 14 16  2  0
 16 17  1  0
 17 18  2  0
 17 19  1  0
 19 20  1  0
 20 21  1  0
 20 22  1  0
 20 23  1  0
 23 24  1  0
 23 25  1  0
 25 26  1  0
 25 27  1  0
 25 28  1  0
 28 29  1  0
 28 30  1  0
 28 31  1  0
 31 32  1  0
 31 33  1  0
 31 34  1  0
 34 35  1  0
 34 36  1  0
 34 37  1  0
 37 38  1  0
 37 39  1  0
  2 40  1  0
 40 41  2  0
 41 42  1  0
 42 43  1  0
 42 44  2  0
 44 45  1  0
 44 46  1  0
 46 47  1  0
 46 48  2  0
 48 49  1  0
 19  5  1  0
 37 23  1  0
 48 40  1  0
 16  7  1  0
M  CHG  1  31   1
M  END
>  <UniqueID>  (19) 
439

>  <SMILES>  (19) 
O=c1c2ccccc2nc(/C=C/c2ccccn2)n1CC1CC[NH2+]CC1

>  <Energy>  (19) 
62.6427407089206

>  <Genealogy>  (19) 
O=c1c2ccccc2nc(/C=C/c2ccccn2)n1CC1CC[NH2+]CC1 (protonated)
O=c1c2ccccc2nc(/C=C/c2ccccn2)n1CC1CC[NH2+]CC1 (cis-trans isomerization)
O=c1c2ccccc2nc(/C=C/c2ccccn2)n1CC1CC[NH2+]CC1 (3D coordinates assigned)
O=c1c2ccccc2nc(/C=C/c2ccccn2)n1CC1CC[NH2+]CC1 (nonaromatic ring conformer: 62.6427407089206 kcal/mol)

>  <smiles>  (19) 
O=c1c2ccccc2nc(/C=C/c2ccccn2)n1CC1CCNCC1

>  <score_type>  (19) 
oracle

>  <origin>  (19) 
autodockgpu

>  <m_score__min__energy>  (19) 
-7.5

>  <m_primary>  (19) 
energy

>  <meeko>  (19) 
{"free_energy": -7.35, "intermolecular_energy": -8.84, "internal_energy": -1.21, "cluster_size": 4, "cluster_id": 2, "rank_in_cluster": 3}

>  <energy>  (19) 
-6.32

>  <cluster_rmsd>  (19) 
0.6

>  <rmsd>  (19) 
273.48

>  <cluster>  (19) 
5

$$$$
BQTJSOOYCKASGQ-IDUMZPQDNA-O
     RDKit          3D

 49 52  0  0  0  0  0  0  0  0999 V2000
  143.7804   79.8647  222.7237 H   0  0  0  0  0  0  0  0  0  0  0  0
  142.6950   79.8680  222.5450 C   0  0  0  0  0  0  0  0  0  0  0  0
  141.9380   78.9460  223.1560 C   0  0  0  0  0  0  0  0  0  0  0  0
  142.4235   78.1237  223.7019 H   0  0  0  0  0  0  0  0  0  0  0  0
  140.4580   79.0150  223.1090 C   0  0  0  0  0  0  0  0  0  0  0  0
  139.8440   79.8470  223.9920 N   0  0  0  0  0  0  0  0  0  0  0  0
  138.5020   80.0010  224.0200 C   0  0  0  0  0  0  0  0  0  0  0  0
  137.9160   80.8720  224.9470 C   0  0  0  0  0  0  0  0  0  0  0  0
  138.5484   81.4288  225.6541 H   0  0  0  0  0  0  0  0  0  0  0  0
  136.5280   81.0340  224.9740 C   0  0  0  0  0  0  0  0  0  0  0  0
  136.0686   81.7163  225.7044 H   0  0  0  0  0  0  0  0  0  0  0  0
  135.7230   80.3300  224.0740 C   0  0  0  0  0  0  0  0  0  0  0  0
  134.6311   80.4617  224.0953 H   0  0  0  0  0  0  0  0  0  0  0  0
  136.3030   79.4580  223.1460 C   0  0  0  0  0  0  0  0  0  0  0  0
  135.6664   78.9038  222.4406 H   0  0  0  0  0  0  0  0  0  0  0  0
  137.7010   79.2890  223.1140 C   0  0  0  0  0  0  0  0  0  0  0  0
  138.3340   78.4200  222.2080 C   0  0  0  0  0  0  0  0  0  0  0  0
  137.6290   77.7550  221.3950 O   0  0  0  0  0  0  0  0  0  0  0  0
  139.7050   78.2840  222.2100 N   0  0  0  0  0  0  0  0  0  0  0  0
  140.3170   77.2840  221.3010 C   0  0  0  0  0  0  0  0  0  0  0  0
  140.9333   76.5926  221.8944 H   0  0  0  0  0  0  0  0  0  0  0  0
  139.5070   76.7463  220.7864 H   0  0  0  0  0  0  0  0  0  0  0  0
  141.2070   77.9560  220.2300 C   0  0  0  0  0  0  0  0  0  0  0  0
  141.5343   78.9237  220.6380 H   0  0  0  0  0  0  0  0  0  0  0  0
  142.4480   77.0810  219.9350 C   0  0  0  0  0  0  0  0  0  0  0  0
  143.2087   77.2793  220.7044 H   0  0  0  0  0  0  0  0  0  0  0  0
  142.1221   76.0304  219.9443 H   0  0  0  0  0  0  0  0  0  0  0  0
  143.0640   77.3640  218.5480 C   0  0  0  0  0  0  0  0  0  0  0  0
  144.1545   77.2329  218.6075 H   0  0  0  0  0  0  0  0  0  0  0  0
  142.6247   76.6612  217.8247 H   0  0  0  0  0  0  0  0  0  0  0  0
  142.7710   78.7320  218.0990 N   0  0  0  0  0  0  0  0  0  0  0  0
  143.2790   78.9080  217.1990 H   0  0  0  0  0  0  0  0  0  0  0  0
  143.1260   79.4180  218.8050 H   0  0  0  0  0  0  0  0  0  0  0  0
  141.3270   78.9410  217.8750 C   0  0  0  0  0  0  0  0  0  0  0  0
  141.1224   80.0214  217.9034 H   0  0  0  0  0  0  0  0  0  0  0  0
  141.0821   78.4972  216.8987 H   0  0  0  0  0  0  0  0  0  0  0  0
  140.4350   78.2450  218.9300 C   0  0  0  0  0  0  0  0  0  0  0  0
  139.5807   78.8984  219.1609 H   0  0  0  0  0  0  0  0  0  0  0  0
  140.0969   77.2851  218.5124 H   0  0  0  0  0  0  0  0  0  0  0  0
  142.1270   80.8880  221.6410 C   0  0  0  0  0  0  0  0  0  0  0  0
  142.2000   80.7400  220.2860 N   0  0  0  0  0  0  0  0  0  0  0  0
  141.6670   81.6550  219.4320 C   0  0  0  0  0  0  0  0  0  0  0  0
  141.7435   81.5021  218.3454 H   0  0  0  0  0  0  0  0  0  0  0  0
  141.0230   82.7880  219.9330 C   0  0  0  0  0  0  0  0  0  0  0  0
  140.5854   83.5284  219.2472 H   0  0  0  0  0  0  0  0  0  0  0  0
  140.9410   82.9700  221.3150 C   0  0  0  0  0  0  0  0  0  0  0  0
  140.4437   83.8616  221.7246 H   0  0  0  0  0  0  0  0  0  0  0  0
  141.4910   82.0190  222.1760 C   0  0  0  0  0  0  0  0  0  0  0  0
  141.4265   82.1549  223.2657 H   0  0  0  0  0  0  0  0  0  0  0  0
  1  2  1  0
  2  3  2  0
  3  4  1  0
  3  5  1  0
  5  6  2  0
  6  7  1  0
  7  8  2  0
  8  9  1  0
  8 10  1  0
 10 11  1  0
 10 12  2  0
 12 13  1  0
 12 14  1  0
 14 15  1  0
 14 16  2  0
 16 17  1  0
 17 18  2  0
 17 19  1  0
 19 20  1  0
 20 21  1  0
 20 22  1  0
 20 23  1  0
 23 24  1  0
 23 25  1  0
 25 26  1  0
 25 27  1  0
 25 28  1  0
 28 29  1  0
 28 30  1  0
 28 31  1  0
 31 32  1  0
 31 33  1  0
 31 34  1  0
 34 35  1  0
 34 36  1  0
 34 37  1  0
 37 38  1  0
 37 39  1  0
  2 40  1  0
 40 41  2  0
 41 42  1  0
 42 43  1  0
 42 44  2  0
 44 45  1  0
 44 46  1  0
 46 47  1  0
 46 48  2  0
 48 49  1  0
 19  5  1  0
 37 23  1  0
 48 40  1  0
 16  7  1  0
M  CHG  1  31   1
M  END
>  <UniqueID>  (20) 
439

>  <SMILES>  (20) 
O=c1c2ccccc2nc(/C=C/c2ccccn2)n1CC1CC[NH2+]CC1

>  <Energy>  (20) 
62.6427407089206

>  <Genealogy>  (20) 
O=c1c2ccccc2nc(/C=C/c2ccccn2)n1CC1CC[NH2+]CC1 (protonated)
O=c1c2ccccc2nc(/C=C/c2ccccn2)n1CC1CC[NH2+]CC1 (cis-trans isomerization)
O=c1c2ccccc2nc(/C=C/c2ccccn2)n1CC1CC[NH2+]CC1 (3D coordinates assigned)
O=c1c2ccccc2nc(/C=C/c2ccccn2)n1CC1CC[NH2+]CC1 (nonaromatic ring conformer: 62.6427407089206 kcal/mol)

>  <smiles>  (20) 
O=c1c2ccccc2nc(/C=C/c2ccccn2)n1CC1CCNCC1

>  <score_type>  (20) 
oracle

>  <origin>  (20) 
autodockgpu

>  <m_score__min__energy>  (20) 
-7.5

>  <m_primary>  (20) 
energy

>  <meeko>  (20) 
{"free_energy": -6.32, "intermolecular_energy": -7.82, "internal_energy": -2.42, "cluster_size": 11, "cluster_id": 5, "rank_in_cluster": 9}

>  <energy>  (20) 
-5.78

>  <cluster_rmsd>  (20) 
0.0

>  <rmsd>  (20) 
273.55

>  <cluster>  (20) 
6

$$$$
BQTJSOOYCKASGQ-CMDGGOBGNA-N
     RDKit          3D

 48 51  0  0  0  0  0  0  0  0999 V2000
  141.3135   80.6099  219.1559 H   0  0  0  0  0  0  0  0  0  0  0  0
  141.0590   79.9800  220.0210 C   0  0  0  0  0  0  0  0  0  0  0  0
  140.2570   78.9250  219.8360 C   0  0  0  0  0  0  0  0  0  0  0  0
  139.2527   79.0793  219.4146 H   0  0  0  0  0  0  0  0  0  0  0  0
  140.6910   77.5610  220.1850 C   0  0  0  0  0  0  0  0  0  0  0  0
  141.9200   77.1830  219.7500 N   0  0  0  0  0  0  0  0  0  0  0  0
  142.4440   75.9730  220.0500 C   0  0  0  0  0  0  0  0  0  0  0  0
  143.7170   75.6250  219.5830 C   0  0  0  0  0  0  0  0  0  0  0  0
  144.2853   76.3300  218.9585 H   0  0  0  0  0  0  0  0  0  0  0  0
  144.2660   74.3820  219.9100 C   0  0  0  0  0  0  0  0  0  0  0  0
  145.2660   74.1094  219.5416 H   0  0  0  0  0  0  0  0  0  0  0  0
  143.5470   73.4850  220.7040 C   0  0  0  0  0  0  0  0  0  0  0  0
  143.9818   72.5073  220.9593 H   0  0  0  0  0  0  0  0  0  0  0  0
  142.2750   73.8280  221.1750 C   0  0  0  0  0  0  0  0  0  0  0  0
  141.7129   73.1209  221.8026 H   0  0  0  0  0  0  0  0  0  0  0  0
  141.7130   75.0770  220.8470 C   0  0  0  0  0  0  0  0  0  0  0  0
  140.4350   75.4660  221.2830 C   0  0  0  0  0  0  0  0  0  0  0  0
  139.7680   74.6780  222.0120 O   0  0  0  0  0  0  0  0  0  0  0  0
  139.9100   76.6850  220.9150 N   0  0  0  0  0  0  0  0  0  0  0  0
  138.5110   77.0160  221.2880 C   0  0  0  0  0  0  0  0  0  0  0  0
  137.9963   77.4044  220.3968 H   0  0  0  0  0  0  0  0  0  0  0  0
  138.0515   76.0914  221.6675 H   0  0  0  0  0  0  0  0  0  0  0  0
  138.4020   78.0740  222.4170 C   0  0  0  0  0  0  0  0  0  0  0  0
  137.7556   77.6025  223.1719 H   0  0  0  0  0  0  0  0  0  0  0  0
  137.7250   79.3780  221.9610 C   0  0  0  0  0  0  0  0  0  0  0  0
  138.3258   79.8396  221.1635 H   0  0  0  0  0  0  0  0  0  0  0  0
  136.7170   79.1468  221.5862 H   0  0  0  0  0  0  0  0  0  0  0  0
  137.6090   80.3560  223.1390 C   0  0  0  0  0  0  0  0  0  0  0  0
  137.1689   81.2980  222.7801 H   0  0  0  0  0  0  0  0  0  0  0  0
  136.9723   79.8963  223.9093 H   0  0  0  0  0  0  0  0  0  0  0  0
  138.9230   80.6380  223.7330 N   0  0  0  0  0  0  0  0  0  0  0  0
  139.5370   81.0800  223.0090 H   0  0  0  0  0  0  0  0  0  0  0  0
  139.5640   79.4060  224.2150 C   0  0  0  0  0  0  0  0  0  0  0  0
  140.5475   79.6565  224.6391 H   0  0  0  0  0  0  0  0  0  0  0  0
  138.9139   78.9531  224.9781 H   0  0  0  0  0  0  0  0  0  0  0  0
  139.7540   78.3910  223.0770 C   0  0  0  0  0  0  0  0  0  0  0  0
  140.4359   78.8128  222.3240 H   0  0  0  0  0  0  0  0  0  0  0  0
  140.1779   77.4638  223.4901 H   0  0  0  0  0  0  0  0  0  0  0  0
  141.6150   80.3300  221.3430 C   0  0  0  0  0  0  0  0  0  0  0  0
  141.3120   81.5210  221.9340 N   0  0  0  0  0  0  0  0  0  0  0  0
  141.8050   81.8670  223.1530 C   0  0  0  0  0  0  0  0  0  0  0  0
  141.5398   82.8374  223.5979 H   0  0  0  0  0  0  0  0  0  0  0  0
  142.6470   80.9920  223.8400 C   0  0  0  0  0  0  0  0  0  0  0  0
  143.0486   81.2659  224.8267 H   0  0  0  0  0  0  0  0  0  0  0  0
  142.9740   79.7640  223.2600 C   0  0  0  0  0  0  0  0  0  0  0  0
  143.6374   79.0642  223.7894 H   0  0  0  0  0  0  0  0  0  0  0  0
  142.4580   79.4260  222.0080 C   0  0  0  0  0  0  0  0  0  0  0  0
  142.7097   78.4597  221.5465 H   0  0  0  0  0  0  0  0  0  0  0  0
  1  2  1  0
  2  3  2  0
  3  4  1  0
  3  5  1  0
  5  6  2  0
  6  7  1  0
  7  8  2  0
  8  9  1  0
  8 10  1  0
 10 11  1  0
 10 12  2  0
 12 13  1  0
 12 14  1  0
 14 15  1  0
 14 16  2  0
 16 17  1  0
 17 18  2  0
 17 19  1  0
 19 20  1  0
 20 21  1  0
 20 22  1  0
 20 23  1  0
 23 24  1  0
 23 25  1  0
 25 26  1  0
 25 27  1  0
 25 28  1  0
 28 29  1  0
 28 30  1  0
 28 31  1  0
 31 32  1  0
 31 33  1  0
 33 34  1  0
 33 35  1  0
 33 36  1  0
 36 37  1  0
 36 38  1  0
  2 39  1  0
 39 40  2  0
 40 41  1  0
 41 42  1  0
 41 43  2  0
 43 44  1  0
 43 45  1  0
 45 46  1  0
 45 47  2  0
 47 48  1  0
 19  5  1  0
 36 23  1  0
 47 39  1  0
 16  7  1  0
M  END
>  <UniqueID>  (21) 
440

>  <SMILES>  (21) 
O=c1c2ccccc2nc(/C=C/c2ccccn2)n1CC1CCNCC1

>  <Energy>  (21) 
63.557462603764506

>  <Genealogy>  (21) 
O=c1c2ccccc2nc(/C=C/c2ccccn2)n1CC1CCNCC1 (cis-trans isomerization)
O=c1c2ccccc2nc(/C=C/c2ccccn2)n1CC1CCNCC1 (3D coordinates assigned)
O=c1c2ccccc2nc(/C=C/c2ccccn2)n1CC1CCNCC1 (nonaromatic ring conformer: 63.557462603764506 kcal/mol)

>  <smiles>  (21) 
O=c1c2ccccc2nc(/C=C/c2ccccn2)n1CC1CCNCC1

>  <score_type>  (21) 
oracle

>  <origin>  (21) 
autodockgpu

>  <m_score__min__energy>  (21) 
-7.9500000000000002

>  <m_primary>  (21) 
energy

>  <meeko>  (21) 
{"free_energy": -5.89, "intermolecular_energy": -7.38, "internal_energy": -2.51, "cluster_size": 2, "cluster_id": 6, "rank_in_cluster": 1}

>  <energy>  (21) 
-7.95

>  <cluster_rmsd>  (21) 
0.0

>  <rmsd>  (21) 
271.37

>  <cluster>  (21) 
1

$$$$
BQTJSOOYCKASGQ-CMDGGOBGNA-N
     RDKit          3D

 48 51  0  0  0  0  0  0  0  0999 V2000
  136.7579   68.7217  221.2622 H   0  0  0  0  0  0  0  0  0  0  0  0
  136.8880   68.4200  222.3120 C   0  0  0  0  0  0  0  0  0  0  0  0
  138.1010   68.0360  222.7260 C   0  0  0  0  0  0  0  0  0  0  0  0
  138.5841   67.1705  222.2490 H   0  0  0  0  0  0  0  0  0  0  0  0
  138.8030   68.7490  223.8080 C   0  0  0  0  0  0  0  0  0  0  0  0
  138.9000   68.1060  224.9990 N   0  0  0  0  0  0  0  0  0  0  0  0
  139.5630   68.6400  226.0500 C   0  0  0  0  0  0  0  0  0  0  0  0
  139.6400   67.9400  227.2600 C   0  0  0  0  0  0  0  0  0  0  0  0
  139.1477   66.9616  227.3617 H   0  0  0  0  0  0  0  0  0  0  0  0
  140.3420   68.4840  228.3380 C   0  0  0  0  0  0  0  0  0  0  0  0
  140.4013   67.9336  229.2886 H   0  0  0  0  0  0  0  0  0  0  0  0
  140.9690   69.7260  228.2110 C   0  0  0  0  0  0  0  0  0  0  0  0
  141.5215   70.1512  229.0619 H   0  0  0  0  0  0  0  0  0  0  0  0
  140.8960   70.4300  227.0050 C   0  0  0  0  0  0  0  0  0  0  0  0
  141.3923   71.4069  226.9084 H   0  0  0  0  0  0  0  0  0  0  0  0
  140.1880   69.8900  225.9140 C   0  0  0  0  0  0  0  0  0  0  0  0
  140.0730   70.5610  224.6840 C   0  0  0  0  0  0  0  0  0  0  0  0
  140.6400   71.6800  224.5390 O   0  0  0  0  0  0  0  0  0  0  0  0
  139.3460   70.0100  223.6520 N   0  0  0  0  0  0  0  0  0  0  0  0
  139.1400   70.7970  222.4090 C   0  0  0  0  0  0  0  0  0  0  0  0
  139.9795   71.4993  222.2992 H   0  0  0  0  0  0  0  0  0  0  0  0
  139.0837   70.0781  221.5783 H   0  0  0  0  0  0  0  0  0  0  0  0
  137.8180   71.6080  222.3980 C   0  0  0  0  0  0  0  0  0  0  0  0
  137.1993   71.1118  221.6358 H   0  0  0  0  0  0  0  0  0  0  0  0
  138.0110   73.0740  221.9720 C   0  0  0  0  0  0  0  0  0  0  0  0
  138.6754   73.5765  222.6903 H   0  0  0  0  0  0  0  0  0  0  0  0
  138.4564   73.0996  220.9665 H   0  0  0  0  0  0  0  0  0  0  0  0
  136.6580   73.8000  221.9390 C   0  0  0  0  0  0  0  0  0  0  0  0
  136.8249   74.8565  221.6821 H   0  0  0  0  0  0  0  0  0  0  0  0
  136.0212   73.3112  221.1870 H   0  0  0  0  0  0  0  0  0  0  0  0
  135.9780   73.7260  223.2390 N   0  0  0  0  0  0  0  0  0  0  0  0
  136.5740   74.1930  223.9630 H   0  0  0  0  0  0  0  0  0  0  0  0
  135.7460   72.3300  223.6400 C   0  0  0  0  0  0  0  0  0  0  0  0
  135.2493   72.3172  224.6214 H   0  0  0  0  0  0  0  0  0  0  0  0
  135.1148   71.8507  222.8772 H   0  0  0  0  0  0  0  0  0  0  0  0
  137.0650   71.5490  223.7370 C   0  0  0  0  0  0  0  0  0  0  0  0
  137.6916   71.9910  224.5257 H   0  0  0  0  0  0  0  0  0  0  0  0
  136.8429   70.4988  223.9773 H   0  0  0  0  0  0  0  0  0  0  0  0
  135.7180   68.4540  223.2110 C   0  0  0  0  0  0  0  0  0  0  0  0
  135.8390   68.8930  224.4960 N   0  0  0  0  0  0  0  0  0  0  0  0
  134.7770   68.9410  225.3440 C   0  0  0  0  0  0  0  0  0  0  0  0
  134.9121   69.3013  226.3745 H   0  0  0  0  0  0  0  0  0  0  0  0
  133.5150   68.5330  224.9070 C   0  0  0  0  0  0  0  0  0  0  0  0
  132.6521   68.5680  225.5884 H   0  0  0  0  0  0  0  0  0  0  0  0
  133.3610   68.0800  223.5950 C   0  0  0  0  0  0  0  0  0  0  0  0
  132.3726   67.7567  223.2365 H   0  0  0  0  0  0  0  0  0  0  0  0
  134.4630   68.0380  222.7390 C   0  0  0  0  0  0  0  0  0  0  0  0
  134.3490   67.6823  221.7044 H   0  0  0  0  0  0  0  0  0  0  0  0
  1  2  1  0
  2  3  2  0
  3  4  1  0
  3  5  1  0
  5  6  2  0
  6  7  1  0
  7  8  2  0
  8  9  1  0
  8 10  1  0
 10 11  1  0
 10 12  2  0
 12 13  1  0
 12 14  1  0
 14 15  1  0
 14 16  2  0
 16 17  1  0
 17 18  2  0
 17 19  1  0
 19 20  1  0
 20 21  1  0
 20 22  1  0
 20 23  1  0
 23 24  1  0
 23 25  1  0
 25 26  1  0
 25 27  1  0
 25 28  1  0
 28 29  1  0
 28 30  1  0
 28 31  1  0
 31 32  1  0
 31 33  1  0
 33 34  1  0
 33 35  1  0
 33 36  1  0
 36 37  1  0
 36 38  1  0
  2 39  1  0
 39 40  2  0
 40 41  1  0
 41 42  1  0
 41 43  2  0
 43 44  1  0
 43 45  1  0
 45 46  1  0
 45 47  2  0
 47 48  1  0
 19  5  1  0
 36 23  1  0
 47 39  1  0
 16  7  1  0
M  END
>  <UniqueID>  (22) 
440

>  <SMILES>  (22) 
O=c1c2ccccc2nc(/C=C/c2ccccn2)n1CC1CCNCC1

>  <Energy>  (22) 
63.557462603764506

>  <Genealogy>  (22) 
O=c1c2ccccc2nc(/C=C/c2ccccn2)n1CC1CCNCC1 (cis-trans isomerization)
O=c1c2ccccc2nc(/C=C/c2ccccn2)n1CC1CCNCC1 (3D coordinates assigned)
O=c1c2ccccc2nc(/C=C/c2ccccn2)n1CC1CCNCC1 (nonaromatic ring conformer: 63.557462603764506 kcal/mol)

>  <smiles>  (22) 
O=c1c2ccccc2nc(/C=C/c2ccccn2)n1CC1CCNCC1

>  <score_type>  (22) 
oracle

>  <origin>  (22) 
autodockgpu

>  <m_score__min__energy>  (22) 
-7.9500000000000002

>  <m_primary>  (22) 
energy

>  <meeko>  (22) 
{"free_energy": -6.56, "intermolecular_energy": -8.05, "internal_energy": -1.67, "cluster_size": 1, "cluster_id": 4, "rank_in_cluster": 1}

>  <energy>  (22) 
-7.86

>  <cluster_rmsd>  (22) 
0.11

>  <rmsd>  (22) 
271.33

>  <cluster>  (22) 
1

$$$$
BQTJSOOYCKASGQ-CMDGGOBGNA-N
     RDKit          3D

 48 51  0  0  0  0  0  0  0  0999 V2000
  140.9514   72.0784  221.3297 H   0  0  0  0  0  0  0  0  0  0  0  0
  140.0160   72.3860  221.8200 C   0  0  0  0  0  0  0  0  0  0  0  0
  139.2030   71.4420  222.3050 C   0  0  0  0  0  0  0  0  0  0  0  0
  138.2978   71.1699  221.7423 H   0  0  0  0  0  0  0  0  0  0  0  0
  139.4940   70.7580  223.5780 C   0  0  0  0  0  0  0  0  0  0  0  0
  140.0450   71.5110  224.5630 N   0  0  0  0  0  0  0  0  0  0  0  0
  140.3110   71.0050  225.7880 C   0  0  0  0  0  0  0  0  0  0  0  0
  140.8780   71.8200  226.7760 C   0  0  0  0  0  0  0  0  0  0  0  0
  141.1216   72.8688  226.5508 H   0  0  0  0  0  0  0  0  0  0  0  0
  141.1340   71.3010  228.0470 C   0  0  0  0  0  0  0  0  0  0  0  0
  141.5810   71.9412  228.8218 H   0  0  0  0  0  0  0  0  0  0  0  0
  140.8230   69.9690  228.3360 C   0  0  0  0  0  0  0  0  0  0  0  0
  141.0255   69.5633  229.3382 H   0  0  0  0  0  0  0  0  0  0  0  0
  140.2550   69.1510  227.3540 C   0  0  0  0  0  0  0  0  0  0  0  0
  140.0095   68.1041  227.5857 H   0  0  0  0  0  0  0  0  0  0  0  0
  139.9970   69.6660  226.0690 C   0  0  0  0  0  0  0  0  0  0  0  0
  139.4400   68.8830  225.0430 C   0  0  0  0  0  0  0  0  0  0  0  0
  139.1390   67.6800  225.2810 O   0  0  0  0  0  0  0  0  0  0  0  0
  139.2310   69.4180  223.7900 N   0  0  0  0  0  0  0  0  0  0  0  0
  138.7570   68.5350  222.6940 C   0  0  0  0  0  0  0  0  0  0  0  0
  139.1968   68.8869  221.7491 H   0  0  0  0  0  0  0  0  0  0  0  0
  139.0709   67.5113  222.9461 H   0  0  0  0  0  0  0  0  0  0  0  0
  137.2140   68.5120  222.5380 C   0  0  0  0  0  0  0  0  0  0  0  0
  137.0052   69.2766  221.7752 H   0  0  0  0  0  0  0  0  0  0  0  0
  136.4690   68.9100  223.8240 C   0  0  0  0  0  0  0  0  0  0  0  0
  136.7087   68.1899  224.6202 H   0  0  0  0  0  0  0  0  0  0  0  0
  136.7848   69.9203  224.1232 H   0  0  0  0  0  0  0  0  0  0  0  0
  134.9530   68.9110  223.5810 C   0  0  0  0  0  0  0  0  0  0  0  0
  134.4394   69.1487  224.5242 H   0  0  0  0  0  0  0  0  0  0  0  0
  134.7257   69.6645  222.8125 H   0  0  0  0  0  0  0  0  0  0  0  0
  134.4870   67.6030  223.0990 N   0  0  0  0  0  0  0  0  0  0  0  0
  134.6940   66.8780  223.8270 H   0  0  0  0  0  0  0  0  0  0  0  0
  135.1580   67.2270  221.8460 C   0  0  0  0  0  0  0  0  0  0  0  0
  134.7937   66.2392  221.5275 H   0  0  0  0  0  0  0  0  0  0  0  0
  134.9290   67.9908  221.0882 H   0  0  0  0  0  0  0  0  0  0  0  0
  136.6820   67.1640  222.0230 C   0  0  0  0  0  0  0  0  0  0  0  0
  136.9312   66.3746  222.7474 H   0  0  0  0  0  0  0  0  0  0  0  0
  137.1470   66.9428  221.0510 H   0  0  0  0  0  0  0  0  0  0  0  0
  139.7050   73.8270  221.9180 C   0  0  0  0  0  0  0  0  0  0  0  0
  140.7030   74.7530  221.9740 N   0  0  0  0  0  0  0  0  0  0  0  0
  140.4460   76.0860  222.0580 C   0  0  0  0  0  0  0  0  0  0  0  0
  141.2775   76.8047  222.1023 H   0  0  0  0  0  0  0  0  0  0  0  0
  139.1270   76.5420  222.0880 C   0  0  0  0  0  0  0  0  0  0  0  0
  138.9117   77.6186  222.1557 H   0  0  0  0  0  0  0  0  0  0  0  0
  138.0840   75.6150  222.0310 C   0  0  0  0  0  0  0  0  0  0  0  0
  137.0396   75.9594  222.0539 H   0  0  0  0  0  0  0  0  0  0  0  0
  138.3680   74.2510  221.9450 C   0  0  0  0  0  0  0  0  0  0  0  0
  137.5512   73.5156  221.8989 H   0  0  0  0  0  0  0  0  0  0  0  0
  1  2  1  0
  2  3  2  0
  3  4  1  0
  3  5  1  0
  5  6  2  0
  6  7  1  0
  7  8  2  0
  8  9  1  0
  8 10  1  0
 10 11  1  0
 10 12  2  0
 12 13  1  0
 12 14  1  0
 14 15  1  0
 14 16  2  0
 16 17  1  0
 17 18  2  0
 17 19  1  0
 19 20  1  0
 20 21  1  0
 20 22  1  0
 20 23  1  0
 23 24  1  0
 23 25  1  0
 25 26  1  0
 25 27  1  0
 25 28  1  0
 28 29  1  0
 28 30  1  0
 28 31  1  0
 31 32  1  0
 31 33  1  0
 33 34  1  0
 33 35  1  0
 33 36  1  0
 36 37  1  0
 36 38  1  0
  2 39  1  0
 39 40  2  0
 40 41  1  0
 41 42  1  0
 41 43  2  0
 43 44  1  0
 43 45  1  0
 45 46  1  0
 45 47  2  0
 47 48  1  0
 19  5  1  0
 36 23  1  0
 47 39  1  0
 16  7  1  0
M  END
>  <UniqueID>  (23) 
440

>  <SMILES>  (23) 
O=c1c2ccccc2nc(/C=C/c2ccccn2)n1CC1CCNCC1

>  <Energy>  (23) 
63.557462603764506

>  <Genealogy>  (23) 
O=c1c2ccccc2nc(/C=C/c2ccccn2)n1CC1CCNCC1 (cis-trans isomerization)
O=c1c2ccccc2nc(/C=C/c2ccccn2)n1CC1CCNCC1 (3D coordinates assigned)
O=c1c2ccccc2nc(/C=C/c2ccccn2)n1CC1CCNCC1 (nonaromatic ring conformer: 63.557462603764506 kcal/mol)

>  <smiles>  (23) 
O=c1c2ccccc2nc(/C=C/c2ccccn2)n1CC1CCNCC1

>  <score_type>  (23) 
oracle

>  <origin>  (23) 
autodockgpu

>  <m_score__min__energy>  (23) 
-7.9500000000000002

>  <m_primary>  (23) 
energy

>  <meeko>  (23) 
{"free_energy": -7.72, "intermolecular_energy": -9.21, "internal_energy": -1.08, "cluster_size": 7, "cluster_id": 2, "rank_in_cluster": 6}

>  <energy>  (23) 
-7.81

>  <cluster_rmsd>  (23) 
0.57

>  <rmsd>  (23) 
271.35

>  <cluster>  (23) 
1

$$$$
BQTJSOOYCKASGQ-CMDGGOBGNA-N
     RDKit          3D

 48 51  0  0  0  0  0  0  0  0999 V2000
  139.2317   68.4310  222.4898 H   0  0  0  0  0  0  0  0  0  0  0  0
  138.5580   68.4960  223.3570 C   0  0  0  0  0  0  0  0  0  0  0  0
  137.2380   68.5340  223.1450 C   0  0  0  0  0  0  0  0  0  0  0  0
  136.7596   67.7193  222.5817 H   0  0  0  0  0  0  0  0  0  0  0  0
  136.4110   69.6440  223.6500 C   0  0  0  0  0  0  0  0  0  0  0  0
  135.8080   69.4580  224.8520 N   0  0  0  0  0  0  0  0  0  0  0  0
  135.0650   70.4240  225.4370 C   0  0  0  0  0  0  0  0  0  0  0  0
  134.4630   70.1890  226.6790 C   0  0  0  0  0  0  0  0  0  0  0  0
  134.5811   69.2125  227.1715 H   0  0  0  0  0  0  0  0  0  0  0  0
  133.7120   71.1950  227.2930 C   0  0  0  0  0  0  0  0  0  0  0  0
  133.2392   71.0096  228.2687 H   0  0  0  0  0  0  0  0  0  0  0  0
  133.5610   72.4360  226.6690 C   0  0  0  0  0  0  0  0  0  0  0  0
  132.9686   73.2256  227.1544 H   0  0  0  0  0  0  0  0  0  0  0  0
  134.1610   72.6770  225.4290 C   0  0  0  0  0  0  0  0  0  0  0  0
  134.0424   73.6562  224.9422 H   0  0  0  0  0  0  0  0  0  0  0  0
  134.9170   71.6670  224.8030 C   0  0  0  0  0  0  0  0  0  0  0  0
  135.5300   71.8520  223.5510 C   0  0  0  0  0  0  0  0  0  0  0  0
  135.4190   72.9690  222.9710 O   0  0  0  0  0  0  0  0  0  0  0  0
  136.2370   70.8280  222.9590 N   0  0  0  0  0  0  0  0  0  0  0  0
  136.7680   71.0130  221.5850 C   0  0  0  0  0  0  0  0  0  0  0  0
  136.9566   70.0210  221.1488 H   0  0  0  0  0  0  0  0  0  0  0  0
  136.0133   71.5816  221.0219 H   0  0  0  0  0  0  0  0  0  0  0  0
  138.0850   71.8300  221.5320 C   0  0  0  0  0  0  0  0  0  0  0  0
  138.6641   71.3628  220.7218 H   0  0  0  0  0  0  0  0  0  0  0  0
  138.9120   71.7290  222.8250 C   0  0  0  0  0  0  0  0  0  0  0  0
  138.3284   72.1389  223.6625 H   0  0  0  0  0  0  0  0  0  0  0  0
  139.1520   70.6726  223.0158 H   0  0  0  0  0  0  0  0  0  0  0  0
  140.2200   72.5220  222.6820 C   0  0  0  0  0  0  0  0  0  0  0  0
  140.7708   72.4785  223.6332 H   0  0  0  0  0  0  0  0  0  0  0  0
  140.8096   72.0737  221.8688 H   0  0  0  0  0  0  0  0  0  0  0  0
  139.9600   73.9280  222.3440 N   0  0  0  0  0  0  0  0  0  0  0  0
  139.4030   74.3660  223.1160 H   0  0  0  0  0  0  0  0  0  0  0  0
  139.2080   74.0430  221.0870 C   0  0  0  0  0  0  0  0  0  0  0  0
  139.0225   75.1067  220.8771 H   0  0  0  0  0  0  0  0  0  0  0  0
  139.8041   73.5845  220.2842 H   0  0  0  0  0  0  0  0  0  0  0  0
  137.8620   73.3080  221.1690 C   0  0  0  0  0  0  0  0  0  0  0  0
  137.2361   73.7810  221.9400 H   0  0  0  0  0  0  0  0  0  0  0  0
  137.3614   73.3658  220.1912 H   0  0  0  0  0  0  0  0  0  0  0  0
  139.1450   68.5380  224.7110 C   0  0  0  0  0  0  0  0  0  0  0  0
  139.4770   67.3880  225.3630 N   0  0  0  0  0  0  0  0  0  0  0  0
  140.0240   67.3970  226.6080 C   0  0  0  0  0  0  0  0  0  0  0  0
  140.2789   66.4487  227.1037 H   0  0  0  0  0  0  0  0  0  0  0  0
  140.2620   68.6100  227.2570 C   0  0  0  0  0  0  0  0  0  0  0  0
  140.7037   68.6247  228.2643 H   0  0  0  0  0  0  0  0  0  0  0  0
  139.9330   69.8040  226.6130 C   0  0  0  0  0  0  0  0  0  0  0  0
  140.1155   70.7672  227.1119 H   0  0  0  0  0  0  0  0  0  0  0  0
  139.3720   69.7740  225.3350 C   0  0  0  0  0  0  0  0  0  0  0  0
  139.1102   70.7111  224.8218 H   0  0  0  0  0  0  0  0  0  0  0  0
  1  2  1  0
  2  3  2  0
  3  4  1  0
  3  5  1  0
  5  6  2  0
  6  7  1  0
  7  8  2  0
  8  9  1  0
  8 10  1  0
 10 11  1  0
 10 12  2  0
 12 13  1  0
 12 14  1  0
 14 15  1  0
 14 16  2  0
 16 17  1  0
 17 18  2  0
 17 19  1  0
 19 20  1  0
 20 21  1  0
 20 22  1  0
 20 23  1  0
 23 24  1  0
 23 25  1  0
 25 26  1  0
 25 27  1  0
 25 28  1  0
 28 29  1  0
 28 30  1  0
 28 31  1  0
 31 32  1  0
 31 33  1  0
 33 34  1  0
 33 35  1  0
 33 36  1  0
 36 37  1  0
 36 38  1  0
  2 39  1  0
 39 40  2  0
 40 41  1  0
 41 42  1  0
 41 43  2  0
 43 44  1  0
 43 45  1  0
 45 46  1  0
 45 47  2  0
 47 48  1  0
 19  5  1  0
 36 23  1  0
 47 39  1  0
 16  7  1  0
M  END
>  <UniqueID>  (24) 
440

>  <SMILES>  (24) 
O=c1c2ccccc2nc(/C=C/c2ccccn2)n1CC1CCNCC1

>  <Energy>  (24) 
63.557462603764506

>  <Genealogy>  (24) 
O=c1c2ccccc2nc(/C=C/c2ccccn2)n1CC1CCNCC1 (cis-trans isomerization)
O=c1c2ccccc2nc(/C=C/c2ccccn2)n1CC1CCNCC1 (3D coordinates assigned)
O=c1c2ccccc2nc(/C=C/c2ccccn2)n1CC1CCNCC1 (nonaromatic ring conformer: 63.557462603764506 kcal/mol)

>  <smiles>  (24) 
O=c1c2ccccc2nc(/C=C/c2ccccn2)n1CC1CCNCC1

>  <score_type>  (24) 
oracle

>  <origin>  (24) 
autodockgpu

>  <m_score__min__energy>  (24) 
-7.9500000000000002

>  <m_primary>  (24) 
energy

>  <meeko>  (24) 
{"free_energy": -6.95, "intermolecular_energy": -8.44, "internal_energy": -1.62, "cluster_size": 4, "cluster_id": 3, "rank_in_cluster": 1}

>  <energy>  (24) 
-7.92

>  <cluster_rmsd>  (24) 
0.0

>  <rmsd>  (24) 
270.93

>  <cluster>  (24) 
2

$$$$
BQTJSOOYCKASGQ-CMDGGOBGNA-N
     RDKit          3D

 48 51  0  0  0  0  0  0  0  0999 V2000
  138.6553   73.3136  222.8102 H   0  0  0  0  0  0  0  0  0  0  0  0
  139.4240   72.6690  222.3590 C   0  0  0  0  0  0  0  0  0  0  0  0
  139.2660   71.3410  222.4150 C   0  0  0  0  0  0  0  0  0  0  0  0
  138.9156   70.8018  221.5225 H   0  0  0  0  0  0  0  0  0  0  0  0
  139.5520   70.5870  223.6480 C   0  0  0  0  0  0  0  0  0  0  0  0
  140.0950   71.2830  224.6780 N   0  0  0  0  0  0  0  0  0  0  0  0
  140.3550   70.7080  225.8740 C   0  0  0  0  0  0  0  0  0  0  0  0
  140.9140   71.4660  226.9100 C   0  0  0  0  0  0  0  0  0  0  0  0
  141.1563   72.5264  226.7465 H   0  0  0  0  0  0  0  0  0  0  0  0
  141.1640   70.8760  228.1510 C   0  0  0  0  0  0  0  0  0  0  0  0
  141.6041   71.4724  228.9638 H   0  0  0  0  0  0  0  0  0  0  0  0
  140.8560   69.5290  228.3620 C   0  0  0  0  0  0  0  0  0  0  0  0
  141.0543   69.0673  229.3405 H   0  0  0  0  0  0  0  0  0  0  0  0
  140.2960   68.7670  227.3310 C   0  0  0  0  0  0  0  0  0  0  0  0
  140.0522   67.7079  227.5009 H   0  0  0  0  0  0  0  0  0  0  0  0
  140.0440   69.3540  226.0760 C   0  0  0  0  0  0  0  0  0  0  0  0
  139.4940   68.6310  225.0030 C   0  0  0  0  0  0  0  0  0  0  0  0
  139.1960   67.4150  225.1700 O   0  0  0  0  0  0  0  0  0  0  0  0
  139.2910   69.2350  223.7820 N   0  0  0  0  0  0  0  0  0  0  0  0
  138.8260   68.4160  222.6340 C   0  0  0  0  0  0  0  0  0  0  0  0
  139.2767   68.8183  221.7148 H   0  0  0  0  0  0  0  0  0  0  0  0
  139.1342   67.3788  222.8321 H   0  0  0  0  0  0  0  0  0  0  0  0
  137.2850   68.4070  222.4610 C   0  0  0  0  0  0  0  0  0  0  0  0
  137.0966   69.1311  221.6547 H   0  0  0  0  0  0  0  0  0  0  0  0
  136.5320   68.8860  223.7140 C   0  0  0  0  0  0  0  0  0  0  0  0
  136.7525   68.2078  224.5515 H   0  0  0  0  0  0  0  0  0  0  0  0
  136.8593   69.9069  223.9603 H   0  0  0  0  0  0  0  0  0  0  0  0
  135.0190   68.8950  223.4540 C   0  0  0  0  0  0  0  0  0  0  0  0
  134.4991   69.1915  224.3769 H   0  0  0  0  0  0  0  0  0  0  0  0
  134.8116   69.6081  222.6426 H   0  0  0  0  0  0  0  0  0  0  0  0
  134.5380   67.5700  223.0390 N   0  0  0  0  0  0  0  0  0  0  0  0
  134.7260   66.8840  223.8080 H   0  0  0  0  0  0  0  0  0  0  0  0
  135.2160   67.1160  221.8170 C   0  0  0  0  0  0  0  0  0  0  0  0
  134.8398   66.1177  221.5489 H   0  0  0  0  0  0  0  0  0  0  0  0
  135.0070   67.8403  221.0159 H   0  0  0  0  0  0  0  0  0  0  0  0
  136.7380   67.0400  222.0150 C   0  0  0  0  0  0  0  0  0  0  0  0
  136.9671   66.2883  222.7847 H   0  0  0  0  0  0  0  0  0  0  0  0
  137.2101   66.7581  221.0623 H   0  0  0  0  0  0  0  0  0  0  0  0
  140.5920   73.3000  221.7140 C   0  0  0  0  0  0  0  0  0  0  0  0
  140.7260   74.6570  221.6900 N   0  0  0  0  0  0  0  0  0  0  0  0
  141.7940   75.2650  221.1080 C   0  0  0  0  0  0  0  0  0  0  0  0
  141.8682   76.3625  221.1070 H   0  0  0  0  0  0  0  0  0  0  0  0
  142.7960   74.4980  220.5120 C   0  0  0  0  0  0  0  0  0  0  0  0
  143.6620   74.9846  220.0396 H   0  0  0  0  0  0  0  0  0  0  0  0
  142.6870   73.1060  220.5220 C   0  0  0  0  0  0  0  0  0  0  0  0
  143.4691   72.4886  220.0559 H   0  0  0  0  0  0  0  0  0  0  0  0
  141.5830   72.4990  221.1250 C   0  0  0  0  0  0  0  0  0  0  0  0
  141.4909   71.4029  221.1382 H   0  0  0  0  0  0  0  0  0  0  0  0
  1  2  1  0
  2  3  2  0
  3  4  1  0
  3  5  1  0
  5  6  2  0
  6  7  1  0
  7  8  2  0
  8  9  1  0
  8 10  1  0
 10 11  1  0
 10 12  2  0
 12 13  1  0
 12 14  1  0
 14 15  1  0
 14 16  2  0
 16 17  1  0
 17 18  2  0
 17 19  1  0
 19 20  1  0
 20 21  1  0
 20 22  1  0
 20 23  1  0
 23 24  1  0
 23 25  1  0
 25 26  1  0
 25 27  1  0
 25 28  1  0
 28 29  1  0
 28 30  1  0
 28 31  1  0
 31 32  1  0
 31 33  1  0
 33 34  1  0
 33 35  1  0
 33 36  1  0
 36 37  1  0
 36 38  1  0
  2 39  1  0
 39 40  2  0
 40 41  1  0
 41 42  1  0
 41 43  2  0
 43 44  1  0
 43 45  1  0
 45 46  1  0
 45 47  2  0
 47 48  1  0
 19  5  1  0
 36 23  1  0
 47 39  1  0
 16  7  1  0
M  END
>  <UniqueID>  (25) 
440

>  <SMILES>  (25) 
O=c1c2ccccc2nc(/C=C/c2ccccn2)n1CC1CCNCC1

>  <Energy>  (25) 
63.557462603764506

>  <Genealogy>  (25) 
O=c1c2ccccc2nc(/C=C/c2ccccn2)n1CC1CCNCC1 (cis-trans isomerization)
O=c1c2ccccc2nc(/C=C/c2ccccn2)n1CC1CCNCC1 (3D coordinates assigned)
O=c1c2ccccc2nc(/C=C/c2ccccn2)n1CC1CCNCC1 (nonaromatic ring conformer: 63.557462603764506 kcal/mol)

>  <smiles>  (25) 
O=c1c2ccccc2nc(/C=C/c2ccccn2)n1CC1CCNCC1

>  <score_type>  (25) 
oracle

>  <origin>  (25) 
autodockgpu

>  <m_score__min__energy>  (25) 
-7.9500000000000002

>  <m_primary>  (25) 
energy

>  <meeko>  (25) 
{"free_energy": -7.55, "intermolecular_energy": -9.04, "internal_energy": -1.09, "cluster_size": 7, "cluster_id": 2, "rank_in_cluster": 7}

>  <energy>  (25) 
-7.91

>  <cluster_rmsd>  (25) 
0.07

>  <rmsd>  (25) 
270.89

>  <cluster>  (25) 
2

$$$$
BQTJSOOYCKASGQ-CMDGGOBGNA-N
     RDKit          3D

 48 51  0  0  0  0  0  0  0  0999 V2000
  140.6897   71.4164  221.2590 H   0  0  0  0  0  0  0  0  0  0  0  0
  140.1110   72.1440  221.8470 C   0  0  0  0  0  0  0  0  0  0  0  0
  139.1460   71.6950  222.6580 C   0  0  0  0  0  0  0  0  0  0  0  0
  138.0981   71.9482  222.4394 H   0  0  0  0  0  0  0  0  0  0  0  0
  139.4570   70.8690  223.8370 C   0  0  0  0  0  0  0  0  0  0  0  0
  140.0920   71.4860  224.8650 N   0  0  0  0  0  0  0  0  0  0  0  0
  140.3860   70.8420  226.0170 C   0  0  0  0  0  0  0  0  0  0  0  0
  141.0390   71.5200  227.0530 C   0  0  0  0  0  0  0  0  0  0  0  0
  141.3277   72.5737  226.9248 H   0  0  0  0  0  0  0  0  0  0  0  0
  141.3240   70.8580  228.2500 C   0  0  0  0  0  0  0  0  0  0  0  0
  141.8389   71.3908  229.0630 H   0  0  0  0  0  0  0  0  0  0  0  0
  140.9560   69.5200  228.4160 C   0  0  0  0  0  0  0  0  0  0  0  0
  141.1819   69.0019  229.3597 H   0  0  0  0  0  0  0  0  0  0  0  0
  140.3010   68.8380  227.3850 C   0  0  0  0  0  0  0  0  0  0  0  0
  140.0107   67.7856  227.5200 H   0  0  0  0  0  0  0  0  0  0  0  0
  140.0130   69.4970  226.1750 C   0  0  0  0  0  0  0  0  0  0  0  0
  139.3690   68.8550  225.1030 C   0  0  0  0  0  0  0  0  0  0  0  0
  139.0150   67.6490  225.2310 O   0  0  0  0  0  0  0  0  0  0  0  0
  139.1330   69.5270  223.9240 N   0  0  0  0  0  0  0  0  0  0  0  0
  138.5630   68.7890  222.7690 C   0  0  0  0  0  0  0  0  0  0  0  0
  138.8940   69.2829  221.8435 H   0  0  0  0  0  0  0  0  0  0  0  0
  138.9211   67.7515  222.8417 H   0  0  0  0  0  0  0  0  0  0  0  0
  137.0130   68.7350  222.7680 C   0  0  0  0  0  0  0  0  0  0  0  0
  136.7104   69.5839  222.1372 H   0  0  0  0  0  0  0  0  0  0  0  0
  136.4000   68.9380  224.1650 C   0  0  0  0  0  0  0  0  0  0  0  0
  136.7364   68.1292  224.8303 H   0  0  0  0  0  0  0  0  0  0  0  0
  136.7257   69.9109  224.5616 H   0  0  0  0  0  0  0  0  0  0  0  0
  134.8670   68.9200  224.0800 C   0  0  0  0  0  0  0  0  0  0  0  0
  134.4512   69.0162  225.0938 H   0  0  0  0  0  0  0  0  0  0  0  0
  134.5455   69.7588  223.4451 H   0  0  0  0  0  0  0  0  0  0  0  0
  134.3780   67.6710  223.4790 N   0  0  0  0  0  0  0  0  0  0  0  0
  134.6750   66.8660  224.0800 H   0  0  0  0  0  0  0  0  0  0  0  0
  134.9200   67.4830  222.1260 C   0  0  0  0  0  0  0  0  0  0  0  0
  134.5433   66.5333  221.7184 H   0  0  0  0  0  0  0  0  0  0  0  0
  134.5976   68.3304  221.5032 H   0  0  0  0  0  0  0  0  0  0  0  0
  136.4560   67.4480  222.1370 C   0  0  0  0  0  0  0  0  0  0  0  0
  136.7953   66.5804  222.7219 H   0  0  0  0  0  0  0  0  0  0  0  0
  136.8202   67.3694  221.1020 H   0  0  0  0  0  0  0  0  0  0  0  0
  140.4280   73.5800  221.7120 C   0  0  0  0  0  0  0  0  0  0  0  0
  139.6730   74.5230  222.3430 N   0  0  0  0  0  0  0  0  0  0  0  0
  139.9460   75.8510  222.2410 C   0  0  0  0  0  0  0  0  0  0  0  0
  139.3146   76.5838  222.7648 H   0  0  0  0  0  0  0  0  0  0  0  0
  141.0270   76.2850  221.4720 C   0  0  0  0  0  0  0  0  0  0  0  0
  141.2524   77.3581  221.3845 H   0  0  0  0  0  0  0  0  0  0  0  0
  141.8190   75.3410  220.8150 C   0  0  0  0  0  0  0  0  0  0  0  0
  142.6748   75.6679  220.2062 H   0  0  0  0  0  0  0  0  0  0  0  0
  141.5230   73.9820  220.9320 C   0  0  0  0  0  0  0  0  0  0  0  0
  142.1426   73.2328  220.4174 H   0  0  0  0  0  0  0  0  0  0  0  0
  1  2  1  0
  2  3  2  0
  3  4  1  0
  3  5  1  0
  5  6  2  0
  6  7  1  0
  7  8  2  0
  8  9  1  0
  8 10  1  0
 10 11  1  0
 10 12  2  0
 12 13  1  0
 12 14  1  0
 14 15  1  0
 14 16  2  0
 16 17  1  0
 17 18  2  0
 17 19  1  0
 19 20  1  0
 20 21  1  0
 20 22  1  0
 20 23  1  0
 23 24  1  0
 23 25  1  0
 25 26  1  0
 25 27  1  0
 25 28  1  0
 28 29  1  0
 28 30  1  0
 28 31  1  0
 31 32  1  0
 31 33  1  0
 33 34  1  0
 33 35  1  0
 33 36  1  0
 36 37  1  0
 36 38  1  0
  2 39  1  0
 39 40  2  0
 40 41  1  0
 41 42  1  0
 41 43  2  0
 43 44  1  0
 43 45  1  0
 45 46  1  0
 45 47  2  0
 47 48  1  0
 19  5  1  0
 36 23  1  0
 47 39  1  0
 16  7  1  0
M  END
>  <UniqueID>  (26) 
440

>  <SMILES>  (26) 
O=c1c2ccccc2nc(/C=C/c2ccccn2)n1CC1CCNCC1

>  <Energy>  (26) 
63.557462603764506

>  <Genealogy>  (26) 
O=c1c2ccccc2nc(/C=C/c2ccccn2)n1CC1CCNCC1 (cis-trans isomerization)
O=c1c2ccccc2nc(/C=C/c2ccccn2)n1CC1CCNCC1 (3D coordinates assigned)
O=c1c2ccccc2nc(/C=C/c2ccccn2)n1CC1CCNCC1 (nonaromatic ring conformer: 63.557462603764506 kcal/mol)

>  <smiles>  (26) 
O=c1c2ccccc2nc(/C=C/c2ccccn2)n1CC1CCNCC1

>  <score_type>  (26) 
oracle

>  <origin>  (26) 
autodockgpu

>  <m_score__min__energy>  (26) 
-7.9500000000000002

>  <m_primary>  (26) 
energy

>  <meeko>  (26) 
{"free_energy": -7.9, "intermolecular_energy": -9.4, "internal_energy": -0.98, "cluster_size": 7, "cluster_id": 2, "rank_in_cluster": 4}

>  <energy>  (26) 
-7.9

>  <cluster_rmsd>  (26) 
0.16

>  <rmsd>  (26) 
270.87

>  <cluster>  (26) 
2

$$$$
BQTJSOOYCKASGQ-CMDGGOBGNA-N
     RDKit          3D

 48 51  0  0  0  0  0  0  0  0999 V2000
  139.2734   68.2729  222.5768 H   0  0  0  0  0  0  0  0  0  0  0  0
  138.5550   68.4290  223.3950 C   0  0  0  0  0  0  0  0  0  0  0  0
  137.2530   68.5220  223.1000 C   0  0  0  0  0  0  0  0  0  0  0  0
  136.7890   67.7547  222.4629 H   0  0  0  0  0  0  0  0  0  0  0  0
  136.4280   69.6310  223.6110 C   0  0  0  0  0  0  0  0  0  0  0  0
  135.8200   69.4360  224.8080 N   0  0  0  0  0  0  0  0  0  0  0  0
  135.0770   70.3990  225.3990 C   0  0  0  0  0  0  0  0  0  0  0  0
  134.4690   70.1560  226.6360 C   0  0  0  0  0  0  0  0  0  0  0  0
  134.5823   69.1753  227.1211 H   0  0  0  0  0  0  0  0  0  0  0  0
  133.7180   71.1590  227.2550 C   0  0  0  0  0  0  0  0  0  0  0  0
  133.2395   70.9662  228.2265 H   0  0  0  0  0  0  0  0  0  0  0  0
  133.5740   72.4060  226.6420 C   0  0  0  0  0  0  0  0  0  0  0  0
  132.9827   73.1933  227.1323 H   0  0  0  0  0  0  0  0  0  0  0  0
  134.1800   72.6560  225.4060 C   0  0  0  0  0  0  0  0  0  0  0  0
  134.0661   73.6397  224.9272 H   0  0  0  0  0  0  0  0  0  0  0  0
  134.9360   71.6490  224.7740 C   0  0  0  0  0  0  0  0  0  0  0  0
  135.5550   71.8430  223.5270 C   0  0  0  0  0  0  0  0  0  0  0  0
  135.4500   72.9650  222.9560 O   0  0  0  0  0  0  0  0  0  0  0  0
  136.2600   70.8220  222.9290 N   0  0  0  0  0  0  0  0  0  0  0  0
  136.7980   71.0160  221.5590 C   0  0  0  0  0  0  0  0  0  0  0  0
  136.9933   70.0269  221.1191 H   0  0  0  0  0  0  0  0  0  0  0  0
  136.0440   71.5843  220.9946 H   0  0  0  0  0  0  0  0  0  0  0  0
  138.1120   71.8390  221.5170 C   0  0  0  0  0  0  0  0  0  0  0  0
  138.7033   71.3696  220.7170 H   0  0  0  0  0  0  0  0  0  0  0  0
  138.9230   71.7500  222.8210 C   0  0  0  0  0  0  0  0  0  0  0  0
  138.3268   72.1624  223.6483 H   0  0  0  0  0  0  0  0  0  0  0  0
  139.1654   70.6959  223.0212 H   0  0  0  0  0  0  0  0  0  0  0  0
  140.2290   72.5480  222.6900 C   0  0  0  0  0  0  0  0  0  0  0  0
  140.7677   72.5128  223.6484 H   0  0  0  0  0  0  0  0  0  0  0  0
  140.8311   72.0974  221.8872 H   0  0  0  0  0  0  0  0  0  0  0  0
  139.9670   73.9510  222.3400 N   0  0  0  0  0  0  0  0  0  0  0  0
  139.3980   74.3910  223.1010 H   0  0  0  0  0  0  0  0  0  0  0  0
  139.2300   74.0550  221.0720 C   0  0  0  0  0  0  0  0  0  0  0  0
  139.0415   75.1165  220.8536 H   0  0  0  0  0  0  0  0  0  0  0  0
  139.8385   73.5955  220.2792 H   0  0  0  0  0  0  0  0  0  0  0  0
  137.8870   73.3130  221.1420 C   0  0  0  0  0  0  0  0  0  0  0  0
  137.2491   73.7877  221.9021 H   0  0  0  0  0  0  0  0  0  0  0  0
  137.3990   73.3618  220.1574 H   0  0  0  0  0  0  0  0  0  0  0  0
  139.0630   68.5280  224.7770 C   0  0  0  0  0  0  0  0  0  0  0  0
  139.2050   67.4130  225.5490 N   0  0  0  0  0  0  0  0  0  0  0  0
  139.6750   67.4730  226.8230 C   0  0  0  0  0  0  0  0  0  0  0  0
  139.7749   66.5520  227.4161 H   0  0  0  0  0  0  0  0  0  0  0  0
  140.0310   68.7030  227.3790 C   0  0  0  0  0  0  0  0  0  0  0  0
  140.4117   68.7588  228.4095 H   0  0  0  0  0  0  0  0  0  0  0  0
  139.8980   69.8620  226.6110 C   0  0  0  0  0  0  0  0  0  0  0  0
  140.1752   70.8384  227.0351 H   0  0  0  0  0  0  0  0  0  0  0  0
  139.4130   69.7800  225.3050 C   0  0  0  0  0  0  0  0  0  0  0  0
  139.3060   70.6890  224.6948 H   0  0  0  0  0  0  0  0  0  0  0  0
  1  2  1  0
  2  3  2  0
  3  4  1  0
  3  5  1  0
  5  6  2  0
  6  7  1  0
  7  8  2  0
  8  9  1  0
  8 10  1  0
 10 11  1  0
 10 12  2  0
 12 13  1  0
 12 14  1  0
 14 15  1  0
 14 16  2  0
 16 17  1  0
 17 18  2  0
 17 19  1  0
 19 20  1  0
 20 21  1  0
 20 22  1  0
 20 23  1  0
 23 24  1  0
 23 25  1  0
 25 26  1  0
 25 27  1  0
 25 28  1  0
 28 29  1  0
 28 30  1  0
 28 31  1  0
 31 32  1  0
 31 33  1  0
 33 34  1  0
 33 35  1  0
 33 36  1  0
 36 37  1  0
 36 38  1  0
  2 39  1  0
 39 40  2  0
 40 41  1  0
 41 42  1  0
 41 43  2  0
 43 44  1  0
 43 45  1  0
 45 46  1  0
 45 47  2  0
 47 48  1  0
 19  5  1  0
 36 23  1  0
 47 39  1  0
 16  7  1  0
M  END
>  <UniqueID>  (27) 
440

>  <SMILES>  (27) 
O=c1c2ccccc2nc(/C=C/c2ccccn2)n1CC1CCNCC1

>  <Energy>  (27) 
63.557462603764506

>  <Genealogy>  (27) 
O=c1c2ccccc2nc(/C=C/c2ccccn2)n1CC1CCNCC1 (cis-trans isomerization)
O=c1c2ccccc2nc(/C=C/c2ccccn2)n1CC1CCNCC1 (3D coordinates assigned)
O=c1c2ccccc2nc(/C=C/c2ccccn2)n1CC1CCNCC1 (nonaromatic ring conformer: 63.557462603764506 kcal/mol)

>  <smiles>  (27) 
O=c1c2ccccc2nc(/C=C/c2ccccn2)n1CC1CCNCC1

>  <score_type>  (27) 
oracle

>  <origin>  (27) 
autodockgpu

>  <m_score__min__energy>  (27) 
-7.9500000000000002

>  <m_primary>  (27) 
energy

>  <meeko>  (27) 
{"free_energy": -6.93, "intermolecular_energy": -8.43, "internal_energy": -1.67, "cluster_size": 4, "cluster_id": 3, "rank_in_cluster": 2}

>  <energy>  (27) 
-7.9

>  <cluster_rmsd>  (27) 
0.09

>  <rmsd>  (27) 
270.88

>  <cluster>  (27) 
2

$$$$
BQTJSOOYCKASGQ-CMDGGOBGNA-N
     RDKit          3D

 48 51  0  0  0  0  0  0  0  0999 V2000
  141.3415   80.6531  219.1406 H   0  0  0  0  0  0  0  0  0  0  0  0
  141.0790   80.0160  219.9980 C   0  0  0  0  0  0  0  0  0  0  0  0
  140.2760   78.9650  219.7970 C   0  0  0  0  0  0  0  0  0  0  0  0
  139.2841   79.1228  219.3485 H   0  0  0  0  0  0  0  0  0  0  0  0
  140.6930   77.6010  220.1640 C   0  0  0  0  0  0  0  0  0  0  0  0
  141.9190   77.2020  219.7410 N   0  0  0  0  0  0  0  0  0  0  0  0
  142.4280   75.9900  220.0580 C   0  0  0  0  0  0  0  0  0  0  0  0
  143.6990   75.6220  219.6010 C   0  0  0  0  0  0  0  0  0  0  0  0
  144.2781   76.3127  218.9704 H   0  0  0  0  0  0  0  0  0  0  0  0
  144.2320   74.3770  219.9460 C   0  0  0  0  0  0  0  0  0  0  0  0
  145.2308   74.0885  219.5865 H   0  0  0  0  0  0  0  0  0  0  0  0
  143.4980   73.4980  220.7470 C   0  0  0  0  0  0  0  0  0  0  0  0
  143.9200   72.5185  221.0163 H   0  0  0  0  0  0  0  0  0  0  0  0
  142.2280   73.8610  221.2070 C   0  0  0  0  0  0  0  0  0  0  0  0
  141.6540   73.1676  221.8392 H   0  0  0  0  0  0  0  0  0  0  0  0
  141.6830   75.1130  220.8620 C   0  0  0  0  0  0  0  0  0  0  0  0
  140.4060   75.5220  221.2870 C   0  0  0  0  0  0  0  0  0  0  0  0
  139.7270   74.7510  222.0210 O   0  0  0  0  0  0  0  0  0  0  0  0
  139.8980   76.7430  220.9010 N   0  0  0  0  0  0  0  0  0  0  0  0
  138.5010   77.0940  221.2630 C   0  0  0  0  0  0  0  0  0  0  0  0
  138.0058   77.5110  220.3737 H   0  0  0  0  0  0  0  0  0  0  0  0
  138.0185   76.1711  221.6172 H   0  0  0  0  0  0  0  0  0  0  0  0
  138.3980   78.1300  222.4120 C   0  0  0  0  0  0  0  0  0  0  0  0
  137.7684   77.6377  223.1678 H   0  0  0  0  0  0  0  0  0  0  0  0
  137.7010   79.4350  221.9890 C   0  0  0  0  0  0  0  0  0  0  0  0
  138.2853   79.9166  221.1911 H   0  0  0  0  0  0  0  0  0  0  0  0
  136.6900   79.1996  221.6252 H   0  0  0  0  0  0  0  0  0  0  0  0
  137.5920   80.3920  223.1860 C   0  0  0  0  0  0  0  0  0  0  0  0
  137.1377   81.3357  222.8499 H   0  0  0  0  0  0  0  0  0  0  0  0
  136.9705   79.9135  223.9573 H   0  0  0  0  0  0  0  0  0  0  0  0
  138.9120   80.6760  223.7650 N   0  0  0  0  0  0  0  0  0  0  0  0
  139.5100   81.1380  223.0400 H   0  0  0  0  0  0  0  0  0  0  0  0
  139.5740   79.4430  224.2150 C   0  0  0  0  0  0  0  0  0  0  0  0
  140.5613   79.6971  224.6281 H   0  0  0  0  0  0  0  0  0  0  0  0
  138.9411   78.9695  224.9800 H   0  0  0  0  0  0  0  0  0  0  0  0
  139.7570   78.4510  223.0570 C   0  0  0  0  0  0  0  0  0  0  0  0
  140.4223   78.8937  222.3011 H   0  0  0  0  0  0  0  0  0  0  0  0
  140.1974   77.5215  223.4471 H   0  0  0  0  0  0  0  0  0  0  0  0
  141.6260   80.3530  221.3270 C   0  0  0  0  0  0  0  0  0  0  0  0
  141.3120   81.5330  221.9320 N   0  0  0  0  0  0  0  0  0  0  0  0
  141.7960   81.8660  223.1580 C   0  0  0  0  0  0  0  0  0  0  0  0
  141.5207   82.8279  223.6150 H   0  0  0  0  0  0  0  0  0  0  0  0
  142.6420   80.9880  223.8370 C   0  0  0  0  0  0  0  0  0  0  0  0
  143.0375   81.2521  224.8289 H   0  0  0  0  0  0  0  0  0  0  0  0
  142.9810   79.7700  223.2430 C   0  0  0  0  0  0  0  0  0  0  0  0
  143.6465   79.0677  223.7664 H   0  0  0  0  0  0  0  0  0  0  0  0
  142.4730   79.4460  221.9830 C   0  0  0  0  0  0  0  0  0  0  0  0
  142.7344   78.4885  221.5089 H   0  0  0  0  0  0  0  0  0  0  0  0
  1  2  1  0
  2  3  2  0
  3  4  1  0
  3  5  1  0
  5  6  2  0
  6  7  1  0
  7  8  2  0
  8  9  1  0
  8 10  1  0
 10 11  1  0
 10 12  2  0
 12 13  1  0
 12 14  1  0
 14 15  1  0
 14 16  2  0
 16 17  1  0
 17 18  2  0
 17 19  1  0
 19 20  1  0
 20 21  1  0
 20 22  1  0
 20 23  1  0
 23 24  1  0
 23 25  1  0
 25 26  1  0
 25 27  1  0
 25 28  1  0
 28 29  1  0
 28 30  1  0
 28 31  1  0
 31 32  1  0
 31 33  1  0
 33 34  1  0
 33 35  1  0
 33 36  1  0
 36 37  1  0
 36 38  1  0
  2 39  1  0
 39 40  2  0
 40 41  1  0
 41 42  1  0
 41 43  2  0
 43 44  1  0
 43 45  1  0
 45 46  1  0
 45 47  2  0
 47 48  1  0
 19  5  1  0
 36 23  1  0
 47 39  1  0
 16  7  1  0
M  END
>  <UniqueID>  (28) 
440

>  <SMILES>  (28) 
O=c1c2ccccc2nc(/C=C/c2ccccn2)n1CC1CCNCC1

>  <Energy>  (28) 
63.557462603764506

>  <Genealogy>  (28) 
O=c1c2ccccc2nc(/C=C/c2ccccn2)n1CC1CCNCC1 (cis-trans isomerization)
O=c1c2ccccc2nc(/C=C/c2ccccn2)n1CC1CCNCC1 (3D coordinates assigned)
O=c1c2ccccc2nc(/C=C/c2ccccn2)n1CC1CCNCC1 (nonaromatic ring conformer: 63.557462603764506 kcal/mol)

>  <smiles>  (28) 
O=c1c2ccccc2nc(/C=C/c2ccccn2)n1CC1CCNCC1

>  <score_type>  (28) 
oracle

>  <origin>  (28) 
autodockgpu

>  <m_score__min__energy>  (28) 
-7.9500000000000002

>  <m_primary>  (28) 
energy

>  <meeko>  (28) 
{"free_energy": -5.88, "intermolecular_energy": -7.37, "internal_energy": -2.51, "cluster_size": 2, "cluster_id": 6, "rank_in_cluster": 2}

>  <energy>  (28) 
-7.89

>  <cluster_rmsd>  (28) 
0.24

>  <rmsd>  (28) 
270.85

>  <cluster>  (28) 
2

$$$$
BQTJSOOYCKASGQ-CMDGGOBGNA-N
     RDKit          3D

 48 51  0  0  0  0  0  0  0  0999 V2000
  140.3931   71.3844  221.1631 H   0  0  0  0  0  0  0  0  0  0  0  0
  139.9180   72.1180  221.8310 C   0  0  0  0  0  0  0  0  0  0  0  0
  139.0070   71.6910  222.7130 C   0  0  0  0  0  0  0  0  0  0  0  0
  137.9497   71.9569  222.5668 H   0  0  0  0  0  0  0  0  0  0  0  0
  139.3910   70.8720  223.8760 C   0  0  0  0  0  0  0  0  0  0  0  0
  140.0060   71.5170  224.8990 N   0  0  0  0  0  0  0  0  0  0  0  0
  140.3600   70.8800  226.0380 C   0  0  0  0  0  0  0  0  0  0  0  0
  140.9910   71.5860  227.0700 C   0  0  0  0  0  0  0  0  0  0  0  0
  141.2127   72.6565  226.9483 H   0  0  0  0  0  0  0  0  0  0  0  0
  141.3390   70.9310  228.2540 C   0  0  0  0  0  0  0  0  0  0  0  0
  141.8355   71.4862  229.0635 H   0  0  0  0  0  0  0  0  0  0  0  0
  141.0570   69.5710  228.4110 C   0  0  0  0  0  0  0  0  0  0  0  0
  141.3323   69.0579  229.3443 H   0  0  0  0  0  0  0  0  0  0  0  0
  140.4260   68.8610  227.3850 C   0  0  0  0  0  0  0  0  0  0  0  0
  140.2034   67.7915  227.5137 H   0  0  0  0  0  0  0  0  0  0  0  0
  140.0750   69.5130  226.1870 C   0  0  0  0  0  0  0  0  0  0  0  0
  139.4510   68.8440  225.1200 C   0  0  0  0  0  0  0  0  0  0  0  0
  139.1750   67.6170  225.2410 O   0  0  0  0  0  0  0  0  0  0  0  0
  139.1510   69.5130  223.9530 N   0  0  0  0  0  0  0  0  0  0  0  0
  138.6060   68.7530  222.8000 C   0  0  0  0  0  0  0  0  0  0  0  0
  138.9566   69.2297  221.8727 H   0  0  0  0  0  0  0  0  0  0  0  0
  138.9627   67.7172  222.8998 H   0  0  0  0  0  0  0  0  0  0  0  0
  137.0570   68.6980  222.7670 C   0  0  0  0  0  0  0  0  0  0  0  0
  136.7683   69.5388  222.1191 H   0  0  0  0  0  0  0  0  0  0  0  0
  136.4140   68.9190  224.1480 C   0  0  0  0  0  0  0  0  0  0  0  0
  136.7365   68.1192  224.8308 H   0  0  0  0  0  0  0  0  0  0  0  0
  136.7308   69.8974  224.5383 H   0  0  0  0  0  0  0  0  0  0  0  0
  134.8830   68.8990  224.0310 C   0  0  0  0  0  0  0  0  0  0  0  0
  134.4460   69.0070  225.0347 H   0  0  0  0  0  0  0  0  0  0  0  0
  134.5748   69.7299  223.3794 H   0  0  0  0  0  0  0  0  0  0  0  0
  134.4070   67.6430  223.4350 N   0  0  0  0  0  0  0  0  0  0  0  0
  134.6910   66.8450  224.0510 H   0  0  0  0  0  0  0  0  0  0  0  0
  134.9780   67.4390  222.0960 C   0  0  0  0  0  0  0  0  0  0  0  0
  134.6098   66.4846  221.6916 H   0  0  0  0  0  0  0  0  0  0  0  0
  134.6693   68.2792  221.4566 H   0  0  0  0  0  0  0  0  0  0  0  0
  136.5130   67.4040  222.1400 C   0  0  0  0  0  0  0  0  0  0  0  0
  136.8395   66.5434  222.7424 H   0  0  0  0  0  0  0  0  0  0  0  0
  136.8990   67.3130  221.1140 H   0  0  0  0  0  0  0  0  0  0  0  0
  140.3090   73.5370  221.7210 C   0  0  0  0  0  0  0  0  0  0  0  0
  139.5770   74.5110  222.3330 N   0  0  0  0  0  0  0  0  0  0  0  0
  139.9180   75.8260  222.2530 C   0  0  0  0  0  0  0  0  0  0  0  0
  139.3035   76.5850  222.7592 H   0  0  0  0  0  0  0  0  0  0  0  0
  141.0470   76.2120  221.5290 C   0  0  0  0  0  0  0  0  0  0  0  0
  141.3277   77.2734  221.4603 H   0  0  0  0  0  0  0  0  0  0  0  0
  141.8160   75.2360  220.8930 C   0  0  0  0  0  0  0  0  0  0  0  0
  142.7086   75.5258  220.3191 H   0  0  0  0  0  0  0  0  0  0  0  0
  141.4510   73.8910  220.9860 C   0  0  0  0  0  0  0  0  0  0  0  0
  142.0529   73.1166  220.4879 H   0  0  0  0  0  0  0  0  0  0  0  0
  1  2  1  0
  2  3  2  0
  3  4  1  0
  3  5  1  0
  5  6  2  0
  6  7  1  0
  7  8  2  0
  8  9  1  0
  8 10  1  0
 10 11  1  0
 10 12  2  0
 12 13  1  0
 12 14  1  0
 14 15  1  0
 14 16  2  0
 16 17  1  0
 17 18  2  0
 17 19  1  0
 19 20  1  0
 20 21  1  0
 20 22  1  0
 20 23  1  0
 23 24  1  0
 23 25  1  0
 25 26  1  0
 25 27  1  0
 25 28  1  0
 28 29  1  0
 28 30  1  0
 28 31  1  0
 31 32  1  0
 31 33  1  0
 33 34  1  0
 33 35  1  0
 33 36  1  0
 36 37  1  0
 36 38  1  0
  2 39  1  0
 39 40  2  0
 40 41  1  0
 41 42  1  0
 41 43  2  0
 43 44  1  0
 43 45  1  0
 45 46  1  0
 45 47  2  0
 47 48  1  0
 19  5  1  0
 36 23  1  0
 47 39  1  0
 16  7  1  0
M  END
>  <UniqueID>  (29) 
440

>  <SMILES>  (29) 
O=c1c2ccccc2nc(/C=C/c2ccccn2)n1CC1CCNCC1

>  <Energy>  (29) 
63.557462603764506

>  <Genealogy>  (29) 
O=c1c2ccccc2nc(/C=C/c2ccccn2)n1CC1CCNCC1 (cis-trans isomerization)
O=c1c2ccccc2nc(/C=C/c2ccccn2)n1CC1CCNCC1 (3D coordinates assigned)
O=c1c2ccccc2nc(/C=C/c2ccccn2)n1CC1CCNCC1 (nonaromatic ring conformer: 63.557462603764506 kcal/mol)

>  <smiles>  (29) 
O=c1c2ccccc2nc(/C=C/c2ccccn2)n1CC1CCNCC1

>  <score_type>  (29) 
oracle

>  <origin>  (29) 
autodockgpu

>  <m_score__min__energy>  (29) 
-7.9500000000000002

>  <m_primary>  (29) 
energy

>  <meeko>  (29) 
{"free_energy": -7.91, "intermolecular_energy": -9.4, "internal_energy": -1.03, "cluster_size": 7, "cluster_id": 2, "rank_in_cluster": 2}

>  <energy>  (29) 
-7.72

>  <cluster_rmsd>  (29) 
0.73

>  <rmsd>  (29) 
270.71

>  <cluster>  (29) 
2

$$$$
BQTJSOOYCKASGQ-CMDGGOBGNA-N
     RDKit          3D

 48 51  0  0  0  0  0  0  0  0999 V2000
  143.5929   77.3990  217.1522 H   0  0  0  0  0  0  0  0  0  0  0  0
  143.5810   76.3010  217.0870 C   0  0  0  0  0  0  0  0  0  0  0  0
  142.6390   75.6270  217.7550 C   0  0  0  0  0  0  0  0  0  0  0  0
  142.1874   74.7353  217.2957 H   0  0  0  0  0  0  0  0  0  0  0  0
  142.1930   76.0530  219.0930 C   0  0  0  0  0  0  0  0  0  0  0  0
  142.2110   77.3860  219.3460 N   0  0  0  0  0  0  0  0  0  0  0  0
  141.7800   77.8980  220.5210 C   0  0  0  0  0  0  0  0  0  0  0  0
  141.8140   79.2810  220.7380 C   0  0  0  0  0  0  0  0  0  0  0  0
  142.2062   79.9506  219.9584 H   0  0  0  0  0  0  0  0  0  0  0  0
  141.3500   79.8100  221.9440 C   0  0  0  0  0  0  0  0  0  0  0  0
  141.3796   80.8963  222.1144 H   0  0  0  0  0  0  0  0  0  0  0  0
  140.8480   78.9620  222.9350 C   0  0  0  0  0  0  0  0  0  0  0  0
  140.4821   79.3822  223.8834 H   0  0  0  0  0  0  0  0  0  0  0  0
  140.8100   77.5800  222.7230 C   0  0  0  0  0  0  0  0  0  0  0  0
  140.4130   76.9154  223.5045 H   0  0  0  0  0  0  0  0  0  0  0  0
  141.2790   77.0380  221.5110 C   0  0  0  0  0  0  0  0  0  0  0  0
  141.2750   75.6560  221.2520 C   0  0  0  0  0  0  0  0  0  0  0  0
  140.8170   74.8680  222.1270 O   0  0  0  0  0  0  0  0  0  0  0  0
  141.7720   75.1650  220.0650 N   0  0  0  0  0  0  0  0  0  0  0  0
  141.8670   73.6960  219.8710 C   0  0  0  0  0  0  0  0  0  0  0  0
  141.2746   73.2027  220.6557 H   0  0  0  0  0  0  0  0  0  0  0  0
  141.4879   73.4790  218.8615 H   0  0  0  0  0  0  0  0  0  0  0  0
  143.3180   73.1530  219.9380 C   0  0  0  0  0  0  0  0  0  0  0  0
  143.2757   72.3530  220.6918 H   0  0  0  0  0  0  0  0  0  0  0  0
  144.3360   74.2030  220.4170 C   0  0  0  0  0  0  0  0  0  0  0  0
  144.3532   75.0427  219.7066 H   0  0  0  0  0  0  0  0  0  0  0  0
  144.0402   74.5603  221.4144 H   0  0  0  0  0  0  0  0  0  0  0  0
  145.7380   73.5830  220.5030 C   0  0  0  0  0  0  0  0  0  0  0  0
  146.4563   74.3623  220.7974 H   0  0  0  0  0  0  0  0  0  0  0  0
  145.7130   72.7733  221.2472 H   0  0  0  0  0  0  0  0  0  0  0  0
  146.1530   73.0130  219.2140 N   0  0  0  0  0  0  0  0  0  0  0  0
  146.1850   73.7780  218.4980 H   0  0  0  0  0  0  0  0  0  0  0  0
  145.2140   71.9760  218.7630 C   0  0  0  0  0  0  0  0  0  0  0  0
  145.5510   71.5863  217.7911 H   0  0  0  0  0  0  0  0  0  0  0  0
  145.1926   71.1763  219.5180 H   0  0  0  0  0  0  0  0  0  0  0  0
  143.7910   72.5360  218.6110 C   0  0  0  0  0  0  0  0  0  0  0  0
  143.7866   73.3094  217.8288 H   0  0  0  0  0  0  0  0  0  0  0  0
  143.1110   71.7171  218.3336 H   0  0  0  0  0  0  0  0  0  0  0  0
  144.6060   75.6270  216.2650 C   0  0  0  0  0  0  0  0  0  0  0  0
  145.2030   74.4810  216.6970 N   0  0  0  0  0  0  0  0  0  0  0  0
  146.1450   73.8360  215.9580 C   0  0  0  0  0  0  0  0  0  0  0  0
  146.6059   72.9129  216.3393 H   0  0  0  0  0  0  0  0  0  0  0  0
  146.5270   74.3450  214.7160 C   0  0  0  0  0  0  0  0  0  0  0  0
  147.2892   73.8286  214.1140 H   0  0  0  0  0  0  0  0  0  0  0  0
  145.9310   75.5170  214.2460 C   0  0  0  0  0  0  0  0  0  0  0  0
  146.2220   75.9297  213.2687 H   0  0  0  0  0  0  0  0  0  0  0  0
  144.9650   76.1640  215.0190 C   0  0  0  0  0  0  0  0  0  0  0  0
  144.4894   77.0866  214.6546 H   0  0  0  0  0  0  0  0  0  0  0  0
  1  2  1  0
  2  3  2  0
  3  4  1  0
  3  5  1  0
  5  6  2  0
  6  7  1  0
  7  8  2  0
  8  9  1  0
  8 10  1  0
 10 11  1  0
 10 12  2  0
 12 13  1  0
 12 14  1  0
 14 15  1  0
 14 16  2  0
 16 17  1  0
 17 18  2  0
 17 19  1  0
 19 20  1  0
 20 21  1  0
 20 22  1  0
 20 23  1  0
 23 24  1  0
 23 25  1  0
 25 26  1  0
 25 27  1  0
 25 28  1  0
 28 29  1  0
 28 30  1  0
 28 31  1  0
 31 32  1  0
 31 33  1  0
 33 34  1  0
 33 35  1  0
 33 36  1  0
 36 37  1  0
 36 38  1  0
  2 39  1  0
 39 40  2  0
 40 41  1  0
 41 42  1  0
 41 43  2  0
 43 44  1  0
 43 45  1  0
 45 46  1  0
 45 47  2  0
 47 48  1  0
 19  5  1  0
 36 23  1  0
 47 39  1  0
 16  7  1  0
M  END
>  <UniqueID>  (30) 
440

>  <SMILES>  (30) 
O=c1c2ccccc2nc(/C=C/c2ccccn2)n1CC1CCNCC1

>  <Energy>  (30) 
63.557462603764506

>  <Genealogy>  (30) 
O=c1c2ccccc2nc(/C=C/c2ccccn2)n1CC1CCNCC1 (cis-trans isomerization)
O=c1c2ccccc2nc(/C=C/c2ccccn2)n1CC1CCNCC1 (3D coordinates assigned)
O=c1c2ccccc2nc(/C=C/c2ccccn2)n1CC1CCNCC1 (nonaromatic ring conformer: 63.557462603764506 kcal/mol)

>  <smiles>  (30) 
O=c1c2ccccc2nc(/C=C/c2ccccn2)n1CC1CCNCC1

>  <score_type>  (30) 
oracle

>  <origin>  (30) 
autodockgpu

>  <m_score__min__energy>  (30) 
-7.9500000000000002

>  <m_primary>  (30) 
energy

>  <meeko>  (30) 
{"free_energy": -6.41, "intermolecular_energy": -7.9, "internal_energy": -2.14, "cluster_size": 3, "cluster_id": 5, "rank_in_cluster": 2}

>  <energy>  (30) 
-7.55

>  <cluster_rmsd>  (30) 
0.66

>  <rmsd>  (30) 
270.73

>  <cluster>  (30) 
2

$$$$
BQTJSOOYCKASGQ-CMDGGOBGNA-N
     RDKit          3D

 48 51  0  0  0  0  0  0  0  0999 V2000
  140.5850   71.4156  221.0385 H   0  0  0  0  0  0  0  0  0  0  0  0
  140.0480   72.1180  221.6930 C   0  0  0  0  0  0  0  0  0  0  0  0
  139.1070   71.6410  222.5160 C   0  0  0  0  0  0  0  0  0  0  0  0
  138.0467   71.8168  222.2816 H   0  0  0  0  0  0  0  0  0  0  0  0
  139.4620   70.8850  223.7300 C   0  0  0  0  0  0  0  0  0  0  0  0
  140.0920   71.5750  224.7150 N   0  0  0  0  0  0  0  0  0  0  0  0
  140.4230   70.9990  225.8930 C   0  0  0  0  0  0  0  0  0  0  0  0
  141.0700   71.7490  226.8830 C   0  0  0  0  0  0  0  0  0  0  0  0
  141.3239   72.8029  226.6966 H   0  0  0  0  0  0  0  0  0  0  0  0
  141.3930   71.1590  228.1070 C   0  0  0  0  0  0  0  0  0  0  0  0
  141.9019   71.7490  228.8835 H   0  0  0  0  0  0  0  0  0  0  0  0
  141.0710   69.8210  228.3470 C   0  0  0  0  0  0  0  0  0  0  0  0
  141.3276   69.3594  229.3119 H   0  0  0  0  0  0  0  0  0  0  0  0
  140.4230   69.0670  227.3630 C   0  0  0  0  0  0  0  0  0  0  0  0
  140.1684   68.0145  227.5566 H   0  0  0  0  0  0  0  0  0  0  0  0
  140.0960   69.6530  226.1250 C   0  0  0  0  0  0  0  0  0  0  0  0
  139.4570   68.9370  225.0980 C   0  0  0  0  0  0  0  0  0  0  0  0
  139.1440   67.7290  225.2930 O   0  0  0  0  0  0  0  0  0  0  0  0
  139.1820   69.5410  223.8900 N   0  0  0  0  0  0  0  0  0  0  0  0
  138.6190   68.7270  222.7830 C   0  0  0  0  0  0  0  0  0  0  0  0
  138.9712   69.1467  221.8292 H   0  0  0  0  0  0  0  0  0  0  0  0
  138.9609   67.6930  222.9376 H   0  0  0  0  0  0  0  0  0  0  0  0
  137.0690   68.6940  222.7610 C   0  0  0  0  0  0  0  0  0  0  0  0
  136.7872   69.5485  222.1282 H   0  0  0  0  0  0  0  0  0  0  0  0
  136.4390   68.9030  224.1490 C   0  0  0  0  0  0  0  0  0  0  0  0
  136.7545   68.0882  224.8173 H   0  0  0  0  0  0  0  0  0  0  0  0
  136.7726   69.8707  224.5517 H   0  0  0  0  0  0  0  0  0  0  0  0
  134.9070   68.9070  224.0430 C   0  0  0  0  0  0  0  0  0  0  0  0
  134.4785   69.0072  225.0511 H   0  0  0  0  0  0  0  0  0  0  0  0
  134.6056   69.7515  223.4059 H   0  0  0  0  0  0  0  0  0  0  0  0
  134.4100   67.6660  223.4330 N   0  0  0  0  0  0  0  0  0  0  0  0
  134.6870   66.8550  224.0350 H   0  0  0  0  0  0  0  0  0  0  0  0
  134.9680   67.4730  222.0860 C   0  0  0  0  0  0  0  0  0  0  0  0
  134.5835   66.5297  221.6709 H   0  0  0  0  0  0  0  0  0  0  0  0
  134.6662   68.3259  221.4603 H   0  0  0  0  0  0  0  0  0  0  0  0
  136.5030   67.4160  222.1190 C   0  0  0  0  0  0  0  0  0  0  0  0
  136.8215   66.5425  222.7068 H   0  0  0  0  0  0  0  0  0  0  0  0
  136.8811   67.3342  221.0893 H   0  0  0  0  0  0  0  0  0  0  0  0
  140.3920   73.5520  221.6310 C   0  0  0  0  0  0  0  0  0  0  0  0
  139.6430   74.4780  222.2930 N   0  0  0  0  0  0  0  0  0  0  0  0
  139.9410   75.8050  222.2590 C   0  0  0  0  0  0  0  0  0  0  0  0
  139.3138   76.5239  222.8065 H   0  0  0  0  0  0  0  0  0  0  0  0
  141.0430   76.2540  221.5290 C   0  0  0  0  0  0  0  0  0  0  0  0
  141.2885   77.3257  221.4955 H   0  0  0  0  0  0  0  0  0  0  0  0
  141.8300   75.3280  220.8420 C   0  0  0  0  0  0  0  0  0  0  0  0
  142.7021   75.6674  220.2639 H   0  0  0  0  0  0  0  0  0  0  0  0
  141.5080   73.9700  220.8900 C   0  0  0  0  0  0  0  0  0  0  0  0
  142.1237   73.2344  220.3517 H   0  0  0  0  0  0  0  0  0  0  0  0
  1  2  1  0
  2  3  2  0
  3  4  1  0
  3  5  1  0
  5  6  2  0
  6  7  1  0
  7  8  2  0
  8  9  1  0
  8 10  1  0
 10 11  1  0
 10 12  2  0
 12 13  1  0
 12 14  1  0
 14 15  1  0
 14 16  2  0
 16 17  1  0
 17 18  2  0
 17 19  1  0
 19 20  1  0
 20 21  1  0
 20 22  1  0
 20 23  1  0
 23 24  1  0
 23 25  1  0
 25 26  1  0
 25 27  1  0
 25 28  1  0
 28 29  1  0
 28 30  1  0
 28 31  1  0
 31 32  1  0
 31 33  1  0
 33 34  1  0
 33 35  1  0
 33 36  1  0
 36 37  1  0
 36 38  1  0
  2 39  1  0
 39 40  2  0
 40 41  1  0
 41 42  1  0
 41 43  2  0
 43 44  1  0
 43 45  1  0
 45 46  1  0
 45 47  2  0
 47 48  1  0
 19  5  1  0
 36 23  1  0
 47 39  1  0
 16  7  1  0
M  END
>  <UniqueID>  (31) 
440

>  <SMILES>  (31) 
O=c1c2ccccc2nc(/C=C/c2ccccn2)n1CC1CCNCC1

>  <Energy>  (31) 
63.557462603764506

>  <Genealogy>  (31) 
O=c1c2ccccc2nc(/C=C/c2ccccn2)n1CC1CCNCC1 (cis-trans isomerization)
O=c1c2ccccc2nc(/C=C/c2ccccn2)n1CC1CCNCC1 (3D coordinates assigned)
O=c1c2ccccc2nc(/C=C/c2ccccn2)n1CC1CCNCC1 (nonaromatic ring conformer: 63.557462603764506 kcal/mol)

>  <smiles>  (31) 
O=c1c2ccccc2nc(/C=C/c2ccccn2)n1CC1CCNCC1

>  <score_type>  (31) 
oracle

>  <origin>  (31) 
autodockgpu

>  <m_score__min__energy>  (31) 
-7.9500000000000002

>  <m_primary>  (31) 
energy

>  <meeko>  (31) 
{"free_energy": -7.9, "intermolecular_energy": -9.4, "internal_energy": -1.02, "cluster_size": 7, "cluster_id": 2, "rank_in_cluster": 3}

>  <energy>  (31) 
-6.95

>  <cluster_rmsd>  (31) 
0.0

>  <rmsd>  (31) 
270.37

>  <cluster>  (31) 
3

$$$$
BQTJSOOYCKASGQ-CMDGGOBGNA-N
     RDKit          3D

 48 51  0  0  0  0  0  0  0  0999 V2000
  143.4515   77.3835  217.0985 H   0  0  0  0  0  0  0  0  0  0  0  0
  143.5050   76.2850  217.0770 C   0  0  0  0  0  0  0  0  0  0  0  0
  142.6030   75.5820  217.7710 C   0  0  0  0  0  0  0  0  0  0  0  0
  142.1886   74.6601  217.3369 H   0  0  0  0  0  0  0  0  0  0  0  0
  142.1530   76.0170  219.1050 C   0  0  0  0  0  0  0  0  0  0  0  0
  142.1630   77.3530  219.3470 N   0  0  0  0  0  0  0  0  0  0  0  0
  141.7270   77.8720  220.5170 C   0  0  0  0  0  0  0  0  0  0  0  0
  141.7530   79.2570  220.7220 C   0  0  0  0  0  0  0  0  0  0  0  0
  142.1428   79.9220  219.9372 H   0  0  0  0  0  0  0  0  0  0  0  0
  141.2840   79.7940  221.9230 C   0  0  0  0  0  0  0  0  0  0  0  0
  141.3067   80.8820  222.0837 H   0  0  0  0  0  0  0  0  0  0  0  0
  140.7860   78.9520  222.9210 C   0  0  0  0  0  0  0  0  0  0  0  0
  140.4169   79.3785  223.8654 H   0  0  0  0  0  0  0  0  0  0  0  0
  140.7560   77.5670  222.7210 C   0  0  0  0  0  0  0  0  0  0  0  0
  140.3617   76.9067  223.5075 H   0  0  0  0  0  0  0  0  0  0  0  0
  141.2300   77.0180  221.5140 C   0  0  0  0  0  0  0  0  0  0  0  0
  141.2340   75.6340  221.2670 C   0  0  0  0  0  0  0  0  0  0  0  0
  140.7790   74.8510  222.1480 O   0  0  0  0  0  0  0  0  0  0  0  0
  141.7350   75.1350  220.0850 N   0  0  0  0  0  0  0  0  0  0  0  0
  141.8390   73.6650  219.9030 C   0  0  0  0  0  0  0  0  0  0  0  0
  141.2511   73.1744  220.6928 H   0  0  0  0  0  0  0  0  0  0  0  0
  141.4595   73.4371  218.8960 H   0  0  0  0  0  0  0  0  0  0  0  0
  143.2940   73.1320  219.9720 C   0  0  0  0  0  0  0  0  0  0  0  0
  143.2553   72.3292  220.7230 H   0  0  0  0  0  0  0  0  0  0  0  0
  144.3030   74.1870  220.4570 C   0  0  0  0  0  0  0  0  0  0  0  0
  144.3163   75.0291  219.7494 H   0  0  0  0  0  0  0  0  0  0  0  0
  144.0019   74.5390  221.4547 H   0  0  0  0  0  0  0  0  0  0  0  0
  145.7100   73.5760  220.5450 C   0  0  0  0  0  0  0  0  0  0  0  0
  146.4224   74.3590  220.8441 H   0  0  0  0  0  0  0  0  0  0  0  0
  145.6895   72.7638  221.2866 H   0  0  0  0  0  0  0  0  0  0  0  0
  146.1310   73.0140  219.2540 N   0  0  0  0  0  0  0  0  0  0  0  0
  146.1600   73.7820  218.5420 H   0  0  0  0  0  0  0  0  0  0  0  0
  145.2000   71.9730  218.7970 C   0  0  0  0  0  0  0  0  0  0  0  0
  145.5418   71.5893  217.8244 H   0  0  0  0  0  0  0  0  0  0  0  0
  145.1821   71.1705  219.5491 H   0  0  0  0  0  0  0  0  0  0  0  0
  143.7750   72.5230  218.6440 C   0  0  0  0  0  0  0  0  0  0  0  0
  143.7671   73.2992  217.8646 H   0  0  0  0  0  0  0  0  0  0  0  0
  143.1015   71.7002  218.3623 H   0  0  0  0  0  0  0  0  0  0  0  0
  144.5700   75.6400  216.2830 C   0  0  0  0  0  0  0  0  0  0  0  0
  145.1750   74.5010  216.7230 N   0  0  0  0  0  0  0  0  0  0  0  0
  146.1540   73.8830  216.0090 C   0  0  0  0  0  0  0  0  0  0  0  0
  146.6203   72.9647  216.3954 H   0  0  0  0  0  0  0  0  0  0  0  0
  146.5670   74.4140  214.7860 C   0  0  0  0  0  0  0  0  0  0  0  0
  147.3588   73.9198  214.2040 H   0  0  0  0  0  0  0  0  0  0  0  0
  145.9640   75.5790  214.3100 C   0  0  0  0  0  0  0  0  0  0  0  0
  146.2787   76.0082  213.3473 H   0  0  0  0  0  0  0  0  0  0  0  0
  144.9610   76.1990  215.0570 C   0  0  0  0  0  0  0  0  0  0  0  0
  144.4815   77.1175  214.6878 H   0  0  0  0  0  0  0  0  0  0  0  0
  1  2  1  0
  2  3  2  0
  3  4  1  0
  3  5  1  0
  5  6  2  0
  6  7  1  0
  7  8  2  0
  8  9  1  0
  8 10  1  0
 10 11  1  0
 10 12  2  0
 12 13  1  0
 12 14  1  0
 14 15  1  0
 14 16  2  0
 16 17  1  0
 17 18  2  0
 17 19  1  0
 19 20  1  0
 20 21  1  0
 20 22  1  0
 20 23  1  0
 23 24  1  0
 23 25  1  0
 25 26  1  0
 25 27  1  0
 25 28  1  0
 28 29  1  0
 28 30  1  0
 28 31  1  0
 31 32  1  0
 31 33  1  0
 33 34  1  0
 33 35  1  0
 33 36  1  0
 36 37  1  0
 36 38  1  0
  2 39  1  0
 39 40  2  0
 40 41  1  0
 41 42  1  0
 41 43  2  0
 43 44  1  0
 43 45  1  0
 45 46  1  0
 45 47  2  0
 47 48  1  0
 19  5  1  0
 36 23  1  0
 47 39  1  0
 16  7  1  0
M  END
>  <UniqueID>  (32) 
440

>  <SMILES>  (32) 
O=c1c2ccccc2nc(/C=C/c2ccccn2)n1CC1CCNCC1

>  <Energy>  (32) 
63.557462603764506

>  <Genealogy>  (32) 
O=c1c2ccccc2nc(/C=C/c2ccccn2)n1CC1CCNCC1 (cis-trans isomerization)
O=c1c2ccccc2nc(/C=C/c2ccccn2)n1CC1CCNCC1 (3D coordinates assigned)
O=c1c2ccccc2nc(/C=C/c2ccccn2)n1CC1CCNCC1 (nonaromatic ring conformer: 63.557462603764506 kcal/mol)

>  <smiles>  (32) 
O=c1c2ccccc2nc(/C=C/c2ccccn2)n1CC1CCNCC1

>  <score_type>  (32) 
oracle

>  <origin>  (32) 
autodockgpu

>  <m_score__min__energy>  (32) 
-7.9500000000000002

>  <m_primary>  (32) 
energy

>  <meeko>  (32) 
{"free_energy": -6.42, "intermolecular_energy": -7.91, "internal_energy": -2.13, "cluster_size": 3, "cluster_id": 5, "rank_in_cluster": 1}

>  <energy>  (32) 
-6.93

>  <cluster_rmsd>  (32) 
0.12

>  <rmsd>  (32) 
270.36

>  <cluster>  (32) 
3

$$$$
BQTJSOOYCKASGQ-CMDGGOBGNA-N
     RDKit          3D

 48 51  0  0  0  0  0  0  0  0999 V2000
  139.3842   68.1877  222.5713 H   0  0  0  0  0  0  0  0  0  0  0  0
  138.6400   68.3850  223.3570 C   0  0  0  0  0  0  0  0  0  0  0  0
  137.3540   68.5090  223.0090 C   0  0  0  0  0  0  0  0  0  0  0  0
  136.9121   67.7823  222.3115 H   0  0  0  0  0  0  0  0  0  0  0  0
  136.5180   69.5990  223.5410 C   0  0  0  0  0  0  0  0  0  0  0  0
  135.9180   69.3790  224.7380 N   0  0  0  0  0  0  0  0  0  0  0  0
  135.1660   70.3240  225.3470 C   0  0  0  0  0  0  0  0  0  0  0  0
  134.5670   70.0540  226.5840 C   0  0  0  0  0  0  0  0  0  0  0  0
  134.6949   69.0676  227.0537 H   0  0  0  0  0  0  0  0  0  0  0  0
  133.8070   71.0380  227.2210 C   0  0  0  0  0  0  0  0  0  0  0  0
  133.3361   70.8251  228.1920 H   0  0  0  0  0  0  0  0  0  0  0  0
  133.6440   72.2920  226.6270 C   0  0  0  0  0  0  0  0  0  0  0  0
  133.0445   73.0642  227.1313 H   0  0  0  0  0  0  0  0  0  0  0  0
  134.2410   72.5680  225.3930 C   0  0  0  0  0  0  0  0  0  0  0  0
  134.1129   73.5576  224.9301 H   0  0  0  0  0  0  0  0  0  0  0  0
  135.0060   71.5810  224.7420 C   0  0  0  0  0  0  0  0  0  0  0  0
  135.6160   71.8010  223.4950 C   0  0  0  0  0  0  0  0  0  0  0  0
  135.4930   72.9300  222.9420 O   0  0  0  0  0  0  0  0  0  0  0  0
  136.3310   70.7980  222.8780 N   0  0  0  0  0  0  0  0  0  0  0  0
  136.8590   71.0200  221.5080 C   0  0  0  0  0  0  0  0  0  0  0  0
  137.0730   70.0407  221.0550 H   0  0  0  0  0  0  0  0  0  0  0  0
  136.0911   71.5790  220.9532 H   0  0  0  0  0  0  0  0  0  0  0  0
  138.1560   71.8710  221.4720 C   0  0  0  0  0  0  0  0  0  0  0  0
  138.7445   71.4377  220.6498 H   0  0  0  0  0  0  0  0  0  0  0  0
  138.9900   71.7600  222.7600 C   0  0  0  0  0  0  0  0  0  0  0  0
  138.3992   72.1351  223.6086 H   0  0  0  0  0  0  0  0  0  0  0  0
  139.2570   70.7056  222.9243 H   0  0  0  0  0  0  0  0  0  0  0  0
  140.2770   72.5880  222.6330 C   0  0  0  0  0  0  0  0  0  0  0  0
  140.8322   72.5347  223.5811 H   0  0  0  0  0  0  0  0  0  0  0  0
  140.8751   72.1749  221.8074 H   0  0  0  0  0  0  0  0  0  0  0  0
  139.9800   73.9950  222.3310 N   0  0  0  0  0  0  0  0  0  0  0  0
  139.4150   74.4000  223.1140 H   0  0  0  0  0  0  0  0  0  0  0  0
  139.2210   74.1220  221.0780 C   0  0  0  0  0  0  0  0  0  0  0  0
  139.0080   75.1855  220.8948 H   0  0  0  0  0  0  0  0  0  0  0  0
  139.8258   73.6989  220.2624 H   0  0  0  0  0  0  0  0  0  0  0  0
  137.8940   73.3510  221.1460 C   0  0  0  0  0  0  0  0  0  0  0  0
  137.2590   73.7890  221.9302 H   0  0  0  0  0  0  0  0  0  0  0  0
  137.3884   73.4199  220.1715 H   0  0  0  0  0  0  0  0  0  0  0  0
  139.0980   68.5030  224.7560 C   0  0  0  0  0  0  0  0  0  0  0  0
  139.2010   67.4000  225.5500 N   0  0  0  0  0  0  0  0  0  0  0  0
  139.6250   67.4780  226.8400 C   0  0  0  0  0  0  0  0  0  0  0  0
  139.6951   66.5666  227.4520 H   0  0  0  0  0  0  0  0  0  0  0  0
  139.9710   68.7140  227.3870 C   0  0  0  0  0  0  0  0  0  0  0  0
  140.3149   68.7839  228.4295 H   0  0  0  0  0  0  0  0  0  0  0  0
  139.8760   69.8610  226.5970 C   0  0  0  0  0  0  0  0  0  0  0  0
  140.1451   70.8420  227.0156 H   0  0  0  0  0  0  0  0  0  0  0  0
  139.4390   69.7610  225.2750 C   0  0  0  0  0  0  0  0  0  0  0  0
  139.3627   70.6602  224.6460 H   0  0  0  0  0  0  0  0  0  0  0  0
  1  2  1  0
  2  3  2  0
  3  4  1  0
  3  5  1  0
  5  6  2  0
  6  7  1  0
  7  8  2  0
  8  9  1  0
  8 10  1  0
 10 11  1  0
 10 12  2  0
 12 13  1  0
 12 14  1  0
 14 15  1  0
 14 16  2  0
 16 17  1  0
 17 18  2  0
 17 19  1  0
 19 20  1  0
 20 21  1  0
 20 22  1  0
 20 23  1  0
 23 24  1  0
 23 25  1  0
 25 26  1  0
 25 27  1  0
 25 28  1  0
 28 29  1  0
 28 30  1  0
 28 31  1  0
 31 32  1  0
 31 33  1  0
 33 34  1  0
 33 35  1  0
 33 36  1  0
 36 37  1  0
 36 38  1  0
  2 39  1  0
 39 40  2  0
 40 41  1  0
 41 42  1  0
 41 43  2  0
 43 44  1  0
 43 45  1  0
 45 46  1  0
 45 47  2  0
 47 48  1  0
 19  5  1  0
 36 23  1  0
 47 39  1  0
 16  7  1  0
M  END
>  <UniqueID>  (33) 
440

>  <SMILES>  (33) 
O=c1c2ccccc2nc(/C=C/c2ccccn2)n1CC1CCNCC1

>  <Energy>  (33) 
63.557462603764506

>  <Genealogy>  (33) 
O=c1c2ccccc2nc(/C=C/c2ccccn2)n1CC1CCNCC1 (cis-trans isomerization)
O=c1c2ccccc2nc(/C=C/c2ccccn2)n1CC1CCNCC1 (3D coordinates assigned)
O=c1c2ccccc2nc(/C=C/c2ccccn2)n1CC1CCNCC1 (nonaromatic ring conformer: 63.557462603764506 kcal/mol)

>  <smiles>  (33) 
O=c1c2ccccc2nc(/C=C/c2ccccn2)n1CC1CCNCC1

>  <score_type>  (33) 
oracle

>  <origin>  (33) 
autodockgpu

>  <m_score__min__energy>  (33) 
-7.9500000000000002

>  <m_primary>  (33) 
energy

>  <meeko>  (33) 
{"free_energy": -6.89, "intermolecular_energy": -8.38, "internal_energy": -1.69, "cluster_size": 4, "cluster_id": 3, "rank_in_cluster": 4}

>  <energy>  (33) 
-6.93

>  <cluster_rmsd>  (33) 
0.14

>  <rmsd>  (33) 
270.36

>  <cluster>  (33) 
3

$$$$
BQTJSOOYCKASGQ-CMDGGOBGNA-N
     RDKit          3D

 48 51  0  0  0  0  0  0  0  0999 V2000
  140.5526   71.3681  221.2583 H   0  0  0  0  0  0  0  0  0  0  0  0
  140.0310   72.1090  221.8820 C   0  0  0  0  0  0  0  0  0  0  0  0
  139.1010   71.6840  222.7440 C   0  0  0  0  0  0  0  0  0  0  0  0
  138.0474   71.9508  222.5743 H   0  0  0  0  0  0  0  0  0  0  0  0
  139.4580   70.8660  223.9160 C   0  0  0  0  0  0  0  0  0  0  0  0
  140.0850   71.5030  224.9370 N   0  0  0  0  0  0  0  0  0  0  0  0
  140.4190   70.8670  226.0830 C   0  0  0  0  0  0  0  0  0  0  0  0
  141.0630   71.5650  227.1110 C   0  0  0  0  0  0  0  0  0  0  0  0
  141.3132   72.6283  226.9813 H   0  0  0  0  0  0  0  0  0  0  0  0
  141.3880   70.9110  228.3020 C   0  0  0  0  0  0  0  0  0  0  0  0
  141.8944   71.4604  229.1093 H   0  0  0  0  0  0  0  0  0  0  0  0
  141.0710   69.5600  228.4700 C   0  0  0  0  0  0  0  0  0  0  0  0
  141.3291   69.0480  229.4088 H   0  0  0  0  0  0  0  0  0  0  0  0
  140.4260   68.8580  227.4460 C   0  0  0  0  0  0  0  0  0  0  0  0
  140.1753   67.7956  227.5822 H   0  0  0  0  0  0  0  0  0  0  0  0
  140.0970   69.5090  226.2410 C   0  0  0  0  0  0  0  0  0  0  0  0
  139.4610   68.8470  225.1770 C   0  0  0  0  0  0  0  0  0  0  0  0
  139.1530   67.6290  225.3070 O   0  0  0  0  0  0  0  0  0  0  0  0
  139.1840   69.5140  224.0040 N   0  0  0  0  0  0  0  0  0  0  0  0
  138.6240   68.7580  222.8540 C   0  0  0  0  0  0  0  0  0  0  0  0
  138.9842   69.2225  221.9242 H   0  0  0  0  0  0  0  0  0  0  0  0
  138.9600   67.7159  222.9593 H   0  0  0  0  0  0  0  0  0  0  0  0
  137.0740   68.7340  222.8210 C   0  0  0  0  0  0  0  0  0  0  0  0
  136.8004   69.5947  222.1931 H   0  0  0  0  0  0  0  0  0  0  0  0
  136.4360   68.9360  224.2070 C   0  0  0  0  0  0  0  0  0  0  0  0
  136.7431   68.1149  224.8714 H   0  0  0  0  0  0  0  0  0  0  0  0
  136.7718   69.8988  224.6195 H   0  0  0  0  0  0  0  0  0  0  0  0
  134.9050   68.9480  224.0900 C   0  0  0  0  0  0  0  0  0  0  0  0
  134.4700   69.0418  225.0959 H   0  0  0  0  0  0  0  0  0  0  0  0
  134.6129   69.7991  223.4573 H   0  0  0  0  0  0  0  0  0  0  0  0
  134.4050   67.7150  223.4660 N   0  0  0  0  0  0  0  0  0  0  0  0
  134.6740   66.8980  224.0640 H   0  0  0  0  0  0  0  0  0  0  0  0
  134.9720   67.5300  222.1230 C   0  0  0  0  0  0  0  0  0  0  0  0
  134.5852   66.5922  221.6976 H   0  0  0  0  0  0  0  0  0  0  0  0
  134.6799   68.3904  221.5030 H   0  0  0  0  0  0  0  0  0  0  0  0
  136.5060   67.4640  222.1650 C   0  0  0  0  0  0  0  0  0  0  0  0
  136.8161   66.5841  222.7478 H   0  0  0  0  0  0  0  0  0  0  0  0
  136.8905   67.3879  221.1372 H   0  0  0  0  0  0  0  0  0  0  0  0
  140.3840   73.5350  221.7360 C   0  0  0  0  0  0  0  0  0  0  0  0
  139.6350   74.5030  222.3380 N   0  0  0  0  0  0  0  0  0  0  0  0
  139.9410   75.8240  222.2250 C   0  0  0  0  0  0  0  0  0  0  0  0
  139.3136   76.5780  222.7229 H   0  0  0  0  0  0  0  0  0  0  0  0
  141.0500   76.2230  221.4780 C   0  0  0  0  0  0  0  0  0  0  0  0
  141.3023   77.2895  221.3832 H   0  0  0  0  0  0  0  0  0  0  0  0
  141.8360   75.2530  220.8520 C   0  0  0  0  0  0  0  0  0  0  0  0
  142.7134   75.5526  220.2600 H   0  0  0  0  0  0  0  0  0  0  0  0
  141.5060   73.9020  220.9790 C   0  0  0  0  0  0  0  0  0  0  0  0
  142.1208   73.1324  220.4895 H   0  0  0  0  0  0  0  0  0  0  0  0
  1  2  1  0
  2  3  2  0
  3  4  1  0
  3  5  1  0
  5  6  2  0
  6  7  1  0
  7  8  2  0
  8  9  1  0
  8 10  1  0
 10 11  1  0
 10 12  2  0
 12 13  1  0
 12 14  1  0
 14 15  1  0
 14 16  2  0
 16 17  1  0
 17 18  2  0
 17 19  1  0
 19 20  1  0
 20 21  1  0
 20 22  1  0
 20 23  1  0
 23 24  1  0
 23 25  1  0
 25 26  1  0
 25 27  1  0
 25 28  1  0
 28 29  1  0
 28 30  1  0
 28 31  1  0
 31 32  1  0
 31 33  1  0
 33 34  1  0
 33 35  1  0
 33 36  1  0
 36 37  1  0
 36 38  1  0
  2 39  1  0
 39 40  2  0
 40 41  1  0
 41 42  1  0
 41 43  2  0
 43 44  1  0
 43 45  1  0
 45 46  1  0
 45 47  2  0
 47 48  1  0
 19  5  1  0
 36 23  1  0
 47 39  1  0
 16  7  1  0
M  END
>  <UniqueID>  (34) 
440

>  <SMILES>  (34) 
O=c1c2ccccc2nc(/C=C/c2ccccn2)n1CC1CCNCC1

>  <Energy>  (34) 
63.557462603764506

>  <Genealogy>  (34) 
O=c1c2ccccc2nc(/C=C/c2ccccn2)n1CC1CCNCC1 (cis-trans isomerization)
O=c1c2ccccc2nc(/C=C/c2ccccn2)n1CC1CCNCC1 (3D coordinates assigned)
O=c1c2ccccc2nc(/C=C/c2ccccn2)n1CC1CCNCC1 (nonaromatic ring conformer: 63.557462603764506 kcal/mol)

>  <smiles>  (34) 
O=c1c2ccccc2nc(/C=C/c2ccccn2)n1CC1CCNCC1

>  <score_type>  (34) 
oracle

>  <origin>  (34) 
autodockgpu

>  <m_score__min__energy>  (34) 
-7.9500000000000002

>  <m_primary>  (34) 
energy

>  <meeko>  (34) 
{"free_energy": -7.92, "intermolecular_energy": -9.41, "internal_energy": -1.01, "cluster_size": 7, "cluster_id": 2, "rank_in_cluster": 1}

>  <energy>  (34) 
-6.89

>  <cluster_rmsd>  (34) 
0.18

>  <rmsd>  (34) 
270.35

>  <cluster>  (34) 
3

$$$$
BQTJSOOYCKASGQ-CMDGGOBGNA-N
     RDKit          3D

 48 51  0  0  0  0  0  0  0  0999 V2000
  139.3409   68.3024  222.5767 H   0  0  0  0  0  0  0  0  0  0  0  0
  138.6130   68.4390  223.3900 C   0  0  0  0  0  0  0  0  0  0  0  0
  137.3140   68.5210  223.0840 C   0  0  0  0  0  0  0  0  0  0  0  0
  136.8616   67.7490  222.4442 H   0  0  0  0  0  0  0  0  0  0  0  0
  136.4760   69.6240  223.5860 C   0  0  0  0  0  0  0  0  0  0  0  0
  135.8640   69.4300  224.7820 N   0  0  0  0  0  0  0  0  0  0  0  0
  135.1100   70.3890  225.3650 C   0  0  0  0  0  0  0  0  0  0  0  0
  134.4990   70.1460  226.6010 C   0  0  0  0  0  0  0  0  0  0  0  0
  134.6189   69.1685  227.0911 H   0  0  0  0  0  0  0  0  0  0  0  0
  133.7370   71.1450  227.2120 C   0  0  0  0  0  0  0  0  0  0  0  0
  133.2576   70.9534  228.1834 H   0  0  0  0  0  0  0  0  0  0  0  0
  133.5830   72.3870  226.5910 C   0  0  0  0  0  0  0  0  0  0  0  0
  132.9812   73.1710  227.0739 H   0  0  0  0  0  0  0  0  0  0  0  0
  134.1920   72.6360  225.3570 C   0  0  0  0  0  0  0  0  0  0  0  0
  134.0715   73.6165  224.8731 H   0  0  0  0  0  0  0  0  0  0  0  0
  134.9590   71.6340  224.7330 C   0  0  0  0  0  0  0  0  0  0  0  0
  135.5810   71.8270  223.4880 C   0  0  0  0  0  0  0  0  0  0  0  0
  135.4680   72.9450  222.9110 O   0  0  0  0  0  0  0  0  0  0  0  0
  136.2990   70.8100  222.8980 N   0  0  0  0  0  0  0  0  0  0  0  0
  136.8410   71.0030  221.5290 C   0  0  0  0  0  0  0  0  0  0  0  0
  137.0564   70.0141  221.0981 H   0  0  0  0  0  0  0  0  0  0  0  0
  136.0800   71.5534  220.9563 H   0  0  0  0  0  0  0  0  0  0  0  0
  138.1400   71.8490  221.4870 C   0  0  0  0  0  0  0  0  0  0  0  0
  138.7292   71.4059  220.6706 H   0  0  0  0  0  0  0  0  0  0  0  0
  138.9690   71.7480  222.7790 C   0  0  0  0  0  0  0  0  0  0  0  0
  138.3767   72.1338  223.6218 H   0  0  0  0  0  0  0  0  0  0  0  0
  139.2315   70.6945  222.9556 H   0  0  0  0  0  0  0  0  0  0  0  0
  140.2600   72.5710  222.6470 C   0  0  0  0  0  0  0  0  0  0  0  0
  140.8118   72.5265  223.5976 H   0  0  0  0  0  0  0  0  0  0  0  0
  140.8594   72.1466  221.8281 H   0  0  0  0  0  0  0  0  0  0  0  0
  139.9690   73.9760  222.3280 N   0  0  0  0  0  0  0  0  0  0  0  0
  139.4030   74.3910  223.1050 H   0  0  0  0  0  0  0  0  0  0  0  0
  139.2150   74.0910  221.0720 C   0  0  0  0  0  0  0  0  0  0  0  0
  139.0067   75.1531  220.8757 H   0  0  0  0  0  0  0  0  0  0  0  0
  139.8210   73.6559  220.2636 H   0  0  0  0  0  0  0  0  0  0  0  0
  137.8850   73.3260  221.1440 C   0  0  0  0  0  0  0  0  0  0  0  0
  137.2492   73.7750  221.9212 H   0  0  0  0  0  0  0  0  0  0  0  0
  137.3829   73.3862  220.1671 H   0  0  0  0  0  0  0  0  0  0  0  0
  139.1070   68.5250  224.7790 C   0  0  0  0  0  0  0  0  0  0  0  0
  139.2170   67.4060  225.5500 N   0  0  0  0  0  0  0  0  0  0  0  0
  139.6740   67.4550  226.8300 C   0  0  0  0  0  0  0  0  0  0  0  0
  139.7483   66.5314  227.4229 H   0  0  0  0  0  0  0  0  0  0  0  0
  140.0490   68.6770  227.3920 C   0  0  0  0  0  0  0  0  0  0  0  0
  140.4180   68.7235  228.4272 H   0  0  0  0  0  0  0  0  0  0  0  0
  139.9500   69.8400  226.6240 C   0  0  0  0  0  0  0  0  0  0  0  0
  140.2434   70.8098  227.0523 H   0  0  0  0  0  0  0  0  0  0  0  0
  139.4780   69.7690  225.3120 C   0  0  0  0  0  0  0  0  0  0  0  0
  139.3976   70.6804  224.7013 H   0  0  0  0  0  0  0  0  0  0  0  0
  1  2  1  0
  2  3  2  0
  3  4  1  0
  3  5  1  0
  5  6  2  0
  6  7  1  0
  7  8  2  0
  8  9  1  0
  8 10  1  0
 10 11  1  0
 10 12  2  0
 12 13  1  0
 12 14  1  0
 14 15  1  0
 14 16  2  0
 16 17  1  0
 17 18  2  0
 17 19  1  0
 19 20  1  0
 20 21  1  0
 20 22  1  0
 20 23  1  0
 23 24  1  0
 23 25  1  0
 25 26  1  0
 25 27  1  0
 25 28  1  0
 28 29  1  0
 28 30  1  0
 28 31  1  0
 31 32  1  0
 31 33  1  0
 33 34  1  0
 33 35  1  0
 33 36  1  0
 36 37  1  0
 36 38  1  0
  2 39  1  0
 39 40  2  0
 40 41  1  0
 41 42  1  0
 41 43  2  0
 43 44  1  0
 43 45  1  0
 45 46  1  0
 45 47  2  0
 47 48  1  0
 19  5  1  0
 36 23  1  0
 47 39  1  0
 16  7  1  0
M  END
>  <UniqueID>  (35) 
440

>  <SMILES>  (35) 
O=c1c2ccccc2nc(/C=C/c2ccccn2)n1CC1CCNCC1

>  <Energy>  (35) 
63.557462603764506

>  <Genealogy>  (35) 
O=c1c2ccccc2nc(/C=C/c2ccccn2)n1CC1CCNCC1 (cis-trans isomerization)
O=c1c2ccccc2nc(/C=C/c2ccccn2)n1CC1CCNCC1 (3D coordinates assigned)
O=c1c2ccccc2nc(/C=C/c2ccccn2)n1CC1CCNCC1 (nonaromatic ring conformer: 63.557462603764506 kcal/mol)

>  <smiles>  (35) 
O=c1c2ccccc2nc(/C=C/c2ccccn2)n1CC1CCNCC1

>  <score_type>  (35) 
oracle

>  <origin>  (35) 
autodockgpu

>  <m_score__min__energy>  (35) 
-7.9500000000000002

>  <m_primary>  (35) 
energy

>  <meeko>  (35) 
{"free_energy": -6.93, "intermolecular_energy": -8.43, "internal_energy": -1.66, "cluster_size": 4, "cluster_id": 3, "rank_in_cluster": 3}

>  <energy>  (35) 
-6.56

>  <cluster_rmsd>  (35) 
0.0

>  <rmsd>  (35) 
270.47

>  <cluster>  (35) 
4

$$$$
BQTJSOOYCKASGQ-CMDGGOBGNA-N
     RDKit          3D

 48 51  0  0  0  0  0  0  0  0999 V2000
  143.6933   77.4039  217.2278 H   0  0  0  0  0  0  0  0  0  0  0  0
  143.6370   76.3100  217.1270 C   0  0  0  0  0  0  0  0  0  0  0  0
  142.6650   75.6530  217.7700 C   0  0  0  0  0  0  0  0  0  0  0  0
  142.1995   74.7780  217.2928 H   0  0  0  0  0  0  0  0  0  0  0  0
  142.2050   76.0770  219.1040 C   0  0  0  0  0  0  0  0  0  0  0  0
  142.2230   77.4090  219.3610 N   0  0  0  0  0  0  0  0  0  0  0  0
  141.7800   77.9190  220.5320 C   0  0  0  0  0  0  0  0  0  0  0  0
  141.8140   79.3000  220.7540 C   0  0  0  0  0  0  0  0  0  0  0  0
  142.2168   79.9711  219.9811 H   0  0  0  0  0  0  0  0  0  0  0  0
  141.3370   79.8270  221.9560 C   0  0  0  0  0  0  0  0  0  0  0  0
  141.3650   80.9130  222.1288 H   0  0  0  0  0  0  0  0  0  0  0  0
  140.8240   78.9770  222.9400 C   0  0  0  0  0  0  0  0  0  0  0  0
  140.4488   79.3952  223.8857 H   0  0  0  0  0  0  0  0  0  0  0  0
  140.7870   77.5960  222.7240 C   0  0  0  0  0  0  0  0  0  0  0  0
  140.3811   76.9300  223.4997 H   0  0  0  0  0  0  0  0  0  0  0  0
  141.2680   77.0560  221.5160 C   0  0  0  0  0  0  0  0  0  0  0  0
  141.2650   75.6750  221.2530 C   0  0  0  0  0  0  0  0  0  0  0  0
  140.7960   74.8860  222.1210 O   0  0  0  0  0  0  0  0  0  0  0  0
  141.7730   75.1870  220.0700 N   0  0  0  0  0  0  0  0  0  0  0  0
  141.8690   73.7180  219.8730 C   0  0  0  0  0  0  0  0  0  0  0  0
  141.2683   73.2231  220.6504 H   0  0  0  0  0  0  0  0  0  0  0  0
  141.5001   73.5043  218.8590 H   0  0  0  0  0  0  0  0  0  0  0  0
  143.3190   73.1730  219.9530 C   0  0  0  0  0  0  0  0  0  0  0  0
  143.2726   72.3852  220.7193 H   0  0  0  0  0  0  0  0  0  0  0  0
  144.3370   74.2280  220.4180 C   0  0  0  0  0  0  0  0  0  0  0  0
  144.3588   75.0556  219.6937 H   0  0  0  0  0  0  0  0  0  0  0  0
  144.0381   74.6024  221.4082 H   0  0  0  0  0  0  0  0  0  0  0  0
  145.7370   73.6070  220.5200 C   0  0  0  0  0  0  0  0  0  0  0  0
  146.4559   74.3895  220.8042 H   0  0  0  0  0  0  0  0  0  0  0  0
  145.7082   72.8101  221.2777 H   0  0  0  0  0  0  0  0  0  0  0  0
  146.1550   73.0150  219.2410 N   0  0  0  0  0  0  0  0  0  0  0  0
  146.1910   73.7680  218.5130 H   0  0  0  0  0  0  0  0  0  0  0  0
  145.2150   71.9730  218.8040 C   0  0  0  0  0  0  0  0  0  0  0  0
  145.5543   71.5665  217.8398 H   0  0  0  0  0  0  0  0  0  0  0  0
  145.1891   71.1861  219.5722 H   0  0  0  0  0  0  0  0  0  0  0  0
  143.7950   72.5330  218.6380 C   0  0  0  0  0  0  0  0  0  0  0  0
  143.7949   73.2933  217.8431 H   0  0  0  0  0  0  0  0  0  0  0  0
  143.1140   71.7111  218.3719 H   0  0  0  0  0  0  0  0  0  0  0  0
  144.6370   75.6210  216.2870 C   0  0  0  0  0  0  0  0  0  0  0  0
  145.2360   74.4740  216.7160 N   0  0  0  0  0  0  0  0  0  0  0  0
  146.1560   73.8150  215.9610 C   0  0  0  0  0  0  0  0  0  0  0  0
  146.6201   72.8927  216.3405 H   0  0  0  0  0  0  0  0  0  0  0  0
  146.5110   74.3090  214.7050 C   0  0  0  0  0  0  0  0  0  0  0  0
  147.2541   73.7809  214.0894 H   0  0  0  0  0  0  0  0  0  0  0  0
  145.9120   75.4820  214.2380 C   0  0  0  0  0  0  0  0  0  0  0  0
  146.1822   75.8835  213.2502 H   0  0  0  0  0  0  0  0  0  0  0  0
  144.9700   76.1430  215.0280 C   0  0  0  0  0  0  0  0  0  0  0  0
  144.4926   77.0657  214.6664 H   0  0  0  0  0  0  0  0  0  0  0  0
  1  2  1  0
  2  3  2  0
  3  4  1  0
  3  5  1  0
  5  6  2  0
  6  7  1  0
  7  8  2  0
  8  9  1  0
  8 10  1  0
 10 11  1  0
 10 12  2  0
 12 13  1  0
 12 14  1  0
 14 15  1  0
 14 16  2  0
 16 17  1  0
 17 18  2  0
 17 19  1  0
 19 20  1  0
 20 21  1  0
 20 22  1  0
 20 23  1  0
 23 24  1  0
 23 25  1  0
 25 26  1  0
 25 27  1  0
 25 28  1  0
 28 29  1  0
 28 30  1  0
 28 31  1  0
 31 32  1  0
 31 33  1  0
 33 34  1  0
 33 35  1  0
 33 36  1  0
 36 37  1  0
 36 38  1  0
  2 39  1  0
 39 40  2  0
 40 41  1  0
 41 42  1  0
 41 43  2  0
 43 44  1  0
 43 45  1  0
 45 46  1  0
 45 47  2  0
 47 48  1  0
 19  5  1  0
 36 23  1  0
 47 39  1  0
 16  7  1  0
M  END
>  <UniqueID>  (36) 
440

>  <SMILES>  (36) 
O=c1c2ccccc2nc(/C=C/c2ccccn2)n1CC1CCNCC1

>  <Energy>  (36) 
63.557462603764506

>  <Genealogy>  (36) 
O=c1c2ccccc2nc(/C=C/c2ccccn2)n1CC1CCNCC1 (cis-trans isomerization)
O=c1c2ccccc2nc(/C=C/c2ccccn2)n1CC1CCNCC1 (3D coordinates assigned)
O=c1c2ccccc2nc(/C=C/c2ccccn2)n1CC1CCNCC1 (nonaromatic ring conformer: 63.557462603764506 kcal/mol)

>  <smiles>  (36) 
O=c1c2ccccc2nc(/C=C/c2ccccn2)n1CC1CCNCC1

>  <score_type>  (36) 
oracle

>  <origin>  (36) 
autodockgpu

>  <m_score__min__energy>  (36) 
-7.9500000000000002

>  <m_primary>  (36) 
energy

>  <meeko>  (36) 
{"free_energy": -6.4, "intermolecular_energy": -7.9, "internal_energy": -2.14, "cluster_size": 3, "cluster_id": 5, "rank_in_cluster": 3}

>  <energy>  (36) 
-6.42

>  <cluster_rmsd>  (36) 
0.0

>  <rmsd>  (36) 
270.54

>  <cluster>  (36) 
5

$$$$
BQTJSOOYCKASGQ-CMDGGOBGNA-N
     RDKit          3D

 48 51  0  0  0  0  0  0  0  0999 V2000
  138.6629   72.2904  223.0783 H   0  0  0  0  0  0  0  0  0  0  0  0
  139.6780   71.8800  223.1840 C   0  0  0  0  0  0  0  0  0  0  0  0
  140.5430   72.0350  222.1760 C   0  0  0  0  0  0  0  0  0  0  0  0
  141.0296   71.1486  221.7431 H   0  0  0  0  0  0  0  0  0  0  0  0
  140.8580   73.3680  221.6330 C   0  0  0  0  0  0  0  0  0  0  0  0
  140.4000   74.4360  222.3340 N   0  0  0  0  0  0  0  0  0  0  0  0
  140.6670   75.7070  221.9580 C   0  0  0  0  0  0  0  0  0  0  0  0
  140.1770   76.7790  222.7130 C   0  0  0  0  0  0  0  0  0  0  0  0
  139.5608   76.5875  223.6038 H   0  0  0  0  0  0  0  0  0  0  0  0
  140.4700   78.0920  222.3360 C   0  0  0  0  0  0  0  0  0  0  0  0
  140.0825   78.9335  222.9290 H   0  0  0  0  0  0  0  0  0  0  0  0
  141.2550   78.3370  221.2060 C   0  0  0  0  0  0  0  0  0  0  0  0
  141.4844   79.3717  220.9116 H   0  0  0  0  0  0  0  0  0  0  0  0
  141.7500   77.2700  220.4480 C   0  0  0  0  0  0  0  0  0  0  0  0
  142.3691   77.4669  219.5603 H   0  0  0  0  0  0  0  0  0  0  0  0
  141.4560   75.9440  220.8210 C   0  0  0  0  0  0  0  0  0  0  0  0
  141.9160   74.8370  220.0880 C   0  0  0  0  0  0  0  0  0  0  0  0
  142.6370   75.0310  219.0690 O   0  0  0  0  0  0  0  0  0  0  0  0
  141.5800   73.5560  220.4690 N   0  0  0  0  0  0  0  0  0  0  0  0
  141.9780   72.4140  219.6070 C   0  0  0  0  0  0  0  0  0  0  0  0
  141.5581   71.4921  220.0356 H   0  0  0  0  0  0  0  0  0  0  0  0
  141.5907   72.6211  218.5985 H   0  0  0  0  0  0  0  0  0  0  0  0
  143.5140   72.2390  219.4770 C   0  0  0  0  0  0  0  0  0  0  0  0
  143.6771   71.1580  219.5992 H   0  0  0  0  0  0  0  0  0  0  0  0
  144.3020   72.9640  220.5810 C   0  0  0  0  0  0  0  0  0  0  0  0
  144.1082   74.0448  220.5153 H   0  0  0  0  0  0  0  0  0  0  0  0
  143.9791   72.5826  221.5609 H   0  0  0  0  0  0  0  0  0  0  0  0
  145.8070   72.7080  220.4160 C   0  0  0  0  0  0  0  0  0  0  0  0
  146.3529   73.2762  221.1835 H   0  0  0  0  0  0  0  0  0  0  0  0
  145.9887   71.6287  220.5263 H   0  0  0  0  0  0  0  0  0  0  0  0
  146.2790   73.1230  219.0880 N   0  0  0  0  0  0  0  0  0  0  0  0
  146.1150   74.1520  218.9750 H   0  0  0  0  0  0  0  0  0  0  0  0
  145.5650   72.4060  218.0210 C   0  0  0  0  0  0  0  0  0  0  0  0
  145.9359   72.7544  217.0457 H   0  0  0  0  0  0  0  0  0  0  0  0
  145.7475   71.3285  218.1464 H   0  0  0  0  0  0  0  0  0  0  0  0
  144.0510   72.6510  218.0960 C   0  0  0  0  0  0  0  0  0  0  0  0
  143.8472   73.7193  217.9308 H   0  0  0  0  0  0  0  0  0  0  0  0
  143.5513   72.0493  217.3225 H   0  0  0  0  0  0  0  0  0  0  0  0
  140.0340   71.1790  224.4330 C   0  0  0  0  0  0  0  0  0  0  0  0
  139.6920   69.8730  224.6210 N   0  0  0  0  0  0  0  0  0  0  0  0
  140.0120   69.2000  225.7590 C   0  0  0  0  0  0  0  0  0  0  0  0
  139.7183   68.1464  225.8756 H   0  0  0  0  0  0  0  0  0  0  0  0
  140.7130   69.8460  226.7790 C   0  0  0  0  0  0  0  0  0  0  0  0
  140.9747   69.3079  227.7020 H   0  0  0  0  0  0  0  0  0  0  0  0
  141.0780   71.1840  226.6130 C   0  0  0  0  0  0  0  0  0  0  0  0
  141.6311   71.7066  227.4073 H   0  0  0  0  0  0  0  0  0  0  0  0
  140.7400   71.8570  225.4380 C   0  0  0  0  0  0  0  0  0  0  0  0
  141.0249   72.9106  225.3010 H   0  0  0  0  0  0  0  0  0  0  0  0
  1  2  1  0
  2  3  2  0
  3  4  1  0
  3  5  1  0
  5  6  2  0
  6  7  1  0
  7  8  2  0
  8  9  1  0
  8 10  1  0
 10 11  1  0
 10 12  2  0
 12 13  1  0
 12 14  1  0
 14 15  1  0
 14 16  2  0
 16 17  1  0
 17 18  2  0
 17 19  1  0
 19 20  1  0
 20 21  1  0
 20 22  1  0
 20 23  1  0
 23 24  1  0
 23 25  1  0
 25 26  1  0
 25 27  1  0
 25 28  1  0
 28 29  1  0
 28 30  1  0
 28 31  1  0
 31 32  1  0
 31 33  1  0
 33 34  1  0
 33 35  1  0
 33 36  1  0
 36 37  1  0
 36 38  1  0
  2 39  1  0
 39 40  2  0
 40 41  1  0
 41 42  1  0
 41 43  2  0
 43 44  1  0
 43 45  1  0
 45 46  1  0
 45 47  2  0
 47 48  1  0
 19  5  1  0
 36 23  1  0
 47 39  1  0
 16  7  1  0
M  END
>  <UniqueID>  (37) 
440

>  <SMILES>  (37) 
O=c1c2ccccc2nc(/C=C/c2ccccn2)n1CC1CCNCC1

>  <Energy>  (37) 
63.557462603764506

>  <Genealogy>  (37) 
O=c1c2ccccc2nc(/C=C/c2ccccn2)n1CC1CCNCC1 (cis-trans isomerization)
O=c1c2ccccc2nc(/C=C/c2ccccn2)n1CC1CCNCC1 (3D coordinates assigned)
O=c1c2ccccc2nc(/C=C/c2ccccn2)n1CC1CCNCC1 (nonaromatic ring conformer: 63.557462603764506 kcal/mol)

>  <smiles>  (37) 
O=c1c2ccccc2nc(/C=C/c2ccccn2)n1CC1CCNCC1

>  <score_type>  (37) 
oracle

>  <origin>  (37) 
autodockgpu

>  <m_score__min__energy>  (37) 
-7.9500000000000002

>  <m_primary>  (37) 
energy

>  <meeko>  (37) 
{"free_energy": -7.81, "intermolecular_energy": -9.3, "internal_energy": -0.98, "cluster_size": 3, "cluster_id": 1, "rank_in_cluster": 3}

>  <energy>  (37) 
-6.41

>  <cluster_rmsd>  (37) 
0.06

>  <rmsd>  (37) 
270.54

>  <cluster>  (37) 
5

$$$$
BQTJSOOYCKASGQ-CMDGGOBGNA-N
     RDKit          3D

 48 51  0  0  0  0  0  0  0  0999 V2000
  138.5758   71.9520  222.9157 H   0  0  0  0  0  0  0  0  0  0  0  0
  139.6200   71.7090  223.1620 C   0  0  0  0  0  0  0  0  0  0  0  0
  140.5580   71.8720  222.2220 C   0  0  0  0  0  0  0  0  0  0  0  0
  141.1229   70.9973  221.8674 H   0  0  0  0  0  0  0  0  0  0  0  0
  140.8500   73.1990  221.6520 C   0  0  0  0  0  0  0  0  0  0  0  0
  140.3630   74.2720  222.3250 N   0  0  0  0  0  0  0  0  0  0  0  0
  140.6080   75.5400  221.9240 C   0  0  0  0  0  0  0  0  0  0  0  0
  140.0870   76.6180  222.6490 C   0  0  0  0  0  0  0  0  0  0  0  0
  139.4639   76.4337  223.5365 H   0  0  0  0  0  0  0  0  0  0  0  0
  140.3580   77.9280  222.2460 C   0  0  0  0  0  0  0  0  0  0  0  0
  139.9484   78.7742  222.8171 H   0  0  0  0  0  0  0  0  0  0  0  0
  141.1490   78.1650  221.1180 C   0  0  0  0  0  0  0  0  0  0  0  0
  141.3597   79.1975  220.8024 H   0  0  0  0  0  0  0  0  0  0  0  0
  141.6730   77.0920  220.3900 C   0  0  0  0  0  0  0  0  0  0  0  0
  142.2971   77.2821  219.5043 H   0  0  0  0  0  0  0  0  0  0  0  0
  141.4030   75.7680  220.7890 C   0  0  0  0  0  0  0  0  0  0  0  0
  141.8940   74.6550  220.0860 C   0  0  0  0  0  0  0  0  0  0  0  0
  142.6210   74.8410  219.0700 O   0  0  0  0  0  0  0  0  0  0  0  0
  141.5810   73.3760  220.4920 N   0  0  0  0  0  0  0  0  0  0  0  0
  142.0110   72.2240  219.6600 C   0  0  0  0  0  0  0  0  0  0  0  0
  141.6409   71.2999  220.1280 H   0  0  0  0  0  0  0  0  0  0  0  0
  141.5944   72.3799  218.6539 H   0  0  0  0  0  0  0  0  0  0  0  0
  143.5500   72.1110  219.5020 C   0  0  0  0  0  0  0  0  0  0  0  0
  143.7601   71.0385  219.6269 H   0  0  0  0  0  0  0  0  0  0  0  0
  144.3270   72.8760  220.5870 C   0  0  0  0  0  0  0  0  0  0  0  0
  144.0874   73.9474  220.5182 H   0  0  0  0  0  0  0  0  0  0  0  0
  144.0381   72.4890  221.5753 H   0  0  0  0  0  0  0  0  0  0  0  0
  145.8380   72.6810  220.3950 C   0  0  0  0  0  0  0  0  0  0  0  0
  146.3742   73.2763  221.1487 H   0  0  0  0  0  0  0  0  0  0  0  0
  146.0658   71.6108  220.5081 H   0  0  0  0  0  0  0  0  0  0  0  0
  146.2680   73.1060  219.0560 N   0  0  0  0  0  0  0  0  0  0  0  0
  146.0600   74.1260  218.9400 H   0  0  0  0  0  0  0  0  0  0  0  0
  145.5650   72.3530  218.0070 C   0  0  0  0  0  0  0  0  0  0  0  0
  145.9031   72.7097  217.0229 H   0  0  0  0  0  0  0  0  0  0  0  0
  145.7943   71.2848  218.1352 H   0  0  0  0  0  0  0  0  0  0  0  0
  144.0440   72.5360  218.1090 C   0  0  0  0  0  0  0  0  0  0  0  0
  143.7933   73.5939  217.9418 H   0  0  0  0  0  0  0  0  0  0  0  0
  143.5554   71.9094  217.3483 H   0  0  0  0  0  0  0  0  0  0  0  0
  139.9340   71.2150  224.5180 C   0  0  0  0  0  0  0  0  0  0  0  0
  140.8160   71.8820  225.3150 N   0  0  0  0  0  0  0  0  0  0  0  0
  141.1190   71.4540  226.5700 C   0  0  0  0  0  0  0  0  0  0  0  0
  141.8356   72.0178  227.1853 H   0  0  0  0  0  0  0  0  0  0  0  0
  140.5210   70.3000  227.0770 C   0  0  0  0  0  0  0  0  0  0  0  0
  140.7630   69.9478  228.0906 H   0  0  0  0  0  0  0  0  0  0  0  0
  139.6120   69.5970  226.2840 C   0  0  0  0  0  0  0  0  0  0  0  0
  139.1321   68.6862  226.6716 H   0  0  0  0  0  0  0  0  0  0  0  0
  139.3130   70.0520  224.9980 C   0  0  0  0  0  0  0  0  0  0  0  0
  138.5975   69.5039  224.3674 H   0  0  0  0  0  0  0  0  0  0  0  0
  1  2  1  0
  2  3  2  0
  3  4  1  0
  3  5  1  0
  5  6  2  0
  6  7  1  0
  7  8  2  0
  8  9  1  0
  8 10  1  0
 10 11  1  0
 10 12  2  0
 12 13  1  0
 12 14  1  0
 14 15  1  0
 14 16  2  0
 16 17  1  0
 17 18  2  0
 17 19  1  0
 19 20  1  0
 20 21  1  0
 20 22  1  0
 20 23  1  0
 23 24  1  0
 23 25  1  0
 25 26  1  0
 25 27  1  0
 25 28  1  0
 28 29  1  0
 28 30  1  0
 28 31  1  0
 31 32  1  0
 31 33  1  0
 33 34  1  0
 33 35  1  0
 33 36  1  0
 36 37  1  0
 36 38  1  0
  2 39  1  0
 39 40  2  0
 40 41  1  0
 41 42  1  0
 41 43  2  0
 43 44  1  0
 43 45  1  0
 45 46  1  0
 45 47  2  0
 47 48  1  0
 19  5  1  0
 36 23  1  0
 47 39  1  0
 16  7  1  0
M  END
>  <UniqueID>  (38) 
440

>  <SMILES>  (38) 
O=c1c2ccccc2nc(/C=C/c2ccccn2)n1CC1CCNCC1

>  <Energy>  (38) 
63.557462603764506

>  <Genealogy>  (38) 
O=c1c2ccccc2nc(/C=C/c2ccccn2)n1CC1CCNCC1 (cis-trans isomerization)
O=c1c2ccccc2nc(/C=C/c2ccccn2)n1CC1CCNCC1 (3D coordinates assigned)
O=c1c2ccccc2nc(/C=C/c2ccccn2)n1CC1CCNCC1 (nonaromatic ring conformer: 63.557462603764506 kcal/mol)

>  <smiles>  (38) 
O=c1c2ccccc2nc(/C=C/c2ccccn2)n1CC1CCNCC1

>  <score_type>  (38) 
oracle

>  <origin>  (38) 
autodockgpu

>  <m_score__min__energy>  (38) 
-7.9500000000000002

>  <m_primary>  (38) 
energy

>  <meeko>  (38) 
{"free_energy": -7.86, "intermolecular_energy": -9.35, "internal_energy": -0.94, "cluster_size": 3, "cluster_id": 1, "rank_in_cluster": 2}

>  <energy>  (38) 
-6.4

>  <cluster_rmsd>  (38) 
0.07

>  <rmsd>  (38) 
270.55

>  <cluster>  (38) 
5

$$$$
BQTJSOOYCKASGQ-CMDGGOBGNA-N
     RDKit          3D

 48 51  0  0  0  0  0  0  0  0999 V2000
  140.8198   71.4175  221.0144 H   0  0  0  0  0  0  0  0  0  0  0  0
  140.1990   72.0850  221.6300 C   0  0  0  0  0  0  0  0  0  0  0  0
  139.2250   71.5520  222.3760 C   0  0  0  0  0  0  0  0  0  0  0  0
  138.1809   71.6406  222.0414 H   0  0  0  0  0  0  0  0  0  0  0  0
  139.5210   70.8490  223.6360 C   0  0  0  0  0  0  0  0  0  0  0  0
  140.1510   71.5660  224.6010 N   0  0  0  0  0  0  0  0  0  0  0  0
  140.4310   71.0410  225.8150 C   0  0  0  0  0  0  0  0  0  0  0  0
  141.0810   71.8180  226.7820 C   0  0  0  0  0  0  0  0  0  0  0  0
  141.3783   72.8510  226.5483 H   0  0  0  0  0  0  0  0  0  0  0  0
  141.3520   71.2820  228.0430 C   0  0  0  0  0  0  0  0  0  0  0  0
  141.8636   71.8931  228.8011 H   0  0  0  0  0  0  0  0  0  0  0  0
  140.9740   69.9700  228.3430 C   0  0  0  0  0  0  0  0  0  0  0  0
  141.1889   69.5507  229.3370 H   0  0  0  0  0  0  0  0  0  0  0  0
  140.3230   69.1890  227.3820 C   0  0  0  0  0  0  0  0  0  0  0  0
  140.0248   68.1578  227.6222 H   0  0  0  0  0  0  0  0  0  0  0  0
  140.0490   69.7220  226.1070 C   0  0  0  0  0  0  0  0  0  0  0  0
  139.4100   68.9770  225.1010 C   0  0  0  0  0  0  0  0  0  0  0  0
  139.0470   67.7920  225.3500 O   0  0  0  0  0  0  0  0  0  0  0  0
  139.1880   69.5260  223.8570 N   0  0  0  0  0  0  0  0  0  0  0  0
  138.6220   68.6750  222.7790 C   0  0  0  0  0  0  0  0  0  0  0  0
  138.9904   69.0484  221.8121 H   0  0  0  0  0  0  0  0  0  0  0  0
  138.9450   67.6430  222.9807 H   0  0  0  0  0  0  0  0  0  0  0  0
  137.0720   68.6660  222.7420 C   0  0  0  0  0  0  0  0  0  0  0  0
  136.8089   69.5099  222.0873 H   0  0  0  0  0  0  0  0  0  0  0  0
  136.4330   68.9160  224.1190 C   0  0  0  0  0  0  0  0  0  0  0  0
  136.7297   68.1118  224.8084 H   0  0  0  0  0  0  0  0  0  0  0  0
  136.7781   69.8872  224.5032 H   0  0  0  0  0  0  0  0  0  0  0  0
  134.9020   68.9410  223.9980 C   0  0  0  0  0  0  0  0  0  0  0  0
  134.4657   69.0705  224.9994 H   0  0  0  0  0  0  0  0  0  0  0  0
  134.6199   69.7754  223.3391 H   0  0  0  0  0  0  0  0  0  0  0  0
  134.3910   67.6940  223.4110 N   0  0  0  0  0  0  0  0  0  0  0  0
  134.6500   66.8930  224.0340 H   0  0  0  0  0  0  0  0  0  0  0  0
  134.9590   67.4620  222.0750 C   0  0  0  0  0  0  0  0  0  0  0  0
  134.5644   66.5152  221.6778 H   0  0  0  0  0  0  0  0  0  0  0  0
  134.6762   68.3050  221.4274 H   0  0  0  0  0  0  0  0  0  0  0  0
  136.4930   67.3830  222.1240 C   0  0  0  0  0  0  0  0  0  0  0  0
  136.7928   66.5184  222.7344 H   0  0  0  0  0  0  0  0  0  0  0  0
  136.8792   67.2723  221.1000 H   0  0  0  0  0  0  0  0  0  0  0  0
  140.4720   73.5360  221.6020 C   0  0  0  0  0  0  0  0  0  0  0  0
  139.6840   74.4070  222.2940 N   0  0  0  0  0  0  0  0  0  0  0  0
  139.9150   75.7470  222.2910 C   0  0  0  0  0  0  0  0  0  0  0  0
  139.2573   76.4196  222.8611 H   0  0  0  0  0  0  0  0  0  0  0  0
  140.9860   76.2690  221.5650 C   0  0  0  0  0  0  0  0  0  0  0  0
  141.1775   77.3522  221.5575 H   0  0  0  0  0  0  0  0  0  0  0  0
  141.8120   75.4010  220.8480 C   0  0  0  0  0  0  0  0  0  0  0  0
  142.6608   75.7984  220.2722 H   0  0  0  0  0  0  0  0  0  0  0  0
  141.5590   74.0280  220.8630 C   0  0  0  0  0  0  0  0  0  0  0  0
  142.2057   73.3382  220.3008 H   0  0  0  0  0  0  0  0  0  0  0  0
  1  2  1  0
  2  3  2  0
  3  4  1  0
  3  5  1  0
  5  6  2  0
  6  7  1  0
  7  8  2  0
  8  9  1  0
  8 10  1  0
 10 11  1  0
 10 12  2  0
 12 13  1  0
 12 14  1  0
 14 15  1  0
 14 16  2  0
 16 17  1  0
 17 18  2  0
 17 19  1  0
 19 20  1  0
 20 21  1  0
 20 22  1  0
 20 23  1  0
 23 24  1  0
 23 25  1  0
 25 26  1  0
 25 27  1  0
 25 28  1  0
 28 29  1  0
 28 30  1  0
 28 31  1  0
 31 32  1  0
 31 33  1  0
 33 34  1  0
 33 35  1  0
 33 36  1  0
 36 37  1  0
 36 38  1  0
  2 39  1  0
 39 40  2  0
 40 41  1  0
 41 42  1  0
 41 43  2  0
 43 44  1  0
 43 45  1  0
 45 46  1  0
 45 47  2  0
 47 48  1  0
 19  5  1  0
 36 23  1  0
 47 39  1  0
 16  7  1  0
M  END
>  <UniqueID>  (39) 
440

>  <SMILES>  (39) 
O=c1c2ccccc2nc(/C=C/c2ccccn2)n1CC1CCNCC1

>  <Energy>  (39) 
63.557462603764506

>  <Genealogy>  (39) 
O=c1c2ccccc2nc(/C=C/c2ccccn2)n1CC1CCNCC1 (cis-trans isomerization)
O=c1c2ccccc2nc(/C=C/c2ccccn2)n1CC1CCNCC1 (3D coordinates assigned)
O=c1c2ccccc2nc(/C=C/c2ccccn2)n1CC1CCNCC1 (nonaromatic ring conformer: 63.557462603764506 kcal/mol)

>  <smiles>  (39) 
O=c1c2ccccc2nc(/C=C/c2ccccn2)n1CC1CCNCC1

>  <score_type>  (39) 
oracle

>  <origin>  (39) 
autodockgpu

>  <m_score__min__energy>  (39) 
-7.9500000000000002

>  <m_primary>  (39) 
energy

>  <meeko>  (39) 
{"free_energy": -7.89, "intermolecular_energy": -9.38, "internal_energy": -1.02, "cluster_size": 7, "cluster_id": 2, "rank_in_cluster": 5}

>  <energy>  (39) 
-5.89

>  <cluster_rmsd>  (39) 
0.0

>  <rmsd>  (39) 
272.01

>  <cluster>  (39) 
6

$$$$
BQTJSOOYCKASGQ-CMDGGOBGNA-N
     RDKit          3D

 48 51  0  0  0  0  0  0  0  0999 V2000
  138.5732   72.1975  223.1015 H   0  0  0  0  0  0  0  0  0  0  0  0
  139.5970   71.8290  223.2630 C   0  0  0  0  0  0  0  0  0  0  0  0
  140.4860   71.9410  222.2700 C   0  0  0  0  0  0  0  0  0  0  0  0
  140.9735   71.0358  221.8789 H   0  0  0  0  0  0  0  0  0  0  0  0
  140.8260   73.2520  221.6890 C   0  0  0  0  0  0  0  0  0  0  0  0
  140.3390   74.3460  222.3260 N   0  0  0  0  0  0  0  0  0  0  0  0
  140.6240   75.6020  221.9130 C   0  0  0  0  0  0  0  0  0  0  0  0
  140.1020   76.7030  222.6020 C   0  0  0  0  0  0  0  0  0  0  0  0
  139.4462   76.5467  223.4712 H   0  0  0  0  0  0  0  0  0  0  0  0
  140.4130   78.0000  222.1870 C   0  0  0  0  0  0  0  0  0  0  0  0
  140.0010   78.8640  222.7290 H   0  0  0  0  0  0  0  0  0  0  0  0
  141.2470   78.2010  221.0840 C   0  0  0  0  0  0  0  0  0  0  0  0
  141.4904   79.2234  220.7592 H   0  0  0  0  0  0  0  0  0  0  0  0
  141.7730   77.1050  220.3920 C   0  0  0  0  0  0  0  0  0  0  0  0
  142.4310   77.2673  219.5256 H   0  0  0  0  0  0  0  0  0  0  0  0
  141.4620   75.7950  220.8020 C   0  0  0  0  0  0  0  0  0  0  0  0
  141.9530   74.6590  220.1350 C   0  0  0  0  0  0  0  0  0  0  0  0
  142.7180   74.8130  219.1420 O   0  0  0  0  0  0  0  0  0  0  0  0
  141.5990   73.3950  220.5510 N   0  0  0  0  0  0  0  0  0  0  0  0
  142.0330   72.2200  219.7530 C   0  0  0  0  0  0  0  0  0  0  0  0
  141.6784   71.3083  220.2560 H   0  0  0  0  0  0  0  0  0  0  0  0
  141.6038   72.3378  218.7471 H   0  0  0  0  0  0  0  0  0  0  0  0
  143.5710   72.1180  219.5810 C   0  0  0  0  0  0  0  0  0  0  0  0
  143.7911   71.0486  219.7153 H   0  0  0  0  0  0  0  0  0  0  0  0
  144.3520   72.9020  220.6500 C   0  0  0  0  0  0  0  0  0  0  0  0
  144.1030   73.9705  220.5711 H   0  0  0  0  0  0  0  0  0  0  0  0
  144.0755   72.5241  221.6454 H   0  0  0  0  0  0  0  0  0  0  0  0
  145.8630   72.7170  220.4460 C   0  0  0  0  0  0  0  0  0  0  0  0
  146.4015   73.3244  221.1884 H   0  0  0  0  0  0  0  0  0  0  0  0
  146.1012   71.6501  220.5684 H   0  0  0  0  0  0  0  0  0  0  0  0
  146.2760   73.1320  219.0980 N   0  0  0  0  0  0  0  0  0  0  0  0
  146.0580   74.1490  218.9730 H   0  0  0  0  0  0  0  0  0  0  0  0
  145.5700   72.3620  218.0640 C   0  0  0  0  0  0  0  0  0  0  0  0
  145.8952   72.7117  217.0730 H   0  0  0  0  0  0  0  0  0  0  0  0
  145.8105   71.2974  218.2009 H   0  0  0  0  0  0  0  0  0  0  0  0
  144.0480   72.5320  218.1790 C   0  0  0  0  0  0  0  0  0  0  0  0
  143.7859   73.5856  218.0026 H   0  0  0  0  0  0  0  0  0  0  0  0
  143.5582   71.8923  217.4302 H   0  0  0  0  0  0  0  0  0  0  0  0
  139.9390   71.2290  224.5680 C   0  0  0  0  0  0  0  0  0  0  0  0
  140.7470   71.8860  225.4470 N   0  0  0  0  0  0  0  0  0  0  0  0
  141.0730   71.3600  226.6580 C   0  0  0  0  0  0  0  0  0  0  0  0
  141.7287   71.9192  227.3416 H   0  0  0  0  0  0  0  0  0  0  0  0
  140.5760   70.1110  227.0340 C   0  0  0  0  0  0  0  0  0  0  0  0
  140.8366   69.6795  228.0117 H   0  0  0  0  0  0  0  0  0  0  0  0
  139.7440   69.4160  226.1540 C   0  0  0  0  0  0  0  0  0  0  0  0
  139.3435   68.4313  226.4368 H   0  0  0  0  0  0  0  0  0  0  0  0
  139.4210   69.9720  224.9150 C   0  0  0  0  0  0  0  0  0  0  0  0
  138.7663   69.4296  224.2170 H   0  0  0  0  0  0  0  0  0  0  0  0
  1  2  1  0
  2  3  2  0
  3  4  1  0
  3  5  1  0
  5  6  2  0
  6  7  1  0
  7  8  2  0
  8  9  1  0
  8 10  1  0
 10 11  1  0
 10 12  2  0
 12 13  1  0
 12 14  1  0
 14 15  1  0
 14 16  2  0
 16 17  1  0
 17 18  2  0
 17 19  1  0
 19 20  1  0
 20 21  1  0
 20 22  1  0
 20 23  1  0
 23 24  1  0
 23 25  1  0
 25 26  1  0
 25 27  1  0
 25 28  1  0
 28 29  1  0
 28 30  1  0
 28 31  1  0
 31 32  1  0
 31 33  1  0
 33 34  1  0
 33 35  1  0
 33 36  1  0
 36 37  1  0
 36 38  1  0
  2 39  1  0
 39 40  2  0
 40 41  1  0
 41 42  1  0
 41 43  2  0
 43 44  1  0
 43 45  1  0
 45 46  1  0
 45 47  2  0
 47 48  1  0
 19  5  1  0
 36 23  1  0
 47 39  1  0
 16  7  1  0
M  END
>  <UniqueID>  (40) 
440

>  <SMILES>  (40) 
O=c1c2ccccc2nc(/C=C/c2ccccn2)n1CC1CCNCC1

>  <Energy>  (40) 
63.557462603764506

>  <Genealogy>  (40) 
O=c1c2ccccc2nc(/C=C/c2ccccn2)n1CC1CCNCC1 (cis-trans isomerization)
O=c1c2ccccc2nc(/C=C/c2ccccn2)n1CC1CCNCC1 (3D coordinates assigned)
O=c1c2ccccc2nc(/C=C/c2ccccn2)n1CC1CCNCC1 (nonaromatic ring conformer: 63.557462603764506 kcal/mol)

>  <smiles>  (40) 
O=c1c2ccccc2nc(/C=C/c2ccccn2)n1CC1CCNCC1

>  <score_type>  (40) 
oracle

>  <origin>  (40) 
autodockgpu

>  <m_score__min__energy>  (40) 
-7.9500000000000002

>  <m_primary>  (40) 
energy

>  <meeko>  (40) 
{"free_energy": -7.95, "intermolecular_energy": -9.44, "internal_energy": -0.86, "cluster_size": 3, "cluster_id": 1, "rank_in_cluster": 1}

>  <energy>  (40) 
-5.88

>  <cluster_rmsd>  (40) 
0.05

>  <rmsd>  (40) 
272.02

>  <cluster>  (40) 
6

$$$$
BQTJSOOYCKASGQ-IDUMZPQDNA-O
     RDKit          3D

 49 52  0  0  0  0  0  0  0  0999 V2000
  141.1577   71.2281  221.0557 H   0  0  0  0  0  0  0  0  0  0  0  0
  140.4810   71.9420  221.5480 C   0  0  0  0  0  0  0  0  0  0  0  0
  139.4410   71.4670  222.2460 C   0  0  0  0  0  0  0  0  0  0  0  0
  138.4226   71.5903  221.8491 H   0  0  0  0  0  0  0  0  0  0  0  0
  139.6380   70.7780  223.5440 C   0  0  0  0  0  0  0  0  0  0  0  0
  140.1650   71.5070  224.5640 N   0  0  0  0  0  0  0  0  0  0  0  0
  140.3660   70.9830  225.7930 C   0  0  0  0  0  0  0  0  0  0  0  0
  140.9090   71.7760  226.8120 C   0  0  0  0  0  0  0  0  0  0  0  0
  141.1740   72.8245  226.6109 H   0  0  0  0  0  0  0  0  0  0  0  0
  141.1140   71.2350  228.0840 C   0  0  0  0  0  0  0  0  0  0  0  0
  141.5434   71.8572  228.8831 H   0  0  0  0  0  0  0  0  0  0  0  0
  140.7740   69.9040  228.3420 C   0  0  0  0  0  0  0  0  0  0  0  0
  140.9340   69.4819  229.3451 H   0  0  0  0  0  0  0  0  0  0  0  0
  140.2310   69.1070  227.3290 C   0  0  0  0  0  0  0  0  0  0  0  0
  139.9661   68.0596  227.5361 H   0  0  0  0  0  0  0  0  0  0  0  0
  140.0230   69.6450  226.0430 C   0  0  0  0  0  0  0  0  0  0  0  0
  139.4880   68.8870  224.9870 C   0  0  0  0  0  0  0  0  0  0  0  0
  139.1900   67.6740  225.1860 O   0  0  0  0  0  0  0  0  0  0  0  0
  139.3010   69.4530  223.7450 N   0  0  0  0  0  0  0  0  0  0  0  0
  138.8250   68.5860  222.6390 C   0  0  0  0  0  0  0  0  0  0  0  0
  139.3776   68.8410  221.7227 H   0  0  0  0  0  0  0  0  0  0  0  0
  138.9990   67.5381  222.9247 H   0  0  0  0  0  0  0  0  0  0  0  0
  137.3120   68.7710  222.3800 C   0  0  0  0  0  0  0  0  0  0  0  0
  137.2068   69.5404  221.6010 H   0  0  0  0  0  0  0  0  0  0  0  0
  136.6850   67.4480  221.8790 C   0  0  0  0  0  0  0  0  0  0  0  0
  136.8687   67.3594  220.7981 H   0  0  0  0  0  0  0  0  0  0  0  0
  137.1526   66.6265  222.4416 H   0  0  0  0  0  0  0  0  0  0  0  0
  135.1640   67.3740  222.1280 C   0  0  0  0  0  0  0  0  0  0  0  0
  134.6946   66.8110  221.3079 H   0  0  0  0  0  0  0  0  0  0  0  0
  134.9963   66.8734  223.0930 H   0  0  0  0  0  0  0  0  0  0  0  0
  134.5630   68.7130  222.1930 N   0  0  0  0  0  0  0  0  0  0  0  0
  133.5230   68.6140  222.2740 H   0  0  0  0  0  0  0  0  0  0  0  0
  134.7650   69.2320  221.3060 H   0  0  0  0  0  0  0  0  0  0  0  0
  135.0570   69.4840  223.3510 C   0  0  0  0  0  0  0  0  0  0  0  0
  134.8811   70.5528  223.1591 H   0  0  0  0  0  0  0  0  0  0  0  0
  134.5117   69.1256  224.2366 H   0  0  0  0  0  0  0  0  0  0  0  0
  136.5650   69.2770  223.6280 C   0  0  0  0  0  0  0  0  0  0  0  0
  137.0042   70.2356  223.9415 H   0  0  0  0  0  0  0  0  0  0  0  0
  136.6663   68.5182  224.4180 H   0  0  0  0  0  0  0  0  0  0  0  0
  140.7540   73.3870  221.4140 C   0  0  0  0  0  0  0  0  0  0  0  0
  139.9490   74.3100  222.0160 N   0  0  0  0  0  0  0  0  0  0  0  0
  140.1900   75.6450  221.9240 C   0  0  0  0  0  0  0  0  0  0  0  0
  139.5195   76.3600  222.4232 H   0  0  0  0  0  0  0  0  0  0  0  0
  141.2870   76.1090  221.1970 C   0  0  0  0  0  0  0  0  0  0  0  0
  141.4900   77.1877  221.1243 H   0  0  0  0  0  0  0  0  0  0  0  0
  142.1240   75.1890  220.5630 C   0  0  0  0  0  0  0  0  0  0  0  0
  142.9875   75.5408  219.9794 H   0  0  0  0  0  0  0  0  0  0  0  0
  141.8630   73.8210  220.6710 C   0  0  0  0  0  0  0  0  0  0  0  0
  142.5209   73.0901  220.1780 H   0  0  0  0  0  0  0  0  0  0  0  0
  1  2  1  0
  2  3  2  0
  3  4  1  0
  3  5  1  0
  5  6  2  0
  6  7  1  0
  7  8  2  0
  8  9  1  0
  8 10  1  0
 10 11  1  0
 10 12  2  0
 12 13  1  0
 12 14  1  0
 14 15  1  0
 14 16  2  0
 16 17  1  0
 17 18  2  0
 17 19  1  0
 19 20  1  0
 20 21  1  0
 20 22  1  0
 20 23  1  0
 23 24  1  0
 23 25  1  0
 25 26  1  0
 25 27  1  0
 25 28  1  0
 28 29  1  0
 28 30  1  0
 28 31  1  0
 31 32  1  0
 31 33  1  0
 31 34  1  0
 34 35  1  0
 34 36  1  0
 34 37  1  0
 37 38  1  0
 37 39  1  0
  2 40  1  0
 40 41  2  0
 41 42  1  0
 42 43  1  0
 42 44  2  0
 44 45  1  0
 44 46  1  0
 46 47  1  0
 46 48  2  0
 48 49  1  0
 19  5  1  0
 37 23  1  0
 48 40  1  0
 16  7  1  0
M  CHG  1  31   1
M  END
>  <UniqueID>  (41) 
441

>  <SMILES>  (41) 
O=c1c2ccccc2nc(/C=C/c2ccccn2)n1CC1CC[NH2+]CC1

>  <Energy>  (41) 
65.99533676113012

>  <Genealogy>  (41) 
O=c1c2ccccc2nc(/C=C/c2ccccn2)n1CC1CC[NH2+]CC1 (protonated)
O=c1c2ccccc2nc(/C=C/c2ccccn2)n1CC1CC[NH2+]CC1 (cis-trans isomerization)
O=c1c2ccccc2nc(/C=C/c2ccccn2)n1CC1CC[NH2+]CC1 (3D coordinates assigned)
O=c1c2ccccc2nc(/C=C/c2ccccn2)n1CC1CC[NH2+]CC1 (nonaromatic ring conformer: 65.99533676113012 kcal/mol)

>  <smiles>  (41) 
O=c1c2ccccc2nc(/C=C/c2ccccn2)n1CC1CCNCC1

>  <score_type>  (41) 
oracle

>  <origin>  (41) 
autodockgpu

>  <m_score__min__energy>  (41) 
-7.5

>  <m_primary>  (41) 
energy

>  <meeko>  (41) 
{"free_energy": -7.5, "intermolecular_energy": -8.99, "internal_energy": -0.99, "cluster_size": 1, "cluster_id": 1, "rank_in_cluster": 1}

>  <energy>  (41) 
-7.5

>  <cluster_rmsd>  (41) 
0.0

>  <rmsd>  (41) 
272.05

>  <cluster>  (41) 
1

$$$$
BQTJSOOYCKASGQ-IDUMZPQDNA-O
     RDKit          3D

 49 52  0  0  0  0  0  0  0  0999 V2000
  143.7572   79.8010  222.7192 H   0  0  0  0  0  0  0  0  0  0  0  0
  142.6700   79.8390  222.5560 C   0  0  0  0  0  0  0  0  0  0  0  0
  141.8940   78.9340  223.1690 C   0  0  0  0  0  0  0  0  0  0  0  0
  142.3628   78.1119  223.7297 H   0  0  0  0  0  0  0  0  0  0  0  0
  140.4160   79.0210  223.1050 C   0  0  0  0  0  0  0  0  0  0  0  0
  139.8010   79.8500  223.9900 N   0  0  0  0  0  0  0  0  0  0  0  0
  138.4610   80.0200  224.0040 C   0  0  0  0  0  0  0  0  0  0  0  0
  137.8740   80.8870  224.9350 C   0  0  0  0  0  0  0  0  0  0  0  0
  138.5043   81.4270  225.6569 H   0  0  0  0  0  0  0  0  0  0  0  0
  136.4890   81.0660  224.9470 C   0  0  0  0  0  0  0  0  0  0  0  0
  136.0292   81.7450  225.6802 H   0  0  0  0  0  0  0  0  0  0  0  0
  135.6860   80.3830  224.0280 C   0  0  0  0  0  0  0  0  0  0  0  0
  134.5956   80.5279  224.0381 H   0  0  0  0  0  0  0  0  0  0  0  0
  136.2660   79.5160  223.0960 C   0  0  0  0  0  0  0  0  0  0  0  0
  135.6311   78.9795  222.3755 H   0  0  0  0  0  0  0  0  0  0  0  0
  137.6630   79.3290  223.0790 C   0  0  0  0  0  0  0  0  0  0  0  0
  138.2960   78.4640  222.1700 C   0  0  0  0  0  0  0  0  0  0  0  0
  137.5930   77.8180  221.3400 O   0  0  0  0  0  0  0  0  0  0  0  0
  139.6650   78.3110  222.1870 N   0  0  0  0  0  0  0  0  0  0  0  0
  140.2760   77.3150  221.2730 C   0  0  0  0  0  0  0  0  0  0  0  0
  140.8756   76.6081  221.8652 H   0  0  0  0  0  0  0  0  0  0  0  0
  139.4660   76.7945  220.7410 H   0  0  0  0  0  0  0  0  0  0  0  0
  141.1880   77.9890  220.2230 C   0  0  0  0  0  0  0  0  0  0  0  0
  141.5207   78.9474  220.6481 H   0  0  0  0  0  0  0  0  0  0  0  0
  142.4230   77.1020  219.9330 C   0  0  0  0  0  0  0  0  0  0  0  0
  143.1756   77.2813  220.7149 H   0  0  0  0  0  0  0  0  0  0  0  0
  142.0839   76.0556  219.9244 H   0  0  0  0  0  0  0  0  0  0  0  0
  143.0610   77.3940  218.5590 C   0  0  0  0  0  0  0  0  0  0  0  0
  144.1490   77.2496  218.6320 H   0  0  0  0  0  0  0  0  0  0  0  0
  142.6236   76.7050  217.8215 H   0  0  0  0  0  0  0  0  0  0  0  0
  142.7900   78.7710  218.1220 N   0  0  0  0  0  0  0  0  0  0  0  0
  143.3130   78.9520  217.2320 H   0  0  0  0  0  0  0  0  0  0  0  0
  143.1440   79.4440  218.8410 H   0  0  0  0  0  0  0  0  0  0  0  0
  141.3520   79.0010  217.8810 C   0  0  0  0  0  0  0  0  0  0  0  0
  141.1603   80.0835  217.9200 H   0  0  0  0  0  0  0  0  0  0  0  0
  141.1145   78.5729  216.8960 H   0  0  0  0  0  0  0  0  0  0  0  0
  140.4380   78.3030  218.9160 C   0  0  0  0  0  0  0  0  0  0  0  0
  139.5884   78.9637  219.1432 H   0  0  0  0  0  0  0  0  0  0  0  0
  140.0952   77.3520  218.4822 H   0  0  0  0  0  0  0  0  0  0  0  0
  142.1210   80.8850  221.6700 C   0  0  0  0  0  0  0  0  0  0  0  0
  142.1880   80.7580  220.3130 N   0  0  0  0  0  0  0  0  0  0  0  0
  141.6720   81.6970  219.4750 C   0  0  0  0  0  0  0  0  0  0  0  0
  141.7440   81.5605  218.3859 H   0  0  0  0  0  0  0  0  0  0  0  0
  141.0510   82.8340  219.9960 C   0  0  0  0  0  0  0  0  0  0  0  0
  140.6266   83.5939  219.3234 H   0  0  0  0  0  0  0  0  0  0  0  0
  140.9750   82.9950  221.3820 C   0  0  0  0  0  0  0  0  0  0  0  0
  140.4966   83.8896  221.8072 H   0  0  0  0  0  0  0  0  0  0  0  0
  141.5070   82.0190  222.2260 C   0  0  0  0  0  0  0  0  0  0  0  0
  141.4458   82.1371  223.3179 H   0  0  0  0  0  0  0  0  0  0  0  0
  1  2  1  0
  2  3  2  0
  3  4  1  0
  3  5  1  0
  5  6  2  0
  6  7  1  0
  7  8  2  0
  8  9  1  0
  8 10  1  0
 10 11  1  0
 10 12  2  0
 12 13  1  0
 12 14  1  0
 14 15  1  0
 14 16  2  0
 16 17  1  0
 17 18  2  0
 17 19  1  0
 19 20  1  0
 20 21  1  0
 20 22  1  0
 20 23  1  0
 23 24  1  0
 23 25  1  0
 25 26  1  0
 25 27  1  0
 25 28  1  0
 28 29  1  0
 28 30  1  0
 28 31  1  0
 31 32  1  0
 31 33  1  0
 31 34  1  0
 34 35  1  0
 34 36  1  0
 34 37  1  0
 37 38  1  0
 37 39  1  0
  2 40  1  0
 40 41  2  0
 41 42  1  0
 42 43  1  0
 42 44  2  0
 44 45  1  0
 44 46  1  0
 46 47  1  0
 46 48  2  0
 48 49  1  0
 19  5  1  0
 37 23  1  0
 48 40  1  0
 16  7  1  0
M  CHG  1  31   1
M  END
>  <UniqueID>  (42) 
441

>  <SMILES>  (42) 
O=c1c2ccccc2nc(/C=C/c2ccccn2)n1CC1CC[NH2+]CC1

>  <Energy>  (42) 
65.99533676113012

>  <Genealogy>  (42) 
O=c1c2ccccc2nc(/C=C/c2ccccn2)n1CC1CC[NH2+]CC1 (protonated)
O=c1c2ccccc2nc(/C=C/c2ccccn2)n1CC1CC[NH2+]CC1 (cis-trans isomerization)
O=c1c2ccccc2nc(/C=C/c2ccccn2)n1CC1CC[NH2+]CC1 (3D coordinates assigned)
O=c1c2ccccc2nc(/C=C/c2ccccn2)n1CC1CC[NH2+]CC1 (nonaromatic ring conformer: 65.99533676113012 kcal/mol)

>  <smiles>  (42) 
O=c1c2ccccc2nc(/C=C/c2ccccn2)n1CC1CCNCC1

>  <score_type>  (42) 
oracle

>  <origin>  (42) 
autodockgpu

>  <m_score__min__energy>  (42) 
-7.5

>  <m_primary>  (42) 
energy

>  <meeko>  (42) 
{"free_energy": -6.34, "intermolecular_energy": -7.83, "internal_energy": -2.42, "cluster_size": 11, "cluster_id": 5, "rank_in_cluster": 3}

>  <energy>  (42) 
-7.39

>  <cluster_rmsd>  (42) 
0.0

>  <rmsd>  (42) 
272.77

>  <cluster>  (42) 
2

$$$$
BQTJSOOYCKASGQ-IDUMZPQDNA-O
     RDKit          3D

 49 52  0  0  0  0  0  0  0  0999 V2000
  138.7365   77.4612  223.5066 H   0  0  0  0  0  0  0  0  0  0  0  0
  139.4690   77.7460  222.7370 C   0  0  0  0  0  0  0  0  0  0  0  0
  139.4800   77.0740  221.5780 C   0  0  0  0  0  0  0  0  0  0  0  0
  138.5795   77.0728  220.9463 H   0  0  0  0  0  0  0  0  0  0  0  0
  140.6830   76.3320  221.1310 C   0  0  0  0  0  0  0  0  0  0  0  0
  140.7050   74.9900  221.3480 N   0  0  0  0  0  0  0  0  0  0  0  0
  141.7420   74.2160  220.9620 C   0  0  0  0  0  0  0  0  0  0  0  0
  141.7160   72.8370  221.2060 C   0  0  0  0  0  0  0  0  0  0  0  0
  140.8520   72.3845  221.7147 H   0  0  0  0  0  0  0  0  0  0  0  0
  142.7880   72.0360  220.8030 C   0  0  0  0  0  0  0  0  0  0  0  0
  142.7679   70.9534  220.9966 H   0  0  0  0  0  0  0  0  0  0  0  0
  143.8860   72.6090  220.1540 C   0  0  0  0  0  0  0  0  0  0  0  0
  144.7276   71.9757  219.8368 H   0  0  0  0  0  0  0  0  0  0  0  0
  143.9170   73.9860  219.9070 C   0  0  0  0  0  0  0  0  0  0  0  0
  144.7824   74.4332  219.3961 H   0  0  0  0  0  0  0  0  0  0  0  0
  142.8410   74.8000  220.3120 C   0  0  0  0  0  0  0  0  0  0  0  0
  142.8250   76.1890  220.0970 C   0  0  0  0  0  0  0  0  0  0  0  0
  143.8130   76.7370  219.5290 O   0  0  0  0  0  0  0  0  0  0  0  0
  141.7520   76.9480  220.5080 N   0  0  0  0  0  0  0  0  0  0  0  0
  141.8250   78.4210  220.3450 C   0  0  0  0  0  0  0  0  0  0  0  0
  140.8450   78.8561  220.5906 H   0  0  0  0  0  0  0  0  0  0  0  0
  142.6054   78.8029  221.0196 H   0  0  0  0  0  0  0  0  0  0  0  0
  142.2010   78.8170  218.8990 C   0  0  0  0  0  0  0  0  0  0  0  0
  143.2781   78.6282  218.7796 H   0  0  0  0  0  0  0  0  0  0  0  0
  141.4160   77.9550  217.8820 C   0  0  0  0  0  0  0  0  0  0  0  0
  141.9350   76.9924  217.7630 H   0  0  0  0  0  0  0  0  0  0  0  0
  140.3974   77.8241  218.2761 H   0  0  0  0  0  0  0  0  0  0  0  0
  141.2950   78.6240  216.4970 C   0  0  0  0  0  0  0  0  0  0  0  0
  141.3095   77.8444  215.7211 H   0  0  0  0  0  0  0  0  0  0  0  0
  140.3512   79.1883  216.4677 H   0  0  0  0  0  0  0  0  0  0  0  0
  142.4000   79.5610  216.2530 N   0  0  0  0  0  0  0  0  0  0  0  0
  142.3260   79.9230  215.2730 H   0  0  0  0  0  0  0  0  0  0  0  0
  143.3130   79.0570  216.3380 H   0  0  0  0  0  0  0  0  0  0  0  0
  142.3680   80.7060  217.1840 C   0  0  0  0  0  0  0  0  0  0  0  0
  143.3697   81.1595  217.2137 H   0  0  0  0  0  0  0  0  0  0  0  0
  141.6058   81.4064  216.8118 H   0  0  0  0  0  0  0  0  0  0  0  0
  141.9640   80.3140  218.6250 C   0  0  0  0  0  0  0  0  0  0  0  0
  142.5611   80.9047  219.3352 H   0  0  0  0  0  0  0  0  0  0  0  0
  140.8898   80.5176  218.7460 H   0  0  0  0  0  0  0  0  0  0  0  0
  140.4030   78.8550  223.0210 C   0  0  0  0  0  0  0  0  0  0  0  0
  141.6770   78.6060  223.4430 N   0  0  0  0  0  0  0  0  0  0  0  0
  142.5620   79.6080  223.6910 C   0  0  0  0  0  0  0  0  0  0  0  0
  143.5813   79.3698  224.0290 H   0  0  0  0  0  0  0  0  0  0  0  0
  142.1780   80.9390  223.5170 C   0  0  0  0  0  0  0  0  0  0  0  0
  142.8912   81.7537  223.7109 H   0  0  0  0  0  0  0  0  0  0  0  0
  140.8780   81.2240  223.0940 C   0  0  0  0  0  0  0  0  0  0  0  0
  140.5587   82.2682  222.9610 H   0  0  0  0  0  0  0  0  0  0  0  0
  139.9840   80.1820  222.8400 C   0  0  0  0  0  0  0  0  0  0  0  0
  138.9603   80.3993  222.5010 H   0  0  0  0  0  0  0  0  0  0  0  0
  1  2  1  0
  2  3  2  0
  3  4  1  0
  3  5  1  0
  5  6  2  0
  6  7  1  0
  7  8  2  0
  8  9  1  0
  8 10  1  0
 10 11  1  0
 10 12  2  0
 12 13  1  0
 12 14  1  0
 14 15  1  0
 14 16  2  0
 16 17  1  0
 17 18  2  0
 17 19  1  0
 19 20  1  0
 20 21  1  0
 20 22  1  0
 20 23  1  0
 23 24  1  0
 23 25  1  0
 25 26  1  0
 25 27  1  0
 25 28  1  0
 28 29  1  0
 28 30  1  0
 28 31  1  0
 31 32  1  0
 31 33  1  0
 31 34  1  0
 34 35  1  0
 34 36  1  0
 34 37  1  0
 37 38  1  0
 37 39  1  0
  2 40  1  0
 40 41  2  0
 41 42  1  0
 42 43  1  0
 42 44  2  0
 44 45  1  0
 44 46  1  0
 46 47  1  0
 46 48  2  0
 48 49  1  0
 19  5  1  0
 37 23  1  0
 48 40  1  0
 16  7  1  0
M  CHG  1  31   1
M  END
>  <UniqueID>  (43) 
441

>  <SMILES>  (43) 
O=c1c2ccccc2nc(/C=C/c2ccccn2)n1CC1CC[NH2+]CC1

>  <Energy>  (43) 
65.99533676113012

>  <Genealogy>  (43) 
O=c1c2ccccc2nc(/C=C/c2ccccn2)n1CC1CC[NH2+]CC1 (protonated)
O=c1c2ccccc2nc(/C=C/c2ccccn2)n1CC1CC[NH2+]CC1 (cis-trans isomerization)
O=c1c2ccccc2nc(/C=C/c2ccccn2)n1CC1CC[NH2+]CC1 (3D coordinates assigned)
O=c1c2ccccc2nc(/C=C/c2ccccn2)n1CC1CC[NH2+]CC1 (nonaromatic ring conformer: 65.99533676113012 kcal/mol)

>  <smiles>  (43) 
O=c1c2ccccc2nc(/C=C/c2ccccn2)n1CC1CCNCC1

>  <score_type>  (43) 
oracle

>  <origin>  (43) 
autodockgpu

>  <m_score__min__energy>  (43) 
-7.5

>  <m_primary>  (43) 
energy

>  <meeko>  (43) 
{"free_energy": -7.28, "intermolecular_energy": -8.77, "internal_energy": -1.21, "cluster_size": 4, "cluster_id": 2, "rank_in_cluster": 4}

>  <energy>  (43) 
-7.38

>  <cluster_rmsd>  (43) 
0.03

>  <rmsd>  (43) 
272.77

>  <cluster>  (43) 
2

$$$$
BQTJSOOYCKASGQ-IDUMZPQDNA-O
     RDKit          3D

 49 52  0  0  0  0  0  0  0  0999 V2000
  143.7451   79.7750  222.7514 H   0  0  0  0  0  0  0  0  0  0  0  0
  142.6580   79.8250  222.5910 C   0  0  0  0  0  0  0  0  0  0  0  0
  141.8760   78.9170  223.1910 C   0  0  0  0  0  0  0  0  0  0  0  0
  142.3385   78.0863  223.7441 H   0  0  0  0  0  0  0  0  0  0  0  0
  140.3980   79.0130  223.1220 C   0  0  0  0  0  0  0  0  0  0  0  0
  139.7840   79.8350  224.0140 N   0  0  0  0  0  0  0  0  0  0  0  0
  138.4450   80.0120  224.0250 C   0  0  0  0  0  0  0  0  0  0  0  0
  137.8590   80.8720  224.9630 C   0  0  0  0  0  0  0  0  0  0  0  0
  138.4891   81.4009  225.6932 H   0  0  0  0  0  0  0  0  0  0  0  0
  136.4740   81.0580  224.9710 C   0  0  0  0  0  0  0  0  0  0  0  0
  136.0144   81.7317  225.7092 H   0  0  0  0  0  0  0  0  0  0  0  0
  135.6720   80.3890  224.0420 C   0  0  0  0  0  0  0  0  0  0  0  0
  134.5822   80.5385  224.0501 H   0  0  0  0  0  0  0  0  0  0  0  0
  136.2510   79.5300  223.1020 C   0  0  0  0  0  0  0  0  0  0  0  0
  135.6164   79.0056  222.3724 H   0  0  0  0  0  0  0  0  0  0  0  0
  137.6460   79.3360  223.0890 C   0  0  0  0  0  0  0  0  0  0  0  0
  138.2790   78.4770  222.1720 C   0  0  0  0  0  0  0  0  0  0  0  0
  137.5760   77.8450  221.3330 O   0  0  0  0  0  0  0  0  0  0  0  0
  139.6470   78.3170  222.1930 N   0  0  0  0  0  0  0  0  0  0  0  0
  140.2560   77.3280  221.2710 C   0  0  0  0  0  0  0  0  0  0  0  0
  140.8464   76.6092  221.8582 H   0  0  0  0  0  0  0  0  0  0  0  0
  139.4455   76.8203  220.7276 H   0  0  0  0  0  0  0  0  0  0  0  0
  141.1800   78.0080  220.2350 C   0  0  0  0  0  0  0  0  0  0  0  0
  141.5128   78.9609  220.6723 H   0  0  0  0  0  0  0  0  0  0  0  0
  142.4140   77.1200  219.9470 C   0  0  0  0  0  0  0  0  0  0  0  0
  143.1605   77.2892  220.7370 H   0  0  0  0  0  0  0  0  0  0  0  0
  142.0714   76.0749  219.9253 H   0  0  0  0  0  0  0  0  0  0  0  0
  143.0650   77.4230  218.5810 C   0  0  0  0  0  0  0  0  0  0  0  0
  144.1519   77.2746  218.6620 H   0  0  0  0  0  0  0  0  0  0  0  0
  142.6321   76.7423  217.8332 H   0  0  0  0  0  0  0  0  0  0  0  0
  142.8020   78.8040  218.1550 N   0  0  0  0  0  0  0  0  0  0  0  0
  143.3330   78.9920  217.2700 H   0  0  0  0  0  0  0  0  0  0  0  0
  143.1520   79.4690  218.8830 H   0  0  0  0  0  0  0  0  0  0  0  0
  141.3670   79.0410  217.9040 C   0  0  0  0  0  0  0  0  0  0  0  0
  141.1786   80.1237  217.9514 H   0  0  0  0  0  0  0  0  0  0  0  0
  141.1366   78.6226  216.9131 H   0  0  0  0  0  0  0  0  0  0  0  0
  140.4420   78.3370  218.9240 C   0  0  0  0  0  0  0  0  0  0  0  0
  139.5928   78.9986  219.1501 H   0  0  0  0  0  0  0  0  0  0  0  0
  140.0995   77.3914  218.4784 H   0  0  0  0  0  0  0  0  0  0  0  0
  142.1170   80.8900  221.7230 C   0  0  0  0  0  0  0  0  0  0  0  0
  142.1990   80.7940  220.3650 N   0  0  0  0  0  0  0  0  0  0  0  0
  141.6910   81.7510  219.5430 C   0  0  0  0  0  0  0  0  0  0  0  0
  141.7749   81.6394  218.4519 H   0  0  0  0  0  0  0  0  0  0  0  0
  141.0630   82.8750  220.0830 C   0  0  0  0  0  0  0  0  0  0  0  0
  140.6447   83.6493  219.4231 H   0  0  0  0  0  0  0  0  0  0  0  0
  140.9720   83.0050  221.4700 C   0  0  0  0  0  0  0  0  0  0  0  0
  140.4884   83.8896  221.9099 H   0  0  0  0  0  0  0  0  0  0  0  0
  141.4960   82.0100  222.2980 C   0  0  0  0  0  0  0  0  0  0  0  0
  141.4228   82.1031  223.3916 H   0  0  0  0  0  0  0  0  0  0  0  0
  1  2  1  0
  2  3  2  0
  3  4  1  0
  3  5  1  0
  5  6  2  0
  6  7  1  0
  7  8  2  0
  8  9  1  0
  8 10  1  0
 10 11  1  0
 10 12  2  0
 12 13  1  0
 12 14  1  0
 14 15  1  0
 14 16  2  0
 16 17  1  0
 17 18  2  0
 17 19  1  0
 19 20  1  0
 20 21  1  0
 20 22  1  0
 20 23  1  0
 23 24  1  0
 23 25  1  0
 25 26  1  0
 25 27  1  0
 25 28  1  0
 28 29  1  0
 28 30  1  0
 28 31  1  0
 31 32  1  0
 31 33  1  0
 31 34  1  0
 34 35  1  0
 34 36  1  0
 34 37  1  0
 37 38  1  0
 37 39  1  0
  2 40  1  0
 40 41  2  0
 41 42  1  0
 42 43  1  0
 42 44  2  0
 44 45  1  0
 44 46  1  0
 46 47  1  0
 46 48  2  0
 48 49  1  0
 19  5  1  0
 37 23  1  0
 48 40  1  0
 16  7  1  0
M  CHG  1  31   1
M  END
>  <UniqueID>  (44) 
441

>  <SMILES>  (44) 
O=c1c2ccccc2nc(/C=C/c2ccccn2)n1CC1CC[NH2+]CC1

>  <Energy>  (44) 
65.99533676113012

>  <Genealogy>  (44) 
O=c1c2ccccc2nc(/C=C/c2ccccn2)n1CC1CC[NH2+]CC1 (protonated)
O=c1c2ccccc2nc(/C=C/c2ccccn2)n1CC1CC[NH2+]CC1 (cis-trans isomerization)
O=c1c2ccccc2nc(/C=C/c2ccccn2)n1CC1CC[NH2+]CC1 (3D coordinates assigned)
O=c1c2ccccc2nc(/C=C/c2ccccn2)n1CC1CC[NH2+]CC1 (nonaromatic ring conformer: 65.99533676113012 kcal/mol)

>  <smiles>  (44) 
O=c1c2ccccc2nc(/C=C/c2ccccn2)n1CC1CCNCC1

>  <score_type>  (44) 
oracle

>  <origin>  (44) 
autodockgpu

>  <m_score__min__energy>  (44) 
-7.5

>  <m_primary>  (44) 
energy

>  <meeko>  (44) 
{"free_energy": -6.33, "intermolecular_energy": -7.82, "internal_energy": -2.43, "cluster_size": 11, "cluster_id": 5, "rank_in_cluster": 5}

>  <energy>  (44) 
-7.35

>  <cluster_rmsd>  (44) 
0.08

>  <rmsd>  (44) 
272.73

>  <cluster>  (44) 
2

$$$$
BQTJSOOYCKASGQ-IDUMZPQDNA-O
     RDKit          3D

 49 52  0  0  0  0  0  0  0  0999 V2000
  136.3070   68.5250  221.6347 H   0  0  0  0  0  0  0  0  0  0  0  0
  136.6730   68.5310  222.6720 C   0  0  0  0  0  0  0  0  0  0  0  0
  137.9280   68.1310  222.9140 C   0  0  0  0  0  0  0  0  0  0  0  0
  138.3457   67.2877  222.3445 H   0  0  0  0  0  0  0  0  0  0  0  0
  138.7640   68.8050  223.9360 C   0  0  0  0  0  0  0  0  0  0  0  0
  138.8140   68.2410  225.1720 N   0  0  0  0  0  0  0  0  0  0  0  0
  139.5610   68.7610  226.1700 C   0  0  0  0  0  0  0  0  0  0  0  0
  139.5820   68.1420  227.4260 C   0  0  0  0  0  0  0  0  0  0  0  0
  138.9873   67.2333  227.6010 H   0  0  0  0  0  0  0  0  0  0  0  0
  140.3580   68.6780  228.4570 C   0  0  0  0  0  0  0  0  0  0  0  0
  140.3717   68.1921  229.4438 H   0  0  0  0  0  0  0  0  0  0  0  0
  141.1170   69.8310  228.2360 C   0  0  0  0  0  0  0  0  0  0  0  0
  141.7290   70.2492  229.0487 H   0  0  0  0  0  0  0  0  0  0  0  0
  141.1000   70.4540  226.9840 C   0  0  0  0  0  0  0  0  0  0  0  0
  141.6967   71.3624  226.8144 H   0  0  0  0  0  0  0  0  0  0  0  0
  140.3200   69.9200  225.9400 C   0  0  0  0  0  0  0  0  0  0  0  0
  140.2600   70.5120  224.6660 C   0  0  0  0  0  0  0  0  0  0  0  0
  140.9210   71.5660  224.4430 O   0  0  0  0  0  0  0  0  0  0  0  0
  139.4840   69.9560  223.6720 N   0  0  0  0  0  0  0  0  0  0  0  0
  139.3790   70.6690  222.3760 C   0  0  0  0  0  0  0  0  0  0  0  0
  140.3913   70.8532  221.9871 H   0  0  0  0  0  0  0  0  0  0  0  0
  138.8000   70.0400  221.6838 H   0  0  0  0  0  0  0  0  0  0  0  0
  138.6460   72.0220  222.5270 C   0  0  0  0  0  0  0  0  0  0  0  0
  138.4641   72.1759  223.6009 H   0  0  0  0  0  0  0  0  0  0  0  0
  139.5260   73.1750  221.9880 C   0  0  0  0  0  0  0  0  0  0  0  0
  140.2424   73.4656  222.7706 H   0  0  0  0  0  0  0  0  0  0  0  0
  140.0348   72.8083  221.0843 H   0  0  0  0  0  0  0  0  0  0  0  0
  138.7040   74.4180  221.5860 C   0  0  0  0  0  0  0  0  0  0  0  0
  139.2964   75.3212  221.7941 H   0  0  0  0  0  0  0  0  0  0  0  0
  138.4672   74.3441  220.5143 H   0  0  0  0  0  0  0  0  0  0  0  0
  137.4410   74.4920  222.3340 N   0  0  0  0  0  0  0  0  0  0  0  0
  136.9590   75.3920  222.0950 H   0  0  0  0  0  0  0  0  0  0  0  0
  137.6400   74.5010  223.3610 H   0  0  0  0  0  0  0  0  0  0  0  0
  136.5380   73.3710  222.0050 C   0  0  0  0  0  0  0  0  0  0  0  0
  135.8058   73.2622  222.8186 H   0  0  0  0  0  0  0  0  0  0  0  0
  136.0581   73.6104  221.0446 H   0  0  0  0  0  0  0  0  0  0  0  0
  137.2760   72.0230  221.8250 C   0  0  0  0  0  0  0  0  0  0  0  0
  136.6575   71.2191  222.2505 H   0  0  0  0  0  0  0  0  0  0  0  0
  137.4434   71.8663  220.7492 H   0  0  0  0  0  0  0  0  0  0  0  0
  135.7610   68.9800  223.7440 C   0  0  0  0  0  0  0  0  0  0  0  0
  134.8020   68.1470  224.2410 N   0  0  0  0  0  0  0  0  0  0  0  0
  133.9640   68.5280  225.2410 C   0  0  0  0  0  0  0  0  0  0  0  0
  133.2026   67.8285  225.6165 H   0  0  0  0  0  0  0  0  0  0  0  0
  134.0690   69.8070  225.7920 C   0  0  0  0  0  0  0  0  0  0  0  0
  133.3982   70.1192  226.6060 H   0  0  0  0  0  0  0  0  0  0  0  0
  135.0360   70.6850  225.2970 C   0  0  0  0  0  0  0  0  0  0  0  0
  135.1245   71.6989  225.7143 H   0  0  0  0  0  0  0  0  0  0  0  0
  135.8900   70.2740  224.2720 C   0  0  0  0  0  0  0  0  0  0  0  0
  136.6575   70.9585  223.8815 H   0  0  0  0  0  0  0  0  0  0  0  0
  1  2  1  0
  2  3  2  0
  3  4  1  0
  3  5  1  0
  5  6  2  0
  6  7  1  0
  7  8  2  0
  8  9  1  0
  8 10  1  0
 10 11  1  0
 10 12  2  0
 12 13  1  0
 12 14  1  0
 14 15  1  0
 14 16  2  0
 16 17  1  0
 17 18  2  0
 17 19  1  0
 19 20  1  0
 20 21  1  0
 20 22  1  0
 20 23  1  0
 23 24  1  0
 23 25  1  0
 25 26  1  0
 25 27  1  0
 25 28  1  0
 28 29  1  0
 28 30  1  0
 28 31  1  0
 31 32  1  0
 31 33  1  0
 31 34  1  0
 34 35  1  0
 34 36  1  0
 34 37  1  0
 37 38  1  0
 37 39  1  0
  2 40  1  0
 40 41  2  0
 41 42  1  0
 42 43  1  0
 42 44  2  0
 44 45  1  0
 44 46  1  0
 46 47  1  0
 46 48  2  0
 48 49  1  0
 19  5  1  0
 37 23  1  0
 48 40  1  0
 16  7  1  0
M  CHG  1  31   1
M  END
>  <UniqueID>  (45) 
441

>  <SMILES>  (45) 
O=c1c2ccccc2nc(/C=C/c2ccccn2)n1CC1CC[NH2+]CC1

>  <Energy>  (45) 
65.99533676113012

>  <Genealogy>  (45) 
O=c1c2ccccc2nc(/C=C/c2ccccn2)n1CC1CC[NH2+]CC1 (protonated)
O=c1c2ccccc2nc(/C=C/c2ccccn2)n1CC1CC[NH2+]CC1 (cis-trans isomerization)
O=c1c2ccccc2nc(/C=C/c2ccccn2)n1CC1CC[NH2+]CC1 (3D coordinates assigned)
O=c1c2ccccc2nc(/C=C/c2ccccn2)n1CC1CC[NH2+]CC1 (nonaromatic ring conformer: 65.99533676113012 kcal/mol)

>  <smiles>  (45) 
O=c1c2ccccc2nc(/C=C/c2ccccn2)n1CC1CCNCC1

>  <score_type>  (45) 
oracle

>  <origin>  (45) 
autodockgpu

>  <m_score__min__energy>  (45) 
-7.5

>  <m_primary>  (45) 
energy

>  <meeko>  (45) 
{"free_energy": -7.07, "intermolecular_energy": -8.56, "internal_energy": -1.5, "cluster_size": 2, "cluster_id": 4, "rank_in_cluster": 1}

>  <energy>  (45) 
-7.28

>  <cluster_rmsd>  (45) 
0.53

>  <rmsd>  (45) 
272.74

>  <cluster>  (45) 
2

$$$$
BQTJSOOYCKASGQ-IDUMZPQDNA-O
     RDKit          3D

 49 52  0  0  0  0  0  0  0  0999 V2000
  143.7471   79.8777  222.7442 H   0  0  0  0  0  0  0  0  0  0  0  0
  142.6640   79.8800  222.5520 C   0  0  0  0  0  0  0  0  0  0  0  0
  141.9020   78.9510  223.1460 C   0  0  0  0  0  0  0  0  0  0  0  0
  142.3830   78.1183  223.6800 H   0  0  0  0  0  0  0  0  0  0  0  0
  140.4230   79.0260  223.0960 C   0  0  0  0  0  0  0  0  0  0  0  0
  139.8090   79.8540  223.9820 N   0  0  0  0  0  0  0  0  0  0  0  0
  138.4680   80.0130  224.0080 C   0  0  0  0  0  0  0  0  0  0  0  0
  137.8830   80.8820  224.9390 C   0  0  0  0  0  0  0  0  0  0  0  0
  138.5160   81.4328  225.6503 H   0  0  0  0  0  0  0  0  0  0  0  0
  136.4960   81.0490  224.9640 C   0  0  0  0  0  0  0  0  0  0  0  0
  136.0374   81.7287  225.6972 H   0  0  0  0  0  0  0  0  0  0  0  0
  135.6910   80.3530  224.0580 C   0  0  0  0  0  0  0  0  0  0  0  0
  134.5995   80.4880  224.0784 H   0  0  0  0  0  0  0  0  0  0  0  0
  136.2690   79.4850  223.1250 C   0  0  0  0  0  0  0  0  0  0  0  0
  135.6315   78.9387  222.4143 H   0  0  0  0  0  0  0  0  0  0  0  0
  137.6670   79.3100  223.0950 C   0  0  0  0  0  0  0  0  0  0  0  0
  138.2980   78.4440  222.1850 C   0  0  0  0  0  0  0  0  0  0  0  0
  137.5930   77.7880  221.3670 O   0  0  0  0  0  0  0  0  0  0  0  0
  139.6690   78.3040  222.1900 N   0  0  0  0  0  0  0  0  0  0  0  0
  140.2790   77.3070  221.2760 C   0  0  0  0  0  0  0  0  0  0  0  0
  140.8793   76.6006  221.8681 H   0  0  0  0  0  0  0  0  0  0  0  0
  139.4683   76.7861  220.7455 H   0  0  0  0  0  0  0  0  0  0  0  0
  141.1900   77.9800  220.2240 C   0  0  0  0  0  0  0  0  0  0  0  0
  141.5147   78.9440  220.6427 H   0  0  0  0  0  0  0  0  0  0  0  0
  142.4320   77.1010  219.9450 C   0  0  0  0  0  0  0  0  0  0  0  0
  143.1802   77.2913  220.7285 H   0  0  0  0  0  0  0  0  0  0  0  0
  142.1011   76.0520  219.9424 H   0  0  0  0  0  0  0  0  0  0  0  0
  143.0730   77.3890  218.5710 C   0  0  0  0  0  0  0  0  0  0  0  0
  144.1620   77.2547  218.6495 H   0  0  0  0  0  0  0  0  0  0  0  0
  142.6441   76.6909  217.8371 H   0  0  0  0  0  0  0  0  0  0  0  0
  142.7920   78.7600  218.1220 N   0  0  0  0  0  0  0  0  0  0  0  0
  143.3160   78.9390  217.2330 H   0  0  0  0  0  0  0  0  0  0  0  0
  143.1380   79.4410  218.8380 H   0  0  0  0  0  0  0  0  0  0  0  0
  141.3530   78.9760  217.8750 C   0  0  0  0  0  0  0  0  0  0  0  0
  141.1522   80.0571  217.9055 H   0  0  0  0  0  0  0  0  0  0  0  0
  141.1224   78.5384  216.8925 H   0  0  0  0  0  0  0  0  0  0  0  0
  140.4410   78.2780  218.9120 C   0  0  0  0  0  0  0  0  0  0  0  0
  139.5852   78.9333  219.1316 H   0  0  0  0  0  0  0  0  0  0  0  0
  140.1071   77.3212  218.4842 H   0  0  0  0  0  0  0  0  0  0  0  0
  142.1050   80.9070  221.6490 C   0  0  0  0  0  0  0  0  0  0  0  0
  142.1950   80.7700  220.2940 N   0  0  0  0  0  0  0  0  0  0  0  0
  141.6710   81.6900  219.4410 C   0  0  0  0  0  0  0  0  0  0  0  0
  141.7617   81.5461  218.3542 H   0  0  0  0  0  0  0  0  0  0  0  0
  141.0180   82.8170  219.9430 C   0  0  0  0  0  0  0  0  0  0  0  0
  140.5872   83.5618  219.2576 H   0  0  0  0  0  0  0  0  0  0  0  0
  140.9180   82.9880  221.3250 C   0  0  0  0  0  0  0  0  0  0  0  0
  140.4137   83.8754  221.7351 H   0  0  0  0  0  0  0  0  0  0  0  0
  141.4590   82.0310  222.1860 C   0  0  0  0  0  0  0  0  0  0  0  0
  141.3795   82.1571  223.2758 H   0  0  0  0  0  0  0  0  0  0  0  0
  1  2  1  0
  2  3  2  0
  3  4  1  0
  3  5  1  0
  5  6  2  0
  6  7  1  0
  7  8  2  0
  8  9  1  0
  8 10  1  0
 10 11  1  0
 10 12  2  0
 12 13  1  0
 12 14  1  0
 14 15  1  0
 14 16  2  0
 16 17  1  0
 17 18  2  0
 17 19  1  0
 19 20  1  0
 20 21  1  0
 20 22  1  0
 20 23  1  0
 23 24  1  0
 23 25  1  0
 25 26  1  0
 25 27  1  0
 25 28  1  0
 28 29  1  0
 28 30  1  0
 28 31  1  0
 31 32  1  0
 31 33  1  0
 31 34  1  0
 34 35  1  0
 34 36  1  0
 34 37  1  0
 37 38  1  0
 37 39  1  0
  2 40  1  0
 40 41  2  0
 41 42  1  0
 42 43  1  0
 42 44  2  0
 44 45  1  0
 44 46  1  0
 46 47  1  0
 46 48  2  0
 48 49  1  0
 19  5  1  0
 37 23  1  0
 48 40  1  0
 16  7  1  0
M  CHG  1  31   1
M  END
>  <UniqueID>  (46) 
441

>  <SMILES>  (46) 
O=c1c2ccccc2nc(/C=C/c2ccccn2)n1CC1CC[NH2+]CC1

>  <Energy>  (46) 
65.99533676113012

>  <Genealogy>  (46) 
O=c1c2ccccc2nc(/C=C/c2ccccn2)n1CC1CC[NH2+]CC1 (protonated)
O=c1c2ccccc2nc(/C=C/c2ccccn2)n1CC1CC[NH2+]CC1 (cis-trans isomerization)
O=c1c2ccccc2nc(/C=C/c2ccccn2)n1CC1CC[NH2+]CC1 (3D coordinates assigned)
O=c1c2ccccc2nc(/C=C/c2ccccn2)n1CC1CC[NH2+]CC1 (nonaromatic ring conformer: 65.99533676113012 kcal/mol)

>  <smiles>  (46) 
O=c1c2ccccc2nc(/C=C/c2ccccn2)n1CC1CCNCC1

>  <score_type>  (46) 
oracle

>  <origin>  (46) 
autodockgpu

>  <m_score__min__energy>  (46) 
-7.5

>  <m_primary>  (46) 
energy

>  <meeko>  (46) 
{"free_energy": -6.33, "intermolecular_energy": -7.82, "internal_energy": -2.42, "cluster_size": 11, "cluster_id": 5, "rank_in_cluster": 6}

>  <energy>  (46) 
-7.34

>  <cluster_rmsd>  (46) 
0.0

>  <rmsd>  (46) 
272.74

>  <cluster>  (46) 
3

$$$$
BQTJSOOYCKASGQ-IDUMZPQDNA-O
     RDKit          3D

 49 52  0  0  0  0  0  0  0  0999 V2000
  143.7387   79.7491  222.7485 H   0  0  0  0  0  0  0  0  0  0  0  0
  142.6550   79.7840  222.5630 C   0  0  0  0  0  0  0  0  0  0  0  0
  141.8710   78.8690  223.1500 C   0  0  0  0  0  0  0  0  0  0  0  0
  142.3321   78.0237  223.6819 H   0  0  0  0  0  0  0  0  0  0  0  0
  140.3940   78.9760  223.0950 C   0  0  0  0  0  0  0  0  0  0  0  0
  139.7940   79.8050  223.9910 N   0  0  0  0  0  0  0  0  0  0  0  0
  138.4570   79.9920  224.0140 C   0  0  0  0  0  0  0  0  0  0  0  0
  137.8870   80.8590  224.9550 C   0  0  0  0  0  0  0  0  0  0  0  0
  138.5284   81.3849  225.6775 H   0  0  0  0  0  0  0  0  0  0  0  0
  136.5030   81.0560  224.9760 C   0  0  0  0  0  0  0  0  0  0  0  0
  136.0560   81.7353  225.7168 H   0  0  0  0  0  0  0  0  0  0  0  0
  135.6870   80.3910  224.0570 C   0  0  0  0  0  0  0  0  0  0  0  0
  134.5985   80.5488  224.0751 H   0  0  0  0  0  0  0  0  0  0  0  0
  136.2510   79.5250  223.1140 C   0  0  0  0  0  0  0  0  0  0  0  0
  135.6052   79.0033  222.3923 H   0  0  0  0  0  0  0  0  0  0  0  0
  137.6440   79.3200  223.0870 C   0  0  0  0  0  0  0  0  0  0  0  0
  138.2610   78.4540  222.1670 C   0  0  0  0  0  0  0  0  0  0  0  0
  137.5460   77.8250  221.3360 O   0  0  0  0  0  0  0  0  0  0  0  0
  139.6280   78.2840  222.1750 N   0  0  0  0  0  0  0  0  0  0  0  0
  140.2210   77.2880  221.2500 C   0  0  0  0  0  0  0  0  0  0  0  0
  140.8028   76.5603  221.8348 H   0  0  0  0  0  0  0  0  0  0  0  0
  139.4019   76.7928  220.7079 H   0  0  0  0  0  0  0  0  0  0  0  0
  141.1520   77.9560  220.2120 C   0  0  0  0  0  0  0  0  0  0  0  0
  141.4833   78.9131  220.6411 H   0  0  0  0  0  0  0  0  0  0  0  0
  142.3870   77.0630  219.9410 C   0  0  0  0  0  0  0  0  0  0  0  0
  143.1289   77.2393  220.7338 H   0  0  0  0  0  0  0  0  0  0  0  0
  142.0437   76.0180  219.9283 H   0  0  0  0  0  0  0  0  0  0  0  0
  143.0460   77.3520  218.5760 C   0  0  0  0  0  0  0  0  0  0  0  0
  144.1321   77.2017  218.6644 H   0  0  0  0  0  0  0  0  0  0  0  0
  142.6150   76.6655  217.8324 H   0  0  0  0  0  0  0  0  0  0  0  0
  142.7890   78.7300  218.1350 N   0  0  0  0  0  0  0  0  0  0  0  0
  143.3250   78.9080  217.2520 H   0  0  0  0  0  0  0  0  0  0  0  0
  143.1350   79.4010  218.8590 H   0  0  0  0  0  0  0  0  0  0  0  0
  141.3550   78.9660  217.8730 C   0  0  0  0  0  0  0  0  0  0  0  0
  141.1675   80.0493  217.9088 H   0  0  0  0  0  0  0  0  0  0  0  0
  141.1302   78.5381  216.8849 H   0  0  0  0  0  0  0  0  0  0  0  0
  140.4230   78.2730  218.8940 C   0  0  0  0  0  0  0  0  0  0  0  0
  139.5732   78.9377  219.1084 H   0  0  0  0  0  0  0  0  0  0  0  0
  140.0823   77.3235  218.4555 H   0  0  0  0  0  0  0  0  0  0  0  0
  142.1200   80.8370  221.6770 C   0  0  0  0  0  0  0  0  0  0  0  0
  142.2020   80.7180  220.3200 N   0  0  0  0  0  0  0  0  0  0  0  0
  141.6990   81.6630  219.4820 C   0  0  0  0  0  0  0  0  0  0  0  0
  141.7824   81.5321  218.3930 H   0  0  0  0  0  0  0  0  0  0  0  0
  141.0770   82.7990  220.0020 C   0  0  0  0  0  0  0  0  0  0  0  0
  140.6641   83.5648  219.3289 H   0  0  0  0  0  0  0  0  0  0  0  0
  140.9850   82.9520  221.3870 C   0  0  0  0  0  0  0  0  0  0  0  0
  140.5040   83.8456  221.8115 H   0  0  0  0  0  0  0  0  0  0  0  0
  141.5040   81.9700  222.2320 C   0  0  0  0  0  0  0  0  0  0  0  0
  141.4310   82.0828  223.3238 H   0  0  0  0  0  0  0  0  0  0  0  0
  1  2  1  0
  2  3  2  0
  3  4  1  0
  3  5  1  0
  5  6  2  0
  6  7  1  0
  7  8  2  0
  8  9  1  0
  8 10  1  0
 10 11  1  0
 10 12  2  0
 12 13  1  0
 12 14  1  0
 14 15  1  0
 14 16  2  0
 16 17  1  0
 17 18  2  0
 17 19  1  0
 19 20  1  0
 20 21  1  0
 20 22  1  0
 20 23  1  0
 23 24  1  0
 23 25  1  0
 25 26  1  0
 25 27  1  0
 25 28  1  0
 28 29  1  0
 28 30  1  0
 28 31  1  0
 31 32  1  0
 31 33  1  0
 31 34  1  0
 34 35  1  0
 34 36  1  0
 34 37  1  0
 37 38  1  0
 37 39  1  0
  2 40  1  0
 40 41  2  0
 41 42  1  0
 42 43  1  0
 42 44  2  0
 44 45  1  0
 44 46  1  0
 46 47  1  0
 46 48  2  0
 48 49  1  0
 19  5  1  0
 37 23  1  0
 48 40  1  0
 16  7  1  0
M  CHG  1  31   1
M  END
>  <UniqueID>  (47) 
441

>  <SMILES>  (47) 
O=c1c2ccccc2nc(/C=C/c2ccccn2)n1CC1CC[NH2+]CC1

>  <Energy>  (47) 
65.99533676113012

>  <Genealogy>  (47) 
O=c1c2ccccc2nc(/C=C/c2ccccn2)n1CC1CC[NH2+]CC1 (protonated)
O=c1c2ccccc2nc(/C=C/c2ccccn2)n1CC1CC[NH2+]CC1 (cis-trans isomerization)
O=c1c2ccccc2nc(/C=C/c2ccccn2)n1CC1CC[NH2+]CC1 (3D coordinates assigned)
O=c1c2ccccc2nc(/C=C/c2ccccn2)n1CC1CC[NH2+]CC1 (nonaromatic ring conformer: 65.99533676113012 kcal/mol)

>  <smiles>  (47) 
O=c1c2ccccc2nc(/C=C/c2ccccn2)n1CC1CCNCC1

>  <score_type>  (47) 
oracle

>  <origin>  (47) 
autodockgpu

>  <m_score__min__energy>  (47) 
-7.5

>  <m_primary>  (47) 
energy

>  <meeko>  (47) 
{"free_energy": -6.32, "intermolecular_energy": -7.81, "internal_energy": -2.43, "cluster_size": 11, "cluster_id": 5, "rank_in_cluster": 11}

>  <energy>  (47) 
-7.07

>  <cluster_rmsd>  (47) 
0.0

>  <rmsd>  (47) 
272.26

>  <cluster>  (47) 
4

$$$$
BQTJSOOYCKASGQ-IDUMZPQDNA-O
     RDKit          3D

 49 52  0  0  0  0  0  0  0  0999 V2000
  136.1872   68.1718  221.5594 H   0  0  0  0  0  0  0  0  0  0  0  0
  136.6410   68.3730  222.5410 C   0  0  0  0  0  0  0  0  0  0  0  0
  137.9410   68.0980  222.7190 C   0  0  0  0  0  0  0  0  0  0  0  0
  138.4245   67.3399  222.0853 H   0  0  0  0  0  0  0  0  0  0  0  0
  138.7380   68.7970  223.7540 C   0  0  0  0  0  0  0  0  0  0  0  0
  138.8120   68.2190  224.9820 N   0  0  0  0  0  0  0  0  0  0  0  0
  139.5290   68.7610  225.9900 C   0  0  0  0  0  0  0  0  0  0  0  0
  139.5760   68.1240  227.2380 C   0  0  0  0  0  0  0  0  0  0  0  0
  139.0265   67.1845  227.3973 H   0  0  0  0  0  0  0  0  0  0  0  0
  140.3210   68.6830  228.2790 C   0  0  0  0  0  0  0  0  0  0  0  0
  140.3562   68.1838  229.2586 H   0  0  0  0  0  0  0  0  0  0  0  0
  141.0220   69.8760  228.0780 C   0  0  0  0  0  0  0  0  0  0  0  0
  141.6089   70.3124  228.8996 H   0  0  0  0  0  0  0  0  0  0  0  0
  140.9790   70.5160  226.8350 C   0  0  0  0  0  0  0  0  0  0  0  0
  141.5306   71.4552  226.6812 H   0  0  0  0  0  0  0  0  0  0  0  0
  140.2300   69.9590  225.7800 C   0  0  0  0  0  0  0  0  0  0  0  0
  140.1450   70.5650  224.5140 C   0  0  0  0  0  0  0  0  0  0  0  0
  140.7540   71.6540  224.3090 O   0  0  0  0  0  0  0  0  0  0  0  0
  139.4010   69.9860  223.5100 N   0  0  0  0  0  0  0  0  0  0  0  0
  139.2650   70.7120  222.2230 C   0  0  0  0  0  0  0  0  0  0  0  0
  140.2648   70.8576  221.7881 H   0  0  0  0  0  0  0  0  0  0  0  0
  138.6293   70.1118  221.5554 H   0  0  0  0  0  0  0  0  0  0  0  0
  138.5960   72.0920  222.4150 C   0  0  0  0  0  0  0  0  0  0  0  0
  138.3836   72.2049  223.4884 H   0  0  0  0  0  0  0  0  0  0  0  0
  139.5510   73.2220  221.9630 C   0  0  0  0  0  0  0  0  0  0  0  0
  140.2519   73.4385  222.7827 H   0  0  0  0  0  0  0  0  0  0  0  0
  140.0736   72.8723  221.0604 H   0  0  0  0  0  0  0  0  0  0  0  0
  138.8070   74.5230  221.5940 C   0  0  0  0  0  0  0  0  0  0  0  0
  139.4356   75.3838  221.8657 H   0  0  0  0  0  0  0  0  0  0  0  0
  138.6061   74.5113  220.5126 H   0  0  0  0  0  0  0  0  0  0  0  0
  137.5230   74.6270  222.3010 N   0  0  0  0  0  0  0  0  0  0  0  0
  137.0960   75.5610  222.0900 H   0  0  0  0  0  0  0  0  0  0  0  0
  137.6850   74.5770  223.3340 H   0  0  0  0  0  0  0  0  0  0  0  0
  136.5790   73.5710  221.8880 C   0  0  0  0  0  0  0  0  0  0  0  0
  135.8131   73.4624  222.6701 H   0  0  0  0  0  0  0  0  0  0  0  0
  136.1477   73.8793  220.9242 H   0  0  0  0  0  0  0  0  0  0  0  0
  137.2540   72.1960  221.6680 C   0  0  0  0  0  0  0  0  0  0  0  0
  136.5810   71.4064  222.0334 H   0  0  0  0  0  0  0  0  0  0  0  0
  137.4517   72.0803  220.5921 H   0  0  0  0  0  0  0  0  0  0  0  0
  135.7950   68.9360  223.6130 C   0  0  0  0  0  0  0  0  0  0  0  0
  134.9160   68.1480  224.2960 N   0  0  0  0  0  0  0  0  0  0  0  0
  134.1400   68.6360  225.3000 C   0  0  0  0  0  0  0  0  0  0  0  0
  133.4425   67.9700  225.8291 H   0  0  0  0  0  0  0  0  0  0  0  0
  134.2280   69.9830  225.6600 C   0  0  0  0  0  0  0  0  0  0  0  0
  133.6076   70.3827  226.4757 H   0  0  0  0  0  0  0  0  0  0  0  0
  135.1130   70.8160  224.9720 C   0  0  0  0  0  0  0  0  0  0  0  0
  135.1868   71.8808  225.2379 H   0  0  0  0  0  0  0  0  0  0  0  0
  135.9040   70.2950  223.9460 C   0  0  0  0  0  0  0  0  0  0  0  0
  136.6067   70.9443  223.4033 H   0  0  0  0  0  0  0  0  0  0  0  0
  1  2  1  0
  2  3  2  0
  3  4  1  0
  3  5  1  0
  5  6  2  0
  6  7  1  0
  7  8  2  0
  8  9  1  0
  8 10  1  0
 10 11  1  0
 10 12  2  0
 12 13  1  0
 12 14  1  0
 14 15  1  0
 14 16  2  0
 16 17  1  0
 17 18  2  0
 17 19  1  0
 19 20  1  0
 20 21  1  0
 20 22  1  0
 20 23  1  0
 23 24  1  0
 23 25  1  0
 25 26  1  0
 25 27  1  0
 25 28  1  0
 28 29  1  0
 28 30  1  0
 28 31  1  0
 31 32  1  0
 31 33  1  0
 31 34  1  0
 34 35  1  0
 34 36  1  0
 34 37  1  0
 37 38  1  0
 37 39  1  0
  2 40  1  0
 40 41  2  0
 41 42  1  0
 42 43  1  0
 42 44  2  0
 44 45  1  0
 44 46  1  0
 46 47  1  0
 46 48  2  0
 48 49  1  0
 19  5  1  0
 37 23  1  0
 48 40  1  0
 16  7  1  0
M  CHG  1  31   1
M  END
>  <UniqueID>  (48) 
441

>  <SMILES>  (48) 
O=c1c2ccccc2nc(/C=C/c2ccccn2)n1CC1CC[NH2+]CC1

>  <Energy>  (48) 
65.99533676113012

>  <Genealogy>  (48) 
O=c1c2ccccc2nc(/C=C/c2ccccn2)n1CC1CC[NH2+]CC1 (protonated)
O=c1c2ccccc2nc(/C=C/c2ccccn2)n1CC1CC[NH2+]CC1 (cis-trans isomerization)
O=c1c2ccccc2nc(/C=C/c2ccccn2)n1CC1CC[NH2+]CC1 (3D coordinates assigned)
O=c1c2ccccc2nc(/C=C/c2ccccn2)n1CC1CC[NH2+]CC1 (nonaromatic ring conformer: 65.99533676113012 kcal/mol)

>  <smiles>  (48) 
O=c1c2ccccc2nc(/C=C/c2ccccn2)n1CC1CCNCC1

>  <score_type>  (48) 
oracle

>  <origin>  (48) 
autodockgpu

>  <m_score__min__energy>  (48) 
-7.5

>  <m_primary>  (48) 
energy

>  <meeko>  (48) 
{"free_energy": -7.05, "intermolecular_energy": -8.55, "internal_energy": -1.52, "cluster_size": 2, "cluster_id": 4, "rank_in_cluster": 2}

>  <energy>  (48) 
-7.05

>  <cluster_rmsd>  (48) 
0.2

>  <rmsd>  (48) 
272.17

>  <cluster>  (48) 
4

$$$$
BQTJSOOYCKASGQ-IDUMZPQDNA-O
     RDKit          3D

 49 52  0  0  0  0  0  0  0  0999 V2000
  143.1422   77.5311  217.0831 H   0  0  0  0  0  0  0  0  0  0  0  0
  142.4540   77.5770  217.9400 C   0  0  0  0  0  0  0  0  0  0  0  0
  141.6050   78.6100  218.0300 C   0  0  0  0  0  0  0  0  0  0  0  0
  140.8895   78.7938  217.2150 H   0  0  0  0  0  0  0  0  0  0  0  0
  141.6130   79.5090  219.2080 C   0  0  0  0  0  0  0  0  0  0  0  0
  141.8410   78.9440  220.4230 N   0  0  0  0  0  0  0  0  0  0  0  0
  141.8910   79.6750  221.5580 C   0  0  0  0  0  0  0  0  0  0  0  0
  142.1310   79.0460  222.7870 C   0  0  0  0  0  0  0  0  0  0  0  0
  142.2753   77.9563  222.8282 H   0  0  0  0  0  0  0  0  0  0  0  0
  142.1870   79.8030  223.9600 C   0  0  0  0  0  0  0  0  0  0  0  0
  142.3746   79.3083  224.9244 H   0  0  0  0  0  0  0  0  0  0  0  0
  142.0050   81.1880  223.9100 C   0  0  0  0  0  0  0  0  0  0  0  0
  142.0506   81.7810  224.8353 H   0  0  0  0  0  0  0  0  0  0  0  0
  141.7650   81.8220  222.6860 C   0  0  0  0  0  0  0  0  0  0  0  0
  141.6215   82.9120  222.6504 H   0  0  0  0  0  0  0  0  0  0  0  0
  141.7070   81.0650  221.4990 C   0  0  0  0  0  0  0  0  0  0  0  0
  141.4600   81.6500  220.2450 C   0  0  0  0  0  0  0  0  0  0  0  0
  141.2730   82.8990  220.1710 O   0  0  0  0  0  0  0  0  0  0  0  0
  141.4120   80.8730  219.1080 N   0  0  0  0  0  0  0  0  0  0  0  0
  141.0530   81.5230  217.8230 C   0  0  0  0  0  0  0  0  0  0  0  0
  140.2978   80.9086  217.3110 H   0  0  0  0  0  0  0  0  0  0  0  0
  140.6598   82.5264  218.0433 H   0  0  0  0  0  0  0  0  0  0  0  0
  142.2830   81.6780  216.9000 C   0  0  0  0  0  0  0  0  0  0  0  0
  142.9107   80.7858  217.0415 H   0  0  0  0  0  0  0  0  0  0  0  0
  141.8390   81.7610  215.4200 C   0  0  0  0  0  0  0  0  0  0  0  0
  141.6748   80.7401  215.0449 H   0  0  0  0  0  0  0  0  0  0  0  0
  140.9189   82.3627  215.3843 H   0  0  0  0  0  0  0  0  0  0  0  0
  142.8820   82.4550  214.5190 C   0  0  0  0  0  0  0  0  0  0  0  0
  142.8559   81.9936  213.5208 H   0  0  0  0  0  0  0  0  0  0  0  0
  142.6323   83.5248  214.4618 H   0  0  0  0  0  0  0  0  0  0  0  0
  144.2390   82.3260  215.0700 N   0  0  0  0  0  0  0  0  0  0  0  0
  144.9210   82.7320  214.3860 H   0  0  0  0  0  0  0  0  0  0  0  0
  144.4740   81.3140  215.1920 H   0  0  0  0  0  0  0  0  0  0  0  0
  144.3810   83.0350  216.3570 C   0  0  0  0  0  0  0  0  0  0  0  0
  145.2504   82.6216  216.8892 H   0  0  0  0  0  0  0  0  0  0  0  0
  144.5045   84.1038  216.1279 H   0  0  0  0  0  0  0  0  0  0  0  0
  143.1380   82.9030  217.2700 C   0  0  0  0  0  0  0  0  0  0  0  0
  143.4719   82.8019  218.3132 H   0  0  0  0  0  0  0  0  0  0  0  0
  142.5200   83.8033  217.1375 H   0  0  0  0  0  0  0  0  0  0  0  0
  142.5010   76.4980  218.9470 C   0  0  0  0  0  0  0  0  0  0  0  0
  141.3850   76.1510  219.6530 N   0  0  0  0  0  0  0  0  0  0  0  0
  141.3960   75.1470  220.5710 C   0  0  0  0  0  0  0  0  0  0  0  0
  140.4769   74.8938  221.1197 H   0  0  0  0  0  0  0  0  0  0  0  0
  142.5730   74.4380  220.8170 C   0  0  0  0  0  0  0  0  0  0  0  0
  142.5869   73.6222  221.5547 H   0  0  0  0  0  0  0  0  0  0  0  0
  143.7330   74.7760  220.1160 C   0  0  0  0  0  0  0  0  0  0  0  0
  144.6697   74.2311  220.3049 H   0  0  0  0  0  0  0  0  0  0  0  0
  143.7010   75.8070  219.1750 C   0  0  0  0  0  0  0  0  0  0  0  0
  144.6098   76.0757  218.6164 H   0  0  0  0  0  0  0  0  0  0  0  0
  1  2  1  0
  2  3  2  0
  3  4  1  0
  3  5  1  0
  5  6  2  0
  6  7  1  0
  7  8  2  0
  8  9  1  0
  8 10  1  0
 10 11  1  0
 10 12  2  0
 12 13  1  0
 12 14  1  0
 14 15  1  0
 14 16  2  0
 16 17  1  0
 17 18  2  0
 17 19  1  0
 19 20  1  0
 20 21  1  0
 20 22  1  0
 20 23  1  0
 23 24  1  0
 23 25  1  0
 25 26  1  0
 25 27  1  0
 25 28  1  0
 28 29  1  0
 28 30  1  0
 28 31  1  0
 31 32  1  0
 31 33  1  0
 31 34  1  0
 34 35  1  0
 34 36  1  0
 34 37  1  0
 37 38  1  0
 37 39  1  0
  2 40  1  0
 40 41  2  0
 41 42  1  0
 42 43  1  0
 42 44  2  0
 44 45  1  0
 44 46  1  0
 46 47  1  0
 46 48  2  0
 48 49  1  0
 19  5  1  0
 37 23  1  0
 48 40  1  0
 16  7  1  0
M  CHG  1  31   1
M  END
>  <UniqueID>  (49) 
441

>  <SMILES>  (49) 
O=c1c2ccccc2nc(/C=C/c2ccccn2)n1CC1CC[NH2+]CC1

>  <Energy>  (49) 
65.99533676113012

>  <Genealogy>  (49) 
O=c1c2ccccc2nc(/C=C/c2ccccn2)n1CC1CC[NH2+]CC1 (protonated)
O=c1c2ccccc2nc(/C=C/c2ccccn2)n1CC1CC[NH2+]CC1 (cis-trans isomerization)
O=c1c2ccccc2nc(/C=C/c2ccccn2)n1CC1CC[NH2+]CC1 (3D coordinates assigned)
O=c1c2ccccc2nc(/C=C/c2ccccn2)n1CC1CC[NH2+]CC1 (nonaromatic ring conformer: 65.99533676113012 kcal/mol)

>  <smiles>  (49) 
O=c1c2ccccc2nc(/C=C/c2ccccn2)n1CC1CCNCC1

>  <score_type>  (49) 
oracle

>  <origin>  (49) 
autodockgpu

>  <m_score__min__energy>  (49) 
-7.5

>  <m_primary>  (49) 
energy

>  <meeko>  (49) 
{"free_energy": -7.34, "intermolecular_energy": -8.83, "internal_energy": -1.14, "cluster_size": 1, "cluster_id": 3, "rank_in_cluster": 1}

>  <energy>  (49) 
-6.79

>  <cluster_rmsd>  (49) 
0.0

>  <rmsd>  (49) 
273.54

>  <cluster>  (49) 
5

$$$$
BQTJSOOYCKASGQ-IDUMZPQDNA-O
     RDKit          3D

 49 52  0  0  0  0  0  0  0  0999 V2000
  143.5668   80.5655  222.9592 H   0  0  0  0  0  0  0  0  0  0  0  0
  142.5600   80.5140  222.5190 C   0  0  0  0  0  0  0  0  0  0  0  0
  141.8680   81.6500  222.3590 C   0  0  0  0  0  0  0  0  0  0  0  0
  142.4094   82.6004  222.2426 H   0  0  0  0  0  0  0  0  0  0  0  0
  140.3860   81.6490  222.3360 C   0  0  0  0  0  0  0  0  0  0  0  0
  139.7460   81.1120  223.4090 N   0  0  0  0  0  0  0  0  0  0  0  0
  138.3980   81.0800  223.5000 C   0  0  0  0  0  0  0  0  0  0  0  0
  137.7850   80.5190  224.6280 C   0  0  0  0  0  0  0  0  0  0  0  0
  138.4009   80.1029  225.4389 H   0  0  0  0  0  0  0  0  0  0  0  0
  136.3910   80.4880  224.7230 C   0  0  0  0  0  0  0  0  0  0  0  0
  135.9102   80.0446  225.6075 H   0  0  0  0  0  0  0  0  0  0  0  0
  135.6070   81.0200  223.6950 C   0  0  0  0  0  0  0  0  0  0  0  0
  134.5101   80.9967  223.7740 H   0  0  0  0  0  0  0  0  0  0  0  0
  136.2130   81.5820  222.5660 C   0  0  0  0  0  0  0  0  0  0  0  0
  135.5925   81.9982  221.7586 H   0  0  0  0  0  0  0  0  0  0  0  0
  137.6180   81.6150  222.4630 C   0  0  0  0  0  0  0  0  0  0  0  0
  138.2780   82.1600  221.3470 C   0  0  0  0  0  0  0  0  0  0  0  0
  137.5940   82.6310  220.3940 O   0  0  0  0  0  0  0  0  0  0  0  0
  139.6550   82.1730  221.2870 N   0  0  0  0  0  0  0  0  0  0  0  0
  140.3020   82.6700  220.0480 C   0  0  0  0  0  0  0  0  0  0  0  0
  139.5241   82.8815  219.2996 H   0  0  0  0  0  0  0  0  0  0  0  0
  140.8667   83.5806  220.2971 H   0  0  0  0  0  0  0  0  0  0  0  0
  141.2900   81.6340  219.4650 C   0  0  0  0  0  0  0  0  0  0  0  0
  141.9323   81.2956  220.2914 H   0  0  0  0  0  0  0  0  0  0  0  0
  140.5220   80.4220  218.8870 C   0  0  0  0  0  0  0  0  0  0  0  0
  140.2756   79.7367  219.7114 H   0  0  0  0  0  0  0  0  0  0  0  0
  139.6184   80.8082  218.3927 H   0  0  0  0  0  0  0  0  0  0  0  0
  141.3350   79.6470  217.8280 C   0  0  0  0  0  0  0  0  0  0  0  0
  141.0832   78.5783  217.8954 H   0  0  0  0  0  0  0  0  0  0  0  0
  141.0798   80.0471  216.8356 H   0  0  0  0  0  0  0  0  0  0  0  0
  142.7800   79.8110  218.0340 N   0  0  0  0  0  0  0  0  0  0  0  0
  143.2910   79.2020  217.3510 H   0  0  0  0  0  0  0  0  0  0  0  0
  143.0360   79.4930  218.9970 H   0  0  0  0  0  0  0  0  0  0  0  0
  143.2110   81.2090  217.8330 C   0  0  0  0  0  0  0  0  0  0  0  0
  144.1778   81.3521  218.3377 H   0  0  0  0  0  0  0  0  0  0  0  0
  143.2807   81.3751  216.7478 H   0  0  0  0  0  0  0  0  0  0  0  0
  142.2080   82.2460  218.3910 C   0  0  0  0  0  0  0  0  0  0  0  0
  142.7696   83.0805  218.8362 H   0  0  0  0  0  0  0  0  0  0  0  0
  141.5770   82.5928  217.5594 H   0  0  0  0  0  0  0  0  0  0  0  0
  142.0230   79.1950  222.1270 C   0  0  0  0  0  0  0  0  0  0  0  0
  142.1680   78.7320  220.8520 N   0  0  0  0  0  0  0  0  0  0  0  0
  141.7010   77.5130  220.4710 C   0  0  0  0  0  0  0  0  0  0  0  0
  141.8376   77.1717  219.4343 H   0  0  0  0  0  0  0  0  0  0  0  0
  141.0480   76.6940  221.3950 C   0  0  0  0  0  0  0  0  0  0  0  0
  140.6729   75.7046  221.0942 H   0  0  0  0  0  0  0  0  0  0  0  0
  140.8770   77.1460  222.7050 C   0  0  0  0  0  0  0  0  0  0  0  0
  140.3566   76.5159  223.4414 H   0  0  0  0  0  0  0  0  0  0  0  0
  141.3670   78.3980  223.0790 C   0  0  0  0  0  0  0  0  0  0  0  0
  141.2404   78.7575  224.1109 H   0  0  0  0  0  0  0  0  0  0  0  0
  1  2  1  0
  2  3  2  0
  3  4  1  0
  3  5  1  0
  5  6  2  0
  6  7  1  0
  7  8  2  0
  8  9  1  0
  8 10  1  0
 10 11  1  0
 10 12  2  0
 12 13  1  0
 12 14  1  0
 14 15  1  0
 14 16  2  0
 16 17  1  0
 17 18  2  0
 17 19  1  0
 19 20  1  0
 20 21  1  0
 20 22  1  0
 20 23  1  0
 23 24  1  0
 23 25  1  0
 25 26  1  0
 25 27  1  0
 25 28  1  0
 28 29  1  0
 28 30  1  0
 28 31  1  0
 31 32  1  0
 31 33  1  0
 31 34  1  0
 34 35  1  0
 34 36  1  0
 34 37  1  0
 37 38  1  0
 37 39  1  0
  2 40  1  0
 40 41  2  0
 41 42  1  0
 42 43  1  0
 42 44  2  0
 44 45  1  0
 44 46  1  0
 46 47  1  0
 46 48  2  0
 48 49  1  0
 19  5  1  0
 37 23  1  0
 48 40  1  0
 16  7  1  0
M  CHG  1  31   1
M  END
>  <UniqueID>  (50) 
441

>  <SMILES>  (50) 
O=c1c2ccccc2nc(/C=C/c2ccccn2)n1CC1CC[NH2+]CC1

>  <Energy>  (50) 
65.99533676113012

>  <Genealogy>  (50) 
O=c1c2ccccc2nc(/C=C/c2ccccn2)n1CC1CC[NH2+]CC1 (protonated)
O=c1c2ccccc2nc(/C=C/c2ccccn2)n1CC1CC[NH2+]CC1 (cis-trans isomerization)
O=c1c2ccccc2nc(/C=C/c2ccccn2)n1CC1CC[NH2+]CC1 (3D coordinates assigned)
O=c1c2ccccc2nc(/C=C/c2ccccn2)n1CC1CC[NH2+]CC1 (nonaromatic ring conformer: 65.99533676113012 kcal/mol)

>  <smiles>  (50) 
O=c1c2ccccc2nc(/C=C/c2ccccn2)n1CC1CCNCC1

>  <score_type>  (50) 
oracle

>  <origin>  (50) 
autodockgpu

>  <m_score__min__energy>  (50) 
-7.5

>  <m_primary>  (50) 
energy

>  <meeko>  (50) 
{"free_energy": -5.78, "intermolecular_energy": -7.28, "internal_energy": -2.34, "cluster_size": 1, "cluster_id": 6, "rank_in_cluster": 1}

>  <energy>  (50) 
-6.35

>  <cluster_rmsd>  (50) 
0.51

>  <rmsd>  (50) 
273.5

>  <cluster>  (50) 
5

$$$$
BQTJSOOYCKASGQ-IDUMZPQDNA-O
     RDKit          3D

 49 52  0  0  0  0  0  0  0  0999 V2000
  143.7438   79.7615  222.7175 H   0  0  0  0  0  0  0  0  0  0  0  0
  142.6570   79.8120  222.5550 C   0  0  0  0  0  0  0  0  0  0  0  0
  141.8730   78.9090  223.1590 C   0  0  0  0  0  0  0  0  0  0  0  0
  142.3336   78.0751  223.7090 H   0  0  0  0  0  0  0  0  0  0  0  0
  140.3960   79.0140  223.0990 C   0  0  0  0  0  0  0  0  0  0  0  0
  139.7920   79.8420  223.9930 N   0  0  0  0  0  0  0  0  0  0  0  0
  138.4540   80.0270  224.0120 C   0  0  0  0  0  0  0  0  0  0  0  0
  137.8790   80.8930  224.9510 C   0  0  0  0  0  0  0  0  0  0  0  0
  138.5172   81.4199  225.6756 H   0  0  0  0  0  0  0  0  0  0  0  0
  136.4960   81.0880  224.9680 C   0  0  0  0  0  0  0  0  0  0  0  0
  136.0458   81.7660  225.7080 H   0  0  0  0  0  0  0  0  0  0  0  0
  135.6830   80.4220  224.0450 C   0  0  0  0  0  0  0  0  0  0  0  0
  134.5943   80.5786  224.0596 H   0  0  0  0  0  0  0  0  0  0  0  0
  136.2510   79.5570  223.1030 C   0  0  0  0  0  0  0  0  0  0  0  0
  135.6088   79.0346  222.3787 H   0  0  0  0  0  0  0  0  0  0  0  0
  137.6450   79.3550  223.0820 C   0  0  0  0  0  0  0  0  0  0  0  0
  138.2670   78.4900  222.1630 C   0  0  0  0  0  0  0  0  0  0  0  0
  137.5550   77.8610  221.3290 O   0  0  0  0  0  0  0  0  0  0  0  0
  139.6340   78.3220  222.1760 N   0  0  0  0  0  0  0  0  0  0  0  0
  140.2310   77.3270  221.2520 C   0  0  0  0  0  0  0  0  0  0  0  0
  140.8175   76.6034  221.8372 H   0  0  0  0  0  0  0  0  0  0  0  0
  139.4142   76.8258  220.7120 H   0  0  0  0  0  0  0  0  0  0  0  0
  141.1570   77.9990  220.2120 C   0  0  0  0  0  0  0  0  0  0  0  0
  141.4898   78.9554  220.6417 H   0  0  0  0  0  0  0  0  0  0  0  0
  142.3910   77.1080  219.9330 C   0  0  0  0  0  0  0  0  0  0  0  0
  143.1368   77.2835  220.7223 H   0  0  0  0  0  0  0  0  0  0  0  0
  142.0485   76.0628  219.9201 H   0  0  0  0  0  0  0  0  0  0  0  0
  143.0430   77.4000  218.5650 C   0  0  0  0  0  0  0  0  0  0  0  0
  144.1297   77.2511  218.6480 H   0  0  0  0  0  0  0  0  0  0  0  0
  142.6092   76.7140  217.8226 H   0  0  0  0  0  0  0  0  0  0  0  0
  142.7820   78.7780  218.1270 N   0  0  0  0  0  0  0  0  0  0  0  0
  143.3140   78.9580  217.2420 H   0  0  0  0  0  0  0  0  0  0  0  0
  143.1310   79.4490  218.8510 H   0  0  0  0  0  0  0  0  0  0  0  0
  141.3470   79.0130  217.8730 C   0  0  0  0  0  0  0  0  0  0  0  0
  141.1588   80.0961  217.9120 H   0  0  0  0  0  0  0  0  0  0  0  0
  141.1179   78.5866  216.8852 H   0  0  0  0  0  0  0  0  0  0  0  0
  140.4200   78.3170  218.8970 C   0  0  0  0  0  0  0  0  0  0  0  0
  139.5703   78.9802  219.1164 H   0  0  0  0  0  0  0  0  0  0  0  0
  140.0778   77.3679  218.4587 H   0  0  0  0  0  0  0  0  0  0  0  0
  142.1190   80.8720  221.6800 C   0  0  0  0  0  0  0  0  0  0  0  0
  142.1980   80.7650  220.3220 N   0  0  0  0  0  0  0  0  0  0  0  0
  141.6920   81.7170  219.4930 C   0  0  0  0  0  0  0  0  0  0  0  0
  141.7729   81.5958  218.4027 H   0  0  0  0  0  0  0  0  0  0  0  0
  141.0700   82.8480  220.0250 C   0  0  0  0  0  0  0  0  0  0  0  0
  140.6532   83.6185  219.3597 H   0  0  0  0  0  0  0  0  0  0  0  0
  140.9830   82.9900  221.4120 C   0  0  0  0  0  0  0  0  0  0  0  0
  140.5041   83.8802  221.8457 H   0  0  0  0  0  0  0  0  0  0  0  0
  141.5050   82.0000  222.2470 C   0  0  0  0  0  0  0  0  0  0  0  0
  141.4357   82.1031  223.3400 H   0  0  0  0  0  0  0  0  0  0  0  0
  1  2  1  0
  2  3  2  0
  3  4  1  0
  3  5  1  0
  5  6  2  0
  6  7  1  0
  7  8  2  0
  8  9  1  0
  8 10  1  0
 10 11  1  0
 10 12  2  0
 12 13  1  0
 12 14  1  0
 14 15  1  0
 14 16  2  0
 16 17  1  0
 17 18  2  0
 17 19  1  0
 19 20  1  0
 20 21  1  0
 20 22  1  0
 20 23  1  0
 23 24  1  0
 23 25  1  0
 25 26  1  0
 25 27  1  0
 25 28  1  0
 28 29  1  0
 28 30  1  0
 28 31  1  0
 31 32  1  0
 31 33  1  0
 31 34  1  0
 34 35  1  0
 34 36  1  0
 34 37  1  0
 37 38  1  0
 37 39  1  0
  2 40  1  0
 40 41  2  0
 41 42  1  0
 42 43  1  0
 42 44  2  0
 44 45  1  0
 44 46  1  0
 46 47  1  0
 46 48  2  0
 48 49  1  0
 19  5  1  0
 37 23  1  0
 48 40  1  0
 16  7  1  0
M  CHG  1  31   1
M  END
>  <UniqueID>  (51) 
441

>  <SMILES>  (51) 
O=c1c2ccccc2nc(/C=C/c2ccccn2)n1CC1CC[NH2+]CC1

>  <Energy>  (51) 
65.99533676113012

>  <Genealogy>  (51) 
O=c1c2ccccc2nc(/C=C/c2ccccn2)n1CC1CC[NH2+]CC1 (protonated)
O=c1c2ccccc2nc(/C=C/c2ccccn2)n1CC1CC[NH2+]CC1 (cis-trans isomerization)
O=c1c2ccccc2nc(/C=C/c2ccccn2)n1CC1CC[NH2+]CC1 (3D coordinates assigned)
O=c1c2ccccc2nc(/C=C/c2ccccn2)n1CC1CC[NH2+]CC1 (nonaromatic ring conformer: 65.99533676113012 kcal/mol)

>  <smiles>  (51) 
O=c1c2ccccc2nc(/C=C/c2ccccn2)n1CC1CCNCC1

>  <score_type>  (51) 
oracle

>  <origin>  (51) 
autodockgpu

>  <m_score__min__energy>  (51) 
-7.5

>  <m_primary>  (51) 
energy

>  <meeko>  (51) 
{"free_energy": -6.33, "intermolecular_energy": -7.82, "internal_energy": -2.43, "cluster_size": 11, "cluster_id": 5, "rank_in_cluster": 8}

>  <energy>  (51) 
-6.34

>  <cluster_rmsd>  (51) 
0.59

>  <rmsd>  (51) 
273.49

>  <cluster>  (51) 
5

$$$$
BQTJSOOYCKASGQ-IDUMZPQDNA-O
     RDKit          3D

 49 52  0  0  0  0  0  0  0  0999 V2000
  138.7932   77.5376  223.5869 H   0  0  0  0  0  0  0  0  0  0  0  0
  139.4950   77.8220  222.7890 C   0  0  0  0  0  0  0  0  0  0  0  0
  139.4750   77.1350  221.6380 C   0  0  0  0  0  0  0  0  0  0  0  0
  138.5591   77.1276  221.0288 H   0  0  0  0  0  0  0  0  0  0  0  0
  140.6660   76.3850  221.1720 C   0  0  0  0  0  0  0  0  0  0  0  0
  140.6830   75.0430  221.3910 N   0  0  0  0  0  0  0  0  0  0  0  0
  141.7080   74.2620  220.9880 C   0  0  0  0  0  0  0  0  0  0  0  0
  141.6780   72.8830  221.2340 C   0  0  0  0  0  0  0  0  0  0  0  0
  140.8200   72.4368  221.7582 H   0  0  0  0  0  0  0  0  0  0  0  0
  142.7370   72.0740  220.8140 C   0  0  0  0  0  0  0  0  0  0  0  0
  142.7131   70.9918  221.0098 H   0  0  0  0  0  0  0  0  0  0  0  0
  143.8270   72.6390  220.1450 C   0  0  0  0  0  0  0  0  0  0  0  0
  144.6585   71.9997  219.8135 H   0  0  0  0  0  0  0  0  0  0  0  0
  143.8630   74.0160  219.8960 C   0  0  0  0  0  0  0  0  0  0  0  0
  144.7231   74.4572  219.3710 H   0  0  0  0  0  0  0  0  0  0  0  0
  142.7990   74.8370  220.3170 C   0  0  0  0  0  0  0  0  0  0  0  0
  142.7890   76.2260  220.1010 C   0  0  0  0  0  0  0  0  0  0  0  0
  143.7700   76.7670  219.5150 O   0  0  0  0  0  0  0  0  0  0  0  0
  141.7270   76.9930  220.5290 N   0  0  0  0  0  0  0  0  0  0  0  0
  141.8070   78.4650  220.3630 C   0  0  0  0  0  0  0  0  0  0  0  0
  140.8260   78.9042  220.5969 H   0  0  0  0  0  0  0  0  0  0  0  0
  142.5815   78.8459  221.0450 H   0  0  0  0  0  0  0  0  0  0  0  0
  142.2000   78.8560  218.9200 C   0  0  0  0  0  0  0  0  0  0  0  0
  143.2636   78.6058  218.7930 H   0  0  0  0  0  0  0  0  0  0  0  0
  141.3610   78.0540  217.8970 C   0  0  0  0  0  0  0  0  0  0  0  0
  141.8216   77.0639  217.7642 H   0  0  0  0  0  0  0  0  0  0  0  0
  140.3381   77.9787  218.2946 H   0  0  0  0  0  0  0  0  0  0  0  0
  141.2740   78.7460  216.5200 C   0  0  0  0  0  0  0  0  0  0  0  0
  141.2385   77.9765  215.7348 H   0  0  0  0  0  0  0  0  0  0  0  0
  140.3655   79.3659  216.5018 H   0  0  0  0  0  0  0  0  0  0  0  0
  142.4320   79.6180  216.2820 N   0  0  0  0  0  0  0  0  0  0  0  0
  142.3760   79.9970  215.3060 H   0  0  0  0  0  0  0  0  0  0  0  0
  143.3140   79.0600  216.3570 H   0  0  0  0  0  0  0  0  0  0  0  0
  142.4720   80.7520  217.2270 C   0  0  0  0  0  0  0  0  0  0  0  0
  143.4991   81.1447  217.2575 H   0  0  0  0  0  0  0  0  0  0  0  0
  141.7516   81.5012  216.8668 H   0  0  0  0  0  0  0  0  0  0  0  0
  142.0510   80.3670  218.6650 C   0  0  0  0  0  0  0  0  0  0  0  0
  142.6847   80.9127  219.3795 H   0  0  0  0  0  0  0  0  0  0  0  0
  140.9912   80.6322  218.7932 H   0  0  0  0  0  0  0  0  0  0  0  0
  140.4230   78.9460  223.0270 C   0  0  0  0  0  0  0  0  0  0  0  0
  140.0770   80.2220  222.6900 N   0  0  0  0  0  0  0  0  0  0  0  0
  140.9050   81.2770  222.9170 C   0  0  0  0  0  0  0  0  0  0  0  0
  140.5920   82.2924  222.6325 H   0  0  0  0  0  0  0  0  0  0  0  0
  142.1520   81.0720  223.5110 C   0  0  0  0  0  0  0  0  0  0  0  0
  142.8232   81.9220  223.7034 H   0  0  0  0  0  0  0  0  0  0  0  0
  142.5370   79.7750  223.8580 C   0  0  0  0  0  0  0  0  0  0  0  0
  143.5205   79.5968  224.3174 H   0  0  0  0  0  0  0  0  0  0  0  0
  141.6720   78.7050  223.6210 C   0  0  0  0  0  0  0  0  0  0  0  0
  141.9666   77.6819  223.8974 H   0  0  0  0  0  0  0  0  0  0  0  0
  1  2  1  0
  2  3  2  0
  3  4  1  0
  3  5  1  0
  5  6  2  0
  6  7  1  0
  7  8  2  0
  8  9  1  0
  8 10  1  0
 10 11  1  0
 10 12  2  0
 12 13  1  0
 12 14  1  0
 14 15  1  0
 14 16  2  0
 16 17  1  0
 17 18  2  0
 17 19  1  0
 19 20  1  0
 20 21  1  0
 20 22  1  0
 20 23  1  0
 23 24  1  0
 23 25  1  0
 25 26  1  0
 25 27  1  0
 25 28  1  0
 28 29  1  0
 28 30  1  0
 28 31  1  0
 31 32  1  0
 31 33  1  0
 31 34  1  0
 34 35  1  0
 34 36  1  0
 34 37  1  0
 37 38  1  0
 37 39  1  0
  2 40  1  0
 40 41  2  0
 41 42  1  0
 42 43  1  0
 42 44  2  0
 44 45  1  0
 44 46  1  0
 46 47  1  0
 46 48  2  0
 48 49  1  0
 19  5  1  0
 37 23  1  0
 48 40  1  0
 16  7  1  0
M  CHG  1  31   1
M  END
>  <UniqueID>  (52) 
441

>  <SMILES>  (52) 
O=c1c2ccccc2nc(/C=C/c2ccccn2)n1CC1CC[NH2+]CC1

>  <Energy>  (52) 
65.99533676113012

>  <Genealogy>  (52) 
O=c1c2ccccc2nc(/C=C/c2ccccn2)n1CC1CC[NH2+]CC1 (protonated)
O=c1c2ccccc2nc(/C=C/c2ccccn2)n1CC1CC[NH2+]CC1 (cis-trans isomerization)
O=c1c2ccccc2nc(/C=C/c2ccccn2)n1CC1CC[NH2+]CC1 (3D coordinates assigned)
O=c1c2ccccc2nc(/C=C/c2ccccn2)n1CC1CC[NH2+]CC1 (nonaromatic ring conformer: 65.99533676113012 kcal/mol)

>  <smiles>  (52) 
O=c1c2ccccc2nc(/C=C/c2ccccn2)n1CC1CCNCC1

>  <score_type>  (52) 
oracle

>  <origin>  (52) 
autodockgpu

>  <m_score__min__energy>  (52) 
-7.5

>  <m_primary>  (52) 
energy

>  <meeko>  (52) 
{"free_energy": -7.38, "intermolecular_energy": -8.87, "internal_energy": -1.19, "cluster_size": 4, "cluster_id": 2, "rank_in_cluster": 2}

>  <energy>  (52) 
-6.34

>  <cluster_rmsd>  (52) 
0.6

>  <rmsd>  (52) 
273.5

>  <cluster>  (52) 
5

$$$$
BQTJSOOYCKASGQ-IDUMZPQDNA-O
     RDKit          3D

 49 52  0  0  0  0  0  0  0  0999 V2000
  143.9319   80.2975  222.8834 H   0  0  0  0  0  0  0  0  0  0  0  0
  142.8630   80.1400  222.6770 C   0  0  0  0  0  0  0  0  0  0  0  0
  142.2480   79.0840  223.2290 C   0  0  0  0  0  0  0  0  0  0  0  0
  142.8437   78.3330  223.7685 H   0  0  0  0  0  0  0  0  0  0  0  0
  140.7800   78.9110  223.1250 C   0  0  0  0  0  0  0  0  0  0  0  0
  139.9990   79.7510  223.8540 N   0  0  0  0  0  0  0  0  0  0  0  0
  138.6500   79.6930  223.8160 C   0  0  0  0  0  0  0  0  0  0  0  0
  137.8890   80.5840  224.5850 C   0  0  0  0  0  0  0  0  0  0  0  0
  138.3900   81.3285  225.2212 H   0  0  0  0  0  0  0  0  0  0  0  0
  136.4930   80.5260  224.5430 C   0  0  0  0  0  0  0  0  0  0  0  0
  135.8958   81.2233  225.1489 H   0  0  0  0  0  0  0  0  0  0  0  0
  135.8550   79.5830  223.7320 C   0  0  0  0  0  0  0  0  0  0  0  0
  134.7563   79.5415  223.6992 H   0  0  0  0  0  0  0  0  0  0  0  0
  136.6100   78.6920  222.9620 C   0  0  0  0  0  0  0  0  0  0  0  0
  136.1042   77.9506  222.3260 H   0  0  0  0  0  0  0  0  0  0  0  0
  138.0170   78.7430  223.0000 C   0  0  0  0  0  0  0  0  0  0  0  0
  138.8230   77.8650  222.2540 C   0  0  0  0  0  0  0  0  0  0  0  0
  138.2730   76.9890  221.5260 O   0  0  0  0  0  0  0  0  0  0  0  0
  140.1970   77.9500  222.3200 N   0  0  0  0  0  0  0  0  0  0  0  0
  141.0020   76.9410  221.5890 C   0  0  0  0  0  0  0  0  0  0  0  0
  141.7150   76.4792  222.2878 H   0  0  0  0  0  0  0  0  0  0  0  0
  140.3149   76.1892  221.1734 H   0  0  0  0  0  0  0  0  0  0  0  0
  141.7870   77.5760  220.4190 C   0  0  0  0  0  0  0  0  0  0  0  0
  142.4388   78.3517  220.8472 H   0  0  0  0  0  0  0  0  0  0  0  0
  142.6590   76.5100  219.7130 C   0  0  0  0  0  0  0  0  0  0  0  0
  143.5914   76.3850  220.2830 H   0  0  0  0  0  0  0  0  0  0  0  0
  142.0762   75.5779  219.6745 H   0  0  0  0  0  0  0  0  0  0  0  0
  143.0160   76.8950  218.2620 C   0  0  0  0  0  0  0  0  0  0  0  0
  144.0194   76.5104  218.0269 H   0  0  0  0  0  0  0  0  0  0  0  0
  142.2612   76.4559  217.5931 H   0  0  0  0  0  0  0  0  0  0  0  0
  143.0070   78.3520  218.0730 N   0  0  0  0  0  0  0  0  0  0  0  0
  143.3380   78.5700  217.1030 H   0  0  0  0  0  0  0  0  0  0  0  0
  143.6730   78.7980  218.7450 H   0  0  0  0  0  0  0  0  0  0  0  0
  141.6560   78.9230  218.2500 C   0  0  0  0  0  0  0  0  0  0  0  0
  141.7563   79.9976  218.4624 H   0  0  0  0  0  0  0  0  0  0  0  0
  141.0984   78.7341  217.3208 H   0  0  0  0  0  0  0  0  0  0  0  0
  140.8600   78.2670  219.4030 C   0  0  0  0  0  0  0  0  0  0  0  0
  140.2798   79.0442  219.9220 H   0  0  0  0  0  0  0  0  0  0  0  0
  140.1988   77.5023  218.9693 H   0  0  0  0  0  0  0  0  0  0  0  0
  142.1590   81.1000  221.8020 C   0  0  0  0  0  0  0  0  0  0  0  0
  142.1590   80.9390  220.4460 N   0  0  0  0  0  0  0  0  0  0  0  0
  141.5020   81.7970  219.6200 C   0  0  0  0  0  0  0  0  0  0  0  0
  141.5225   81.6361  218.5320 H   0  0  0  0  0  0  0  0  0  0  0  0
  140.8020   82.8810  220.1510 C   0  0  0  0  0  0  0  0  0  0  0  0
  140.2640   83.5743  219.4878 H   0  0  0  0  0  0  0  0  0  0  0  0
  140.7920   83.0760  221.5340 C   0  0  0  0  0  0  0  0  0  0  0  0
  140.2519   83.9313  221.9661 H   0  0  0  0  0  0  0  0  0  0  0  0
  141.4690   82.1830  222.3670 C   0  0  0  0  0  0  0  0  0  0  0  0
  141.4614   82.3275  223.4574 H   0  0  0  0  0  0  0  0  0  0  0  0
  1  2  1  0
  2  3  2  0
  3  4  1  0
  3  5  1  0
  5  6  2  0
  6  7  1  0
  7  8  2  0
  8  9  1  0
  8 10  1  0
 10 11  1  0
 10 12  2  0
 12 13  1  0
 12 14  1  0
 14 15  1  0
 14 16  2  0
 16 17  1  0
 17 18  2  0
 17 19  1  0
 19 20  1  0
 20 21  1  0
 20 22  1  0
 20 23  1  0
 23 24  1  0
 23 25  1  0
 25 26  1  0
 25 27  1  0
 25 28  1  0
 28 29  1  0
 28 30  1  0
 28 31  1  0
 31 32  1  0
 31 33  1  0
 31 34  1  0
 34 35  1  0
 34 36  1  0
 34 37  1  0
 37 38  1  0
 37 39  1  0
  2 40  1  0
 40 41  2  0
 41 42  1  0
 42 43  1  0
 42 44  2  0
 44 45  1  0
 44 46  1  0
 46 47  1  0
 46 48  2  0
 48 49  1  0
 19  5  1  0
 37 23  1  0
 48 40  1  0
 16  7  1  0
M  CHG  1  31   1
M  END
>  <UniqueID>  (53) 
441

>  <SMILES>  (53) 
O=c1c2ccccc2nc(/C=C/c2ccccn2)n1CC1CC[NH2+]CC1

>  <Energy>  (53) 
65.99533676113012

>  <Genealogy>  (53) 
O=c1c2ccccc2nc(/C=C/c2ccccn2)n1CC1CC[NH2+]CC1 (protonated)
O=c1c2ccccc2nc(/C=C/c2ccccn2)n1CC1CC[NH2+]CC1 (cis-trans isomerization)
O=c1c2ccccc2nc(/C=C/c2ccccn2)n1CC1CC[NH2+]CC1 (3D coordinates assigned)
O=c1c2ccccc2nc(/C=C/c2ccccn2)n1CC1CC[NH2+]CC1 (nonaromatic ring conformer: 65.99533676113012 kcal/mol)

>  <smiles>  (53) 
O=c1c2ccccc2nc(/C=C/c2ccccn2)n1CC1CCNCC1

>  <score_type>  (53) 
oracle

>  <origin>  (53) 
autodockgpu

>  <m_score__min__energy>  (53) 
-7.5

>  <m_primary>  (53) 
energy

>  <meeko>  (53) 
{"free_energy": -6.79, "intermolecular_energy": -8.28, "internal_energy": -1.82, "cluster_size": 11, "cluster_id": 5, "rank_in_cluster": 1}

>  <energy>  (53) 
-6.33

>  <cluster_rmsd>  (53) 
0.6

>  <rmsd>  (53) 
273.51

>  <cluster>  (53) 
5

$$$$
BQTJSOOYCKASGQ-IDUMZPQDNA-O
     RDKit          3D

 49 52  0  0  0  0  0  0  0  0999 V2000
  138.7909   77.5579  223.5558 H   0  0  0  0  0  0  0  0  0  0  0  0
  139.5010   77.8300  222.7610 C   0  0  0  0  0  0  0  0  0  0  0  0
  139.4860   77.1320  221.6180 C   0  0  0  0  0  0  0  0  0  0  0  0
  138.5696   77.1107  221.0100 H   0  0  0  0  0  0  0  0  0  0  0  0
  140.6820   76.3880  221.1580 C   0  0  0  0  0  0  0  0  0  0  0  0
  140.7050   75.0460  221.3770 N   0  0  0  0  0  0  0  0  0  0  0  0
  141.7360   74.2700  220.9800 C   0  0  0  0  0  0  0  0  0  0  0  0
  141.7110   72.8910  221.2270 C   0  0  0  0  0  0  0  0  0  0  0  0
  140.8527   72.4409  221.7474 H   0  0  0  0  0  0  0  0  0  0  0  0
  142.7770   72.0870  220.8120 C   0  0  0  0  0  0  0  0  0  0  0  0
  142.7578   71.0048  221.0082 H   0  0  0  0  0  0  0  0  0  0  0  0
  143.8670   72.6570  220.1480 C   0  0  0  0  0  0  0  0  0  0  0  0
  144.7035   72.0218  219.8212 H   0  0  0  0  0  0  0  0  0  0  0  0
  143.8970   74.0330  219.8980 C   0  0  0  0  0  0  0  0  0  0  0  0
  144.7570   74.4778  219.3760 H   0  0  0  0  0  0  0  0  0  0  0  0
  142.8270   74.8500  220.3140 C   0  0  0  0  0  0  0  0  0  0  0  0
  142.8110   76.2390  220.0960 C   0  0  0  0  0  0  0  0  0  0  0  0
  143.7930   76.7840  219.5150 O   0  0  0  0  0  0  0  0  0  0  0  0
  141.7440   77.0010  220.5190 N   0  0  0  0  0  0  0  0  0  0  0  0
  141.8170   78.4730  220.3520 C   0  0  0  0  0  0  0  0  0  0  0  0
  140.8339   78.9078  220.5856 H   0  0  0  0  0  0  0  0  0  0  0  0
  142.5895   78.8583  221.0338 H   0  0  0  0  0  0  0  0  0  0  0  0
  142.2080   78.8640  218.9090 C   0  0  0  0  0  0  0  0  0  0  0  0
  143.2693   78.6062  218.7783 H   0  0  0  0  0  0  0  0  0  0  0  0
  141.3610   78.0700  217.8860 C   0  0  0  0  0  0  0  0  0  0  0  0
  141.8151   77.0775  217.7491 H   0  0  0  0  0  0  0  0  0  0  0  0
  140.3389   78.0002  218.2864 H   0  0  0  0  0  0  0  0  0  0  0  0
  141.2740   78.7660  216.5110 C   0  0  0  0  0  0  0  0  0  0  0  0
  141.2317   77.9987  215.7239 H   0  0  0  0  0  0  0  0  0  0  0  0
  140.3690   79.3912  216.4969 H   0  0  0  0  0  0  0  0  0  0  0  0
  142.4370   79.6320  216.2720 N   0  0  0  0  0  0  0  0  0  0  0  0
  142.3810   80.0130  215.2980 H   0  0  0  0  0  0  0  0  0  0  0  0
  143.3160   79.0680  216.3430 H   0  0  0  0  0  0  0  0  0  0  0  0
  142.4880   80.7630  217.2200 C   0  0  0  0  0  0  0  0  0  0  0  0
  143.5179   81.1484  217.2483 H   0  0  0  0  0  0  0  0  0  0  0  0
  141.7717   81.5182  216.8642 H   0  0  0  0  0  0  0  0  0  0  0  0
  142.0690   80.3770  218.6580 C   0  0  0  0  0  0  0  0  0  0  0  0
  142.7089   80.9164  219.3719 H   0  0  0  0  0  0  0  0  0  0  0  0
  141.0114   80.6491  218.7900 H   0  0  0  0  0  0  0  0  0  0  0  0
  140.4340   78.9510  222.9960 C   0  0  0  0  0  0  0  0  0  0  0  0
  140.0990   80.2250  222.6380 N   0  0  0  0  0  0  0  0  0  0  0  0
  140.9310   81.2770  222.8610 C   0  0  0  0  0  0  0  0  0  0  0  0
  140.6273   82.2906  222.5602 H   0  0  0  0  0  0  0  0  0  0  0  0
  142.1700   81.0730  223.4710 C   0  0  0  0  0  0  0  0  0  0  0  0
  142.8444   81.9214  223.6589 H   0  0  0  0  0  0  0  0  0  0  0  0
  142.5430   79.7780  223.8400 C   0  0  0  0  0  0  0  0  0  0  0  0
  143.5198   79.6000  224.3134 H   0  0  0  0  0  0  0  0  0  0  0  0
  141.6740   78.7100  223.6070 C   0  0  0  0  0  0  0  0  0  0  0  0
  141.9590   77.6887  223.8999 H   0  0  0  0  0  0  0  0  0  0  0  0
  1  2  1  0
  2  3  2  0
  3  4  1  0
  3  5  1  0
  5  6  2  0
  6  7  1  0
  7  8  2  0
  8  9  1  0
  8 10  1  0
 10 11  1  0
 10 12  2  0
 12 13  1  0
 12 14  1  0
 14 15  1  0
 14 16  2  0
 16 17  1  0
 17 18  2  0
 17 19  1  0
 19 20  1  0
 20 21  1  0
 20 22  1  0
 20 23  1  0
 23 24  1  0
 23 25  1  0
 25 26  1  0
 25 27  1  0
 25 28  1  0
 28 29  1  0
 28 30  1  0
 28 31  1  0
 31 32  1  0
 31 33  1  0
 31 34  1  0
 34 35  1  0
 34 36  1  0
 34 37  1  0
 37 38  1  0
 37 39  1  0
  2 40  1  0
 40 41  2  0
 41 42  1  0
 42 43  1  0
 42 44  2  0
 44 45  1  0
 44 46  1  0
 46 47  1  0
 46 48  2  0
 48 49  1  0
 19  5  1  0
 37 23  1  0
 48 40  1  0
 16  7  1  0
M  CHG  1  31   1
M  END
>  <UniqueID>  (54) 
441

>  <SMILES>  (54) 
O=c1c2ccccc2nc(/C=C/c2ccccn2)n1CC1CC[NH2+]CC1

>  <Energy>  (54) 
65.99533676113012

>  <Genealogy>  (54) 
O=c1c2ccccc2nc(/C=C/c2ccccn2)n1CC1CC[NH2+]CC1 (protonated)
O=c1c2ccccc2nc(/C=C/c2ccccn2)n1CC1CC[NH2+]CC1 (cis-trans isomerization)
O=c1c2ccccc2nc(/C=C/c2ccccn2)n1CC1CC[NH2+]CC1 (3D coordinates assigned)
O=c1c2ccccc2nc(/C=C/c2ccccn2)n1CC1CC[NH2+]CC1 (nonaromatic ring conformer: 65.99533676113012 kcal/mol)

>  <smiles>  (54) 
O=c1c2ccccc2nc(/C=C/c2ccccn2)n1CC1CCNCC1

>  <score_type>  (54) 
oracle

>  <origin>  (54) 
autodockgpu

>  <m_score__min__energy>  (54) 
-7.5

>  <m_primary>  (54) 
energy

>  <meeko>  (54) 
{"free_energy": -7.39, "intermolecular_energy": -8.88, "internal_energy": -1.19, "cluster_size": 4, "cluster_id": 2, "rank_in_cluster": 1}

>  <energy>  (54) 
-6.33

>  <cluster_rmsd>  (54) 
0.58

>  <rmsd>  (54) 
273.48

>  <cluster>  (54) 
5

$$$$
BQTJSOOYCKASGQ-IDUMZPQDNA-O
     RDKit          3D

 49 52  0  0  0  0  0  0  0  0999 V2000
  143.7688   79.8140  222.7584 H   0  0  0  0  0  0  0  0  0  0  0  0
  142.6830   79.8450  222.5850 C   0  0  0  0  0  0  0  0  0  0  0  0
  141.9080   78.9310  223.1860 C   0  0  0  0  0  0  0  0  0  0  0  0
  142.3772   78.1030  223.7376 H   0  0  0  0  0  0  0  0  0  0  0  0
  140.4290   79.0170  223.1200 C   0  0  0  0  0  0  0  0  0  0  0  0
  139.8130   79.8470  224.0040 N   0  0  0  0  0  0  0  0  0  0  0  0
  138.4730   80.0160  224.0160 C   0  0  0  0  0  0  0  0  0  0  0  0
  137.8850   80.8850  224.9450 C   0  0  0  0  0  0  0  0  0  0  0  0
  138.5144   81.4269  225.6662 H   0  0  0  0  0  0  0  0  0  0  0  0
  136.4990   81.0630  224.9550 C   0  0  0  0  0  0  0  0  0  0  0  0
  136.0379   81.7440  225.6855 H   0  0  0  0  0  0  0  0  0  0  0  0
  135.6970   80.3760  224.0370 C   0  0  0  0  0  0  0  0  0  0  0  0
  134.6064   80.5188  224.0466 H   0  0  0  0  0  0  0  0  0  0  0  0
  136.2790   79.5080  223.1070 C   0  0  0  0  0  0  0  0  0  0  0  0
  135.6456   78.9695  222.3867 H   0  0  0  0  0  0  0  0  0  0  0  0
  137.6750   79.3230  223.0920 C   0  0  0  0  0  0  0  0  0  0  0  0
  138.3100   78.4560  222.1850 C   0  0  0  0  0  0  0  0  0  0  0  0
  137.6090   77.8080  221.3560 O   0  0  0  0  0  0  0  0  0  0  0  0
  139.6790   78.3050  222.2030 N   0  0  0  0  0  0  0  0  0  0  0  0
  140.2920   77.3070  221.2920 C   0  0  0  0  0  0  0  0  0  0  0  0
  140.8929   76.6030  221.8864 H   0  0  0  0  0  0  0  0  0  0  0  0
  139.4831   76.7831  220.7616 H   0  0  0  0  0  0  0  0  0  0  0  0
  141.2030   77.9800  220.2400 C   0  0  0  0  0  0  0  0  0  0  0  0
  141.5319   78.9414  220.6614 H   0  0  0  0  0  0  0  0  0  0  0  0
  142.4410   77.0960  219.9550 C   0  0  0  0  0  0  0  0  0  0  0  0
  143.1923   77.2810  220.7368 H   0  0  0  0  0  0  0  0  0  0  0  0
  142.1057   76.0484  219.9507 H   0  0  0  0  0  0  0  0  0  0  0  0
  143.0790   77.3850  218.5800 C   0  0  0  0  0  0  0  0  0  0  0  0
  144.1674   77.2445  218.6543 H   0  0  0  0  0  0  0  0  0  0  0  0
  142.6440   76.6917  217.8450 H   0  0  0  0  0  0  0  0  0  0  0  0
  142.8040   78.7590  218.1370 N   0  0  0  0  0  0  0  0  0  0  0  0
  143.3270   78.9380  217.2460 H   0  0  0  0  0  0  0  0  0  0  0  0
  143.1540   79.4360  218.8540 H   0  0  0  0  0  0  0  0  0  0  0  0
  141.3650   78.9820  217.8940 C   0  0  0  0  0  0  0  0  0  0  0  0
  141.1691   80.0639  217.9279 H   0  0  0  0  0  0  0  0  0  0  0  0
  141.1303   78.5479  216.9109 H   0  0  0  0  0  0  0  0  0  0  0  0
  140.4530   78.2860  218.9300 C   0  0  0  0  0  0  0  0  0  0  0  0
  139.6009   78.9448  219.1534 H   0  0  0  0  0  0  0  0  0  0  0  0
  140.1139   77.3320  218.4999 H   0  0  0  0  0  0  0  0  0  0  0  0
  142.1350   80.8920  221.6990 C   0  0  0  0  0  0  0  0  0  0  0  0
  142.2070   80.7670  220.3420 N   0  0  0  0  0  0  0  0  0  0  0  0
  141.6930   81.7070  219.5040 C   0  0  0  0  0  0  0  0  0  0  0  0
  141.7697   81.5731  218.4149 H   0  0  0  0  0  0  0  0  0  0  0  0
  141.0680   82.8420  220.0250 C   0  0  0  0  0  0  0  0  0  0  0  0
  140.6446   83.6024  219.3523 H   0  0  0  0  0  0  0  0  0  0  0  0
  140.9870   83.0000  221.4100 C   0  0  0  0  0  0  0  0  0  0  0  0
  140.5055   83.8930  221.8351 H   0  0  0  0  0  0  0  0  0  0  0  0
  141.5180   82.0230  222.2550 C   0  0  0  0  0  0  0  0  0  0  0  0
  141.4531   82.1391  223.3469 H   0  0  0  0  0  0  0  0  0  0  0  0
  1  2  1  0
  2  3  2  0
  3  4  1  0
  3  5  1  0
  5  6  2  0
  6  7  1  0
  7  8  2  0
  8  9  1  0
  8 10  1  0
 10 11  1  0
 10 12  2  0
 12 13  1  0
 12 14  1  0
 14 15  1  0
 14 16  2  0
 16 17  1  0
 17 18  2  0
 17 19  1  0
 19 20  1  0
 20 21  1  0
 20 22  1  0
 20 23  1  0
 23 24  1  0
 23 25  1  0
 25 26  1  0
 25 27  1  0
 25 28  1  0
 28 29  1  0
 28 30  1  0
 28 31  1  0
 31 32  1  0
 31 33  1  0
 31 34  1  0
 34 35  1  0
 34 36  1  0
 34 37  1  0
 37 38  1  0
 37 39  1  0
  2 40  1  0
 40 41  2  0
 41 42  1  0
 42 43  1  0
 42 44  2  0
 44 45  1  0
 44 46  1  0
 46 47  1  0
 46 48  2  0
 48 49  1  0
 19  5  1  0
 37 23  1  0
 48 40  1  0
 16  7  1  0
M  CHG  1  31   1
M  END
>  <UniqueID>  (55) 
441

>  <SMILES>  (55) 
O=c1c2ccccc2nc(/C=C/c2ccccn2)n1CC1CC[NH2+]CC1

>  <Energy>  (55) 
65.99533676113012

>  <Genealogy>  (55) 
O=c1c2ccccc2nc(/C=C/c2ccccn2)n1CC1CC[NH2+]CC1 (protonated)
O=c1c2ccccc2nc(/C=C/c2ccccn2)n1CC1CC[NH2+]CC1 (cis-trans isomerization)
O=c1c2ccccc2nc(/C=C/c2ccccn2)n1CC1CC[NH2+]CC1 (3D coordinates assigned)
O=c1c2ccccc2nc(/C=C/c2ccccn2)n1CC1CC[NH2+]CC1 (nonaromatic ring conformer: 65.99533676113012 kcal/mol)

>  <smiles>  (55) 
O=c1c2ccccc2nc(/C=C/c2ccccn2)n1CC1CCNCC1

>  <score_type>  (55) 
oracle

>  <origin>  (55) 
autodockgpu

>  <m_score__min__energy>  (55) 
-7.5

>  <m_primary>  (55) 
energy

>  <meeko>  (55) 
{"free_energy": -6.33, "intermolecular_energy": -7.82, "internal_energy": -2.42, "cluster_size": 11, "cluster_id": 5, "rank_in_cluster": 7}

>  <energy>  (55) 
-6.33

>  <cluster_rmsd>  (55) 
0.58

>  <rmsd>  (55) 
273.51

>  <cluster>  (55) 
5

$$$$
BQTJSOOYCKASGQ-IDUMZPQDNA-O
     RDKit          3D

 49 52  0  0  0  0  0  0  0  0999 V2000
  143.7503   79.7694  222.7718 H   0  0  0  0  0  0  0  0  0  0  0  0
  142.6650   79.8120  222.5980 C   0  0  0  0  0  0  0  0  0  0  0  0
  141.8810   78.9010  223.1910 C   0  0  0  0  0  0  0  0  0  0  0  0
  142.3422   78.0640  223.7357 H   0  0  0  0  0  0  0  0  0  0  0  0
  140.4040   79.0010  223.1260 C   0  0  0  0  0  0  0  0  0  0  0  0
  139.7940   79.8270  224.0170 N   0  0  0  0  0  0  0  0  0  0  0  0
  138.4550   80.0080  224.0300 C   0  0  0  0  0  0  0  0  0  0  0  0
  137.8740   80.8720  224.9670 C   0  0  0  0  0  0  0  0  0  0  0  0
  138.5075   81.4010  225.6942 H   0  0  0  0  0  0  0  0  0  0  0  0
  136.4890   81.0620  224.9780 C   0  0  0  0  0  0  0  0  0  0  0  0
  136.0329   81.7389  225.7154 H   0  0  0  0  0  0  0  0  0  0  0  0
  135.6830   80.3920  224.0520 C   0  0  0  0  0  0  0  0  0  0  0  0
  134.5937   80.5449  224.0613 H   0  0  0  0  0  0  0  0  0  0  0  0
  136.2580   79.5280  223.1140 C   0  0  0  0  0  0  0  0  0  0  0  0
  135.6204   79.0019  222.3882 H   0  0  0  0  0  0  0  0  0  0  0  0
  137.6530   79.3310  223.0980 C   0  0  0  0  0  0  0  0  0  0  0  0
  138.2800   78.4680  222.1830 C   0  0  0  0  0  0  0  0  0  0  0  0
  137.5740   77.8340  221.3470 O   0  0  0  0  0  0  0  0  0  0  0  0
  139.6480   78.3040  222.2010 N   0  0  0  0  0  0  0  0  0  0  0  0
  140.2530   77.3110  221.2800 C   0  0  0  0  0  0  0  0  0  0  0  0
  140.8426   76.5922  221.8680 H   0  0  0  0  0  0  0  0  0  0  0  0
  139.4399   76.8046  220.7393 H   0  0  0  0  0  0  0  0  0  0  0  0
  141.1770   77.9850  220.2400 C   0  0  0  0  0  0  0  0  0  0  0  0
  141.5041   78.9439  220.6684 H   0  0  0  0  0  0  0  0  0  0  0  0
  142.4160   77.0990  219.9650 C   0  0  0  0  0  0  0  0  0  0  0  0
  143.1590   77.2787  220.7560 H   0  0  0  0  0  0  0  0  0  0  0  0
  142.0780   76.0523  219.9523 H   0  0  0  0  0  0  0  0  0  0  0  0
  143.0700   77.3920  218.5990 C   0  0  0  0  0  0  0  0  0  0  0  0
  144.1573   77.2490  218.6853 H   0  0  0  0  0  0  0  0  0  0  0  0
  142.6419   76.7025  217.8565 H   0  0  0  0  0  0  0  0  0  0  0  0
  142.8030   78.7680  218.1580 N   0  0  0  0  0  0  0  0  0  0  0  0
  143.3350   78.9500  217.2740 H   0  0  0  0  0  0  0  0  0  0  0  0
  143.1470   79.4420  218.8810 H   0  0  0  0  0  0  0  0  0  0  0  0
  141.3670   78.9960  217.9000 C   0  0  0  0  0  0  0  0  0  0  0  0
  141.1736   80.0783  217.9360 H   0  0  0  0  0  0  0  0  0  0  0  0
  141.1417   78.5667  216.9126 H   0  0  0  0  0  0  0  0  0  0  0  0
  140.4420   78.2980  218.9240 C   0  0  0  0  0  0  0  0  0  0  0  0
  139.5893   78.9581  219.1410 H   0  0  0  0  0  0  0  0  0  0  0  0
  140.1051   77.3466  218.4866 H   0  0  0  0  0  0  0  0  0  0  0  0
  142.1270   80.8710  221.7200 C   0  0  0  0  0  0  0  0  0  0  0  0
  142.2020   80.7580  220.3620 N   0  0  0  0  0  0  0  0  0  0  0  0
  141.6970   81.7080  219.5310 C   0  0  0  0  0  0  0  0  0  0  0  0
  141.7753   81.5825  218.4410 H   0  0  0  0  0  0  0  0  0  0  0  0
  141.0790   82.8430  220.0600 C   0  0  0  0  0  0  0  0  0  0  0  0
  140.6632   83.6123  219.3926 H   0  0  0  0  0  0  0  0  0  0  0  0
  140.9950   82.9900  221.4460 C   0  0  0  0  0  0  0  0  0  0  0  0
  140.5190   83.8830  221.8772 H   0  0  0  0  0  0  0  0  0  0  0  0
  141.5160   82.0020  222.2840 C   0  0  0  0  0  0  0  0  0  0  0  0
  141.4482   82.1090  223.3767 H   0  0  0  0  0  0  0  0  0  0  0  0
  1  2  1  0
  2  3  2  0
  3  4  1  0
  3  5  1  0
  5  6  2  0
  6  7  1  0
  7  8  2  0
  8  9  1  0
  8 10  1  0
 10 11  1  0
 10 12  2  0
 12 13  1  0
 12 14  1  0
 14 15  1  0
 14 16  2  0
 16 17  1  0
 17 18  2  0
 17 19  1  0
 19 20  1  0
 20 21  1  0
 20 22  1  0
 20 23  1  0
 23 24  1  0
 23 25  1  0
 25 26  1  0
 25 27  1  0
 25 28  1  0
 28 29  1  0
 28 30  1  0
 28 31  1  0
 31 32  1  0
 31 33  1  0
 31 34  1  0
 34 35  1  0
 34 36  1  0
 34 37  1  0
 37 38  1  0
 37 39  1  0
  2 40  1  0
 40 41  2  0
 41 42  1  0
 42 43  1  0
 42 44  2  0
 44 45  1  0
 44 46  1  0
 46 47  1  0
 46 48  2  0
 48 49  1  0
 19  5  1  0
 37 23  1  0
 48 40  1  0
 16  7  1  0
M  CHG  1  31   1
M  END
>  <UniqueID>  (56) 
441

>  <SMILES>  (56) 
O=c1c2ccccc2nc(/C=C/c2ccccn2)n1CC1CC[NH2+]CC1

>  <Energy>  (56) 
65.99533676113012

>  <Genealogy>  (56) 
O=c1c2ccccc2nc(/C=C/c2ccccn2)n1CC1CC[NH2+]CC1 (protonated)
O=c1c2ccccc2nc(/C=C/c2ccccn2)n1CC1CC[NH2+]CC1 (cis-trans isomerization)
O=c1c2ccccc2nc(/C=C/c2ccccn2)n1CC1CC[NH2+]CC1 (3D coordinates assigned)
O=c1c2ccccc2nc(/C=C/c2ccccn2)n1CC1CC[NH2+]CC1 (nonaromatic ring conformer: 65.99533676113012 kcal/mol)

>  <smiles>  (56) 
O=c1c2ccccc2nc(/C=C/c2ccccn2)n1CC1CCNCC1

>  <score_type>  (56) 
oracle

>  <origin>  (56) 
autodockgpu

>  <m_score__min__energy>  (56) 
-7.5

>  <m_primary>  (56) 
energy

>  <meeko>  (56) 
{"free_energy": -6.32, "intermolecular_energy": -7.81, "internal_energy": -2.42, "cluster_size": 11, "cluster_id": 5, "rank_in_cluster": 10}

>  <energy>  (56) 
-6.33

>  <cluster_rmsd>  (56) 
0.61

>  <rmsd>  (56) 
273.49

>  <cluster>  (56) 
5

$$$$
BQTJSOOYCKASGQ-IDUMZPQDNA-O
     RDKit          3D

 49 52  0  0  0  0  0  0  0  0999 V2000
  143.7533   79.7920  222.7149 H   0  0  0  0  0  0  0  0  0  0  0  0
  142.6650   79.8390  222.5620 C   0  0  0  0  0  0  0  0  0  0  0  0
  141.8870   78.9440  223.1860 C   0  0  0  0  0  0  0  0  0  0  0  0
  142.3536   78.1271  223.7560 H   0  0  0  0  0  0  0  0  0  0  0  0
  140.4090   79.0350  223.1220 C   0  0  0  0  0  0  0  0  0  0  0  0
  139.7950   79.8660  224.0060 N   0  0  0  0  0  0  0  0  0  0  0  0
  138.4560   80.0400  224.0190 C   0  0  0  0  0  0  0  0  0  0  0  0
  137.8710   80.9100  224.9490 C   0  0  0  0  0  0  0  0  0  0  0  0
  138.5024   81.4495  225.6703 H   0  0  0  0  0  0  0  0  0  0  0  0
  136.4860   81.0920  224.9600 C   0  0  0  0  0  0  0  0  0  0  0  0
  136.0273   81.7734  225.6916 H   0  0  0  0  0  0  0  0  0  0  0  0
  135.6820   80.4090  224.0420 C   0  0  0  0  0  0  0  0  0  0  0  0
  134.5920   80.5564  224.0514 H   0  0  0  0  0  0  0  0  0  0  0  0
  136.2600   79.5390  223.1120 C   0  0  0  0  0  0  0  0  0  0  0  0
  135.6239   79.0023  222.3928 H   0  0  0  0  0  0  0  0  0  0  0  0
  137.6560   79.3490  223.0950 C   0  0  0  0  0  0  0  0  0  0  0  0
  138.2870   78.4810  222.1870 C   0  0  0  0  0  0  0  0  0  0  0  0
  137.5830   77.8360  221.3580 O   0  0  0  0  0  0  0  0  0  0  0  0
  139.6560   78.3250  222.2050 N   0  0  0  0  0  0  0  0  0  0  0  0
  140.2650   77.3260  221.2930 C   0  0  0  0  0  0  0  0  0  0  0  0
  140.8645   76.6199  221.8863 H   0  0  0  0  0  0  0  0  0  0  0  0
  139.4540   76.8048  220.7632 H   0  0  0  0  0  0  0  0  0  0  0  0
  141.1770   77.9970  220.2400 C   0  0  0  0  0  0  0  0  0  0  0  0
  141.5187   78.9519  220.6660 H   0  0  0  0  0  0  0  0  0  0  0  0
  142.4040   77.1020  219.9410 C   0  0  0  0  0  0  0  0  0  0  0  0
  143.1620   77.2735  220.7195 H   0  0  0  0  0  0  0  0  0  0  0  0
  142.0575   76.0581  219.9311 H   0  0  0  0  0  0  0  0  0  0  0  0
  143.0370   77.3940  218.5640 C   0  0  0  0  0  0  0  0  0  0  0  0
  144.1244   77.2420  218.6307 H   0  0  0  0  0  0  0  0  0  0  0  0
  142.5912   76.7103  217.8266 H   0  0  0  0  0  0  0  0  0  0  0  0
  142.7730   78.7740  218.1330 N   0  0  0  0  0  0  0  0  0  0  0  0
  143.2920   78.9540  217.2400 H   0  0  0  0  0  0  0  0  0  0  0  0
  143.1350   79.4420  218.8520 H   0  0  0  0  0  0  0  0  0  0  0  0
  141.3350   79.0140  217.9000 C   0  0  0  0  0  0  0  0  0  0  0  0
  141.1505   80.0976  217.9433 H   0  0  0  0  0  0  0  0  0  0  0  0
  141.0898   78.5904  216.9149 H   0  0  0  0  0  0  0  0  0  0  0  0
  140.4220   78.3190  218.9370 C   0  0  0  0  0  0  0  0  0  0  0  0
  139.5775   78.9842  219.1701 H   0  0  0  0  0  0  0  0  0  0  0  0
  140.0711   77.3714  218.5024 H   0  0  0  0  0  0  0  0  0  0  0  0
  142.1160   80.8870  221.6760 C   0  0  0  0  0  0  0  0  0  0  0  0
  142.2020   80.7700  220.3190 N   0  0  0  0  0  0  0  0  0  0  0  0
  141.6870   81.7090  219.4820 C   0  0  0  0  0  0  0  0  0  0  0  0
  141.7728   81.5804  218.3929 H   0  0  0  0  0  0  0  0  0  0  0  0
  141.0490   82.8370  220.0030 C   0  0  0  0  0  0  0  0  0  0  0  0
  140.6265   83.5980  219.3304 H   0  0  0  0  0  0  0  0  0  0  0  0
  140.9540   82.9870  221.3880 C   0  0  0  0  0  0  0  0  0  0  0  0
  140.4614   83.8738  221.8134 H   0  0  0  0  0  0  0  0  0  0  0  0
  141.4850   82.0100  222.2320 C   0  0  0  0  0  0  0  0  0  0  0  0
  141.4093   82.1197  223.3239 H   0  0  0  0  0  0  0  0  0  0  0  0
  1  2  1  0
  2  3  2  0
  3  4  1  0
  3  5  1  0
  5  6  2  0
  6  7  1  0
  7  8  2  0
  8  9  1  0
  8 10  1  0
 10 11  1  0
 10 12  2  0
 12 13  1  0
 12 14  1  0
 14 15  1  0
 14 16  2  0
 16 17  1  0
 17 18  2  0
 17 19  1  0
 19 20  1  0
 20 21  1  0
 20 22  1  0
 20 23  1  0
 23 24  1  0
 23 25  1  0
 25 26  1  0
 25 27  1  0
 25 28  1  0
 28 29  1  0
 28 30  1  0
 28 31  1  0
 31 32  1  0
 31 33  1  0
 31 34  1  0
 34 35  1  0
 34 36  1  0
 34 37  1  0
 37 38  1  0
 37 39  1  0
  2 40  1  0
 40 41  2  0
 41 42  1  0
 42 43  1  0
 42 44  2  0
 44 45  1  0
 44 46  1  0
 46 47  1  0
 46 48  2  0
 48 49  1  0
 19  5  1  0
 37 23  1  0
 48 40  1  0
 16  7  1  0
M  CHG  1  31   1
M  END
>  <UniqueID>  (57) 
441

>  <SMILES>  (57) 
O=c1c2ccccc2nc(/C=C/c2ccccn2)n1CC1CC[NH2+]CC1

>  <Energy>  (57) 
65.99533676113012

>  <Genealogy>  (57) 
O=c1c2ccccc2nc(/C=C/c2ccccn2)n1CC1CC[NH2+]CC1 (protonated)
O=c1c2ccccc2nc(/C=C/c2ccccn2)n1CC1CC[NH2+]CC1 (cis-trans isomerization)
O=c1c2ccccc2nc(/C=C/c2ccccn2)n1CC1CC[NH2+]CC1 (3D coordinates assigned)
O=c1c2ccccc2nc(/C=C/c2ccccn2)n1CC1CC[NH2+]CC1 (nonaromatic ring conformer: 65.99533676113012 kcal/mol)

>  <smiles>  (57) 
O=c1c2ccccc2nc(/C=C/c2ccccn2)n1CC1CCNCC1

>  <score_type>  (57) 
oracle

>  <origin>  (57) 
autodockgpu

>  <m_score__min__energy>  (57) 
-7.5

>  <m_primary>  (57) 
energy

>  <meeko>  (57) 
{"free_energy": -6.34, "intermolecular_energy": -7.83, "internal_energy": -2.42, "cluster_size": 11, "cluster_id": 5, "rank_in_cluster": 4}

>  <energy>  (57) 
-6.32

>  <cluster_rmsd>  (57) 
0.56

>  <rmsd>  (57) 
273.48

>  <cluster>  (57) 
5

$$$$
BQTJSOOYCKASGQ-IDUMZPQDNA-O
     RDKit          3D

 49 52  0  0  0  0  0  0  0  0999 V2000
  143.7314   79.9360  222.9272 H   0  0  0  0  0  0  0  0  0  0  0  0
  142.6620   79.8830  222.6750 C   0  0  0  0  0  0  0  0  0  0  0  0
  141.9120   78.9330  223.2480 C   0  0  0  0  0  0  0  0  0  0  0  0
  142.4024   78.1087  223.7866 H   0  0  0  0  0  0  0  0  0  0  0  0
  140.4320   78.9730  223.1690 C   0  0  0  0  0  0  0  0  0  0  0  0
  139.7840   79.8180  224.0140 N   0  0  0  0  0  0  0  0  0  0  0  0
  138.4400   79.9480  224.0100 C   0  0  0  0  0  0  0  0  0  0  0  0
  137.8190   80.8350  224.8990 C   0  0  0  0  0  0  0  0  0  0  0  0
  138.4266   81.4233  225.6024 H   0  0  0  0  0  0  0  0  0  0  0  0
  136.4290   80.9730  224.8930 C   0  0  0  0  0  0  0  0  0  0  0  0
  135.9427   81.6688  225.5926 H   0  0  0  0  0  0  0  0  0  0  0  0
  135.6550   80.2270  223.9980 C   0  0  0  0  0  0  0  0  0  0  0  0
  134.5607   80.3383  223.9942 H   0  0  0  0  0  0  0  0  0  0  0  0
  136.2690   79.3400  223.1080 C   0  0  0  0  0  0  0  0  0  0  0  0
  135.6570   78.7541  222.4064 H   0  0  0  0  0  0  0  0  0  0  0  0
  137.6710   79.1960  223.1090 C   0  0  0  0  0  0  0  0  0  0  0  0
  138.3380   78.3120  222.2420 C   0  0  0  0  0  0  0  0  0  0  0  0
  137.6620   77.6120  221.4350 O   0  0  0  0  0  0  0  0  0  0  0  0
  139.7110   78.2020  222.2760 N   0  0  0  0  0  0  0  0  0  0  0  0
  140.3590   77.1880  221.4090 C   0  0  0  0  0  0  0  0  0  0  0  0
  140.9783   76.5277  222.0339 H   0  0  0  0  0  0  0  0  0  0  0  0
  139.5692   76.6185  220.8972 H   0  0  0  0  0  0  0  0  0  0  0  0
  141.2540   77.8450  220.3340 C   0  0  0  0  0  0  0  0  0  0  0  0
  141.5814   78.8166  220.7325 H   0  0  0  0  0  0  0  0  0  0  0  0
  142.4950   76.9630  220.0530 C   0  0  0  0  0  0  0  0  0  0  0  0
  143.2537   77.1687  220.8224 H   0  0  0  0  0  0  0  0  0  0  0  0
  142.1665   75.9134  220.0736 H   0  0  0  0  0  0  0  0  0  0  0  0
  143.1160   77.2280  218.6650 C   0  0  0  0  0  0  0  0  0  0  0  0
  144.2061   77.0956  218.7297 H   0  0  0  0  0  0  0  0  0  0  0  0
  142.6776   76.5174  217.9489 H   0  0  0  0  0  0  0  0  0  0  0  0
  142.8270   78.5920  218.1980 N   0  0  0  0  0  0  0  0  0  0  0  0
  143.3380   78.7560  217.2980 H   0  0  0  0  0  0  0  0  0  0  0  0
  143.1810   79.2850  218.8970 H   0  0  0  0  0  0  0  0  0  0  0  0
  141.3840   78.8010  217.9670 C   0  0  0  0  0  0  0  0  0  0  0  0
  141.1814   79.8821  217.9816 H   0  0  0  0  0  0  0  0  0  0  0  0
  141.1412   78.3459  216.9955 H   0  0  0  0  0  0  0  0  0  0  0  0
  140.4880   78.1200  219.0270 C   0  0  0  0  0  0  0  0  0  0  0  0
  139.6341   78.7778  219.2467 H   0  0  0  0  0  0  0  0  0  0  0  0
  140.1506   77.1555  218.6198 H   0  0  0  0  0  0  0  0  0  0  0  0
  142.1090   80.8630  221.7170 C   0  0  0  0  0  0  0  0  0  0  0  0
  142.2030   80.6550  220.3720 N   0  0  0  0  0  0  0  0  0  0  0  0
  141.6840   81.5300  219.4700 C   0  0  0  0  0  0  0  0  0  0  0  0
  141.7778   81.3288  218.3926 H   0  0  0  0  0  0  0  0  0  0  0  0
  141.0320   82.6840  219.9100 C   0  0  0  0  0  0  0  0  0  0  0  0
  140.6046   83.3924  219.1851 H   0  0  0  0  0  0  0  0  0  0  0  0
  140.9290   82.9280  221.2810 C   0  0  0  0  0  0  0  0  0  0  0  0
  140.4264   83.8372  221.6426 H   0  0  0  0  0  0  0  0  0  0  0  0
  141.4650   82.0160  222.1920 C   0  0  0  0  0  0  0  0  0  0  0  0
  141.3832   82.1996  223.2735 H   0  0  0  0  0  0  0  0  0  0  0  0
  1  2  1  0
  2  3  2  0
  3  4  1  0
  3  5  1  0
  5  6  2  0
  6  7  1  0
  7  8  2  0
  8  9  1  0
  8 10  1  0
 10 11  1  0
 10 12  2  0
 12 13  1  0
 12 14  1  0
 14 15  1  0
 14 16  2  0
 16 17  1  0
 17 18  2  0
 17 19  1  0
 19 20  1  0
 20 21  1  0
 20 22  1  0
 20 23  1  0
 23 24  1  0
 23 25  1  0
 25 26  1  0
 25 27  1  0
 25 28  1  0
 28 29  1  0
 28 30  1  0
 28 31  1  0
 31 32  1  0
 31 33  1  0
 31 34  1  0
 34 35  1  0
 34 36  1  0
 34 37  1  0
 37 38  1  0
 37 39  1  0
  2 40  1  0
 40 41  2  0
 41 42  1  0
 42 43  1  0
 42 44  2  0
 44 45  1  0
 44 46  1  0
 46 47  1  0
 46 48  2  0
 48 49  1  0
 19  5  1  0
 37 23  1  0
 48 40  1  0
 16  7  1  0
M  CHG  1  31   1
M  END
>  <UniqueID>  (58) 
441

>  <SMILES>  (58) 
O=c1c2ccccc2nc(/C=C/c2ccccn2)n1CC1CC[NH2+]CC1

>  <Energy>  (58) 
65.99533676113012

>  <Genealogy>  (58) 
O=c1c2ccccc2nc(/C=C/c2ccccn2)n1CC1CC[NH2+]CC1 (protonated)
O=c1c2ccccc2nc(/C=C/c2ccccn2)n1CC1CC[NH2+]CC1 (cis-trans isomerization)
O=c1c2ccccc2nc(/C=C/c2ccccn2)n1CC1CC[NH2+]CC1 (3D coordinates assigned)
O=c1c2ccccc2nc(/C=C/c2ccccn2)n1CC1CC[NH2+]CC1 (nonaromatic ring conformer: 65.99533676113012 kcal/mol)

>  <smiles>  (58) 
O=c1c2ccccc2nc(/C=C/c2ccccn2)n1CC1CCNCC1

>  <score_type>  (58) 
oracle

>  <origin>  (58) 
autodockgpu

>  <m_score__min__energy>  (58) 
-7.5

>  <m_primary>  (58) 
energy

>  <meeko>  (58) 
{"free_energy": -6.35, "intermolecular_energy": -7.84, "internal_energy": -2.38, "cluster_size": 11, "cluster_id": 5, "rank_in_cluster": 2}

>  <energy>  (58) 
-6.32

>  <cluster_rmsd>  (58) 
0.59

>  <rmsd>  (58) 
273.51

>  <cluster>  (58) 
5

$$$$
BQTJSOOYCKASGQ-IDUMZPQDNA-O
     RDKit          3D

 49 52  0  0  0  0  0  0  0  0999 V2000
  138.7914   77.5514  223.5078 H   0  0  0  0  0  0  0  0  0  0  0  0
  139.5060   77.8320  222.7200 C   0  0  0  0  0  0  0  0  0  0  0  0
  139.5010   77.1430  221.5710 C   0  0  0  0  0  0  0  0  0  0  0  0
  138.5941   77.1368  220.9485 H   0  0  0  0  0  0  0  0  0  0  0  0
  140.6960   76.3890  221.1240 C   0  0  0  0  0  0  0  0  0  0  0  0
  140.7070   75.0480  221.3460 N   0  0  0  0  0  0  0  0  0  0  0  0
  141.7370   74.2640  220.9600 C   0  0  0  0  0  0  0  0  0  0  0  0
  141.7000   72.8850  221.2100 C   0  0  0  0  0  0  0  0  0  0  0  0
  140.8338   72.4423  221.7236 H   0  0  0  0  0  0  0  0  0  0  0  0
  142.7630   72.0730  220.8070 C   0  0  0  0  0  0  0  0  0  0  0  0
  142.7340   70.9914  221.0051 H   0  0  0  0  0  0  0  0  0  0  0  0
  143.8640   72.6340  220.1520 C   0  0  0  0  0  0  0  0  0  0  0  0
  144.6991   71.9922  219.8348 H   0  0  0  0  0  0  0  0  0  0  0  0
  143.9060   74.0100  219.8990 C   0  0  0  0  0  0  0  0  0  0  0  0
  144.7740   74.4477  219.3841 H   0  0  0  0  0  0  0  0  0  0  0  0
  142.8380   74.8350  220.3030 C   0  0  0  0  0  0  0  0  0  0  0  0
  142.8340   76.2230  220.0820 C   0  0  0  0  0  0  0  0  0  0  0  0
  143.8240   76.7600  219.5090 O   0  0  0  0  0  0  0  0  0  0  0  0
  141.7680   76.9930  220.4940 N   0  0  0  0  0  0  0  0  0  0  0  0
  141.8530   78.4650  220.3240 C   0  0  0  0  0  0  0  0  0  0  0  0
  140.8824   78.9110  220.5868 H   0  0  0  0  0  0  0  0  0  0  0  0
  142.6502   78.8411  220.9820 H   0  0  0  0  0  0  0  0  0  0  0  0
  142.2050   78.8520  218.8700 C   0  0  0  0  0  0  0  0  0  0  0  0
  143.2839   78.6812  218.7402 H   0  0  0  0  0  0  0  0  0  0  0  0
  141.4240   77.9650  217.8710 C   0  0  0  0  0  0  0  0  0  0  0  0
  141.9594   77.0110  217.7555 H   0  0  0  0  0  0  0  0  0  0  0  0
  140.4128   77.8196  218.2787 H   0  0  0  0  0  0  0  0  0  0  0  0
  141.2740   78.6170  216.4810 C   0  0  0  0  0  0  0  0  0  0  0  0
  141.2928   77.8298  215.7129 H   0  0  0  0  0  0  0  0  0  0  0  0
  140.3200   79.1642  216.4573 H   0  0  0  0  0  0  0  0  0  0  0  0
  142.3600   79.5710  216.2140 N   0  0  0  0  0  0  0  0  0  0  0  0
  142.2680   79.9220  215.2310 H   0  0  0  0  0  0  0  0  0  0  0  0
  143.2830   79.0840  216.2930 H   0  0  0  0  0  0  0  0  0  0  0  0
  142.3190   80.7250  217.1340 C   0  0  0  0  0  0  0  0  0  0  0  0
  143.3131   81.1957  217.1478 H   0  0  0  0  0  0  0  0  0  0  0  0
  141.5409   81.4086  216.7636 H   0  0  0  0  0  0  0  0  0  0  0  0
  141.9380   80.3410  218.5830 C   0  0  0  0  0  0  0  0  0  0  0  0
  142.5320   80.9499  219.2804 H   0  0  0  0  0  0  0  0  0  0  0  0
  140.8616   80.5263  218.7136 H   0  0  0  0  0  0  0  0  0  0  0  0
  140.4340   78.9540  222.9700 C   0  0  0  0  0  0  0  0  0  0  0  0
  140.0990   80.2300  222.6200 N   0  0  0  0  0  0  0  0  0  0  0  0
  140.9260   81.2820  222.8580 C   0  0  0  0  0  0  0  0  0  0  0  0
  140.6214   82.2973  222.5642 H   0  0  0  0  0  0  0  0  0  0  0  0
  142.1620   81.0760  223.4750 C   0  0  0  0  0  0  0  0  0  0  0  0
  142.8330   81.9244  223.6747 H   0  0  0  0  0  0  0  0  0  0  0  0
  142.5350   79.7800  223.8350 C   0  0  0  0  0  0  0  0  0  0  0  0
  143.5090   79.6004  224.3137 H   0  0  0  0  0  0  0  0  0  0  0  0
  141.6710   78.7120  223.5870 C   0  0  0  0  0  0  0  0  0  0  0  0
  141.9574   77.6891  223.8729 H   0  0  0  0  0  0  0  0  0  0  0  0
  1  2  1  0
  2  3  2  0
  3  4  1  0
  3  5  1  0
  5  6  2  0
  6  7  1  0
  7  8  2  0
  8  9  1  0
  8 10  1  0
 10 11  1  0
 10 12  2  0
 12 13  1  0
 12 14  1  0
 14 15  1  0
 14 16  2  0
 16 17  1  0
 17 18  2  0
 17 19  1  0
 19 20  1  0
 20 21  1  0
 20 22  1  0
 20 23  1  0
 23 24  1  0
 23 25  1  0
 25 26  1  0
 25 27  1  0
 25 28  1  0
 28 29  1  0
 28 30  1  0
 28 31  1  0
 31 32  1  0
 31 33  1  0
 31 34  1  0
 34 35  1  0
 34 36  1  0
 34 37  1  0
 37 38  1  0
 37 39  1  0
  2 40  1  0
 40 41  2  0
 41 42  1  0
 42 43  1  0
 42 44  2  0
 44 45  1  0
 44 46  1  0
 46 47  1  0
 46 48  2  0
 48 49  1  0
 19  5  1  0
 37 23  1  0
 48 40  1  0
 16  7  1  0
M  CHG  1  31   1
M  END
>  <UniqueID>  (59) 
441

>  <SMILES>  (59) 
O=c1c2ccccc2nc(/C=C/c2ccccn2)n1CC1CC[NH2+]CC1

>  <Energy>  (59) 
65.99533676113012

>  <Genealogy>  (59) 
O=c1c2ccccc2nc(/C=C/c2ccccn2)n1CC1CC[NH2+]CC1 (protonated)
O=c1c2ccccc2nc(/C=C/c2ccccn2)n1CC1CC[NH2+]CC1 (cis-trans isomerization)
O=c1c2ccccc2nc(/C=C/c2ccccn2)n1CC1CC[NH2+]CC1 (3D coordinates assigned)
O=c1c2ccccc2nc(/C=C/c2ccccn2)n1CC1CC[NH2+]CC1 (nonaromatic ring conformer: 65.99533676113012 kcal/mol)

>  <smiles>  (59) 
O=c1c2ccccc2nc(/C=C/c2ccccn2)n1CC1CCNCC1

>  <score_type>  (59) 
oracle

>  <origin>  (59) 
autodockgpu

>  <m_score__min__energy>  (59) 
-7.5

>  <m_primary>  (59) 
energy

>  <meeko>  (59) 
{"free_energy": -7.35, "intermolecular_energy": -8.84, "internal_energy": -1.21, "cluster_size": 4, "cluster_id": 2, "rank_in_cluster": 3}

>  <energy>  (59) 
-6.32

>  <cluster_rmsd>  (59) 
0.6

>  <rmsd>  (59) 
273.48

>  <cluster>  (59) 
5

$$$$
BQTJSOOYCKASGQ-IDUMZPQDNA-O
     RDKit          3D

 49 52  0  0  0  0  0  0  0  0999 V2000
  143.7804   79.8647  222.7237 H   0  0  0  0  0  0  0  0  0  0  0  0
  142.6950   79.8680  222.5450 C   0  0  0  0  0  0  0  0  0  0  0  0
  141.9380   78.9460  223.1560 C   0  0  0  0  0  0  0  0  0  0  0  0
  142.4235   78.1237  223.7019 H   0  0  0  0  0  0  0  0  0  0  0  0
  140.4580   79.0150  223.1090 C   0  0  0  0  0  0  0  0  0  0  0  0
  139.8440   79.8470  223.9920 N   0  0  0  0  0  0  0  0  0  0  0  0
  138.5020   80.0010  224.0200 C   0  0  0  0  0  0  0  0  0  0  0  0
  137.9160   80.8720  224.9470 C   0  0  0  0  0  0  0  0  0  0  0  0
  138.5484   81.4288  225.6541 H   0  0  0  0  0  0  0  0  0  0  0  0
  136.5280   81.0340  224.9740 C   0  0  0  0  0  0  0  0  0  0  0  0
  136.0686   81.7163  225.7044 H   0  0  0  0  0  0  0  0  0  0  0  0
  135.7230   80.3300  224.0740 C   0  0  0  0  0  0  0  0  0  0  0  0
  134.6311   80.4617  224.0953 H   0  0  0  0  0  0  0  0  0  0  0  0
  136.3030   79.4580  223.1460 C   0  0  0  0  0  0  0  0  0  0  0  0
  135.6664   78.9038  222.4406 H   0  0  0  0  0  0  0  0  0  0  0  0
  137.7010   79.2890  223.1140 C   0  0  0  0  0  0  0  0  0  0  0  0
  138.3340   78.4200  222.2080 C   0  0  0  0  0  0  0  0  0  0  0  0
  137.6290   77.7550  221.3950 O   0  0  0  0  0  0  0  0  0  0  0  0
  139.7050   78.2840  222.2100 N   0  0  0  0  0  0  0  0  0  0  0  0
  140.3170   77.2840  221.3010 C   0  0  0  0  0  0  0  0  0  0  0  0
  140.9333   76.5926  221.8944 H   0  0  0  0  0  0  0  0  0  0  0  0
  139.5070   76.7463  220.7864 H   0  0  0  0  0  0  0  0  0  0  0  0
  141.2070   77.9560  220.2300 C   0  0  0  0  0  0  0  0  0  0  0  0
  141.5343   78.9237  220.6380 H   0  0  0  0  0  0  0  0  0  0  0  0
  142.4480   77.0810  219.9350 C   0  0  0  0  0  0  0  0  0  0  0  0
  143.2087   77.2793  220.7044 H   0  0  0  0  0  0  0  0  0  0  0  0
  142.1221   76.0304  219.9443 H   0  0  0  0  0  0  0  0  0  0  0  0
  143.0640   77.3640  218.5480 C   0  0  0  0  0  0  0  0  0  0  0  0
  144.1545   77.2329  218.6075 H   0  0  0  0  0  0  0  0  0  0  0  0
  142.6247   76.6612  217.8247 H   0  0  0  0  0  0  0  0  0  0  0  0
  142.7710   78.7320  218.0990 N   0  0  0  0  0  0  0  0  0  0  0  0
  143.2790   78.9080  217.1990 H   0  0  0  0  0  0  0  0  0  0  0  0
  143.1260   79.4180  218.8050 H   0  0  0  0  0  0  0  0  0  0  0  0
  141.3270   78.9410  217.8750 C   0  0  0  0  0  0  0  0  0  0  0  0
  141.1224   80.0214  217.9034 H   0  0  0  0  0  0  0  0  0  0  0  0
  141.0821   78.4972  216.8987 H   0  0  0  0  0  0  0  0  0  0  0  0
  140.4350   78.2450  218.9300 C   0  0  0  0  0  0  0  0  0  0  0  0
  139.5807   78.8984  219.1609 H   0  0  0  0  0  0  0  0  0  0  0  0
  140.0969   77.2851  218.5124 H   0  0  0  0  0  0  0  0  0  0  0  0
  142.1270   80.8880  221.6410 C   0  0  0  0  0  0  0  0  0  0  0  0
  142.2000   80.7400  220.2860 N   0  0  0  0  0  0  0  0  0  0  0  0
  141.6670   81.6550  219.4320 C   0  0  0  0  0  0  0  0  0  0  0  0
  141.7435   81.5021  218.3454 H   0  0  0  0  0  0  0  0  0  0  0  0
  141.0230   82.7880  219.9330 C   0  0  0  0  0  0  0  0  0  0  0  0
  140.5854   83.5284  219.2472 H   0  0  0  0  0  0  0  0  0  0  0  0
  140.9410   82.9700  221.3150 C   0  0  0  0  0  0  0  0  0  0  0  0
  140.4437   83.8616  221.7246 H   0  0  0  0  0  0  0  0  0  0  0  0
  141.4910   82.0190  222.1760 C   0  0  0  0  0  0  0  0  0  0  0  0
  141.4265   82.1549  223.2657 H   0  0  0  0  0  0  0  0  0  0  0  0
  1  2  1  0
  2  3  2  0
  3  4  1  0
  3  5  1  0
  5  6  2  0
  6  7  1  0
  7  8  2  0
  8  9  1  0
  8 10  1  0
 10 11  1  0
 10 12  2  0
 12 13  1  0
 12 14  1  0
 14 15  1  0
 14 16  2  0
 16 17  1  0
 17 18  2  0
 17 19  1  0
 19 20  1  0
 20 21  1  0
 20 22  1  0
 20 23  1  0
 23 24  1  0
 23 25  1  0
 25 26  1  0
 25 27  1  0
 25 28  1  0
 28 29  1  0
 28 30  1  0
 28 31  1  0
 31 32  1  0
 31 33  1  0
 31 34  1  0
 34 35  1  0
 34 36  1  0
 34 37  1  0
 37 38  1  0
 37 39  1  0
  2 40  1  0
 40 41  2  0
 41 42  1  0
 42 43  1  0
 42 44  2  0
 44 45  1  0
 44 46  1  0
 46 47  1  0
 46 48  2  0
 48 49  1  0
 19  5  1  0
 37 23  1  0
 48 40  1  0
 16  7  1  0
M  CHG  1  31   1
M  END
>  <UniqueID>  (60) 
441

>  <SMILES>  (60) 
O=c1c2ccccc2nc(/C=C/c2ccccn2)n1CC1CC[NH2+]CC1

>  <Energy>  (60) 
65.99533676113012

>  <Genealogy>  (60) 
O=c1c2ccccc2nc(/C=C/c2ccccn2)n1CC1CC[NH2+]CC1 (protonated)
O=c1c2ccccc2nc(/C=C/c2ccccn2)n1CC1CC[NH2+]CC1 (cis-trans isomerization)
O=c1c2ccccc2nc(/C=C/c2ccccn2)n1CC1CC[NH2+]CC1 (3D coordinates assigned)
O=c1c2ccccc2nc(/C=C/c2ccccn2)n1CC1CC[NH2+]CC1 (nonaromatic ring conformer: 65.99533676113012 kcal/mol)

>  <smiles>  (60) 
O=c1c2ccccc2nc(/C=C/c2ccccn2)n1CC1CCNCC1

>  <score_type>  (60) 
oracle

>  <origin>  (60) 
autodockgpu

>  <m_score__min__energy>  (60) 
-7.5

>  <m_primary>  (60) 
energy

>  <meeko>  (60) 
{"free_energy": -6.32, "intermolecular_energy": -7.82, "internal_energy": -2.42, "cluster_size": 11, "cluster_id": 5, "rank_in_cluster": 9}

>  <energy>  (60) 
-5.78

>  <cluster_rmsd>  (60) 
0.0

>  <rmsd>  (60) 
273.55

>  <cluster>  (60) 
6

$$$$
BQTJSOOYCKASGQ-IDUMZPQDNA-O
     RDKit          3D

 49 52  0  0  0  0  0  0  0  0999 V2000
  141.1577   71.2281  221.0557 H   0  0  0  0  0  0  0  0  0  0  0  0
  140.4810   71.9420  221.5480 C   0  0  0  0  0  0  0  0  0  0  0  0
  139.4410   71.4670  222.2460 C   0  0  0  0  0  0  0  0  0  0  0  0
  138.4226   71.5903  221.8491 H   0  0  0  0  0  0  0  0  0  0  0  0
  139.6380   70.7780  223.5440 C   0  0  0  0  0  0  0  0  0  0  0  0
  140.1650   71.5070  224.5640 N   0  0  0  0  0  0  0  0  0  0  0  0
  140.3660   70.9830  225.7930 C   0  0  0  0  0  0  0  0  0  0  0  0
  140.9090   71.7760  226.8120 C   0  0  0  0  0  0  0  0  0  0  0  0
  141.1740   72.8245  226.6109 H   0  0  0  0  0  0  0  0  0  0  0  0
  141.1140   71.2350  228.0840 C   0  0  0  0  0  0  0  0  0  0  0  0
  141.5434   71.8572  228.8831 H   0  0  0  0  0  0  0  0  0  0  0  0
  140.7740   69.9040  228.3420 C   0  0  0  0  0  0  0  0  0  0  0  0
  140.9340   69.4819  229.3451 H   0  0  0  0  0  0  0  0  0  0  0  0
  140.2310   69.1070  227.3290 C   0  0  0  0  0  0  0  0  0  0  0  0
  139.9661   68.0596  227.5361 H   0  0  0  0  0  0  0  0  0  0  0  0
  140.0230   69.6450  226.0430 C   0  0  0  0  0  0  0  0  0  0  0  0
  139.4880   68.8870  224.9870 C   0  0  0  0  0  0  0  0  0  0  0  0
  139.1900   67.6740  225.1860 O   0  0  0  0  0  0  0  0  0  0  0  0
  139.3010   69.4530  223.7450 N   0  0  0  0  0  0  0  0  0  0  0  0
  138.8250   68.5860  222.6390 C   0  0  0  0  0  0  0  0  0  0  0  0
  139.3776   68.8410  221.7227 H   0  0  0  0  0  0  0  0  0  0  0  0
  138.9990   67.5381  222.9247 H   0  0  0  0  0  0  0  0  0  0  0  0
  137.3120   68.7710  222.3800 C   0  0  0  0  0  0  0  0  0  0  0  0
  137.2068   69.5404  221.6010 H   0  0  0  0  0  0  0  0  0  0  0  0
  136.6850   67.4480  221.8790 C   0  0  0  0  0  0  0  0  0  0  0  0
  136.8687   67.3594  220.7981 H   0  0  0  0  0  0  0  0  0  0  0  0
  137.1526   66.6265  222.4416 H   0  0  0  0  0  0  0  0  0  0  0  0
  135.1640   67.3740  222.1280 C   0  0  0  0  0  0  0  0  0  0  0  0
  134.6946   66.8110  221.3079 H   0  0  0  0  0  0  0  0  0  0  0  0
  134.9963   66.8734  223.0930 H   0  0  0  0  0  0  0  0  0  0  0  0
  134.5630   68.7130  222.1930 N   0  0  0  0  0  0  0  0  0  0  0  0
  133.5230   68.6140  222.2740 H   0  0  0  0  0  0  0  0  0  0  0  0
  134.7650   69.2320  221.3060 H   0  0  0  0  0  0  0  0  0  0  0  0
  135.0570   69.4840  223.3510 C   0  0  0  0  0  0  0  0  0  0  0  0
  134.8811   70.5528  223.1591 H   0  0  0  0  0  0  0  0  0  0  0  0
  134.5117   69.1256  224.2366 H   0  0  0  0  0  0  0  0  0  0  0  0
  136.5650   69.2770  223.6280 C   0  0  0  0  0  0  0  0  0  0  0  0
  137.0042   70.2356  223.9415 H   0  0  0  0  0  0  0  0  0  0  0  0
  136.6663   68.5182  224.4180 H   0  0  0  0  0  0  0  0  0  0  0  0
  140.7540   73.3870  221.4140 C   0  0  0  0  0  0  0  0  0  0  0  0
  139.9490   74.3100  222.0160 N   0  0  0  0  0  0  0  0  0  0  0  0
  140.1900   75.6450  221.9240 C   0  0  0  0  0  0  0  0  0  0  0  0
  139.5195   76.3600  222.4232 H   0  0  0  0  0  0  0  0  0  0  0  0
  141.2870   76.1090  221.1970 C   0  0  0  0  0  0  0  0  0  0  0  0
  141.4900   77.1877  221.1243 H   0  0  0  0  0  0  0  0  0  0  0  0
  142.1240   75.1890  220.5630 C   0  0  0  0  0  0  0  0  0  0  0  0
  142.9875   75.5408  219.9794 H   0  0  0  0  0  0  0  0  0  0  0  0
  141.8630   73.8210  220.6710 C   0  0  0  0  0  0  0  0  0  0  0  0
  142.5209   73.0901  220.1780 H   0  0  0  0  0  0  0  0  0  0  0  0
  1  2  1  0
  2  3  2  0
  3  4  1  0
  3  5  1  0
  5  6  2  0
  6  7  1  0
  7  8  2  0
  8  9  1  0
  8 10  1  0
 10 11  1  0
 10 12  2  0
 12 13  1  0
 12 14  1  0
 14 15  1  0
 14 16  2  0
 16 17  1  0
 17 18  2  0
 17 19  1  0
 19 20  1  0
 20 21  1  0
 20 22  1  0
 20 23  1  0
 23 24  1  0
 23 25  1  0
 25 26  1  0
 25 27  1  0
 25 28  1  0
 28 29  1  0
 28 30  1  0
 28 31  1  0
 31 32  1  0
 31 33  1  0
 31 34  1  0
 34 35  1  0
 34 36  1  0
 34 37  1  0
 37 38  1  0
 37 39  1  0
  2 40  1  0
 40 41  2  0
 41 42  1  0
 42 43  1  0
 42 44  2  0
 44 45  1  0
 44 46  1  0
 46 47  1  0
 46 48  2  0
 48 49  1  0
 19  5  1  0
 37 23  1  0
 48 40  1  0
 16  7  1  0
M  CHG  1  31   1
M  END
>  <UniqueID>  (61) 
442

>  <SMILES>  (61) 
O=c1c2ccccc2nc(/C=C/c2ccccn2)n1CC1CC[NH2+]CC1

>  <Energy>  (61) 
67.7571269579274

>  <Genealogy>  (61) 
O=c1c2ccccc2nc(/C=C/c2ccccn2)n1CC1CC[NH2+]CC1 (protonated)
O=c1c2ccccc2nc(/C=C/c2ccccn2)n1CC1CC[NH2+]CC1 (cis-trans isomerization)
O=c1c2ccccc2nc(/C=C/c2ccccn2)n1CC1CC[NH2+]CC1 (3D coordinates assigned)
O=c1c2ccccc2nc(/C=C/c2ccccn2)n1CC1CC[NH2+]CC1 (nonaromatic ring conformer: 67.7571269579274 kcal/mol)

>  <smiles>  (61) 
O=c1c2ccccc2nc(/C=C/c2ccccn2)n1CC1CCNCC1

>  <score_type>  (61) 
oracle

>  <origin>  (61) 
autodockgpu

>  <m_score__min__energy>  (61) 
-7.5

>  <m_primary>  (61) 
energy

>  <meeko>  (61) 
{"free_energy": -7.5, "intermolecular_energy": -8.99, "internal_energy": -0.99, "cluster_size": 1, "cluster_id": 1, "rank_in_cluster": 1}

>  <energy>  (61) 
-7.5

>  <cluster_rmsd>  (61) 
0.0

>  <rmsd>  (61) 
272.05

>  <cluster>  (61) 
1

$$$$
BQTJSOOYCKASGQ-IDUMZPQDNA-O
     RDKit          3D

 49 52  0  0  0  0  0  0  0  0999 V2000
  143.7572   79.8010  222.7192 H   0  0  0  0  0  0  0  0  0  0  0  0
  142.6700   79.8390  222.5560 C   0  0  0  0  0  0  0  0  0  0  0  0
  141.8940   78.9340  223.1690 C   0  0  0  0  0  0  0  0  0  0  0  0
  142.3628   78.1119  223.7297 H   0  0  0  0  0  0  0  0  0  0  0  0
  140.4160   79.0210  223.1050 C   0  0  0  0  0  0  0  0  0  0  0  0
  139.8010   79.8500  223.9900 N   0  0  0  0  0  0  0  0  0  0  0  0
  138.4610   80.0200  224.0040 C   0  0  0  0  0  0  0  0  0  0  0  0
  137.8740   80.8870  224.9350 C   0  0  0  0  0  0  0  0  0  0  0  0
  138.5043   81.4270  225.6569 H   0  0  0  0  0  0  0  0  0  0  0  0
  136.4890   81.0660  224.9470 C   0  0  0  0  0  0  0  0  0  0  0  0
  136.0292   81.7450  225.6802 H   0  0  0  0  0  0  0  0  0  0  0  0
  135.6860   80.3830  224.0280 C   0  0  0  0  0  0  0  0  0  0  0  0
  134.5956   80.5279  224.0381 H   0  0  0  0  0  0  0  0  0  0  0  0
  136.2660   79.5160  223.0960 C   0  0  0  0  0  0  0  0  0  0  0  0
  135.6311   78.9795  222.3755 H   0  0  0  0  0  0  0  0  0  0  0  0
  137.6630   79.3290  223.0790 C   0  0  0  0  0  0  0  0  0  0  0  0
  138.2960   78.4640  222.1700 C   0  0  0  0  0  0  0  0  0  0  0  0
  137.5930   77.8180  221.3400 O   0  0  0  0  0  0  0  0  0  0  0  0
  139.6650   78.3110  222.1870 N   0  0  0  0  0  0  0  0  0  0  0  0
  140.2760   77.3150  221.2730 C   0  0  0  0  0  0  0  0  0  0  0  0
  140.8756   76.6081  221.8652 H   0  0  0  0  0  0  0  0  0  0  0  0
  139.4660   76.7945  220.7410 H   0  0  0  0  0  0  0  0  0  0  0  0
  141.1880   77.9890  220.2230 C   0  0  0  0  0  0  0  0  0  0  0  0
  141.5207   78.9474  220.6481 H   0  0  0  0  0  0  0  0  0  0  0  0
  142.4230   77.1020  219.9330 C   0  0  0  0  0  0  0  0  0  0  0  0
  143.1756   77.2813  220.7149 H   0  0  0  0  0  0  0  0  0  0  0  0
  142.0839   76.0556  219.9244 H   0  0  0  0  0  0  0  0  0  0  0  0
  143.0610   77.3940  218.5590 C   0  0  0  0  0  0  0  0  0  0  0  0
  144.1490   77.2496  218.6320 H   0  0  0  0  0  0  0  0  0  0  0  0
  142.6236   76.7050  217.8215 H   0  0  0  0  0  0  0  0  0  0  0  0
  142.7900   78.7710  218.1220 N   0  0  0  0  0  0  0  0  0  0  0  0
  143.3130   78.9520  217.2320 H   0  0  0  0  0  0  0  0  0  0  0  0
  143.1440   79.4440  218.8410 H   0  0  0  0  0  0  0  0  0  0  0  0
  141.3520   79.0010  217.8810 C   0  0  0  0  0  0  0  0  0  0  0  0
  141.1603   80.0835  217.9200 H   0  0  0  0  0  0  0  0  0  0  0  0
  141.1145   78.5729  216.8960 H   0  0  0  0  0  0  0  0  0  0  0  0
  140.4380   78.3030  218.9160 C   0  0  0  0  0  0  0  0  0  0  0  0
  139.5884   78.9637  219.1432 H   0  0  0  0  0  0  0  0  0  0  0  0
  140.0952   77.3520  218.4822 H   0  0  0  0  0  0  0  0  0  0  0  0
  142.1210   80.8850  221.6700 C   0  0  0  0  0  0  0  0  0  0  0  0
  142.1880   80.7580  220.3130 N   0  0  0  0  0  0  0  0  0  0  0  0
  141.6720   81.6970  219.4750 C   0  0  0  0  0  0  0  0  0  0  0  0
  141.7440   81.5605  218.3859 H   0  0  0  0  0  0  0  0  0  0  0  0
  141.0510   82.8340  219.9960 C   0  0  0  0  0  0  0  0  0  0  0  0
  140.6266   83.5939  219.3234 H   0  0  0  0  0  0  0  0  0  0  0  0
  140.9750   82.9950  221.3820 C   0  0  0  0  0  0  0  0  0  0  0  0
  140.4966   83.8896  221.8072 H   0  0  0  0  0  0  0  0  0  0  0  0
  141.5070   82.0190  222.2260 C   0  0  0  0  0  0  0  0  0  0  0  0
  141.4458   82.1371  223.3179 H   0  0  0  0  0  0  0  0  0  0  0  0
  1  2  1  0
  2  3  2  0
  3  4  1  0
  3  5  1  0
  5  6  2  0
  6  7  1  0
  7  8  2  0
  8  9  1  0
  8 10  1  0
 10 11  1  0
 10 12  2  0
 12 13  1  0
 12 14  1  0
 14 15  1  0
 14 16  2  0
 16 17  1  0
 17 18  2  0
 17 19  1  0
 19 20  1  0
 20 21  1  0
 20 22  1  0
 20 23  1  0
 23 24  1  0
 23 25  1  0
 25 26  1  0
 25 27  1  0
 25 28  1  0
 28 29  1  0
 28 30  1  0
 28 31  1  0
 31 32  1  0
 31 33  1  0
 31 34  1  0
 34 35  1  0
 34 36  1  0
 34 37  1  0
 37 38  1  0
 37 39  1  0
  2 40  1  0
 40 41  2  0
 41 42  1  0
 42 43  1  0
 42 44  2  0
 44 45  1  0
 44 46  1  0
 46 47  1  0
 46 48  2  0
 48 49  1  0
 19  5  1  0
 37 23  1  0
 48 40  1  0
 16  7  1  0
M  CHG  1  31   1
M  END
>  <UniqueID>  (62) 
442

>  <SMILES>  (62) 
O=c1c2ccccc2nc(/C=C/c2ccccn2)n1CC1CC[NH2+]CC1

>  <Energy>  (62) 
67.7571269579274

>  <Genealogy>  (62) 
O=c1c2ccccc2nc(/C=C/c2ccccn2)n1CC1CC[NH2+]CC1 (protonated)
O=c1c2ccccc2nc(/C=C/c2ccccn2)n1CC1CC[NH2+]CC1 (cis-trans isomerization)
O=c1c2ccccc2nc(/C=C/c2ccccn2)n1CC1CC[NH2+]CC1 (3D coordinates assigned)
O=c1c2ccccc2nc(/C=C/c2ccccn2)n1CC1CC[NH2+]CC1 (nonaromatic ring conformer: 67.7571269579274 kcal/mol)

>  <smiles>  (62) 
O=c1c2ccccc2nc(/C=C/c2ccccn2)n1CC1CCNCC1

>  <score_type>  (62) 
oracle

>  <origin>  (62) 
autodockgpu

>  <m_score__min__energy>  (62) 
-7.5

>  <m_primary>  (62) 
energy

>  <meeko>  (62) 
{"free_energy": -6.34, "intermolecular_energy": -7.83, "internal_energy": -2.42, "cluster_size": 11, "cluster_id": 5, "rank_in_cluster": 3}

>  <energy>  (62) 
-7.39

>  <cluster_rmsd>  (62) 
0.0

>  <rmsd>  (62) 
272.77

>  <cluster>  (62) 
2

$$$$
BQTJSOOYCKASGQ-IDUMZPQDNA-O
     RDKit          3D

 49 52  0  0  0  0  0  0  0  0999 V2000
  138.7365   77.4612  223.5066 H   0  0  0  0  0  0  0  0  0  0  0  0
  139.4690   77.7460  222.7370 C   0  0  0  0  0  0  0  0  0  0  0  0
  139.4800   77.0740  221.5780 C   0  0  0  0  0  0  0  0  0  0  0  0
  138.5795   77.0728  220.9463 H   0  0  0  0  0  0  0  0  0  0  0  0
  140.6830   76.3320  221.1310 C   0  0  0  0  0  0  0  0  0  0  0  0
  140.7050   74.9900  221.3480 N   0  0  0  0  0  0  0  0  0  0  0  0
  141.7420   74.2160  220.9620 C   0  0  0  0  0  0  0  0  0  0  0  0
  141.7160   72.8370  221.2060 C   0  0  0  0  0  0  0  0  0  0  0  0
  140.8520   72.3845  221.7147 H   0  0  0  0  0  0  0  0  0  0  0  0
  142.7880   72.0360  220.8030 C   0  0  0  0  0  0  0  0  0  0  0  0
  142.7679   70.9534  220.9966 H   0  0  0  0  0  0  0  0  0  0  0  0
  143.8860   72.6090  220.1540 C   0  0  0  0  0  0  0  0  0  0  0  0
  144.7276   71.9757  219.8368 H   0  0  0  0  0  0  0  0  0  0  0  0
  143.9170   73.9860  219.9070 C   0  0  0  0  0  0  0  0  0  0  0  0
  144.7824   74.4332  219.3961 H   0  0  0  0  0  0  0  0  0  0  0  0
  142.8410   74.8000  220.3120 C   0  0  0  0  0  0  0  0  0  0  0  0
  142.8250   76.1890  220.0970 C   0  0  0  0  0  0  0  0  0  0  0  0
  143.8130   76.7370  219.5290 O   0  0  0  0  0  0  0  0  0  0  0  0
  141.7520   76.9480  220.5080 N   0  0  0  0  0  0  0  0  0  0  0  0
  141.8250   78.4210  220.3450 C   0  0  0  0  0  0  0  0  0  0  0  0
  140.8450   78.8561  220.5906 H   0  0  0  0  0  0  0  0  0  0  0  0
  142.6054   78.8029  221.0196 H   0  0  0  0  0  0  0  0  0  0  0  0
  142.2010   78.8170  218.8990 C   0  0  0  0  0  0  0  0  0  0  0  0
  143.2781   78.6282  218.7796 H   0  0  0  0  0  0  0  0  0  0  0  0
  141.4160   77.9550  217.8820 C   0  0  0  0  0  0  0  0  0  0  0  0
  141.9350   76.9924  217.7630 H   0  0  0  0  0  0  0  0  0  0  0  0
  140.3974   77.8241  218.2761 H   0  0  0  0  0  0  0  0  0  0  0  0
  141.2950   78.6240  216.4970 C   0  0  0  0  0  0  0  0  0  0  0  0
  141.3095   77.8444  215.7211 H   0  0  0  0  0  0  0  0  0  0  0  0
  140.3512   79.1883  216.4677 H   0  0  0  0  0  0  0  0  0  0  0  0
  142.4000   79.5610  216.2530 N   0  0  0  0  0  0  0  0  0  0  0  0
  142.3260   79.9230  215.2730 H   0  0  0  0  0  0  0  0  0  0  0  0
  143.3130   79.0570  216.3380 H   0  0  0  0  0  0  0  0  0  0  0  0
  142.3680   80.7060  217.1840 C   0  0  0  0  0  0  0  0  0  0  0  0
  143.3697   81.1595  217.2137 H   0  0  0  0  0  0  0  0  0  0  0  0
  141.6058   81.4064  216.8118 H   0  0  0  0  0  0  0  0  0  0  0  0
  141.9640   80.3140  218.6250 C   0  0  0  0  0  0  0  0  0  0  0  0
  142.5611   80.9047  219.3352 H   0  0  0  0  0  0  0  0  0  0  0  0
  140.8898   80.5176  218.7460 H   0  0  0  0  0  0  0  0  0  0  0  0
  140.4030   78.8550  223.0210 C   0  0  0  0  0  0  0  0  0  0  0  0
  141.6770   78.6060  223.4430 N   0  0  0  0  0  0  0  0  0  0  0  0
  142.5620   79.6080  223.6910 C   0  0  0  0  0  0  0  0  0  0  0  0
  143.5813   79.3698  224.0290 H   0  0  0  0  0  0  0  0  0  0  0  0
  142.1780   80.9390  223.5170 C   0  0  0  0  0  0  0  0  0  0  0  0
  142.8912   81.7537  223.7109 H   0  0  0  0  0  0  0  0  0  0  0  0
  140.8780   81.2240  223.0940 C   0  0  0  0  0  0  0  0  0  0  0  0
  140.5587   82.2682  222.9610 H   0  0  0  0  0  0  0  0  0  0  0  0
  139.9840   80.1820  222.8400 C   0  0  0  0  0  0  0  0  0  0  0  0
  138.9603   80.3993  222.5010 H   0  0  0  0  0  0  0  0  0  0  0  0
  1  2  1  0
  2  3  2  0
  3  4  1  0
  3  5  1  0
  5  6  2  0
  6  7  1  0
  7  8  2  0
  8  9  1  0
  8 10  1  0
 10 11  1  0
 10 12  2  0
 12 13  1  0
 12 14  1  0
 14 15  1  0
 14 16  2  0
 16 17  1  0
 17 18  2  0
 17 19  1  0
 19 20  1  0
 20 21  1  0
 20 22  1  0
 20 23  1  0
 23 24  1  0
 23 25  1  0
 25 26  1  0
 25 27  1  0
 25 28  1  0
 28 29  1  0
 28 30  1  0
 28 31  1  0
 31 32  1  0
 31 33  1  0
 31 34  1  0
 34 35  1  0
 34 36  1  0
 34 37  1  0
 37 38  1  0
 37 39  1  0
  2 40  1  0
 40 41  2  0
 41 42  1  0
 42 43  1  0
 42 44  2  0
 44 45  1  0
 44 46  1  0
 46 47  1  0
 46 48  2  0
 48 49  1  0
 19  5  1  0
 37 23  1  0
 48 40  1  0
 16  7  1  0
M  CHG  1  31   1
M  END
>  <UniqueID>  (63) 
442

>  <SMILES>  (63) 
O=c1c2ccccc2nc(/C=C/c2ccccn2)n1CC1CC[NH2+]CC1

>  <Energy>  (63) 
67.7571269579274

>  <Genealogy>  (63) 
O=c1c2ccccc2nc(/C=C/c2ccccn2)n1CC1CC[NH2+]CC1 (protonated)
O=c1c2ccccc2nc(/C=C/c2ccccn2)n1CC1CC[NH2+]CC1 (cis-trans isomerization)
O=c1c2ccccc2nc(/C=C/c2ccccn2)n1CC1CC[NH2+]CC1 (3D coordinates assigned)
O=c1c2ccccc2nc(/C=C/c2ccccn2)n1CC1CC[NH2+]CC1 (nonaromatic ring conformer: 67.7571269579274 kcal/mol)

>  <smiles>  (63) 
O=c1c2ccccc2nc(/C=C/c2ccccn2)n1CC1CCNCC1

>  <score_type>  (63) 
oracle

>  <origin>  (63) 
autodockgpu

>  <m_score__min__energy>  (63) 
-7.5

>  <m_primary>  (63) 
energy

>  <meeko>  (63) 
{"free_energy": -7.28, "intermolecular_energy": -8.77, "internal_energy": -1.21, "cluster_size": 4, "cluster_id": 2, "rank_in_cluster": 4}

>  <energy>  (63) 
-7.38

>  <cluster_rmsd>  (63) 
0.03

>  <rmsd>  (63) 
272.77

>  <cluster>  (63) 
2

$$$$
BQTJSOOYCKASGQ-IDUMZPQDNA-O
     RDKit          3D

 49 52  0  0  0  0  0  0  0  0999 V2000
  143.7451   79.7750  222.7514 H   0  0  0  0  0  0  0  0  0  0  0  0
  142.6580   79.8250  222.5910 C   0  0  0  0  0  0  0  0  0  0  0  0
  141.8760   78.9170  223.1910 C   0  0  0  0  0  0  0  0  0  0  0  0
  142.3385   78.0863  223.7441 H   0  0  0  0  0  0  0  0  0  0  0  0
  140.3980   79.0130  223.1220 C   0  0  0  0  0  0  0  0  0  0  0  0
  139.7840   79.8350  224.0140 N   0  0  0  0  0  0  0  0  0  0  0  0
  138.4450   80.0120  224.0250 C   0  0  0  0  0  0  0  0  0  0  0  0
  137.8590   80.8720  224.9630 C   0  0  0  0  0  0  0  0  0  0  0  0
  138.4891   81.4009  225.6932 H   0  0  0  0  0  0  0  0  0  0  0  0
  136.4740   81.0580  224.9710 C   0  0  0  0  0  0  0  0  0  0  0  0
  136.0144   81.7317  225.7092 H   0  0  0  0  0  0  0  0  0  0  0  0
  135.6720   80.3890  224.0420 C   0  0  0  0  0  0  0  0  0  0  0  0
  134.5822   80.5385  224.0501 H   0  0  0  0  0  0  0  0  0  0  0  0
  136.2510   79.5300  223.1020 C   0  0  0  0  0  0  0  0  0  0  0  0
  135.6164   79.0056  222.3724 H   0  0  0  0  0  0  0  0  0  0  0  0
  137.6460   79.3360  223.0890 C   0  0  0  0  0  0  0  0  0  0  0  0
  138.2790   78.4770  222.1720 C   0  0  0  0  0  0  0  0  0  0  0  0
  137.5760   77.8450  221.3330 O   0  0  0  0  0  0  0  0  0  0  0  0
  139.6470   78.3170  222.1930 N   0  0  0  0  0  0  0  0  0  0  0  0
  140.2560   77.3280  221.2710 C   0  0  0  0  0  0  0  0  0  0  0  0
  140.8464   76.6092  221.8582 H   0  0  0  0  0  0  0  0  0  0  0  0
  139.4455   76.8203  220.7276 H   0  0  0  0  0  0  0  0  0  0  0  0
  141.1800   78.0080  220.2350 C   0  0  0  0  0  0  0  0  0  0  0  0
  141.5128   78.9609  220.6723 H   0  0  0  0  0  0  0  0  0  0  0  0
  142.4140   77.1200  219.9470 C   0  0  0  0  0  0  0  0  0  0  0  0
  143.1605   77.2892  220.7370 H   0  0  0  0  0  0  0  0  0  0  0  0
  142.0714   76.0749  219.9253 H   0  0  0  0  0  0  0  0  0  0  0  0
  143.0650   77.4230  218.5810 C   0  0  0  0  0  0  0  0  0  0  0  0
  144.1519   77.2746  218.6620 H   0  0  0  0  0  0  0  0  0  0  0  0
  142.6321   76.7423  217.8332 H   0  0  0  0  0  0  0  0  0  0  0  0
  142.8020   78.8040  218.1550 N   0  0  0  0  0  0  0  0  0  0  0  0
  143.3330   78.9920  217.2700 H   0  0  0  0  0  0  0  0  0  0  0  0
  143.1520   79.4690  218.8830 H   0  0  0  0  0  0  0  0  0  0  0  0
  141.3670   79.0410  217.9040 C   0  0  0  0  0  0  0  0  0  0  0  0
  141.1786   80.1237  217.9514 H   0  0  0  0  0  0  0  0  0  0  0  0
  141.1366   78.6226  216.9131 H   0  0  0  0  0  0  0  0  0  0  0  0
  140.4420   78.3370  218.9240 C   0  0  0  0  0  0  0  0  0  0  0  0
  139.5928   78.9986  219.1501 H   0  0  0  0  0  0  0  0  0  0  0  0
  140.0995   77.3914  218.4784 H   0  0  0  0  0  0  0  0  0  0  0  0
  142.1170   80.8900  221.7230 C   0  0  0  0  0  0  0  0  0  0  0  0
  142.1990   80.7940  220.3650 N   0  0  0  0  0  0  0  0  0  0  0  0
  141.6910   81.7510  219.5430 C   0  0  0  0  0  0  0  0  0  0  0  0
  141.7749   81.6394  218.4519 H   0  0  0  0  0  0  0  0  0  0  0  0
  141.0630   82.8750  220.0830 C   0  0  0  0  0  0  0  0  0  0  0  0
  140.6447   83.6493  219.4231 H   0  0  0  0  0  0  0  0  0  0  0  0
  140.9720   83.0050  221.4700 C   0  0  0  0  0  0  0  0  0  0  0  0
  140.4884   83.8896  221.9099 H   0  0  0  0  0  0  0  0  0  0  0  0
  141.4960   82.0100  222.2980 C   0  0  0  0  0  0  0  0  0  0  0  0
  141.4228   82.1031  223.3916 H   0  0  0  0  0  0  0  0  0  0  0  0
  1  2  1  0
  2  3  2  0
  3  4  1  0
  3  5  1  0
  5  6  2  0
  6  7  1  0
  7  8  2  0
  8  9  1  0
  8 10  1  0
 10 11  1  0
 10 12  2  0
 12 13  1  0
 12 14  1  0
 14 15  1  0
 14 16  2  0
 16 17  1  0
 17 18  2  0
 17 19  1  0
 19 20  1  0
 20 21  1  0
 20 22  1  0
 20 23  1  0
 23 24  1  0
 23 25  1  0
 25 26  1  0
 25 27  1  0
 25 28  1  0
 28 29  1  0
 28 30  1  0
 28 31  1  0
 31 32  1  0
 31 33  1  0
 31 34  1  0
 34 35  1  0
 34 36  1  0
 34 37  1  0
 37 38  1  0
 37 39  1  0
  2 40  1  0
 40 41  2  0
 41 42  1  0
 42 43  1  0
 42 44  2  0
 44 45  1  0
 44 46  1  0
 46 47  1  0
 46 48  2  0
 48 49  1  0
 19  5  1  0
 37 23  1  0
 48 40  1  0
 16  7  1  0
M  CHG  1  31   1
M  END
>  <UniqueID>  (64) 
442

>  <SMILES>  (64) 
O=c1c2ccccc2nc(/C=C/c2ccccn2)n1CC1CC[NH2+]CC1

>  <Energy>  (64) 
67.7571269579274

>  <Genealogy>  (64) 
O=c1c2ccccc2nc(/C=C/c2ccccn2)n1CC1CC[NH2+]CC1 (protonated)
O=c1c2ccccc2nc(/C=C/c2ccccn2)n1CC1CC[NH2+]CC1 (cis-trans isomerization)
O=c1c2ccccc2nc(/C=C/c2ccccn2)n1CC1CC[NH2+]CC1 (3D coordinates assigned)
O=c1c2ccccc2nc(/C=C/c2ccccn2)n1CC1CC[NH2+]CC1 (nonaromatic ring conformer: 67.7571269579274 kcal/mol)

>  <smiles>  (64) 
O=c1c2ccccc2nc(/C=C/c2ccccn2)n1CC1CCNCC1

>  <score_type>  (64) 
oracle

>  <origin>  (64) 
autodockgpu

>  <m_score__min__energy>  (64) 
-7.5

>  <m_primary>  (64) 
energy

>  <meeko>  (64) 
{"free_energy": -6.33, "intermolecular_energy": -7.82, "internal_energy": -2.43, "cluster_size": 11, "cluster_id": 5, "rank_in_cluster": 5}

>  <energy>  (64) 
-7.35

>  <cluster_rmsd>  (64) 
0.08

>  <rmsd>  (64) 
272.73

>  <cluster>  (64) 
2

$$$$
BQTJSOOYCKASGQ-IDUMZPQDNA-O
     RDKit          3D

 49 52  0  0  0  0  0  0  0  0999 V2000
  136.3070   68.5250  221.6347 H   0  0  0  0  0  0  0  0  0  0  0  0
  136.6730   68.5310  222.6720 C   0  0  0  0  0  0  0  0  0  0  0  0
  137.9280   68.1310  222.9140 C   0  0  0  0  0  0  0  0  0  0  0  0
  138.3457   67.2877  222.3445 H   0  0  0  0  0  0  0  0  0  0  0  0
  138.7640   68.8050  223.9360 C   0  0  0  0  0  0  0  0  0  0  0  0
  138.8140   68.2410  225.1720 N   0  0  0  0  0  0  0  0  0  0  0  0
  139.5610   68.7610  226.1700 C   0  0  0  0  0  0  0  0  0  0  0  0
  139.5820   68.1420  227.4260 C   0  0  0  0  0  0  0  0  0  0  0  0
  138.9873   67.2333  227.6010 H   0  0  0  0  0  0  0  0  0  0  0  0
  140.3580   68.6780  228.4570 C   0  0  0  0  0  0  0  0  0  0  0  0
  140.3717   68.1921  229.4438 H   0  0  0  0  0  0  0  0  0  0  0  0
  141.1170   69.8310  228.2360 C   0  0  0  0  0  0  0  0  0  0  0  0
  141.7290   70.2492  229.0487 H   0  0  0  0  0  0  0  0  0  0  0  0
  141.1000   70.4540  226.9840 C   0  0  0  0  0  0  0  0  0  0  0  0
  141.6967   71.3624  226.8144 H   0  0  0  0  0  0  0  0  0  0  0  0
  140.3200   69.9200  225.9400 C   0  0  0  0  0  0  0  0  0  0  0  0
  140.2600   70.5120  224.6660 C   0  0  0  0  0  0  0  0  0  0  0  0
  140.9210   71.5660  224.4430 O   0  0  0  0  0  0  0  0  0  0  0  0
  139.4840   69.9560  223.6720 N   0  0  0  0  0  0  0  0  0  0  0  0
  139.3790   70.6690  222.3760 C   0  0  0  0  0  0  0  0  0  0  0  0
  140.3913   70.8532  221.9871 H   0  0  0  0  0  0  0  0  0  0  0  0
  138.8000   70.0400  221.6838 H   0  0  0  0  0  0  0  0  0  0  0  0
  138.6460   72.0220  222.5270 C   0  0  0  0  0  0  0  0  0  0  0  0
  138.4641   72.1759  223.6009 H   0  0  0  0  0  0  0  0  0  0  0  0
  139.5260   73.1750  221.9880 C   0  0  0  0  0  0  0  0  0  0  0  0
  140.2424   73.4656  222.7706 H   0  0  0  0  0  0  0  0  0  0  0  0
  140.0348   72.8083  221.0843 H   0  0  0  0  0  0  0  0  0  0  0  0
  138.7040   74.4180  221.5860 C   0  0  0  0  0  0  0  0  0  0  0  0
  139.2964   75.3212  221.7941 H   0  0  0  0  0  0  0  0  0  0  0  0
  138.4672   74.3441  220.5143 H   0  0  0  0  0  0  0  0  0  0  0  0
  137.4410   74.4920  222.3340 N   0  0  0  0  0  0  0  0  0  0  0  0
  136.9590   75.3920  222.0950 H   0  0  0  0  0  0  0  0  0  0  0  0
  137.6400   74.5010  223.3610 H   0  0  0  0  0  0  0  0  0  0  0  0
  136.5380   73.3710  222.0050 C   0  0  0  0  0  0  0  0  0  0  0  0
  135.8058   73.2622  222.8186 H   0  0  0  0  0  0  0  0  0  0  0  0
  136.0581   73.6104  221.0446 H   0  0  0  0  0  0  0  0  0  0  0  0
  137.2760   72.0230  221.8250 C   0  0  0  0  0  0  0  0  0  0  0  0
  136.6575   71.2191  222.2505 H   0  0  0  0  0  0  0  0  0  0  0  0
  137.4434   71.8663  220.7492 H   0  0  0  0  0  0  0  0  0  0  0  0
  135.7610   68.9800  223.7440 C   0  0  0  0  0  0  0  0  0  0  0  0
  134.8020   68.1470  224.2410 N   0  0  0  0  0  0  0  0  0  0  0  0
  133.9640   68.5280  225.2410 C   0  0  0  0  0  0  0  0  0  0  0  0
  133.2026   67.8285  225.6165 H   0  0  0  0  0  0  0  0  0  0  0  0
  134.0690   69.8070  225.7920 C   0  0  0  0  0  0  0  0  0  0  0  0
  133.3982   70.1192  226.6060 H   0  0  0  0  0  0  0  0  0  0  0  0
  135.0360   70.6850  225.2970 C   0  0  0  0  0  0  0  0  0  0  0  0
  135.1245   71.6989  225.7143 H   0  0  0  0  0  0  0  0  0  0  0  0
  135.8900   70.2740  224.2720 C   0  0  0  0  0  0  0  0  0  0  0  0
  136.6575   70.9585  223.8815 H   0  0  0  0  0  0  0  0  0  0  0  0
  1  2  1  0
  2  3  2  0
  3  4  1  0
  3  5  1  0
  5  6  2  0
  6  7  1  0
  7  8  2  0
  8  9  1  0
  8 10  1  0
 10 11  1  0
 10 12  2  0
 12 13  1  0
 12 14  1  0
 14 15  1  0
 14 16  2  0
 16 17  1  0
 17 18  2  0
 17 19  1  0
 19 20  1  0
 20 21  1  0
 20 22  1  0
 20 23  1  0
 23 24  1  0
 23 25  1  0
 25 26  1  0
 25 27  1  0
 25 28  1  0
 28 29  1  0
 28 30  1  0
 28 31  1  0
 31 32  1  0
 31 33  1  0
 31 34  1  0
 34 35  1  0
 34 36  1  0
 34 37  1  0
 37 38  1  0
 37 39  1  0
  2 40  1  0
 40 41  2  0
 41 42  1  0
 42 43  1  0
 42 44  2  0
 44 45  1  0
 44 46  1  0
 46 47  1  0
 46 48  2  0
 48 49  1  0
 19  5  1  0
 37 23  1  0
 48 40  1  0
 16  7  1  0
M  CHG  1  31   1
M  END
>  <UniqueID>  (65) 
442

>  <SMILES>  (65) 
O=c1c2ccccc2nc(/C=C/c2ccccn2)n1CC1CC[NH2+]CC1

>  <Energy>  (65) 
67.7571269579274

>  <Genealogy>  (65) 
O=c1c2ccccc2nc(/C=C/c2ccccn2)n1CC1CC[NH2+]CC1 (protonated)
O=c1c2ccccc2nc(/C=C/c2ccccn2)n1CC1CC[NH2+]CC1 (cis-trans isomerization)
O=c1c2ccccc2nc(/C=C/c2ccccn2)n1CC1CC[NH2+]CC1 (3D coordinates assigned)
O=c1c2ccccc2nc(/C=C/c2ccccn2)n1CC1CC[NH2+]CC1 (nonaromatic ring conformer: 67.7571269579274 kcal/mol)

>  <smiles>  (65) 
O=c1c2ccccc2nc(/C=C/c2ccccn2)n1CC1CCNCC1

>  <score_type>  (65) 
oracle

>  <origin>  (65) 
autodockgpu

>  <m_score__min__energy>  (65) 
-7.5

>  <m_primary>  (65) 
energy

>  <meeko>  (65) 
{"free_energy": -7.07, "intermolecular_energy": -8.56, "internal_energy": -1.5, "cluster_size": 2, "cluster_id": 4, "rank_in_cluster": 1}

>  <energy>  (65) 
-7.28

>  <cluster_rmsd>  (65) 
0.53

>  <rmsd>  (65) 
272.74

>  <cluster>  (65) 
2

$$$$
BQTJSOOYCKASGQ-IDUMZPQDNA-O
     RDKit          3D

 49 52  0  0  0  0  0  0  0  0999 V2000
  143.7471   79.8777  222.7442 H   0  0  0  0  0  0  0  0  0  0  0  0
  142.6640   79.8800  222.5520 C   0  0  0  0  0  0  0  0  0  0  0  0
  141.9020   78.9510  223.1460 C   0  0  0  0  0  0  0  0  0  0  0  0
  142.3830   78.1183  223.6800 H   0  0  0  0  0  0  0  0  0  0  0  0
  140.4230   79.0260  223.0960 C   0  0  0  0  0  0  0  0  0  0  0  0
  139.8090   79.8540  223.9820 N   0  0  0  0  0  0  0  0  0  0  0  0
  138.4680   80.0130  224.0080 C   0  0  0  0  0  0  0  0  0  0  0  0
  137.8830   80.8820  224.9390 C   0  0  0  0  0  0  0  0  0  0  0  0
  138.5160   81.4328  225.6503 H   0  0  0  0  0  0  0  0  0  0  0  0
  136.4960   81.0490  224.9640 C   0  0  0  0  0  0  0  0  0  0  0  0
  136.0374   81.7287  225.6972 H   0  0  0  0  0  0  0  0  0  0  0  0
  135.6910   80.3530  224.0580 C   0  0  0  0  0  0  0  0  0  0  0  0
  134.5995   80.4880  224.0784 H   0  0  0  0  0  0  0  0  0  0  0  0
  136.2690   79.4850  223.1250 C   0  0  0  0  0  0  0  0  0  0  0  0
  135.6315   78.9387  222.4143 H   0  0  0  0  0  0  0  0  0  0  0  0
  137.6670   79.3100  223.0950 C   0  0  0  0  0  0  0  0  0  0  0  0
  138.2980   78.4440  222.1850 C   0  0  0  0  0  0  0  0  0  0  0  0
  137.5930   77.7880  221.3670 O   0  0  0  0  0  0  0  0  0  0  0  0
  139.6690   78.3040  222.1900 N   0  0  0  0  0  0  0  0  0  0  0  0
  140.2790   77.3070  221.2760 C   0  0  0  0  0  0  0  0  0  0  0  0
  140.8793   76.6006  221.8681 H   0  0  0  0  0  0  0  0  0  0  0  0
  139.4683   76.7861  220.7455 H   0  0  0  0  0  0  0  0  0  0  0  0
  141.1900   77.9800  220.2240 C   0  0  0  0  0  0  0  0  0  0  0  0
  141.5147   78.9440  220.6427 H   0  0  0  0  0  0  0  0  0  0  0  0
  142.4320   77.1010  219.9450 C   0  0  0  0  0  0  0  0  0  0  0  0
  143.1802   77.2913  220.7285 H   0  0  0  0  0  0  0  0  0  0  0  0
  142.1011   76.0520  219.9424 H   0  0  0  0  0  0  0  0  0  0  0  0
  143.0730   77.3890  218.5710 C   0  0  0  0  0  0  0  0  0  0  0  0
  144.1620   77.2547  218.6495 H   0  0  0  0  0  0  0  0  0  0  0  0
  142.6441   76.6909  217.8371 H   0  0  0  0  0  0  0  0  0  0  0  0
  142.7920   78.7600  218.1220 N   0  0  0  0  0  0  0  0  0  0  0  0
  143.3160   78.9390  217.2330 H   0  0  0  0  0  0  0  0  0  0  0  0
  143.1380   79.4410  218.8380 H   0  0  0  0  0  0  0  0  0  0  0  0
  141.3530   78.9760  217.8750 C   0  0  0  0  0  0  0  0  0  0  0  0
  141.1522   80.0571  217.9055 H   0  0  0  0  0  0  0  0  0  0  0  0
  141.1224   78.5384  216.8925 H   0  0  0  0  0  0  0  0  0  0  0  0
  140.4410   78.2780  218.9120 C   0  0  0  0  0  0  0  0  0  0  0  0
  139.5852   78.9333  219.1316 H   0  0  0  0  0  0  0  0  0  0  0  0
  140.1071   77.3212  218.4842 H   0  0  0  0  0  0  0  0  0  0  0  0
  142.1050   80.9070  221.6490 C   0  0  0  0  0  0  0  0  0  0  0  0
  142.1950   80.7700  220.2940 N   0  0  0  0  0  0  0  0  0  0  0  0
  141.6710   81.6900  219.4410 C   0  0  0  0  0  0  0  0  0  0  0  0
  141.7617   81.5461  218.3542 H   0  0  0  0  0  0  0  0  0  0  0  0
  141.0180   82.8170  219.9430 C   0  0  0  0  0  0  0  0  0  0  0  0
  140.5872   83.5618  219.2576 H   0  0  0  0  0  0  0  0  0  0  0  0
  140.9180   82.9880  221.3250 C   0  0  0  0  0  0  0  0  0  0  0  0
  140.4137   83.8754  221.7351 H   0  0  0  0  0  0  0  0  0  0  0  0
  141.4590   82.0310  222.1860 C   0  0  0  0  0  0  0  0  0  0  0  0
  141.3795   82.1571  223.2758 H   0  0  0  0  0  0  0  0  0  0  0  0
  1  2  1  0
  2  3  2  0
  3  4  1  0
  3  5  1  0
  5  6  2  0
  6  7  1  0
  7  8  2  0
  8  9  1  0
  8 10  1  0
 10 11  1  0
 10 12  2  0
 12 13  1  0
 12 14  1  0
 14 15  1  0
 14 16  2  0
 16 17  1  0
 17 18  2  0
 17 19  1  0
 19 20  1  0
 20 21  1  0
 20 22  1  0
 20 23  1  0
 23 24  1  0
 23 25  1  0
 25 26  1  0
 25 27  1  0
 25 28  1  0
 28 29  1  0
 28 30  1  0
 28 31  1  0
 31 32  1  0
 31 33  1  0
 31 34  1  0
 34 35  1  0
 34 36  1  0
 34 37  1  0
 37 38  1  0
 37 39  1  0
  2 40  1  0
 40 41  2  0
 41 42  1  0
 42 43  1  0
 42 44  2  0
 44 45  1  0
 44 46  1  0
 46 47  1  0
 46 48  2  0
 48 49  1  0
 19  5  1  0
 37 23  1  0
 48 40  1  0
 16  7  1  0
M  CHG  1  31   1
M  END
>  <UniqueID>  (66) 
442

>  <SMILES>  (66) 
O=c1c2ccccc2nc(/C=C/c2ccccn2)n1CC1CC[NH2+]CC1

>  <Energy>  (66) 
67.7571269579274

>  <Genealogy>  (66) 
O=c1c2ccccc2nc(/C=C/c2ccccn2)n1CC1CC[NH2+]CC1 (protonated)
O=c1c2ccccc2nc(/C=C/c2ccccn2)n1CC1CC[NH2+]CC1 (cis-trans isomerization)
O=c1c2ccccc2nc(/C=C/c2ccccn2)n1CC1CC[NH2+]CC1 (3D coordinates assigned)
O=c1c2ccccc2nc(/C=C/c2ccccn2)n1CC1CC[NH2+]CC1 (nonaromatic ring conformer: 67.7571269579274 kcal/mol)

>  <smiles>  (66) 
O=c1c2ccccc2nc(/C=C/c2ccccn2)n1CC1CCNCC1

>  <score_type>  (66) 
oracle

>  <origin>  (66) 
autodockgpu

>  <m_score__min__energy>  (66) 
-7.5

>  <m_primary>  (66) 
energy

>  <meeko>  (66) 
{"free_energy": -6.33, "intermolecular_energy": -7.82, "internal_energy": -2.42, "cluster_size": 11, "cluster_id": 5, "rank_in_cluster": 6}

>  <energy>  (66) 
-7.34

>  <cluster_rmsd>  (66) 
0.0

>  <rmsd>  (66) 
272.74

>  <cluster>  (66) 
3

$$$$
BQTJSOOYCKASGQ-IDUMZPQDNA-O
     RDKit          3D

 49 52  0  0  0  0  0  0  0  0999 V2000
  143.7387   79.7491  222.7485 H   0  0  0  0  0  0  0  0  0  0  0  0
  142.6550   79.7840  222.5630 C   0  0  0  0  0  0  0  0  0  0  0  0
  141.8710   78.8690  223.1500 C   0  0  0  0  0  0  0  0  0  0  0  0
  142.3321   78.0237  223.6819 H   0  0  0  0  0  0  0  0  0  0  0  0
  140.3940   78.9760  223.0950 C   0  0  0  0  0  0  0  0  0  0  0  0
  139.7940   79.8050  223.9910 N   0  0  0  0  0  0  0  0  0  0  0  0
  138.4570   79.9920  224.0140 C   0  0  0  0  0  0  0  0  0  0  0  0
  137.8870   80.8590  224.9550 C   0  0  0  0  0  0  0  0  0  0  0  0
  138.5284   81.3849  225.6775 H   0  0  0  0  0  0  0  0  0  0  0  0
  136.5030   81.0560  224.9760 C   0  0  0  0  0  0  0  0  0  0  0  0
  136.0560   81.7353  225.7168 H   0  0  0  0  0  0  0  0  0  0  0  0
  135.6870   80.3910  224.0570 C   0  0  0  0  0  0  0  0  0  0  0  0
  134.5985   80.5488  224.0751 H   0  0  0  0  0  0  0  0  0  0  0  0
  136.2510   79.5250  223.1140 C   0  0  0  0  0  0  0  0  0  0  0  0
  135.6052   79.0033  222.3923 H   0  0  0  0  0  0  0  0  0  0  0  0
  137.6440   79.3200  223.0870 C   0  0  0  0  0  0  0  0  0  0  0  0
  138.2610   78.4540  222.1670 C   0  0  0  0  0  0  0  0  0  0  0  0
  137.5460   77.8250  221.3360 O   0  0  0  0  0  0  0  0  0  0  0  0
  139.6280   78.2840  222.1750 N   0  0  0  0  0  0  0  0  0  0  0  0
  140.2210   77.2880  221.2500 C   0  0  0  0  0  0  0  0  0  0  0  0
  140.8028   76.5603  221.8348 H   0  0  0  0  0  0  0  0  0  0  0  0
  139.4019   76.7928  220.7079 H   0  0  0  0  0  0  0  0  0  0  0  0
  141.1520   77.9560  220.2120 C   0  0  0  0  0  0  0  0  0  0  0  0
  141.4833   78.9131  220.6411 H   0  0  0  0  0  0  0  0  0  0  0  0
  142.3870   77.0630  219.9410 C   0  0  0  0  0  0  0  0  0  0  0  0
  143.1289   77.2393  220.7338 H   0  0  0  0  0  0  0  0  0  0  0  0
  142.0437   76.0180  219.9283 H   0  0  0  0  0  0  0  0  0  0  0  0
  143.0460   77.3520  218.5760 C   0  0  0  0  0  0  0  0  0  0  0  0
  144.1321   77.2017  218.6644 H   0  0  0  0  0  0  0  0  0  0  0  0
  142.6150   76.6655  217.8324 H   0  0  0  0  0  0  0  0  0  0  0  0
  142.7890   78.7300  218.1350 N   0  0  0  0  0  0  0  0  0  0  0  0
  143.3250   78.9080  217.2520 H   0  0  0  0  0  0  0  0  0  0  0  0
  143.1350   79.4010  218.8590 H   0  0  0  0  0  0  0  0  0  0  0  0
  141.3550   78.9660  217.8730 C   0  0  0  0  0  0  0  0  0  0  0  0
  141.1675   80.0493  217.9088 H   0  0  0  0  0  0  0  0  0  0  0  0
  141.1302   78.5381  216.8849 H   0  0  0  0  0  0  0  0  0  0  0  0
  140.4230   78.2730  218.8940 C   0  0  0  0  0  0  0  0  0  0  0  0
  139.5732   78.9377  219.1084 H   0  0  0  0  0  0  0  0  0  0  0  0
  140.0823   77.3235  218.4555 H   0  0  0  0  0  0  0  0  0  0  0  0
  142.1200   80.8370  221.6770 C   0  0  0  0  0  0  0  0  0  0  0  0
  142.2020   80.7180  220.3200 N   0  0  0  0  0  0  0  0  0  0  0  0
  141.6990   81.6630  219.4820 C   0  0  0  0  0  0  0  0  0  0  0  0
  141.7824   81.5321  218.3930 H   0  0  0  0  0  0  0  0  0  0  0  0
  141.0770   82.7990  220.0020 C   0  0  0  0  0  0  0  0  0  0  0  0
  140.6641   83.5648  219.3289 H   0  0  0  0  0  0  0  0  0  0  0  0
  140.9850   82.9520  221.3870 C   0  0  0  0  0  0  0  0  0  0  0  0
  140.5040   83.8456  221.8115 H   0  0  0  0  0  0  0  0  0  0  0  0
  141.5040   81.9700  222.2320 C   0  0  0  0  0  0  0  0  0  0  0  0
  141.4310   82.0828  223.3238 H   0  0  0  0  0  0  0  0  0  0  0  0
  1  2  1  0
  2  3  2  0
  3  4  1  0
  3  5  1  0
  5  6  2  0
  6  7  1  0
  7  8  2  0
  8  9  1  0
  8 10  1  0
 10 11  1  0
 10 12  2  0
 12 13  1  0
 12 14  1  0
 14 15  1  0
 14 16  2  0
 16 17  1  0
 17 18  2  0
 17 19  1  0
 19 20  1  0
 20 21  1  0
 20 22  1  0
 20 23  1  0
 23 24  1  0
 23 25  1  0
 25 26  1  0
 25 27  1  0
 25 28  1  0
 28 29  1  0
 28 30  1  0
 28 31  1  0
 31 32  1  0
 31 33  1  0
 31 34  1  0
 34 35  1  0
 34 36  1  0
 34 37  1  0
 37 38  1  0
 37 39  1  0
  2 40  1  0
 40 41  2  0
 41 42  1  0
 42 43  1  0
 42 44  2  0
 44 45  1  0
 44 46  1  0
 46 47  1  0
 46 48  2  0
 48 49  1  0
 19  5  1  0
 37 23  1  0
 48 40  1  0
 16  7  1  0
M  CHG  1  31   1
M  END
>  <UniqueID>  (67) 
442

>  <SMILES>  (67) 
O=c1c2ccccc2nc(/C=C/c2ccccn2)n1CC1CC[NH2+]CC1

>  <Energy>  (67) 
67.7571269579274

>  <Genealogy>  (67) 
O=c1c2ccccc2nc(/C=C/c2ccccn2)n1CC1CC[NH2+]CC1 (protonated)
O=c1c2ccccc2nc(/C=C/c2ccccn2)n1CC1CC[NH2+]CC1 (cis-trans isomerization)
O=c1c2ccccc2nc(/C=C/c2ccccn2)n1CC1CC[NH2+]CC1 (3D coordinates assigned)
O=c1c2ccccc2nc(/C=C/c2ccccn2)n1CC1CC[NH2+]CC1 (nonaromatic ring conformer: 67.7571269579274 kcal/mol)

>  <smiles>  (67) 
O=c1c2ccccc2nc(/C=C/c2ccccn2)n1CC1CCNCC1

>  <score_type>  (67) 
oracle

>  <origin>  (67) 
autodockgpu

>  <m_score__min__energy>  (67) 
-7.5

>  <m_primary>  (67) 
energy

>  <meeko>  (67) 
{"free_energy": -6.32, "intermolecular_energy": -7.81, "internal_energy": -2.43, "cluster_size": 11, "cluster_id": 5, "rank_in_cluster": 11}

>  <energy>  (67) 
-7.07

>  <cluster_rmsd>  (67) 
0.0

>  <rmsd>  (67) 
272.26

>  <cluster>  (67) 
4

$$$$
BQTJSOOYCKASGQ-IDUMZPQDNA-O
     RDKit          3D

 49 52  0  0  0  0  0  0  0  0999 V2000
  136.1872   68.1718  221.5594 H   0  0  0  0  0  0  0  0  0  0  0  0
  136.6410   68.3730  222.5410 C   0  0  0  0  0  0  0  0  0  0  0  0
  137.9410   68.0980  222.7190 C   0  0  0  0  0  0  0  0  0  0  0  0
  138.4245   67.3399  222.0853 H   0  0  0  0  0  0  0  0  0  0  0  0
  138.7380   68.7970  223.7540 C   0  0  0  0  0  0  0  0  0  0  0  0
  138.8120   68.2190  224.9820 N   0  0  0  0  0  0  0  0  0  0  0  0
  139.5290   68.7610  225.9900 C   0  0  0  0  0  0  0  0  0  0  0  0
  139.5760   68.1240  227.2380 C   0  0  0  0  0  0  0  0  0  0  0  0
  139.0265   67.1845  227.3973 H   0  0  0  0  0  0  0  0  0  0  0  0
  140.3210   68.6830  228.2790 C   0  0  0  0  0  0  0  0  0  0  0  0
  140.3562   68.1838  229.2586 H   0  0  0  0  0  0  0  0  0  0  0  0
  141.0220   69.8760  228.0780 C   0  0  0  0  0  0  0  0  0  0  0  0
  141.6089   70.3124  228.8996 H   0  0  0  0  0  0  0  0  0  0  0  0
  140.9790   70.5160  226.8350 C   0  0  0  0  0  0  0  0  0  0  0  0
  141.5306   71.4552  226.6812 H   0  0  0  0  0  0  0  0  0  0  0  0
  140.2300   69.9590  225.7800 C   0  0  0  0  0  0  0  0  0  0  0  0
  140.1450   70.5650  224.5140 C   0  0  0  0  0  0  0  0  0  0  0  0
  140.7540   71.6540  224.3090 O   0  0  0  0  0  0  0  0  0  0  0  0
  139.4010   69.9860  223.5100 N   0  0  0  0  0  0  0  0  0  0  0  0
  139.2650   70.7120  222.2230 C   0  0  0  0  0  0  0  0  0  0  0  0
  140.2648   70.8576  221.7881 H   0  0  0  0  0  0  0  0  0  0  0  0
  138.6293   70.1118  221.5554 H   0  0  0  0  0  0  0  0  0  0  0  0
  138.5960   72.0920  222.4150 C   0  0  0  0  0  0  0  0  0  0  0  0
  138.3836   72.2049  223.4884 H   0  0  0  0  0  0  0  0  0  0  0  0
  139.5510   73.2220  221.9630 C   0  0  0  0  0  0  0  0  0  0  0  0
  140.2519   73.4385  222.7827 H   0  0  0  0  0  0  0  0  0  0  0  0
  140.0736   72.8723  221.0604 H   0  0  0  0  0  0  0  0  0  0  0  0
  138.8070   74.5230  221.5940 C   0  0  0  0  0  0  0  0  0  0  0  0
  139.4356   75.3838  221.8657 H   0  0  0  0  0  0  0  0  0  0  0  0
  138.6061   74.5113  220.5126 H   0  0  0  0  0  0  0  0  0  0  0  0
  137.5230   74.6270  222.3010 N   0  0  0  0  0  0  0  0  0  0  0  0
  137.0960   75.5610  222.0900 H   0  0  0  0  0  0  0  0  0  0  0  0
  137.6850   74.5770  223.3340 H   0  0  0  0  0  0  0  0  0  0  0  0
  136.5790   73.5710  221.8880 C   0  0  0  0  0  0  0  0  0  0  0  0
  135.8131   73.4624  222.6701 H   0  0  0  0  0  0  0  0  0  0  0  0
  136.1477   73.8793  220.9242 H   0  0  0  0  0  0  0  0  0  0  0  0
  137.2540   72.1960  221.6680 C   0  0  0  0  0  0  0  0  0  0  0  0
  136.5810   71.4064  222.0334 H   0  0  0  0  0  0  0  0  0  0  0  0
  137.4517   72.0803  220.5921 H   0  0  0  0  0  0  0  0  0  0  0  0
  135.7950   68.9360  223.6130 C   0  0  0  0  0  0  0  0  0  0  0  0
  134.9160   68.1480  224.2960 N   0  0  0  0  0  0  0  0  0  0  0  0
  134.1400   68.6360  225.3000 C   0  0  0  0  0  0  0  0  0  0  0  0
  133.4425   67.9700  225.8291 H   0  0  0  0  0  0  0  0  0  0  0  0
  134.2280   69.9830  225.6600 C   0  0  0  0  0  0  0  0  0  0  0  0
  133.6076   70.3827  226.4757 H   0  0  0  0  0  0  0  0  0  0  0  0
  135.1130   70.8160  224.9720 C   0  0  0  0  0  0  0  0  0  0  0  0
  135.1868   71.8808  225.2379 H   0  0  0  0  0  0  0  0  0  0  0  0
  135.9040   70.2950  223.9460 C   0  0  0  0  0  0  0  0  0  0  0  0
  136.6067   70.9443  223.4033 H   0  0  0  0  0  0  0  0  0  0  0  0
  1  2  1  0
  2  3  2  0
  3  4  1  0
  3  5  1  0
  5  6  2  0
  6  7  1  0
  7  8  2  0
  8  9  1  0
  8 10  1  0
 10 11  1  0
 10 12  2  0
 12 13  1  0
 12 14  1  0
 14 15  1  0
 14 16  2  0
 16 17  1  0
 17 18  2  0
 17 19  1  0
 19 20  1  0
 20 21  1  0
 20 22  1  0
 20 23  1  0
 23 24  1  0
 23 25  1  0
 25 26  1  0
 25 27  1  0
 25 28  1  0
 28 29  1  0
 28 30  1  0
 28 31  1  0
 31 32  1  0
 31 33  1  0
 31 34  1  0
 34 35  1  0
 34 36  1  0
 34 37  1  0
 37 38  1  0
 37 39  1  0
  2 40  1  0
 40 41  2  0
 41 42  1  0
 42 43  1  0
 42 44  2  0
 44 45  1  0
 44 46  1  0
 46 47  1  0
 46 48  2  0
 48 49  1  0
 19  5  1  0
 37 23  1  0
 48 40  1  0
 16  7  1  0
M  CHG  1  31   1
M  END
>  <UniqueID>  (68) 
442

>  <SMILES>  (68) 
O=c1c2ccccc2nc(/C=C/c2ccccn2)n1CC1CC[NH2+]CC1

>  <Energy>  (68) 
67.7571269579274

>  <Genealogy>  (68) 
O=c1c2ccccc2nc(/C=C/c2ccccn2)n1CC1CC[NH2+]CC1 (protonated)
O=c1c2ccccc2nc(/C=C/c2ccccn2)n1CC1CC[NH2+]CC1 (cis-trans isomerization)
O=c1c2ccccc2nc(/C=C/c2ccccn2)n1CC1CC[NH2+]CC1 (3D coordinates assigned)
O=c1c2ccccc2nc(/C=C/c2ccccn2)n1CC1CC[NH2+]CC1 (nonaromatic ring conformer: 67.7571269579274 kcal/mol)

>  <smiles>  (68) 
O=c1c2ccccc2nc(/C=C/c2ccccn2)n1CC1CCNCC1

>  <score_type>  (68) 
oracle

>  <origin>  (68) 
autodockgpu

>  <m_score__min__energy>  (68) 
-7.5

>  <m_primary>  (68) 
energy

>  <meeko>  (68) 
{"free_energy": -7.05, "intermolecular_energy": -8.55, "internal_energy": -1.52, "cluster_size": 2, "cluster_id": 4, "rank_in_cluster": 2}

>  <energy>  (68) 
-7.05

>  <cluster_rmsd>  (68) 
0.2

>  <rmsd>  (68) 
272.17

>  <cluster>  (68) 
4

$$$$
BQTJSOOYCKASGQ-IDUMZPQDNA-O
     RDKit          3D

 49 52  0  0  0  0  0  0  0  0999 V2000
  143.1422   77.5311  217.0831 H   0  0  0  0  0  0  0  0  0  0  0  0
  142.4540   77.5770  217.9400 C   0  0  0  0  0  0  0  0  0  0  0  0
  141.6050   78.6100  218.0300 C   0  0  0  0  0  0  0  0  0  0  0  0
  140.8895   78.7938  217.2150 H   0  0  0  0  0  0  0  0  0  0  0  0
  141.6130   79.5090  219.2080 C   0  0  0  0  0  0  0  0  0  0  0  0
  141.8410   78.9440  220.4230 N   0  0  0  0  0  0  0  0  0  0  0  0
  141.8910   79.6750  221.5580 C   0  0  0  0  0  0  0  0  0  0  0  0
  142.1310   79.0460  222.7870 C   0  0  0  0  0  0  0  0  0  0  0  0
  142.2753   77.9563  222.8282 H   0  0  0  0  0  0  0  0  0  0  0  0
  142.1870   79.8030  223.9600 C   0  0  0  0  0  0  0  0  0  0  0  0
  142.3746   79.3083  224.9244 H   0  0  0  0  0  0  0  0  0  0  0  0
  142.0050   81.1880  223.9100 C   0  0  0  0  0  0  0  0  0  0  0  0
  142.0506   81.7810  224.8353 H   0  0  0  0  0  0  0  0  0  0  0  0
  141.7650   81.8220  222.6860 C   0  0  0  0  0  0  0  0  0  0  0  0
  141.6215   82.9120  222.6504 H   0  0  0  0  0  0  0  0  0  0  0  0
  141.7070   81.0650  221.4990 C   0  0  0  0  0  0  0  0  0  0  0  0
  141.4600   81.6500  220.2450 C   0  0  0  0  0  0  0  0  0  0  0  0
  141.2730   82.8990  220.1710 O   0  0  0  0  0  0  0  0  0  0  0  0
  141.4120   80.8730  219.1080 N   0  0  0  0  0  0  0  0  0  0  0  0
  141.0530   81.5230  217.8230 C   0  0  0  0  0  0  0  0  0  0  0  0
  140.2978   80.9086  217.3110 H   0  0  0  0  0  0  0  0  0  0  0  0
  140.6598   82.5264  218.0433 H   0  0  0  0  0  0  0  0  0  0  0  0
  142.2830   81.6780  216.9000 C   0  0  0  0  0  0  0  0  0  0  0  0
  142.9107   80.7858  217.0415 H   0  0  0  0  0  0  0  0  0  0  0  0
  141.8390   81.7610  215.4200 C   0  0  0  0  0  0  0  0  0  0  0  0
  141.6748   80.7401  215.0449 H   0  0  0  0  0  0  0  0  0  0  0  0
  140.9189   82.3627  215.3843 H   0  0  0  0  0  0  0  0  0  0  0  0
  142.8820   82.4550  214.5190 C   0  0  0  0  0  0  0  0  0  0  0  0
  142.8559   81.9936  213.5208 H   0  0  0  0  0  0  0  0  0  0  0  0
  142.6323   83.5248  214.4618 H   0  0  0  0  0  0  0  0  0  0  0  0
  144.2390   82.3260  215.0700 N   0  0  0  0  0  0  0  0  0  0  0  0
  144.9210   82.7320  214.3860 H   0  0  0  0  0  0  0  0  0  0  0  0
  144.4740   81.3140  215.1920 H   0  0  0  0  0  0  0  0  0  0  0  0
  144.3810   83.0350  216.3570 C   0  0  0  0  0  0  0  0  0  0  0  0
  145.2504   82.6216  216.8892 H   0  0  0  0  0  0  0  0  0  0  0  0
  144.5045   84.1038  216.1279 H   0  0  0  0  0  0  0  0  0  0  0  0
  143.1380   82.9030  217.2700 C   0  0  0  0  0  0  0  0  0  0  0  0
  143.4719   82.8019  218.3132 H   0  0  0  0  0  0  0  0  0  0  0  0
  142.5200   83.8033  217.1375 H   0  0  0  0  0  0  0  0  0  0  0  0
  142.5010   76.4980  218.9470 C   0  0  0  0  0  0  0  0  0  0  0  0
  141.3850   76.1510  219.6530 N   0  0  0  0  0  0  0  0  0  0  0  0
  141.3960   75.1470  220.5710 C   0  0  0  0  0  0  0  0  0  0  0  0
  140.4769   74.8938  221.1197 H   0  0  0  0  0  0  0  0  0  0  0  0
  142.5730   74.4380  220.8170 C   0  0  0  0  0  0  0  0  0  0  0  0
  142.5869   73.6222  221.5547 H   0  0  0  0  0  0  0  0  0  0  0  0
  143.7330   74.7760  220.1160 C   0  0  0  0  0  0  0  0  0  0  0  0
  144.6697   74.2311  220.3049 H   0  0  0  0  0  0  0  0  0  0  0  0
  143.7010   75.8070  219.1750 C   0  0  0  0  0  0  0  0  0  0  0  0
  144.6098   76.0757  218.6164 H   0  0  0  0  0  0  0  0  0  0  0  0
  1  2  1  0
  2  3  2  0
  3  4  1  0
  3  5  1  0
  5  6  2  0
  6  7  1  0
  7  8  2  0
  8  9  1  0
  8 10  1  0
 10 11  1  0
 10 12  2  0
 12 13  1  0
 12 14  1  0
 14 15  1  0
 14 16  2  0
 16 17  1  0
 17 18  2  0
 17 19  1  0
 19 20  1  0
 20 21  1  0
 20 22  1  0
 20 23  1  0
 23 24  1  0
 23 25  1  0
 25 26  1  0
 25 27  1  0
 25 28  1  0
 28 29  1  0
 28 30  1  0
 28 31  1  0
 31 32  1  0
 31 33  1  0
 31 34  1  0
 34 35  1  0
 34 36  1  0
 34 37  1  0
 37 38  1  0
 37 39  1  0
  2 40  1  0
 40 41  2  0
 41 42  1  0
 42 43  1  0
 42 44  2  0
 44 45  1  0
 44 46  1  0
 46 47  1  0
 46 48  2  0
 48 49  1  0
 19  5  1  0
 37 23  1  0
 48 40  1  0
 16  7  1  0
M  CHG  1  31   1
M  END
>  <UniqueID>  (69) 
442

>  <SMILES>  (69) 
O=c1c2ccccc2nc(/C=C/c2ccccn2)n1CC1CC[NH2+]CC1

>  <Energy>  (69) 
67.7571269579274

>  <Genealogy>  (69) 
O=c1c2ccccc2nc(/C=C/c2ccccn2)n1CC1CC[NH2+]CC1 (protonated)
O=c1c2ccccc2nc(/C=C/c2ccccn2)n1CC1CC[NH2+]CC1 (cis-trans isomerization)
O=c1c2ccccc2nc(/C=C/c2ccccn2)n1CC1CC[NH2+]CC1 (3D coordinates assigned)
O=c1c2ccccc2nc(/C=C/c2ccccn2)n1CC1CC[NH2+]CC1 (nonaromatic ring conformer: 67.7571269579274 kcal/mol)

>  <smiles>  (69) 
O=c1c2ccccc2nc(/C=C/c2ccccn2)n1CC1CCNCC1

>  <score_type>  (69) 
oracle

>  <origin>  (69) 
autodockgpu

>  <m_score__min__energy>  (69) 
-7.5

>  <m_primary>  (69) 
energy

>  <meeko>  (69) 
{"free_energy": -7.34, "intermolecular_energy": -8.83, "internal_energy": -1.14, "cluster_size": 1, "cluster_id": 3, "rank_in_cluster": 1}

>  <energy>  (69) 
-6.79

>  <cluster_rmsd>  (69) 
0.0

>  <rmsd>  (69) 
273.54

>  <cluster>  (69) 
5

$$$$
BQTJSOOYCKASGQ-IDUMZPQDNA-O
     RDKit          3D

 49 52  0  0  0  0  0  0  0  0999 V2000
  143.5668   80.5655  222.9592 H   0  0  0  0  0  0  0  0  0  0  0  0
  142.5600   80.5140  222.5190 C   0  0  0  0  0  0  0  0  0  0  0  0
  141.8680   81.6500  222.3590 C   0  0  0  0  0  0  0  0  0  0  0  0
  142.4094   82.6004  222.2426 H   0  0  0  0  0  0  0  0  0  0  0  0
  140.3860   81.6490  222.3360 C   0  0  0  0  0  0  0  0  0  0  0  0
  139.7460   81.1120  223.4090 N   0  0  0  0  0  0  0  0  0  0  0  0
  138.3980   81.0800  223.5000 C   0  0  0  0  0  0  0  0  0  0  0  0
  137.7850   80.5190  224.6280 C   0  0  0  0  0  0  0  0  0  0  0  0
  138.4009   80.1029  225.4389 H   0  0  0  0  0  0  0  0  0  0  0  0
  136.3910   80.4880  224.7230 C   0  0  0  0  0  0  0  0  0  0  0  0
  135.9102   80.0446  225.6075 H   0  0  0  0  0  0  0  0  0  0  0  0
  135.6070   81.0200  223.6950 C   0  0  0  0  0  0  0  0  0  0  0  0
  134.5101   80.9967  223.7740 H   0  0  0  0  0  0  0  0  0  0  0  0
  136.2130   81.5820  222.5660 C   0  0  0  0  0  0  0  0  0  0  0  0
  135.5925   81.9982  221.7586 H   0  0  0  0  0  0  0  0  0  0  0  0
  137.6180   81.6150  222.4630 C   0  0  0  0  0  0  0  0  0  0  0  0
  138.2780   82.1600  221.3470 C   0  0  0  0  0  0  0  0  0  0  0  0
  137.5940   82.6310  220.3940 O   0  0  0  0  0  0  0  0  0  0  0  0
  139.6550   82.1730  221.2870 N   0  0  0  0  0  0  0  0  0  0  0  0
  140.3020   82.6700  220.0480 C   0  0  0  0  0  0  0  0  0  0  0  0
  139.5241   82.8815  219.2996 H   0  0  0  0  0  0  0  0  0  0  0  0
  140.8667   83.5806  220.2971 H   0  0  0  0  0  0  0  0  0  0  0  0
  141.2900   81.6340  219.4650 C   0  0  0  0  0  0  0  0  0  0  0  0
  141.9323   81.2956  220.2914 H   0  0  0  0  0  0  0  0  0  0  0  0
  140.5220   80.4220  218.8870 C   0  0  0  0  0  0  0  0  0  0  0  0
  140.2756   79.7367  219.7114 H   0  0  0  0  0  0  0  0  0  0  0  0
  139.6184   80.8082  218.3927 H   0  0  0  0  0  0  0  0  0  0  0  0
  141.3350   79.6470  217.8280 C   0  0  0  0  0  0  0  0  0  0  0  0
  141.0832   78.5783  217.8954 H   0  0  0  0  0  0  0  0  0  0  0  0
  141.0798   80.0471  216.8356 H   0  0  0  0  0  0  0  0  0  0  0  0
  142.7800   79.8110  218.0340 N   0  0  0  0  0  0  0  0  0  0  0  0
  143.2910   79.2020  217.3510 H   0  0  0  0  0  0  0  0  0  0  0  0
  143.0360   79.4930  218.9970 H   0  0  0  0  0  0  0  0  0  0  0  0
  143.2110   81.2090  217.8330 C   0  0  0  0  0  0  0  0  0  0  0  0
  144.1778   81.3521  218.3377 H   0  0  0  0  0  0  0  0  0  0  0  0
  143.2807   81.3751  216.7478 H   0  0  0  0  0  0  0  0  0  0  0  0
  142.2080   82.2460  218.3910 C   0  0  0  0  0  0  0  0  0  0  0  0
  142.7696   83.0805  218.8362 H   0  0  0  0  0  0  0  0  0  0  0  0
  141.5770   82.5928  217.5594 H   0  0  0  0  0  0  0  0  0  0  0  0
  142.0230   79.1950  222.1270 C   0  0  0  0  0  0  0  0  0  0  0  0
  142.1680   78.7320  220.8520 N   0  0  0  0  0  0  0  0  0  0  0  0
  141.7010   77.5130  220.4710 C   0  0  0  0  0  0  0  0  0  0  0  0
  141.8376   77.1717  219.4343 H   0  0  0  0  0  0  0  0  0  0  0  0
  141.0480   76.6940  221.3950 C   0  0  0  0  0  0  0  0  0  0  0  0
  140.6729   75.7046  221.0942 H   0  0  0  0  0  0  0  0  0  0  0  0
  140.8770   77.1460  222.7050 C   0  0  0  0  0  0  0  0  0  0  0  0
  140.3566   76.5159  223.4414 H   0  0  0  0  0  0  0  0  0  0  0  0
  141.3670   78.3980  223.0790 C   0  0  0  0  0  0  0  0  0  0  0  0
  141.2404   78.7575  224.1109 H   0  0  0  0  0  0  0  0  0  0  0  0
  1  2  1  0
  2  3  2  0
  3  4  1  0
  3  5  1  0
  5  6  2  0
  6  7  1  0
  7  8  2  0
  8  9  1  0
  8 10  1  0
 10 11  1  0
 10 12  2  0
 12 13  1  0
 12 14  1  0
 14 15  1  0
 14 16  2  0
 16 17  1  0
 17 18  2  0
 17 19  1  0
 19 20  1  0
 20 21  1  0
 20 22  1  0
 20 23  1  0
 23 24  1  0
 23 25  1  0
 25 26  1  0
 25 27  1  0
 25 28  1  0
 28 29  1  0
 28 30  1  0
 28 31  1  0
 31 32  1  0
 31 33  1  0
 31 34  1  0
 34 35  1  0
 34 36  1  0
 34 37  1  0
 37 38  1  0
 37 39  1  0
  2 40  1  0
 40 41  2  0
 41 42  1  0
 42 43  1  0
 42 44  2  0
 44 45  1  0
 44 46  1  0
 46 47  1  0
 46 48  2  0
 48 49  1  0
 19  5  1  0
 37 23  1  0
 48 40  1  0
 16  7  1  0
M  CHG  1  31   1
M  END
>  <UniqueID>  (70) 
442

>  <SMILES>  (70) 
O=c1c2ccccc2nc(/C=C/c2ccccn2)n1CC1CC[NH2+]CC1

>  <Energy>  (70) 
67.7571269579274

>  <Genealogy>  (70) 
O=c1c2ccccc2nc(/C=C/c2ccccn2)n1CC1CC[NH2+]CC1 (protonated)
O=c1c2ccccc2nc(/C=C/c2ccccn2)n1CC1CC[NH2+]CC1 (cis-trans isomerization)
O=c1c2ccccc2nc(/C=C/c2ccccn2)n1CC1CC[NH2+]CC1 (3D coordinates assigned)
O=c1c2ccccc2nc(/C=C/c2ccccn2)n1CC1CC[NH2+]CC1 (nonaromatic ring conformer: 67.7571269579274 kcal/mol)

>  <smiles>  (70) 
O=c1c2ccccc2nc(/C=C/c2ccccn2)n1CC1CCNCC1

>  <score_type>  (70) 
oracle

>  <origin>  (70) 
autodockgpu

>  <m_score__min__energy>  (70) 
-7.5

>  <m_primary>  (70) 
energy

>  <meeko>  (70) 
{"free_energy": -5.78, "intermolecular_energy": -7.28, "internal_energy": -2.34, "cluster_size": 1, "cluster_id": 6, "rank_in_cluster": 1}

>  <energy>  (70) 
-6.35

>  <cluster_rmsd>  (70) 
0.51

>  <rmsd>  (70) 
273.5

>  <cluster>  (70) 
5

$$$$
BQTJSOOYCKASGQ-IDUMZPQDNA-O
     RDKit          3D

 49 52  0  0  0  0  0  0  0  0999 V2000
  143.7438   79.7615  222.7175 H   0  0  0  0  0  0  0  0  0  0  0  0
  142.6570   79.8120  222.5550 C   0  0  0  0  0  0  0  0  0  0  0  0
  141.8730   78.9090  223.1590 C   0  0  0  0  0  0  0  0  0  0  0  0
  142.3336   78.0751  223.7090 H   0  0  0  0  0  0  0  0  0  0  0  0
  140.3960   79.0140  223.0990 C   0  0  0  0  0  0  0  0  0  0  0  0
  139.7920   79.8420  223.9930 N   0  0  0  0  0  0  0  0  0  0  0  0
  138.4540   80.0270  224.0120 C   0  0  0  0  0  0  0  0  0  0  0  0
  137.8790   80.8930  224.9510 C   0  0  0  0  0  0  0  0  0  0  0  0
  138.5172   81.4199  225.6756 H   0  0  0  0  0  0  0  0  0  0  0  0
  136.4960   81.0880  224.9680 C   0  0  0  0  0  0  0  0  0  0  0  0
  136.0458   81.7660  225.7080 H   0  0  0  0  0  0  0  0  0  0  0  0
  135.6830   80.4220  224.0450 C   0  0  0  0  0  0  0  0  0  0  0  0
  134.5943   80.5786  224.0596 H   0  0  0  0  0  0  0  0  0  0  0  0
  136.2510   79.5570  223.1030 C   0  0  0  0  0  0  0  0  0  0  0  0
  135.6088   79.0346  222.3787 H   0  0  0  0  0  0  0  0  0  0  0  0
  137.6450   79.3550  223.0820 C   0  0  0  0  0  0  0  0  0  0  0  0
  138.2670   78.4900  222.1630 C   0  0  0  0  0  0  0  0  0  0  0  0
  137.5550   77.8610  221.3290 O   0  0  0  0  0  0  0  0  0  0  0  0
  139.6340   78.3220  222.1760 N   0  0  0  0  0  0  0  0  0  0  0  0
  140.2310   77.3270  221.2520 C   0  0  0  0  0  0  0  0  0  0  0  0
  140.8175   76.6034  221.8372 H   0  0  0  0  0  0  0  0  0  0  0  0
  139.4142   76.8258  220.7120 H   0  0  0  0  0  0  0  0  0  0  0  0
  141.1570   77.9990  220.2120 C   0  0  0  0  0  0  0  0  0  0  0  0
  141.4898   78.9554  220.6417 H   0  0  0  0  0  0  0  0  0  0  0  0
  142.3910   77.1080  219.9330 C   0  0  0  0  0  0  0  0  0  0  0  0
  143.1368   77.2835  220.7223 H   0  0  0  0  0  0  0  0  0  0  0  0
  142.0485   76.0628  219.9201 H   0  0  0  0  0  0  0  0  0  0  0  0
  143.0430   77.4000  218.5650 C   0  0  0  0  0  0  0  0  0  0  0  0
  144.1297   77.2511  218.6480 H   0  0  0  0  0  0  0  0  0  0  0  0
  142.6092   76.7140  217.8226 H   0  0  0  0  0  0  0  0  0  0  0  0
  142.7820   78.7780  218.1270 N   0  0  0  0  0  0  0  0  0  0  0  0
  143.3140   78.9580  217.2420 H   0  0  0  0  0  0  0  0  0  0  0  0
  143.1310   79.4490  218.8510 H   0  0  0  0  0  0  0  0  0  0  0  0
  141.3470   79.0130  217.8730 C   0  0  0  0  0  0  0  0  0  0  0  0
  141.1588   80.0961  217.9120 H   0  0  0  0  0  0  0  0  0  0  0  0
  141.1179   78.5866  216.8852 H   0  0  0  0  0  0  0  0  0  0  0  0
  140.4200   78.3170  218.8970 C   0  0  0  0  0  0  0  0  0  0  0  0
  139.5703   78.9802  219.1164 H   0  0  0  0  0  0  0  0  0  0  0  0
  140.0778   77.3679  218.4587 H   0  0  0  0  0  0  0  0  0  0  0  0
  142.1190   80.8720  221.6800 C   0  0  0  0  0  0  0  0  0  0  0  0
  142.1980   80.7650  220.3220 N   0  0  0  0  0  0  0  0  0  0  0  0
  141.6920   81.7170  219.4930 C   0  0  0  0  0  0  0  0  0  0  0  0
  141.7729   81.5958  218.4027 H   0  0  0  0  0  0  0  0  0  0  0  0
  141.0700   82.8480  220.0250 C   0  0  0  0  0  0  0  0  0  0  0  0
  140.6532   83.6185  219.3597 H   0  0  0  0  0  0  0  0  0  0  0  0
  140.9830   82.9900  221.4120 C   0  0  0  0  0  0  0  0  0  0  0  0
  140.5041   83.8802  221.8457 H   0  0  0  0  0  0  0  0  0  0  0  0
  141.5050   82.0000  222.2470 C   0  0  0  0  0  0  0  0  0  0  0  0
  141.4357   82.1031  223.3400 H   0  0  0  0  0  0  0  0  0  0  0  0
  1  2  1  0
  2  3  2  0
  3  4  1  0
  3  5  1  0
  5  6  2  0
  6  7  1  0
  7  8  2  0
  8  9  1  0
  8 10  1  0
 10 11  1  0
 10 12  2  0
 12 13  1  0
 12 14  1  0
 14 15  1  0
 14 16  2  0
 16 17  1  0
 17 18  2  0
 17 19  1  0
 19 20  1  0
 20 21  1  0
 20 22  1  0
 20 23  1  0
 23 24  1  0
 23 25  1  0
 25 26  1  0
 25 27  1  0
 25 28  1  0
 28 29  1  0
 28 30  1  0
 28 31  1  0
 31 32  1  0
 31 33  1  0
 31 34  1  0
 34 35  1  0
 34 36  1  0
 34 37  1  0
 37 38  1  0
 37 39  1  0
  2 40  1  0
 40 41  2  0
 41 42  1  0
 42 43  1  0
 42 44  2  0
 44 45  1  0
 44 46  1  0
 46 47  1  0
 46 48  2  0
 48 49  1  0
 19  5  1  0
 37 23  1  0
 48 40  1  0
 16  7  1  0
M  CHG  1  31   1
M  END
>  <UniqueID>  (71) 
442

>  <SMILES>  (71) 
O=c1c2ccccc2nc(/C=C/c2ccccn2)n1CC1CC[NH2+]CC1

>  <Energy>  (71) 
67.7571269579274

>  <Genealogy>  (71) 
O=c1c2ccccc2nc(/C=C/c2ccccn2)n1CC1CC[NH2+]CC1 (protonated)
O=c1c2ccccc2nc(/C=C/c2ccccn2)n1CC1CC[NH2+]CC1 (cis-trans isomerization)
O=c1c2ccccc2nc(/C=C/c2ccccn2)n1CC1CC[NH2+]CC1 (3D coordinates assigned)
O=c1c2ccccc2nc(/C=C/c2ccccn2)n1CC1CC[NH2+]CC1 (nonaromatic ring conformer: 67.7571269579274 kcal/mol)

>  <smiles>  (71) 
O=c1c2ccccc2nc(/C=C/c2ccccn2)n1CC1CCNCC1

>  <score_type>  (71) 
oracle

>  <origin>  (71) 
autodockgpu

>  <m_score__min__energy>  (71) 
-7.5

>  <m_primary>  (71) 
energy

>  <meeko>  (71) 
{"free_energy": -6.33, "intermolecular_energy": -7.82, "internal_energy": -2.43, "cluster_size": 11, "cluster_id": 5, "rank_in_cluster": 8}

>  <energy>  (71) 
-6.34

>  <cluster_rmsd>  (71) 
0.59

>  <rmsd>  (71) 
273.49

>  <cluster>  (71) 
5

$$$$
BQTJSOOYCKASGQ-IDUMZPQDNA-O
     RDKit          3D

 49 52  0  0  0  0  0  0  0  0999 V2000
  138.7932   77.5376  223.5869 H   0  0  0  0  0  0  0  0  0  0  0  0
  139.4950   77.8220  222.7890 C   0  0  0  0  0  0  0  0  0  0  0  0
  139.4750   77.1350  221.6380 C   0  0  0  0  0  0  0  0  0  0  0  0
  138.5591   77.1276  221.0288 H   0  0  0  0  0  0  0  0  0  0  0  0
  140.6660   76.3850  221.1720 C   0  0  0  0  0  0  0  0  0  0  0  0
  140.6830   75.0430  221.3910 N   0  0  0  0  0  0  0  0  0  0  0  0
  141.7080   74.2620  220.9880 C   0  0  0  0  0  0  0  0  0  0  0  0
  141.6780   72.8830  221.2340 C   0  0  0  0  0  0  0  0  0  0  0  0
  140.8200   72.4368  221.7582 H   0  0  0  0  0  0  0  0  0  0  0  0
  142.7370   72.0740  220.8140 C   0  0  0  0  0  0  0  0  0  0  0  0
  142.7131   70.9918  221.0098 H   0  0  0  0  0  0  0  0  0  0  0  0
  143.8270   72.6390  220.1450 C   0  0  0  0  0  0  0  0  0  0  0  0
  144.6585   71.9997  219.8135 H   0  0  0  0  0  0  0  0  0  0  0  0
  143.8630   74.0160  219.8960 C   0  0  0  0  0  0  0  0  0  0  0  0
  144.7231   74.4572  219.3710 H   0  0  0  0  0  0  0  0  0  0  0  0
  142.7990   74.8370  220.3170 C   0  0  0  0  0  0  0  0  0  0  0  0
  142.7890   76.2260  220.1010 C   0  0  0  0  0  0  0  0  0  0  0  0
  143.7700   76.7670  219.5150 O   0  0  0  0  0  0  0  0  0  0  0  0
  141.7270   76.9930  220.5290 N   0  0  0  0  0  0  0  0  0  0  0  0
  141.8070   78.4650  220.3630 C   0  0  0  0  0  0  0  0  0  0  0  0
  140.8260   78.9042  220.5969 H   0  0  0  0  0  0  0  0  0  0  0  0
  142.5815   78.8459  221.0450 H   0  0  0  0  0  0  0  0  0  0  0  0
  142.2000   78.8560  218.9200 C   0  0  0  0  0  0  0  0  0  0  0  0
  143.2636   78.6058  218.7930 H   0  0  0  0  0  0  0  0  0  0  0  0
  141.3610   78.0540  217.8970 C   0  0  0  0  0  0  0  0  0  0  0  0
  141.8216   77.0639  217.7642 H   0  0  0  0  0  0  0  0  0  0  0  0
  140.3381   77.9787  218.2946 H   0  0  0  0  0  0  0  0  0  0  0  0
  141.2740   78.7460  216.5200 C   0  0  0  0  0  0  0  0  0  0  0  0
  141.2385   77.9765  215.7348 H   0  0  0  0  0  0  0  0  0  0  0  0
  140.3655   79.3659  216.5018 H   0  0  0  0  0  0  0  0  0  0  0  0
  142.4320   79.6180  216.2820 N   0  0  0  0  0  0  0  0  0  0  0  0
  142.3760   79.9970  215.3060 H   0  0  0  0  0  0  0  0  0  0  0  0
  143.3140   79.0600  216.3570 H   0  0  0  0  0  0  0  0  0  0  0  0
  142.4720   80.7520  217.2270 C   0  0  0  0  0  0  0  0  0  0  0  0
  143.4991   81.1447  217.2575 H   0  0  0  0  0  0  0  0  0  0  0  0
  141.7516   81.5012  216.8668 H   0  0  0  0  0  0  0  0  0  0  0  0
  142.0510   80.3670  218.6650 C   0  0  0  0  0  0  0  0  0  0  0  0
  142.6847   80.9127  219.3795 H   0  0  0  0  0  0  0  0  0  0  0  0
  140.9912   80.6322  218.7932 H   0  0  0  0  0  0  0  0  0  0  0  0
  140.4230   78.9460  223.0270 C   0  0  0  0  0  0  0  0  0  0  0  0
  140.0770   80.2220  222.6900 N   0  0  0  0  0  0  0  0  0  0  0  0
  140.9050   81.2770  222.9170 C   0  0  0  0  0  0  0  0  0  0  0  0
  140.5920   82.2924  222.6325 H   0  0  0  0  0  0  0  0  0  0  0  0
  142.1520   81.0720  223.5110 C   0  0  0  0  0  0  0  0  0  0  0  0
  142.8232   81.9220  223.7034 H   0  0  0  0  0  0  0  0  0  0  0  0
  142.5370   79.7750  223.8580 C   0  0  0  0  0  0  0  0  0  0  0  0
  143.5205   79.5968  224.3174 H   0  0  0  0  0  0  0  0  0  0  0  0
  141.6720   78.7050  223.6210 C   0  0  0  0  0  0  0  0  0  0  0  0
  141.9666   77.6819  223.8974 H   0  0  0  0  0  0  0  0  0  0  0  0
  1  2  1  0
  2  3  2  0
  3  4  1  0
  3  5  1  0
  5  6  2  0
  6  7  1  0
  7  8  2  0
  8  9  1  0
  8 10  1  0
 10 11  1  0
 10 12  2  0
 12 13  1  0
 12 14  1  0
 14 15  1  0
 14 16  2  0
 16 17  1  0
 17 18  2  0
 17 19  1  0
 19 20  1  0
 20 21  1  0
 20 22  1  0
 20 23  1  0
 23 24  1  0
 23 25  1  0
 25 26  1  0
 25 27  1  0
 25 28  1  0
 28 29  1  0
 28 30  1  0
 28 31  1  0
 31 32  1  0
 31 33  1  0
 31 34  1  0
 34 35  1  0
 34 36  1  0
 34 37  1  0
 37 38  1  0
 37 39  1  0
  2 40  1  0
 40 41  2  0
 41 42  1  0
 42 43  1  0
 42 44  2  0
 44 45  1  0
 44 46  1  0
 46 47  1  0
 46 48  2  0
 48 49  1  0
 19  5  1  0
 37 23  1  0
 48 40  1  0
 16  7  1  0
M  CHG  1  31   1
M  END
>  <UniqueID>  (72) 
442

>  <SMILES>  (72) 
O=c1c2ccccc2nc(/C=C/c2ccccn2)n1CC1CC[NH2+]CC1

>  <Energy>  (72) 
67.7571269579274

>  <Genealogy>  (72) 
O=c1c2ccccc2nc(/C=C/c2ccccn2)n1CC1CC[NH2+]CC1 (protonated)
O=c1c2ccccc2nc(/C=C/c2ccccn2)n1CC1CC[NH2+]CC1 (cis-trans isomerization)
O=c1c2ccccc2nc(/C=C/c2ccccn2)n1CC1CC[NH2+]CC1 (3D coordinates assigned)
O=c1c2ccccc2nc(/C=C/c2ccccn2)n1CC1CC[NH2+]CC1 (nonaromatic ring conformer: 67.7571269579274 kcal/mol)

>  <smiles>  (72) 
O=c1c2ccccc2nc(/C=C/c2ccccn2)n1CC1CCNCC1

>  <score_type>  (72) 
oracle

>  <origin>  (72) 
autodockgpu

>  <m_score__min__energy>  (72) 
-7.5

>  <m_primary>  (72) 
energy

>  <meeko>  (72) 
{"free_energy": -7.38, "intermolecular_energy": -8.87, "internal_energy": -1.19, "cluster_size": 4, "cluster_id": 2, "rank_in_cluster": 2}

>  <energy>  (72) 
-6.34

>  <cluster_rmsd>  (72) 
0.6

>  <rmsd>  (72) 
273.5

>  <cluster>  (72) 
5

$$$$
BQTJSOOYCKASGQ-IDUMZPQDNA-O
     RDKit          3D

 49 52  0  0  0  0  0  0  0  0999 V2000
  143.9319   80.2975  222.8834 H   0  0  0  0  0  0  0  0  0  0  0  0
  142.8630   80.1400  222.6770 C   0  0  0  0  0  0  0  0  0  0  0  0
  142.2480   79.0840  223.2290 C   0  0  0  0  0  0  0  0  0  0  0  0
  142.8437   78.3330  223.7685 H   0  0  0  0  0  0  0  0  0  0  0  0
  140.7800   78.9110  223.1250 C   0  0  0  0  0  0  0  0  0  0  0  0
  139.9990   79.7510  223.8540 N   0  0  0  0  0  0  0  0  0  0  0  0
  138.6500   79.6930  223.8160 C   0  0  0  0  0  0  0  0  0  0  0  0
  137.8890   80.5840  224.5850 C   0  0  0  0  0  0  0  0  0  0  0  0
  138.3900   81.3285  225.2212 H   0  0  0  0  0  0  0  0  0  0  0  0
  136.4930   80.5260  224.5430 C   0  0  0  0  0  0  0  0  0  0  0  0
  135.8958   81.2233  225.1489 H   0  0  0  0  0  0  0  0  0  0  0  0
  135.8550   79.5830  223.7320 C   0  0  0  0  0  0  0  0  0  0  0  0
  134.7563   79.5415  223.6992 H   0  0  0  0  0  0  0  0  0  0  0  0
  136.6100   78.6920  222.9620 C   0  0  0  0  0  0  0  0  0  0  0  0
  136.1042   77.9506  222.3260 H   0  0  0  0  0  0  0  0  0  0  0  0
  138.0170   78.7430  223.0000 C   0  0  0  0  0  0  0  0  0  0  0  0
  138.8230   77.8650  222.2540 C   0  0  0  0  0  0  0  0  0  0  0  0
  138.2730   76.9890  221.5260 O   0  0  0  0  0  0  0  0  0  0  0  0
  140.1970   77.9500  222.3200 N   0  0  0  0  0  0  0  0  0  0  0  0
  141.0020   76.9410  221.5890 C   0  0  0  0  0  0  0  0  0  0  0  0
  141.7150   76.4792  222.2878 H   0  0  0  0  0  0  0  0  0  0  0  0
  140.3149   76.1892  221.1734 H   0  0  0  0  0  0  0  0  0  0  0  0
  141.7870   77.5760  220.4190 C   0  0  0  0  0  0  0  0  0  0  0  0
  142.4388   78.3517  220.8472 H   0  0  0  0  0  0  0  0  0  0  0  0
  142.6590   76.5100  219.7130 C   0  0  0  0  0  0  0  0  0  0  0  0
  143.5914   76.3850  220.2830 H   0  0  0  0  0  0  0  0  0  0  0  0
  142.0762   75.5779  219.6745 H   0  0  0  0  0  0  0  0  0  0  0  0
  143.0160   76.8950  218.2620 C   0  0  0  0  0  0  0  0  0  0  0  0
  144.0194   76.5104  218.0269 H   0  0  0  0  0  0  0  0  0  0  0  0
  142.2612   76.4559  217.5931 H   0  0  0  0  0  0  0  0  0  0  0  0
  143.0070   78.3520  218.0730 N   0  0  0  0  0  0  0  0  0  0  0  0
  143.3380   78.5700  217.1030 H   0  0  0  0  0  0  0  0  0  0  0  0
  143.6730   78.7980  218.7450 H   0  0  0  0  0  0  0  0  0  0  0  0
  141.6560   78.9230  218.2500 C   0  0  0  0  0  0  0  0  0  0  0  0
  141.7563   79.9976  218.4624 H   0  0  0  0  0  0  0  0  0  0  0  0
  141.0984   78.7341  217.3208 H   0  0  0  0  0  0  0  0  0  0  0  0
  140.8600   78.2670  219.4030 C   0  0  0  0  0  0  0  0  0  0  0  0
  140.2798   79.0442  219.9220 H   0  0  0  0  0  0  0  0  0  0  0  0
  140.1988   77.5023  218.9693 H   0  0  0  0  0  0  0  0  0  0  0  0
  142.1590   81.1000  221.8020 C   0  0  0  0  0  0  0  0  0  0  0  0
  142.1590   80.9390  220.4460 N   0  0  0  0  0  0  0  0  0  0  0  0
  141.5020   81.7970  219.6200 C   0  0  0  0  0  0  0  0  0  0  0  0
  141.5225   81.6361  218.5320 H   0  0  0  0  0  0  0  0  0  0  0  0
  140.8020   82.8810  220.1510 C   0  0  0  0  0  0  0  0  0  0  0  0
  140.2640   83.5743  219.4878 H   0  0  0  0  0  0  0  0  0  0  0  0
  140.7920   83.0760  221.5340 C   0  0  0  0  0  0  0  0  0  0  0  0
  140.2519   83.9313  221.9661 H   0  0  0  0  0  0  0  0  0  0  0  0
  141.4690   82.1830  222.3670 C   0  0  0  0  0  0  0  0  0  0  0  0
  141.4614   82.3275  223.4574 H   0  0  0  0  0  0  0  0  0  0  0  0
  1  2  1  0
  2  3  2  0
  3  4  1  0
  3  5  1  0
  5  6  2  0
  6  7  1  0
  7  8  2  0
  8  9  1  0
  8 10  1  0
 10 11  1  0
 10 12  2  0
 12 13  1  0
 12 14  1  0
 14 15  1  0
 14 16  2  0
 16 17  1  0
 17 18  2  0
 17 19  1  0
 19 20  1  0
 20 21  1  0
 20 22  1  0
 20 23  1  0
 23 24  1  0
 23 25  1  0
 25 26  1  0
 25 27  1  0
 25 28  1  0
 28 29  1  0
 28 30  1  0
 28 31  1  0
 31 32  1  0
 31 33  1  0
 31 34  1  0
 34 35  1  0
 34 36  1  0
 34 37  1  0
 37 38  1  0
 37 39  1  0
  2 40  1  0
 40 41  2  0
 41 42  1  0
 42 43  1  0
 42 44  2  0
 44 45  1  0
 44 46  1  0
 46 47  1  0
 46 48  2  0
 48 49  1  0
 19  5  1  0
 37 23  1  0
 48 40  1  0
 16  7  1  0
M  CHG  1  31   1
M  END
>  <UniqueID>  (73) 
442

>  <SMILES>  (73) 
O=c1c2ccccc2nc(/C=C/c2ccccn2)n1CC1CC[NH2+]CC1

>  <Energy>  (73) 
67.7571269579274

>  <Genealogy>  (73) 
O=c1c2ccccc2nc(/C=C/c2ccccn2)n1CC1CC[NH2+]CC1 (protonated)
O=c1c2ccccc2nc(/C=C/c2ccccn2)n1CC1CC[NH2+]CC1 (cis-trans isomerization)
O=c1c2ccccc2nc(/C=C/c2ccccn2)n1CC1CC[NH2+]CC1 (3D coordinates assigned)
O=c1c2ccccc2nc(/C=C/c2ccccn2)n1CC1CC[NH2+]CC1 (nonaromatic ring conformer: 67.7571269579274 kcal/mol)

>  <smiles>  (73) 
O=c1c2ccccc2nc(/C=C/c2ccccn2)n1CC1CCNCC1

>  <score_type>  (73) 
oracle

>  <origin>  (73) 
autodockgpu

>  <m_score__min__energy>  (73) 
-7.5

>  <m_primary>  (73) 
energy

>  <meeko>  (73) 
{"free_energy": -6.79, "intermolecular_energy": -8.28, "internal_energy": -1.82, "cluster_size": 11, "cluster_id": 5, "rank_in_cluster": 1}

>  <energy>  (73) 
-6.33

>  <cluster_rmsd>  (73) 
0.6

>  <rmsd>  (73) 
273.51

>  <cluster>  (73) 
5

$$$$
BQTJSOOYCKASGQ-IDUMZPQDNA-O
     RDKit          3D

 49 52  0  0  0  0  0  0  0  0999 V2000
  138.7909   77.5579  223.5558 H   0  0  0  0  0  0  0  0  0  0  0  0
  139.5010   77.8300  222.7610 C   0  0  0  0  0  0  0  0  0  0  0  0
  139.4860   77.1320  221.6180 C   0  0  0  0  0  0  0  0  0  0  0  0
  138.5696   77.1107  221.0100 H   0  0  0  0  0  0  0  0  0  0  0  0
  140.6820   76.3880  221.1580 C   0  0  0  0  0  0  0  0  0  0  0  0
  140.7050   75.0460  221.3770 N   0  0  0  0  0  0  0  0  0  0  0  0
  141.7360   74.2700  220.9800 C   0  0  0  0  0  0  0  0  0  0  0  0
  141.7110   72.8910  221.2270 C   0  0  0  0  0  0  0  0  0  0  0  0
  140.8527   72.4409  221.7474 H   0  0  0  0  0  0  0  0  0  0  0  0
  142.7770   72.0870  220.8120 C   0  0  0  0  0  0  0  0  0  0  0  0
  142.7578   71.0048  221.0082 H   0  0  0  0  0  0  0  0  0  0  0  0
  143.8670   72.6570  220.1480 C   0  0  0  0  0  0  0  0  0  0  0  0
  144.7035   72.0218  219.8212 H   0  0  0  0  0  0  0  0  0  0  0  0
  143.8970   74.0330  219.8980 C   0  0  0  0  0  0  0  0  0  0  0  0
  144.7570   74.4778  219.3760 H   0  0  0  0  0  0  0  0  0  0  0  0
  142.8270   74.8500  220.3140 C   0  0  0  0  0  0  0  0  0  0  0  0
  142.8110   76.2390  220.0960 C   0  0  0  0  0  0  0  0  0  0  0  0
  143.7930   76.7840  219.5150 O   0  0  0  0  0  0  0  0  0  0  0  0
  141.7440   77.0010  220.5190 N   0  0  0  0  0  0  0  0  0  0  0  0
  141.8170   78.4730  220.3520 C   0  0  0  0  0  0  0  0  0  0  0  0
  140.8339   78.9078  220.5856 H   0  0  0  0  0  0  0  0  0  0  0  0
  142.5895   78.8583  221.0338 H   0  0  0  0  0  0  0  0  0  0  0  0
  142.2080   78.8640  218.9090 C   0  0  0  0  0  0  0  0  0  0  0  0
  143.2693   78.6062  218.7783 H   0  0  0  0  0  0  0  0  0  0  0  0
  141.3610   78.0700  217.8860 C   0  0  0  0  0  0  0  0  0  0  0  0
  141.8151   77.0775  217.7491 H   0  0  0  0  0  0  0  0  0  0  0  0
  140.3389   78.0002  218.2864 H   0  0  0  0  0  0  0  0  0  0  0  0
  141.2740   78.7660  216.5110 C   0  0  0  0  0  0  0  0  0  0  0  0
  141.2317   77.9987  215.7239 H   0  0  0  0  0  0  0  0  0  0  0  0
  140.3690   79.3912  216.4969 H   0  0  0  0  0  0  0  0  0  0  0  0
  142.4370   79.6320  216.2720 N   0  0  0  0  0  0  0  0  0  0  0  0
  142.3810   80.0130  215.2980 H   0  0  0  0  0  0  0  0  0  0  0  0
  143.3160   79.0680  216.3430 H   0  0  0  0  0  0  0  0  0  0  0  0
  142.4880   80.7630  217.2200 C   0  0  0  0  0  0  0  0  0  0  0  0
  143.5179   81.1484  217.2483 H   0  0  0  0  0  0  0  0  0  0  0  0
  141.7717   81.5182  216.8642 H   0  0  0  0  0  0  0  0  0  0  0  0
  142.0690   80.3770  218.6580 C   0  0  0  0  0  0  0  0  0  0  0  0
  142.7089   80.9164  219.3719 H   0  0  0  0  0  0  0  0  0  0  0  0
  141.0114   80.6491  218.7900 H   0  0  0  0  0  0  0  0  0  0  0  0
  140.4340   78.9510  222.9960 C   0  0  0  0  0  0  0  0  0  0  0  0
  140.0990   80.2250  222.6380 N   0  0  0  0  0  0  0  0  0  0  0  0
  140.9310   81.2770  222.8610 C   0  0  0  0  0  0  0  0  0  0  0  0
  140.6273   82.2906  222.5602 H   0  0  0  0  0  0  0  0  0  0  0  0
  142.1700   81.0730  223.4710 C   0  0  0  0  0  0  0  0  0  0  0  0
  142.8444   81.9214  223.6589 H   0  0  0  0  0  0  0  0  0  0  0  0
  142.5430   79.7780  223.8400 C   0  0  0  0  0  0  0  0  0  0  0  0
  143.5198   79.6000  224.3134 H   0  0  0  0  0  0  0  0  0  0  0  0
  141.6740   78.7100  223.6070 C   0  0  0  0  0  0  0  0  0  0  0  0
  141.9590   77.6887  223.8999 H   0  0  0  0  0  0  0  0  0  0  0  0
  1  2  1  0
  2  3  2  0
  3  4  1  0
  3  5  1  0
  5  6  2  0
  6  7  1  0
  7  8  2  0
  8  9  1  0
  8 10  1  0
 10 11  1  0
 10 12  2  0
 12 13  1  0
 12 14  1  0
 14 15  1  0
 14 16  2  0
 16 17  1  0
 17 18  2  0
 17 19  1  0
 19 20  1  0
 20 21  1  0
 20 22  1  0
 20 23  1  0
 23 24  1  0
 23 25  1  0
 25 26  1  0
 25 27  1  0
 25 28  1  0
 28 29  1  0
 28 30  1  0
 28 31  1  0
 31 32  1  0
 31 33  1  0
 31 34  1  0
 34 35  1  0
 34 36  1  0
 34 37  1  0
 37 38  1  0
 37 39  1  0
  2 40  1  0
 40 41  2  0
 41 42  1  0
 42 43  1  0
 42 44  2  0
 44 45  1  0
 44 46  1  0
 46 47  1  0
 46 48  2  0
 48 49  1  0
 19  5  1  0
 37 23  1  0
 48 40  1  0
 16  7  1  0
M  CHG  1  31   1
M  END
>  <UniqueID>  (74) 
442

>  <SMILES>  (74) 
O=c1c2ccccc2nc(/C=C/c2ccccn2)n1CC1CC[NH2+]CC1

>  <Energy>  (74) 
67.7571269579274

>  <Genealogy>  (74) 
O=c1c2ccccc2nc(/C=C/c2ccccn2)n1CC1CC[NH2+]CC1 (protonated)
O=c1c2ccccc2nc(/C=C/c2ccccn2)n1CC1CC[NH2+]CC1 (cis-trans isomerization)
O=c1c2ccccc2nc(/C=C/c2ccccn2)n1CC1CC[NH2+]CC1 (3D coordinates assigned)
O=c1c2ccccc2nc(/C=C/c2ccccn2)n1CC1CC[NH2+]CC1 (nonaromatic ring conformer: 67.7571269579274 kcal/mol)

>  <smiles>  (74) 
O=c1c2ccccc2nc(/C=C/c2ccccn2)n1CC1CCNCC1

>  <score_type>  (74) 
oracle

>  <origin>  (74) 
autodockgpu

>  <m_score__min__energy>  (74) 
-7.5

>  <m_primary>  (74) 
energy

>  <meeko>  (74) 
{"free_energy": -7.39, "intermolecular_energy": -8.88, "internal_energy": -1.19, "cluster_size": 4, "cluster_id": 2, "rank_in_cluster": 1}

>  <energy>  (74) 
-6.33

>  <cluster_rmsd>  (74) 
0.58

>  <rmsd>  (74) 
273.48

>  <cluster>  (74) 
5

$$$$
BQTJSOOYCKASGQ-IDUMZPQDNA-O
     RDKit          3D

 49 52  0  0  0  0  0  0  0  0999 V2000
  143.7688   79.8140  222.7584 H   0  0  0  0  0  0  0  0  0  0  0  0
  142.6830   79.8450  222.5850 C   0  0  0  0  0  0  0  0  0  0  0  0
  141.9080   78.9310  223.1860 C   0  0  0  0  0  0  0  0  0  0  0  0
  142.3772   78.1030  223.7376 H   0  0  0  0  0  0  0  0  0  0  0  0
  140.4290   79.0170  223.1200 C   0  0  0  0  0  0  0  0  0  0  0  0
  139.8130   79.8470  224.0040 N   0  0  0  0  0  0  0  0  0  0  0  0
  138.4730   80.0160  224.0160 C   0  0  0  0  0  0  0  0  0  0  0  0
  137.8850   80.8850  224.9450 C   0  0  0  0  0  0  0  0  0  0  0  0
  138.5144   81.4269  225.6662 H   0  0  0  0  0  0  0  0  0  0  0  0
  136.4990   81.0630  224.9550 C   0  0  0  0  0  0  0  0  0  0  0  0
  136.0379   81.7440  225.6855 H   0  0  0  0  0  0  0  0  0  0  0  0
  135.6970   80.3760  224.0370 C   0  0  0  0  0  0  0  0  0  0  0  0
  134.6064   80.5188  224.0466 H   0  0  0  0  0  0  0  0  0  0  0  0
  136.2790   79.5080  223.1070 C   0  0  0  0  0  0  0  0  0  0  0  0
  135.6456   78.9695  222.3867 H   0  0  0  0  0  0  0  0  0  0  0  0
  137.6750   79.3230  223.0920 C   0  0  0  0  0  0  0  0  0  0  0  0
  138.3100   78.4560  222.1850 C   0  0  0  0  0  0  0  0  0  0  0  0
  137.6090   77.8080  221.3560 O   0  0  0  0  0  0  0  0  0  0  0  0
  139.6790   78.3050  222.2030 N   0  0  0  0  0  0  0  0  0  0  0  0
  140.2920   77.3070  221.2920 C   0  0  0  0  0  0  0  0  0  0  0  0
  140.8929   76.6030  221.8864 H   0  0  0  0  0  0  0  0  0  0  0  0
  139.4831   76.7831  220.7616 H   0  0  0  0  0  0  0  0  0  0  0  0
  141.2030   77.9800  220.2400 C   0  0  0  0  0  0  0  0  0  0  0  0
  141.5319   78.9414  220.6614 H   0  0  0  0  0  0  0  0  0  0  0  0
  142.4410   77.0960  219.9550 C   0  0  0  0  0  0  0  0  0  0  0  0
  143.1923   77.2810  220.7368 H   0  0  0  0  0  0  0  0  0  0  0  0
  142.1057   76.0484  219.9507 H   0  0  0  0  0  0  0  0  0  0  0  0
  143.0790   77.3850  218.5800 C   0  0  0  0  0  0  0  0  0  0  0  0
  144.1674   77.2445  218.6543 H   0  0  0  0  0  0  0  0  0  0  0  0
  142.6440   76.6917  217.8450 H   0  0  0  0  0  0  0  0  0  0  0  0
  142.8040   78.7590  218.1370 N   0  0  0  0  0  0  0  0  0  0  0  0
  143.3270   78.9380  217.2460 H   0  0  0  0  0  0  0  0  0  0  0  0
  143.1540   79.4360  218.8540 H   0  0  0  0  0  0  0  0  0  0  0  0
  141.3650   78.9820  217.8940 C   0  0  0  0  0  0  0  0  0  0  0  0
  141.1691   80.0639  217.9279 H   0  0  0  0  0  0  0  0  0  0  0  0
  141.1303   78.5479  216.9109 H   0  0  0  0  0  0  0  0  0  0  0  0
  140.4530   78.2860  218.9300 C   0  0  0  0  0  0  0  0  0  0  0  0
  139.6009   78.9448  219.1534 H   0  0  0  0  0  0  0  0  0  0  0  0
  140.1139   77.3320  218.4999 H   0  0  0  0  0  0  0  0  0  0  0  0
  142.1350   80.8920  221.6990 C   0  0  0  0  0  0  0  0  0  0  0  0
  142.2070   80.7670  220.3420 N   0  0  0  0  0  0  0  0  0  0  0  0
  141.6930   81.7070  219.5040 C   0  0  0  0  0  0  0  0  0  0  0  0
  141.7697   81.5731  218.4149 H   0  0  0  0  0  0  0  0  0  0  0  0
  141.0680   82.8420  220.0250 C   0  0  0  0  0  0  0  0  0  0  0  0
  140.6446   83.6024  219.3523 H   0  0  0  0  0  0  0  0  0  0  0  0
  140.9870   83.0000  221.4100 C   0  0  0  0  0  0  0  0  0  0  0  0
  140.5055   83.8930  221.8351 H   0  0  0  0  0  0  0  0  0  0  0  0
  141.5180   82.0230  222.2550 C   0  0  0  0  0  0  0  0  0  0  0  0
  141.4531   82.1391  223.3469 H   0  0  0  0  0  0  0  0  0  0  0  0
  1  2  1  0
  2  3  2  0
  3  4  1  0
  3  5  1  0
  5  6  2  0
  6  7  1  0
  7  8  2  0
  8  9  1  0
  8 10  1  0
 10 11  1  0
 10 12  2  0
 12 13  1  0
 12 14  1  0
 14 15  1  0
 14 16  2  0
 16 17  1  0
 17 18  2  0
 17 19  1  0
 19 20  1  0
 20 21  1  0
 20 22  1  0
 20 23  1  0
 23 24  1  0
 23 25  1  0
 25 26  1  0
 25 27  1  0
 25 28  1  0
 28 29  1  0
 28 30  1  0
 28 31  1  0
 31 32  1  0
 31 33  1  0
 31 34  1  0
 34 35  1  0
 34 36  1  0
 34 37  1  0
 37 38  1  0
 37 39  1  0
  2 40  1  0
 40 41  2  0
 41 42  1  0
 42 43  1  0
 42 44  2  0
 44 45  1  0
 44 46  1  0
 46 47  1  0
 46 48  2  0
 48 49  1  0
 19  5  1  0
 37 23  1  0
 48 40  1  0
 16  7  1  0
M  CHG  1  31   1
M  END
>  <UniqueID>  (75) 
442

>  <SMILES>  (75) 
O=c1c2ccccc2nc(/C=C/c2ccccn2)n1CC1CC[NH2+]CC1

>  <Energy>  (75) 
67.7571269579274

>  <Genealogy>  (75) 
O=c1c2ccccc2nc(/C=C/c2ccccn2)n1CC1CC[NH2+]CC1 (protonated)
O=c1c2ccccc2nc(/C=C/c2ccccn2)n1CC1CC[NH2+]CC1 (cis-trans isomerization)
O=c1c2ccccc2nc(/C=C/c2ccccn2)n1CC1CC[NH2+]CC1 (3D coordinates assigned)
O=c1c2ccccc2nc(/C=C/c2ccccn2)n1CC1CC[NH2+]CC1 (nonaromatic ring conformer: 67.7571269579274 kcal/mol)

>  <smiles>  (75) 
O=c1c2ccccc2nc(/C=C/c2ccccn2)n1CC1CCNCC1

>  <score_type>  (75) 
oracle

>  <origin>  (75) 
autodockgpu

>  <m_score__min__energy>  (75) 
-7.5

>  <m_primary>  (75) 
energy

>  <meeko>  (75) 
{"free_energy": -6.33, "intermolecular_energy": -7.82, "internal_energy": -2.42, "cluster_size": 11, "cluster_id": 5, "rank_in_cluster": 7}

>  <energy>  (75) 
-6.33

>  <cluster_rmsd>  (75) 
0.58

>  <rmsd>  (75) 
273.51

>  <cluster>  (75) 
5

$$$$
BQTJSOOYCKASGQ-IDUMZPQDNA-O
     RDKit          3D

 49 52  0  0  0  0  0  0  0  0999 V2000
  143.7503   79.7694  222.7718 H   0  0  0  0  0  0  0  0  0  0  0  0
  142.6650   79.8120  222.5980 C   0  0  0  0  0  0  0  0  0  0  0  0
  141.8810   78.9010  223.1910 C   0  0  0  0  0  0  0  0  0  0  0  0
  142.3422   78.0640  223.7357 H   0  0  0  0  0  0  0  0  0  0  0  0
  140.4040   79.0010  223.1260 C   0  0  0  0  0  0  0  0  0  0  0  0
  139.7940   79.8270  224.0170 N   0  0  0  0  0  0  0  0  0  0  0  0
  138.4550   80.0080  224.0300 C   0  0  0  0  0  0  0  0  0  0  0  0
  137.8740   80.8720  224.9670 C   0  0  0  0  0  0  0  0  0  0  0  0
  138.5075   81.4010  225.6942 H   0  0  0  0  0  0  0  0  0  0  0  0
  136.4890   81.0620  224.9780 C   0  0  0  0  0  0  0  0  0  0  0  0
  136.0329   81.7389  225.7154 H   0  0  0  0  0  0  0  0  0  0  0  0
  135.6830   80.3920  224.0520 C   0  0  0  0  0  0  0  0  0  0  0  0
  134.5937   80.5449  224.0613 H   0  0  0  0  0  0  0  0  0  0  0  0
  136.2580   79.5280  223.1140 C   0  0  0  0  0  0  0  0  0  0  0  0
  135.6204   79.0019  222.3882 H   0  0  0  0  0  0  0  0  0  0  0  0
  137.6530   79.3310  223.0980 C   0  0  0  0  0  0  0  0  0  0  0  0
  138.2800   78.4680  222.1830 C   0  0  0  0  0  0  0  0  0  0  0  0
  137.5740   77.8340  221.3470 O   0  0  0  0  0  0  0  0  0  0  0  0
  139.6480   78.3040  222.2010 N   0  0  0  0  0  0  0  0  0  0  0  0
  140.2530   77.3110  221.2800 C   0  0  0  0  0  0  0  0  0  0  0  0
  140.8426   76.5922  221.8680 H   0  0  0  0  0  0  0  0  0  0  0  0
  139.4399   76.8046  220.7393 H   0  0  0  0  0  0  0  0  0  0  0  0
  141.1770   77.9850  220.2400 C   0  0  0  0  0  0  0  0  0  0  0  0
  141.5041   78.9439  220.6684 H   0  0  0  0  0  0  0  0  0  0  0  0
  142.4160   77.0990  219.9650 C   0  0  0  0  0  0  0  0  0  0  0  0
  143.1590   77.2787  220.7560 H   0  0  0  0  0  0  0  0  0  0  0  0
  142.0780   76.0523  219.9523 H   0  0  0  0  0  0  0  0  0  0  0  0
  143.0700   77.3920  218.5990 C   0  0  0  0  0  0  0  0  0  0  0  0
  144.1573   77.2490  218.6853 H   0  0  0  0  0  0  0  0  0  0  0  0
  142.6419   76.7025  217.8565 H   0  0  0  0  0  0  0  0  0  0  0  0
  142.8030   78.7680  218.1580 N   0  0  0  0  0  0  0  0  0  0  0  0
  143.3350   78.9500  217.2740 H   0  0  0  0  0  0  0  0  0  0  0  0
  143.1470   79.4420  218.8810 H   0  0  0  0  0  0  0  0  0  0  0  0
  141.3670   78.9960  217.9000 C   0  0  0  0  0  0  0  0  0  0  0  0
  141.1736   80.0783  217.9360 H   0  0  0  0  0  0  0  0  0  0  0  0
  141.1417   78.5667  216.9126 H   0  0  0  0  0  0  0  0  0  0  0  0
  140.4420   78.2980  218.9240 C   0  0  0  0  0  0  0  0  0  0  0  0
  139.5893   78.9581  219.1410 H   0  0  0  0  0  0  0  0  0  0  0  0
  140.1051   77.3466  218.4866 H   0  0  0  0  0  0  0  0  0  0  0  0
  142.1270   80.8710  221.7200 C   0  0  0  0  0  0  0  0  0  0  0  0
  142.2020   80.7580  220.3620 N   0  0  0  0  0  0  0  0  0  0  0  0
  141.6970   81.7080  219.5310 C   0  0  0  0  0  0  0  0  0  0  0  0
  141.7753   81.5825  218.4410 H   0  0  0  0  0  0  0  0  0  0  0  0
  141.0790   82.8430  220.0600 C   0  0  0  0  0  0  0  0  0  0  0  0
  140.6632   83.6123  219.3926 H   0  0  0  0  0  0  0  0  0  0  0  0
  140.9950   82.9900  221.4460 C   0  0  0  0  0  0  0  0  0  0  0  0
  140.5190   83.8830  221.8772 H   0  0  0  0  0  0  0  0  0  0  0  0
  141.5160   82.0020  222.2840 C   0  0  0  0  0  0  0  0  0  0  0  0
  141.4482   82.1090  223.3767 H   0  0  0  0  0  0  0  0  0  0  0  0
  1  2  1  0
  2  3  2  0
  3  4  1  0
  3  5  1  0
  5  6  2  0
  6  7  1  0
  7  8  2  0
  8  9  1  0
  8 10  1  0
 10 11  1  0
 10 12  2  0
 12 13  1  0
 12 14  1  0
 14 15  1  0
 14 16  2  0
 16 17  1  0
 17 18  2  0
 17 19  1  0
 19 20  1  0
 20 21  1  0
 20 22  1  0
 20 23  1  0
 23 24  1  0
 23 25  1  0
 25 26  1  0
 25 27  1  0
 25 28  1  0
 28 29  1  0
 28 30  1  0
 28 31  1  0
 31 32  1  0
 31 33  1  0
 31 34  1  0
 34 35  1  0
 34 36  1  0
 34 37  1  0
 37 38  1  0
 37 39  1  0
  2 40  1  0
 40 41  2  0
 41 42  1  0
 42 43  1  0
 42 44  2  0
 44 45  1  0
 44 46  1  0
 46 47  1  0
 46 48  2  0
 48 49  1  0
 19  5  1  0
 37 23  1  0
 48 40  1  0
 16  7  1  0
M  CHG  1  31   1
M  END
>  <UniqueID>  (76) 
442

>  <SMILES>  (76) 
O=c1c2ccccc2nc(/C=C/c2ccccn2)n1CC1CC[NH2+]CC1

>  <Energy>  (76) 
67.7571269579274

>  <Genealogy>  (76) 
O=c1c2ccccc2nc(/C=C/c2ccccn2)n1CC1CC[NH2+]CC1 (protonated)
O=c1c2ccccc2nc(/C=C/c2ccccn2)n1CC1CC[NH2+]CC1 (cis-trans isomerization)
O=c1c2ccccc2nc(/C=C/c2ccccn2)n1CC1CC[NH2+]CC1 (3D coordinates assigned)
O=c1c2ccccc2nc(/C=C/c2ccccn2)n1CC1CC[NH2+]CC1 (nonaromatic ring conformer: 67.7571269579274 kcal/mol)

>  <smiles>  (76) 
O=c1c2ccccc2nc(/C=C/c2ccccn2)n1CC1CCNCC1

>  <score_type>  (76) 
oracle

>  <origin>  (76) 
autodockgpu

>  <m_score__min__energy>  (76) 
-7.5

>  <m_primary>  (76) 
energy

>  <meeko>  (76) 
{"free_energy": -6.32, "intermolecular_energy": -7.81, "internal_energy": -2.42, "cluster_size": 11, "cluster_id": 5, "rank_in_cluster": 10}

>  <energy>  (76) 
-6.33

>  <cluster_rmsd>  (76) 
0.61

>  <rmsd>  (76) 
273.49

>  <cluster>  (76) 
5

$$$$
BQTJSOOYCKASGQ-IDUMZPQDNA-O
     RDKit          3D

 49 52  0  0  0  0  0  0  0  0999 V2000
  143.7533   79.7920  222.7149 H   0  0  0  0  0  0  0  0  0  0  0  0
  142.6650   79.8390  222.5620 C   0  0  0  0  0  0  0  0  0  0  0  0
  141.8870   78.9440  223.1860 C   0  0  0  0  0  0  0  0  0  0  0  0
  142.3536   78.1271  223.7560 H   0  0  0  0  0  0  0  0  0  0  0  0
  140.4090   79.0350  223.1220 C   0  0  0  0  0  0  0  0  0  0  0  0
  139.7950   79.8660  224.0060 N   0  0  0  0  0  0  0  0  0  0  0  0
  138.4560   80.0400  224.0190 C   0  0  0  0  0  0  0  0  0  0  0  0
  137.8710   80.9100  224.9490 C   0  0  0  0  0  0  0  0  0  0  0  0
  138.5024   81.4495  225.6703 H   0  0  0  0  0  0  0  0  0  0  0  0
  136.4860   81.0920  224.9600 C   0  0  0  0  0  0  0  0  0  0  0  0
  136.0273   81.7734  225.6916 H   0  0  0  0  0  0  0  0  0  0  0  0
  135.6820   80.4090  224.0420 C   0  0  0  0  0  0  0  0  0  0  0  0
  134.5920   80.5564  224.0514 H   0  0  0  0  0  0  0  0  0  0  0  0
  136.2600   79.5390  223.1120 C   0  0  0  0  0  0  0  0  0  0  0  0
  135.6239   79.0023  222.3928 H   0  0  0  0  0  0  0  0  0  0  0  0
  137.6560   79.3490  223.0950 C   0  0  0  0  0  0  0  0  0  0  0  0
  138.2870   78.4810  222.1870 C   0  0  0  0  0  0  0  0  0  0  0  0
  137.5830   77.8360  221.3580 O   0  0  0  0  0  0  0  0  0  0  0  0
  139.6560   78.3250  222.2050 N   0  0  0  0  0  0  0  0  0  0  0  0
  140.2650   77.3260  221.2930 C   0  0  0  0  0  0  0  0  0  0  0  0
  140.8645   76.6199  221.8863 H   0  0  0  0  0  0  0  0  0  0  0  0
  139.4540   76.8048  220.7632 H   0  0  0  0  0  0  0  0  0  0  0  0
  141.1770   77.9970  220.2400 C   0  0  0  0  0  0  0  0  0  0  0  0
  141.5187   78.9519  220.6660 H   0  0  0  0  0  0  0  0  0  0  0  0
  142.4040   77.1020  219.9410 C   0  0  0  0  0  0  0  0  0  0  0  0
  143.1620   77.2735  220.7195 H   0  0  0  0  0  0  0  0  0  0  0  0
  142.0575   76.0581  219.9311 H   0  0  0  0  0  0  0  0  0  0  0  0
  143.0370   77.3940  218.5640 C   0  0  0  0  0  0  0  0  0  0  0  0
  144.1244   77.2420  218.6307 H   0  0  0  0  0  0  0  0  0  0  0  0
  142.5912   76.7103  217.8266 H   0  0  0  0  0  0  0  0  0  0  0  0
  142.7730   78.7740  218.1330 N   0  0  0  0  0  0  0  0  0  0  0  0
  143.2920   78.9540  217.2400 H   0  0  0  0  0  0  0  0  0  0  0  0
  143.1350   79.4420  218.8520 H   0  0  0  0  0  0  0  0  0  0  0  0
  141.3350   79.0140  217.9000 C   0  0  0  0  0  0  0  0  0  0  0  0
  141.1505   80.0976  217.9433 H   0  0  0  0  0  0  0  0  0  0  0  0
  141.0898   78.5904  216.9149 H   0  0  0  0  0  0  0  0  0  0  0  0
  140.4220   78.3190  218.9370 C   0  0  0  0  0  0  0  0  0  0  0  0
  139.5775   78.9842  219.1701 H   0  0  0  0  0  0  0  0  0  0  0  0
  140.0711   77.3714  218.5024 H   0  0  0  0  0  0  0  0  0  0  0  0
  142.1160   80.8870  221.6760 C   0  0  0  0  0  0  0  0  0  0  0  0
  142.2020   80.7700  220.3190 N   0  0  0  0  0  0  0  0  0  0  0  0
  141.6870   81.7090  219.4820 C   0  0  0  0  0  0  0  0  0  0  0  0
  141.7728   81.5804  218.3929 H   0  0  0  0  0  0  0  0  0  0  0  0
  141.0490   82.8370  220.0030 C   0  0  0  0  0  0  0  0  0  0  0  0
  140.6265   83.5980  219.3304 H   0  0  0  0  0  0  0  0  0  0  0  0
  140.9540   82.9870  221.3880 C   0  0  0  0  0  0  0  0  0  0  0  0
  140.4614   83.8738  221.8134 H   0  0  0  0  0  0  0  0  0  0  0  0
  141.4850   82.0100  222.2320 C   0  0  0  0  0  0  0  0  0  0  0  0
  141.4093   82.1197  223.3239 H   0  0  0  0  0  0  0  0  0  0  0  0
  1  2  1  0
  2  3  2  0
  3  4  1  0
  3  5  1  0
  5  6  2  0
  6  7  1  0
  7  8  2  0
  8  9  1  0
  8 10  1  0
 10 11  1  0
 10 12  2  0
 12 13  1  0
 12 14  1  0
 14 15  1  0
 14 16  2  0
 16 17  1  0
 17 18  2  0
 17 19  1  0
 19 20  1  0
 20 21  1  0
 20 22  1  0
 20 23  1  0
 23 24  1  0
 23 25  1  0
 25 26  1  0
 25 27  1  0
 25 28  1  0
 28 29  1  0
 28 30  1  0
 28 31  1  0
 31 32  1  0
 31 33  1  0
 31 34  1  0
 34 35  1  0
 34 36  1  0
 34 37  1  0
 37 38  1  0
 37 39  1  0
  2 40  1  0
 40 41  2  0
 41 42  1  0
 42 43  1  0
 42 44  2  0
 44 45  1  0
 44 46  1  0
 46 47  1  0
 46 48  2  0
 48 49  1  0
 19  5  1  0
 37 23  1  0
 48 40  1  0
 16  7  1  0
M  CHG  1  31   1
M  END
>  <UniqueID>  (77) 
442

>  <SMILES>  (77) 
O=c1c2ccccc2nc(/C=C/c2ccccn2)n1CC1CC[NH2+]CC1

>  <Energy>  (77) 
67.7571269579274

>  <Genealogy>  (77) 
O=c1c2ccccc2nc(/C=C/c2ccccn2)n1CC1CC[NH2+]CC1 (protonated)
O=c1c2ccccc2nc(/C=C/c2ccccn2)n1CC1CC[NH2+]CC1 (cis-trans isomerization)
O=c1c2ccccc2nc(/C=C/c2ccccn2)n1CC1CC[NH2+]CC1 (3D coordinates assigned)
O=c1c2ccccc2nc(/C=C/c2ccccn2)n1CC1CC[NH2+]CC1 (nonaromatic ring conformer: 67.7571269579274 kcal/mol)

>  <smiles>  (77) 
O=c1c2ccccc2nc(/C=C/c2ccccn2)n1CC1CCNCC1

>  <score_type>  (77) 
oracle

>  <origin>  (77) 
autodockgpu

>  <m_score__min__energy>  (77) 
-7.5

>  <m_primary>  (77) 
energy

>  <meeko>  (77) 
{"free_energy": -6.34, "intermolecular_energy": -7.83, "internal_energy": -2.42, "cluster_size": 11, "cluster_id": 5, "rank_in_cluster": 4}

>  <energy>  (77) 
-6.32

>  <cluster_rmsd>  (77) 
0.56

>  <rmsd>  (77) 
273.48

>  <cluster>  (77) 
5

$$$$
BQTJSOOYCKASGQ-IDUMZPQDNA-O
     RDKit          3D

 49 52  0  0  0  0  0  0  0  0999 V2000
  143.7314   79.9360  222.9272 H   0  0  0  0  0  0  0  0  0  0  0  0
  142.6620   79.8830  222.6750 C   0  0  0  0  0  0  0  0  0  0  0  0
  141.9120   78.9330  223.2480 C   0  0  0  0  0  0  0  0  0  0  0  0
  142.4024   78.1087  223.7866 H   0  0  0  0  0  0  0  0  0  0  0  0
  140.4320   78.9730  223.1690 C   0  0  0  0  0  0  0  0  0  0  0  0
  139.7840   79.8180  224.0140 N   0  0  0  0  0  0  0  0  0  0  0  0
  138.4400   79.9480  224.0100 C   0  0  0  0  0  0  0  0  0  0  0  0
  137.8190   80.8350  224.8990 C   0  0  0  0  0  0  0  0  0  0  0  0
  138.4266   81.4233  225.6024 H   0  0  0  0  0  0  0  0  0  0  0  0
  136.4290   80.9730  224.8930 C   0  0  0  0  0  0  0  0  0  0  0  0
  135.9427   81.6688  225.5926 H   0  0  0  0  0  0  0  0  0  0  0  0
  135.6550   80.2270  223.9980 C   0  0  0  0  0  0  0  0  0  0  0  0
  134.5607   80.3383  223.9942 H   0  0  0  0  0  0  0  0  0  0  0  0
  136.2690   79.3400  223.1080 C   0  0  0  0  0  0  0  0  0  0  0  0
  135.6570   78.7541  222.4064 H   0  0  0  0  0  0  0  0  0  0  0  0
  137.6710   79.1960  223.1090 C   0  0  0  0  0  0  0  0  0  0  0  0
  138.3380   78.3120  222.2420 C   0  0  0  0  0  0  0  0  0  0  0  0
  137.6620   77.6120  221.4350 O   0  0  0  0  0  0  0  0  0  0  0  0
  139.7110   78.2020  222.2760 N   0  0  0  0  0  0  0  0  0  0  0  0
  140.3590   77.1880  221.4090 C   0  0  0  0  0  0  0  0  0  0  0  0
  140.9783   76.5277  222.0339 H   0  0  0  0  0  0  0  0  0  0  0  0
  139.5692   76.6185  220.8972 H   0  0  0  0  0  0  0  0  0  0  0  0
  141.2540   77.8450  220.3340 C   0  0  0  0  0  0  0  0  0  0  0  0
  141.5814   78.8166  220.7325 H   0  0  0  0  0  0  0  0  0  0  0  0
  142.4950   76.9630  220.0530 C   0  0  0  0  0  0  0  0  0  0  0  0
  143.2537   77.1687  220.8224 H   0  0  0  0  0  0  0  0  0  0  0  0
  142.1665   75.9134  220.0736 H   0  0  0  0  0  0  0  0  0  0  0  0
  143.1160   77.2280  218.6650 C   0  0  0  0  0  0  0  0  0  0  0  0
  144.2061   77.0956  218.7297 H   0  0  0  0  0  0  0  0  0  0  0  0
  142.6776   76.5174  217.9489 H   0  0  0  0  0  0  0  0  0  0  0  0
  142.8270   78.5920  218.1980 N   0  0  0  0  0  0  0  0  0  0  0  0
  143.3380   78.7560  217.2980 H   0  0  0  0  0  0  0  0  0  0  0  0
  143.1810   79.2850  218.8970 H   0  0  0  0  0  0  0  0  0  0  0  0
  141.3840   78.8010  217.9670 C   0  0  0  0  0  0  0  0  0  0  0  0
  141.1814   79.8821  217.9816 H   0  0  0  0  0  0  0  0  0  0  0  0
  141.1412   78.3459  216.9955 H   0  0  0  0  0  0  0  0  0  0  0  0
  140.4880   78.1200  219.0270 C   0  0  0  0  0  0  0  0  0  0  0  0
  139.6341   78.7778  219.2467 H   0  0  0  0  0  0  0  0  0  0  0  0
  140.1506   77.1555  218.6198 H   0  0  0  0  0  0  0  0  0  0  0  0
  142.1090   80.8630  221.7170 C   0  0  0  0  0  0  0  0  0  0  0  0
  142.2030   80.6550  220.3720 N   0  0  0  0  0  0  0  0  0  0  0  0
  141.6840   81.5300  219.4700 C   0  0  0  0  0  0  0  0  0  0  0  0
  141.7778   81.3288  218.3926 H   0  0  0  0  0  0  0  0  0  0  0  0
  141.0320   82.6840  219.9100 C   0  0  0  0  0  0  0  0  0  0  0  0
  140.6046   83.3924  219.1851 H   0  0  0  0  0  0  0  0  0  0  0  0
  140.9290   82.9280  221.2810 C   0  0  0  0  0  0  0  0  0  0  0  0
  140.4264   83.8372  221.6426 H   0  0  0  0  0  0  0  0  0  0  0  0
  141.4650   82.0160  222.1920 C   0  0  0  0  0  0  0  0  0  0  0  0
  141.3832   82.1996  223.2735 H   0  0  0  0  0  0  0  0  0  0  0  0
  1  2  1  0
  2  3  2  0
  3  4  1  0
  3  5  1  0
  5  6  2  0
  6  7  1  0
  7  8  2  0
  8  9  1  0
  8 10  1  0
 10 11  1  0
 10 12  2  0
 12 13  1  0
 12 14  1  0
 14 15  1  0
 14 16  2  0
 16 17  1  0
 17 18  2  0
 17 19  1  0
 19 20  1  0
 20 21  1  0
 20 22  1  0
 20 23  1  0
 23 24  1  0
 23 25  1  0
 25 26  1  0
 25 27  1  0
 25 28  1  0
 28 29  1  0
 28 30  1  0
 28 31  1  0
 31 32  1  0
 31 33  1  0
 31 34  1  0
 34 35  1  0
 34 36  1  0
 34 37  1  0
 37 38  1  0
 37 39  1  0
  2 40  1  0
 40 41  2  0
 41 42  1  0
 42 43  1  0
 42 44  2  0
 44 45  1  0
 44 46  1  0
 46 47  1  0
 46 48  2  0
 48 49  1  0
 19  5  1  0
 37 23  1  0
 48 40  1  0
 16  7  1  0
M  CHG  1  31   1
M  END
>  <UniqueID>  (78) 
442

>  <SMILES>  (78) 
O=c1c2ccccc2nc(/C=C/c2ccccn2)n1CC1CC[NH2+]CC1

>  <Energy>  (78) 
67.7571269579274

>  <Genealogy>  (78) 
O=c1c2ccccc2nc(/C=C/c2ccccn2)n1CC1CC[NH2+]CC1 (protonated)
O=c1c2ccccc2nc(/C=C/c2ccccn2)n1CC1CC[NH2+]CC1 (cis-trans isomerization)
O=c1c2ccccc2nc(/C=C/c2ccccn2)n1CC1CC[NH2+]CC1 (3D coordinates assigned)
O=c1c2ccccc2nc(/C=C/c2ccccn2)n1CC1CC[NH2+]CC1 (nonaromatic ring conformer: 67.7571269579274 kcal/mol)

>  <smiles>  (78) 
O=c1c2ccccc2nc(/C=C/c2ccccn2)n1CC1CCNCC1

>  <score_type>  (78) 
oracle

>  <origin>  (78) 
autodockgpu

>  <m_score__min__energy>  (78) 
-7.5

>  <m_primary>  (78) 
energy

>  <meeko>  (78) 
{"free_energy": -6.35, "intermolecular_energy": -7.84, "internal_energy": -2.38, "cluster_size": 11, "cluster_id": 5, "rank_in_cluster": 2}

>  <energy>  (78) 
-6.32

>  <cluster_rmsd>  (78) 
0.59

>  <rmsd>  (78) 
273.51

>  <cluster>  (78) 
5

$$$$
BQTJSOOYCKASGQ-IDUMZPQDNA-O
     RDKit          3D

 49 52  0  0  0  0  0  0  0  0999 V2000
  138.7914   77.5514  223.5078 H   0  0  0  0  0  0  0  0  0  0  0  0
  139.5060   77.8320  222.7200 C   0  0  0  0  0  0  0  0  0  0  0  0
  139.5010   77.1430  221.5710 C   0  0  0  0  0  0  0  0  0  0  0  0
  138.5941   77.1368  220.9485 H   0  0  0  0  0  0  0  0  0  0  0  0
  140.6960   76.3890  221.1240 C   0  0  0  0  0  0  0  0  0  0  0  0
  140.7070   75.0480  221.3460 N   0  0  0  0  0  0  0  0  0  0  0  0
  141.7370   74.2640  220.9600 C   0  0  0  0  0  0  0  0  0  0  0  0
  141.7000   72.8850  221.2100 C   0  0  0  0  0  0  0  0  0  0  0  0
  140.8338   72.4423  221.7236 H   0  0  0  0  0  0  0  0  0  0  0  0
  142.7630   72.0730  220.8070 C   0  0  0  0  0  0  0  0  0  0  0  0
  142.7340   70.9914  221.0051 H   0  0  0  0  0  0  0  0  0  0  0  0
  143.8640   72.6340  220.1520 C   0  0  0  0  0  0  0  0  0  0  0  0
  144.6991   71.9922  219.8348 H   0  0  0  0  0  0  0  0  0  0  0  0
  143.9060   74.0100  219.8990 C   0  0  0  0  0  0  0  0  0  0  0  0
  144.7740   74.4477  219.3841 H   0  0  0  0  0  0  0  0  0  0  0  0
  142.8380   74.8350  220.3030 C   0  0  0  0  0  0  0  0  0  0  0  0
  142.8340   76.2230  220.0820 C   0  0  0  0  0  0  0  0  0  0  0  0
  143.8240   76.7600  219.5090 O   0  0  0  0  0  0  0  0  0  0  0  0
  141.7680   76.9930  220.4940 N   0  0  0  0  0  0  0  0  0  0  0  0
  141.8530   78.4650  220.3240 C   0  0  0  0  0  0  0  0  0  0  0  0
  140.8824   78.9110  220.5868 H   0  0  0  0  0  0  0  0  0  0  0  0
  142.6502   78.8411  220.9820 H   0  0  0  0  0  0  0  0  0  0  0  0
  142.2050   78.8520  218.8700 C   0  0  0  0  0  0  0  0  0  0  0  0
  143.2839   78.6812  218.7402 H   0  0  0  0  0  0  0  0  0  0  0  0
  141.4240   77.9650  217.8710 C   0  0  0  0  0  0  0  0  0  0  0  0
  141.9594   77.0110  217.7555 H   0  0  0  0  0  0  0  0  0  0  0  0
  140.4128   77.8196  218.2787 H   0  0  0  0  0  0  0  0  0  0  0  0
  141.2740   78.6170  216.4810 C   0  0  0  0  0  0  0  0  0  0  0  0
  141.2928   77.8298  215.7129 H   0  0  0  0  0  0  0  0  0  0  0  0
  140.3200   79.1642  216.4573 H   0  0  0  0  0  0  0  0  0  0  0  0
  142.3600   79.5710  216.2140 N   0  0  0  0  0  0  0  0  0  0  0  0
  142.2680   79.9220  215.2310 H   0  0  0  0  0  0  0  0  0  0  0  0
  143.2830   79.0840  216.2930 H   0  0  0  0  0  0  0  0  0  0  0  0
  142.3190   80.7250  217.1340 C   0  0  0  0  0  0  0  0  0  0  0  0
  143.3131   81.1957  217.1478 H   0  0  0  0  0  0  0  0  0  0  0  0
  141.5409   81.4086  216.7636 H   0  0  0  0  0  0  0  0  0  0  0  0
  141.9380   80.3410  218.5830 C   0  0  0  0  0  0  0  0  0  0  0  0
  142.5320   80.9499  219.2804 H   0  0  0  0  0  0  0  0  0  0  0  0
  140.8616   80.5263  218.7136 H   0  0  0  0  0  0  0  0  0  0  0  0
  140.4340   78.9540  222.9700 C   0  0  0  0  0  0  0  0  0  0  0  0
  140.0990   80.2300  222.6200 N   0  0  0  0  0  0  0  0  0  0  0  0
  140.9260   81.2820  222.8580 C   0  0  0  0  0  0  0  0  0  0  0  0
  140.6214   82.2973  222.5642 H   0  0  0  0  0  0  0  0  0  0  0  0
  142.1620   81.0760  223.4750 C   0  0  0  0  0  0  0  0  0  0  0  0
  142.8330   81.9244  223.6747 H   0  0  0  0  0  0  0  0  0  0  0  0
  142.5350   79.7800  223.8350 C   0  0  0  0  0  0  0  0  0  0  0  0
  143.5090   79.6004  224.3137 H   0  0  0  0  0  0  0  0  0  0  0  0
  141.6710   78.7120  223.5870 C   0  0  0  0  0  0  0  0  0  0  0  0
  141.9574   77.6891  223.8729 H   0  0  0  0  0  0  0  0  0  0  0  0
  1  2  1  0
  2  3  2  0
  3  4  1  0
  3  5  1  0
  5  6  2  0
  6  7  1  0
  7  8  2  0
  8  9  1  0
  8 10  1  0
 10 11  1  0
 10 12  2  0
 12 13  1  0
 12 14  1  0
 14 15  1  0
 14 16  2  0
 16 17  1  0
 17 18  2  0
 17 19  1  0
 19 20  1  0
 20 21  1  0
 20 22  1  0
 20 23  1  0
 23 24  1  0
 23 25  1  0
 25 26  1  0
 25 27  1  0
 25 28  1  0
 28 29  1  0
 28 30  1  0
 28 31  1  0
 31 32  1  0
 31 33  1  0
 31 34  1  0
 34 35  1  0
 34 36  1  0
 34 37  1  0
 37 38  1  0
 37 39  1  0
  2 40  1  0
 40 41  2  0
 41 42  1  0
 42 43  1  0
 42 44  2  0
 44 45  1  0
 44 46  1  0
 46 47  1  0
 46 48  2  0
 48 49  1  0
 19  5  1  0
 37 23  1  0
 48 40  1  0
 16  7  1  0
M  CHG  1  31   1
M  END
>  <UniqueID>  (79) 
442

>  <SMILES>  (79) 
O=c1c2ccccc2nc(/C=C/c2ccccn2)n1CC1CC[NH2+]CC1

>  <Energy>  (79) 
67.7571269579274

>  <Genealogy>  (79) 
O=c1c2ccccc2nc(/C=C/c2ccccn2)n1CC1CC[NH2+]CC1 (protonated)
O=c1c2ccccc2nc(/C=C/c2ccccn2)n1CC1CC[NH2+]CC1 (cis-trans isomerization)
O=c1c2ccccc2nc(/C=C/c2ccccn2)n1CC1CC[NH2+]CC1 (3D coordinates assigned)
O=c1c2ccccc2nc(/C=C/c2ccccn2)n1CC1CC[NH2+]CC1 (nonaromatic ring conformer: 67.7571269579274 kcal/mol)

>  <smiles>  (79) 
O=c1c2ccccc2nc(/C=C/c2ccccn2)n1CC1CCNCC1

>  <score_type>  (79) 
oracle

>  <origin>  (79) 
autodockgpu

>  <m_score__min__energy>  (79) 
-7.5

>  <m_primary>  (79) 
energy

>  <meeko>  (79) 
{"free_energy": -7.35, "intermolecular_energy": -8.84, "internal_energy": -1.21, "cluster_size": 4, "cluster_id": 2, "rank_in_cluster": 3}

>  <energy>  (79) 
-6.32

>  <cluster_rmsd>  (79) 
0.6

>  <rmsd>  (79) 
273.48

>  <cluster>  (79) 
5

$$$$
BQTJSOOYCKASGQ-IDUMZPQDNA-O
     RDKit          3D

 49 52  0  0  0  0  0  0  0  0999 V2000
  143.7804   79.8647  222.7237 H   0  0  0  0  0  0  0  0  0  0  0  0
  142.6950   79.8680  222.5450 C   0  0  0  0  0  0  0  0  0  0  0  0
  141.9380   78.9460  223.1560 C   0  0  0  0  0  0  0  0  0  0  0  0
  142.4235   78.1237  223.7019 H   0  0  0  0  0  0  0  0  0  0  0  0
  140.4580   79.0150  223.1090 C   0  0  0  0  0  0  0  0  0  0  0  0
  139.8440   79.8470  223.9920 N   0  0  0  0  0  0  0  0  0  0  0  0
  138.5020   80.0010  224.0200 C   0  0  0  0  0  0  0  0  0  0  0  0
  137.9160   80.8720  224.9470 C   0  0  0  0  0  0  0  0  0  0  0  0
  138.5484   81.4288  225.6541 H   0  0  0  0  0  0  0  0  0  0  0  0
  136.5280   81.0340  224.9740 C   0  0  0  0  0  0  0  0  0  0  0  0
  136.0686   81.7163  225.7044 H   0  0  0  0  0  0  0  0  0  0  0  0
  135.7230   80.3300  224.0740 C   0  0  0  0  0  0  0  0  0  0  0  0
  134.6311   80.4617  224.0953 H   0  0  0  0  0  0  0  0  0  0  0  0
  136.3030   79.4580  223.1460 C   0  0  0  0  0  0  0  0  0  0  0  0
  135.6664   78.9038  222.4406 H   0  0  0  0  0  0  0  0  0  0  0  0
  137.7010   79.2890  223.1140 C   0  0  0  0  0  0  0  0  0  0  0  0
  138.3340   78.4200  222.2080 C   0  0  0  0  0  0  0  0  0  0  0  0
  137.6290   77.7550  221.3950 O   0  0  0  0  0  0  0  0  0  0  0  0
  139.7050   78.2840  222.2100 N   0  0  0  0  0  0  0  0  0  0  0  0
  140.3170   77.2840  221.3010 C   0  0  0  0  0  0  0  0  0  0  0  0
  140.9333   76.5926  221.8944 H   0  0  0  0  0  0  0  0  0  0  0  0
  139.5070   76.7463  220.7864 H   0  0  0  0  0  0  0  0  0  0  0  0
  141.2070   77.9560  220.2300 C   0  0  0  0  0  0  0  0  0  0  0  0
  141.5343   78.9237  220.6380 H   0  0  0  0  0  0  0  0  0  0  0  0
  142.4480   77.0810  219.9350 C   0  0  0  0  0  0  0  0  0  0  0  0
  143.2087   77.2793  220.7044 H   0  0  0  0  0  0  0  0  0  0  0  0
  142.1221   76.0304  219.9443 H   0  0  0  0  0  0  0  0  0  0  0  0
  143.0640   77.3640  218.5480 C   0  0  0  0  0  0  0  0  0  0  0  0
  144.1545   77.2329  218.6075 H   0  0  0  0  0  0  0  0  0  0  0  0
  142.6247   76.6612  217.8247 H   0  0  0  0  0  0  0  0  0  0  0  0
  142.7710   78.7320  218.0990 N   0  0  0  0  0  0  0  0  0  0  0  0
  143.2790   78.9080  217.1990 H   0  0  0  0  0  0  0  0  0  0  0  0
  143.1260   79.4180  218.8050 H   0  0  0  0  0  0  0  0  0  0  0  0
  141.3270   78.9410  217.8750 C   0  0  0  0  0  0  0  0  0  0  0  0
  141.1224   80.0214  217.9034 H   0  0  0  0  0  0  0  0  0  0  0  0
  141.0821   78.4972  216.8987 H   0  0  0  0  0  0  0  0  0  0  0  0
  140.4350   78.2450  218.9300 C   0  0  0  0  0  0  0  0  0  0  0  0
  139.5807   78.8984  219.1609 H   0  0  0  0  0  0  0  0  0  0  0  0
  140.0969   77.2851  218.5124 H   0  0  0  0  0  0  0  0  0  0  0  0
  142.1270   80.8880  221.6410 C   0  0  0  0  0  0  0  0  0  0  0  0
  142.2000   80.7400  220.2860 N   0  0  0  0  0  0  0  0  0  0  0  0
  141.6670   81.6550  219.4320 C   0  0  0  0  0  0  0  0  0  0  0  0
  141.7435   81.5021  218.3454 H   0  0  0  0  0  0  0  0  0  0  0  0
  141.0230   82.7880  219.9330 C   0  0  0  0  0  0  0  0  0  0  0  0
  140.5854   83.5284  219.2472 H   0  0  0  0  0  0  0  0  0  0  0  0
  140.9410   82.9700  221.3150 C   0  0  0  0  0  0  0  0  0  0  0  0
  140.4437   83.8616  221.7246 H   0  0  0  0  0  0  0  0  0  0  0  0
  141.4910   82.0190  222.1760 C   0  0  0  0  0  0  0  0  0  0  0  0
  141.4265   82.1549  223.2657 H   0  0  0  0  0  0  0  0  0  0  0  0
  1  2  1  0
  2  3  2  0
  3  4  1  0
  3  5  1  0
  5  6  2  0
  6  7  1  0
  7  8  2  0
  8  9  1  0
  8 10  1  0
 10 11  1  0
 10 12  2  0
 12 13  1  0
 12 14  1  0
 14 15  1  0
 14 16  2  0
 16 17  1  0
 17 18  2  0
 17 19  1  0
 19 20  1  0
 20 21  1  0
 20 22  1  0
 20 23  1  0
 23 24  1  0
 23 25  1  0
 25 26  1  0
 25 27  1  0
 25 28  1  0
 28 29  1  0
 28 30  1  0
 28 31  1  0
 31 32  1  0
 31 33  1  0
 31 34  1  0
 34 35  1  0
 34 36  1  0
 34 37  1  0
 37 38  1  0
 37 39  1  0
  2 40  1  0
 40 41  2  0
 41 42  1  0
 42 43  1  0
 42 44  2  0
 44 45  1  0
 44 46  1  0
 46 47  1  0
 46 48  2  0
 48 49  1  0
 19  5  1  0
 37 23  1  0
 48 40  1  0
 16  7  1  0
M  CHG  1  31   1
M  END
>  <UniqueID>  (80) 
442

>  <SMILES>  (80) 
O=c1c2ccccc2nc(/C=C/c2ccccn2)n1CC1CC[NH2+]CC1

>  <Energy>  (80) 
67.7571269579274

>  <Genealogy>  (80) 
O=c1c2ccccc2nc(/C=C/c2ccccn2)n1CC1CC[NH2+]CC1 (protonated)
O=c1c2ccccc2nc(/C=C/c2ccccn2)n1CC1CC[NH2+]CC1 (cis-trans isomerization)
O=c1c2ccccc2nc(/C=C/c2ccccn2)n1CC1CC[NH2+]CC1 (3D coordinates assigned)
O=c1c2ccccc2nc(/C=C/c2ccccn2)n1CC1CC[NH2+]CC1 (nonaromatic ring conformer: 67.7571269579274 kcal/mol)

>  <smiles>  (80) 
O=c1c2ccccc2nc(/C=C/c2ccccn2)n1CC1CCNCC1

>  <score_type>  (80) 
oracle

>  <origin>  (80) 
autodockgpu

>  <m_score__min__energy>  (80) 
-7.5

>  <m_primary>  (80) 
energy

>  <meeko>  (80) 
{"free_energy": -6.32, "intermolecular_energy": -7.82, "internal_energy": -2.42, "cluster_size": 11, "cluster_id": 5, "rank_in_cluster": 9}

>  <energy>  (80) 
-5.78

>  <cluster_rmsd>  (80) 
0.0

>  <rmsd>  (80) 
273.55

>  <cluster>  (80) 
6

$$$$
