
     RDKit          3D

 69 74  0  0  0  0  0  0  0  0999 V2000
  144.1380   68.7220  218.9460 N   0  0  0  0  0  0  0  0  0  0  0  0
  145.5360   69.0000  219.0970 C   0  0  0  0  0  0  0  0  0  0  0  0
  146.2350   68.4760  220.0030 O   0  0  0  0  0  0  0  0  0  0  0  0
  146.1120   69.9600  218.0980 C   0  0  0  0  0  0  0  0  0  0  0  0
  144.9370   70.6930  217.4620 C   0  0  0  0  0  0  0  0  0  0  0  0
  144.8830   72.1300  217.9930 C   0  0  1  0  0  0  0  0  0  0  0  0
  143.4700   72.4790  218.4680 C   0  0  0  0  0  0  0  0  0  0  0  0
  143.5770   72.0570  219.9170 C   0  0  2  0  0  0  0  0  0  0  0  0
  142.4930   72.6010  220.7620 C   0  0  0  0  0  0  0  0  0  0  0  0
  142.1580   73.8950  220.6410 N   0  0  0  0  0  0  0  0  0  0  0  0
  141.1770   74.4570  221.3810 C   0  0  0  0  0  0  0  0  0  0  0  0
  140.8430   75.8150  221.2380 N   0  0  0  0  0  0  0  0  0  0  0  0
  140.9170   76.5370  219.9700 C   0  0  0  0  0  0  0  0  0  0  0  0
  142.0820   77.5180  220.1480 C   0  0  0  0  0  0  0  0  0  0  0  0
  141.7120   78.3960  221.2940 C   0  0  0  0  0  0  0  0  0  0  0  0
  142.1860   79.7100  221.3080 C   0  0  0  0  0  0  0  0  0  0  0  0
  141.8610   80.5620  222.3660 C   0  0  0  0  0  0  0  0  0  0  0  0
  141.0660   80.1290  223.4220 C   0  0  0  0  0  0  0  0  0  0  0  0
  140.6090   78.8110  223.3780 C   0  0  0  0  0  0  0  0  0  0  0  0
  140.9240   77.9690  222.3440 C   0  0  0  0  0  0  0  0  0  0  0  0
  140.3920   76.5880  222.3860 C   0  0  0  0  0  0  0  0  0  0  0  0
  140.5260   73.6790  222.2630 N   0  0  0  0  0  0  0  0  0  0  0  0
  140.8270   72.3640  222.4240 C   0  0  0  0  0  0  0  0  0  0  0  0
  140.1220   71.5480  223.3710 N   0  0  0  0  0  0  0  0  0  0  0  0
  138.9540   70.7620  222.9540 C   0  0  0  0  0  0  0  0  0  0  0  0
  138.1170   70.6120  224.2180 C   0  0  0  0  0  0  0  0  0  0  0  0
  138.9600   69.7620  225.1330 C   0  0  0  0  0  0  0  0  0  0  0  0
  138.4790   68.5840  225.6700 C   0  0  0  0  0  0  0  0  0  0  0  0
  139.3470   67.8900  226.4980 C   0  0  0  0  0  0  0  0  0  0  0  0
  140.6150   68.3710  226.7550 C   0  0  0  0  0  0  0  0  0  0  0  0
  141.0840   69.5440  226.2150 C   0  0  0  0  0  0  0  0  0  0  0  0
  140.2270   70.2450  225.3890 C   0  0  0  0  0  0  0  0  0  0  0  0
  140.6020   71.5270  224.7380 C   0  0  0  0  0  0  0  0  0  0  0  0
  141.8130   71.8450  221.6650 N   0  0  0  0  0  0  0  0  0  0  0  0
  144.9220   72.6540  220.2730 C   0  0  0  0  0  0  0  0  0  0  0  0
  145.7310   72.2520  219.1380 N   0  0  0  0  0  0  0  0  0  0  0  0
  143.4030   69.2030  219.5110 H   0  0  0  0  0  0  0  0  0  0  0  0
  143.8000   68.0080  218.2450 H   0  0  0  0  0  0  0  0  0  0  0  0
  146.7773   70.6767  218.6018 H   0  0  0  0  0  0  0  0  0  0  0  0
  146.7041   69.4297  217.3376 H   0  0  0  0  0  0  0  0  0  0  0  0
  145.0637   70.7104  216.3695 H   0  0  0  0  0  0  0  0  0  0  0  0
  144.0008   70.1735  217.7145 H   0  0  0  0  0  0  0  0  0  0  0  0
  145.1977   72.7966  217.1765 H   0  0  0  0  0  0  0  0  0  0  0  0
  143.2585   73.5539  218.3690 H   0  0  0  0  0  0  0  0  0  0  0  0
  142.6565   72.0015  217.9021 H   0  0  0  0  0  0  0  0  0  0  0  0
  143.4891   70.9719  220.0743 H   0  0  0  0  0  0  0  0  0  0  0  0
  141.1172   75.8436  219.1399 H   0  0  0  0  0  0  0  0  0  0  0  0
  139.9745   77.0498  219.7275 H   0  0  0  0  0  0  0  0  0  0  0  0
  143.0106   76.9716  220.3700 H   0  0  0  0  0  0  0  0  0  0  0  0
  142.2573   78.1036  219.2335 H   0  0  0  0  0  0  0  0  0  0  0  0
  142.8167   80.0746  220.4838 H   0  0  0  0  0  0  0  0  0  0  0  0
  142.2407   81.5944  222.3641 H   0  0  0  0  0  0  0  0  0  0  0  0
  140.8083   80.7973  224.2568 H   0  0  0  0  0  0  0  0  0  0  0  0
  139.9774   78.4373  224.1974 H   0  0  0  0  0  0  0  0  0  0  0  0
  140.7391   76.0977  223.3075 H   0  0  0  0  0  0  0  0  0  0  0  0
  139.2933   76.6371  222.3630 H   0  0  0  0  0  0  0  0  0  0  0  0
  138.3876   71.2927  222.1745 H   0  0  0  0  0  0  0  0  0  0  0  0
  139.2384   69.7896  222.5255 H   0  0  0  0  0  0  0  0  0  0  0  0
  137.9201   71.5943  224.6723 H   0  0  0  0  0  0  0  0  0  0  0  0
  137.1344   70.1605  224.0167 H   0  0  0  0  0  0  0  0  0  0  0  0
  137.4648   68.2175  225.4529 H   0  0  0  0  0  0  0  0  0  0  0  0
  139.0215   66.9443  226.9560 H   0  0  0  0  0  0  0  0  0  0  0  0
  141.2756   67.7928  227.4178 H   0  0  0  0  0  0  0  0  0  0  0  0
  142.0988   69.9094  226.4312 H   0  0  0  0  0  0  0  0  0  0  0  0
  140.1532   72.3630  225.2945 H   0  0  0  0  0  0  0  0  0  0  0  0
  141.6977   71.6245  224.7374 H   0  0  0  0  0  0  0  0  0  0  0  0
  144.8651   73.7493  220.3571 H   0  0  0  0  0  0  0  0  0  0  0  0
  145.3165   72.3195  221.2438 H   0  0  0  0  0  0  0  0  0  0  0  0
  146.1170   71.3170  219.3910 H   0  0  0  0  0  0  0  0  0  0  0  0
  1  2  1  0
  2  3  2  0
  2  4  1  0
  4  5  1  0
  5  6  1  0
  6  7  1  0
  7  8  1  0
  8  9  1  0
  9 10  2  0
 10 11  1  0
 11 12  1  0
 12 13  1  0
 13 14  1  0
 14 15  1  0
 15 16  2  0
 16 17  1  0
 17 18  2  0
 18 19  1  0
 19 20  2  0
 20 21  1  0
 11 22  2  0
 22 23  1  0
 23 24  1  0
 24 25  1  0
 25 26  1  0
 26 27  1  0
 27 28  2  0
 28 29  1  0
 29 30  2  0
 30 31  1  0
 31 32  2  0
 32 33  1  0
 23 34  2  0
  8 35  1  0
 35 36  1  0
 36  6  1  0
 34  9  1  0
 21 12  1  0
 33 24  1  0
 20 15  1  0
 32 27  1  0
  1 37  1  0
  1 38  1  0
  4 39  1  0
  4 40  1  0
  5 41  1  0
  5 42  1  0
  6 43  1  6
  7 44  1  0
  7 45  1  0
  8 46  1  6
 13 47  1  0
 13 48  1  0
 14 49  1  0
 14 50  1  0
 16 51  1  0
 17 52  1  0
 18 53  1  0
 19 54  1  0
 21 55  1  0
 21 56  1  0
 25 57  1  0
 25 58  1  0
 26 59  1  0
 26 60  1  0
 28 61  1  0
 29 62  1  0
 30 63  1  0
 31 64  1  0
 33 65  1  0
 33 66  1  0
 35 67  1  0
 35 68  1  0
 36 69  1  0
M  END
>  <smiles>  (1) 
NC(=O)CC[C@H]1C[C@H](c2nc(N3CCc4ccccc4C3)nc(N3CCc4ccccc4C3)n2)CN1

>  <score_type>  (1) 
oracle

>  <origin>  (1) 
autodockgpu

>  <m_score__min__energy>  (1) 
-10.91

>  <m_primary>  (1) 
energy

>  <meeko>  (1) 
{"free_energy": -10.36, "intermolecular_energy": -12.15, "internal_energy": -0.81, "cluster_size": 14, "cluster_id": 1, "rank_in_cluster": 6}

>  <energy>  (1) 
-10.91

>  <cluster_rmsd>  (1) 
0.0

>  <rmsd>  (1) 
270.55

>  <cluster>  (1) 
1

$$$$

     RDKit          3D

 69 74  0  0  0  0  0  0  0  0999 V2000
  142.5290   78.8510  222.2870 N   0  0  0  0  0  0  0  0  0  0  0  0
  142.1610   79.9660  223.1090 C   0  0  0  0  0  0  0  0  0  0  0  0
  142.5580   80.0900  224.2970 O   0  0  0  0  0  0  0  0  0  0  0  0
  141.2670   80.9790  222.4560 C   0  0  0  0  0  0  0  0  0  0  0  0
  139.9090   80.8750  223.1390 C   0  0  0  0  0  0  0  0  0  0  0  0
  138.9610   80.0410  222.2690 C   0  0  1  0  0  0  0  0  0  0  0  0
  139.7090   78.8760  221.6150 C   0  0  0  0  0  0  0  0  0  0  0  0
  139.5060   77.8150  222.6740 C   0  0  2  0  0  0  0  0  0  0  0  0
  139.7920   76.4490  222.1900 C   0  0  0  0  0  0  0  0  0  0  0  0
  138.8530   75.4990  222.3230 N   0  0  0  0  0  0  0  0  0  0  0  0
  139.0470   74.2300  221.9030 C   0  0  0  0  0  0  0  0  0  0  0  0
  138.0490   73.2510  222.0530 N   0  0  0  0  0  0  0  0  0  0  0  0
  136.6400   73.4800  221.7470 C   0  0  0  0  0  0  0  0  0  0  0  0
  135.9390   73.4660  223.1120 C   0  0  0  0  0  0  0  0  0  0  0  0
  136.1940   72.1190  223.6940 C   0  0  0  0  0  0  0  0  0  0  0  0
  135.2340   71.5680  224.5480 C   0  0  0  0  0  0  0  0  0  0  0  0
  135.4400   70.3080  225.1140 C   0  0  0  0  0  0  0  0  0  0  0  0
  136.5920   69.5760  224.8460 C   0  0  0  0  0  0  0  0  0  0  0  0
  137.5300   70.1550  223.9900 C   0  0  0  0  0  0  0  0  0  0  0  0
  137.3370   71.3910  223.4310 C   0  0  0  0  0  0  0  0  0  0  0  0
  138.3900   71.9200  222.5360 C   0  0  0  0  0  0  0  0  0  0  0  0
  140.2270   73.9260  221.3340 N   0  0  0  0  0  0  0  0  0  0  0  0
  141.2110   74.8500  221.1760 C   0  0  0  0  0  0  0  0  0  0  0  0
  142.4650   74.5090  220.5670 N   0  0  0  0  0  0  0  0  0  0  0  0
  143.0890   73.2060  220.8260 C   0  0  0  0  0  0  0  0  0  0  0  0
  144.5810   73.4460  220.6280 C   0  0  0  0  0  0  0  0  0  0  0  0
  144.7240   73.7590  219.1610 C   0  0  0  0  0  0  0  0  0  0  0  0
  145.5760   73.0370  218.3480 C   0  0  0  0  0  0  0  0  0  0  0  0
  145.6220   73.4200  217.0170 C   0  0  0  0  0  0  0  0  0  0  0  0
  144.8500   74.4660  216.5560 C   0  0  0  0  0  0  0  0  0  0  0  0
  144.0050   75.1790  217.3720 C   0  0  0  0  0  0  0  0  0  0  0  0
  143.9510   74.8070  218.7020 C   0  0  0  0  0  0  0  0  0  0  0  0
  143.0830   75.4880  219.6960 C   0  0  0  0  0  0  0  0  0  0  0  0
  140.9730   76.1050  221.6110 N   0  0  0  0  0  0  0  0  0  0  0  0
  138.0340   78.0100  222.9720 C   0  0  0  0  0  0  0  0  0  0  0  0
  137.9480   79.4530  223.0900 N   0  0  0  0  0  0  0  0  0  0  0  0
  142.0400   77.9300  222.3340 H   0  0  0  0  0  0  0  0  0  0  0  0
  143.3240   78.9280  221.5950 H   0  0  0  0  0  0  0  0  0  0  0  0
  141.6806   81.9897  222.5880 H   0  0  0  0  0  0  0  0  0  0  0  0
  141.1804   80.7901  221.3758 H   0  0  0  0  0  0  0  0  0  0  0  0
  140.0280   80.3908  224.1195 H   0  0  0  0  0  0  0  0  0  0  0  0
  139.4896   81.8827  223.2758 H   0  0  0  0  0  0  0  0  0  0  0  0
  138.5359   80.7109  221.5071 H   0  0  0  0  0  0  0  0  0  0  0  0
  139.2574   78.5873  220.6544 H   0  0  0  0  0  0  0  0  0  0  0  0
  140.7583   79.0821  221.3571 H   0  0  0  0  0  0  0  0  0  0  0  0
  140.1772   77.9136  223.5399 H   0  0  0  0  0  0  0  0  0  0  0  0
  136.5036   74.4521  221.2506 H   0  0  0  0  0  0  0  0  0  0  0  0
  136.2337   72.7212  221.0621 H   0  0  0  0  0  0  0  0  0  0  0  0
  136.3560   74.2483  223.7632 H   0  0  0  0  0  0  0  0  0  0  0  0
  134.8614   73.6630  223.0122 H   0  0  0  0  0  0  0  0  0  0  0  0
  134.3147   72.1279  224.7746 H   0  0  0  0  0  0  0  0  0  0  0  0
  134.6767   69.8864  225.7845 H   0  0  0  0  0  0  0  0  0  0  0  0
  136.7567   68.5831  225.2898 H   0  0  0  0  0  0  0  0  0  0  0  0
  138.4521   69.6024  223.7571 H   0  0  0  0  0  0  0  0  0  0  0  0
  139.3393   71.9711  223.0894 H   0  0  0  0  0  0  0  0  0  0  0  0
  138.4823   71.2477  221.6703 H   0  0  0  0  0  0  0  0  0  0  0  0
  142.8825   72.8744  221.8543 H   0  0  0  0  0  0  0  0  0  0  0  0
  142.7020   72.4195  220.1615 H   0  0  0  0  0  0  0  0  0  0  0  0
  144.9228   74.2930  221.2410 H   0  0  0  0  0  0  0  0  0  0  0  0
  145.1868   72.5792  220.9307 H   0  0  0  0  0  0  0  0  0  0  0  0
  146.1833   72.2055  218.7350 H   0  0  0  0  0  0  0  0  0  0  0  0
  146.2821   72.8834  216.3197 H   0  0  0  0  0  0  0  0  0  0  0  0
  144.9133   74.7404  215.4927 H   0  0  0  0  0  0  0  0  0  0  0  0
  143.3978   76.0099  216.9835 H   0  0  0  0  0  0  0  0  0  0  0  0
  143.6913   76.1789  220.2982 H   0  0  0  0  0  0  0  0  0  0  0  0
  142.2976   76.0473  219.1665 H   0  0  0  0  0  0  0  0  0  0  0  0
  137.4053   77.6365  222.1503 H   0  0  0  0  0  0  0  0  0  0  0  0
  137.6821   77.4669  223.8615 H   0  0  0  0  0  0  0  0  0  0  0  0
  138.1440   79.6610  224.0930 H   0  0  0  0  0  0  0  0  0  0  0  0
  1  2  1  0
  2  3  2  0
  2  4  1  0
  4  5  1  0
  5  6  1  0
  6  7  1  0
  7  8  1  0
  8  9  1  0
  9 10  2  0
 10 11  1  0
 11 12  1  0
 12 13  1  0
 13 14  1  0
 14 15  1  0
 15 16  2  0
 16 17  1  0
 17 18  2  0
 18 19  1  0
 19 20  2  0
 20 21  1  0
 11 22  2  0
 22 23  1  0
 23 24  1  0
 24 25  1  0
 25 26  1  0
 26 27  1  0
 27 28  2  0
 28 29  1  0
 29 30  2  0
 30 31  1  0
 31 32  2  0
 32 33  1  0
 23 34  2  0
  8 35  1  0
 35 36  1  0
 36  6  1  0
 34  9  1  0
 21 12  1  0
 33 24  1  0
 20 15  1  0
 32 27  1  0
  1 37  1  0
  1 38  1  0
  4 39  1  0
  4 40  1  0
  5 41  1  0
  5 42  1  0
  6 43  1  6
  7 44  1  0
  7 45  1  0
  8 46  1  1
 13 47  1  0
 13 48  1  0
 14 49  1  0
 14 50  1  0
 16 51  1  0
 17 52  1  0
 18 53  1  0
 19 54  1  0
 21 55  1  0
 21 56  1  0
 25 57  1  0
 25 58  1  0
 26 59  1  0
 26 60  1  0
 28 61  1  0
 29 62  1  0
 30 63  1  0
 31 64  1  0
 33 65  1  0
 33 66  1  0
 35 67  1  0
 35 68  1  0
 36 69  1  0
M  END
>  <smiles>  (2) 
NC(=O)CC[C@H]1C[C@H](c2nc(N3CCc4ccccc4C3)nc(N3CCc4ccccc4C3)n2)CN1

>  <score_type>  (2) 
oracle

>  <origin>  (2) 
autodockgpu

>  <m_score__min__energy>  (2) 
-10.91

>  <m_primary>  (2) 
energy

>  <meeko>  (2) 
{"free_energy": -7.33, "intermolecular_energy": -9.12, "internal_energy": -1.7, "cluster_size": 1, "cluster_id": 4, "rank_in_cluster": 1}

>  <energy>  (2) 
-10.86

>  <cluster_rmsd>  (2) 
0.81

>  <rmsd>  (2) 
270.41

>  <cluster>  (2) 
1

$$$$

     RDKit          3D

 69 74  0  0  0  0  0  0  0  0999 V2000
  146.6890   69.7350  216.7020 N   0  0  0  0  0  0  0  0  0  0  0  0
  145.9480   70.8960  217.0970 C   0  0  0  0  0  0  0  0  0  0  0  0
  146.2140   72.0470  216.6630 O   0  0  0  0  0  0  0  0  0  0  0  0
  144.8310   70.6470  218.0670 C   0  0  0  0  0  0  0  0  0  0  0  0
  143.6910   70.0180  217.2760 C   0  0  0  0  0  0  0  0  0  0  0  0
  142.5440   71.0270  217.1410 C   0  0  1  0  0  0  0  0  0  0  0  0
  141.7050   71.0670  218.4210 C   0  0  0  0  0  0  0  0  0  0  0  0
  142.4380   72.1550  219.1730 C   0  0  2  0  0  0  0  0  0  0  0  0
  141.6620   72.7020  220.3060 C   0  0  0  0  0  0  0  0  0  0  0  0
  141.4360   74.0240  220.3650 N   0  0  0  0  0  0  0  0  0  0  0  0
  140.7350   74.5910  221.3710 C   0  0  0  0  0  0  0  0  0  0  0  0
  140.5120   75.9790  221.4120 N   0  0  0  0  0  0  0  0  0  0  0  0
  140.2450   76.7910  220.2280 C   0  0  0  0  0  0  0  0  0  0  0  0
  141.4990   77.6590  220.0620 C   0  0  0  0  0  0  0  0  0  0  0  0
  141.6090   78.4690  221.3080 C   0  0  0  0  0  0  0  0  0  0  0  0
  142.1920   79.7370  221.2300 C   0  0  0  0  0  0  0  0  0  0  0  0
  142.3130   80.5240  222.3770 C   0  0  0  0  0  0  0  0  0  0  0  0
  141.8610   80.0730  223.6130 C   0  0  0  0  0  0  0  0  0  0  0  0
  141.2840   78.8030  223.6560 C   0  0  0  0  0  0  0  0  0  0  0  0
  141.1620   78.0240  222.5350 C   0  0  0  0  0  0  0  0  0  0  0  0
  140.5360   76.6910  222.6820 C   0  0  0  0  0  0  0  0  0  0  0  0
  140.2540   73.7890  222.3370 N   0  0  0  0  0  0  0  0  0  0  0  0
  140.4550   72.4450  222.3240 C   0  0  0  0  0  0  0  0  0  0  0  0
  139.9350   71.6030  223.3630 N   0  0  0  0  0  0  0  0  0  0  0  0
  138.9610   70.5500  223.0510 C   0  0  0  0  0  0  0  0  0  0  0  0
  138.1690   70.3610  224.3390 C   0  0  0  0  0  0  0  0  0  0  0  0
  139.1690   69.8090  225.3230 C   0  0  0  0  0  0  0  0  0  0  0  0
  138.9460   68.6200  225.9880 C   0  0  0  0  0  0  0  0  0  0  0  0
  139.9380   68.2160  226.8680 C   0  0  0  0  0  0  0  0  0  0  0  0
  141.0740   68.9770  227.0500 C   0  0  0  0  0  0  0  0  0  0  0  0
  141.2870   70.1590  226.3820 C   0  0  0  0  0  0  0  0  0  0  0  0
  140.3050   70.5730  225.5030 C   0  0  0  0  0  0  0  0  0  0  0  0
  140.4020   71.8290  224.7150 C   0  0  0  0  0  0  0  0  0  0  0  0
  141.1610   71.9220  221.3010 N   0  0  0  0  0  0  0  0  0  0  0  0
  142.6150   73.1750  218.0680 C   0  0  0  0  0  0  0  0  0  0  0  0
  143.0790   72.3430  216.9740 N   0  0  0  0  0  0  0  0  0  0  0  0
  147.6000   69.4700  217.1400 H   0  0  0  0  0  0  0  0  0  0  0  0
  146.3310   69.0970  215.9400 H   0  0  0  0  0  0  0  0  0  0  0  0
  145.1644   69.9617  218.8602 H   0  0  0  0  0  0  0  0  0  0  0  0
  144.5087   71.5835  218.5457 H   0  0  0  0  0  0  0  0  0  0  0  0
  144.0509   69.7361  216.2755 H   0  0  0  0  0  0  0  0  0  0  0  0
  143.3306   69.1218  217.8023 H   0  0  0  0  0  0  0  0  0  0  0  0
  141.9320   70.7197  216.2802 H   0  0  0  0  0  0  0  0  0  0  0  0
  140.6599   71.3431  218.2170 H   0  0  0  0  0  0  0  0  0  0  0  0
  141.6210   70.1080  218.9533 H   0  0  0  0  0  0  0  0  0  0  0  0
  143.3683   71.8172  219.6530 H   0  0  0  0  0  0  0  0  0  0  0  0
  140.0953   76.1523  219.3450 H   0  0  0  0  0  0  0  0  0  0  0  0
  139.3314   77.3945  220.3339 H   0  0  0  0  0  0  0  0  0  0  0  0
  142.3891   77.0244  219.9394 H   0  0  0  0  0  0  0  0  0  0  0  0
  141.4289   78.3001  219.1709 H   0  0  0  0  0  0  0  0  0  0  0  0
  142.5561   80.1155  220.2634 H   0  0  0  0  0  0  0  0  0  0  0  0
  142.7746   81.5197  222.3019 H   0  0  0  0  0  0  0  0  0  0  0  0
  141.9544   80.6912  224.5180 H   0  0  0  0  0  0  0  0  0  0  0  0
  140.9164   78.4159  224.6178 H   0  0  0  0  0  0  0  0  0  0  0  0
  141.1109   76.1029  223.4125 H   0  0  0  0  0  0  0  0  0  0  0  0
  139.4998   76.8281  223.0248 H   0  0  0  0  0  0  0  0  0  0  0  0
  138.2987   70.8649  222.2311 H   0  0  0  0  0  0  0  0  0  0  0  0
  139.4458   69.6196  222.7204 H   0  0  0  0  0  0  0  0  0  0  0  0
  137.7667   71.3220  224.6920 H   0  0  0  0  0  0  0  0  0  0  0  0
  137.3052   69.6936  224.2034 H   0  0  0  0  0  0  0  0  0  0  0  0
  138.0333   68.0270  225.8287 H   0  0  0  0  0  0  0  0  0  0  0  0
  139.8178   67.2769  227.4281 H   0  0  0  0  0  0  0  0  0  0  0  0
  141.8391   68.6241  227.7572 H   0  0  0  0  0  0  0  0  0  0  0  0
  142.2008   70.7504  226.5406 H   0  0  0  0  0  0  0  0  0  0  0  0
  139.7833   72.6051  225.1891 H   0  0  0  0  0  0  0  0  0  0  0  0
  141.4519   72.1558  224.6844 H   0  0  0  0  0  0  0  0  0  0  0  0
  141.6634   73.6685  217.8212 H   0  0  0  0  0  0  0  0  0  0  0  0
  143.2978   73.9984  218.3245 H   0  0  0  0  0  0  0  0  0  0  0  0
  144.1170   72.3150  217.0690 H   0  0  0  0  0  0  0  0  0  0  0  0
  1  2  1  0
  2  3  2  0
  2  4  1  0
  4  5  1  0
  5  6  1  0
  6  7  1  0
  7  8  1  0
  8  9  1  0
  9 10  2  0
 10 11  1  0
 11 12  1  0
 12 13  1  0
 13 14  1  0
 14 15  1  0
 15 16  2  0
 16 17  1  0
 17 18  2  0
 18 19  1  0
 19 20  2  0
 20 21  1  0
 11 22  2  0
 22 23  1  0
 23 24  1  0
 24 25  1  0
 25 26  1  0
 26 27  1  0
 27 28  2  0
 28 29  1  0
 29 30  2  0
 30 31  1  0
 31 32  2  0
 32 33  1  0
 23 34  2  0
  8 35  1  0
 35 36  1  0
 36  6  1  0
 34  9  1  0
 21 12  1  0
 33 24  1  0
 20 15  1  0
 32 27  1  0
  1 37  1  0
  1 38  1  0
  4 39  1  0
  4 40  1  0
  5 41  1  0
  5 42  1  0
  6 43  1  6
  7 44  1  0
  7 45  1  0
  8 46  1  1
 13 47  1  0
 13 48  1  0
 14 49  1  0
 14 50  1  0
 16 51  1  0
 17 52  1  0
 18 53  1  0
 19 54  1  0
 21 55  1  0
 21 56  1  0
 25 57  1  0
 25 58  1  0
 26 59  1  0
 26 60  1  0
 28 61  1  0
 29 62  1  0
 30 63  1  0
 31 64  1  0
 33 65  1  0
 33 66  1  0
 35 67  1  0
 35 68  1  0
 36 69  1  0
M  END
>  <smiles>  (3) 
NC(=O)CC[C@H]1C[C@H](c2nc(N3CCc4ccccc4C3)nc(N3CCc4ccccc4C3)n2)CN1

>  <score_type>  (3) 
oracle

>  <origin>  (3) 
autodockgpu

>  <m_score__min__energy>  (3) 
-10.91

>  <m_primary>  (3) 
energy

>  <meeko>  (3) 
{"free_energy": -8.56, "intermolecular_energy": -10.35, "internal_energy": -1.5, "cluster_size": 14, "cluster_id": 1, "rank_in_cluster": 14}

>  <energy>  (3) 
-10.7

>  <cluster_rmsd>  (3) 
0.37

>  <rmsd>  (3) 
270.54

>  <cluster>  (3) 
1

$$$$

     RDKit          3D

 69 74  0  0  0  0  0  0  0  0999 V2000
  143.8480   69.1030  218.7930 N   0  0  0  0  0  0  0  0  0  0  0  0
  145.1710   69.0780  219.3430 C   0  0  0  0  0  0  0  0  0  0  0  0
  145.5750   68.1500  220.0910 O   0  0  0  0  0  0  0  0  0  0  0  0
  146.0460   70.2370  218.9660 C   0  0  0  0  0  0  0  0  0  0  0  0
  145.4540   70.8430  217.7000 C   0  0  0  0  0  0  0  0  0  0  0  0
  145.1030   72.3150  217.9510 C   0  0  1  0  0  0  0  0  0  0  0  0
  143.6690   72.4490  218.4670 C   0  0  0  0  0  0  0  0  0  0  0  0
  143.9230   72.3620  219.9560 C   0  0  2  0  0  0  0  0  0  0  0  0
  142.7810   72.8270  220.7690 C   0  0  0  0  0  0  0  0  0  0  0  0
  142.3940   74.1090  220.6790 N   0  0  0  0  0  0  0  0  0  0  0  0
  141.3580   74.6010  221.3930 C   0  0  0  0  0  0  0  0  0  0  0  0
  140.9710   75.9480  221.2830 N   0  0  0  0  0  0  0  0  0  0  0  0
  140.9530   76.6840  220.0220 C   0  0  0  0  0  0  0  0  0  0  0  0
  142.0920   77.7030  220.1510 C   0  0  0  0  0  0  0  0  0  0  0  0
  141.7540   78.5560  221.3240 C   0  0  0  0  0  0  0  0  0  0  0  0
  142.1830   79.8860  221.3280 C   0  0  0  0  0  0  0  0  0  0  0  0
  141.8850   80.7150  222.4120 C   0  0  0  0  0  0  0  0  0  0  0  0
  141.1620   80.2450  223.5030 C   0  0  0  0  0  0  0  0  0  0  0  0
  140.7480   78.9130  223.4670 C   0  0  0  0  0  0  0  0  0  0  0  0
  141.0370   78.0920  222.4080 C   0  0  0  0  0  0  0  0  0  0  0  0
  140.5550   76.6940  222.4630 C   0  0  0  0  0  0  0  0  0  0  0  0
  140.7030   73.7630  222.2160 N   0  0  0  0  0  0  0  0  0  0  0  0
  141.0550   72.4570  222.3440 C   0  0  0  0  0  0  0  0  0  0  0  0
  140.3450   71.5770  223.2280 N   0  0  0  0  0  0  0  0  0  0  0  0
  139.3580   70.6270  222.6990 C   0  0  0  0  0  0  0  0  0  0  0  0
  138.3880   70.3960  223.8510 C   0  0  0  0  0  0  0  0  0  0  0  0
  139.2080   69.6950  224.9040 C   0  0  0  0  0  0  0  0  0  0  0  0
  138.8210   68.4770  225.4270 C   0  0  0  0  0  0  0  0  0  0  0  0
  139.6560   67.9310  226.3890 C   0  0  0  0  0  0  0  0  0  0  0  0
  140.8030   68.5890  226.7840 C   0  0  0  0  0  0  0  0  0  0  0  0
  141.1790   69.8010  226.2580 C   0  0  0  0  0  0  0  0  0  0  0  0
  140.3540   70.3550  225.2980 C   0  0  0  0  0  0  0  0  0  0  0  0
  140.6380   71.6590  224.6440 C   0  0  0  0  0  0  0  0  0  0  0  0
  142.0960   72.0090  221.6120 N   0  0  0  0  0  0  0  0  0  0  0  0
  145.1160   73.2860  220.0800 C   0  0  0  0  0  0  0  0  0  0  0  0
  145.9480   72.8410  218.9790 N   0  0  0  0  0  0  0  0  0  0  0  0
  143.0200   69.4470  219.3290 H   0  0  0  0  0  0  0  0  0  0  0  0
  143.6640   68.7650  217.8090 H   0  0  0  0  0  0  0  0  0  0  0  0
  146.0552   70.9830  219.7743 H   0  0  0  0  0  0  0  0  0  0  0  0
  147.0830   69.9103  218.7992 H   0  0  0  0  0  0  0  0  0  0  0  0
  146.1882   70.7756  216.8837 H   0  0  0  0  0  0  0  0  0  0  0  0
  144.5434   70.2921  217.4220 H   0  0  0  0  0  0  0  0  0  0  0  0
  145.2288   72.8529  216.9998 H   0  0  0  0  0  0  0  0  0  0  0  0
  143.2206   73.4128  218.1840 H   0  0  0  0  0  0  0  0  0  0  0  0
  142.9605   71.7064  218.0713 H   0  0  0  0  0  0  0  0  0  0  0  0
  144.0827   71.3373  220.3228 H   0  0  0  0  0  0  0  0  0  0  0  0
  141.1327   76.0062  219.1745 H   0  0  0  0  0  0  0  0  0  0  0  0
  139.9821   77.1659  219.8347 H   0  0  0  0  0  0  0  0  0  0  0  0
  143.0488   77.1866  220.3179 H   0  0  0  0  0  0  0  0  0  0  0  0
  142.1988   78.3035  219.2356 H   0  0  0  0  0  0  0  0  0  0  0  0
  142.7563   80.2807  220.4762 H   0  0  0  0  0  0  0  0  0  0  0  0
  142.2289   81.7598  222.4025 H   0  0  0  0  0  0  0  0  0  0  0  0
  140.9265   80.8957  224.3581 H   0  0  0  0  0  0  0  0  0  0  0  0
  140.1727   78.5098  224.3134 H   0  0  0  0  0  0  0  0  0  0  0  0
  140.9669   76.2072  223.3593 H   0  0  0  0  0  0  0  0  0  0  0  0
  139.4556   76.7051  222.4992 H   0  0  0  0  0  0  0  0  0  0  0  0
  138.8347   71.0543  221.8309 H   0  0  0  0  0  0  0  0  0  0  0  0
  139.8236   69.6924  222.3530 H   0  0  0  0  0  0  0  0  0  0  0  0
  138.0029   71.3533  224.2322 H   0  0  0  0  0  0  0  0  0  0  0  0
  137.5103   69.8075  223.5456 H   0  0  0  0  0  0  0  0  0  0  0  0
  137.9022   67.9690  225.0987 H   0  0  0  0  0  0  0  0  0  0  0  0
  139.4016   66.9619  226.8430 H   0  0  0  0  0  0  0  0  0  0  0  0
  141.4412   68.1247  227.5502 H   0  0  0  0  0  0  0  0  0  0  0  0
  142.0976   70.3088  226.5870 H   0  0  0  0  0  0  0  0  0  0  0  0
  140.0121   72.4397  225.1009 H   0  0  0  0  0  0  0  0  0  0  0  0
  141.7012   71.9068  224.7790 H   0  0  0  0  0  0  0  0  0  0  0  0
  144.8217   74.3391  219.9601 H   0  0  0  0  0  0  0  0  0  0  0  0
  145.6130   73.2445  221.0605 H   0  0  0  0  0  0  0  0  0  0  0  0
  146.5410   72.0780  219.3710 H   0  0  0  0  0  0  0  0  0  0  0  0
  1  2  1  0
  2  3  2  0
  2  4  1  0
  4  5  1  0
  5  6  1  0
  6  7  1  0
  7  8  1  0
  8  9  1  0
  9 10  2  0
 10 11  1  0
 11 12  1  0
 12 13  1  0
 13 14  1  0
 14 15  1  0
 15 16  2  0
 16 17  1  0
 17 18  2  0
 18 19  1  0
 19 20  2  0
 20 21  1  0
 11 22  2  0
 22 23  1  0
 23 24  1  0
 24 25  1  0
 25 26  1  0
 26 27  1  0
 27 28  2  0
 28 29  1  0
 29 30  2  0
 30 31  1  0
 31 32  2  0
 32 33  1  0
 23 34  2  0
  8 35  1  0
 35 36  1  0
 36  6  1  0
 34  9  1  0
 21 12  1  0
 33 24  1  0
 20 15  1  0
 32 27  1  0
  1 37  1  0
  1 38  1  0
  4 39  1  0
  4 40  1  0
  5 41  1  0
  5 42  1  0
  6 43  1  6
  7 44  1  0
  7 45  1  0
  8 46  1  1
 13 47  1  0
 13 48  1  0
 14 49  1  0
 14 50  1  0
 16 51  1  0
 17 52  1  0
 18 53  1  0
 19 54  1  0
 21 55  1  0
 21 56  1  0
 25 57  1  0
 25 58  1  0
 26 59  1  0
 26 60  1  0
 28 61  1  0
 29 62  1  0
 30 63  1  0
 31 64  1  0
 33 65  1  0
 33 66  1  0
 35 67  1  0
 35 68  1  0
 36 69  1  0
M  END
>  <smiles>  (4) 
NC(=O)CC[C@H]1C[C@H](c2nc(N3CCc4ccccc4C3)nc(N3CCc4ccccc4C3)n2)CN1

>  <score_type>  (4) 
oracle

>  <origin>  (4) 
autodockgpu

>  <m_score__min__energy>  (4) 
-10.91

>  <m_primary>  (4) 
energy

>  <meeko>  (4) 
{"free_energy": -10.53, "intermolecular_energy": -12.32, "internal_energy": -0.86, "cluster_size": 14, "cluster_id": 1, "rank_in_cluster": 5}

>  <energy>  (4) 
-10.57

>  <cluster_rmsd>  (4) 
0.52

>  <rmsd>  (4) 
270.55

>  <cluster>  (4) 
1

$$$$

     RDKit          3D

 69 74  0  0  0  0  0  0  0  0999 V2000
  146.3170   68.6380  217.6250 N   0  0  0  0  0  0  0  0  0  0  0  0
  145.9600   68.9690  218.9740 C   0  0  0  0  0  0  0  0  0  0  0  0
  145.9790   68.1210  219.9040 O   0  0  0  0  0  0  0  0  0  0  0  0
  145.5620   70.3970  219.2020 C   0  0  0  0  0  0  0  0  0  0  0  0
  145.3240   71.0140  217.8300 C   0  0  0  0  0  0  0  0  0  0  0  0
  144.8850   72.4740  217.9930 C   0  0  1  0  0  0  0  0  0  0  0  0
  143.4610   72.5520  218.5480 C   0  0  0  0  0  0  0  0  0  0  0  0
  143.7650   72.5850  220.0300 C   0  0  2  0  0  0  0  0  0  0  0  0
  142.6200   73.0310  220.8490 C   0  0  0  0  0  0  0  0  0  0  0  0
  142.2590   74.3240  220.8180 N   0  0  0  0  0  0  0  0  0  0  0  0
  141.2210   74.8000  221.5410 C   0  0  0  0  0  0  0  0  0  0  0  0
  140.8620   76.1590  221.4930 N   0  0  0  0  0  0  0  0  0  0  0  0
  140.6860   76.9050  220.2500 C   0  0  0  0  0  0  0  0  0  0  0  0
  141.8610   77.8910  220.2180 C   0  0  0  0  0  0  0  0  0  0  0  0
  141.7180   78.7430  221.4320 C   0  0  0  0  0  0  0  0  0  0  0  0
  142.1820   80.0610  221.3800 C   0  0  0  0  0  0  0  0  0  0  0  0
  142.0660   80.8890  222.4980 C   0  0  0  0  0  0  0  0  0  0  0  0
  141.4930   80.4300  223.6800 C   0  0  0  0  0  0  0  0  0  0  0  0
  141.0400   79.1100  223.6980 C   0  0  0  0  0  0  0  0  0  0  0  0
  141.1500   78.2910  222.6050 C   0  0  0  0  0  0  0  0  0  0  0  0
  140.6410   76.9060  222.7230 C   0  0  0  0  0  0  0  0  0  0  0  0
  140.5390   73.9360  222.3120 N   0  0  0  0  0  0  0  0  0  0  0  0
  140.8630   72.6180  222.3790 C   0  0  0  0  0  0  0  0  0  0  0  0
  140.1240   71.7090  223.2080 N   0  0  0  0  0  0  0  0  0  0  0  0
  139.0790   70.8550  222.6290 C   0  0  0  0  0  0  0  0  0  0  0  0
  138.1180   70.5860  223.7810 C   0  0  0  0  0  0  0  0  0  0  0  0
  138.9180   69.7630  224.7580 C   0  0  0  0  0  0  0  0  0  0  0  0
  138.4770   68.5290  225.1940 C   0  0  0  0  0  0  0  0  0  0  0  0
  139.2990   67.8690  226.0940 C   0  0  0  0  0  0  0  0  0  0  0  0
  140.4850   68.4340  226.5130 C   0  0  0  0  0  0  0  0  0  0  0  0
  140.9160   69.6620  226.0740 C   0  0  0  0  0  0  0  0  0  0  0  0
  140.1040   70.3310  225.1770 C   0  0  0  0  0  0  0  0  0  0  0  0
  140.4450   71.6650  224.6200 C   0  0  0  0  0  0  0  0  0  0  0  0
  141.9060   72.1870  221.6410 N   0  0  0  0  0  0  0  0  0  0  0  0
  144.8980   73.5900  220.0500 C   0  0  0  0  0  0  0  0  0  0  0  0
  145.7240   73.1230  218.9530 N   0  0  0  0  0  0  0  0  0  0  0  0
  145.6490   68.1900  216.9590 H   0  0  0  0  0  0  0  0  0  0  0  0
  147.2850   68.8410  217.2560 H   0  0  0  0  0  0  0  0  0  0  0  0
  144.6411   70.4419  219.8019 H   0  0  0  0  0  0  0  0  0  0  0  0
  146.3459   70.9420  219.7483 H   0  0  0  0  0  0  0  0  0  0  0  0
  146.2542   70.9744  217.2442 H   0  0  0  0  0  0  0  0  0  0  0  0
  144.5363   70.4513  217.3076 H   0  0  0  0  0  0  0  0  0  0  0  0
  144.9466   72.9514  217.0039 H   0  0  0  0  0  0  0  0  0  0  0  0
  142.9418   73.4633  218.2163 H   0  0  0  0  0  0  0  0  0  0  0  0
  142.7913   71.7402  218.2279 H   0  0  0  0  0  0  0  0  0  0  0  0
  144.0031   71.6006  220.4593 H   0  0  0  0  0  0  0  0  0  0  0  0
  140.7233   76.2288  219.3832 H   0  0  0  0  0  0  0  0  0  0  0  0
  139.7128   77.4157  220.2053 H   0  0  0  0  0  0  0  0  0  0  0  0
  142.8167   77.3470  220.2437 H   0  0  0  0  0  0  0  0  0  0  0  0
  141.8535   78.4958  219.2992 H   0  0  0  0  0  0  0  0  0  0  0  0
  142.6392   80.4461  220.4566 H   0  0  0  0  0  0  0  0  0  0  0  0
  142.4346   81.9240  222.4435 H   0  0  0  0  0  0  0  0  0  0  0  0
  141.4010   81.0799  224.5627 H   0  0  0  0  0  0  0  0  0  0  0  0
  140.5812   78.7155  224.6166 H   0  0  0  0  0  0  0  0  0  0  0  0
  141.1632   76.4006  223.5488 H   0  0  0  0  0  0  0  0  0  0  0  0
  139.5590   76.9471  222.9168 H   0  0  0  0  0  0  0  0  0  0  0  0
  138.5642   71.3747  221.8075 H   0  0  0  0  0  0  0  0  0  0  0  0
  139.4881   69.9272  222.2026 H   0  0  0  0  0  0  0  0  0  0  0  0
  137.7920   71.5294  224.2433 H   0  0  0  0  0  0  0  0  0  0  0  0
  137.2042   70.0703  223.4507 H   0  0  0  0  0  0  0  0  0  0  0  0
  137.5278   68.0948  224.8469 H   0  0  0  0  0  0  0  0  0  0  0  0
  139.0015   66.8823  226.4787 H   0  0  0  0  0  0  0  0  0  0  0  0
  141.1109   67.8791  227.2273 H   0  0  0  0  0  0  0  0  0  0  0  0
  141.8660   70.0945  226.4210 H   0  0  0  0  0  0  0  0  0  0  0  0
  139.8690   72.4387  225.1488 H   0  0  0  0  0  0  0  0  0  0  0  0
  141.5219   71.8467  224.7513 H   0  0  0  0  0  0  0  0  0  0  0  0
  144.5314   74.6113  219.8695 H   0  0  0  0  0  0  0  0  0  0  0  0
  145.4260   73.6488  221.0132 H   0  0  0  0  0  0  0  0  0  0  0  0
  146.3770   72.4280  219.3760 H   0  0  0  0  0  0  0  0  0  0  0  0
  1  2  1  0
  2  3  2  0
  2  4  1  0
  4  5  1  0
  5  6  1  0
  6  7  1  0
  7  8  1  0
  8  9  1  0
  9 10  2  0
 10 11  1  0
 11 12  1  0
 12 13  1  0
 13 14  1  0
 14 15  1  0
 15 16  2  0
 16 17  1  0
 17 18  2  0
 18 19  1  0
 19 20  2  0
 20 21  1  0
 11 22  2  0
 22 23  1  0
 23 24  1  0
 24 25  1  0
 25 26  1  0
 26 27  1  0
 27 28  2  0
 28 29  1  0
 29 30  2  0
 30 31  1  0
 31 32  2  0
 32 33  1  0
 23 34  2  0
  8 35  1  0
 35 36  1  0
 36  6  1  0
 34  9  1  0
 21 12  1  0
 33 24  1  0
 20 15  1  0
 32 27  1  0
  1 37  1  0
  1 38  1  0
  4 39  1  0
  4 40  1  0
  5 41  1  0
  5 42  1  0
  6 43  1  6
  7 44  1  0
  7 45  1  0
  8 46  1  1
 13 47  1  0
 13 48  1  0
 14 49  1  0
 14 50  1  0
 16 51  1  0
 17 52  1  0
 18 53  1  0
 19 54  1  0
 21 55  1  0
 21 56  1  0
 25 57  1  0
 25 58  1  0
 26 59  1  0
 26 60  1  0
 28 61  1  0
 29 62  1  0
 30 63  1  0
 31 64  1  0
 33 65  1  0
 33 66  1  0
 35 67  1  0
 35 68  1  0
 36 69  1  0
M  END
>  <smiles>  (5) 
NC(=O)CC[C@H]1C[C@H](c2nc(N3CCc4ccccc4C3)nc(N3CCc4ccccc4C3)n2)CN1

>  <score_type>  (5) 
oracle

>  <origin>  (5) 
autodockgpu

>  <m_score__min__energy>  (5) 
-10.91

>  <m_primary>  (5) 
energy

>  <meeko>  (5) 
{"free_energy": -10.91, "intermolecular_energy": -12.7, "internal_energy": -0.85, "cluster_size": 14, "cluster_id": 1, "rank_in_cluster": 1}

>  <energy>  (5) 
-10.53

>  <cluster_rmsd>  (5) 
0.9

>  <rmsd>  (5) 
270.54

>  <cluster>  (5) 
1

$$$$

     RDKit          3D

 69 74  0  0  0  0  0  0  0  0999 V2000
  146.0010   74.2810  216.7010 N   0  0  0  0  0  0  0  0  0  0  0  0
  145.6530   73.2370  217.6180 C   0  0  0  0  0  0  0  0  0  0  0  0
  146.2990   73.0240  218.6770 O   0  0  0  0  0  0  0  0  0  0  0  0
  144.4610   72.4120  217.2310 C   0  0  0  0  0  0  0  0  0  0  0  0
  144.8280   70.9560  217.4930 C   0  0  0  0  0  0  0  0  0  0  0  0
  143.6630   70.2530  218.1990 C   0  0  1  0  0  0  0  0  0  0  0  0
  143.3870   70.8960  219.5600 C   0  0  0  0  0  0  0  0  0  0  0  0
  142.3740   71.9410  219.1490 C   0  0  2  0  0  0  0  0  0  0  0  0
  141.6210   72.5020  220.2900 C   0  0  0  0  0  0  0  0  0  0  0  0
  141.3940   73.8250  220.3370 N   0  0  0  0  0  0  0  0  0  0  0  0
  140.7130   74.4040  221.3490 C   0  0  0  0  0  0  0  0  0  0  0  0
  140.4890   75.7910  221.3770 N   0  0  0  0  0  0  0  0  0  0  0  0
  140.2640   76.5990  220.1820 C   0  0  0  0  0  0  0  0  0  0  0  0
  141.5230   77.4670  220.0560 C   0  0  0  0  0  0  0  0  0  0  0  0
  141.5890   78.2820  221.3020 C   0  0  0  0  0  0  0  0  0  0  0  0
  142.1750   79.5490  221.2400 C   0  0  0  0  0  0  0  0  0  0  0  0
  142.2550   80.3410  222.3870 C   0  0  0  0  0  0  0  0  0  0  0  0
  141.7600   79.8950  223.6080 C   0  0  0  0  0  0  0  0  0  0  0  0
  141.1810   78.6250  223.6350 C   0  0  0  0  0  0  0  0  0  0  0  0
  141.0990   77.8410  222.5140 C   0  0  0  0  0  0  0  0  0  0  0  0
  140.4680   76.5090  222.6440 C   0  0  0  0  0  0  0  0  0  0  0  0
  140.2540   73.6140  222.3360 N   0  0  0  0  0  0  0  0  0  0  0  0
  140.4570   72.2700  222.3360 C   0  0  0  0  0  0  0  0  0  0  0  0
  139.9590   71.4410  223.3970 N   0  0  0  0  0  0  0  0  0  0  0  0
  138.8210   70.5430  223.1700 C   0  0  0  0  0  0  0  0  0  0  0  0
  138.1760   70.3810  224.5410 C   0  0  0  0  0  0  0  0  0  0  0  0
  139.2060   69.6460  225.3600 C   0  0  0  0  0  0  0  0  0  0  0  0
  138.9070   68.4570  225.9970 C   0  0  0  0  0  0  0  0  0  0  0  0
  139.9370   67.8760  226.7210 C   0  0  0  0  0  0  0  0  0  0  0  0
  141.1790   68.4720  226.7860 C   0  0  0  0  0  0  0  0  0  0  0  0
  141.4670   69.6550  226.1480 C   0  0  0  0  0  0  0  0  0  0  0  0
  140.4480   70.2440  225.4240 C   0  0  0  0  0  0  0  0  0  0  0  0
  140.6170   71.5220  224.6850 C   0  0  0  0  0  0  0  0  0  0  0  0
  141.1420   71.7350  221.3050 N   0  0  0  0  0  0  0  0  0  0  0  0
  141.4870   71.1150  218.2420 C   0  0  0  0  0  0  0  0  0  0  0  0
  142.4670   70.4170  217.4310 N   0  0  0  0  0  0  0  0  0  0  0  0
  146.7520   74.1740  215.9820 H   0  0  0  0  0  0  0  0  0  0  0  0
  145.5010   75.2110  216.7240 H   0  0  0  0  0  0  0  0  0  0  0  0
  143.5895   72.6979  217.8383 H   0  0  0  0  0  0  0  0  0  0  0  0
  144.1994   72.5686  216.1741 H   0  0  0  0  0  0  0  0  0  0  0  0
  145.0347   70.4525  216.5371 H   0  0  0  0  0  0  0  0  0  0  0  0
  145.7226   70.9132  218.1317 H   0  0  0  0  0  0  0  0  0  0  0  0
  143.9363   69.1937  218.3142 H   0  0  0  0  0  0  0  0  0  0  0  0
  142.9641   70.1750  220.2751 H   0  0  0  0  0  0  0  0  0  0  0  0
  144.2746   71.2867  220.0791 H   0  0  0  0  0  0  0  0  0  0  0  0
  142.8177   72.8344  218.6853 H   0  0  0  0  0  0  0  0  0  0  0  0
  140.1451   75.9573  219.2966 H   0  0  0  0  0  0  0  0  0  0  0  0
  139.3476   77.2031  220.2545 H   0  0  0  0  0  0  0  0  0  0  0  0
  142.4170   76.8323  219.9671 H   0  0  0  0  0  0  0  0  0  0  0  0
  141.4839   78.1044  219.1603 H   0  0  0  0  0  0  0  0  0  0  0  0
  142.5741   79.9231  220.2857 H   0  0  0  0  0  0  0  0  0  0  0  0
  142.7183   81.3367  222.3239 H   0  0  0  0  0  0  0  0  0  0  0  0
  141.8221   80.5164  224.5135 H   0  0  0  0  0  0  0  0  0  0  0  0
  140.7786   78.2422  224.5845 H   0  0  0  0  0  0  0  0  0  0  0  0
  141.0163   75.9241  223.3971 H   0  0  0  0  0  0  0  0  0  0  0  0
  139.4202   76.6479  222.9486 H   0  0  0  0  0  0  0  0  0  0  0  0
  138.1112   70.9889  222.4577 H   0  0  0  0  0  0  0  0  0  0  0  0
  139.1309   69.5793  222.7396 H   0  0  0  0  0  0  0  0  0  0  0  0
  137.9551   71.3629  224.9849 H   0  0  0  0  0  0  0  0  0  0  0  0
  137.2191   69.8408  224.4911 H   0  0  0  0  0  0  0  0  0  0  0  0
  137.9095   67.9978  225.9335 H   0  0  0  0  0  0  0  0  0  0  0  0
  139.7613   66.9278  227.2502 H   0  0  0  0  0  0  0  0  0  0  0  0
  141.9704   67.9813  227.3715 H   0  0  0  0  0  0  0  0  0  0  0  0
  142.4652   70.1129  226.2110 H   0  0  0  0  0  0  0  0  0  0  0  0
  140.1739   72.3419  225.2694 H   0  0  0  0  0  0  0  0  0  0  0  0
  141.6897   71.7106  224.5309 H   0  0  0  0  0  0  0  0  0  0  0  0
  140.8684   70.4112  218.8182 H   0  0  0  0  0  0  0  0  0  0  0  0
  140.7661   71.7083  217.6603 H   0  0  0  0  0  0  0  0  0  0  0  0
  142.6530   71.0460  216.6200 H   0  0  0  0  0  0  0  0  0  0  0  0
  1  2  1  0
  2  3  2  0
  2  4  1  0
  4  5  1  0
  5  6  1  0
  6  7  1  0
  7  8  1  0
  8  9  1  0
  9 10  2  0
 10 11  1  0
 11 12  1  0
 12 13  1  0
 13 14  1  0
 14 15  1  0
 15 16  2  0
 16 17  1  0
 17 18  2  0
 18 19  1  0
 19 20  2  0
 20 21  1  0
 11 22  2  0
 22 23  1  0
 23 24  1  0
 24 25  1  0
 25 26  1  0
 26 27  1  0
 27 28  2  0
 28 29  1  0
 29 30  2  0
 30 31  1  0
 31 32  2  0
 32 33  1  0
 23 34  2  0
  8 35  1  0
 35 36  1  0
 36  6  1  0
 34  9  1  0
 21 12  1  0
 33 24  1  0
 20 15  1  0
 32 27  1  0
  1 37  1  0
  1 38  1  0
  4 39  1  0
  4 40  1  0
  5 41  1  0
  5 42  1  0
  6 43  1  1
  7 44  1  0
  7 45  1  0
  8 46  1  6
 13 47  1  0
 13 48  1  0
 14 49  1  0
 14 50  1  0
 16 51  1  0
 17 52  1  0
 18 53  1  0
 19 54  1  0
 21 55  1  0
 21 56  1  0
 25 57  1  0
 25 58  1  0
 26 59  1  0
 26 60  1  0
 28 61  1  0
 29 62  1  0
 30 63  1  0
 31 64  1  0
 33 65  1  0
 33 66  1  0
 35 67  1  0
 35 68  1  0
 36 69  1  0
M  END
>  <smiles>  (6) 
NC(=O)CC[C@H]1C[C@H](c2nc(N3CCc4ccccc4C3)nc(N3CCc4ccccc4C3)n2)CN1

>  <score_type>  (6) 
oracle

>  <origin>  (6) 
autodockgpu

>  <m_score__min__energy>  (6) 
-10.91

>  <m_primary>  (6) 
energy

>  <meeko>  (6) 
{"free_energy": -9.37, "intermolecular_energy": -11.16, "internal_energy": -0.84, "cluster_size": 14, "cluster_id": 1, "rank_in_cluster": 12}

>  <energy>  (6) 
-10.36

>  <cluster_rmsd>  (6) 
0.94

>  <rmsd>  (6) 
270.45

>  <cluster>  (6) 
1

$$$$

     RDKit          3D

 69 74  0  0  0  0  0  0  0  0999 V2000
  142.7450   79.4080  222.4210 N   0  0  0  0  0  0  0  0  0  0  0  0
  141.5850   80.0890  222.9160 C   0  0  0  0  0  0  0  0  0  0  0  0
  141.6310   80.8750  223.8980 O   0  0  0  0  0  0  0  0  0  0  0  0
  140.3080   79.7990  222.1840 C   0  0  0  0  0  0  0  0  0  0  0  0
  139.9590   78.3430  222.4650 C   0  0  0  0  0  0  0  0  0  0  0  0
  140.3440   77.4820  221.2560 C   0  0  1  0  0  0  0  0  0  0  0  0
  141.0810   76.2170  221.7030 C   0  0  0  0  0  0  0  0  0  0  0  0
  139.9050   75.2800  221.8680 C   0  0  2  0  0  0  0  0  0  0  0  0
  140.3000   73.8580  221.9400 C   0  0  0  0  0  0  0  0  0  0  0  0
  141.0510   73.3380  220.9560 N   0  0  0  0  0  0  0  0  0  0  0  0
  141.4490   72.0470  220.9590 C   0  0  0  0  0  0  0  0  0  0  0  0
  142.2350   71.5240  219.9170 N   0  0  0  0  0  0  0  0  0  0  0  0
  141.7010   70.6980  218.8380 C   0  0  0  0  0  0  0  0  0  0  0  0
  142.2810   69.3010  219.0950 C   0  0  0  0  0  0  0  0  0  0  0  0
  143.7620   69.4500  219.0330 C   0  0  0  0  0  0  0  0  0  0  0  0
  144.5240   68.3640  218.5930 C   0  0  0  0  0  0  0  0  0  0  0  0
  145.9150   68.4670  218.5230 C   0  0  0  0  0  0  0  0  0  0  0  0
  146.5710   69.6380  218.8840 C   0  0  0  0  0  0  0  0  0  0  0  0
  145.7810   70.7030  219.3190 C   0  0  0  0  0  0  0  0  0  0  0  0
  144.4160   70.6110  219.3920 C   0  0  0  0  0  0  0  0  0  0  0  0
  143.6650   71.7950  219.8660 C   0  0  0  0  0  0  0  0  0  0  0  0
  141.0700   71.2710  221.9890 N   0  0  0  0  0  0  0  0  0  0  0  0
  140.3100   71.7480  223.0090 C   0  0  0  0  0  0  0  0  0  0  0  0
  139.9140   70.9060  224.1020 N   0  0  0  0  0  0  0  0  0  0  0  0
  139.4630   69.5310  223.8580 C   0  0  0  0  0  0  0  0  0  0  0  0
  138.5370   69.2140  225.0260 C   0  0  0  0  0  0  0  0  0  0  0  0
  139.4370   69.2130  226.2350 C   0  0  0  0  0  0  0  0  0  0  0  0
  139.5130   68.1210  227.0770 C   0  0  0  0  0  0  0  0  0  0  0  0
  140.3750   68.2390  228.1560 C   0  0  0  0  0  0  0  0  0  0  0  0
  141.1040   69.3940  228.3540 C   0  0  0  0  0  0  0  0  0  0  0  0
  141.0210   70.4750  227.5100 C   0  0  0  0  0  0  0  0  0  0  0  0
  140.1650   70.3690  226.4320 C   0  0  0  0  0  0  0  0  0  0  0  0
  139.9760   71.4590  225.4400 C   0  0  0  0  0  0  0  0  0  0  0  0
  139.9350   73.0430  222.9660 N   0  0  0  0  0  0  0  0  0  0  0  0
  139.1370   75.5870  220.6000 C   0  0  0  0  0  0  0  0  0  0  0  0
  139.1600   77.0380  220.5870 N   0  0  0  0  0  0  0  0  0  0  0  0
  143.1110   78.5290  222.8510 H   0  0  0  0  0  0  0  0  0  0  0  0
  143.2790   79.7830  221.5890 H   0  0  0  0  0  0  0  0  0  0  0  0
  139.5054   80.4575  222.5476 H   0  0  0  0  0  0  0  0  0  0  0  0
  140.4237   79.9753  221.1044 H   0  0  0  0  0  0  0  0  0  0  0  0
  140.5115   77.9981  223.3515 H   0  0  0  0  0  0  0  0  0  0  0  0
  138.8781   78.2542  222.6488 H   0  0  0  0  0  0  0  0  0  0  0  0
  140.9812   78.0957  220.6022 H   0  0  0  0  0  0  0  0  0  0  0  0
  141.7840   75.8603  220.9359 H   0  0  0  0  0  0  0  0  0  0  0  0
  141.7105   76.3362  222.5972 H   0  0  0  0  0  0  0  0  0  0  0  0
  139.3450   75.4260  222.8035 H   0  0  0  0  0  0  0  0  0  0  0  0
  140.6019   70.6747  218.8747 H   0  0  0  0  0  0  0  0  0  0  0  0
  141.9711   71.0849  217.8443 H   0  0  0  0  0  0  0  0  0  0  0  0
  141.9752   68.9374  220.0871 H   0  0  0  0  0  0  0  0  0  0  0  0
  141.9192   68.5733  218.3536 H   0  0  0  0  0  0  0  0  0  0  0  0
  144.0273   67.4268  218.3014 H   0  0  0  0  0  0  0  0  0  0  0  0
  146.5028   67.6047  218.1754 H   0  0  0  0  0  0  0  0  0  0  0  0
  147.6664   69.7217  218.8292 H   0  0  0  0  0  0  0  0  0  0  0  0
  146.2688   71.6444  219.6120 H   0  0  0  0  0  0  0  0  0  0  0  0
  144.0158   72.0631  220.8735 H   0  0  0  0  0  0  0  0  0  0  0  0
  143.8384   72.6228  219.1627 H   0  0  0  0  0  0  0  0  0  0  0  0
  138.9201   69.4645  222.9036 H   0  0  0  0  0  0  0  0  0  0  0  0
  140.3027   68.8238  223.7891 H   0  0  0  0  0  0  0  0  0  0  0  0
  137.7570   69.9835  225.1231 H   0  0  0  0  0  0  0  0  0  0  0  0
  138.0132   68.2556  224.8950 H   0  0  0  0  0  0  0  0  0  0  0  0
  138.9230   67.2094  226.9013 H   0  0  0  0  0  0  0  0  0  0  0  0
  140.4792   67.4024  228.8626 H   0  0  0  0  0  0  0  0  0  0  0  0
  141.7779   69.4514  229.2215 H   0  0  0  0  0  0  0  0  0  0  0  0
  141.6115   71.3863  227.6857 H   0  0  0  0  0  0  0  0  0  0  0  0
  139.0384   71.9914  225.6579 H   0  0  0  0  0  0  0  0  0  0  0  0
  140.8244   72.1563  225.5036 H   0  0  0  0  0  0  0  0  0  0  0  0
  139.6403   75.1699  219.7153 H   0  0  0  0  0  0  0  0  0  0  0  0
  138.1253   75.1559  220.5749 H   0  0  0  0  0  0  0  0  0  0  0  0
  138.3180   77.3330  221.1280 H   0  0  0  0  0  0  0  0  0  0  0  0
  1  2  1  0
  2  3  2  0
  2  4  1  0
  4  5  1  0
  5  6  1  0
  6  7  1  0
  7  8  1  0
  8  9  1  0
  9 10  2  0
 10 11  1  0
 11 12  1  0
 12 13  1  0
 13 14  1  0
 14 15  1  0
 15 16  2  0
 16 17  1  0
 17 18  2  0
 18 19  1  0
 19 20  2  0
 20 21  1  0
 11 22  2  0
 22 23  1  0
 23 24  1  0
 24 25  1  0
 25 26  1  0
 26 27  1  0
 27 28  2  0
 28 29  1  0
 29 30  2  0
 30 31  1  0
 31 32  2  0
 32 33  1  0
 23 34  2  0
  8 35  1  0
 35 36  1  0
 36  6  1  0
 34  9  1  0
 21 12  1  0
 33 24  1  0
 20 15  1  0
 32 27  1  0
  1 37  1  0
  1 38  1  0
  4 39  1  0
  4 40  1  0
  5 41  1  0
  5 42  1  0
  6 43  1  6
  7 44  1  0
  7 45  1  0
  8 46  1  1
 13 47  1  0
 13 48  1  0
 14 49  1  0
 14 50  1  0
 16 51  1  0
 17 52  1  0
 18 53  1  0
 19 54  1  0
 21 55  1  0
 21 56  1  0
 25 57  1  0
 25 58  1  0
 26 59  1  0
 26 60  1  0
 28 61  1  0
 29 62  1  0
 30 63  1  0
 31 64  1  0
 33 65  1  0
 33 66  1  0
 35 67  1  0
 35 68  1  0
 36 69  1  0
M  END
>  <smiles>  (7) 
NC(=O)CC[C@H]1C[C@H](c2nc(N3CCc4ccccc4C3)nc(N3CCc4ccccc4C3)n2)CN1

>  <score_type>  (7) 
oracle

>  <origin>  (7) 
autodockgpu

>  <m_score__min__energy>  (7) 
-10.91

>  <m_primary>  (7) 
energy

>  <meeko>  (7) 
{"free_energy": -9.52, "intermolecular_energy": -11.31, "internal_energy": -1.03, "cluster_size": 2, "cluster_id": 3, "rank_in_cluster": 1}

>  <energy>  (7) 
-10.14

>  <cluster_rmsd>  (7) 
0.77

>  <rmsd>  (7) 
270.43

>  <cluster>  (7) 
1

$$$$

     RDKit          3D

 69 74  0  0  0  0  0  0  0  0999 V2000
  146.2990   68.8400  217.4750 N   0  0  0  0  0  0  0  0  0  0  0  0
  145.5500   69.5220  218.4890 C   0  0  0  0  0  0  0  0  0  0  0  0
  145.7310   69.3160  219.7170 O   0  0  0  0  0  0  0  0  0  0  0  0
  144.5310   70.5020  217.9850 C   0  0  0  0  0  0  0  0  0  0  0  0
  145.3000   71.6370  217.3230 C   0  0  0  0  0  0  0  0  0  0  0  0
  145.3580   72.8390  218.2730 C   0  0  1  0  0  0  0  0  0  0  0  0
  143.9490   73.2820  218.6740 C   0  0  0  0  0  0  0  0  0  0  0  0
  143.7600   72.4390  219.9160 C   0  0  2  0  0  0  0  0  0  0  0  0
  142.6390   72.8960  220.7640 C   0  0  0  0  0  0  0  0  0  0  0  0
  142.2650   74.1840  220.7130 N   0  0  0  0  0  0  0  0  0  0  0  0
  141.2490   74.6690  221.4600 C   0  0  0  0  0  0  0  0  0  0  0  0
  140.8750   76.0220  221.3910 N   0  0  0  0  0  0  0  0  0  0  0  0
  140.7120   76.7540  220.1370 C   0  0  0  0  0  0  0  0  0  0  0  0
  141.8760   77.7530  220.1160 C   0  0  0  0  0  0  0  0  0  0  0  0
  141.7020   78.6160  221.3180 C   0  0  0  0  0  0  0  0  0  0  0  0
  142.1510   79.9380  221.2600 C   0  0  0  0  0  0  0  0  0  0  0  0
  142.0060   80.7770  222.3670 C   0  0  0  0  0  0  0  0  0  0  0  0
  141.4170   80.3240  223.5430 C   0  0  0  0  0  0  0  0  0  0  0  0
  140.9790   78.9990  223.5670 C   0  0  0  0  0  0  0  0  0  0  0  0
  141.1190   78.1690  222.4860 C   0  0  0  0  0  0  0  0  0  0  0  0
  140.6230   76.7800  222.6090 C   0  0  0  0  0  0  0  0  0  0  0  0
  140.6020   73.8180  222.2760 N   0  0  0  0  0  0  0  0  0  0  0  0
  140.9420   72.5060  222.3640 C   0  0  0  0  0  0  0  0  0  0  0  0
  140.2400   71.6110  223.2400 N   0  0  0  0  0  0  0  0  0  0  0  0
  139.3490   70.5790  222.6950 C   0  0  0  0  0  0  0  0  0  0  0  0
  138.3300   70.3250  223.7980 C   0  0  0  0  0  0  0  0  0  0  0  0
  139.1310   69.7170  224.9220 C   0  0  0  0  0  0  0  0  0  0  0  0
  138.7940   68.4950  225.4690 C   0  0  0  0  0  0  0  0  0  0  0  0
  139.6060   68.0400  226.4970 C   0  0  0  0  0  0  0  0  0  0  0  0
  140.6820   68.7870  226.9300 C   0  0  0  0  0  0  0  0  0  0  0  0
  141.0090   70.0020  226.3790 C   0  0  0  0  0  0  0  0  0  0  0  0
  140.2070   70.4660  225.3540 C   0  0  0  0  0  0  0  0  0  0  0  0
  140.4430   71.7620  224.6660 C   0  0  0  0  0  0  0  0  0  0  0  0
  141.9620   72.0650  221.6010 N   0  0  0  0  0  0  0  0  0  0  0  0
  145.0990   72.6500  220.5910 C   0  0  0  0  0  0  0  0  0  0  0  0
  146.0180   72.4610  219.4850 N   0  0  0  0  0  0  0  0  0  0  0  0
  146.0560   67.8790  217.1440 H   0  0  0  0  0  0  0  0  0  0  0  0
  147.1380   69.2960  217.0230 H   0  0  0  0  0  0  0  0  0  0  0  0
  143.8685   70.0165  217.2533 H   0  0  0  0  0  0  0  0  0  0  0  0
  143.9047   70.8775  218.8077 H   0  0  0  0  0  0  0  0  0  0  0  0
  146.3222   71.3019  217.0932 H   0  0  0  0  0  0  0  0  0  0  0  0
  144.7916   71.9299  216.3925 H   0  0  0  0  0  0  0  0  0  0  0  0
  145.8886   73.6487  217.7507 H   0  0  0  0  0  0  0  0  0  0  0  0
  143.9066   74.3579  218.8991 H   0  0  0  0  0  0  0  0  0  0  0  0
  143.1802   73.1485  217.8987 H   0  0  0  0  0  0  0  0  0  0  0  0
  143.4986   71.3907  219.7090 H   0  0  0  0  0  0  0  0  0  0  0  0
  140.7722   76.0699  219.2777 H   0  0  0  0  0  0  0  0  0  0  0  0
  139.7339   77.2527  220.0700 H   0  0  0  0  0  0  0  0  0  0  0  0
  142.8372   77.2202  220.1645 H   0  0  0  0  0  0  0  0  0  0  0  0
  141.8779   78.3482  219.1910 H   0  0  0  0  0  0  0  0  0  0  0  0
  142.6196   80.3186  220.3405 H   0  0  0  0  0  0  0  0  0  0  0  0
  142.3642   81.8154  222.3079 H   0  0  0  0  0  0  0  0  0  0  0  0
  141.3014   80.9821  224.4168 H   0  0  0  0  0  0  0  0  0  0  0  0
  140.5073   78.6095  224.4812 H   0  0  0  0  0  0  0  0  0  0  0  0
  141.1350   76.2891  223.4498 H   0  0  0  0  0  0  0  0  0  0  0  0
  139.5371   76.8114  222.7819 H   0  0  0  0  0  0  0  0  0  0  0  0
  138.8512   70.9390  221.7826 H   0  0  0  0  0  0  0  0  0  0  0  0
  139.8937   69.6657  222.4137 H   0  0  0  0  0  0  0  0  0  0  0  0
  137.8626   71.2674  224.1196 H   0  0  0  0  0  0  0  0  0  0  0  0
  137.5110   69.6696  223.4669 H   0  0  0  0  0  0  0  0  0  0  0  0
  137.9308   67.9154  225.1099 H   0  0  0  0  0  0  0  0  0  0  0  0
  139.3896   67.0721  226.9728 H   0  0  0  0  0  0  0  0  0  0  0  0
  141.3026   68.3941  227.7488 H   0  0  0  0  0  0  0  0  0  0  0  0
  141.8725   70.5809  226.7384 H   0  0  0  0  0  0  0  0  0  0  0  0
  139.7416   72.5143  225.0560 H   0  0  0  0  0  0  0  0  0  0  0  0
  141.4781   72.0852  224.8507 H   0  0  0  0  0  0  0  0  0  0  0  0
  145.1808   73.6630  221.0119 H   0  0  0  0  0  0  0  0  0  0  0  0
  145.2808   71.9782  221.4428 H   0  0  0  0  0  0  0  0  0  0  0  0
  146.2250   71.4390  219.4690 H   0  0  0  0  0  0  0  0  0  0  0  0
  1  2  1  0
  2  3  2  0
  2  4  1  0
  4  5  1  0
  5  6  1  0
  6  7  1  0
  7  8  1  0
  8  9  1  0
  9 10  2  0
 10 11  1  0
 11 12  1  0
 12 13  1  0
 13 14  1  0
 14 15  1  0
 15 16  2  0
 16 17  1  0
 17 18  2  0
 18 19  1  0
 19 20  2  0
 20 21  1  0
 11 22  2  0
 22 23  1  0
 23 24  1  0
 24 25  1  0
 25 26  1  0
 26 27  1  0
 27 28  2  0
 28 29  1  0
 29 30  2  0
 30 31  1  0
 31 32  2  0
 32 33  1  0
 23 34  2  0
  8 35  1  0
 35 36  1  0
 36  6  1  0
 34  9  1  0
 21 12  1  0
 33 24  1  0
 20 15  1  0
 32 27  1  0
  1 37  1  0
  1 38  1  0
  4 39  1  0
  4 40  1  0
  5 41  1  0
  5 42  1  0
  6 43  1  6
  7 44  1  0
  7 45  1  0
  8 46  1  6
 13 47  1  0
 13 48  1  0
 14 49  1  0
 14 50  1  0
 16 51  1  0
 17 52  1  0
 18 53  1  0
 19 54  1  0
 21 55  1  0
 21 56  1  0
 25 57  1  0
 25 58  1  0
 26 59  1  0
 26 60  1  0
 28 61  1  0
 29 62  1  0
 30 63  1  0
 31 64  1  0
 33 65  1  0
 33 66  1  0
 35 67  1  0
 35 68  1  0
 36 69  1  0
M  END
>  <smiles>  (8) 
NC(=O)CC[C@H]1C[C@H](c2nc(N3CCc4ccccc4C3)nc(N3CCc4ccccc4C3)n2)CN1

>  <score_type>  (8) 
oracle

>  <origin>  (8) 
autodockgpu

>  <m_score__min__energy>  (8) 
-10.91

>  <m_primary>  (8) 
energy

>  <meeko>  (8) 
{"free_energy": -10.57, "intermolecular_energy": -12.36, "internal_energy": -1.46, "cluster_size": 14, "cluster_id": 1, "rank_in_cluster": 4}

>  <energy>  (8) 
-10.12

>  <cluster_rmsd>  (8) 
0.78

>  <rmsd>  (8) 
270.42

>  <cluster>  (8) 
1

$$$$

     RDKit          3D

 69 74  0  0  0  0  0  0  0  0999 V2000
  146.2910   68.2180  217.9100 N   0  0  0  0  0  0  0  0  0  0  0  0
  145.5680   68.6750  219.0600 C   0  0  0  0  0  0  0  0  0  0  0  0
  145.6300   68.0890  220.1720 O   0  0  0  0  0  0  0  0  0  0  0  0
  144.7310   69.9010  218.8480 C   0  0  0  0  0  0  0  0  0  0  0  0
  145.5500   70.8510  217.9830 C   0  0  0  0  0  0  0  0  0  0  0  0
  144.8230   72.1960  217.8710 C   0  0  1  0  0  0  0  0  0  0  0  0
  143.4630   72.1380  218.5690 C   0  0  0  0  0  0  0  0  0  0  0  0
  143.8670   72.5880  219.9560 C   0  0  2  0  0  0  0  0  0  0  0  0
  142.7200   72.9960  220.7920 C   0  0  0  0  0  0  0  0  0  0  0  0
  142.3220   74.2780  220.7740 N   0  0  0  0  0  0  0  0  0  0  0  0
  141.2810   74.7190  221.5130 C   0  0  0  0  0  0  0  0  0  0  0  0
  140.8820   76.0670  221.4780 N   0  0  0  0  0  0  0  0  0  0  0  0
  140.6520   76.8110  220.2430 C   0  0  0  0  0  0  0  0  0  0  0  0
  141.7980   77.8300  220.1850 C   0  0  0  0  0  0  0  0  0  0  0  0
  141.6620   78.6750  221.4040 C   0  0  0  0  0  0  0  0  0  0  0  0
  142.0860   80.0050  221.3440 C   0  0  0  0  0  0  0  0  0  0  0  0
  141.9760   80.8270  222.4680 C   0  0  0  0  0  0  0  0  0  0  0  0
  141.4460   80.3500  223.6620 C   0  0  0  0  0  0  0  0  0  0  0  0
  141.0320   79.0170  223.6880 C   0  0  0  0  0  0  0  0  0  0  0  0
  141.1380   78.2040  222.5900 C   0  0  0  0  0  0  0  0  0  0  0  0
  140.6710   76.8050  222.7160 C   0  0  0  0  0  0  0  0  0  0  0  0
  140.6330   73.8310  222.2870 N   0  0  0  0  0  0  0  0  0  0  0  0
  140.9970   72.5230  222.3420 C   0  0  0  0  0  0  0  0  0  0  0  0
  140.2950   71.5880  223.1740 N   0  0  0  0  0  0  0  0  0  0  0  0
  139.4560   70.5420  222.5760 C   0  0  0  0  0  0  0  0  0  0  0  0
  138.4080   70.2310  223.6380 C   0  0  0  0  0  0  0  0  0  0  0  0
  139.1890   69.6230  224.7750 C   0  0  0  0  0  0  0  0  0  0  0  0
  138.8720   68.3790  225.2840 C   0  0  0  0  0  0  0  0  0  0  0  0
  139.6620   67.9270  226.3300 C   0  0  0  0  0  0  0  0  0  0  0  0
  140.6990   68.6970  226.8160 C   0  0  0  0  0  0  0  0  0  0  0  0
  141.0060   69.9340  226.3020 C   0  0  0  0  0  0  0  0  0  0  0  0
  140.2260   70.3950  225.2600 C   0  0  0  0  0  0  0  0  0  0  0  0
  140.4440   71.7130  224.6090 C   0  0  0  0  0  0  0  0  0  0  0  0
  142.0420   72.1260  221.5880 N   0  0  0  0  0  0  0  0  0  0  0  0
  144.7570   73.7620  219.6080 C   0  0  0  0  0  0  0  0  0  0  0  0
  145.5760   73.2060  218.5480 N   0  0  0  0  0  0  0  0  0  0  0  0
  145.9460   67.4470  217.2960 H   0  0  0  0  0  0  0  0  0  0  0  0
  147.2150   68.6550  217.6420 H   0  0  0  0  0  0  0  0  0  0  0  0
  143.7942   69.6357  218.3362 H   0  0  0  0  0  0  0  0  0  0  0  0
  144.4683   70.3696  219.8079 H   0  0  0  0  0  0  0  0  0  0  0  0
  146.5377   71.0053  218.4419 H   0  0  0  0  0  0  0  0  0  0  0  0
  145.6752   70.4174  216.9798 H   0  0  0  0  0  0  0  0  0  0  0  0
  144.7037   72.4192  216.8005 H   0  0  0  0  0  0  0  0  0  0  0  0
  142.7380   72.8265  218.1104 H   0  0  0  0  0  0  0  0  0  0  0  0
  142.9583   71.1616  218.5249 H   0  0  0  0  0  0  0  0  0  0  0  0
  144.3420   71.8017  220.5610 H   0  0  0  0  0  0  0  0  0  0  0  0
  140.6857   76.1389  219.3729 H   0  0  0  0  0  0  0  0  0  0  0  0
  139.6637   77.2936  220.2250 H   0  0  0  0  0  0  0  0  0  0  0  0
  142.7689   77.3129  220.1854 H   0  0  0  0  0  0  0  0  0  0  0  0
  141.7503   78.4364  219.2685 H   0  0  0  0  0  0  0  0  0  0  0  0
  142.5071   80.4054  220.4100 H   0  0  0  0  0  0  0  0  0  0  0  0
  142.3151   81.8717  222.4076 H   0  0  0  0  0  0  0  0  0  0  0  0
  141.3568   80.9955  224.5482 H   0  0  0  0  0  0  0  0  0  0  0  0
  140.6084   78.6074  224.6169 H   0  0  0  0  0  0  0  0  0  0  0  0
  141.2275   76.3124  223.5270 H   0  0  0  0  0  0  0  0  0  0  0  0
  139.5934   76.8154  222.9366 H   0  0  0  0  0  0  0  0  0  0  0  0
  138.9782   70.9075  221.6551 H   0  0  0  0  0  0  0  0  0  0  0  0
  140.0385   69.6526  222.2936 H   0  0  0  0  0  0  0  0  0  0  0  0
  137.9001   71.1508  223.9637 H   0  0  0  0  0  0  0  0  0  0  0  0
  137.6220   69.5582  223.2645 H   0  0  0  0  0  0  0  0  0  0  0  0
  138.0405   67.7810  224.8827 H   0  0  0  0  0  0  0  0  0  0  0  0
  139.4597   66.9429  226.7778 H   0  0  0  0  0  0  0  0  0  0  0  0
  141.3035   68.3053  227.6473 H   0  0  0  0  0  0  0  0  0  0  0  0
  141.8377   70.5315  226.7036 H   0  0  0  0  0  0  0  0  0  0  0  0
  139.7059   72.4340  224.9903 H   0  0  0  0  0  0  0  0  0  0  0  0
  141.4612   72.0641  224.8369 H   0  0  0  0  0  0  0  0  0  0  0  0
  144.1680   74.6199  219.2516 H   0  0  0  0  0  0  0  0  0  0  0  0
  145.3335   74.1531  220.4593 H   0  0  0  0  0  0  0  0  0  0  0  0
  146.3940   72.7720  219.0290 H   0  0  0  0  0  0  0  0  0  0  0  0
  1  2  1  0
  2  3  2  0
  2  4  1  0
  4  5  1  0
  5  6  1  0
  6  7  1  0
  7  8  1  0
  8  9  1  0
  9 10  2  0
 10 11  1  0
 11 12  1  0
 12 13  1  0
 13 14  1  0
 14 15  1  0
 15 16  2  0
 16 17  1  0
 17 18  2  0
 18 19  1  0
 19 20  2  0
 20 21  1  0
 11 22  2  0
 22 23  1  0
 23 24  1  0
 24 25  1  0
 25 26  1  0
 26 27  1  0
 27 28  2  0
 28 29  1  0
 29 30  2  0
 30 31  1  0
 31 32  2  0
 32 33  1  0
 23 34  2  0
  8 35  1  0
 35 36  1  0
 36  6  1  0
 34  9  1  0
 21 12  1  0
 33 24  1  0
 20 15  1  0
 32 27  1  0
  1 37  1  0
  1 38  1  0
  4 39  1  0
  4 40  1  0
  5 41  1  0
  5 42  1  0
  6 43  1  6
  7 44  1  0
  7 45  1  0
  8 46  1  1
 13 47  1  0
 13 48  1  0
 14 49  1  0
 14 50  1  0
 16 51  1  0
 17 52  1  0
 18 53  1  0
 19 54  1  0
 21 55  1  0
 21 56  1  0
 25 57  1  0
 25 58  1  0
 26 59  1  0
 26 60  1  0
 28 61  1  0
 29 62  1  0
 30 63  1  0
 31 64  1  0
 33 65  1  0
 33 66  1  0
 35 67  1  0
 35 68  1  0
 36 69  1  0
M  END
>  <smiles>  (9) 
NC(=O)CC[C@H]1C[C@H](c2nc(N3CCc4ccccc4C3)nc(N3CCc4ccccc4C3)n2)CN1

>  <score_type>  (9) 
oracle

>  <origin>  (9) 
autodockgpu

>  <m_score__min__energy>  (9) 
-10.91

>  <m_primary>  (9) 
energy

>  <meeko>  (9) 
{"free_energy": -10.7, "intermolecular_energy": -12.49, "internal_energy": -1.01, "cluster_size": 14, "cluster_id": 1, "rank_in_cluster": 3}

>  <energy>  (9) 
-10.12

>  <cluster_rmsd>  (9) 
0.76

>  <rmsd>  (9) 
270.43

>  <cluster>  (9) 
1

$$$$

     RDKit          3D

 69 74  0  0  0  0  0  0  0  0999 V2000
  146.4010   74.9240  215.8760 N   0  0  0  0  0  0  0  0  0  0  0  0
  147.1520   73.7050  215.9400 C   0  0  0  0  0  0  0  0  0  0  0  0
  148.4080   73.6890  216.0180 O   0  0  0  0  0  0  0  0  0  0  0  0
  146.3380   72.4450  215.9080 C   0  0  0  0  0  0  0  0  0  0  0  0
  145.0280   72.7480  216.6250 C   0  0  0  0  0  0  0  0  0  0  0  0
  145.3260   73.3360  218.0100 C   0  0  1  0  0  0  0  0  0  0  0  0
  144.0760   73.9930  218.6000 C   0  0  0  0  0  0  0  0  0  0  0  0
  143.4920   72.8110  219.3410 C   0  0  2  0  0  0  0  0  0  0  0  0
  142.4640   73.1950  220.3300 C   0  0  0  0  0  0  0  0  0  0  0  0
  142.1120   74.4860  220.4390 N   0  0  0  0  0  0  0  0  0  0  0  0
  141.1790   74.9070  221.3210 C   0  0  0  0  0  0  0  0  0  0  0  0
  140.8270   76.2650  221.4170 N   0  0  0  0  0  0  0  0  0  0  0  0
  140.4900   77.0970  220.2650 C   0  0  0  0  0  0  0  0  0  0  0  0
  141.6570   78.0840  220.1430 C   0  0  0  0  0  0  0  0  0  0  0  0
  141.6870   78.8490  221.4210 C   0  0  0  0  0  0  0  0  0  0  0  0
  142.1500   80.1680  221.3980 C   0  0  0  0  0  0  0  0  0  0  0  0
  142.1930   80.9150  222.5770 C   0  0  0  0  0  0  0  0  0  0  0  0
  141.7830   80.3740  223.7910 C   0  0  0  0  0  0  0  0  0  0  0  0
  141.3260   79.0550  223.7780 C   0  0  0  0  0  0  0  0  0  0  0  0
  141.2810   78.3150  222.6260 C   0  0  0  0  0  0  0  0  0  0  0  0
  140.7810   76.9240  222.7150 C   0  0  0  0  0  0  0  0  0  0  0  0
  140.5940   73.9890  222.1090 N   0  0  0  0  0  0  0  0  0  0  0  0
  140.9150   72.6700  222.0390 C   0  0  0  0  0  0  0  0  0  0  0  0
  140.2800   71.7020  222.8880 N   0  0  0  0  0  0  0  0  0  0  0  0
  139.5690   70.5560  222.3090 C   0  0  0  0  0  0  0  0  0  0  0  0
  138.5220   70.1830  223.3520 C   0  0  0  0  0  0  0  0  0  0  0  0
  139.3200   69.7010  224.5360 C   0  0  0  0  0  0  0  0  0  0  0  0
  139.1100   68.4520  225.0870 C   0  0  0  0  0  0  0  0  0  0  0  0
  139.9050   68.1210  226.1740 C   0  0  0  0  0  0  0  0  0  0  0  0
  140.8440   69.0080  226.6580 C   0  0  0  0  0  0  0  0  0  0  0  0
  141.0450   70.2490  226.1030 C   0  0  0  0  0  0  0  0  0  0  0  0
  140.2580   70.5900  225.0190 C   0  0  0  0  0  0  0  0  0  0  0  0
  140.3680   71.8970  224.3210 C   0  0  0  0  0  0  0  0  0  0  0  0
  141.8510   72.2940  221.1440 N   0  0  0  0  0  0  0  0  0  0  0  0
  144.7390   72.2680  220.0070 C   0  0  0  0  0  0  0  0  0  0  0  0
  145.6880   72.2850  218.9100 N   0  0  0  0  0  0  0  0  0  0  0  0
  146.2610   75.4540  214.9870 H   0  0  0  0  0  0  0  0  0  0  0  0
  145.9560   75.3320  216.7430 H   0  0  0  0  0  0  0  0  0  0  0  0
  146.1402   72.1484  214.8674 H   0  0  0  0  0  0  0  0  0  0  0  0
  146.8729   71.6174  216.3968 H   0  0  0  0  0  0  0  0  0  0  0  0
  144.4472   73.4733  216.0362 H   0  0  0  0  0  0  0  0  0  0  0  0
  144.4492   71.8195  216.7382 H   0  0  0  0  0  0  0  0  0  0  0  0
  146.1352   74.0715  217.8906 H   0  0  0  0  0  0  0  0  0  0  0  0
  144.3301   74.8184  219.2813 H   0  0  0  0  0  0  0  0  0  0  0  0
  143.4042   74.4605  217.8651 H   0  0  0  0  0  0  0  0  0  0  0  0
  142.9566   72.0992  218.6955 H   0  0  0  0  0  0  0  0  0  0  0  0
  140.4038   76.4840  219.3557 H   0  0  0  0  0  0  0  0  0  0  0  0
  139.5239   77.6081  220.3891 H   0  0  0  0  0  0  0  0  0  0  0  0
  142.6030   77.5409  220.0010 H   0  0  0  0  0  0  0  0  0  0  0  0
  141.5297   78.7516  219.2781 H   0  0  0  0  0  0  0  0  0  0  0  0
  142.4807   80.6178  220.4502 H   0  0  0  0  0  0  0  0  0  0  0  0
  142.5584   81.9520  222.5450 H   0  0  0  0  0  0  0  0  0  0  0  0
  141.8174   80.9602  224.7212 H   0  0  0  0  0  0  0  0  0  0  0  0
  140.9922   78.5964  224.7205 H   0  0  0  0  0  0  0  0  0  0  0  0
  141.4060   76.3626  223.4250 H   0  0  0  0  0  0  0  0  0  0  0  0
  139.7355   76.9502  223.0561 H   0  0  0  0  0  0  0  0  0  0  0  0
  139.0885   70.8367  221.3602 H   0  0  0  0  0  0  0  0  0  0  0  0
  140.2452   69.7191  222.0803 H   0  0  0  0  0  0  0  0  0  0  0  0
  137.9150   71.0592  223.6236 H   0  0  0  0  0  0  0  0  0  0  0  0
  137.8196   69.4206  222.9840 H   0  0  0  0  0  0  0  0  0  0  0  0
  138.3552   67.7593  224.6865 H   0  0  0  0  0  0  0  0  0  0  0  0
  139.7854   67.1395  226.6560 H   0  0  0  0  0  0  0  0  0  0  0  0
  141.4560   68.7103  227.5222 H   0  0  0  0  0  0  0  0  0  0  0  0
  141.7998   70.9413  226.5042 H   0  0  0  0  0  0  0  0  0  0  0  0
  139.5507   72.5556  224.6499 H   0  0  0  0  0  0  0  0  0  0  0  0
  141.3376   72.3560  224.5643 H   0  0  0  0  0  0  0  0  0  0  0  0
  145.0680   72.9167  220.8322 H   0  0  0  0  0  0  0  0  0  0  0  0
  144.6051   71.2778  220.4669 H   0  0  0  0  0  0  0  0  0  0  0  0
  145.5800   71.3630  218.4360 H   0  0  0  0  0  0  0  0  0  0  0  0
  1  2  1  0
  2  3  2  0
  2  4  1  0
  4  5  1  0
  5  6  1  0
  6  7  1  0
  7  8  1  0
  8  9  1  0
  9 10  2  0
 10 11  1  0
 11 12  1  0
 12 13  1  0
 13 14  1  0
 14 15  1  0
 15 16  2  0
 16 17  1  0
 17 18  2  0
 18 19  1  0
 19 20  2  0
 20 21  1  0
 11 22  2  0
 22 23  1  0
 23 24  1  0
 24 25  1  0
 25 26  1  0
 26 27  1  0
 27 28  2  0
 28 29  1  0
 29 30  2  0
 30 31  1  0
 31 32  2  0
 32 33  1  0
 23 34  2  0
  8 35  1  0
 35 36  1  0
 36  6  1  0
 34  9  1  0
 21 12  1  0
 33 24  1  0
 20 15  1  0
 32 27  1  0
  1 37  1  0
  1 38  1  0
  4 39  1  0
  4 40  1  0
  5 41  1  0
  5 42  1  0
  6 43  1  6
  7 44  1  0
  7 45  1  0
  8 46  1  6
 13 47  1  0
 13 48  1  0
 14 49  1  0
 14 50  1  0
 16 51  1  0
 17 52  1  0
 18 53  1  0
 19 54  1  0
 21 55  1  0
 21 56  1  0
 25 57  1  0
 25 58  1  0
 26 59  1  0
 26 60  1  0
 28 61  1  0
 29 62  1  0
 30 63  1  0
 31 64  1  0
 33 65  1  0
 33 66  1  0
 35 67  1  0
 35 68  1  0
 36 69  1  0
M  END
>  <smiles>  (10) 
NC(=O)CC[C@H]1C[C@H](c2nc(N3CCc4ccccc4C3)nc(N3CCc4ccccc4C3)n2)CN1

>  <score_type>  (10) 
oracle

>  <origin>  (10) 
autodockgpu

>  <m_score__min__energy>  (10) 
-10.91

>  <m_primary>  (10) 
energy

>  <meeko>  (10) 
{"free_energy": -10.39, "intermolecular_energy": -12.18, "internal_energy": -1.01, "cluster_size": 3, "cluster_id": 2, "rank_in_cluster": 1}

>  <energy>  (10) 
-10.07

>  <cluster_rmsd>  (10) 
0.75

>  <rmsd>  (10) 
270.38

>  <cluster>  (10) 
1

$$$$

     RDKit          3D

 69 74  0  0  0  0  0  0  0  0999 V2000
  145.0510   66.8590  218.1640 N   0  0  0  0  0  0  0  0  0  0  0  0
  145.7260   67.9120  218.8640 C   0  0  0  0  0  0  0  0  0  0  0  0
  145.8580   67.9150  220.1160 O   0  0  0  0  0  0  0  0  0  0  0  0
  146.2660   69.0140  218.0020 C   0  0  0  0  0  0  0  0  0  0  0  0
  145.5060   70.2800  218.3760 C   0  0  0  0  0  0  0  0  0  0  0  0
  144.0080   69.9680  218.4750 C   0  0  1  0  0  0  0  0  0  0  0  0
  143.4520   70.4080  219.8310 C   0  0  0  0  0  0  0  0  0  0  0  0
  143.0310   71.8200  219.4880 C   0  0  2  0  0  0  0  0  0  0  0  0
  142.1130   72.4110  220.4840 C   0  0  0  0  0  0  0  0  0  0  0  0
  141.8200   73.7190  220.4080 N   0  0  0  0  0  0  0  0  0  0  0  0
  140.9890   74.3240  221.2840 C   0  0  0  0  0  0  0  0  0  0  0  0
  140.6970   75.6960  221.1850 N   0  0  0  0  0  0  0  0  0  0  0  0
  140.7710   76.4500  219.9360 C   0  0  0  0  0  0  0  0  0  0  0  0
  141.9710   77.3870  220.1180 C   0  0  0  0  0  0  0  0  0  0  0  0
  141.6530   78.2440  221.2940 C   0  0  0  0  0  0  0  0  0  0  0  0
  142.1700   79.5410  221.3350 C   0  0  0  0  0  0  0  0  0  0  0  0
  141.8930   80.3730  222.4220 C   0  0  0  0  0  0  0  0  0  0  0  0
  141.1050   79.9370  223.4820 C   0  0  0  0  0  0  0  0  0  0  0  0
  140.6040   78.6360  223.4100 C   0  0  0  0  0  0  0  0  0  0  0  0
  140.8710   77.8140  222.3470 C   0  0  0  0  0  0  0  0  0  0  0  0
  140.2950   76.4510  222.3630 C   0  0  0  0  0  0  0  0  0  0  0  0
  140.4450   73.5750  222.2590 N   0  0  0  0  0  0  0  0  0  0  0  0
  140.7090   72.2480  222.3810 C   0  0  0  0  0  0  0  0  0  0  0  0
  140.1200   71.4630  223.4280 N   0  0  0  0  0  0  0  0  0  0  0  0
  139.0430   70.5110  223.1310 C   0  0  0  0  0  0  0  0  0  0  0  0
  138.2520   70.4030  224.4290 C   0  0  0  0  0  0  0  0  0  0  0  0
  139.2040   69.7570  225.4020 C   0  0  0  0  0  0  0  0  0  0  0  0
  138.8720   68.5960  226.0730 C   0  0  0  0  0  0  0  0  0  0  0  0
  139.8300   68.0970  226.9420 C   0  0  0  0  0  0  0  0  0  0  0  0
  141.0380   68.7430  227.1090 C   0  0  0  0  0  0  0  0  0  0  0  0
  141.3590   69.8970  226.4360 C   0  0  0  0  0  0  0  0  0  0  0  0
  140.4120   70.4040  225.5670 C   0  0  0  0  0  0  0  0  0  0  0  0
  140.6240   71.6430  224.7750 C   0  0  0  0  0  0  0  0  0  0  0  0
  141.5450   71.6850  221.4840 N   0  0  0  0  0  0  0  0  0  0  0  0
  142.3430   71.5810  218.1610 C   0  0  0  0  0  0  0  0  0  0  0  0
  143.2950   70.7190  217.4880 N   0  0  0  0  0  0  0  0  0  0  0  0
  144.0110   66.8190  218.0720 H   0  0  0  0  0  0  0  0  0  0  0  0
  145.5940   66.0740  217.7120 H   0  0  0  0  0  0  0  0  0  0  0  0
  147.3414   69.1488  218.1897 H   0  0  0  0  0  0  0  0  0  0  0  0
  146.1383   68.7784  216.9352 H   0  0  0  0  0  0  0  0  0  0  0  0
  145.8678   70.6515  219.3461 H   0  0  0  0  0  0  0  0  0  0  0  0
  145.6701   71.0469  217.6047 H   0  0  0  0  0  0  0  0  0  0  0  0
  143.8851   68.8840  218.3345 H   0  0  0  0  0  0  0  0  0  0  0  0
  142.5970   69.7902  220.1430 H   0  0  0  0  0  0  0  0  0  0  0  0
  144.1547   70.3226  220.6729 H   0  0  0  0  0  0  0  0  0  0  0  0
  143.8619   72.5404  219.4630 H   0  0  0  0  0  0  0  0  0  0  0  0
  140.9325   75.7738  219.0836 H   0  0  0  0  0  0  0  0  0  0  0  0
  139.8417   76.9997  219.7258 H   0  0  0  0  0  0  0  0  0  0  0  0
  142.8848   76.8044  220.3064 H   0  0  0  0  0  0  0  0  0  0  0  0
  142.1480   77.9921  219.2166 H   0  0  0  0  0  0  0  0  0  0  0  0
  142.7969   79.9080  220.5090 H   0  0  0  0  0  0  0  0  0  0  0  0
  142.3059   81.3924  222.4402 H   0  0  0  0  0  0  0  0  0  0  0  0
  140.8860   80.5893  224.3402 H   0  0  0  0  0  0  0  0  0  0  0  0
  139.9762   78.2597  224.2311 H   0  0  0  0  0  0  0  0  0  0  0  0
  140.6444   75.9243  223.2633 H   0  0  0  0  0  0  0  0  0  0  0  0
  139.1983   76.5362  222.3648 H   0  0  0  0  0  0  0  0  0  0  0  0
  138.4049   70.8885  222.3184 H   0  0  0  0  0  0  0  0  0  0  0  0
  139.4296   69.5367  222.7973 H   0  0  0  0  0  0  0  0  0  0  0  0
  137.9507   71.3995  224.7841 H   0  0  0  0  0  0  0  0  0  0  0  0
  137.3251   69.8237  224.3055 H   0  0  0  0  0  0  0  0  0  0  0  0
  137.9032   68.0962  225.9262 H   0  0  0  0  0  0  0  0  0  0  0  0
  139.6247   67.1748  227.5054 H   0  0  0  0  0  0  0  0  0  0  0  0
  141.7727   68.3173  227.8083 H   0  0  0  0  0  0  0  0  0  0  0  0
  142.3283   70.3959  226.5827 H   0  0  0  0  0  0  0  0  0  0  0  0
  140.0914   72.4775  225.2546 H   0  0  0  0  0  0  0  0  0  0  0  0
  141.7008   71.8635  224.7310 H   0  0  0  0  0  0  0  0  0  0  0  0
  141.3736   71.0792  218.2965 H   0  0  0  0  0  0  0  0  0  0  0  0
  142.1059   72.5021  217.6084 H   0  0  0  0  0  0  0  0  0  0  0  0
  143.9510   71.3620  216.9940 H   0  0  0  0  0  0  0  0  0  0  0  0
  1  2  1  0
  2  3  2  0
  2  4  1  0
  4  5  1  0
  5  6  1  0
  6  7  1  0
  7  8  1  0
  8  9  1  0
  9 10  2  0
 10 11  1  0
 11 12  1  0
 12 13  1  0
 13 14  1  0
 14 15  1  0
 15 16  2  0
 16 17  1  0
 17 18  2  0
 18 19  1  0
 19 20  2  0
 20 21  1  0
 11 22  2  0
 22 23  1  0
 23 24  1  0
 24 25  1  0
 25 26  1  0
 26 27  1  0
 27 28  2  0
 28 29  1  0
 29 30  2  0
 30 31  1  0
 31 32  2  0
 32 33  1  0
 23 34  2  0
  8 35  1  0
 35 36  1  0
 36  6  1  0
 34  9  1  0
 21 12  1  0
 33 24  1  0
 20 15  1  0
 32 27  1  0
  1 37  1  0
  1 38  1  0
  4 39  1  0
  4 40  1  0
  5 41  1  0
  5 42  1  0
  6 43  1  6
  7 44  1  0
  7 45  1  0
  8 46  1  6
 13 47  1  0
 13 48  1  0
 14 49  1  0
 14 50  1  0
 16 51  1  0
 17 52  1  0
 18 53  1  0
 19 54  1  0
 21 55  1  0
 21 56  1  0
 25 57  1  0
 25 58  1  0
 26 59  1  0
 26 60  1  0
 28 61  1  0
 29 62  1  0
 30 63  1  0
 31 64  1  0
 33 65  1  0
 33 66  1  0
 35 67  1  0
 35 68  1  0
 36 69  1  0
M  END
>  <smiles>  (11) 
NC(=O)CC[C@H]1C[C@H](c2nc(N3CCc4ccccc4C3)nc(N3CCc4ccccc4C3)n2)CN1

>  <score_type>  (11) 
oracle

>  <origin>  (11) 
autodockgpu

>  <m_score__min__energy>  (11) 
-10.91

>  <m_primary>  (11) 
energy

>  <meeko>  (11) 
{"free_energy": -9.97, "intermolecular_energy": -11.76, "internal_energy": -1.11, "cluster_size": 14, "cluster_id": 1, "rank_in_cluster": 11}

>  <energy>  (11) 
-9.97

>  <cluster_rmsd>  (11) 
1.32

>  <rmsd>  (11) 
270.16

>  <cluster>  (11) 
1

$$$$

     RDKit          3D

 69 74  0  0  0  0  0  0  0  0999 V2000
  146.4070   74.9380  215.9350 N   0  0  0  0  0  0  0  0  0  0  0  0
  147.1840   73.7350  215.9970 C   0  0  0  0  0  0  0  0  0  0  0  0
  148.4410   73.7450  216.0580 O   0  0  0  0  0  0  0  0  0  0  0  0
  146.3950   72.4590  215.9820 C   0  0  0  0  0  0  0  0  0  0  0  0
  145.0980   72.7330  216.7330 C   0  0  0  0  0  0  0  0  0  0  0  0
  145.4150   73.0820  218.1920 C   0  0  1  0  0  0  0  0  0  0  0  0
  144.2550   73.8490  218.8300 C   0  0  0  0  0  0  0  0  0  0  0  0
  143.4580   72.6900  219.3870 C   0  0  2  0  0  0  0  0  0  0  0  0
  142.4540   73.1040  220.3900 C   0  0  0  0  0  0  0  0  0  0  0  0
  142.1070   74.3980  220.4720 N   0  0  0  0  0  0  0  0  0  0  0  0
  141.1970   74.8450  221.3640 C   0  0  0  0  0  0  0  0  0  0  0  0
  140.8490   76.2060  221.4310 N   0  0  0  0  0  0  0  0  0  0  0  0
  140.5910   77.0340  220.2570 C   0  0  0  0  0  0  0  0  0  0  0  0
  141.7710   78.0130  220.2040 C   0  0  0  0  0  0  0  0  0  0  0  0
  141.7260   78.7840  221.4780 C   0  0  0  0  0  0  0  0  0  0  0  0
  142.1990   80.0990  221.4780 C   0  0  0  0  0  0  0  0  0  0  0  0
  142.1730   80.8520  222.6540 C   0  0  0  0  0  0  0  0  0  0  0  0
  141.6820   80.3200  223.8420 C   0  0  0  0  0  0  0  0  0  0  0  0
  141.2180   79.0040  223.8060 C   0  0  0  0  0  0  0  0  0  0  0  0
  141.2400   78.2580  222.6570 C   0  0  0  0  0  0  0  0  0  0  0  0
  140.7260   76.8720  222.7200 C   0  0  0  0  0  0  0  0  0  0  0  0
  140.6290   73.9500  222.1900 N   0  0  0  0  0  0  0  0  0  0  0  0
  140.9450   72.6290  222.1490 C   0  0  0  0  0  0  0  0  0  0  0  0
  140.3300   71.6860  223.0390 N   0  0  0  0  0  0  0  0  0  0  0  0
  139.4470   70.6360  222.5170 C   0  0  0  0  0  0  0  0  0  0  0  0
  138.5040   70.3140  223.6700 C   0  0  0  0  0  0  0  0  0  0  0  0
  139.3910   69.7090  224.7280 C   0  0  0  0  0  0  0  0  0  0  0  0
  139.1310   68.4610  225.2590 C   0  0  0  0  0  0  0  0  0  0  0  0
  140.0180   68.0110  226.2260 C   0  0  0  0  0  0  0  0  0  0  0  0
  141.0900   68.7870  226.6170 C   0  0  0  0  0  0  0  0  0  0  0  0
  141.3400   70.0270  226.0810 C   0  0  0  0  0  0  0  0  0  0  0  0
  140.4630   70.4860  225.1180 C   0  0  0  0  0  0  0  0  0  0  0  0
  140.6110   71.8080  224.4550 C   0  0  0  0  0  0  0  0  0  0  0  0
  141.8600   72.2270  221.2420 N   0  0  0  0  0  0  0  0  0  0  0  0
  144.5700   71.8730  220.0080 C   0  0  0  0  0  0  0  0  0  0  0  0
  145.5640   71.8790  218.9520 N   0  0  0  0  0  0  0  0  0  0  0  0
  146.2450   75.4610  215.0450 H   0  0  0  0  0  0  0  0  0  0  0  0
  145.9650   75.3420  216.8060 H   0  0  0  0  0  0  0  0  0  0  0  0
  146.1767   72.1612  214.9458 H   0  0  0  0  0  0  0  0  0  0  0  0
  146.9589   71.6413  216.4546 H   0  0  0  0  0  0  0  0  0  0  0  0
  144.5720   73.5757  216.2606 H   0  0  0  0  0  0  0  0  0  0  0  0
  144.4600   71.8375  216.7009 H   0  0  0  0  0  0  0  0  0  0  0  0
  146.3335   73.6872  218.1956 H   0  0  0  0  0  0  0  0  0  0  0  0
  144.6003   74.5275  219.6240 H   0  0  0  0  0  0  0  0  0  0  0  0
  143.7013   74.5096  218.1466 H   0  0  0  0  0  0  0  0  0  0  0  0
  142.8511   72.1627  218.6362 H   0  0  0  0  0  0  0  0  0  0  0  0
  140.5577   76.4170  219.3469 H   0  0  0  0  0  0  0  0  0  0  0  0
  139.6227   77.5523  220.3179 H   0  0  0  0  0  0  0  0  0  0  0  0
  142.7202   77.4628  220.1241 H   0  0  0  0  0  0  0  0  0  0  0  0
  141.7030   78.6772  219.3298 H   0  0  0  0  0  0  0  0  0  0  0  0
  142.5922   80.5415  220.5508 H   0  0  0  0  0  0  0  0  0  0  0  0
  142.5481   81.8860  222.6406 H   0  0  0  0  0  0  0  0  0  0  0  0
  141.6604   80.9109  224.7696 H   0  0  0  0  0  0  0  0  0  0  0  0
  140.8228   78.5523  224.7278 H   0  0  0  0  0  0  0  0  0  0  0  0
  141.3008   76.3098  223.4707 H   0  0  0  0  0  0  0  0  0  0  0  0
  139.6612   76.9074  222.9938 H   0  0  0  0  0  0  0  0  0  0  0  0
  138.8836   71.0009  221.6456 H   0  0  0  0  0  0  0  0  0  0  0  0
  140.0071   69.7519  222.1785 H   0  0  0  0  0  0  0  0  0  0  0  0
  138.0214   71.2289  224.0443 H   0  0  0  0  0  0  0  0  0  0  0  0
  137.6920   69.6361  223.3683 H   0  0  0  0  0  0  0  0  0  0  0  0
  138.2701   67.8584  224.9339 H   0  0  0  0  0  0  0  0  0  0  0  0
  139.8650   67.0239  226.6866 H   0  0  0  0  0  0  0  0  0  0  0  0
  141.7710   68.3975  227.3880 H   0  0  0  0  0  0  0  0  0  0  0  0
  142.2020   70.6286  226.4051 H   0  0  0  0  0  0  0  0  0  0  0  0
  139.9067   72.5226  224.9060 H   0  0  0  0  0  0  0  0  0  0  0  0
  141.6425   72.1659  224.5891 H   0  0  0  0  0  0  0  0  0  0  0  0
  144.9539   72.3482  220.9228 H   0  0  0  0  0  0  0  0  0  0  0  0
  144.2610   70.8659  220.3247 H   0  0  0  0  0  0  0  0  0  0  0  0
  145.3370   71.0550  218.3540 H   0  0  0  0  0  0  0  0  0  0  0  0
  1  2  1  0
  2  3  2  0
  2  4  1  0
  4  5  1  0
  5  6  1  0
  6  7  1  0
  7  8  1  0
  8  9  1  0
  9 10  2  0
 10 11  1  0
 11 12  1  0
 12 13  1  0
 13 14  1  0
 14 15  1  0
 15 16  2  0
 16 17  1  0
 17 18  2  0
 18 19  1  0
 19 20  2  0
 20 21  1  0
 11 22  2  0
 22 23  1  0
 23 24  1  0
 24 25  1  0
 25 26  1  0
 26 27  1  0
 27 28  2  0
 28 29  1  0
 29 30  2  0
 30 31  1  0
 31 32  2  0
 32 33  1  0
 23 34  2  0
  8 35  1  0
 35 36  1  0
 36  6  1  0
 34  9  1  0
 21 12  1  0
 33 24  1  0
 20 15  1  0
 32 27  1  0
  1 37  1  0
  1 38  1  0
  4 39  1  0
  4 40  1  0
  5 41  1  0
  5 42  1  0
  6 43  1  6
  7 44  1  0
  7 45  1  0
  8 46  1  6
 13 47  1  0
 13 48  1  0
 14 49  1  0
 14 50  1  0
 16 51  1  0
 17 52  1  0
 18 53  1  0
 19 54  1  0
 21 55  1  0
 21 56  1  0
 25 57  1  0
 25 58  1  0
 26 59  1  0
 26 60  1  0
 28 61  1  0
 29 62  1  0
 30 63  1  0
 31 64  1  0
 33 65  1  0
 33 66  1  0
 35 67  1  0
 35 68  1  0
 36 69  1  0
M  END
>  <smiles>  (12) 
NC(=O)CC[C@H]1C[C@H](c2nc(N3CCc4ccccc4C3)nc(N3CCc4ccccc4C3)n2)CN1

>  <score_type>  (12) 
oracle

>  <origin>  (12) 
autodockgpu

>  <m_score__min__energy>  (12) 
-10.91

>  <m_primary>  (12) 
energy

>  <meeko>  (12) 
{"free_energy": -10.29, "intermolecular_energy": -12.08, "internal_energy": -1.06, "cluster_size": 3, "cluster_id": 2, "rank_in_cluster": 3}

>  <energy>  (12) 
-9.37

>  <cluster_rmsd>  (12) 
1.99

>  <rmsd>  (12) 
270.16

>  <cluster>  (12) 
1

$$$$

     RDKit          3D

 69 74  0  0  0  0  0  0  0  0999 V2000
  145.2840   67.7660  217.6100 N   0  0  0  0  0  0  0  0  0  0  0  0
  145.8450   68.8430  218.3700 C   0  0  0  0  0  0  0  0  0  0  0  0
  145.9620   68.7980  219.6220 O   0  0  0  0  0  0  0  0  0  0  0  0
  146.2850   70.0340  217.5690 C   0  0  0  0  0  0  0  0  0  0  0  0
  145.0420   70.8770  217.3130 C   0  0  0  0  0  0  0  0  0  0  0  0
  145.1340   72.1810  218.1130 C   0  0  1  0  0  0  0  0  0  0  0  0
  143.7420   72.6560  218.5380 C   0  0  0  0  0  0  0  0  0  0  0  0
  143.6330   71.9620  219.8770 C   0  0  2  0  0  0  0  0  0  0  0  0
  142.5530   72.5040  220.7270 C   0  0  0  0  0  0  0  0  0  0  0  0
  142.2050   73.7950  220.5970 N   0  0  0  0  0  0  0  0  0  0  0  0
  141.2270   74.3560  221.3400 C   0  0  0  0  0  0  0  0  0  0  0  0
  140.8810   75.7100  221.1870 N   0  0  0  0  0  0  0  0  0  0  0  0
  141.0060   76.4390  219.9290 C   0  0  0  0  0  0  0  0  0  0  0  0
  142.1460   77.4360  220.1680 C   0  0  0  0  0  0  0  0  0  0  0  0
  141.7080   78.3020  221.2990 C   0  0  0  0  0  0  0  0  0  0  0  0
  142.1610   79.6240  221.3420 C   0  0  0  0  0  0  0  0  0  0  0  0
  141.7720   80.4640  222.3870 C   0  0  0  0  0  0  0  0  0  0  0  0
  140.9320   80.0140  223.4000 C   0  0  0  0  0  0  0  0  0  0  0  0
  140.4980   78.6900  223.3270 C   0  0  0  0  0  0  0  0  0  0  0  0
  140.8760   77.8580  222.3060 C   0  0  0  0  0  0  0  0  0  0  0  0
  140.3630   76.4700  222.3160 C   0  0  0  0  0  0  0  0  0  0  0  0
  140.5910   73.5810  222.2360 N   0  0  0  0  0  0  0  0  0  0  0  0
  140.9050   72.2700  222.4070 C   0  0  0  0  0  0  0  0  0  0  0  0
  140.2150   71.4570  223.3680 N   0  0  0  0  0  0  0  0  0  0  0  0
  139.0920   70.6070  222.9560 C   0  0  0  0  0  0  0  0  0  0  0  0
  138.2340   70.4650  224.2080 C   0  0  0  0  0  0  0  0  0  0  0  0
  139.0940   69.6850  225.1700 C   0  0  0  0  0  0  0  0  0  0  0  0
  138.6520   68.5070  225.7400 C   0  0  0  0  0  0  0  0  0  0  0  0
  139.5320   67.8820  226.6100 C   0  0  0  0  0  0  0  0  0  0  0  0
  140.7720   68.4260  226.8740 C   0  0  0  0  0  0  0  0  0  0  0  0
  141.2010   69.6000  226.3020 C   0  0  0  0  0  0  0  0  0  0  0  0
  140.3330   70.2320  225.4340 C   0  0  0  0  0  0  0  0  0  0  0  0
  140.6660   71.5060  224.7440 C   0  0  0  0  0  0  0  0  0  0  0  0
  141.8880   71.7520  221.6440 N   0  0  0  0  0  0  0  0  0  0  0  0
  145.0030   72.2610  220.4480 C   0  0  0  0  0  0  0  0  0  0  0  0
  145.8640   71.9530  219.3220 N   0  0  0  0  0  0  0  0  0  0  0  0
  144.2550   67.6290  217.4990 H   0  0  0  0  0  0  0  0  0  0  0  0
  145.9070   67.0610  217.1290 H   0  0  0  0  0  0  0  0  0  0  0  0
  147.0277   70.6166  218.1338 H   0  0  0  0  0  0  0  0  0  0  0  0
  146.7518   69.7223  216.6230 H   0  0  0  0  0  0  0  0  0  0  0  0
  144.9714   71.1095  216.2402 H   0  0  0  0  0  0  0  0  0  0  0  0
  144.1488   70.3170  217.6269 H   0  0  0  0  0  0  0  0  0  0  0  0
  145.6240   72.9283  217.4716 H   0  0  0  0  0  0  0  0  0  0  0  0
  143.6961   73.7504  218.6392 H   0  0  0  0  0  0  0  0  0  0  0  0
  142.9343   72.4268  217.8273 H   0  0  0  0  0  0  0  0  0  0  0  0
  143.3765   70.8946  219.8072 H   0  0  0  0  0  0  0  0  0  0  0  0
  141.2568   75.7530  219.1065 H   0  0  0  0  0  0  0  0  0  0  0  0
  140.0689   76.9392  219.6432 H   0  0  0  0  0  0  0  0  0  0  0  0
  143.0708   76.9022  220.4320 H   0  0  0  0  0  0  0  0  0  0  0  0
  142.3564   78.0293  219.2659 H   0  0  0  0  0  0  0  0  0  0  0  0
  142.8250   80.0029  220.5511 H   0  0  0  0  0  0  0  0  0  0  0  0
  142.1368   81.5015  222.4096 H   0  0  0  0  0  0  0  0  0  0  0  0
  140.6229   80.6740  224.2239 H   0  0  0  0  0  0  0  0  0  0  0  0
  139.8325   78.3025  224.1125 H   0  0  0  0  0  0  0  0  0  0  0  0
  140.6722   75.9797  223.2509 H   0  0  0  0  0  0  0  0  0  0  0  0
  139.2661   76.5031  222.2403 H   0  0  0  0  0  0  0  0  0  0  0  0
  138.5207   71.0847  222.1464 H   0  0  0  0  0  0  0  0  0  0  0  0
  139.4272   69.6335  222.5688 H   0  0  0  0  0  0  0  0  0  0  0  0
  137.9850   71.4530  224.6226 H   0  0  0  0  0  0  0  0  0  0  0  0
  137.2761   69.9643  224.0035 H   0  0  0  0  0  0  0  0  0  0  0  0
  137.6593   68.0890  225.5166 H   0  0  0  0  0  0  0  0  0  0  0  0
  139.2377   66.9401  227.0961 H   0  0  0  0  0  0  0  0  0  0  0  0
  141.4432   67.9001  227.5689 H   0  0  0  0  0  0  0  0  0  0  0  0
  142.1934   70.0181  226.5262 H   0  0  0  0  0  0  0  0  0  0  0  0
  140.1694   72.3406  225.2606 H   0  0  0  0  0  0  0  0  0  0  0  0
  141.7561   71.6519  224.7616 H   0  0  0  0  0  0  0  0  0  0  0  0
  145.0924   73.3166  220.7443 H   0  0  0  0  0  0  0  0  0  0  0  0
  145.2403   71.6938  221.3601 H   0  0  0  0  0  0  0  0  0  0  0  0
  146.0850   70.9380  219.4130 H   0  0  0  0  0  0  0  0  0  0  0  0
  1  2  1  0
  2  3  2  0
  2  4  1  0
  4  5  1  0
  5  6  1  0
  6  7  1  0
  7  8  1  0
  8  9  1  0
  9 10  2  0
 10 11  1  0
 11 12  1  0
 12 13  1  0
 13 14  1  0
 14 15  1  0
 15 16  2  0
 16 17  1  0
 17 18  2  0
 18 19  1  0
 19 20  2  0
 20 21  1  0
 11 22  2  0
 22 23  1  0
 23 24  1  0
 24 25  1  0
 25 26  1  0
 26 27  1  0
 27 28  2  0
 28 29  1  0
 29 30  2  0
 30 31  1  0
 31 32  2  0
 32 33  1  0
 23 34  2  0
  8 35  1  0
 35 36  1  0
 36  6  1  0
 34  9  1  0
 21 12  1  0
 33 24  1  0
 20 15  1  0
 32 27  1  0
  1 37  1  0
  1 38  1  0
  4 39  1  0
  4 40  1  0
  5 41  1  0
  5 42  1  0
  6 43  1  6
  7 44  1  0
  7 45  1  0
  8 46  1  6
 13 47  1  0
 13 48  1  0
 14 49  1  0
 14 50  1  0
 16 51  1  0
 17 52  1  0
 18 53  1  0
 19 54  1  0
 21 55  1  0
 21 56  1  0
 25 57  1  0
 25 58  1  0
 26 59  1  0
 26 60  1  0
 28 61  1  0
 29 62  1  0
 30 63  1  0
 31 64  1  0
 33 65  1  0
 33 66  1  0
 35 67  1  0
 35 68  1  0
 36 69  1  0
M  END
>  <smiles>  (13) 
NC(=O)CC[C@H]1C[C@H](c2nc(N3CCc4ccccc4C3)nc(N3CCc4ccccc4C3)n2)CN1

>  <score_type>  (13) 
oracle

>  <origin>  (13) 
autodockgpu

>  <m_score__min__energy>  (13) 
-10.91

>  <m_primary>  (13) 
energy

>  <meeko>  (13) 
{"free_energy": -10.07, "intermolecular_energy": -11.86, "internal_energy": -1.64, "cluster_size": 14, "cluster_id": 1, "rank_in_cluster": 10}

>  <energy>  (13) 
-8.74

>  <cluster_rmsd>  (13) 
1.51

>  <rmsd>  (13) 
270.15

>  <cluster>  (13) 
1

$$$$

     RDKit          3D

 69 74  0  0  0  0  0  0  0  0999 V2000
  145.7190   67.5370  217.7430 N   0  0  0  0  0  0  0  0  0  0  0  0
  145.9690   68.7590  218.4480 C   0  0  0  0  0  0  0  0  0  0  0  0
  145.9450   68.8320  219.7040 O   0  0  0  0  0  0  0  0  0  0  0  0
  146.2610   69.9510  217.5840 C   0  0  0  0  0  0  0  0  0  0  0  0
  144.9390   70.6790  217.3740 C   0  0  0  0  0  0  0  0  0  0  0  0
  144.9950   72.0500  218.0580 C   0  0  1  0  0  0  0  0  0  0  0  0
  143.6000   72.4860  218.5130 C   0  0  0  0  0  0  0  0  0  0  0  0
  143.5920   71.9030  219.9090 C   0  0  2  0  0  0  0  0  0  0  0  0
  142.5240   72.4590  220.7650 C   0  0  0  0  0  0  0  0  0  0  0  0
  142.1860   73.7520  220.6310 N   0  0  0  0  0  0  0  0  0  0  0  0
  141.2190   74.3250  221.3800 C   0  0  0  0  0  0  0  0  0  0  0  0
  140.8820   75.6810  221.2230 N   0  0  0  0  0  0  0  0  0  0  0  0
  141.0070   76.4040  219.9600 C   0  0  0  0  0  0  0  0  0  0  0  0
  142.1570   77.3930  220.1900 C   0  0  0  0  0  0  0  0  0  0  0  0
  141.7310   78.2670  221.3190 C   0  0  0  0  0  0  0  0  0  0  0  0
  142.1960   79.5850  221.3540 C   0  0  0  0  0  0  0  0  0  0  0  0
  141.8190   80.4330  222.3970 C   0  0  0  0  0  0  0  0  0  0  0  0
  140.9810   79.9940  223.4170 C   0  0  0  0  0  0  0  0  0  0  0  0
  140.5350   78.6730  223.3520 C   0  0  0  0  0  0  0  0  0  0  0  0
  140.9010   77.8340  222.3320 C   0  0  0  0  0  0  0  0  0  0  0  0
  140.3770   76.4500  222.3510 C   0  0  0  0  0  0  0  0  0  0  0  0
  140.5830   73.5600  222.2850 N   0  0  0  0  0  0  0  0  0  0  0  0
  140.8870   72.2480  222.4600 C   0  0  0  0  0  0  0  0  0  0  0  0
  140.1990   71.4450  223.4300 N   0  0  0  0  0  0  0  0  0  0  0  0
  139.1070   70.5530  223.0210 C   0  0  0  0  0  0  0  0  0  0  0  0
  138.2270   70.4250  224.2590 C   0  0  0  0  0  0  0  0  0  0  0  0
  139.0860   69.6980  225.2620 C   0  0  0  0  0  0  0  0  0  0  0  0
  138.6630   68.5260  225.8570 C   0  0  0  0  0  0  0  0  0  0  0  0
  139.5400   67.9500  226.7640 C   0  0  0  0  0  0  0  0  0  0  0  0
  140.7590   68.5360  227.0370 C   0  0  0  0  0  0  0  0  0  0  0  0
  141.1700   69.7020  226.4390 C   0  0  0  0  0  0  0  0  0  0  0  0
  140.3040   70.2860  225.5340 C   0  0  0  0  0  0  0  0  0  0  0  0
  140.6180   71.5470  224.8130 C   0  0  0  0  0  0  0  0  0  0  0  0
  141.8600   71.7170  221.6910 N   0  0  0  0  0  0  0  0  0  0  0  0
  144.9680   72.3210  220.3830 C   0  0  0  0  0  0  0  0  0  0  0  0
  145.7910   71.9630  219.2440 N   0  0  0  0  0  0  0  0  0  0  0  0
  144.7550   67.1870  217.5440 H   0  0  0  0  0  0  0  0  0  0  0  0
  146.5170   66.9380  217.3970 H   0  0  0  0  0  0  0  0  0  0  0  0
  146.9825   70.6135  218.0845 H   0  0  0  0  0  0  0  0  0  0  0  0
  146.6984   69.6432  216.6228 H   0  0  0  0  0  0  0  0  0  0  0  0
  144.7620   70.8139  216.2967 H   0  0  0  0  0  0  0  0  0  0  0  0
  144.1212   70.0858  217.8091 H   0  0  0  0  0  0  0  0  0  0  0  0
  145.4124   72.7644  217.3332 H   0  0  0  0  0  0  0  0  0  0  0  0
  143.4975   73.5811  218.5262 H   0  0  0  0  0  0  0  0  0  0  0  0
  142.7745   72.1555  217.8655 H   0  0  0  0  0  0  0  0  0  0  0  0
  143.3929   70.8216  219.9406 H   0  0  0  0  0  0  0  0  0  0  0  0
  141.2483   75.7124  219.1393 H   0  0  0  0  0  0  0  0  0  0  0  0
  140.0728   76.9105  219.6760 H   0  0  0  0  0  0  0  0  0  0  0  0
  143.0785   76.8526  220.4523 H   0  0  0  0  0  0  0  0  0  0  0  0
  142.3686   77.9807  219.2846 H   0  0  0  0  0  0  0  0  0  0  0  0
  142.8599   79.9544  220.5585 H   0  0  0  0  0  0  0  0  0  0  0  0
  142.1916   81.4678  222.4126 H   0  0  0  0  0  0  0  0  0  0  0  0
  140.6825   80.6599  224.2401 H   0  0  0  0  0  0  0  0  0  0  0  0
  139.8704   78.2943  224.1425 H   0  0  0  0  0  0  0  0  0  0  0  0
  140.6876   75.9614  223.2863 H   0  0  0  0  0  0  0  0  0  0  0  0
  139.2800   76.4916  222.2813 H   0  0  0  0  0  0  0  0  0  0  0  0
  138.5404   70.9911  222.1861 H   0  0  0  0  0  0  0  0  0  0  0  0
  139.4757   69.5779  222.6701 H   0  0  0  0  0  0  0  0  0  0  0  0
  137.9431   71.4178  224.6381 H   0  0  0  0  0  0  0  0  0  0  0  0
  137.2876   69.8922  224.0500 H   0  0  0  0  0  0  0  0  0  0  0  0
  137.6868   68.0752  225.6250 H   0  0  0  0  0  0  0  0  0  0  0  0
  139.2605   67.0150  227.2717 H   0  0  0  0  0  0  0  0  0  0  0  0
  141.4281   68.0500  227.7623 H   0  0  0  0  0  0  0  0  0  0  0  0
  142.1467   70.1519  226.6704 H   0  0  0  0  0  0  0  0  0  0  0  0
  140.0882   72.3828  225.2934 H   0  0  0  0  0  0  0  0  0  0  0  0
  141.7032   71.7228  224.8493 H   0  0  0  0  0  0  0  0  0  0  0  0
  145.0115   73.4013  220.5857 H   0  0  0  0  0  0  0  0  0  0  0  0
  145.2791   71.8475  221.3259 H   0  0  0  0  0  0  0  0  0  0  0  0
  146.0730   70.9720  219.4060 H   0  0  0  0  0  0  0  0  0  0  0  0
  1  2  1  0
  2  3  2  0
  2  4  1  0
  4  5  1  0
  5  6  1  0
  6  7  1  0
  7  8  1  0
  8  9  1  0
  9 10  2  0
 10 11  1  0
 11 12  1  0
 12 13  1  0
 13 14  1  0
 14 15  1  0
 15 16  2  0
 16 17  1  0
 17 18  2  0
 18 19  1  0
 19 20  2  0
 20 21  1  0
 11 22  2  0
 22 23  1  0
 23 24  1  0
 24 25  1  0
 25 26  1  0
 26 27  1  0
 27 28  2  0
 28 29  1  0
 29 30  2  0
 30 31  1  0
 31 32  2  0
 32 33  1  0
 23 34  2  0
  8 35  1  0
 35 36  1  0
 36  6  1  0
 34  9  1  0
 21 12  1  0
 33 24  1  0
 20 15  1  0
 32 27  1  0
  1 37  1  0
  1 38  1  0
  4 39  1  0
  4 40  1  0
  5 41  1  0
  5 42  1  0
  6 43  1  6
  7 44  1  0
  7 45  1  0
  8 46  1  6
 13 47  1  0
 13 48  1  0
 14 49  1  0
 14 50  1  0
 16 51  1  0
 17 52  1  0
 18 53  1  0
 19 54  1  0
 21 55  1  0
 21 56  1  0
 25 57  1  0
 25 58  1  0
 26 59  1  0
 26 60  1  0
 28 61  1  0
 29 62  1  0
 30 63  1  0
 31 64  1  0
 33 65  1  0
 33 66  1  0
 35 67  1  0
 35 68  1  0
 36 69  1  0
M  END
>  <smiles>  (14) 
NC(=O)CC[C@H]1C[C@H](c2nc(N3CCc4ccccc4C3)nc(N3CCc4ccccc4C3)n2)CN1

>  <score_type>  (14) 
oracle

>  <origin>  (14) 
autodockgpu

>  <m_score__min__energy>  (14) 
-10.91

>  <m_primary>  (14) 
energy

>  <meeko>  (14) 
{"free_energy": -10.12, "intermolecular_energy": -11.91, "internal_energy": -1.68, "cluster_size": 14, "cluster_id": 1, "rank_in_cluster": 8}

>  <energy>  (14) 
-8.56

>  <cluster_rmsd>  (14) 
1.44

>  <rmsd>  (14) 
270.05

>  <cluster>  (14) 
1

$$$$

     RDKit          3D

 69 74  0  0  0  0  0  0  0  0999 V2000
  146.1900   75.2000  215.9480 N   0  0  0  0  0  0  0  0  0  0  0  0
  147.0230   74.0460  216.1150 C   0  0  0  0  0  0  0  0  0  0  0  0
  148.2270   74.1280  216.4740 O   0  0  0  0  0  0  0  0  0  0  0  0
  146.3620   72.7290  215.8320 C   0  0  0  0  0  0  0  0  0  0  0  0
  145.1040   72.6740  216.6890 C   0  0  0  0  0  0  0  0  0  0  0  0
  145.3900   73.2990  218.0600 C   0  0  1  0  0  0  0  0  0  0  0  0
  144.1280   73.9470  218.6340 C   0  0  0  0  0  0  0  0  0  0  0  0
  143.5640   72.7710  219.4020 C   0  0  2  0  0  0  0  0  0  0  0  0
  142.5280   73.1600  220.3810 C   0  0  0  0  0  0  0  0  0  0  0  0
  142.1730   74.4510  220.4790 N   0  0  0  0  0  0  0  0  0  0  0  0
  141.2330   74.8760  221.3520 C   0  0  0  0  0  0  0  0  0  0  0  0
  140.8780   76.2330  221.4370 N   0  0  0  0  0  0  0  0  0  0  0  0
  140.5750   77.0650  220.2760 C   0  0  0  0  0  0  0  0  0  0  0  0
  141.7450   78.0530  220.1880 C   0  0  0  0  0  0  0  0  0  0  0  0
  141.7370   78.8180  221.4660 C   0  0  0  0  0  0  0  0  0  0  0  0
  142.2000   80.1370  221.4570 C   0  0  0  0  0  0  0  0  0  0  0  0
  142.2080   80.8840  222.6370 C   0  0  0  0  0  0  0  0  0  0  0  0
  141.7610   80.3430  223.8380 C   0  0  0  0  0  0  0  0  0  0  0  0
  141.3060   79.0240  223.8120 C   0  0  0  0  0  0  0  0  0  0  0  0
  141.2950   78.2830  222.6590 C   0  0  0  0  0  0  0  0  0  0  0  0
  140.7930   76.8930  222.7330 C   0  0  0  0  0  0  0  0  0  0  0  0
  140.6440   73.9610  222.1410 N   0  0  0  0  0  0  0  0  0  0  0  0
  140.9670   72.6430  222.0820 C   0  0  0  0  0  0  0  0  0  0  0  0
  140.3280   71.6790  222.9320 N   0  0  0  0  0  0  0  0  0  0  0  0
  139.5730   70.5600  222.3540 C   0  0  0  0  0  0  0  0  0  0  0  0
  138.5420   70.1990  223.4170 C   0  0  0  0  0  0  0  0  0  0  0  0
  139.3560   69.6780  224.5740 C   0  0  0  0  0  0  0  0  0  0  0  0
  139.1260   68.4260  225.1120 C   0  0  0  0  0  0  0  0  0  0  0  0
  139.9380   68.0590  226.1730 C   0  0  0  0  0  0  0  0  0  0  0  0
  140.9120   68.9140  226.6470 C   0  0  0  0  0  0  0  0  0  0  0  0
  141.1320   70.1570  226.1050 C   0  0  0  0  0  0  0  0  0  0  0  0
  140.3290   70.5350  225.0470 C   0  0  0  0  0  0  0  0  0  0  0  0
  140.4560   71.8490  224.3650 C   0  0  0  0  0  0  0  0  0  0  0  0
  141.9110   72.2630  221.1960 N   0  0  0  0  0  0  0  0  0  0  0  0
  144.8190   72.2660  220.0810 C   0  0  0  0  0  0  0  0  0  0  0  0
  145.7690   72.2750  218.9850 N   0  0  0  0  0  0  0  0  0  0  0  0
  146.1990   75.7810  215.0800 H   0  0  0  0  0  0  0  0  0  0  0  0
  145.5280   75.5050  216.7120 H   0  0  0  0  0  0  0  0  0  0  0  0
  146.0976   72.6594  214.7665 H   0  0  0  0  0  0  0  0  0  0  0  0
  147.0355   71.8913  216.0659 H   0  0  0  0  0  0  0  0  0  0  0  0
  144.2975   73.2334  216.1923 H   0  0  0  0  0  0  0  0  0  0  0  0
  144.7967   71.6261  216.8213 H   0  0  0  0  0  0  0  0  0  0  0  0
  146.1863   74.0456  217.9239 H   0  0  0  0  0  0  0  0  0  0  0  0
  144.3667   74.7921  219.2964 H   0  0  0  0  0  0  0  0  0  0  0  0
  143.4488   74.3857  217.8882 H   0  0  0  0  0  0  0  0  0  0  0  0
  143.0424   72.0347  218.7729 H   0  0  0  0  0  0  0  0  0  0  0  0
  140.5157   76.4520  219.3645 H   0  0  0  0  0  0  0  0  0  0  0  0
  139.6056   77.5759  220.3721 H   0  0  0  0  0  0  0  0  0  0  0  0
  142.6950   77.5104  220.0739 H   0  0  0  0  0  0  0  0  0  0  0  0
  141.6428   78.7204  219.3196 H   0  0  0  0  0  0  0  0  0  0  0  0
  142.5584   80.5870  220.5195 H   0  0  0  0  0  0  0  0  0  0  0  0
  142.5750   81.9207  222.6162 H   0  0  0  0  0  0  0  0  0  0  0  0
  141.7660   80.9298  224.7684 H   0  0  0  0  0  0  0  0  0  0  0  0
  140.9455   78.5654  224.7446 H   0  0  0  0  0  0  0  0  0  0  0  0
  141.3963   76.3318  223.4618 H   0  0  0  0  0  0  0  0  0  0  0  0
  139.7376   76.9195  223.0421 H   0  0  0  0  0  0  0  0  0  0  0  0
  139.0773   70.8671  221.4213 H   0  0  0  0  0  0  0  0  0  0  0  0
  140.2212   69.7093  222.0969 H   0  0  0  0  0  0  0  0  0  0  0  0
  137.9655   71.0867  223.7163 H   0  0  0  0  0  0  0  0  0  0  0  0
  137.8106   69.4612  223.0555 H   0  0  0  0  0  0  0  0  0  0  0  0
  138.3435   67.7593  224.7205 H   0  0  0  0  0  0  0  0  0  0  0  0
  139.8046   67.0737  226.6435 H   0  0  0  0  0  0  0  0  0  0  0  0
  141.5365   68.5875  227.4917 H   0  0  0  0  0  0  0  0  0  0  0  0
  141.9147   70.8230  226.4972 H   0  0  0  0  0  0  0  0  0  0  0  0
  139.6645   72.5234  224.7238 H   0  0  0  0  0  0  0  0  0  0  0  0
  141.4433   72.2784  224.5905 H   0  0  0  0  0  0  0  0  0  0  0  0
  145.1352   72.9391  220.8915 H   0  0  0  0  0  0  0  0  0  0  0  0
  144.7021   71.2842  220.5631 H   0  0  0  0  0  0  0  0  0  0  0  0
  145.6780   71.3400  218.5310 H   0  0  0  0  0  0  0  0  0  0  0  0
  1  2  1  0
  2  3  2  0
  2  4  1  0
  4  5  1  0
  5  6  1  0
  6  7  1  0
  7  8  1  0
  8  9  1  0
  9 10  2  0
 10 11  1  0
 11 12  1  0
 12 13  1  0
 13 14  1  0
 14 15  1  0
 15 16  2  0
 16 17  1  0
 17 18  2  0
 18 19  1  0
 19 20  2  0
 20 21  1  0
 11 22  2  0
 22 23  1  0
 23 24  1  0
 24 25  1  0
 25 26  1  0
 26 27  1  0
 27 28  2  0
 28 29  1  0
 29 30  2  0
 30 31  1  0
 31 32  2  0
 32 33  1  0
 23 34  2  0
  8 35  1  0
 35 36  1  0
 36  6  1  0
 34  9  1  0
 21 12  1  0
 33 24  1  0
 20 15  1  0
 32 27  1  0
  1 37  1  0
  1 38  1  0
  4 39  1  0
  4 40  1  0
  5 41  1  0
  5 42  1  0
  6 43  1  6
  7 44  1  0
  7 45  1  0
  8 46  1  6
 13 47  1  0
 13 48  1  0
 14 49  1  0
 14 50  1  0
 16 51  1  0
 17 52  1  0
 18 53  1  0
 19 54  1  0
 21 55  1  0
 21 56  1  0
 25 57  1  0
 25 58  1  0
 26 59  1  0
 26 60  1  0
 28 61  1  0
 29 62  1  0
 30 63  1  0
 31 64  1  0
 33 65  1  0
 33 66  1  0
 35 67  1  0
 35 68  1  0
 36 69  1  0
M  END
>  <smiles>  (15) 
NC(=O)CC[C@H]1C[C@H](c2nc(N3CCc4ccccc4C3)nc(N3CCc4ccccc4C3)n2)CN1

>  <score_type>  (15) 
oracle

>  <origin>  (15) 
autodockgpu

>  <m_score__min__energy>  (15) 
-10.91

>  <m_primary>  (15) 
energy

>  <meeko>  (15) 
{"free_energy": -10.38, "intermolecular_energy": -12.17, "internal_energy": -1.06, "cluster_size": 3, "cluster_id": 2, "rank_in_cluster": 2}

>  <energy>  (15) 
-10.39

>  <cluster_rmsd>  (15) 
0.0

>  <rmsd>  (15) 
270.46

>  <cluster>  (15) 
2

$$$$

     RDKit          3D

 69 74  0  0  0  0  0  0  0  0999 V2000
  145.7360   67.5910  217.7110 N   0  0  0  0  0  0  0  0  0  0  0  0
  145.9960   68.7980  218.4370 C   0  0  0  0  0  0  0  0  0  0  0  0
  145.9620   68.8510  219.6940 O   0  0  0  0  0  0  0  0  0  0  0  0
  146.3120   70.0000  217.5960 C   0  0  0  0  0  0  0  0  0  0  0  0
  145.0000   70.7430  217.3790 C   0  0  0  0  0  0  0  0  0  0  0  0
  145.0570   72.1020  218.0870 C   0  0  1  0  0  0  0  0  0  0  0  0
  143.6600   72.5430  218.5280 C   0  0  0  0  0  0  0  0  0  0  0  0
  143.6250   71.9370  219.9140 C   0  0  2  0  0  0  0  0  0  0  0  0
  142.5500   72.4880  220.7630 C   0  0  0  0  0  0  0  0  0  0  0  0
  142.2090   73.7800  220.6290 N   0  0  0  0  0  0  0  0  0  0  0  0
  141.2350   74.3490  221.3720 C   0  0  0  0  0  0  0  0  0  0  0  0
  140.8950   75.7040  221.2150 N   0  0  0  0  0  0  0  0  0  0  0  0
  141.0230   76.4280  219.9540 C   0  0  0  0  0  0  0  0  0  0  0  0
  142.1690   77.4200  220.1900 C   0  0  0  0  0  0  0  0  0  0  0  0
  141.7360   78.2920  221.3170 C   0  0  0  0  0  0  0  0  0  0  0  0
  142.1960   79.6110  221.3560 C   0  0  0  0  0  0  0  0  0  0  0  0
  141.8120   80.4570  222.3980 C   0  0  0  0  0  0  0  0  0  0  0  0
  140.9710   80.0150  223.4140 C   0  0  0  0  0  0  0  0  0  0  0  0
  140.5290   78.6930  223.3450 C   0  0  0  0  0  0  0  0  0  0  0  0
  140.9020   77.8560  222.3270 C   0  0  0  0  0  0  0  0  0  0  0  0
  140.3820   76.4700  222.3420 C   0  0  0  0  0  0  0  0  0  0  0  0
  140.5950   73.5800  222.2720 N   0  0  0  0  0  0  0  0  0  0  0  0
  140.9020   72.2690  222.4470 C   0  0  0  0  0  0  0  0  0  0  0  0
  140.2100   71.4620  223.4110 N   0  0  0  0  0  0  0  0  0  0  0  0
  139.1160   70.5760  222.9950 C   0  0  0  0  0  0  0  0  0  0  0  0
  138.2340   70.4430  224.2300 C   0  0  0  0  0  0  0  0  0  0  0  0
  139.0890   69.7080  225.2300 C   0  0  0  0  0  0  0  0  0  0  0  0
  138.6620   68.5330  225.8180 C   0  0  0  0  0  0  0  0  0  0  0  0
  139.5360   67.9500  226.7230 C   0  0  0  0  0  0  0  0  0  0  0  0
  140.7560   68.5300  227.0010 C   0  0  0  0  0  0  0  0  0  0  0  0
  141.1710   69.6990  226.4110 C   0  0  0  0  0  0  0  0  0  0  0  0
  140.3090   70.2900  225.5080 C   0  0  0  0  0  0  0  0  0  0  0  0
  140.6280   71.5550  224.7960 C   0  0  0  0  0  0  0  0  0  0  0  0
  141.8820   71.7420  221.6830 N   0  0  0  0  0  0  0  0  0  0  0  0
  144.9980   72.3330  220.4150 C   0  0  0  0  0  0  0  0  0  0  0  0
  145.8350   71.9870  219.2830 N   0  0  0  0  0  0  0  0  0  0  0  0
  144.7690   67.2570  217.4970 H   0  0  0  0  0  0  0  0  0  0  0  0
  146.5300   66.9870  217.3620 H   0  0  0  0  0  0  0  0  0  0  0  0
  147.0323   70.6479  218.1170 H   0  0  0  0  0  0  0  0  0  0  0  0
  146.7608   69.7033  216.6365 H   0  0  0  0  0  0  0  0  0  0  0  0
  144.8404   70.8976  216.3017 H   0  0  0  0  0  0  0  0  0  0  0  0
  144.1709   70.1497  217.7920 H   0  0  0  0  0  0  0  0  0  0  0  0
  145.4908   72.8254  217.3809 H   0  0  0  0  0  0  0  0  0  0  0  0
  143.5672   73.6387  218.5580 H   0  0  0  0  0  0  0  0  0  0  0  0
  142.8416   72.2308  217.8626 H   0  0  0  0  0  0  0  0  0  0  0  0
  143.4146   70.8574  219.9246 H   0  0  0  0  0  0  0  0  0  0  0  0
  141.2698   75.7380  219.1337 H   0  0  0  0  0  0  0  0  0  0  0  0
  140.0885   76.9320  219.6664 H   0  0  0  0  0  0  0  0  0  0  0  0
  143.0908   76.8819  220.4562 H   0  0  0  0  0  0  0  0  0  0  0  0
  142.3829   78.0089  219.2859 H   0  0  0  0  0  0  0  0  0  0  0  0
  142.8622   79.9835  220.5639 H   0  0  0  0  0  0  0  0  0  0  0  0
  142.1815   81.4929  222.4159 H   0  0  0  0  0  0  0  0  0  0  0  0
  140.6673   80.6791  224.2367 H   0  0  0  0  0  0  0  0  0  0  0  0
  139.8612   78.3119  224.1316 H   0  0  0  0  0  0  0  0  0  0  0  0
  140.6898   75.9812  223.2781 H   0  0  0  0  0  0  0  0  0  0  0  0
  139.2852   76.5082  222.2674 H   0  0  0  0  0  0  0  0  0  0  0  0
  138.5521   71.0210  222.1619 H   0  0  0  0  0  0  0  0  0  0  0  0
  139.4824   69.6019  222.6388 H   0  0  0  0  0  0  0  0  0  0  0  0
  137.9520   71.4343  224.6144 H   0  0  0  0  0  0  0  0  0  0  0  0
  137.2936   69.9138  224.0162 H   0  0  0  0  0  0  0  0  0  0  0  0
  137.6851   68.0858  225.5819 H   0  0  0  0  0  0  0  0  0  0  0  0
  139.2528   67.0133  227.2254 H   0  0  0  0  0  0  0  0  0  0  0  0
  141.4230   68.0371  227.7236 H   0  0  0  0  0  0  0  0  0  0  0  0
  142.1481   70.1454  226.6476 H   0  0  0  0  0  0  0  0  0  0  0  0
  140.1000   72.3893  225.2809 H   0  0  0  0  0  0  0  0  0  0  0  0
  141.7136   71.7282  224.8352 H   0  0  0  0  0  0  0  0  0  0  0  0
  145.0488   73.4091  220.6371 H   0  0  0  0  0  0  0  0  0  0  0  0
  145.2902   71.8396  221.3537 H   0  0  0  0  0  0  0  0  0  0  0  0
  146.1050   70.9910  219.4320 H   0  0  0  0  0  0  0  0  0  0  0  0
  1  2  1  0
  2  3  2  0
  2  4  1  0
  4  5  1  0
  5  6  1  0
  6  7  1  0
  7  8  1  0
  8  9  1  0
  9 10  2  0
 10 11  1  0
 11 12  1  0
 12 13  1  0
 13 14  1  0
 14 15  1  0
 15 16  2  0
 16 17  1  0
 17 18  2  0
 18 19  1  0
 19 20  2  0
 20 21  1  0
 11 22  2  0
 22 23  1  0
 23 24  1  0
 24 25  1  0
 25 26  1  0
 26 27  1  0
 27 28  2  0
 28 29  1  0
 29 30  2  0
 30 31  1  0
 31 32  2  0
 32 33  1  0
 23 34  2  0
  8 35  1  0
 35 36  1  0
 36  6  1  0
 34  9  1  0
 21 12  1  0
 33 24  1  0
 20 15  1  0
 32 27  1  0
  1 37  1  0
  1 38  1  0
  4 39  1  0
  4 40  1  0
  5 41  1  0
  5 42  1  0
  6 43  1  6
  7 44  1  0
  7 45  1  0
  8 46  1  6
 13 47  1  0
 13 48  1  0
 14 49  1  0
 14 50  1  0
 16 51  1  0
 17 52  1  0
 18 53  1  0
 19 54  1  0
 21 55  1  0
 21 56  1  0
 25 57  1  0
 25 58  1  0
 26 59  1  0
 26 60  1  0
 28 61  1  0
 29 62  1  0
 30 63  1  0
 31 64  1  0
 33 65  1  0
 33 66  1  0
 35 67  1  0
 35 68  1  0
 36 69  1  0
M  END
>  <smiles>  (16) 
NC(=O)CC[C@H]1C[C@H](c2nc(N3CCc4ccccc4C3)nc(N3CCc4ccccc4C3)n2)CN1

>  <score_type>  (16) 
oracle

>  <origin>  (16) 
autodockgpu

>  <m_score__min__energy>  (16) 
-10.91

>  <m_primary>  (16) 
energy

>  <meeko>  (16) 
{"free_energy": -10.12, "intermolecular_energy": -11.91, "internal_energy": -1.68, "cluster_size": 14, "cluster_id": 1, "rank_in_cluster": 9}

>  <energy>  (16) 
-10.38

>  <cluster_rmsd>  (16) 
0.19

>  <rmsd>  (16) 
270.51

>  <cluster>  (16) 
2

$$$$

     RDKit          3D

 69 74  0  0  0  0  0  0  0  0999 V2000
  143.3290   80.1600  222.6650 N   0  0  0  0  0  0  0  0  0  0  0  0
  142.0530   79.5190  222.7880 C   0  0  0  0  0  0  0  0  0  0  0  0
  141.7260   78.8570  223.8080 O   0  0  0  0  0  0  0  0  0  0  0  0
  141.1320   79.6890  221.6170 C   0  0  0  0  0  0  0  0  0  0  0  0
  141.4390   78.5560  220.6460 C   0  0  0  0  0  0  0  0  0  0  0  0
  140.2590   77.5760  220.6120 C   0  0  1  0  0  0  0  0  0  0  0  0
  140.7290   76.1760  220.2090 C   0  0  0  0  0  0  0  0  0  0  0  0
  141.0330   75.6050  221.5770 C   0  0  2  0  0  0  0  0  0  0  0  0
  141.1630   74.1330  221.5760 C   0  0  0  0  0  0  0  0  0  0  0  0
  141.8920   73.5420  220.6150 N   0  0  0  0  0  0  0  0  0  0  0  0
  142.0530   72.2020  220.5550 C   0  0  0  0  0  0  0  0  0  0  0  0
  142.8200   71.6050  219.5390 N   0  0  0  0  0  0  0  0  0  0  0  0
  142.2990   71.2870  218.2130 C   0  0  0  0  0  0  0  0  0  0  0  0
  142.2500   69.7540  218.1720 C   0  0  0  0  0  0  0  0  0  0  0  0
  143.6510   69.2900  218.3710 C   0  0  0  0  0  0  0  0  0  0  0  0
  144.0470   68.0890  217.7760 C   0  0  0  0  0  0  0  0  0  0  0  0
  145.3520   67.6210  217.9410 C   0  0  0  0  0  0  0  0  0  0  0  0
  146.2820   68.3300  218.6940 C   0  0  0  0  0  0  0  0  0  0  0  0
  145.8550   69.5250  219.2750 C   0  0  0  0  0  0  0  0  0  0  0  0
  144.5760   69.9900  219.1180 C   0  0  0  0  0  0  0  0  0  0  0  0
  144.2180   71.2680  219.7740 C   0  0  0  0  0  0  0  0  0  0  0  0
  141.4550   71.4510  221.4960 N   0  0  0  0  0  0  0  0  0  0  0  0
  140.7070   71.9990  222.4890 C   0  0  0  0  0  0  0  0  0  0  0  0
  140.0760   71.1820  223.4860 N   0  0  0  0  0  0  0  0  0  0  0  0
  139.2030   70.0690  223.0950 C   0  0  0  0  0  0  0  0  0  0  0  0
  138.2400   69.9020  224.2640 C   0  0  0  0  0  0  0  0  0  0  0  0
  139.1090   69.4470  225.4090 C   0  0  0  0  0  0  0  0  0  0  0  0
  138.8400   68.2800  226.0980 C   0  0  0  0  0  0  0  0  0  0  0  0
  139.7100   67.9670  227.1310 C   0  0  0  0  0  0  0  0  0  0  0  0
  140.7750   68.7900  227.4330 C   0  0  0  0  0  0  0  0  0  0  0  0
  141.0330   69.9490  226.7410 C   0  0  0  0  0  0  0  0  0  0  0  0
  140.1730   70.2720  225.7090 C   0  0  0  0  0  0  0  0  0  0  0  0
  140.3320   71.4930  224.8770 C   0  0  0  0  0  0  0  0  0  0  0  0
  140.5730   73.3410  222.5100 N   0  0  0  0  0  0  0  0  0  0  0  0
  139.8070   76.0610  222.3380 C   0  0  0  0  0  0  0  0  0  0  0  0
  139.7040   77.4480  221.9250 N   0  0  0  0  0  0  0  0  0  0  0  0
  144.1900   79.6510  222.3630 H   0  0  0  0  0  0  0  0  0  0  0  0
  143.4410   81.1880  222.8800 H   0  0  0  0  0  0  0  0  0  0  0  0
  140.0845   79.6306  221.9477 H   0  0  0  0  0  0  0  0  0  0  0  0
  141.2790   80.6687  221.1388 H   0  0  0  0  0  0  0  0  0  0  0  0
  141.6009   78.9696  219.6397 H   0  0  0  0  0  0  0  0  0  0  0  0
  142.3451   78.0267  220.9757 H   0  0  0  0  0  0  0  0  0  0  0  0
  139.5252   77.9654  219.8910 H   0  0  0  0  0  0  0  0  0  0  0  0
  139.9374   75.6103  219.6959 H   0  0  0  0  0  0  0  0  0  0  0  0
  141.5675   76.1527  219.4974 H   0  0  0  0  0  0  0  0  0  0  0  0
  141.9949   75.9358  221.9957 H   0  0  0  0  0  0  0  0  0  0  0  0
  141.2929   71.7111  218.0794 H   0  0  0  0  0  0  0  0  0  0  0  0
  142.9225   71.7054  217.4092 H   0  0  0  0  0  0  0  0  0  0  0  0
  141.6034   69.3712  218.9754 H   0  0  0  0  0  0  0  0  0  0  0  0
  141.8381   69.3907  217.2189 H   0  0  0  0  0  0  0  0  0  0  0  0
  143.3286   67.5109  217.1761 H   0  0  0  0  0  0  0  0  0  0  0  0
  145.6501   66.6743  217.4668 H   0  0  0  0  0  0  0  0  0  0  0  0
  147.3109   67.9642  218.8261 H   0  0  0  0  0  0  0  0  0  0  0  0
  146.5660   70.1104  219.8764 H   0  0  0  0  0  0  0  0  0  0  0  0
  144.3882   71.1759  220.8569 H   0  0  0  0  0  0  0  0  0  0  0  0
  144.8456   72.0659  219.3503 H   0  0  0  0  0  0  0  0  0  0  0  0
  138.6548   70.3118  222.1727 H   0  0  0  0  0  0  0  0  0  0  0  0
  139.7696   69.1490  222.8885 H   0  0  0  0  0  0  0  0  0  0  0  0
  137.7504   70.8575  224.5036 H   0  0  0  0  0  0  0  0  0  0  0  0
  137.4337   69.1874  224.0421 H   0  0  0  0  0  0  0  0  0  0  0  0
  137.9853   67.6367  225.8418 H   0  0  0  0  0  0  0  0  0  0  0  0
  139.5489   67.0504  227.7174 H   0  0  0  0  0  0  0  0  0  0  0  0
  141.4436   68.5077  228.2596 H   0  0  0  0  0  0  0  0  0  0  0  0
  141.8877   70.5921  226.9978 H   0  0  0  0  0  0  0  0  0  0  0  0
  139.6198   72.2598  225.2158 H   0  0  0  0  0  0  0  0  0  0  0  0
  141.3610   71.8679  224.9794 H   0  0  0  0  0  0  0  0  0  0  0  0
  138.9158   75.4875  222.0433 H   0  0  0  0  0  0  0  0  0  0  0  0
  139.8803   75.9234  223.4269 H   0  0  0  0  0  0  0  0  0  0  0  0
  140.2850   77.9830  222.6060 H   0  0  0  0  0  0  0  0  0  0  0  0
  1  2  1  0
  2  3  2  0
  2  4  1  0
  4  5  1  0
  5  6  1  0
  6  7  1  0
  7  8  1  0
  8  9  1  0
  9 10  2  0
 10 11  1  0
 11 12  1  0
 12 13  1  0
 13 14  1  0
 14 15  1  0
 15 16  2  0
 16 17  1  0
 17 18  2  0
 18 19  1  0
 19 20  2  0
 20 21  1  0
 11 22  2  0
 22 23  1  0
 23 24  1  0
 24 25  1  0
 25 26  1  0
 26 27  1  0
 27 28  2  0
 28 29  1  0
 29 30  2  0
 30 31  1  0
 31 32  2  0
 32 33  1  0
 23 34  2  0
  8 35  1  0
 35 36  1  0
 36  6  1  0
 34  9  1  0
 21 12  1  0
 33 24  1  0
 20 15  1  0
 32 27  1  0
  1 37  1  0
  1 38  1  0
  4 39  1  0
  4 40  1  0
  5 41  1  0
  5 42  1  0
  6 43  1  6
  7 44  1  0
  7 45  1  0
  8 46  1  1
 13 47  1  0
 13 48  1  0
 14 49  1  0
 14 50  1  0
 16 51  1  0
 17 52  1  0
 18 53  1  0
 19 54  1  0
 21 55  1  0
 21 56  1  0
 25 57  1  0
 25 58  1  0
 26 59  1  0
 26 60  1  0
 28 61  1  0
 29 62  1  0
 30 63  1  0
 31 64  1  0
 33 65  1  0
 33 66  1  0
 35 67  1  0
 35 68  1  0
 36 69  1  0
M  END
>  <smiles>  (17) 
NC(=O)CC[C@H]1C[C@H](c2nc(N3CCc4ccccc4C3)nc(N3CCc4ccccc4C3)n2)CN1

>  <score_type>  (17) 
oracle

>  <origin>  (17) 
autodockgpu

>  <m_score__min__energy>  (17) 
-10.91

>  <m_primary>  (17) 
energy

>  <meeko>  (17) 
{"free_energy": -8.95, "intermolecular_energy": -10.74, "internal_energy": -1.68, "cluster_size": 2, "cluster_id": 3, "rank_in_cluster": 2}

>  <energy>  (17) 
-10.29

>  <cluster_rmsd>  (17) 
0.21

>  <rmsd>  (17) 
270.51

>  <cluster>  (17) 
2

$$$$

     RDKit          3D

 69 74  0  0  0  0  0  0  0  0999 V2000
  147.7700   69.5550  215.6870 N   0  0  0  0  0  0  0  0  0  0  0  0
  146.6870   70.1030  216.4500 C   0  0  0  0  0  0  0  0  0  0  0  0
  146.3590   71.3160  216.3830 O   0  0  0  0  0  0  0  0  0  0  0  0
  145.9680   69.1300  217.3370 C   0  0  0  0  0  0  0  0  0  0  0  0
  145.3590   69.9370  218.4760 C   0  0  0  0  0  0  0  0  0  0  0  0
  143.8430   70.0440  218.2740 C   0  0  1  0  0  0  0  0  0  0  0  0
  143.1360   70.3120  219.6060 C   0  0  0  0  0  0  0  0  0  0  0  0
  143.1410   71.8240  219.5980 C   0  0  2  0  0  0  0  0  0  0  0  0
  142.2020   72.4130  220.5750 C   0  0  0  0  0  0  0  0  0  0  0  0
  141.9000   73.7180  220.4860 N   0  0  0  0  0  0  0  0  0  0  0  0
  141.0500   74.3220  221.3450 C   0  0  0  0  0  0  0  0  0  0  0  0
  140.7480   75.6900  221.2330 N   0  0  0  0  0  0  0  0  0  0  0  0
  140.8400   76.4380  219.9820 C   0  0  0  0  0  0  0  0  0  0  0  0
  142.0290   77.3870  220.1820 C   0  0  0  0  0  0  0  0  0  0  0  0
  141.6790   78.2470  221.3480 C   0  0  0  0  0  0  0  0  0  0  0  0
  142.1850   79.5490  221.3910 C   0  0  0  0  0  0  0  0  0  0  0  0
  141.8790   80.3840  222.4680 C   0  0  0  0  0  0  0  0  0  0  0  0
  141.0740   79.9460  223.5140 C   0  0  0  0  0  0  0  0  0  0  0  0
  140.5850   78.6410  223.4400 C   0  0  0  0  0  0  0  0  0  0  0  0
  140.8810   77.8160  222.3870 C   0  0  0  0  0  0  0  0  0  0  0  0
  140.3160   76.4480  222.3990 C   0  0  0  0  0  0  0  0  0  0  0  0
  140.4970   73.5740  222.3160 N   0  0  0  0  0  0  0  0  0  0  0  0
  140.7690   72.2500  222.4500 C   0  0  0  0  0  0  0  0  0  0  0  0
  140.1700   71.4660  223.4930 N   0  0  0  0  0  0  0  0  0  0  0  0
  139.0330   70.5840  223.2020 C   0  0  0  0  0  0  0  0  0  0  0  0
  138.2770   70.4800  224.5210 C   0  0  0  0  0  0  0  0  0  0  0  0
  139.2220   69.7530  225.4440 C   0  0  0  0  0  0  0  0  0  0  0  0
  138.8460   68.5920  226.0920 C   0  0  0  0  0  0  0  0  0  0  0  0
  139.8010   68.0150  226.9150 C   0  0  0  0  0  0  0  0  0  0  0  0
  141.0470   68.5880  227.0610 C   0  0  0  0  0  0  0  0  0  0  0  0
  141.4110   69.7430  226.4120 C   0  0  0  0  0  0  0  0  0  0  0  0
  140.4680   70.3280  225.5890 C   0  0  0  0  0  0  0  0  0  0  0  0
  140.7240   71.5770  224.8270 C   0  0  0  0  0  0  0  0  0  0  0  0
  141.6240   71.6890  221.5700 N   0  0  0  0  0  0  0  0  0  0  0  0
  142.7070   72.0880  218.1710 C   0  0  0  0  0  0  0  0  0  0  0  0
  143.5480   71.1640  217.4340 N   0  0  0  0  0  0  0  0  0  0  0  0
  148.7670   69.6330  215.9870 H   0  0  0  0  0  0  0  0  0  0  0  0
  147.5900   69.0460  214.7790 H   0  0  0  0  0  0  0  0  0  0  0  0
  145.1764   68.6163  216.7718 H   0  0  0  0  0  0  0  0  0  0  0  0
  146.6573   68.3639  217.7216 H   0  0  0  0  0  0  0  0  0  0  0  0
  145.5668   69.4353  219.4326 H   0  0  0  0  0  0  0  0  0  0  0  0
  145.7992   70.9450  218.4870 H   0  0  0  0  0  0  0  0  0  0  0  0
  143.5005   69.0967  217.8320 H   0  0  0  0  0  0  0  0  0  0  0  0
  142.1137   69.9060  219.6158 H   0  0  0  0  0  0  0  0  0  0  0  0
  143.6076   69.8490  220.4854 H   0  0  0  0  0  0  0  0  0  0  0  0
  144.1051   72.2690  219.8851 H   0  0  0  0  0  0  0  0  0  0  0  0
  141.0238   75.7587  219.1365 H   0  0  0  0  0  0  0  0  0  0  0  0
  139.9103   76.9787  219.7511 H   0  0  0  0  0  0  0  0  0  0  0  0
  142.9442   76.8137  220.3914 H   0  0  0  0  0  0  0  0  0  0  0  0
  142.2192   77.9889  219.2811 H   0  0  0  0  0  0  0  0  0  0  0  0
  142.8251   79.9167  220.5755 H   0  0  0  0  0  0  0  0  0  0  0  0
  142.2823   81.4072  222.4892 H   0  0  0  0  0  0  0  0  0  0  0  0
  140.8328   80.6009  224.3643 H   0  0  0  0  0  0  0  0  0  0  0  0
  139.9436   78.2640  224.2502 H   0  0  0  0  0  0  0  0  0  0  0  0
  140.6517   75.9290  223.3090 H   0  0  0  0  0  0  0  0  0  0  0  0
  139.2188   76.5239  222.3784 H   0  0  0  0  0  0  0  0  0  0  0  0
  138.3929   71.0209  222.4214 H   0  0  0  0  0  0  0  0  0  0  0  0
  139.3540   69.6008  222.8275 H   0  0  0  0  0  0  0  0  0  0  0  0
  138.0426   71.4802  224.9143 H   0  0  0  0  0  0  0  0  0  0  0  0
  137.3158   69.9566  224.4110 H   0  0  0  0  0  0  0  0  0  0  0  0
  137.8466   68.1510  225.9624 H   0  0  0  0  0  0  0  0  0  0  0  0
  139.5620   67.0888  227.4582 H   0  0  0  0  0  0  0  0  0  0  0  0
  141.7781   68.1011  227.7231 H   0  0  0  0  0  0  0  0  0  0  0  0
  142.4106   70.1832  226.5421 H   0  0  0  0  0  0  0  0  0  0  0  0
  140.2535   72.4242  225.3475 H   0  0  0  0  0  0  0  0  0  0  0  0
  141.8095   71.7398  224.7548 H   0  0  0  0  0  0  0  0  0  0  0  0
  141.6402   71.8614  218.0276 H   0  0  0  0  0  0  0  0  0  0  0  0
  142.8138   73.1371  217.8579 H   0  0  0  0  0  0  0  0  0  0  0  0
  144.4240   71.6900  217.2290 H   0  0  0  0  0  0  0  0  0  0  0  0
  1  2  1  0
  2  3  2  0
  2  4  1  0
  4  5  1  0
  5  6  1  0
  6  7  1  0
  7  8  1  0
  8  9  1  0
  9 10  2  0
 10 11  1  0
 11 12  1  0
 12 13  1  0
 13 14  1  0
 14 15  1  0
 15 16  2  0
 16 17  1  0
 17 18  2  0
 18 19  1  0
 19 20  2  0
 20 21  1  0
 11 22  2  0
 22 23  1  0
 23 24  1  0
 24 25  1  0
 25 26  1  0
 26 27  1  0
 27 28  2  0
 28 29  1  0
 29 30  2  0
 30 31  1  0
 31 32  2  0
 32 33  1  0
 23 34  2  0
  8 35  1  0
 35 36  1  0
 36  6  1  0
 34  9  1  0
 21 12  1  0
 33 24  1  0
 20 15  1  0
 32 27  1  0
  1 37  1  0
  1 38  1  0
  4 39  1  0
  4 40  1  0
  5 41  1  0
  5 42  1  0
  6 43  1  6
  7 44  1  0
  7 45  1  0
  8 46  1  6
 13 47  1  0
 13 48  1  0
 14 49  1  0
 14 50  1  0
 16 51  1  0
 17 52  1  0
 18 53  1  0
 19 54  1  0
 21 55  1  0
 21 56  1  0
 25 57  1  0
 25 58  1  0
 26 59  1  0
 26 60  1  0
 28 61  1  0
 29 62  1  0
 30 63  1  0
 31 64  1  0
 33 65  1  0
 33 66  1  0
 35 67  1  0
 35 68  1  0
 36 69  1  0
M  END
>  <smiles>  (18) 
NC(=O)CC[C@H]1C[C@H](c2nc(N3CCc4ccccc4C3)nc(N3CCc4ccccc4C3)n2)CN1

>  <score_type>  (18) 
oracle

>  <origin>  (18) 
autodockgpu

>  <m_score__min__energy>  (18) 
-10.91

>  <m_primary>  (18) 
energy

>  <meeko>  (18) 
{"free_energy": -8.74, "intermolecular_energy": -10.53, "internal_energy": -1.72, "cluster_size": 14, "cluster_id": 1, "rank_in_cluster": 13}

>  <energy>  (18) 
-9.52

>  <cluster_rmsd>  (18) 
0.0

>  <rmsd>  (18) 
270.82

>  <cluster>  (18) 
3

$$$$

     RDKit          3D

 69 74  0  0  0  0  0  0  0  0999 V2000
  145.6180   67.5980  217.7380 N   0  0  0  0  0  0  0  0  0  0  0  0
  145.9430   68.7910  218.4640 C   0  0  0  0  0  0  0  0  0  0  0  0
  145.9340   68.8410  219.7210 O   0  0  0  0  0  0  0  0  0  0  0  0
  146.2930   69.9810  217.6200 C   0  0  0  0  0  0  0  0  0  0  0  0
  144.9980   70.7450  217.3750 C   0  0  0  0  0  0  0  0  0  0  0  0
  145.0590   72.0990  218.0920 C   0  0  1  0  0  0  0  0  0  0  0  0
  143.6620   72.5420  218.5340 C   0  0  0  0  0  0  0  0  0  0  0  0
  143.6240   71.9270  219.9150 C   0  0  2  0  0  0  0  0  0  0  0  0
  142.5480   72.4770  220.7670 C   0  0  0  0  0  0  0  0  0  0  0  0
  142.2030   73.7670  220.6320 N   0  0  0  0  0  0  0  0  0  0  0  0
  141.2290   74.3340  221.3760 C   0  0  0  0  0  0  0  0  0  0  0  0
  140.8850   75.6880  221.2180 N   0  0  0  0  0  0  0  0  0  0  0  0
  141.0080   76.4110  219.9550 C   0  0  0  0  0  0  0  0  0  0  0  0
  142.1520   77.4070  220.1870 C   0  0  0  0  0  0  0  0  0  0  0  0
  141.7190   78.2790  221.3150 C   0  0  0  0  0  0  0  0  0  0  0  0
  142.1750   79.6000  221.3500 C   0  0  0  0  0  0  0  0  0  0  0  0
  141.7910   80.4460  222.3920 C   0  0  0  0  0  0  0  0  0  0  0  0
  140.9530   80.0030  223.4110 C   0  0  0  0  0  0  0  0  0  0  0  0
  140.5160   78.6790  223.3450 C   0  0  0  0  0  0  0  0  0  0  0  0
  140.8890   77.8420  222.3260 C   0  0  0  0  0  0  0  0  0  0  0  0
  140.3730   76.4550  222.3450 C   0  0  0  0  0  0  0  0  0  0  0  0
  140.5950   73.5650  222.2780 N   0  0  0  0  0  0  0  0  0  0  0  0
  140.9060   72.2550  222.4540 C   0  0  0  0  0  0  0  0  0  0  0  0
  140.2180   71.4480  223.4220 N   0  0  0  0  0  0  0  0  0  0  0  0
  139.1310   70.5520  223.0080 C   0  0  0  0  0  0  0  0  0  0  0  0
  138.2480   70.4190  224.2430 C   0  0  0  0  0  0  0  0  0  0  0  0
  139.1070   69.6930  225.2470 C   0  0  0  0  0  0  0  0  0  0  0  0
  138.6880   68.5180  225.8390 C   0  0  0  0  0  0  0  0  0  0  0  0
  139.5640   67.9440  226.7470 C   0  0  0  0  0  0  0  0  0  0  0  0
  140.7800   68.5340  227.0250 C   0  0  0  0  0  0  0  0  0  0  0  0
  141.1880   69.7040  226.4290 C   0  0  0  0  0  0  0  0  0  0  0  0
  140.3220   70.2850  225.5230 C   0  0  0  0  0  0  0  0  0  0  0  0
  140.6330   71.5490  224.8060 C   0  0  0  0  0  0  0  0  0  0  0  0
  141.8850   71.7300  221.6890 N   0  0  0  0  0  0  0  0  0  0  0  0
  144.9970   72.3160  220.4220 C   0  0  0  0  0  0  0  0  0  0  0  0
  145.8350   71.9750  219.2880 N   0  0  0  0  0  0  0  0  0  0  0  0
  144.6350   67.3070  217.5420 H   0  0  0  0  0  0  0  0  0  0  0  0
  146.3790   66.9630  217.3730 H   0  0  0  0  0  0  0  0  0  0  0  0
  147.0154   70.6204  218.1484 H   0  0  0  0  0  0  0  0  0  0  0  0
  146.7523   69.6692  216.6703 H   0  0  0  0  0  0  0  0  0  0  0  0
  144.8671   70.9077  216.2950 H   0  0  0  0  0  0  0  0  0  0  0  0
  144.1498   70.1625  217.7638 H   0  0  0  0  0  0  0  0  0  0  0  0
  145.4967   72.8250  217.3910 H   0  0  0  0  0  0  0  0  0  0  0  0
  143.5727   73.6377  218.5712 H   0  0  0  0  0  0  0  0  0  0  0  0
  142.8433   72.2373  217.8655 H   0  0  0  0  0  0  0  0  0  0  0  0
  143.4114   70.8478  219.9173 H   0  0  0  0  0  0  0  0  0  0  0  0
  141.2549   75.7205  219.1351 H   0  0  0  0  0  0  0  0  0  0  0  0
  140.0714   76.9118  219.6689 H   0  0  0  0  0  0  0  0  0  0  0  0
  143.0761   76.8720  220.4511 H   0  0  0  0  0  0  0  0  0  0  0  0
  142.3617   77.9957  219.2818 H   0  0  0  0  0  0  0  0  0  0  0  0
  142.8375   79.9735  220.5552 H   0  0  0  0  0  0  0  0  0  0  0  0
  142.1579   81.4829  222.4079 H   0  0  0  0  0  0  0  0  0  0  0  0
  140.6482   80.6675  224.2329 H   0  0  0  0  0  0  0  0  0  0  0  0
  139.8525   78.2961  224.1344 H   0  0  0  0  0  0  0  0  0  0  0  0
  140.6846   75.9689  223.2812 H   0  0  0  0  0  0  0  0  0  0  0  0
  139.2759   76.4901  222.2732 H   0  0  0  0  0  0  0  0  0  0  0  0
  138.5653   70.9889  222.1719 H   0  0  0  0  0  0  0  0  0  0  0  0
  139.5046   69.5789  222.6567 H   0  0  0  0  0  0  0  0  0  0  0  0
  137.9597   71.4102  224.6230 H   0  0  0  0  0  0  0  0  0  0  0  0
  137.3109   69.8836  224.0306 H   0  0  0  0  0  0  0  0  0  0  0  0
  137.7144   68.0634  225.6034 H   0  0  0  0  0  0  0  0  0  0  0  0
  139.2865   67.0070  227.2520 H   0  0  0  0  0  0  0  0  0  0  0  0
  141.4489   68.0495  227.7516 H   0  0  0  0  0  0  0  0  0  0  0  0
  142.1622   70.1579  226.6636 H   0  0  0  0  0  0  0  0  0  0  0  0
  140.0985   72.3816  225.2868 H   0  0  0  0  0  0  0  0  0  0  0  0
  141.7174   71.7295  224.8457 H   0  0  0  0  0  0  0  0  0  0  0  0
  145.0504   73.3904  220.6517 H   0  0  0  0  0  0  0  0  0  0  0  0
  145.2862   71.8160  221.3581 H   0  0  0  0  0  0  0  0  0  0  0  0
  146.1020   70.9770  219.4320 H   0  0  0  0  0  0  0  0  0  0  0  0
  1  2  1  0
  2  3  2  0
  2  4  1  0
  4  5  1  0
  5  6  1  0
  6  7  1  0
  7  8  1  0
  8  9  1  0
  9 10  2  0
 10 11  1  0
 11 12  1  0
 12 13  1  0
 13 14  1  0
 14 15  1  0
 15 16  2  0
 16 17  1  0
 17 18  2  0
 18 19  1  0
 19 20  2  0
 20 21  1  0
 11 22  2  0
 22 23  1  0
 23 24  1  0
 24 25  1  0
 25 26  1  0
 26 27  1  0
 27 28  2  0
 28 29  1  0
 29 30  2  0
 30 31  1  0
 31 32  2  0
 32 33  1  0
 23 34  2  0
  8 35  1  0
 35 36  1  0
 36  6  1  0
 34  9  1  0
 21 12  1  0
 33 24  1  0
 20 15  1  0
 32 27  1  0
  1 37  1  0
  1 38  1  0
  4 39  1  0
  4 40  1  0
  5 41  1  0
  5 42  1  0
  6 43  1  6
  7 44  1  0
  7 45  1  0
  8 46  1  6
 13 47  1  0
 13 48  1  0
 14 49  1  0
 14 50  1  0
 16 51  1  0
 17 52  1  0
 18 53  1  0
 19 54  1  0
 21 55  1  0
 21 56  1  0
 25 57  1  0
 25 58  1  0
 26 59  1  0
 26 60  1  0
 28 61  1  0
 29 62  1  0
 30 63  1  0
 31 64  1  0
 33 65  1  0
 33 66  1  0
 35 67  1  0
 35 68  1  0
 36 69  1  0
M  END
>  <smiles>  (19) 
NC(=O)CC[C@H]1C[C@H](c2nc(N3CCc4ccccc4C3)nc(N3CCc4ccccc4C3)n2)CN1

>  <score_type>  (19) 
oracle

>  <origin>  (19) 
autodockgpu

>  <m_score__min__energy>  (19) 
-10.91

>  <m_primary>  (19) 
energy

>  <meeko>  (19) 
{"free_energy": -10.14, "intermolecular_energy": -11.93, "internal_energy": -1.66, "cluster_size": 14, "cluster_id": 1, "rank_in_cluster": 7}

>  <energy>  (19) 
-8.95

>  <cluster_rmsd>  (19) 
1.09

>  <rmsd>  (19) 
270.66

>  <cluster>  (19) 
3

$$$$

     RDKit          3D

 69 74  0  0  0  0  0  0  0  0999 V2000
  145.7930   66.8430  217.9660 N   0  0  0  0  0  0  0  0  0  0  0  0
  145.5040   67.9180  218.8690 C   0  0  0  0  0  0  0  0  0  0  0  0
  145.7540   67.8510  220.1000 O   0  0  0  0  0  0  0  0  0  0  0  0
  144.8800   69.1310  218.2450 C   0  0  0  0  0  0  0  0  0  0  0  0
  145.8800   70.2700  218.3980 C   0  0  0  0  0  0  0  0  0  0  0  0
  145.1750   71.6080  218.1500 C   0  0  1  0  0  0  0  0  0  0  0  0
  143.7690   71.6010  218.7550 C   0  0  0  0  0  0  0  0  0  0  0  0
  144.0820   72.1380  220.1340 C   0  0  2  0  0  0  0  0  0  0  0  0
  142.8830   72.6050  220.8620 C   0  0  0  0  0  0  0  0  0  0  0  0
  142.4800   73.8760  220.7090 N   0  0  0  0  0  0  0  0  0  0  0  0
  141.3930   74.3680  221.3430 C   0  0  0  0  0  0  0  0  0  0  0  0
  140.9900   75.7040  221.1680 N   0  0  0  0  0  0  0  0  0  0  0  0
  141.0570   76.4080  219.8910 C   0  0  0  0  0  0  0  0  0  0  0  0
  142.1630   77.4550  220.0810 C   0  0  0  0  0  0  0  0  0  0  0  0
  141.7160   78.3290  221.2020 C   0  0  0  0  0  0  0  0  0  0  0  0
  142.1180   79.6670  221.2050 C   0  0  0  0  0  0  0  0  0  0  0  0
  141.7200   80.5160  222.2400 C   0  0  0  0  0  0  0  0  0  0  0  0
  140.9220   80.0570  223.2830 C   0  0  0  0  0  0  0  0  0  0  0  0
  140.5390   78.7150  223.2500 C   0  0  0  0  0  0  0  0  0  0  0  0
  140.9260   77.8760  222.2390 C   0  0  0  0  0  0  0  0  0  0  0  0
  140.4690   76.4690  222.2920 C   0  0  0  0  0  0  0  0  0  0  0  0
  140.7050   73.5430  222.1500 N   0  0  0  0  0  0  0  0  0  0  0  0
  141.0710   72.2490  222.3400 C   0  0  0  0  0  0  0  0  0  0  0  0
  140.3240   71.3810  223.2050 N   0  0  0  0  0  0  0  0  0  0  0  0
  139.4310   70.3590  222.6460 C   0  0  0  0  0  0  0  0  0  0  0  0
  138.3720   70.1400  223.7200 C   0  0  0  0  0  0  0  0  0  0  0  0
  139.1240   69.5340  224.8770 C   0  0  0  0  0  0  0  0  0  0  0  0
  138.7450   68.3270  225.4300 C   0  0  0  0  0  0  0  0  0  0  0  0
  139.5140   67.8720  226.4900 C   0  0  0  0  0  0  0  0  0  0  0  0
  140.5910   68.6030  226.9470 C   0  0  0  0  0  0  0  0  0  0  0  0
  140.9600   69.8040  226.3890 C   0  0  0  0  0  0  0  0  0  0  0  0
  140.2000   70.2680  225.3320 C   0  0  0  0  0  0  0  0  0  0  0  0
  140.4850   71.5490  224.6350 C   0  0  0  0  0  0  0  0  0  0  0  0
  142.1620   71.7990  221.6870 N   0  0  0  0  0  0  0  0  0  0  0  0
  145.0030   73.2840  219.7740 C   0  0  0  0  0  0  0  0  0  0  0  0
  145.8880   72.6570  218.8110 N   0  0  0  0  0  0  0  0  0  0  0  0
  145.1590   66.0210  217.8450 H   0  0  0  0  0  0  0  0  0  0  0  0
  146.6740   66.8470  217.3840 H   0  0  0  0  0  0  0  0  0  0  0  0
  144.6766   68.9464  217.1798 H   0  0  0  0  0  0  0  0  0  0  0  0
  143.9246   69.3772  218.7314 H   0  0  0  0  0  0  0  0  0  0  0  0
  146.2957   70.2582  219.4163 H   0  0  0  0  0  0  0  0  0  0  0  0
  146.6929   70.1438  217.6677 H   0  0  0  0  0  0  0  0  0  0  0  0
  145.1323   71.7620  217.0617 H   0  0  0  0  0  0  0  0  0  0  0  0
  143.0830   72.2615  218.2044 H   0  0  0  0  0  0  0  0  0  0  0  0
  143.2594   70.6263  218.7389 H   0  0  0  0  0  0  0  0  0  0  0  0
  144.5086   71.3900  220.8185 H   0  0  0  0  0  0  0  0  0  0  0  0
  141.3158   75.7134  219.0782 H   0  0  0  0  0  0  0  0  0  0  0  0
  140.0946   76.8644  219.6163 H   0  0  0  0  0  0  0  0  0  0  0  0
  143.1139   76.9641  220.3354 H   0  0  0  0  0  0  0  0  0  0  0  0
  142.3300   78.0348  219.1612 H   0  0  0  0  0  0  0  0  0  0  0  0
  142.7491   80.0525  220.3907 H   0  0  0  0  0  0  0  0  0  0  0  0
  142.0436   81.5673  222.2303 H   0  0  0  0  0  0  0  0  0  0  0  0
  140.6062   80.7234  224.0992 H   0  0  0  0  0  0  0  0  0  0  0  0
  139.9079   78.3198  224.0597 H   0  0  0  0  0  0  0  0  0  0  0  0
  140.8193   76.0129  223.2297 H   0  0  0  0  0  0  0  0  0  0  0  0
  139.3702   76.4573  222.2422 H   0  0  0  0  0  0  0  0  0  0  0  0
  138.9695   70.7155  221.7133 H   0  0  0  0  0  0  0  0  0  0  0  0
  139.9663   69.4315  222.3946 H   0  0  0  0  0  0  0  0  0  0  0  0
  137.9127   71.0956  224.0131 H   0  0  0  0  0  0  0  0  0  0  0  0
  137.5517   69.4951  223.3718 H   0  0  0  0  0  0  0  0  0  0  0  0
  137.8824   67.7590  225.0513 H   0  0  0  0  0  0  0  0  0  0  0  0
  139.2623   66.9162  226.9727 H   0  0  0  0  0  0  0  0  0  0  0  0
  141.1772   68.2096  227.7906 H   0  0  0  0  0  0  0  0  0  0  0  0
  141.8231   70.3713  226.7675 H   0  0  0  0  0  0  0  0  0  0  0  0
  139.7875   72.3211  224.9920 H   0  0  0  0  0  0  0  0  0  0  0  0
  141.5200   71.8541  224.8487 H   0  0  0  0  0  0  0  0  0  0  0  0
  144.4469   74.1193  219.3234 H   0  0  0  0  0  0  0  0  0  0  0  0
  145.5227   73.7276  220.6361 H   0  0  0  0  0  0  0  0  0  0  0  0
  146.6670   72.2520  219.3740 H   0  0  0  0  0  0  0  0  0  0  0  0
  1  2  1  0
  2  3  2  0
  2  4  1  0
  4  5  1  0
  5  6  1  0
  6  7  1  0
  7  8  1  0
  8  9  1  0
  9 10  2  0
 10 11  1  0
 11 12  1  0
 12 13  1  0
 13 14  1  0
 14 15  1  0
 15 16  2  0
 16 17  1  0
 17 18  2  0
 18 19  1  0
 19 20  2  0
 20 21  1  0
 11 22  2  0
 22 23  1  0
 23 24  1  0
 24 25  1  0
 25 26  1  0
 26 27  1  0
 27 28  2  0
 28 29  1  0
 29 30  2  0
 30 31  1  0
 31 32  2  0
 32 33  1  0
 23 34  2  0
  8 35  1  0
 35 36  1  0
 36  6  1  0
 34  9  1  0
 21 12  1  0
 33 24  1  0
 20 15  1  0
 32 27  1  0
  1 37  1  0
  1 38  1  0
  4 39  1  0
  4 40  1  0
  5 41  1  0
  5 42  1  0
  6 43  1  6
  7 44  1  0
  7 45  1  0
  8 46  1  1
 13 47  1  0
 13 48  1  0
 14 49  1  0
 14 50  1  0
 16 51  1  0
 17 52  1  0
 18 53  1  0
 19 54  1  0
 21 55  1  0
 21 56  1  0
 25 57  1  0
 25 58  1  0
 26 59  1  0
 26 60  1  0
 28 61  1  0
 29 62  1  0
 30 63  1  0
 31 64  1  0
 33 65  1  0
 33 66  1  0
 35 67  1  0
 35 68  1  0
 36 69  1  0
M  END
>  <smiles>  (20) 
NC(=O)CC[C@H]1C[C@H](c2nc(N3CCc4ccccc4C3)nc(N3CCc4ccccc4C3)n2)CN1

>  <score_type>  (20) 
oracle

>  <origin>  (20) 
autodockgpu

>  <m_score__min__energy>  (20) 
-10.91

>  <m_primary>  (20) 
energy

>  <meeko>  (20) 
{"free_energy": -10.86, "intermolecular_energy": -12.65, "internal_energy": -1.11, "cluster_size": 14, "cluster_id": 1, "rank_in_cluster": 2}

>  <energy>  (20) 
-7.33

>  <cluster_rmsd>  (20) 
0.0

>  <rmsd>  (20) 
270.49

>  <cluster>  (20) 
4

$$$$
