SDBQQCBUKDXRSS-CCEZHUSRNA-N
     RDKit          3D

 54 57  0  0  0  0  0  0  0  0999 V2000
  139.6252   77.3838  223.5584 H   0  0  0  0  0  0  0  0  0  0  0  0
  139.2280   77.9330  222.6920 C   0  0  0  0  0  0  0  0  0  0  0  0
  139.3080   77.3690  221.4800 C   0  0  0  0  0  0  0  0  0  0  0  0
  138.4383   77.4116  220.8078 H   0  0  0  0  0  0  0  0  0  0  0  0
  140.5450   76.6880  221.0250 C   0  0  0  0  0  0  0  0  0  0  0  0
  140.6820   75.3730  221.3380 N   0  0  0  0  0  0  0  0  0  0  0  0
  141.7350   74.6390  220.9140 C   0  0  0  0  0  0  0  0  0  0  0  0
  141.8330   73.2860  221.2610 C   0  0  0  0  0  0  0  0  0  0  0  0
  141.0670   72.8267  221.9031 H   0  0  0  0  0  0  0  0  0  0  0  0
  142.9020   72.5190  220.7930 C   0  0  0  0  0  0  0  0  0  0  0  0
  142.9780   71.4566  221.0678 H   0  0  0  0  0  0  0  0  0  0  0  0
  143.8750   73.1000  219.9760 C   0  0  0  0  0  0  0  0  0  0  0  0
  144.7122   72.4921  219.6024 H   0  0  0  0  0  0  0  0  0  0  0  0
  143.7870   74.4530  219.6320 C   0  0  0  0  0  0  0  0  0  0  0  0
  144.5582   74.9078  218.9929 H   0  0  0  0  0  0  0  0  0  0  0  0
  142.7130   75.2350  220.1020 C   0  0  0  0  0  0  0  0  0  0  0  0
  142.5820   76.5980  219.7950 C   0  0  0  0  0  0  0  0  0  0  0  0
  143.4500   77.1490  219.0590 O   0  0  0  0  0  0  0  0  0  0  0  0
  141.5210   77.3300  220.2850 N   0  0  0  0  0  0  0  0  0  0  0  0
  141.4760   78.7940  220.0300 C   0  0  0  0  0  0  0  0  0  0  0  0
  142.3471   79.0655  219.4156 H   0  0  0  0  0  0  0  0  0  0  0  0
  140.5215   79.0009  219.5239 H   0  0  0  0  0  0  0  0  0  0  0  0
  141.4990   79.6580  221.3200 C   0  0  0  0  0  0  0  0  0  0  0  0
  140.5052   79.5004  221.7645 H   0  0  0  0  0  0  0  0  0  0  0  0
  142.5490   79.1940  222.3590 C   0  0  0  0  0  0  0  0  0  0  0  0
  142.2045   78.2492  222.8047 H   0  0  0  0  0  0  0  0  0  0  0  0
  143.5041   79.0785  221.8257 H   0  0  0  0  0  0  0  0  0  0  0  0
  142.7820   80.2160  223.4960 C   0  0  0  0  0  0  0  0  0  0  0  0
  142.8733   79.6697  224.4464 H   0  0  0  0  0  0  0  0  0  0  0  0
  143.6990   80.7745  223.2567 H   0  0  0  0  0  0  0  0  0  0  0  0
  141.6430   81.2320  223.6230 C   0  0  0  0  0  0  0  0  0  0  0  0
  140.7148   80.6984  223.8754 H   0  0  0  0  0  0  0  0  0  0  0  0
  141.9089   81.9510  224.4119 H   0  0  0  0  0  0  0  0  0  0  0  0
  141.4310   82.0120  222.3100 C   0  0  0  0  0  0  0  0  0  0  0  0
  140.3986   82.3913  222.2944 H   0  0  0  0  0  0  0  0  0  0  0  0
  142.1762   82.8209  222.2933 H   0  0  0  0  0  0  0  0  0  0  0  0
  141.6580   81.1630  221.0380 C   0  0  0  0  0  0  0  0  0  0  0  0
  140.9244   81.4618  220.2747 H   0  0  0  0  0  0  0  0  0  0  0  0
  142.6860   81.3388  220.6882 H   0  0  0  0  0  0  0  0  0  0  0  0
  138.6260   79.2660  222.9100 C   0  0  0  0  0  0  0  0  0  0  0  0
  138.1880   80.0050  221.8000 C   0  0  0  0  0  0  0  0  0  0  0  0
  138.3048   79.5922  220.7871 H   0  0  0  0  0  0  0  0  0  0  0  0
  137.6050   81.2610  221.9750 C   0  0  0  0  0  0  0  0  0  0  0  0
  137.2507   81.8275  221.1012 H   0  0  0  0  0  0  0  0  0  0  0  0
  137.4700   81.8010  223.2560 C   0  0  0  0  0  0  0  0  0  0  0  0
  136.9979   82.7859  223.3866 H   0  0  0  0  0  0  0  0  0  0  0  0
  137.9310   81.0980  224.3740 C   0  0  0  0  0  0  0  0  0  0  0  0
  137.8000   81.6960  225.6370 O   0  0  0  0  0  0  0  0  0  0  0  0
  136.6050   81.6860  226.4110 C   0  0  0  0  0  0  0  0  0  0  0  0
  136.8610   81.6881  227.4808 H   0  0  0  0  0  0  0  0  0  0  0  0
  136.0079   82.5792  226.1751 H   0  0  0  0  0  0  0  0  0  0  0  0
  136.0229   80.7829  226.1751 H   0  0  0  0  0  0  0  0  0  0  0  0
  138.5090   79.8250  224.1980 C   0  0  0  0  0  0  0  0  0  0  0  0
  138.8713   79.2639  225.0720 H   0  0  0  0  0  0  0  0  0  0  0  0
  1  2  1  0
  2  3  2  0
  3  4  1  0
  3  5  1  0
  5  6  2  0
  6  7  1  0
  7  8  2  0
  8  9  1  0
  8 10  1  0
 10 11  1  0
 10 12  2  0
 12 13  1  0
 12 14  1  0
 14 15  1  0
 14 16  2  0
 16 17  1  0
 17 18  2  0
 17 19  1  0
 19 20  1  0
 20 21  1  0
 20 22  1  0
 20 23  1  0
 23 24  1  0
 23 25  1  0
 25 26  1  0
 25 27  1  0
 25 28  1  0
 28 29  1  0
 28 30  1  0
 28 31  1  0
 31 32  1  0
 31 33  1  0
 31 34  1  0
 34 35  1  0
 34 36  1  0
 34 37  1  0
 37 38  1  0
 37 39  1  0
  2 40  1  0
 40 41  2  0
 41 42  1  0
 41 43  1  0
 43 44  1  0
 43 45  2  0
 45 46  1  0
 45 47  1  0
 47 48  1  0
 48 49  1  0
 49 50  1  0
 49 51  1  0
 49 52  1  0
 47 53  2  0
 53 54  1  0
 19  5  1  0
 37 23  1  0
 53 40  1  0
 16  7  1  0
M  END
>  <UniqueID>  (1) 
71

>  <SMILES>  (1) 
COc1cccc(/C=C/c2nc3ccccc3c(=O)n2CC2CCCCC2)c1

>  <Energy>  (1) 
71.5097539010311

>  <Genealogy>  (1) 
COc1cccc(/C=C/c2nc3ccccc3c(=O)n2CC2CCCCC2)c1 (cis-trans isomerization)
COc1cccc(/C=C/c2nc3ccccc3c(=O)n2CC2CCCCC2)c1 (3D coordinates assigned)
COc1cccc(/C=C/c2nc3ccccc3c(=O)n2CC2CCCCC2)c1 (nonaromatic ring conformer: 71.5097539010311 kcal/mol)

>  <smiles>  (1) 
COc1cccc(/C=C/c2nc3ccccc3c(=O)n2CC2CCCCC2)c1

>  <score_type>  (1) 
oracle

>  <origin>  (1) 
autodockgpu

>  <m_score__min__energy>  (1) 
-7.3499999999999996

>  <m_primary>  (1) 
energy

>  <meeko>  (1) 
{"free_energy": -6.4, "intermolecular_energy": -8.19, "internal_energy": -2.0, "cluster_size": 2, "cluster_id": 10, "rank_in_cluster": 2}

>  <energy>  (1) 
-7.35

>  <cluster_rmsd>  (1) 
0.0

>  <rmsd>  (1) 
270.31

>  <cluster>  (1) 
1

$$$$
SDBQQCBUKDXRSS-CCEZHUSRNA-N
     RDKit          3D

 54 57  0  0  0  0  0  0  0  0999 V2000
  139.5805   77.9134  223.8933 H   0  0  0  0  0  0  0  0  0  0  0  0
  139.1160   78.4390  223.0460 C   0  0  0  0  0  0  0  0  0  0  0  0
  139.1720   77.8780  221.8310 C   0  0  0  0  0  0  0  0  0  0  0  0
  138.4258   78.1590  221.0732 H   0  0  0  0  0  0  0  0  0  0  0  0
  140.2190   76.8860  221.4860 C   0  0  0  0  0  0  0  0  0  0  0  0
  140.0070   75.5990  221.8700 N   0  0  0  0  0  0  0  0  0  0  0  0
  140.8620   74.6030  221.5460 C   0  0  0  0  0  0  0  0  0  0  0  0
  140.6010   73.2920  221.9640 C   0  0  0  0  0  0  0  0  0  0  0  0
  139.7153   73.0776  222.5801 H   0  0  0  0  0  0  0  0  0  0  0  0
  141.4650   72.2560  221.5990 C   0  0  0  0  0  0  0  0  0  0  0  0
  141.2589   71.2267  221.9277 H   0  0  0  0  0  0  0  0  0  0  0  0
  142.5900   72.5270  220.8170 C   0  0  0  0  0  0  0  0  0  0  0  0
  143.2660   71.7095  220.5260 H   0  0  0  0  0  0  0  0  0  0  0  0
  142.8590   73.8360  220.4030 C   0  0  0  0  0  0  0  0  0  0  0  0
  143.7479   74.0456  219.7899 H   0  0  0  0  0  0  0  0  0  0  0  0
  141.9950   74.8860  220.7690 C   0  0  0  0  0  0  0  0  0  0  0  0
  142.2240   76.2190  220.3890 C   0  0  0  0  0  0  0  0  0  0  0  0
  143.2360   76.4900  219.6820 O   0  0  0  0  0  0  0  0  0  0  0  0
  141.3590   77.2190  220.7780 N   0  0  0  0  0  0  0  0  0  0  0  0
  141.6940   78.6300  220.4500 C   0  0  0  0  0  0  0  0  0  0  0  0
  142.7139   78.6576  220.0387 H   0  0  0  0  0  0  0  0  0  0  0  0
  140.9395   78.9789  219.7296 H   0  0  0  0  0  0  0  0  0  0  0  0
  141.6320   79.5890  221.6690 C   0  0  0  0  0  0  0  0  0  0  0  0
  140.6875   79.3245  222.1669 H   0  0  0  0  0  0  0  0  0  0  0  0
  142.7730   79.3680  222.6930 C   0  0  0  0  0  0  0  0  0  0  0  0
  142.5867   78.4226  223.2235 H   0  0  0  0  0  0  0  0  0  0  0  0
  143.7166   79.3496  222.1279 H   0  0  0  0  0  0  0  0  0  0  0  0
  142.8900   80.5010  223.7380 C   0  0  0  0  0  0  0  0  0  0  0  0
  143.0913   80.0522  224.7219 H   0  0  0  0  0  0  0  0  0  0  0  0
  143.7068   81.1643  223.4173 H   0  0  0  0  0  0  0  0  0  0  0  0
  141.6200   81.3490  223.8380 C   0  0  0  0  0  0  0  0  0  0  0  0
  140.7893   80.7096  224.1712 H   0  0  0  0  0  0  0  0  0  0  0  0
  141.8043   82.1606  224.5572 H   0  0  0  0  0  0  0  0  0  0  0  0
  141.2510   81.9820  222.4810 C   0  0  0  0  0  0  0  0  0  0  0  0
  140.1740   82.2059  222.4834 H   0  0  0  0  0  0  0  0  0  0  0  0
  141.8670   82.8865  222.3697 H   0  0  0  0  0  0  0  0  0  0  0  0
  141.5580   81.0740  221.2690 C   0  0  0  0  0  0  0  0  0  0  0  0
  140.7635   81.2012  220.5189 H   0  0  0  0  0  0  0  0  0  0  0  0
  142.5373   81.3670  220.8626 H   0  0  0  0  0  0  0  0  0  0  0  0
  138.4530   79.7390  223.2920 C   0  0  0  0  0  0  0  0  0  0  0  0
  137.9980   80.4880  222.1960 C   0  0  0  0  0  0  0  0  0  0  0  0
  138.1471   80.1088  221.1742 H   0  0  0  0  0  0  0  0  0  0  0  0
  137.3570   81.7120  222.3960 C   0  0  0  0  0  0  0  0  0  0  0  0
  136.9887   82.2858  221.5328 H   0  0  0  0  0  0  0  0  0  0  0  0
  137.1820   82.2100  223.6890 C   0  0  0  0  0  0  0  0  0  0  0  0
  136.6656   83.1695  223.8393 H   0  0  0  0  0  0  0  0  0  0  0  0
  137.6590   81.4970  224.7950 C   0  0  0  0  0  0  0  0  0  0  0  0
  137.4860   82.0530  226.0710 O   0  0  0  0  0  0  0  0  0  0  0  0
  136.4190   81.7230  226.9540 C   0  0  0  0  0  0  0  0  0  0  0  0
  136.7587   81.8281  227.9949 H   0  0  0  0  0  0  0  0  0  0  0  0
  135.5716   82.4010  226.7746 H   0  0  0  0  0  0  0  0  0  0  0  0
  136.1024   80.6849  226.7746 H   0  0  0  0  0  0  0  0  0  0  0  0
  138.2960   80.2560  224.5920 C   0  0  0  0  0  0  0  0  0  0  0  0
  138.6729   79.6877  225.4551 H   0  0  0  0  0  0  0  0  0  0  0  0
  1  2  1  0
  2  3  2  0
  3  4  1  0
  3  5  1  0
  5  6  2  0
  6  7  1  0
  7  8  2  0
  8  9  1  0
  8 10  1  0
 10 11  1  0
 10 12  2  0
 12 13  1  0
 12 14  1  0
 14 15  1  0
 14 16  2  0
 16 17  1  0
 17 18  2  0
 17 19  1  0
 19 20  1  0
 20 21  1  0
 20 22  1  0
 20 23  1  0
 23 24  1  0
 23 25  1  0
 25 26  1  0
 25 27  1  0
 25 28  1  0
 28 29  1  0
 28 30  1  0
 28 31  1  0
 31 32  1  0
 31 33  1  0
 31 34  1  0
 34 35  1  0
 34 36  1  0
 34 37  1  0
 37 38  1  0
 37 39  1  0
  2 40  1  0
 40 41  2  0
 41 42  1  0
 41 43  1  0
 43 44  1  0
 43 45  2  0
 45 46  1  0
 45 47  1  0
 47 48  1  0
 48 49  1  0
 49 50  1  0
 49 51  1  0
 49 52  1  0
 47 53  2  0
 53 54  1  0
 19  5  1  0
 37 23  1  0
 53 40  1  0
 16  7  1  0
M  END
>  <UniqueID>  (2) 
71

>  <SMILES>  (2) 
COc1cccc(/C=C/c2nc3ccccc3c(=O)n2CC2CCCCC2)c1

>  <Energy>  (2) 
71.5097539010311

>  <Genealogy>  (2) 
COc1cccc(/C=C/c2nc3ccccc3c(=O)n2CC2CCCCC2)c1 (cis-trans isomerization)
COc1cccc(/C=C/c2nc3ccccc3c(=O)n2CC2CCCCC2)c1 (3D coordinates assigned)
COc1cccc(/C=C/c2nc3ccccc3c(=O)n2CC2CCCCC2)c1 (nonaromatic ring conformer: 71.5097539010311 kcal/mol)

>  <smiles>  (2) 
COc1cccc(/C=C/c2nc3ccccc3c(=O)n2CC2CCCCC2)c1

>  <score_type>  (2) 
oracle

>  <origin>  (2) 
autodockgpu

>  <m_score__min__energy>  (2) 
-7.3499999999999996

>  <m_primary>  (2) 
energy

>  <meeko>  (2) 
{"free_energy": -6.62, "intermolecular_energy": -8.41, "internal_energy": -1.75, "cluster_size": 2, "cluster_id": 10, "rank_in_cluster": 1}

>  <energy>  (2) 
-7.33

>  <cluster_rmsd>  (2) 
0.0

>  <rmsd>  (2) 
270.17

>  <cluster>  (2) 
2

$$$$
SDBQQCBUKDXRSS-CCEZHUSRNA-N
     RDKit          3D

 54 57  0  0  0  0  0  0  0  0999 V2000
  143.4857   78.3299  218.0060 H   0  0  0  0  0  0  0  0  0  0  0  0
  142.5700   78.1060  218.5730 C   0  0  0  0  0  0  0  0  0  0  0  0
  141.5440   78.9630  218.5040 C   0  0  0  0  0  0  0  0  0  0  0  0
  140.5157   78.5723  218.5006 H   0  0  0  0  0  0  0  0  0  0  0  0
  141.7640   80.4280  218.4320 C   0  0  0  0  0  0  0  0  0  0  0  0
  142.7170   80.8730  217.5710 N   0  0  0  0  0  0  0  0  0  0  0  0
  142.9510   82.1900  217.3750 C   0  0  0  0  0  0  0  0  0  0  0  0
  143.9440   82.6000  216.4770 C   0  0  0  0  0  0  0  0  0  0  0  0
  144.5543   81.8502  215.9524 H   0  0  0  0  0  0  0  0  0  0  0  0
  144.1600   83.9610  216.2470 C   0  0  0  0  0  0  0  0  0  0  0  0
  144.9398   84.2817  215.5405 H   0  0  0  0  0  0  0  0  0  0  0  0
  143.3870   84.9150  216.9130 C   0  0  0  0  0  0  0  0  0  0  0  0
  143.5555   85.9858  216.7262 H   0  0  0  0  0  0  0  0  0  0  0  0
  142.3990   84.5110  217.8170 C   0  0  0  0  0  0  0  0  0  0  0  0
  141.7952   85.2653  218.3428 H   0  0  0  0  0  0  0  0  0  0  0  0
  142.1750   83.1410  218.0560 C   0  0  0  0  0  0  0  0  0  0  0  0
  141.2040   82.6820  218.9600 C   0  0  0  0  0  0  0  0  0  0  0  0
  140.4910   83.5250  219.5770 O   0  0  0  0  0  0  0  0  0  0  0  0
  141.0240   81.3320  219.1740 N   0  0  0  0  0  0  0  0  0  0  0  0
  140.0640   80.8880  220.2190 C   0  0  0  0  0  0  0  0  0  0  0  0
  139.5289   81.7721  220.5958 H   0  0  0  0  0  0  0  0  0  0  0  0
  139.3917   80.1575  219.7453 H   0  0  0  0  0  0  0  0  0  0  0  0
  140.7320   80.1710  221.4230 C   0  0  0  0  0  0  0  0  0  0  0  0
  140.7739   79.1158  221.1150 H   0  0  0  0  0  0  0  0  0  0  0  0
  142.1860   80.6330  221.6920 C   0  0  0  0  0  0  0  0  0  0  0  0
  142.8306   80.2380  220.8930 H   0  0  0  0  0  0  0  0  0  0  0  0
  142.1779   81.7327  221.7149 H   0  0  0  0  0  0  0  0  0  0  0  0
  142.7420   80.1530  223.0520 C   0  0  0  0  0  0  0  0  0  0  0  0
  143.7872   79.8391  222.9136 H   0  0  0  0  0  0  0  0  0  0  0  0
  142.6585   80.9916  223.7590 H   0  0  0  0  0  0  0  0  0  0  0  0
  141.9510   78.9780  223.6340 C   0  0  0  0  0  0  0  0  0  0  0  0
  142.0303   78.1204  222.9497 H   0  0  0  0  0  0  0  0  0  0  0  0
  142.3730   78.7341  224.6201 H   0  0  0  0  0  0  0  0  0  0  0  0
  140.4620   79.3330  223.8210 C   0  0  0  0  0  0  0  0  0  0  0  0
  139.8801   78.3995  223.8246 H   0  0  0  0  0  0  0  0  0  0  0  0
  140.3791   79.8826  224.7702 H   0  0  0  0  0  0  0  0  0  0  0  0
  139.9000   80.2540  222.7150 C   0  0  0  0  0  0  0  0  0  0  0  0
  138.8659   79.9524  222.4923 H   0  0  0  0  0  0  0  0  0  0  0  0
  139.9401   81.2906  223.0809 H   0  0  0  0  0  0  0  0  0  0  0  0
  142.5190   76.8690  219.3830 C   0  0  0  0  0  0  0  0  0  0  0  0
  143.5210   75.9020  219.2100 C   0  0  0  0  0  0  0  0  0  0  0  0
  144.3209   76.0679  218.4734 H   0  0  0  0  0  0  0  0  0  0  0  0
  143.5070   74.7300  219.9690 C   0  0  0  0  0  0  0  0  0  0  0  0
  144.3049   73.9838  219.8399 H   0  0  0  0  0  0  0  0  0  0  0  0
  142.4840   74.5020  220.8910 C   0  0  0  0  0  0  0  0  0  0  0  0
  142.4868   73.5814  221.4930 H   0  0  0  0  0  0  0  0  0  0  0  0
  141.4550   75.4360  221.0550 C   0  0  0  0  0  0  0  0  0  0  0  0
  140.4330   75.1480  221.9720 O   0  0  0  0  0  0  0  0  0  0  0  0
  139.3370   76.0120  222.2520 C   0  0  0  0  0  0  0  0  0  0  0  0
  139.2149   76.1083  223.3410 H   0  0  0  0  0  0  0  0  0  0  0  0
  139.5306   77.0030  221.8157 H   0  0  0  0  0  0  0  0  0  0  0  0
  138.4185   75.5924  221.8157 H   0  0  0  0  0  0  0  0  0  0  0  0
  141.4760   76.6240  220.2970 C   0  0  0  0  0  0  0  0  0  0  0  0
  140.6723   77.3649  220.4201 H   0  0  0  0  0  0  0  0  0  0  0  0
  1  2  1  0
  2  3  2  0
  3  4  1  0
  3  5  1  0
  5  6  2  0
  6  7  1  0
  7  8  2  0
  8  9  1  0
  8 10  1  0
 10 11  1  0
 10 12  2  0
 12 13  1  0
 12 14  1  0
 14 15  1  0
 14 16  2  0
 16 17  1  0
 17 18  2  0
 17 19  1  0
 19 20  1  0
 20 21  1  0
 20 22  1  0
 20 23  1  0
 23 24  1  0
 23 25  1  0
 25 26  1  0
 25 27  1  0
 25 28  1  0
 28 29  1  0
 28 30  1  0
 28 31  1  0
 31 32  1  0
 31 33  1  0
 31 34  1  0
 34 35  1  0
 34 36  1  0
 34 37  1  0
 37 38  1  0
 37 39  1  0
  2 40  1  0
 40 41  2  0
 41 42  1  0
 41 43  1  0
 43 44  1  0
 43 45  2  0
 45 46  1  0
 45 47  1  0
 47 48  1  0
 48 49  1  0
 49 50  1  0
 49 51  1  0
 49 52  1  0
 47 53  2  0
 53 54  1  0
 19  5  1  0
 37 23  1  0
 53 40  1  0
 16  7  1  0
M  END
>  <UniqueID>  (3) 
71

>  <SMILES>  (3) 
COc1cccc(/C=C/c2nc3ccccc3c(=O)n2CC2CCCCC2)c1

>  <Energy>  (3) 
71.5097539010311

>  <Genealogy>  (3) 
COc1cccc(/C=C/c2nc3ccccc3c(=O)n2CC2CCCCC2)c1 (cis-trans isomerization)
COc1cccc(/C=C/c2nc3ccccc3c(=O)n2CC2CCCCC2)c1 (3D coordinates assigned)
COc1cccc(/C=C/c2nc3ccccc3c(=O)n2CC2CCCCC2)c1 (nonaromatic ring conformer: 71.5097539010311 kcal/mol)

>  <smiles>  (3) 
COc1cccc(/C=C/c2nc3ccccc3c(=O)n2CC2CCCCC2)c1

>  <score_type>  (3) 
oracle

>  <origin>  (3) 
autodockgpu

>  <m_score__min__energy>  (3) 
-7.3499999999999996

>  <m_primary>  (3) 
energy

>  <meeko>  (3) 
{"free_energy": -6.65, "intermolecular_energy": -8.44, "internal_energy": -1.81, "cluster_size": 1, "cluster_id": 9, "rank_in_cluster": 1}

>  <energy>  (3) 
-7.1

>  <cluster_rmsd>  (3) 
1.0

>  <rmsd>  (3) 
270.19

>  <cluster>  (3) 
2

$$$$
SDBQQCBUKDXRSS-CCEZHUSRNA-N
     RDKit          3D

 54 57  0  0  0  0  0  0  0  0999 V2000
  143.8124   76.0822  218.0829 H   0  0  0  0  0  0  0  0  0  0  0  0
  143.6220   75.6470  219.0750 C   0  0  0  0  0  0  0  0  0  0  0  0
  142.6500   76.1710  219.8330 C   0  0  0  0  0  0  0  0  0  0  0  0
  142.6226   77.2584  219.9969 H   0  0  0  0  0  0  0  0  0  0  0  0
  141.6100   75.3170  220.4560 C   0  0  0  0  0  0  0  0  0  0  0  0
  141.8220   73.9740  220.4500 N   0  0  0  0  0  0  0  0  0  0  0  0
  140.9740   73.1100  221.0520 C   0  0  0  0  0  0  0  0  0  0  0  0
  141.2350   71.7350  221.0200 C   0  0  0  0  0  0  0  0  0  0  0  0
  142.1149   71.3551  220.4802 H   0  0  0  0  0  0  0  0  0  0  0  0
  140.3790   70.8450  221.6730 C   0  0  0  0  0  0  0  0  0  0  0  0
  140.5859   69.7649  221.6475 H   0  0  0  0  0  0  0  0  0  0  0  0
  139.2610   71.3250  222.3580 C   0  0  0  0  0  0  0  0  0  0  0  0
  138.5914   70.6230  222.8764 H   0  0  0  0  0  0  0  0  0  0  0  0
  138.9910   72.6980  222.3860 C   0  0  0  0  0  0  0  0  0  0  0  0
  138.1068   73.0721  222.9228 H   0  0  0  0  0  0  0  0  0  0  0  0
  139.8480   73.6020  221.7290 C   0  0  0  0  0  0  0  0  0  0  0  0
  139.6180   74.9870  221.7190 C   0  0  0  0  0  0  0  0  0  0  0  0
  138.6120   75.4480  222.3300 O   0  0  0  0  0  0  0  0  0  0  0  0
  140.4760   75.8370  221.0530 N   0  0  0  0  0  0  0  0  0  0  0  0
  140.1400   77.2830  220.9710 C   0  0  0  0  0  0  0  0  0  0  0  0
  140.1275   77.5761  219.9108 H   0  0  0  0  0  0  0  0  0  0  0  0
  139.1611   77.4115  221.4561 H   0  0  0  0  0  0  0  0  0  0  0  0
  141.1390   78.2040  221.7210 C   0  0  0  0  0  0  0  0  0  0  0  0
  142.0610   77.6066  221.7757 H   0  0  0  0  0  0  0  0  0  0  0  0
  141.4770   79.5080  220.9560 C   0  0  0  0  0  0  0  0  0  0  0  0
  142.1109   79.2521  220.0942 H   0  0  0  0  0  0  0  0  0  0  0  0
  140.5225   79.9615  220.6507 H   0  0  0  0  0  0  0  0  0  0  0  0
  142.2220   80.5520  221.8190 C   0  0  0  0  0  0  0  0  0  0  0  0
  143.0104   81.0152  221.2076 H   0  0  0  0  0  0  0  0  0  0  0  0
  141.4811   81.2912  222.1577 H   0  0  0  0  0  0  0  0  0  0  0  0
  142.8660   79.9400  223.0660 C   0  0  0  0  0  0  0  0  0  0  0  0
  143.6223   79.2050  222.7531 H   0  0  0  0  0  0  0  0  0  0  0  0
  143.3250   80.7514  223.6499 H   0  0  0  0  0  0  0  0  0  0  0  0
  141.8220   79.2360  223.9560 C   0  0  0  0  0  0  0  0  0  0  0  0
  142.3394   78.4833  224.5690 H   0  0  0  0  0  0  0  0  0  0  0  0
  141.3413   80.0156  224.5652 H   0  0  0  0  0  0  0  0  0  0  0  0
  140.7010   78.5300  223.1600 C   0  0  0  0  0  0  0  0  0  0  0  0
  140.4365   77.5932  223.6724 H   0  0  0  0  0  0  0  0  0  0  0  0
  139.8381   79.2103  223.1086 H   0  0  0  0  0  0  0  0  0  0  0  0
  144.4490   74.5050  219.5220 C   0  0  0  0  0  0  0  0  0  0  0  0
  144.9410   74.4950  220.8370 C   0  0  0  0  0  0  0  0  0  0  0  0
  144.7164   75.3338  221.5123 H   0  0  0  0  0  0  0  0  0  0  0  0
  145.7140   73.4250  221.2910 C   0  0  0  0  0  0  0  0  0  0  0  0
  146.0835   73.4168  222.3270 H   0  0  0  0  0  0  0  0  0  0  0  0
  146.0200   72.3650  220.4350 C   0  0  0  0  0  0  0  0  0  0  0  0
  146.6194   71.5198  220.8044 H   0  0  0  0  0  0  0  0  0  0  0  0
  145.5690   72.3710  219.1100 C   0  0  0  0  0  0  0  0  0  0  0  0
  145.9290   71.2980  218.2800 O   0  0  0  0  0  0  0  0  0  0  0  0
  145.5340   69.9480  218.4970 C   0  0  0  0  0  0  0  0  0  0  0  0
  145.4766   69.7520  219.5779 H   0  0  0  0  0  0  0  0  0  0  0  0
  144.5480   69.7765  218.0404 H   0  0  0  0  0  0  0  0  0  0  0  0
  146.2720   69.2721  218.0404 H   0  0  0  0  0  0  0  0  0  0  0  0
  144.7800   73.4460  218.6550 C   0  0  0  0  0  0  0  0  0  0  0  0
  144.4202   73.4581  217.6156 H   0  0  0  0  0  0  0  0  0  0  0  0
  1  2  1  0
  2  3  2  0
  3  4  1  0
  3  5  1  0
  5  6  2  0
  6  7  1  0
  7  8  2  0
  8  9  1  0
  8 10  1  0
 10 11  1  0
 10 12  2  0
 12 13  1  0
 12 14  1  0
 14 15  1  0
 14 16  2  0
 16 17  1  0
 17 18  2  0
 17 19  1  0
 19 20  1  0
 20 21  1  0
 20 22  1  0
 20 23  1  0
 23 24  1  0
 23 25  1  0
 25 26  1  0
 25 27  1  0
 25 28  1  0
 28 29  1  0
 28 30  1  0
 28 31  1  0
 31 32  1  0
 31 33  1  0
 31 34  1  0
 34 35  1  0
 34 36  1  0
 34 37  1  0
 37 38  1  0
 37 39  1  0
  2 40  1  0
 40 41  2  0
 41 42  1  0
 41 43  1  0
 43 44  1  0
 43 45  2  0
 45 46  1  0
 45 47  1  0
 47 48  1  0
 48 49  1  0
 49 50  1  0
 49 51  1  0
 49 52  1  0
 47 53  2  0
 53 54  1  0
 19  5  1  0
 37 23  1  0
 53 40  1  0
 16  7  1  0
M  END
>  <UniqueID>  (4) 
71

>  <SMILES>  (4) 
COc1cccc(/C=C/c2nc3ccccc3c(=O)n2CC2CCCCC2)c1

>  <Energy>  (4) 
71.5097539010311

>  <Genealogy>  (4) 
COc1cccc(/C=C/c2nc3ccccc3c(=O)n2CC2CCCCC2)c1 (cis-trans isomerization)
COc1cccc(/C=C/c2nc3ccccc3c(=O)n2CC2CCCCC2)c1 (3D coordinates assigned)
COc1cccc(/C=C/c2nc3ccccc3c(=O)n2CC2CCCCC2)c1 (nonaromatic ring conformer: 71.5097539010311 kcal/mol)

>  <smiles>  (4) 
COc1cccc(/C=C/c2nc3ccccc3c(=O)n2CC2CCCCC2)c1

>  <score_type>  (4) 
oracle

>  <origin>  (4) 
autodockgpu

>  <m_score__min__energy>  (4) 
-7.3499999999999996

>  <m_primary>  (4) 
energy

>  <meeko>  (4) 
{"free_energy": -7.04, "intermolecular_energy": -8.83, "internal_energy": -1.44, "cluster_size": 1, "cluster_id": 7, "rank_in_cluster": 1}

>  <energy>  (4) 
-7.31

>  <cluster_rmsd>  (4) 
0.0

>  <rmsd>  (4) 
270.37

>  <cluster>  (4) 
3

$$$$
SDBQQCBUKDXRSS-CCEZHUSRNA-N
     RDKit          3D

 54 57  0  0  0  0  0  0  0  0999 V2000
  137.7872   72.6353  222.1155 H   0  0  0  0  0  0  0  0  0  0  0  0
  138.8730   72.4750  222.0420 C   0  0  0  0  0  0  0  0  0  0  0  0
  139.3510   71.2310  222.1770 C   0  0  0  0  0  0  0  0  0  0  0  0
  139.5224   70.6199  221.2785 H   0  0  0  0  0  0  0  0  0  0  0  0
  139.6540   70.6600  223.5110 C   0  0  0  0  0  0  0  0  0  0  0  0
  140.2300   71.4840  224.4260 N   0  0  0  0  0  0  0  0  0  0  0  0
  140.4830   71.0860  225.6930 C   0  0  0  0  0  0  0  0  0  0  0  0
  141.0770   71.9720  226.6000 C   0  0  0  0  0  0  0  0  0  0  0  0
  141.3634   72.9827  226.2738 H   0  0  0  0  0  0  0  0  0  0  0  0
  141.3060   71.5730  227.9190 C   0  0  0  0  0  0  0  0  0  0  0  0
  141.7737   72.2697  228.6302 H   0  0  0  0  0  0  0  0  0  0  0  0
  140.9420   70.2910  228.3360 C   0  0  0  0  0  0  0  0  0  0  0  0
  141.1168   69.9817  229.3770 H   0  0  0  0  0  0  0  0  0  0  0  0
  140.3550   69.3990  227.4310 C   0  0  0  0  0  0  0  0  0  0  0  0
  140.0741   68.3881  227.7614 H   0  0  0  0  0  0  0  0  0  0  0  0
  140.1230   69.7920  226.0990 C   0  0  0  0  0  0  0  0  0  0  0  0
  139.5450   68.9340  225.1490 C   0  0  0  0  0  0  0  0  0  0  0  0
  139.2080   67.7670  225.5000 O   0  0  0  0  0  0  0  0  0  0  0  0
  139.3460   69.3540  223.8510 N   0  0  0  0  0  0  0  0  0  0  0  0
  138.8360   68.3830  222.8480 C   0  0  0  0  0  0  0  0  0  0  0  0
  139.1999   68.6868  221.8554 H   0  0  0  0  0  0  0  0  0  0  0  0
  139.2050   67.3908  223.1471 H   0  0  0  0  0  0  0  0  0  0  0  0
  137.2870   68.2910  222.7940 C   0  0  0  0  0  0  0  0  0  0  0  0
  137.0693   67.2696  223.1396 H   0  0  0  0  0  0  0  0  0  0  0  0
  136.5720   69.2690  223.7600 C   0  0  0  0  0  0  0  0  0  0  0  0
  136.7175   68.9105  224.7897 H   0  0  0  0  0  0  0  0  0  0  0  0
  137.0130   70.2639  223.5995 H   0  0  0  0  0  0  0  0  0  0  0  0
  135.0540   69.3950  223.4950 C   0  0  0  0  0  0  0  0  0  0  0  0
  134.5297   69.4259  224.4615 H   0  0  0  0  0  0  0  0  0  0  0  0
  134.8941   70.3158  222.9149 H   0  0  0  0  0  0  0  0  0  0  0  0
  134.4970   68.2290  222.6730 C   0  0  0  0  0  0  0  0  0  0  0  0
  134.6344   67.2955  223.2385 H   0  0  0  0  0  0  0  0  0  0  0  0
  133.4303   68.4195  222.4836 H   0  0  0  0  0  0  0  0  0  0  0  0
  135.2140   68.1010  221.3130 C   0  0  0  0  0  0  0  0  0  0  0  0
  135.1045   67.0654  220.9587 H   0  0  0  0  0  0  0  0  0  0  0  0
  134.7465   68.8286  220.6333 H   0  0  0  0  0  0  0  0  0  0  0  0
  136.7200   68.4400  221.3710 C   0  0  0  0  0  0  0  0  0  0  0  0
  137.2638   67.7603  220.6985 H   0  0  0  0  0  0  0  0  0  0  0  0
  136.8458   69.4881  221.0617 H   0  0  0  0  0  0  0  0  0  0  0  0
  139.7490   73.6410  221.7980 C   0  0  0  0  0  0  0  0  0  0  0  0
  140.9840   73.4430  221.1610 C   0  0  0  0  0  0  0  0  0  0  0  0
  141.2898   72.4295  220.8622 H   0  0  0  0  0  0  0  0  0  0  0  0
  141.8260   74.5270  220.9050 C   0  0  0  0  0  0  0  0  0  0  0  0
  142.7847   74.3664  220.3901 H   0  0  0  0  0  0  0  0  0  0  0  0
  141.4560   75.8140  221.3000 C   0  0  0  0  0  0  0  0  0  0  0  0
  142.1205   76.6638  221.0849 H   0  0  0  0  0  0  0  0  0  0  0  0
  140.2450   76.0300  221.9680 C   0  0  0  0  0  0  0  0  0  0  0  0
  139.9320   77.3370  222.3710 O   0  0  0  0  0  0  0  0  0  0  0  0
  140.8980   78.3260  222.7120 C   0  0  0  0  0  0  0  0  0  0  0  0
  140.9732   78.4030  223.8067 H   0  0  0  0  0  0  0  0  0  0  0  0
  141.8760   78.0419  222.2964 H   0  0  0  0  0  0  0  0  0  0  0  0
  140.5910   79.2971  222.2964 H   0  0  0  0  0  0  0  0  0  0  0  0
  139.3900   74.9380  222.2160 C   0  0  0  0  0  0  0  0  0  0  0  0
  138.4360   75.0989  222.7394 H   0  0  0  0  0  0  0  0  0  0  0  0
  1  2  1  0
  2  3  2  0
  3  4  1  0
  3  5  1  0
  5  6  2  0
  6  7  1  0
  7  8  2  0
  8  9  1  0
  8 10  1  0
 10 11  1  0
 10 12  2  0
 12 13  1  0
 12 14  1  0
 14 15  1  0
 14 16  2  0
 16 17  1  0
 17 18  2  0
 17 19  1  0
 19 20  1  0
 20 21  1  0
 20 22  1  0
 20 23  1  0
 23 24  1  0
 23 25  1  0
 25 26  1  0
 25 27  1  0
 25 28  1  0
 28 29  1  0
 28 30  1  0
 28 31  1  0
 31 32  1  0
 31 33  1  0
 31 34  1  0
 34 35  1  0
 34 36  1  0
 34 37  1  0
 37 38  1  0
 37 39  1  0
  2 40  1  0
 40 41  2  0
 41 42  1  0
 41 43  1  0
 43 44  1  0
 43 45  2  0
 45 46  1  0
 45 47  1  0
 47 48  1  0
 48 49  1  0
 49 50  1  0
 49 51  1  0
 49 52  1  0
 47 53  2  0
 53 54  1  0
 19  5  1  0
 37 23  1  0
 53 40  1  0
 16  7  1  0
M  END
>  <UniqueID>  (5) 
71

>  <SMILES>  (5) 
COc1cccc(/C=C/c2nc3ccccc3c(=O)n2CC2CCCCC2)c1

>  <Energy>  (5) 
71.5097539010311

>  <Genealogy>  (5) 
COc1cccc(/C=C/c2nc3ccccc3c(=O)n2CC2CCCCC2)c1 (cis-trans isomerization)
COc1cccc(/C=C/c2nc3ccccc3c(=O)n2CC2CCCCC2)c1 (3D coordinates assigned)
COc1cccc(/C=C/c2nc3ccccc3c(=O)n2CC2CCCCC2)c1 (nonaromatic ring conformer: 71.5097539010311 kcal/mol)

>  <smiles>  (5) 
COc1cccc(/C=C/c2nc3ccccc3c(=O)n2CC2CCCCC2)c1

>  <score_type>  (5) 
oracle

>  <origin>  (5) 
autodockgpu

>  <m_score__min__energy>  (5) 
-7.3499999999999996

>  <m_primary>  (5) 
energy

>  <meeko>  (5) 
{"free_energy": -7.08, "intermolecular_energy": -8.87, "internal_energy": -1.39, "cluster_size": 2, "cluster_id": 5, "rank_in_cluster": 1}

>  <energy>  (5) 
-7.11

>  <cluster_rmsd>  (5) 
0.25

>  <rmsd>  (5) 
270.4

>  <cluster>  (5) 
3

$$$$
SDBQQCBUKDXRSS-CCEZHUSRNA-N
     RDKit          3D

 54 57  0  0  0  0  0  0  0  0999 V2000
  138.8819   73.1967  221.3984 H   0  0  0  0  0  0  0  0  0  0  0  0
  139.7910   72.8740  221.9270 C   0  0  0  0  0  0  0  0  0  0  0  0
  140.9730   73.3590  221.5290 C   0  0  0  0  0  0  0  0  0  0  0  0
  141.8197   72.6698  221.3940 H   0  0  0  0  0  0  0  0  0  0  0  0
  141.1660   74.8060  221.2660 C   0  0  0  0  0  0  0  0  0  0  0  0
  140.6760   75.6770  222.1870 N   0  0  0  0  0  0  0  0  0  0  0  0
  140.8580   77.0120  222.0820 C   0  0  0  0  0  0  0  0  0  0  0  0
  140.3350   77.8700  223.0570 C   0  0  0  0  0  0  0  0  0  0  0  0
  139.7520   77.4595  223.8946 H   0  0  0  0  0  0  0  0  0  0  0  0
  140.5530   79.2470  222.9670 C   0  0  0  0  0  0  0  0  0  0  0  0
  140.1405   79.9196  223.7335 H   0  0  0  0  0  0  0  0  0  0  0  0
  141.2940   79.7710  221.9050 C   0  0  0  0  0  0  0  0  0  0  0  0
  141.4703   80.8548  221.8401 H   0  0  0  0  0  0  0  0  0  0  0  0
  141.8120   78.9190  220.9240 C   0  0  0  0  0  0  0  0  0  0  0  0
  142.3907   79.3355  220.0864 H   0  0  0  0  0  0  0  0  0  0  0  0
  141.5950   77.5290  221.0050 C   0  0  0  0  0  0  0  0  0  0  0  0
  142.0840   76.6310  220.0430 C   0  0  0  0  0  0  0  0  0  0  0  0
  142.7560   77.0790  219.0700 O   0  0  0  0  0  0  0  0  0  0  0  0
  141.8390   75.2800  220.1540 N   0  0  0  0  0  0  0  0  0  0  0  0
  142.2780   74.3740  219.0590 C   0  0  0  0  0  0  0  0  0  0  0  0
  141.4962   73.6164  218.9018 H   0  0  0  0  0  0  0  0  0  0  0  0
  142.4417   75.0021  218.1709 H   0  0  0  0  0  0  0  0  0  0  0  0
  143.6160   73.6430  219.3470 C   0  0  0  0  0  0  0  0  0  0  0  0
  144.1821   73.7473  218.4097 H   0  0  0  0  0  0  0  0  0  0  0  0
  144.4550   74.3010  220.4700 C   0  0  0  0  0  0  0  0  0  0  0  0
  144.8681   75.2461  220.0878 H   0  0  0  0  0  0  0  0  0  0  0  0
  143.7835   74.4560  221.3274 H   0  0  0  0  0  0  0  0  0  0  0  0
  145.6250   73.4190  220.9620 C   0  0  0  0  0  0  0  0  0  0  0  0
  146.5057   74.0590  221.1196 H   0  0  0  0  0  0  0  0  0  0  0  0
  145.3034   72.9313  221.8941 H   0  0  0  0  0  0  0  0  0  0  0  0
  145.9940   72.3150  219.9670 C   0  0  0  0  0  0  0  0  0  0  0  0
  146.3328   72.7787  219.0288 H   0  0  0  0  0  0  0  0  0  0  0  0
  146.7915   71.7025  220.4129 H   0  0  0  0  0  0  0  0  0  0  0  0
  144.7920   71.3970  219.6660 C   0  0  0  0  0  0  0  0  0  0  0  0
  144.9547   70.9212  218.6877 H   0  0  0  0  0  0  0  0  0  0  0  0
  144.7340   70.6642  220.4843 H   0  0  0  0  0  0  0  0  0  0  0  0
  143.4380   72.1400  219.6280 C   0  0  0  0  0  0  0  0  0  0  0  0
  142.8138   71.7015  218.8355 H   0  0  0  0  0  0  0  0  0  0  0  0
  142.9616   72.0314  220.6135 H   0  0  0  0  0  0  0  0  0  0  0  0
  139.6600   71.9210  223.0500 C   0  0  0  0  0  0  0  0  0  0  0  0
  138.6140   70.9850  223.0310 C   0  0  0  0  0  0  0  0  0  0  0  0
  137.9024   70.9769  222.1922 H   0  0  0  0  0  0  0  0  0  0  0  0
  138.4720   70.0650  224.0700 C   0  0  0  0  0  0  0  0  0  0  0  0
  137.6582   69.3255  224.0402 H   0  0  0  0  0  0  0  0  0  0  0  0
  139.3600   70.0800  225.1480 C   0  0  0  0  0  0  0  0  0  0  0  0
  139.2495   69.3429  225.9570 H   0  0  0  0  0  0  0  0  0  0  0  0
  140.3890   71.0260  225.2060 C   0  0  0  0  0  0  0  0  0  0  0  0
  141.2360   71.0200  226.3250 O   0  0  0  0  0  0  0  0  0  0  0  0
  141.0750   71.8660  227.4590 C   0  0  0  0  0  0  0  0  0  0  0  0
  141.1879   71.2725  228.3782 H   0  0  0  0  0  0  0  0  0  0  0  0
  141.8386   72.6574  227.4374 H   0  0  0  0  0  0  0  0  0  0  0  0
  140.0740   72.3216  227.4374 H   0  0  0  0  0  0  0  0  0  0  0  0
  140.5380   71.9480  224.1510 C   0  0  0  0  0  0  0  0  0  0  0  0
  141.3455   72.6940  224.1875 H   0  0  0  0  0  0  0  0  0  0  0  0
  1  2  1  0
  2  3  2  0
  3  4  1  0
  3  5  1  0
  5  6  2  0
  6  7  1  0
  7  8  2  0
  8  9  1  0
  8 10  1  0
 10 11  1  0
 10 12  2  0
 12 13  1  0
 12 14  1  0
 14 15  1  0
 14 16  2  0
 16 17  1  0
 17 18  2  0
 17 19  1  0
 19 20  1  0
 20 21  1  0
 20 22  1  0
 20 23  1  0
 23 24  1  0
 23 25  1  0
 25 26  1  0
 25 27  1  0
 25 28  1  0
 28 29  1  0
 28 30  1  0
 28 31  1  0
 31 32  1  0
 31 33  1  0
 31 34  1  0
 34 35  1  0
 34 36  1  0
 34 37  1  0
 37 38  1  0
 37 39  1  0
  2 40  1  0
 40 41  2  0
 41 42  1  0
 41 43  1  0
 43 44  1  0
 43 45  2  0
 45 46  1  0
 45 47  1  0
 47 48  1  0
 48 49  1  0
 49 50  1  0
 49 51  1  0
 49 52  1  0
 47 53  2  0
 53 54  1  0
 19  5  1  0
 37 23  1  0
 53 40  1  0
 16  7  1  0
M  END
>  <UniqueID>  (6) 
71

>  <SMILES>  (6) 
COc1cccc(/C=C/c2nc3ccccc3c(=O)n2CC2CCCCC2)c1

>  <Energy>  (6) 
71.5097539010311

>  <Genealogy>  (6) 
COc1cccc(/C=C/c2nc3ccccc3c(=O)n2CC2CCCCC2)c1 (cis-trans isomerization)
COc1cccc(/C=C/c2nc3ccccc3c(=O)n2CC2CCCCC2)c1 (3D coordinates assigned)
COc1cccc(/C=C/c2nc3ccccc3c(=O)n2CC2CCCCC2)c1 (nonaromatic ring conformer: 71.5097539010311 kcal/mol)

>  <smiles>  (6) 
COc1cccc(/C=C/c2nc3ccccc3c(=O)n2CC2CCCCC2)c1

>  <score_type>  (6) 
oracle

>  <origin>  (6) 
autodockgpu

>  <m_score__min__energy>  (6) 
-7.3499999999999996

>  <m_primary>  (6) 
energy

>  <meeko>  (6) 
{"free_energy": -7.18, "intermolecular_energy": -8.97, "internal_energy": -1.3, "cluster_size": 2, "cluster_id": 4, "rank_in_cluster": 1}

>  <energy>  (6) 
-6.99

>  <cluster_rmsd>  (6) 
1.53

>  <rmsd>  (6) 
270.65

>  <cluster>  (6) 
3

$$$$
SDBQQCBUKDXRSS-CCEZHUSRNA-N
     RDKit          3D

 54 57  0  0  0  0  0  0  0  0999 V2000
  137.0134   73.0250  222.5767 H   0  0  0  0  0  0  0  0  0  0  0  0
  136.9610   72.1120  223.1880 C   0  0  0  0  0  0  0  0  0  0  0  0
  137.8510   71.1370  222.9670 C   0  0  0  0  0  0  0  0  0  0  0  0
  138.0368   70.8017  221.9360 H   0  0  0  0  0  0  0  0  0  0  0  0
  138.5920   70.4990  224.0820 C   0  0  0  0  0  0  0  0  0  0  0  0
  139.3060   71.3140  224.9020 N   0  0  0  0  0  0  0  0  0  0  0  0
  139.9600   70.8470  225.9890 C   0  0  0  0  0  0  0  0  0  0  0  0
  140.6830   71.7260  226.8050 C   0  0  0  0  0  0  0  0  0  0  0  0
  140.7423   72.7933  226.5455 H   0  0  0  0  0  0  0  0  0  0  0  0
  141.3290   71.2490  227.9480 C   0  0  0  0  0  0  0  0  0  0  0  0
  141.8964   71.9409  228.5877 H   0  0  0  0  0  0  0  0  0  0  0  0
  141.2550   69.8950  228.2790 C   0  0  0  0  0  0  0  0  0  0  0  0
  141.7589   69.5227  229.1831 H   0  0  0  0  0  0  0  0  0  0  0  0
  140.5410   69.0100  227.4630 C   0  0  0  0  0  0  0  0  0  0  0  0
  140.4891   67.9429  227.7248 H   0  0  0  0  0  0  0  0  0  0  0  0
  139.8890   69.4820  226.3080 C   0  0  0  0  0  0  0  0  0  0  0  0
  139.1670   68.6360  225.4500 C   0  0  0  0  0  0  0  0  0  0  0  0
  139.0860   67.4050  225.7260 O   0  0  0  0  0  0  0  0  0  0  0  0
  138.5530   69.1370  224.3220 N   0  0  0  0  0  0  0  0  0  0  0  0
  137.8930   68.1940  223.3810 C   0  0  0  0  0  0  0  0  0  0  0  0
  137.4851   67.3537  223.9619 H   0  0  0  0  0  0  0  0  0  0  0  0
  137.1117   68.7621  222.8549 H   0  0  0  0  0  0  0  0  0  0  0  0
  138.8430   67.6220  222.2950 C   0  0  0  0  0  0  0  0  0  0  0  0
  139.7517   67.3504  222.8521 H   0  0  0  0  0  0  0  0  0  0  0  0
  138.3120   66.3330  221.6210 C   0  0  0  0  0  0  0  0  0  0  0  0
  138.3811   65.5075  222.3447 H   0  0  0  0  0  0  0  0  0  0  0  0
  137.2747   66.5316  221.3136 H   0  0  0  0  0  0  0  0  0  0  0  0
  139.0960   65.9360  220.3490 C   0  0  0  0  0  0  0  0  0  0  0  0
  139.2327   64.8445  220.3466 H   0  0  0  0  0  0  0  0  0  0  0  0
  138.5126   66.2758  219.4806 H   0  0  0  0  0  0  0  0  0  0  0  0
  140.4730   66.6020  220.2690 C   0  0  0  0  0  0  0  0  0  0  0  0
  141.0820   66.2667  221.1215 H   0  0  0  0  0  0  0  0  0  0  0  0
  140.9401   66.3139  219.3157 H   0  0  0  0  0  0  0  0  0  0  0  0
  140.3620   68.1390  220.3070 C   0  0  0  0  0  0  0  0  0  0  0  0
  141.3182   68.5472  220.6662 H   0  0  0  0  0  0  0  0  0  0  0  0
  140.1214   68.4687  219.2855 H   0  0  0  0  0  0  0  0  0  0  0  0
  139.2340   68.6590  221.2260 C   0  0  0  0  0  0  0  0  0  0  0  0
  139.5778   69.5754  221.7280 H   0  0  0  0  0  0  0  0  0  0  0  0
  138.3496   68.8574  220.6027 H   0  0  0  0  0  0  0  0  0  0  0  0
  135.9090   72.0080  224.2240 C   0  0  0  0  0  0  0  0  0  0  0  0
  135.4640   70.7360  224.6160 C   0  0  0  0  0  0  0  0  0  0  0  0
  135.8909   69.8379  224.1458 H   0  0  0  0  0  0  0  0  0  0  0  0
  134.4820   70.6050  225.6000 C   0  0  0  0  0  0  0  0  0  0  0  0
  134.1493   69.6043  225.9130 H   0  0  0  0  0  0  0  0  0  0  0  0
  133.9210   71.7410  226.1880 C   0  0  0  0  0  0  0  0  0  0  0  0
  133.1564   71.6297  226.9709 H   0  0  0  0  0  0  0  0  0  0  0  0
  134.3250   73.0200  225.7880 C   0  0  0  0  0  0  0  0  0  0  0  0
  133.7100   74.1300  226.3870 O   0  0  0  0  0  0  0  0  0  0  0  0
  134.2760   75.4360  226.4290 C   0  0  0  0  0  0  0  0  0  0  0  0
  134.4096   75.7442  227.4765 H   0  0  0  0  0  0  0  0  0  0  0  0
  135.2519   75.4292  225.9215 H   0  0  0  0  0  0  0  0  0  0  0  0
  133.6037   76.1435  225.9215 H   0  0  0  0  0  0  0  0  0  0  0  0
  135.3240   73.1510  224.8030 C   0  0  0  0  0  0  0  0  0  0  0  0
  135.6491   74.1523  224.4842 H   0  0  0  0  0  0  0  0  0  0  0  0
  1  2  1  0
  2  3  2  0
  3  4  1  0
  3  5  1  0
  5  6  2  0
  6  7  1  0
  7  8  2  0
  8  9  1  0
  8 10  1  0
 10 11  1  0
 10 12  2  0
 12 13  1  0
 12 14  1  0
 14 15  1  0
 14 16  2  0
 16 17  1  0
 17 18  2  0
 17 19  1  0
 19 20  1  0
 20 21  1  0
 20 22  1  0
 20 23  1  0
 23 24  1  0
 23 25  1  0
 25 26  1  0
 25 27  1  0
 25 28  1  0
 28 29  1  0
 28 30  1  0
 28 31  1  0
 31 32  1  0
 31 33  1  0
 31 34  1  0
 34 35  1  0
 34 36  1  0
 34 37  1  0
 37 38  1  0
 37 39  1  0
  2 40  1  0
 40 41  2  0
 41 42  1  0
 41 43  1  0
 43 44  1  0
 43 45  2  0
 45 46  1  0
 45 47  1  0
 47 48  1  0
 48 49  1  0
 49 50  1  0
 49 51  1  0
 49 52  1  0
 47 53  2  0
 53 54  1  0
 19  5  1  0
 37 23  1  0
 53 40  1  0
 16  7  1  0
M  END
>  <UniqueID>  (7) 
71

>  <SMILES>  (7) 
COc1cccc(/C=C/c2nc3ccccc3c(=O)n2CC2CCCCC2)c1

>  <Energy>  (7) 
71.5097539010311

>  <Genealogy>  (7) 
COc1cccc(/C=C/c2nc3ccccc3c(=O)n2CC2CCCCC2)c1 (cis-trans isomerization)
COc1cccc(/C=C/c2nc3ccccc3c(=O)n2CC2CCCCC2)c1 (3D coordinates assigned)
COc1cccc(/C=C/c2nc3ccccc3c(=O)n2CC2CCCCC2)c1 (nonaromatic ring conformer: 71.5097539010311 kcal/mol)

>  <smiles>  (7) 
COc1cccc(/C=C/c2nc3ccccc3c(=O)n2CC2CCCCC2)c1

>  <score_type>  (7) 
oracle

>  <origin>  (7) 
autodockgpu

>  <m_score__min__energy>  (7) 
-7.3499999999999996

>  <m_primary>  (7) 
energy

>  <meeko>  (7) 
{"free_energy": -7.1, "intermolecular_energy": -8.89, "internal_energy": -1.48, "cluster_size": 2, "cluster_id": 2, "rank_in_cluster": 2}

>  <energy>  (7) 
-7.18

>  <cluster_rmsd>  (7) 
0.0

>  <rmsd>  (7) 
271.02

>  <cluster>  (7) 
4

$$$$
SDBQQCBUKDXRSS-CCEZHUSRNA-N
     RDKit          3D

 54 57  0  0  0  0  0  0  0  0999 V2000
  140.3833   70.7882  220.7421 H   0  0  0  0  0  0  0  0  0  0  0  0
  139.9900   71.5260  221.4570 C   0  0  0  0  0  0  0  0  0  0  0  0
  139.0580   71.1380  222.3360 C   0  0  0  0  0  0  0  0  0  0  0  0
  137.9964   71.3125  222.1069 H   0  0  0  0  0  0  0  0  0  0  0  0
  139.4260   70.4780  223.6120 C   0  0  0  0  0  0  0  0  0  0  0  0
  139.9500   71.2630  224.5910 N   0  0  0  0  0  0  0  0  0  0  0  0
  140.2550   70.7790  225.8150 C   0  0  0  0  0  0  0  0  0  0  0  0
  140.7920   71.6270  226.7910 C   0  0  0  0  0  0  0  0  0  0  0  0
  140.9929   72.6818  226.5521 H   0  0  0  0  0  0  0  0  0  0  0  0
  141.0730   71.1350  228.0680 C   0  0  0  0  0  0  0  0  0  0  0  0
  141.4946   71.8027  228.8338 H   0  0  0  0  0  0  0  0  0  0  0  0
  140.8190   69.7960  228.3730 C   0  0  0  0  0  0  0  0  0  0  0  0
  141.0362   69.4120  229.3807 H   0  0  0  0  0  0  0  0  0  0  0  0
  140.2890   68.9420  227.4000 C   0  0  0  0  0  0  0  0  0  0  0  0
  140.0935   67.8873  227.6436 H   0  0  0  0  0  0  0  0  0  0  0  0
  140.0050   69.4290  226.1090 C   0  0  0  0  0  0  0  0  0  0  0  0
  139.4820   68.6140  225.0930 C   0  0  0  0  0  0  0  0  0  0  0  0
  139.2440   67.3980  225.3430 O   0  0  0  0  0  0  0  0  0  0  0  0
  139.2290   69.1280  223.8390 N   0  0  0  0  0  0  0  0  0  0  0  0
  138.7810   68.2090  222.7590 C   0  0  0  0  0  0  0  0  0  0  0  0
  139.3493   68.4431  221.8467 H   0  0  0  0  0  0  0  0  0  0  0  0
  138.9605   67.1841  223.1160 H   0  0  0  0  0  0  0  0  0  0  0  0
  137.2670   68.3150  222.4330 C   0  0  0  0  0  0  0  0  0  0  0  0
  137.2254   69.0239  221.5930 H   0  0  0  0  0  0  0  0  0  0  0  0
  136.6410   66.9840  221.9470 C   0  0  0  0  0  0  0  0  0  0  0  0
  137.0094   66.7759  220.9316 H   0  0  0  0  0  0  0  0  0  0  0  0
  136.9371   66.2051  222.6651 H   0  0  0  0  0  0  0  0  0  0  0  0
  135.0950   67.0080  221.9120 C   0  0  0  0  0  0  0  0  0  0  0  0
  134.7560   66.4954  220.9997 H   0  0  0  0  0  0  0  0  0  0  0  0
  134.7351   66.5036  222.8209 H   0  0  0  0  0  0  0  0  0  0  0  0
  134.5240   68.4280  221.9160 C   0  0  0  0  0  0  0  0  0  0  0  0
  134.8605   68.9507  221.0085 H   0  0  0  0  0  0  0  0  0  0  0  0
  133.4266   68.3576  221.9446 H   0  0  0  0  0  0  0  0  0  0  0  0
  134.9890   69.2230  223.1530 C   0  0  0  0  0  0  0  0  0  0  0  0
  134.9262   70.2962  222.9200 H   0  0  0  0  0  0  0  0  0  0  0  0
  134.3309   68.9355  223.9862 H   0  0  0  0  0  0  0  0  0  0  0  0
  136.4370   68.9020  223.5890 C   0  0  0  0  0  0  0  0  0  0  0  0
  136.9173   69.8283  223.9373 H   0  0  0  0  0  0  0  0  0  0  0  0
  136.3931   68.1522  224.3926 H   0  0  0  0  0  0  0  0  0  0  0  0
  140.5110   72.9100  221.4110 C   0  0  0  0  0  0  0  0  0  0  0  0
  139.7090   73.9560  221.8950 C   0  0  0  0  0  0  0  0  0  0  0  0
  138.7061   73.7385  222.2911 H   0  0  0  0  0  0  0  0  0  0  0  0
  140.1780   75.2700  221.8760 C   0  0  0  0  0  0  0  0  0  0  0  0
  139.5494   76.0820  222.2703 H   0  0  0  0  0  0  0  0  0  0  0  0
  141.4430   75.5580  221.3580 C   0  0  0  0  0  0  0  0  0  0  0  0
  141.8106   76.5948  221.3587 H   0  0  0  0  0  0  0  0  0  0  0  0
  142.2460   74.5360  220.8380 C   0  0  0  0  0  0  0  0  0  0  0  0
  143.4950   74.8800  220.3010 O   0  0  0  0  0  0  0  0  0  0  0  0
  144.6850   74.1180  220.4820 C   0  0  0  0  0  0  0  0  0  0  0  0
  144.8803   73.9929  221.5573 H   0  0  0  0  0  0  0  0  0  0  0  0
  144.5624   73.1300  220.0142 H   0  0  0  0  0  0  0  0  0  0  0  0
  145.5311   74.6427  220.0142 H   0  0  0  0  0  0  0  0  0  0  0  0
  141.7760   73.2080  220.8680 C   0  0  0  0  0  0  0  0  0  0  0  0
  142.4015   72.3981  220.4644 H   0  0  0  0  0  0  0  0  0  0  0  0
  1  2  1  0
  2  3  2  0
  3  4  1  0
  3  5  1  0
  5  6  2  0
  6  7  1  0
  7  8  2  0
  8  9  1  0
  8 10  1  0
 10 11  1  0
 10 12  2  0
 12 13  1  0
 12 14  1  0
 14 15  1  0
 14 16  2  0
 16 17  1  0
 17 18  2  0
 17 19  1  0
 19 20  1  0
 20 21  1  0
 20 22  1  0
 20 23  1  0
 23 24  1  0
 23 25  1  0
 25 26  1  0
 25 27  1  0
 25 28  1  0
 28 29  1  0
 28 30  1  0
 28 31  1  0
 31 32  1  0
 31 33  1  0
 31 34  1  0
 34 35  1  0
 34 36  1  0
 34 37  1  0
 37 38  1  0
 37 39  1  0
  2 40  1  0
 40 41  2  0
 41 42  1  0
 41 43  1  0
 43 44  1  0
 43 45  2  0
 45 46  1  0
 45 47  1  0
 47 48  1  0
 48 49  1  0
 49 50  1  0
 49 51  1  0
 49 52  1  0
 47 53  2  0
 53 54  1  0
 19  5  1  0
 37 23  1  0
 53 40  1  0
 16  7  1  0
M  END
>  <UniqueID>  (8) 
71

>  <SMILES>  (8) 
COc1cccc(/C=C/c2nc3ccccc3c(=O)n2CC2CCCCC2)c1

>  <Energy>  (8) 
71.5097539010311

>  <Genealogy>  (8) 
COc1cccc(/C=C/c2nc3ccccc3c(=O)n2CC2CCCCC2)c1 (cis-trans isomerization)
COc1cccc(/C=C/c2nc3ccccc3c(=O)n2CC2CCCCC2)c1 (3D coordinates assigned)
COc1cccc(/C=C/c2nc3ccccc3c(=O)n2CC2CCCCC2)c1 (nonaromatic ring conformer: 71.5097539010311 kcal/mol)

>  <smiles>  (8) 
COc1cccc(/C=C/c2nc3ccccc3c(=O)n2CC2CCCCC2)c1

>  <score_type>  (8) 
oracle

>  <origin>  (8) 
autodockgpu

>  <m_score__min__energy>  (8) 
-7.3499999999999996

>  <m_primary>  (8) 
energy

>  <meeko>  (8) 
{"free_energy": -7.03, "intermolecular_energy": -8.82, "internal_energy": -1.3, "cluster_size": 2, "cluster_id": 5, "rank_in_cluster": 2}

>  <energy>  (8) 
-7.11

>  <cluster_rmsd>  (8) 
0.74

>  <rmsd>  (8) 
271.14

>  <cluster>  (8) 
4

$$$$
SDBQQCBUKDXRSS-CCEZHUSRNA-N
     RDKit          3D

 54 57  0  0  0  0  0  0  0  0999 V2000
  135.6854   69.8461  222.3378 H   0  0  0  0  0  0  0  0  0  0  0  0
  136.0610   69.6670  223.3560 C   0  0  0  0  0  0  0  0  0  0  0  0
  137.2110   69.0000  223.5090 C   0  0  0  0  0  0  0  0  0  0  0  0
  137.4138   68.1237  222.8758 H   0  0  0  0  0  0  0  0  0  0  0  0
  138.2180   69.4180  224.5150 C   0  0  0  0  0  0  0  0  0  0  0  0
  138.4440   68.5760  225.5580 N   0  0  0  0  0  0  0  0  0  0  0  0
  139.3880   68.8250  226.4920 C   0  0  0  0  0  0  0  0  0  0  0  0
  139.5840   67.9270  227.5480 C   0  0  0  0  0  0  0  0  0  0  0  0
  138.9494   67.0326  227.6338 H   0  0  0  0  0  0  0  0  0  0  0  0
  140.5850   68.1660  228.4930 C   0  0  0  0  0  0  0  0  0  0  0  0
  140.7382   67.4589  229.3216 H   0  0  0  0  0  0  0  0  0  0  0  0
  141.3910   69.3010  228.3870 C   0  0  0  0  0  0  0  0  0  0  0  0
  142.1814   69.4845  229.1297 H   0  0  0  0  0  0  0  0  0  0  0  0
  141.1950   70.2060  227.3370 C   0  0  0  0  0  0  0  0  0  0  0  0
  141.8300   71.1008  227.2584 H   0  0  0  0  0  0  0  0  0  0  0  0
  140.1870   69.9740  226.3810 C   0  0  0  0  0  0  0  0  0  0  0  0
  139.9410   70.8540  225.3150 C   0  0  0  0  0  0  0  0  0  0  0  0
  140.6560   71.8890  225.1970 O   0  0  0  0  0  0  0  0  0  0  0  0
  138.9370   70.5950  224.4070 N   0  0  0  0  0  0  0  0  0  0  0  0
  138.6350   71.6050  223.3580 C   0  0  0  0  0  0  0  0  0  0  0  0
  137.8818   71.1824  222.6767 H   0  0  0  0  0  0  0  0  0  0  0  0
  138.2765   72.5067  223.8761 H   0  0  0  0  0  0  0  0  0  0  0  0
  139.8710   72.0280  222.5190 C   0  0  0  0  0  0  0  0  0  0  0  0
  140.6899   72.0676  223.2524 H   0  0  0  0  0  0  0  0  0  0  0  0
  140.2700   70.9950  221.4360 C   0  0  0  0  0  0  0  0  0  0  0  0
  140.7083   70.1183  221.9352 H   0  0  0  0  0  0  0  0  0  0  0  0
  139.3572   70.7422  220.8767 H   0  0  0  0  0  0  0  0  0  0  0  0
  141.2940   71.5400  220.4150 C   0  0  0  0  0  0  0  0  0  0  0  0
  142.0321   70.7524  220.2030 H   0  0  0  0  0  0  0  0  0  0  0  0
  140.7378   71.8320  219.5120 H   0  0  0  0  0  0  0  0  0  0  0  0
  142.0340   72.7800  220.9210 C   0  0  0  0  0  0  0  0  0  0  0  0
  142.6095   72.5107  221.8189 H   0  0  0  0  0  0  0  0  0  0  0  0
  142.6992   73.1346  220.1200 H   0  0  0  0  0  0  0  0  0  0  0  0
  141.0560   73.9190  221.2760 C   0  0  0  0  0  0  0  0  0  0  0  0
  141.5482   74.5869  221.9983 H   0  0  0  0  0  0  0  0  0  0  0  0
  140.8036   74.4309  220.3357 H   0  0  0  0  0  0  0  0  0  0  0  0
  139.7280   73.4270  221.8930 C   0  0  0  0  0  0  0  0  0  0  0  0
  139.4141   74.1357  222.6735 H   0  0  0  0  0  0  0  0  0  0  0  0
  138.9797   73.3665  221.0891 H   0  0  0  0  0  0  0  0  0  0  0  0
  135.2750   70.1730  224.5030 C   0  0  0  0  0  0  0  0  0  0  0  0
  134.6500   69.2520  225.3580 C   0  0  0  0  0  0  0  0  0  0  0  0
  134.7409   68.1735  225.1614 H   0  0  0  0  0  0  0  0  0  0  0  0
  133.9140   69.6980  226.4560 C   0  0  0  0  0  0  0  0  0  0  0  0
  133.4405   68.9695  227.1306 H   0  0  0  0  0  0  0  0  0  0  0  0
  133.7760   71.0660  226.7020 C   0  0  0  0  0  0  0  0  0  0  0  0
  133.2033   71.4091  227.5762 H   0  0  0  0  0  0  0  0  0  0  0  0
  134.3620   72.0030  225.8430 C   0  0  0  0  0  0  0  0  0  0  0  0
  134.1700   73.3660  226.1140 O   0  0  0  0  0  0  0  0  0  0  0  0
  134.5910   74.4230  225.2580 C   0  0  0  0  0  0  0  0  0  0  0  0
  134.9301   75.2744  225.8663 H   0  0  0  0  0  0  0  0  0  0  0  0
  135.4185   74.0732  224.6232 H   0  0  0  0  0  0  0  0  0  0  0  0
  133.7497   74.7379  224.6232 H   0  0  0  0  0  0  0  0  0  0  0  0
  135.1150   71.5520  224.7410 C   0  0  0  0  0  0  0  0  0  0  0  0
  135.5809   72.2814  224.0621 H   0  0  0  0  0  0  0  0  0  0  0  0
  1  2  1  0
  2  3  2  0
  3  4  1  0
  3  5  1  0
  5  6  2  0
  6  7  1  0
  7  8  2  0
  8  9  1  0
  8 10  1  0
 10 11  1  0
 10 12  2  0
 12 13  1  0
 12 14  1  0
 14 15  1  0
 14 16  2  0
 16 17  1  0
 17 18  2  0
 17 19  1  0
 19 20  1  0
 20 21  1  0
 20 22  1  0
 20 23  1  0
 23 24  1  0
 23 25  1  0
 25 26  1  0
 25 27  1  0
 25 28  1  0
 28 29  1  0
 28 30  1  0
 28 31  1  0
 31 32  1  0
 31 33  1  0
 31 34  1  0
 34 35  1  0
 34 36  1  0
 34 37  1  0
 37 38  1  0
 37 39  1  0
  2 40  1  0
 40 41  2  0
 41 42  1  0
 41 43  1  0
 43 44  1  0
 43 45  2  0
 45 46  1  0
 45 47  1  0
 47 48  1  0
 48 49  1  0
 49 50  1  0
 49 51  1  0
 49 52  1  0
 47 53  2  0
 53 54  1  0
 19  5  1  0
 37 23  1  0
 53 40  1  0
 16  7  1  0
M  END
>  <UniqueID>  (9) 
71

>  <SMILES>  (9) 
COc1cccc(/C=C/c2nc3ccccc3c(=O)n2CC2CCCCC2)c1

>  <Energy>  (9) 
71.5097539010311

>  <Genealogy>  (9) 
COc1cccc(/C=C/c2nc3ccccc3c(=O)n2CC2CCCCC2)c1 (cis-trans isomerization)
COc1cccc(/C=C/c2nc3ccccc3c(=O)n2CC2CCCCC2)c1 (3D coordinates assigned)
COc1cccc(/C=C/c2nc3ccccc3c(=O)n2CC2CCCCC2)c1 (nonaromatic ring conformer: 71.5097539010311 kcal/mol)

>  <smiles>  (9) 
COc1cccc(/C=C/c2nc3ccccc3c(=O)n2CC2CCCCC2)c1

>  <score_type>  (9) 
oracle

>  <origin>  (9) 
autodockgpu

>  <m_score__min__energy>  (9) 
-7.3499999999999996

>  <m_primary>  (9) 
energy

>  <meeko>  (9) 
{"free_energy": -6.99, "intermolecular_energy": -8.78, "internal_energy": -1.43, "cluster_size": 3, "cluster_id": 3, "rank_in_cluster": 3}

>  <energy>  (9) 
-7.08

>  <cluster_rmsd>  (9) 
0.0

>  <rmsd>  (9) 
270.38

>  <cluster>  (9) 
5

$$$$
SDBQQCBUKDXRSS-CCEZHUSRNA-N
     RDKit          3D

 54 57  0  0  0  0  0  0  0  0999 V2000
  143.9018   79.7090  222.7739 H   0  0  0  0  0  0  0  0  0  0  0  0
  142.8050   79.7850  222.7400 C   0  0  0  0  0  0  0  0  0  0  0  0
  142.0780   78.9730  223.5190 C   0  0  0  0  0  0  0  0  0  0  0  0
  142.5861   78.3516  224.2711 H   0  0  0  0  0  0  0  0  0  0  0  0
  140.6030   78.8940  223.3890 C   0  0  0  0  0  0  0  0  0  0  0  0
  139.8690   79.8300  224.0460 N   0  0  0  0  0  0  0  0  0  0  0  0
  138.5230   79.8920  223.9400 C   0  0  0  0  0  0  0  0  0  0  0  0
  137.8090   80.8760  224.6360 C   0  0  0  0  0  0  0  0  0  0  0  0
  138.3413   81.5807  225.2918 H   0  0  0  0  0  0  0  0  0  0  0  0
  136.4220   80.9630  224.4980 C   0  0  0  0  0  0  0  0  0  0  0  0
  135.8628   81.7357  225.0460 H   0  0  0  0  0  0  0  0  0  0  0  0
  135.7440   80.0700  223.6650 C   0  0  0  0  0  0  0  0  0  0  0  0
  134.6524   80.1452  223.5521 H   0  0  0  0  0  0  0  0  0  0  0  0
  136.4510   79.0800  222.9740 C   0  0  0  0  0  0  0  0  0  0  0  0
  135.9130   78.3747  222.3235 H   0  0  0  0  0  0  0  0  0  0  0  0
  137.8500   78.9840  223.1090 C   0  0  0  0  0  0  0  0  0  0  0  0
  138.6060   78.0040  222.4450 C   0  0  0  0  0  0  0  0  0  0  0  0
  138.0170   77.1830  221.6870 O   0  0  0  0  0  0  0  0  0  0  0  0
  139.9720   77.9370  222.6140 N   0  0  0  0  0  0  0  0  0  0  0  0
  140.7230   76.8200  221.9830 C   0  0  0  0  0  0  0  0  0  0  0  0
  141.4888   76.4733  222.6925 H   0  0  0  0  0  0  0  0  0  0  0  0
  139.9879   76.0388  221.7394 H   0  0  0  0  0  0  0  0  0  0  0  0
  141.4270   77.2060  220.6540 C   0  0  0  0  0  0  0  0  0  0  0  0
  142.0632   78.0605  220.9281 H   0  0  0  0  0  0  0  0  0  0  0  0
  142.3560   76.1000  220.0980 C   0  0  0  0  0  0  0  0  0  0  0  0
  143.2477   76.0392  220.7392 H   0  0  0  0  0  0  0  0  0  0  0  0
  141.7794   75.1632  220.0962 H   0  0  0  0  0  0  0  0  0  0  0  0
  142.8150   76.3550  218.6440 C   0  0  0  0  0  0  0  0  0  0  0  0
  143.8773   76.0827  218.5577 H   0  0  0  0  0  0  0  0  0  0  0  0
  142.1826   75.7428  217.9843 H   0  0  0  0  0  0  0  0  0  0  0  0
  142.6480   77.8160  218.2180 C   0  0  0  0  0  0  0  0  0  0  0  0
  143.2824   78.4486  218.8562 H   0  0  0  0  0  0  0  0  0  0  0  0
  142.9431   77.9022  217.1618 H   0  0  0  0  0  0  0  0  0  0  0  0
  141.1840   78.2820  218.3490 C   0  0  0  0  0  0  0  0  0  0  0  0
  141.1757   79.3774  218.4492 H   0  0  0  0  0  0  0  0  0  0  0  0
  140.6553   77.9395  217.4473 H   0  0  0  0  0  0  0  0  0  0  0  0
  140.4460   77.6750  219.5640 C   0  0  0  0  0  0  0  0  0  0  0  0
  139.7771   78.4367  219.9910 H   0  0  0  0  0  0  0  0  0  0  0  0
  139.8779   76.7996  219.2162 H   0  0  0  0  0  0  0  0  0  0  0  0
  142.1880   80.7800  221.8360 C   0  0  0  0  0  0  0  0  0  0  0  0
  141.5940   81.9250  222.3880 C   0  0  0  0  0  0  0  0  0  0  0  0
  141.5837   82.0639  223.4792 H   0  0  0  0  0  0  0  0  0  0  0  0
  141.0160   82.8890  221.5600 C   0  0  0  0  0  0  0  0  0  0  0  0
  140.5666   83.7917  221.9995 H   0  0  0  0  0  0  0  0  0  0  0  0
  141.0070   82.7100  220.1750 C   0  0  0  0  0  0  0  0  0  0  0  0
  140.5604   83.4794  219.5280 H   0  0  0  0  0  0  0  0  0  0  0  0
  141.5620   81.5590  219.6040 C   0  0  0  0  0  0  0  0  0  0  0  0
  141.5010   81.4120  218.2100 O   0  0  0  0  0  0  0  0  0  0  0  0
  142.6400   81.3050  217.3630 C   0  0  0  0  0  0  0  0  0  0  0  0
  143.5478   81.2197  217.9783 H   0  0  0  0  0  0  0  0  0  0  0  0
  142.5422   80.4121  216.7281 H   0  0  0  0  0  0  0  0  0  0  0  0
  142.7102   82.2005  216.7281 H   0  0  0  0  0  0  0  0  0  0  0  0
  142.1550   80.5930  220.4400 C   0  0  0  0  0  0  0  0  0  0  0  0
  142.5955   79.6862  219.9999 H   0  0  0  0  0  0  0  0  0  0  0  0
  1  2  1  0
  2  3  2  0
  3  4  1  0
  3  5  1  0
  5  6  2  0
  6  7  1  0
  7  8  2  0
  8  9  1  0
  8 10  1  0
 10 11  1  0
 10 12  2  0
 12 13  1  0
 12 14  1  0
 14 15  1  0
 14 16  2  0
 16 17  1  0
 17 18  2  0
 17 19  1  0
 19 20  1  0
 20 21  1  0
 20 22  1  0
 20 23  1  0
 23 24  1  0
 23 25  1  0
 25 26  1  0
 25 27  1  0
 25 28  1  0
 28 29  1  0
 28 30  1  0
 28 31  1  0
 31 32  1  0
 31 33  1  0
 31 34  1  0
 34 35  1  0
 34 36  1  0
 34 37  1  0
 37 38  1  0
 37 39  1  0
  2 40  1  0
 40 41  2  0
 41 42  1  0
 41 43  1  0
 43 44  1  0
 43 45  2  0
 45 46  1  0
 45 47  1  0
 47 48  1  0
 48 49  1  0
 49 50  1  0
 49 51  1  0
 49 52  1  0
 47 53  2  0
 53 54  1  0
 19  5  1  0
 37 23  1  0
 53 40  1  0
 16  7  1  0
M  END
>  <UniqueID>  (10) 
71

>  <SMILES>  (10) 
COc1cccc(/C=C/c2nc3ccccc3c(=O)n2CC2CCCCC2)c1

>  <Energy>  (10) 
71.5097539010311

>  <Genealogy>  (10) 
COc1cccc(/C=C/c2nc3ccccc3c(=O)n2CC2CCCCC2)c1 (cis-trans isomerization)
COc1cccc(/C=C/c2nc3ccccc3c(=O)n2CC2CCCCC2)c1 (3D coordinates assigned)
COc1cccc(/C=C/c2nc3ccccc3c(=O)n2CC2CCCCC2)c1 (nonaromatic ring conformer: 71.5097539010311 kcal/mol)

>  <smiles>  (10) 
COc1cccc(/C=C/c2nc3ccccc3c(=O)n2CC2CCCCC2)c1

>  <score_type>  (10) 
oracle

>  <origin>  (10) 
autodockgpu

>  <m_score__min__energy>  (10) 
-7.3499999999999996

>  <m_primary>  (10) 
energy

>  <meeko>  (10) 
{"free_energy": -6.06, "intermolecular_energy": -7.85, "internal_energy": -2.36, "cluster_size": 3, "cluster_id": 11, "rank_in_cluster": 3}

>  <energy>  (10) 
-7.03

>  <cluster_rmsd>  (10) 
1.59

>  <rmsd>  (10) 
270.19

>  <cluster>  (10) 
5

$$$$
SDBQQCBUKDXRSS-CCEZHUSRNA-N
     RDKit          3D

 54 57  0  0  0  0  0  0  0  0999 V2000
  134.8777   70.1749  222.9018 H   0  0  0  0  0  0  0  0  0  0  0  0
  135.5170   70.4810  223.7430 C   0  0  0  0  0  0  0  0  0  0  0  0
  136.8450   70.3740  223.6140 C   0  0  0  0  0  0  0  0  0  0  0  0
  137.3486   69.4623  223.9678 H   0  0  0  0  0  0  0  0  0  0  0  0
  137.6520   71.4590  223.0040 C   0  0  0  0  0  0  0  0  0  0  0  0
  136.9790   72.4510  222.3640 N   0  0  0  0  0  0  0  0  0  0  0  0
  137.6100   73.5220  221.8340 C   0  0  0  0  0  0  0  0  0  0  0  0
  136.8730   74.5200  221.1850 C   0  0  0  0  0  0  0  0  0  0  0  0
  135.7826   74.4185  221.0812 H   0  0  0  0  0  0  0  0  0  0  0  0
  137.5220   75.6450  220.6690 C   0  0  0  0  0  0  0  0  0  0  0  0
  136.9419   76.4282  220.1591 H   0  0  0  0  0  0  0  0  0  0  0  0
  138.9060   75.7760  220.8000 C   0  0  0  0  0  0  0  0  0  0  0  0
  139.4136   76.6657  220.3991 H   0  0  0  0  0  0  0  0  0  0  0  0
  139.6480   74.7780  221.4400 C   0  0  0  0  0  0  0  0  0  0  0  0
  140.7388   74.8822  221.5360 H   0  0  0  0  0  0  0  0  0  0  0  0
  139.0030   73.6400  221.9620 C   0  0  0  0  0  0  0  0  0  0  0  0
  139.7010   72.6050  222.6050 C   0  0  0  0  0  0  0  0  0  0  0  0
  140.9550   72.6980  222.7350 O   0  0  0  0  0  0  0  0  0  0  0  0
  139.0320   71.5020  223.0910 N   0  0  0  0  0  0  0  0  0  0  0  0
  139.8170   70.3780  223.6660 C   0  0  0  0  0  0  0  0  0  0  0  0
  139.3633   69.4327  223.3335 H   0  0  0  0  0  0  0  0  0  0  0  0
  140.8517   70.4966  223.3121 H   0  0  0  0  0  0  0  0  0  0  0  0
  139.8680   70.3770  225.2180 C   0  0  0  0  0  0  0  0  0  0  0  0
  138.8706   70.7306  225.5182 H   0  0  0  0  0  0  0  0  0  0  0  0
  140.0630   68.9680  225.8320 C   0  0  0  0  0  0  0  0  0  0  0  0
  139.1303   68.3993  225.7032 H   0  0  0  0  0  0  0  0  0  0  0  0
  140.9104   68.5002  225.3094 H   0  0  0  0  0  0  0  0  0  0  0  0
  140.4150   68.9980  227.3370 C   0  0  0  0  0  0  0  0  0  0  0  0
  139.8635   68.1919  227.8430 H   0  0  0  0  0  0  0  0  0  0  0  0
  141.5035   68.8657  227.4251 H   0  0  0  0  0  0  0  0  0  0  0  0
  140.0570   70.3290  228.0040 C   0  0  0  0  0  0  0  0  0  0  0  0
  138.9694   70.4801  227.9389 H   0  0  0  0  0  0  0  0  0  0  0  0
  140.3851   70.2880  229.0531 H   0  0  0  0  0  0  0  0  0  0  0  0
  140.7690   71.5140  227.3210 C   0  0  0  0  0  0  0  0  0  0  0  0
  140.1934   72.4290  227.5245 H   0  0  0  0  0  0  0  0  0  0  0  0
  141.7875   71.5583  227.7340 H   0  0  0  0  0  0  0  0  0  0  0  0
  140.9090   71.3560  225.7900 C   0  0  0  0  0  0  0  0  0  0  0  0
  140.7707   72.3392  225.3166 H   0  0  0  0  0  0  0  0  0  0  0  0
  141.9101   70.9522  225.5784 H   0  0  0  0  0  0  0  0  0  0  0  0
  134.8760   70.9950  224.9730 C   0  0  0  0  0  0  0  0  0  0  0  0
  134.5720   70.0970  226.0080 C   0  0  0  0  0  0  0  0  0  0  0  0
  134.8020   69.0277  225.8905 H   0  0  0  0  0  0  0  0  0  0  0  0
  133.9790   70.5550  227.1860 C   0  0  0  0  0  0  0  0  0  0  0  0
  133.7583   69.8478  227.9992 H   0  0  0  0  0  0  0  0  0  0  0  0
  133.6650   71.9070  227.3360 C   0  0  0  0  0  0  0  0  0  0  0  0
  133.2088   72.2616  228.2720 H   0  0  0  0  0  0  0  0  0  0  0  0
  133.9270   72.8140  226.3030 C   0  0  0  0  0  0  0  0  0  0  0  0
  133.5650   74.1570  226.4890 O   0  0  0  0  0  0  0  0  0  0  0  0
  134.2410   75.2610  225.8950 C   0  0  0  0  0  0  0  0  0  0  0  0
  134.6409   75.9141  226.6847 H   0  0  0  0  0  0  0  0  0  0  0  0
  135.0681   74.8918  225.2708 H   0  0  0  0  0  0  0  0  0  0  0  0
  133.5361   75.8298  225.2708 H   0  0  0  0  0  0  0  0  0  0  0  0
  134.5360   72.3540  225.1190 C   0  0  0  0  0  0  0  0  0  0  0  0
  134.7474   73.0608  224.3031 H   0  0  0  0  0  0  0  0  0  0  0  0
  1  2  1  0
  2  3  2  0
  3  4  1  0
  3  5  1  0
  5  6  2  0
  6  7  1  0
  7  8  2  0
  8  9  1  0
  8 10  1  0
 10 11  1  0
 10 12  2  0
 12 13  1  0
 12 14  1  0
 14 15  1  0
 14 16  2  0
 16 17  1  0
 17 18  2  0
 17 19  1  0
 19 20  1  0
 20 21  1  0
 20 22  1  0
 20 23  1  0
 23 24  1  0
 23 25  1  0
 25 26  1  0
 25 27  1  0
 25 28  1  0
 28 29  1  0
 28 30  1  0
 28 31  1  0
 31 32  1  0
 31 33  1  0
 31 34  1  0
 34 35  1  0
 34 36  1  0
 34 37  1  0
 37 38  1  0
 37 39  1  0
  2 40  1  0
 40 41  2  0
 41 42  1  0
 41 43  1  0
 43 44  1  0
 43 45  2  0
 45 46  1  0
 45 47  1  0
 47 48  1  0
 48 49  1  0
 49 50  1  0
 49 51  1  0
 49 52  1  0
 47 53  2  0
 53 54  1  0
 19  5  1  0
 37 23  1  0
 53 40  1  0
 16  7  1  0
M  END
>  <UniqueID>  (11) 
71

>  <SMILES>  (11) 
COc1cccc(/C=C/c2nc3ccccc3c(=O)n2CC2CCCCC2)c1

>  <Energy>  (11) 
71.5097539010311

>  <Genealogy>  (11) 
COc1cccc(/C=C/c2nc3ccccc3c(=O)n2CC2CCCCC2)c1 (cis-trans isomerization)
COc1cccc(/C=C/c2nc3ccccc3c(=O)n2CC2CCCCC2)c1 (3D coordinates assigned)
COc1cccc(/C=C/c2nc3ccccc3c(=O)n2CC2CCCCC2)c1 (nonaromatic ring conformer: 71.5097539010311 kcal/mol)

>  <smiles>  (11) 
COc1cccc(/C=C/c2nc3ccccc3c(=O)n2CC2CCCCC2)c1

>  <score_type>  (11) 
oracle

>  <origin>  (11) 
autodockgpu

>  <m_score__min__energy>  (11) 
-7.3499999999999996

>  <m_primary>  (11) 
energy

>  <meeko>  (11) 
{"free_energy": -7.35, "intermolecular_energy": -9.14, "internal_energy": -1.42, "cluster_size": 1, "cluster_id": 1, "rank_in_cluster": 1}

>  <energy>  (11) 
-7.06

>  <cluster_rmsd>  (11) 
0.0

>  <rmsd>  (11) 
270.23

>  <cluster>  (11) 
6

$$$$
SDBQQCBUKDXRSS-CCEZHUSRNA-N
     RDKit          3D

 54 57  0  0  0  0  0  0  0  0999 V2000
  143.9169   79.9019  222.8717 H   0  0  0  0  0  0  0  0  0  0  0  0
  142.8240   79.8760  222.7500 C   0  0  0  0  0  0  0  0  0  0  0  0
  142.1200   78.9730  223.4440 C   0  0  0  0  0  0  0  0  0  0  0  0
  142.6494   78.2672  224.1010 H   0  0  0  0  0  0  0  0  0  0  0  0
  140.6420   78.9040  223.3460 C   0  0  0  0  0  0  0  0  0  0  0  0
  139.9290   79.8500  224.0110 N   0  0  0  0  0  0  0  0  0  0  0  0
  138.5810   79.9220  223.9320 C   0  0  0  0  0  0  0  0  0  0  0  0
  137.8900   80.9160  224.6350 C   0  0  0  0  0  0  0  0  0  0  0  0
  138.4413   81.6212  225.2744 H   0  0  0  0  0  0  0  0  0  0  0  0
  136.5000   81.0130  224.5250 C   0  0  0  0  0  0  0  0  0  0  0  0
  135.9581   81.7944  225.0779 H   0  0  0  0  0  0  0  0  0  0  0  0
  135.7990   80.1190  223.7140 C   0  0  0  0  0  0  0  0  0  0  0  0
  134.7058   80.2015  223.6234 H   0  0  0  0  0  0  0  0  0  0  0  0
  136.4840   79.1180  223.0160 C   0  0  0  0  0  0  0  0  0  0  0  0
  135.9273   78.4121  222.3821 H   0  0  0  0  0  0  0  0  0  0  0  0
  137.8840   79.0120  223.1230 C   0  0  0  0  0  0  0  0  0  0  0  0
  138.6190   78.0220  222.4510 C   0  0  0  0  0  0  0  0  0  0  0  0
  138.0080   77.1990  221.7120 O   0  0  0  0  0  0  0  0  0  0  0  0
  139.9880   77.9460  222.5920 N   0  0  0  0  0  0  0  0  0  0  0  0
  140.7180   76.8180  221.9550 C   0  0  0  0  0  0  0  0  0  0  0  0
  141.4758   76.4516  222.6632 H   0  0  0  0  0  0  0  0  0  0  0  0
  139.9687   76.0523  221.7057 H   0  0  0  0  0  0  0  0  0  0  0  0
  141.4310   77.2000  220.6300 C   0  0  0  0  0  0  0  0  0  0  0  0
  142.0529   78.0655  220.9024 H   0  0  0  0  0  0  0  0  0  0  0  0
  142.3790   76.0980  220.0950 C   0  0  0  0  0  0  0  0  0  0  0  0
  143.2642   76.0532  220.7465 H   0  0  0  0  0  0  0  0  0  0  0  0
  141.8134   75.1546  220.0963 H   0  0  0  0  0  0  0  0  0  0  0  0
  142.8510   76.3450  218.6430 C   0  0  0  0  0  0  0  0  0  0  0  0
  143.9173   76.0845  218.5710 H   0  0  0  0  0  0  0  0  0  0  0  0
  142.2324   75.7193  217.9829 H   0  0  0  0  0  0  0  0  0  0  0  0
  142.6720   77.7990  218.2000 C   0  0  0  0  0  0  0  0  0  0  0  0
  143.2923   78.4456  218.8381 H   0  0  0  0  0  0  0  0  0  0  0  0
  142.9775   77.8778  217.1462 H   0  0  0  0  0  0  0  0  0  0  0  0
  141.2010   78.2490  218.3110 C   0  0  0  0  0  0  0  0  0  0  0  0
  141.1789   79.3452  218.3998 H   0  0  0  0  0  0  0  0  0  0  0  0
  140.6861   77.8908  217.4074 H   0  0  0  0  0  0  0  0  0  0  0  0
  140.4570   77.6460  219.5240 C   0  0  0  0  0  0  0  0  0  0  0  0
  139.7744   78.4041  219.9355 H   0  0  0  0  0  0  0  0  0  0  0  0
  139.9035   76.7602  219.1790 H   0  0  0  0  0  0  0  0  0  0  0  0
  142.1880   80.8400  221.8260 C   0  0  0  0  0  0  0  0  0  0  0  0
  141.5930   81.9970  222.3540 C   0  0  0  0  0  0  0  0  0  0  0  0
  141.5972   82.1676  223.4407 H   0  0  0  0  0  0  0  0  0  0  0  0
  140.9960   82.9320  221.5060 C   0  0  0  0  0  0  0  0  0  0  0  0
  140.5454   83.8435  221.9257 H   0  0  0  0  0  0  0  0  0  0  0  0
  140.9690   82.7140  220.1270 C   0  0  0  0  0  0  0  0  0  0  0  0
  140.5071   83.4609  219.4646 H   0  0  0  0  0  0  0  0  0  0  0  0
  141.5260   81.5510  219.5820 C   0  0  0  0  0  0  0  0  0  0  0  0
  141.4470   81.3640  218.1940 O   0  0  0  0  0  0  0  0  0  0  0  0
  142.5740   81.3070  217.3250 C   0  0  0  0  0  0  0  0  0  0  0  0
  143.4961   81.2604  217.9230 H   0  0  0  0  0  0  0  0  0  0  0  0
  142.5028   80.4113  216.6904 H   0  0  0  0  0  0  0  0  0  0  0  0
  142.5935   82.2053  216.6904 H   0  0  0  0  0  0  0  0  0  0  0  0
  142.1380   80.6130  220.4370 C   0  0  0  0  0  0  0  0  0  0  0  0
  142.5796   79.6974  220.0168 H   0  0  0  0  0  0  0  0  0  0  0  0
  1  2  1  0
  2  3  2  0
  3  4  1  0
  3  5  1  0
  5  6  2  0
  6  7  1  0
  7  8  2  0
  8  9  1  0
  8 10  1  0
 10 11  1  0
 10 12  2  0
 12 13  1  0
 12 14  1  0
 14 15  1  0
 14 16  2  0
 16 17  1  0
 17 18  2  0
 17 19  1  0
 19 20  1  0
 20 21  1  0
 20 22  1  0
 20 23  1  0
 23 24  1  0
 23 25  1  0
 25 26  1  0
 25 27  1  0
 25 28  1  0
 28 29  1  0
 28 30  1  0
 28 31  1  0
 31 32  1  0
 31 33  1  0
 31 34  1  0
 34 35  1  0
 34 36  1  0
 34 37  1  0
 37 38  1  0
 37 39  1  0
  2 40  1  0
 40 41  2  0
 41 42  1  0
 41 43  1  0
 43 44  1  0
 43 45  2  0
 45 46  1  0
 45 47  1  0
 47 48  1  0
 48 49  1  0
 49 50  1  0
 49 51  1  0
 49 52  1  0
 47 53  2  0
 53 54  1  0
 19  5  1  0
 37 23  1  0
 53 40  1  0
 16  7  1  0
M  END
>  <UniqueID>  (12) 
71

>  <SMILES>  (12) 
COc1cccc(/C=C/c2nc3ccccc3c(=O)n2CC2CCCCC2)c1

>  <Energy>  (12) 
71.5097539010311

>  <Genealogy>  (12) 
COc1cccc(/C=C/c2nc3ccccc3c(=O)n2CC2CCCCC2)c1 (cis-trans isomerization)
COc1cccc(/C=C/c2nc3ccccc3c(=O)n2CC2CCCCC2)c1 (3D coordinates assigned)
COc1cccc(/C=C/c2nc3ccccc3c(=O)n2CC2CCCCC2)c1 (nonaromatic ring conformer: 71.5097539010311 kcal/mol)

>  <smiles>  (12) 
COc1cccc(/C=C/c2nc3ccccc3c(=O)n2CC2CCCCC2)c1

>  <score_type>  (12) 
oracle

>  <origin>  (12) 
autodockgpu

>  <m_score__min__energy>  (12) 
-7.3499999999999996

>  <m_primary>  (12) 
energy

>  <meeko>  (12) 
{"free_energy": -6.09, "intermolecular_energy": -7.88, "internal_energy": -2.37, "cluster_size": 3, "cluster_id": 11, "rank_in_cluster": 2}

>  <energy>  (12) 
-6.86

>  <cluster_rmsd>  (12) 
1.89

>  <rmsd>  (12) 
270.3

>  <cluster>  (12) 
6

$$$$
SDBQQCBUKDXRSS-CCEZHUSRNA-N
     RDKit          3D

 54 57  0  0  0  0  0  0  0  0999 V2000
  141.6123   72.2273  221.8026 H   0  0  0  0  0  0  0  0  0  0  0  0
  140.6600   72.4040  222.3240 C   0  0  0  0  0  0  0  0  0  0  0  0
  139.8570   73.3810  221.8850 C   0  0  0  0  0  0  0  0  0  0  0  0
  138.7833   73.1785  221.7581 H   0  0  0  0  0  0  0  0  0  0  0  0
  140.3830   74.7300  221.5660 C   0  0  0  0  0  0  0  0  0  0  0  0
  139.9750   75.7600  222.3540 N   0  0  0  0  0  0  0  0  0  0  0  0
  140.4470   77.0170  222.1960 C   0  0  0  0  0  0  0  0  0  0  0  0
  139.9970   78.0450  223.0320 C   0  0  0  0  0  0  0  0  0  0  0  0
  139.2371   77.8361  223.7994 H   0  0  0  0  0  0  0  0  0  0  0  0
  140.5120   79.3370  222.8930 C   0  0  0  0  0  0  0  0  0  0  0  0
  140.1576   80.1438  223.5514 H   0  0  0  0  0  0  0  0  0  0  0  0
  141.4760   79.6040  221.9190 C   0  0  0  0  0  0  0  0  0  0  0  0
  141.8845   80.6200  221.8151 H   0  0  0  0  0  0  0  0  0  0  0  0
  141.9240   78.5810  221.0740 C   0  0  0  0  0  0  0  0  0  0  0  0
  142.6804   78.7962  220.3048 H   0  0  0  0  0  0  0  0  0  0  0  0
  141.4080   77.2770  221.2070 C   0  0  0  0  0  0  0  0  0  0  0  0
  141.8160   76.2180  220.3800 C   0  0  0  0  0  0  0  0  0  0  0  0
  142.6860   76.4330  219.4890 O   0  0  0  0  0  0  0  0  0  0  0  0
  141.2780   74.9580  220.5360 N   0  0  0  0  0  0  0  0  0  0  0  0
  141.6510   73.8900  219.5710 C   0  0  0  0  0  0  0  0  0  0  0  0
  140.9864   73.0286  219.7332 H   0  0  0  0  0  0  0  0  0  0  0  0
  141.5470   74.3185  218.5633 H   0  0  0  0  0  0  0  0  0  0  0  0
  143.1200   73.4070  219.7070 C   0  0  0  0  0  0  0  0  0  0  0  0
  143.5860   73.7030  218.7556 H   0  0  0  0  0  0  0  0  0  0  0  0
  143.9030   74.1090  220.8440 C   0  0  0  0  0  0  0  0  0  0  0  0
  144.1037   75.1468  220.5396 H   0  0  0  0  0  0  0  0  0  0  0  0
  143.2799   74.0533  221.7488 H   0  0  0  0  0  0  0  0  0  0  0  0
  145.2500   73.4270  221.1760 C   0  0  0  0  0  0  0  0  0  0  0  0
  146.0056   74.2073  221.3497 H   0  0  0  0  0  0  0  0  0  0  0  0
  145.0944   72.8037  222.0689 H   0  0  0  0  0  0  0  0  0  0  0  0
  145.7430   72.5100  220.0540 C   0  0  0  0  0  0  0  0  0  0  0  0
  145.9189   73.1132  219.1511 H   0  0  0  0  0  0  0  0  0  0  0  0
  146.6717   72.0247  220.3887 H   0  0  0  0  0  0  0  0  0  0  0  0
  144.7130   71.4090  219.7280 C   0  0  0  0  0  0  0  0  0  0  0  0
  144.8882   71.0635  218.6985 H   0  0  0  0  0  0  0  0  0  0  0  0
  144.8530   70.6083  220.4691 H   0  0  0  0  0  0  0  0  0  0  0  0
  143.2450   71.8780  219.8420 C   0  0  0  0  0  0  0  0  0  0  0  0
  142.6561   71.4010  219.0447 H   0  0  0  0  0  0  0  0  0  0  0  0
  142.8711   71.5912  220.8359 H   0  0  0  0  0  0  0  0  0  0  0  0
  140.3150   71.5530  223.4840 C   0  0  0  0  0  0  0  0  0  0  0  0
  139.5580   70.3900  223.2720 C   0  0  0  0  0  0  0  0  0  0  0  0
  139.2233   70.1320  222.2564 H   0  0  0  0  0  0  0  0  0  0  0  0
  139.2280   69.5590  224.3450 C   0  0  0  0  0  0  0  0  0  0  0  0
  138.6477   68.6412  224.1691 H   0  0  0  0  0  0  0  0  0  0  0  0
  139.6320   69.8890  225.6400 C   0  0  0  0  0  0  0  0  0  0  0  0
  139.3783   69.2231  226.4780 H   0  0  0  0  0  0  0  0  0  0  0  0
  140.3580   71.0620  225.8790 C   0  0  0  0  0  0  0  0  0  0  0  0
  140.7150   71.3660  227.2020 O   0  0  0  0  0  0  0  0  0  0  0  0
  139.9810   70.9460  228.3480 C   0  0  0  0  0  0  0  0  0  0  0  0
  140.5163   71.2523  229.2588 H   0  0  0  0  0  0  0  0  0  0  0  0
  138.9838   71.4102  228.3352 H   0  0  0  0  0  0  0  0  0  0  0  0
  139.8760   69.8511  228.3352 H   0  0  0  0  0  0  0  0  0  0  0  0
  140.7000   71.8940  224.7950 C   0  0  0  0  0  0  0  0  0  0  0  0
  141.2718   72.8165  224.9738 H   0  0  0  0  0  0  0  0  0  0  0  0
  1  2  1  0
  2  3  2  0
  3  4  1  0
  3  5  1  0
  5  6  2  0
  6  7  1  0
  7  8  2  0
  8  9  1  0
  8 10  1  0
 10 11  1  0
 10 12  2  0
 12 13  1  0
 12 14  1  0
 14 15  1  0
 14 16  2  0
 16 17  1  0
 17 18  2  0
 17 19  1  0
 19 20  1  0
 20 21  1  0
 20 22  1  0
 20 23  1  0
 23 24  1  0
 23 25  1  0
 25 26  1  0
 25 27  1  0
 25 28  1  0
 28 29  1  0
 28 30  1  0
 28 31  1  0
 31 32  1  0
 31 33  1  0
 31 34  1  0
 34 35  1  0
 34 36  1  0
 34 37  1  0
 37 38  1  0
 37 39  1  0
  2 40  1  0
 40 41  2  0
 41 42  1  0
 41 43  1  0
 43 44  1  0
 43 45  2  0
 45 46  1  0
 45 47  1  0
 47 48  1  0
 48 49  1  0
 49 50  1  0
 49 51  1  0
 49 52  1  0
 47 53  2  0
 53 54  1  0
 19  5  1  0
 37 23  1  0
 53 40  1  0
 16  7  1  0
M  END
>  <UniqueID>  (13) 
71

>  <SMILES>  (13) 
COc1cccc(/C=C/c2nc3ccccc3c(=O)n2CC2CCCCC2)c1

>  <Energy>  (13) 
71.5097539010311

>  <Genealogy>  (13) 
COc1cccc(/C=C/c2nc3ccccc3c(=O)n2CC2CCCCC2)c1 (cis-trans isomerization)
COc1cccc(/C=C/c2nc3ccccc3c(=O)n2CC2CCCCC2)c1 (3D coordinates assigned)
COc1cccc(/C=C/c2nc3ccccc3c(=O)n2CC2CCCCC2)c1 (nonaromatic ring conformer: 71.5097539010311 kcal/mol)

>  <smiles>  (13) 
COc1cccc(/C=C/c2nc3ccccc3c(=O)n2CC2CCCCC2)c1

>  <score_type>  (13) 
oracle

>  <origin>  (13) 
autodockgpu

>  <m_score__min__energy>  (13) 
-7.3499999999999996

>  <m_primary>  (13) 
energy

>  <meeko>  (13) 
{"free_energy": -7.11, "intermolecular_energy": -8.9, "internal_energy": -1.24, "cluster_size": 2, "cluster_id": 4, "rank_in_cluster": 2}

>  <energy>  (13) 
-7.04

>  <cluster_rmsd>  (13) 
0.0

>  <rmsd>  (13) 
270.69

>  <cluster>  (13) 
7

$$$$
SDBQQCBUKDXRSS-CCEZHUSRNA-N
     RDKit          3D

 54 57  0  0  0  0  0  0  0  0999 V2000
  136.2887   69.2460  221.6347 H   0  0  0  0  0  0  0  0  0  0  0  0
  136.6490   69.2350  222.6740 C   0  0  0  0  0  0  0  0  0  0  0  0
  137.8860   68.7870  222.9220 C   0  0  0  0  0  0  0  0  0  0  0  0
  138.3318   68.0380  222.2510 H   0  0  0  0  0  0  0  0  0  0  0  0
  138.6680   69.2790  224.0820 C   0  0  0  0  0  0  0  0  0  0  0  0
  138.8470   68.4220  225.1220 N   0  0  0  0  0  0  0  0  0  0  0  0
  139.6010   68.7430  226.1970 C   0  0  0  0  0  0  0  0  0  0  0  0
  139.7560   67.8260  227.2430 C   0  0  0  0  0  0  0  0  0  0  0  0
  139.2407   66.8550  227.2033 H   0  0  0  0  0  0  0  0  0  0  0  0
  140.5650   68.1430  228.3380 C   0  0  0  0  0  0  0  0  0  0  0  0
  140.6857   67.4213  229.1593 H   0  0  0  0  0  0  0  0  0  0  0  0
  141.2200   69.3750  228.3900 C   0  0  0  0  0  0  0  0  0  0  0  0
  141.8612   69.6201  229.2495 H   0  0  0  0  0  0  0  0  0  0  0  0
  141.0620   70.2990  227.3500 C   0  0  0  0  0  0  0  0  0  0  0  0
  141.5762   71.2703  227.3964 H   0  0  0  0  0  0  0  0  0  0  0  0
  140.2460   69.9880  226.2440 C   0  0  0  0  0  0  0  0  0  0  0  0
  140.0460   70.8810  225.1800 C   0  0  0  0  0  0  0  0  0  0  0  0
  140.6260   72.0040  225.2030 O   0  0  0  0  0  0  0  0  0  0  0  0
  139.2310   70.5430  224.1210 N   0  0  0  0  0  0  0  0  0  0  0  0
  138.9560   71.5560  223.0690 C   0  0  0  0  0  0  0  0  0  0  0  0
  138.2493   71.1220  222.3464 H   0  0  0  0  0  0  0  0  0  0  0  0
  138.5486   72.4423  223.5775 H   0  0  0  0  0  0  0  0  0  0  0  0
  140.2200   72.0200  222.2980 C   0  0  0  0  0  0  0  0  0  0  0  0
  141.0071   72.0400  223.0661 H   0  0  0  0  0  0  0  0  0  0  0  0
  140.6740   71.0310  221.1960 C   0  0  0  0  0  0  0  0  0  0  0  0
  141.1008   70.1408  221.6811 H   0  0  0  0  0  0  0  0  0  0  0  0
  139.7874   70.7908  220.5908 H   0  0  0  0  0  0  0  0  0  0  0  0
  141.7340   71.6220  220.2370 C   0  0  0  0  0  0  0  0  0  0  0  0
  142.4880   70.8491  220.0268 H   0  0  0  0  0  0  0  0  0  0  0  0
  141.2126   71.9418  219.3227 H   0  0  0  0  0  0  0  0  0  0  0  0
  142.4400   72.8490  220.8190 C   0  0  0  0  0  0  0  0  0  0  0  0
  142.9803   72.5515  221.7298 H   0  0  0  0  0  0  0  0  0  0  0  0
  143.1345   73.2388  220.0602 H   0  0  0  0  0  0  0  0  0  0  0  0
  141.4370   73.9650  221.1740 C   0  0  0  0  0  0  0  0  0  0  0  0
  141.8922   74.6101  221.9399 H   0  0  0  0  0  0  0  0  0  0  0  0
  141.2184   74.5084  220.2429 H   0  0  0  0  0  0  0  0  0  0  0  0
  140.0890   73.4400  221.7170 C   0  0  0  0  0  0  0  0  0  0  0  0
  139.7361   74.1173  222.5086 H   0  0  0  0  0  0  0  0  0  0  0  0
  139.3751   73.4026  220.8809 H   0  0  0  0  0  0  0  0  0  0  0  0
  135.7480   69.7160  223.7450 C   0  0  0  0  0  0  0  0  0  0  0  0
  135.6230   71.0970  223.9590 C   0  0  0  0  0  0  0  0  0  0  0  0
  136.1993   71.8014  223.3412 H   0  0  0  0  0  0  0  0  0  0  0  0
  134.7700   71.5810  224.9530 C   0  0  0  0  0  0  0  0  0  0  0  0
  134.6651   72.6654  225.1046 H   0  0  0  0  0  0  0  0  0  0  0  0
  134.0500   70.6940  225.7550 C   0  0  0  0  0  0  0  0  0  0  0  0
  133.3713   71.0838  226.5280 H   0  0  0  0  0  0  0  0  0  0  0  0
  134.1860   69.3120  225.5820 C   0  0  0  0  0  0  0  0  0  0  0  0
  133.4650   68.4600  226.4330 O   0  0  0  0  0  0  0  0  0  0  0  0
  133.4820   67.0390  226.3500 C   0  0  0  0  0  0  0  0  0  0  0  0
  133.4871   66.6125  227.3640 H   0  0  0  0  0  0  0  0  0  0  0  0
  132.5879   66.6925  225.8110 H   0  0  0  0  0  0  0  0  0  0  0  0
  134.3841   66.7140  225.8110 H   0  0  0  0  0  0  0  0  0  0  0  0
  135.0380   68.8240  224.5710 C   0  0  0  0  0  0  0  0  0  0  0  0
  135.1490   67.7392  224.4263 H   0  0  0  0  0  0  0  0  0  0  0  0
  1  2  1  0
  2  3  2  0
  3  4  1  0
  3  5  1  0
  5  6  2  0
  6  7  1  0
  7  8  2  0
  8  9  1  0
  8 10  1  0
 10 11  1  0
 10 12  2  0
 12 13  1  0
 12 14  1  0
 14 15  1  0
 14 16  2  0
 16 17  1  0
 17 18  2  0
 17 19  1  0
 19 20  1  0
 20 21  1  0
 20 22  1  0
 20 23  1  0
 23 24  1  0
 23 25  1  0
 25 26  1  0
 25 27  1  0
 25 28  1  0
 28 29  1  0
 28 30  1  0
 28 31  1  0
 31 32  1  0
 31 33  1  0
 31 34  1  0
 34 35  1  0
 34 36  1  0
 34 37  1  0
 37 38  1  0
 37 39  1  0
  2 40  1  0
 40 41  2  0
 41 42  1  0
 41 43  1  0
 43 44  1  0
 43 45  2  0
 45 46  1  0
 45 47  1  0
 47 48  1  0
 48 49  1  0
 49 50  1  0
 49 51  1  0
 49 52  1  0
 47 53  2  0
 53 54  1  0
 19  5  1  0
 37 23  1  0
 53 40  1  0
 16  7  1  0
M  END
>  <UniqueID>  (14) 
71

>  <SMILES>  (14) 
COc1cccc(/C=C/c2nc3ccccc3c(=O)n2CC2CCCCC2)c1

>  <Energy>  (14) 
71.5097539010311

>  <Genealogy>  (14) 
COc1cccc(/C=C/c2nc3ccccc3c(=O)n2CC2CCCCC2)c1 (cis-trans isomerization)
COc1cccc(/C=C/c2nc3ccccc3c(=O)n2CC2CCCCC2)c1 (3D coordinates assigned)
COc1cccc(/C=C/c2nc3ccccc3c(=O)n2CC2CCCCC2)c1 (nonaromatic ring conformer: 71.5097539010311 kcal/mol)

>  <smiles>  (14) 
COc1cccc(/C=C/c2nc3ccccc3c(=O)n2CC2CCCCC2)c1

>  <score_type>  (14) 
oracle

>  <origin>  (14) 
autodockgpu

>  <m_score__min__energy>  (14) 
-7.3499999999999996

>  <m_primary>  (14) 
energy

>  <meeko>  (14) 
{"free_energy": -7.31, "intermolecular_energy": -9.1, "internal_energy": -1.56, "cluster_size": 3, "cluster_id": 3, "rank_in_cluster": 1}

>  <energy>  (14) 
-6.82

>  <cluster_rmsd>  (14) 
0.0

>  <rmsd>  (14) 
270.73

>  <cluster>  (14) 
8

$$$$
SDBQQCBUKDXRSS-CCEZHUSRNA-N
     RDKit          3D

 54 57  0  0  0  0  0  0  0  0999 V2000
  136.2453   68.6083  221.7567 H   0  0  0  0  0  0  0  0  0  0  0  0
  136.7360   69.0490  222.6370 C   0  0  0  0  0  0  0  0  0  0  0  0
  138.0740   69.0740  222.6840 C   0  0  0  0  0  0  0  0  0  0  0  0
  138.6493   68.7711  221.7967 H   0  0  0  0  0  0  0  0  0  0  0  0
  138.7970   69.5010  223.9060 C   0  0  0  0  0  0  0  0  0  0  0  0
  138.9080   68.5950  224.9130 N   0  0  0  0  0  0  0  0  0  0  0  0
  139.6060   68.8550  226.0410 C   0  0  0  0  0  0  0  0  0  0  0  0
  139.6910   67.8890  227.0510 C   0  0  0  0  0  0  0  0  0  0  0  0
  139.1657   66.9290  226.9392 H   0  0  0  0  0  0  0  0  0  0  0  0
  140.4430   68.1440  228.2010 C   0  0  0  0  0  0  0  0  0  0  0  0
  140.5100   67.3840  228.9934 H   0  0  0  0  0  0  0  0  0  0  0  0
  141.1090   69.3620  228.3450 C   0  0  0  0  0  0  0  0  0  0  0  0
  141.7052   69.5581  229.2484 H   0  0  0  0  0  0  0  0  0  0  0  0
  141.0200   70.3340  227.3430 C   0  0  0  0  0  0  0  0  0  0  0  0
  141.5425   71.2946  227.4627 H   0  0  0  0  0  0  0  0  0  0  0  0
  140.2630   70.0860  226.1810 C   0  0  0  0  0  0  0  0  0  0  0  0
  140.1330   71.0300  225.1500 C   0  0  0  0  0  0  0  0  0  0  0  0
  140.7250   72.1420  225.2560 O   0  0  0  0  0  0  0  0  0  0  0  0
  139.3730   70.7520  224.0340 N   0  0  0  0  0  0  0  0  0  0  0  0
  139.1690   71.8170  223.0160 C   0  0  0  0  0  0  0  0  0  0  0  0
  138.4249   71.4622  222.2878 H   0  0  0  0  0  0  0  0  0  0  0  0
  138.8359   72.7156  223.5560 H   0  0  0  0  0  0  0  0  0  0  0  0
  140.4600   72.2060  222.2460 C   0  0  0  0  0  0  0  0  0  0  0  0
  141.2318   72.2535  223.0283 H   0  0  0  0  0  0  0  0  0  0  0  0
  140.9130   71.1430  221.2140 C   0  0  0  0  0  0  0  0  0  0  0  0
  141.3079   70.2734  221.7598 H   0  0  0  0  0  0  0  0  0  0  0  0
  140.0338   70.8874  220.6043 H   0  0  0  0  0  0  0  0  0  0  0  0
  142.0060   71.6520  220.2470 C   0  0  0  0  0  0  0  0  0  0  0  0
  142.7458   70.8513  220.1002 H   0  0  0  0  0  0  0  0  0  0  0  0
  141.5112   71.9286  219.3043 H   0  0  0  0  0  0  0  0  0  0  0  0
  142.7290   72.8960  220.7700 C   0  0  0  0  0  0  0  0  0  0  0  0
  143.2443   72.6417  221.7080 H   0  0  0  0  0  0  0  0  0  0  0  0
  143.4473   73.2244  220.0044 H   0  0  0  0  0  0  0  0  0  0  0  0
  141.7450   74.0530  221.0370 C   0  0  0  0  0  0  0  0  0  0  0  0
  142.1996   74.7324  221.7730 H   0  0  0  0  0  0  0  0  0  0  0  0
  141.5577   74.5447  220.0710 H   0  0  0  0  0  0  0  0  0  0  0  0
  140.3750   73.5910  221.5810 C   0  0  0  0  0  0  0  0  0  0  0  0
  140.0226   74.3215  222.3241 H   0  0  0  0  0  0  0  0  0  0  0  0
  139.6775   73.5203  220.7333 H   0  0  0  0  0  0  0  0  0  0  0  0
  135.8930   69.5920  223.7250 C   0  0  0  0  0  0  0  0  0  0  0  0
  135.8720   70.9780  223.9420 C   0  0  0  0  0  0  0  0  0  0  0  0
  136.4853   71.6400  223.3130 H   0  0  0  0  0  0  0  0  0  0  0  0
  135.0760   71.5210  224.9530 C   0  0  0  0  0  0  0  0  0  0  0  0
  135.0527   72.6100  225.1068 H   0  0  0  0  0  0  0  0  0  0  0  0
  134.3100   70.6870  225.7690 C   0  0  0  0  0  0  0  0  0  0  0  0
  133.6770   71.1236  226.5556 H   0  0  0  0  0  0  0  0  0  0  0  0
  134.3420   69.2990  225.5930 C   0  0  0  0  0  0  0  0  0  0  0  0
  133.5780   68.5000  226.4570 O   0  0  0  0  0  0  0  0  0  0  0  0
  133.5630   67.0770  226.4330 C   0  0  0  0  0  0  0  0  0  0  0  0
  133.5590   66.6929  227.4638 H   0  0  0  0  0  0  0  0  0  0  0  0
  132.6611   66.7286  225.9083 H   0  0  0  0  0  0  0  0  0  0  0  0
  134.4573   66.7097  225.9083 H   0  0  0  0  0  0  0  0  0  0  0  0
  135.1370   68.7520  224.5660 C   0  0  0  0  0  0  0  0  0  0  0  0
  135.1674   67.6621  224.4201 H   0  0  0  0  0  0  0  0  0  0  0  0
  1  2  1  0
  2  3  2  0
  3  4  1  0
  3  5  1  0
  5  6  2  0
  6  7  1  0
  7  8  2  0
  8  9  1  0
  8 10  1  0
 10 11  1  0
 10 12  2  0
 12 13  1  0
 12 14  1  0
 14 15  1  0
 14 16  2  0
 16 17  1  0
 17 18  2  0
 17 19  1  0
 19 20  1  0
 20 21  1  0
 20 22  1  0
 20 23  1  0
 23 24  1  0
 23 25  1  0
 25 26  1  0
 25 27  1  0
 25 28  1  0
 28 29  1  0
 28 30  1  0
 28 31  1  0
 31 32  1  0
 31 33  1  0
 31 34  1  0
 34 35  1  0
 34 36  1  0
 34 37  1  0
 37 38  1  0
 37 39  1  0
  2 40  1  0
 40 41  2  0
 41 42  1  0
 41 43  1  0
 43 44  1  0
 43 45  2  0
 45 46  1  0
 45 47  1  0
 47 48  1  0
 48 49  1  0
 49 50  1  0
 49 51  1  0
 49 52  1  0
 47 53  2  0
 53 54  1  0
 19  5  1  0
 37 23  1  0
 53 40  1  0
 16  7  1  0
M  END
>  <UniqueID>  (15) 
71

>  <SMILES>  (15) 
COc1cccc(/C=C/c2nc3ccccc3c(=O)n2CC2CCCCC2)c1

>  <Energy>  (15) 
71.5097539010311

>  <Genealogy>  (15) 
COc1cccc(/C=C/c2nc3ccccc3c(=O)n2CC2CCCCC2)c1 (cis-trans isomerization)
COc1cccc(/C=C/c2nc3ccccc3c(=O)n2CC2CCCCC2)c1 (3D coordinates assigned)
COc1cccc(/C=C/c2nc3ccccc3c(=O)n2CC2CCCCC2)c1 (nonaromatic ring conformer: 71.5097539010311 kcal/mol)

>  <smiles>  (15) 
COc1cccc(/C=C/c2nc3ccccc3c(=O)n2CC2CCCCC2)c1

>  <score_type>  (15) 
oracle

>  <origin>  (15) 
autodockgpu

>  <m_score__min__energy>  (15) 
-7.3499999999999996

>  <m_primary>  (15) 
energy

>  <meeko>  (15) 
{"free_energy": -7.11, "intermolecular_energy": -8.9, "internal_energy": -1.62, "cluster_size": 3, "cluster_id": 3, "rank_in_cluster": 2}

>  <energy>  (15) 
-6.65

>  <cluster_rmsd>  (15) 
0.0

>  <rmsd>  (15) 
270.99

>  <cluster>  (15) 
9

$$$$
SDBQQCBUKDXRSS-CCEZHUSRNA-N
     RDKit          3D

 54 57  0  0  0  0  0  0  0  0999 V2000
  139.2740   73.9313  222.6622 H   0  0  0  0  0  0  0  0  0  0  0  0
  139.7280   72.9960  222.3030 C   0  0  0  0  0  0  0  0  0  0  0  0
  139.0900   71.8420  222.5310 C   0  0  0  0  0  0  0  0  0  0  0  0
  138.3190   71.5039  221.8231 H   0  0  0  0  0  0  0  0  0  0  0  0
  139.4010   71.0090  223.7190 C   0  0  0  0  0  0  0  0  0  0  0  0
  140.0150   71.6210  224.7660 N   0  0  0  0  0  0  0  0  0  0  0  0
  140.2800   70.9740  225.9220 C   0  0  0  0  0  0  0  0  0  0  0  0
  140.9140   71.6470  226.9730 C   0  0  0  0  0  0  0  0  0  0  0  0
  141.2228   72.6953  226.8474 H   0  0  0  0  0  0  0  0  0  0  0  0
  141.1550   70.9880  228.1820 C   0  0  0  0  0  0  0  0  0  0  0  0
  141.6524   71.5185  229.0073 H   0  0  0  0  0  0  0  0  0  0  0  0
  140.7650   69.6570  228.3430 C   0  0  0  0  0  0  0  0  0  0  0  0
  140.9510   69.1420  229.2970 H   0  0  0  0  0  0  0  0  0  0  0  0
  140.1380   68.9770  227.2930 C   0  0  0  0  0  0  0  0  0  0  0  0
  139.8357   67.9273  227.4223 H   0  0  0  0  0  0  0  0  0  0  0  0
  139.8930   69.6330  226.0710 C   0  0  0  0  0  0  0  0  0  0  0  0
  139.2760   68.9940  224.9820 C   0  0  0  0  0  0  0  0  0  0  0  0
  138.9140   67.7890  225.1020 O   0  0  0  0  0  0  0  0  0  0  0  0
  139.0650   69.6690  223.7990 N   0  0  0  0  0  0  0  0  0  0  0  0
  138.5110   68.9290  222.6350 C   0  0  0  0  0  0  0  0  0  0  0  0
  138.0285   68.0123  223.0049 H   0  0  0  0  0  0  0  0  0  0  0  0
  137.8031   69.6054  222.1336 H   0  0  0  0  0  0  0  0  0  0  0  0
  139.5770   68.5290  221.5800 C   0  0  0  0  0  0  0  0  0  0  0  0
  140.5347   68.6887  222.0970 H   0  0  0  0  0  0  0  0  0  0  0  0
  139.5170   67.0370  221.1690 C   0  0  0  0  0  0  0  0  0  0  0  0
  139.8870   66.4294  222.0080 H   0  0  0  0  0  0  0  0  0  0  0  0
  138.4694   66.8111  220.9211 H   0  0  0  0  0  0  0  0  0  0  0  0
  140.3620   66.7090  219.9170 C   0  0  0  0  0  0  0  0  0  0  0  0
  140.8713   65.7475  220.0787 H   0  0  0  0  0  0  0  0  0  0  0  0
  139.6776   66.6686  219.0568 H   0  0  0  0  0  0  0  0  0  0  0  0
  141.4170   67.7770  219.6170 C   0  0  0  0  0  0  0  0  0  0  0  0
  142.1227   67.8286  220.4592 H   0  0  0  0  0  0  0  0  0  0  0  0
  141.9353   67.4981  218.6877 H   0  0  0  0  0  0  0  0  0  0  0  0
  140.7760   69.1650  219.4150 C   0  0  0  0  0  0  0  0  0  0  0  0
  141.5365   69.9322  219.6225 H   0  0  0  0  0  0  0  0  0  0  0  0
  140.4131   69.2033  218.3773 H   0  0  0  0  0  0  0  0  0  0  0  0
  139.5580   69.4260  220.3290 C   0  0  0  0  0  0  0  0  0  0  0  0
  139.5705   70.4792  220.6462 H   0  0  0  0  0  0  0  0  0  0  0  0
  138.6469   69.1951  219.7575 H   0  0  0  0  0  0  0  0  0  0  0  0
  141.0210   73.0620  221.5860 C   0  0  0  0  0  0  0  0  0  0  0  0
  141.8300   71.9160  221.5360 C   0  0  0  0  0  0  0  0  0  0  0  0
  141.5022   70.9920  222.0347 H   0  0  0  0  0  0  0  0  0  0  0  0
  143.0490   71.9440  220.8560 C   0  0  0  0  0  0  0  0  0  0  0  0
  143.6705   71.0377  220.8078 H   0  0  0  0  0  0  0  0  0  0  0  0
  143.4820   73.1180  220.2370 C   0  0  0  0  0  0  0  0  0  0  0  0
  144.4383   73.1282  219.6936 H   0  0  0  0  0  0  0  0  0  0  0  0
  142.7080   74.2820  220.3030 C   0  0  0  0  0  0  0  0  0  0  0  0
  143.2000   75.4440  219.6910 O   0  0  0  0  0  0  0  0  0  0  0  0
  142.5790   76.7230  219.7780 C   0  0  0  0  0  0  0  0  0  0  0  0
  142.4468   76.9952  220.8356 H   0  0  0  0  0  0  0  0  0  0  0  0
  143.2133   77.4730  219.2828 H   0  0  0  0  0  0  0  0  0  0  0  0
  141.5974   76.6884  219.2828 H   0  0  0  0  0  0  0  0  0  0  0  0
  141.4730   74.2510  220.9800 C   0  0  0  0  0  0  0  0  0  0  0  0
  140.8575   75.1610  221.0359 H   0  0  0  0  0  0  0  0  0  0  0  0
  1  2  1  0
  2  3  2  0
  3  4  1  0
  3  5  1  0
  5  6  2  0
  6  7  1  0
  7  8  2  0
  8  9  1  0
  8 10  1  0
 10 11  1  0
 10 12  2  0
 12 13  1  0
 12 14  1  0
 14 15  1  0
 14 16  2  0
 16 17  1  0
 17 18  2  0
 17 19  1  0
 19 20  1  0
 20 21  1  0
 20 22  1  0
 20 23  1  0
 23 24  1  0
 23 25  1  0
 25 26  1  0
 25 27  1  0
 25 28  1  0
 28 29  1  0
 28 30  1  0
 28 31  1  0
 31 32  1  0
 31 33  1  0
 31 34  1  0
 34 35  1  0
 34 36  1  0
 34 37  1  0
 37 38  1  0
 37 39  1  0
  2 40  1  0
 40 41  2  0
 41 42  1  0
 41 43  1  0
 43 44  1  0
 43 45  2  0
 45 46  1  0
 45 47  1  0
 47 48  1  0
 48 49  1  0
 49 50  1  0
 49 51  1  0
 49 52  1  0
 47 53  2  0
 53 54  1  0
 19  5  1  0
 37 23  1  0
 53 40  1  0
 16  7  1  0
M  END
>  <UniqueID>  (16) 
71

>  <SMILES>  (16) 
COc1cccc(/C=C/c2nc3ccccc3c(=O)n2CC2CCCCC2)c1

>  <Energy>  (16) 
71.5097539010311

>  <Genealogy>  (16) 
COc1cccc(/C=C/c2nc3ccccc3c(=O)n2CC2CCCCC2)c1 (cis-trans isomerization)
COc1cccc(/C=C/c2nc3ccccc3c(=O)n2CC2CCCCC2)c1 (3D coordinates assigned)
COc1cccc(/C=C/c2nc3ccccc3c(=O)n2CC2CCCCC2)c1 (nonaromatic ring conformer: 71.5097539010311 kcal/mol)

>  <smiles>  (16) 
COc1cccc(/C=C/c2nc3ccccc3c(=O)n2CC2CCCCC2)c1

>  <score_type>  (16) 
oracle

>  <origin>  (16) 
autodockgpu

>  <m_score__min__energy>  (16) 
-7.3499999999999996

>  <m_primary>  (16) 
energy

>  <meeko>  (16) 
{"free_energy": -6.86, "intermolecular_energy": -8.65, "internal_energy": -1.68, "cluster_size": 2, "cluster_id": 6, "rank_in_cluster": 2}

>  <energy>  (16) 
-6.62

>  <cluster_rmsd>  (16) 
0.0

>  <rmsd>  (16) 
271.85

>  <cluster>  (16) 
10

$$$$
SDBQQCBUKDXRSS-CCEZHUSRNA-N
     RDKit          3D

 54 57  0  0  0  0  0  0  0  0999 V2000
  140.8285   73.6458  221.9936 H   0  0  0  0  0  0  0  0  0  0  0  0
  140.8400   72.5680  221.7740 C   0  0  0  0  0  0  0  0  0  0  0  0
  139.8350   71.8080  222.2260 C   0  0  0  0  0  0  0  0  0  0  0  0
  138.9010   71.7511  221.6477 H   0  0  0  0  0  0  0  0  0  0  0  0
  139.9540   71.0410  223.4900 C   0  0  0  0  0  0  0  0  0  0  0  0
  140.4340   71.7020  224.5760 N   0  0  0  0  0  0  0  0  0  0  0  0
  140.5170   71.1200  225.7930 C   0  0  0  0  0  0  0  0  0  0  0  0
  141.0170   71.8420  226.8830 C   0  0  0  0  0  0  0  0  0  0  0  0
  141.3693   72.8746  226.7431 H   0  0  0  0  0  0  0  0  0  0  0  0
  141.0690   71.2520  228.1490 C   0  0  0  0  0  0  0  0  0  0  0  0
  141.4615   71.8208  229.0048 H   0  0  0  0  0  0  0  0  0  0  0  0
  140.6230   69.9410  228.3280 C   0  0  0  0  0  0  0  0  0  0  0  0
  140.6595   69.4805  229.3263 H   0  0  0  0  0  0  0  0  0  0  0  0
  140.1300   69.2120  227.2410 C   0  0  0  0  0  0  0  0  0  0  0  0
  139.7841   68.1779  227.3859 H   0  0  0  0  0  0  0  0  0  0  0  0
  140.0750   69.7980  225.9610 C   0  0  0  0  0  0  0  0  0  0  0  0
  139.5980   69.1090  224.8350 C   0  0  0  0  0  0  0  0  0  0  0  0
  139.1900   67.9200  224.9700 O   0  0  0  0  0  0  0  0  0  0  0  0
  139.5730   69.7150  223.5970 N   0  0  0  0  0  0  0  0  0  0  0  0
  139.1650   68.9180  222.4110 C   0  0  0  0  0  0  0  0  0  0  0  0
  139.5972   69.3857  221.5141 H   0  0  0  0  0  0  0  0  0  0  0  0
  139.5330   67.8941  222.5725 H   0  0  0  0  0  0  0  0  0  0  0  0
  137.6280   68.8190  222.2180 C   0  0  0  0  0  0  0  0  0  0  0  0
  137.4277   69.4537  221.3422 H   0  0  0  0  0  0  0  0  0  0  0  0
  137.1360   67.3900  221.8770 C   0  0  0  0  0  0  0  0  0  0  0  0
  137.4422   67.1523  220.8476 H   0  0  0  0  0  0  0  0  0  0  0  0
  137.5861   66.7075  222.6130 H   0  0  0  0  0  0  0  0  0  0  0  0
  135.6020   67.2270  221.9820 C   0  0  0  0  0  0  0  0  0  0  0  0
  135.2553   66.6119  221.1385 H   0  0  0  0  0  0  0  0  0  0  0  0
  135.3849   66.7516  222.9499 H   0  0  0  0  0  0  0  0  0  0  0  0
  134.8600   68.5650  221.9490 C   0  0  0  0  0  0  0  0  0  0  0  0
  135.0511   69.0553  220.9830 H   0  0  0  0  0  0  0  0  0  0  0  0
  133.7865   68.3662  222.0835 H   0  0  0  0  0  0  0  0  0  0  0  0
  135.3230   69.5000  223.0850 C   0  0  0  0  0  0  0  0  0  0  0  0
  135.1078   70.5378  222.7905 H   0  0  0  0  0  0  0  0  0  0  0  0
  134.7771   69.2001  223.9917 H   0  0  0  0  0  0  0  0  0  0  0  0
  136.8310   69.3860  223.4060 C   0  0  0  0  0  0  0  0  0  0  0  0
  137.2194   70.3857  223.6504 H   0  0  0  0  0  0  0  0  0  0  0  0
  136.9481   68.6972  224.2556 H   0  0  0  0  0  0  0  0  0  0  0  0
  141.9660   72.0130  220.9900 C   0  0  0  0  0  0  0  0  0  0  0  0
  141.8240   70.7490  220.3960 C   0  0  0  0  0  0  0  0  0  0  0  0
  140.8892   70.1842  220.5269 H   0  0  0  0  0  0  0  0  0  0  0  0
  142.8640   70.2060  219.6400 C   0  0  0  0  0  0  0  0  0  0  0  0
  142.7399   69.2216  219.1651 H   0  0  0  0  0  0  0  0  0  0  0  0
  144.0610   70.9070  219.4840 C   0  0  0  0  0  0  0  0  0  0  0  0
  144.8707   70.4767  218.8764 H   0  0  0  0  0  0  0  0  0  0  0  0
  144.2380   72.1530  220.0950 C   0  0  0  0  0  0  0  0  0  0  0  0
  145.4700   72.8050  219.9340 O   0  0  0  0  0  0  0  0  0  0  0  0
  146.0160   73.7320  220.8670 C   0  0  0  0  0  0  0  0  0  0  0  0
  145.8118   73.3852  221.8907 H   0  0  0  0  0  0  0  0  0  0  0  0
  147.1029   73.8076  220.7155 H   0  0  0  0  0  0  0  0  0  0  0  0
  145.5551   74.7192  220.7155 H   0  0  0  0  0  0  0  0  0  0  0  0
  143.1840   72.7070  220.8490 C   0  0  0  0  0  0  0  0  0  0  0  0
  143.3132   73.6876  221.3305 H   0  0  0  0  0  0  0  0  0  0  0  0
  1  2  1  0
  2  3  2  0
  3  4  1  0
  3  5  1  0
  5  6  2  0
  6  7  1  0
  7  8  2  0
  8  9  1  0
  8 10  1  0
 10 11  1  0
 10 12  2  0
 12 13  1  0
 12 14  1  0
 14 15  1  0
 14 16  2  0
 16 17  1  0
 17 18  2  0
 17 19  1  0
 19 20  1  0
 20 21  1  0
 20 22  1  0
 20 23  1  0
 23 24  1  0
 23 25  1  0
 25 26  1  0
 25 27  1  0
 25 28  1  0
 28 29  1  0
 28 30  1  0
 28 31  1  0
 31 32  1  0
 31 33  1  0
 31 34  1  0
 34 35  1  0
 34 36  1  0
 34 37  1  0
 37 38  1  0
 37 39  1  0
  2 40  1  0
 40 41  2  0
 41 42  1  0
 41 43  1  0
 43 44  1  0
 43 45  2  0
 45 46  1  0
 45 47  1  0
 47 48  1  0
 48 49  1  0
 49 50  1  0
 49 51  1  0
 49 52  1  0
 47 53  2  0
 53 54  1  0
 19  5  1  0
 37 23  1  0
 53 40  1  0
 16  7  1  0
M  END
>  <UniqueID>  (17) 
71

>  <SMILES>  (17) 
COc1cccc(/C=C/c2nc3ccccc3c(=O)n2CC2CCCCC2)c1

>  <Energy>  (17) 
71.5097539010311

>  <Genealogy>  (17) 
COc1cccc(/C=C/c2nc3ccccc3c(=O)n2CC2CCCCC2)c1 (cis-trans isomerization)
COc1cccc(/C=C/c2nc3ccccc3c(=O)n2CC2CCCCC2)c1 (3D coordinates assigned)
COc1cccc(/C=C/c2nc3ccccc3c(=O)n2CC2CCCCC2)c1 (nonaromatic ring conformer: 71.5097539010311 kcal/mol)

>  <smiles>  (17) 
COc1cccc(/C=C/c2nc3ccccc3c(=O)n2CC2CCCCC2)c1

>  <score_type>  (17) 
oracle

>  <origin>  (17) 
autodockgpu

>  <m_score__min__energy>  (17) 
-7.3499999999999996

>  <m_primary>  (17) 
energy

>  <meeko>  (17) 
{"free_energy": -7.06, "intermolecular_energy": -8.85, "internal_energy": -1.35, "cluster_size": 2, "cluster_id": 6, "rank_in_cluster": 1}

>  <energy>  (17) 
-6.4

>  <cluster_rmsd>  (17) 
0.71

>  <rmsd>  (17) 
271.62

>  <cluster>  (17) 
10

$$$$
SDBQQCBUKDXRSS-CCEZHUSRNA-N
     RDKit          3D

 54 57  0  0  0  0  0  0  0  0999 V2000
  143.7784   80.0483  223.2490 H   0  0  0  0  0  0  0  0  0  0  0  0
  142.7320   79.8960  222.9460 C   0  0  0  0  0  0  0  0  0  0  0  0
  142.0490   78.8760  223.4800 C   0  0  0  0  0  0  0  0  0  0  0  0
  142.5958   78.0769  224.0020 H   0  0  0  0  0  0  0  0  0  0  0  0
  140.5710   78.8000  223.3830 C   0  0  0  0  0  0  0  0  0  0  0  0
  139.8560   79.7910  223.9770 N   0  0  0  0  0  0  0  0  0  0  0  0
  138.5090   79.8570  223.8900 C   0  0  0  0  0  0  0  0  0  0  0  0
  137.8160   80.8990  224.5180 C   0  0  0  0  0  0  0  0  0  0  0  0
  138.3658   81.6483  225.1065 H   0  0  0  0  0  0  0  0  0  0  0  0
  136.4270   80.9880  224.3980 C   0  0  0  0  0  0  0  0  0  0  0  0
  135.8841   81.8071  224.8923 H   0  0  0  0  0  0  0  0  0  0  0  0
  135.7270   80.0380  223.6510 C   0  0  0  0  0  0  0  0  0  0  0  0
  134.6341   80.1136  223.5522 H   0  0  0  0  0  0  0  0  0  0  0  0
  136.4140   78.9900  223.0280 C   0  0  0  0  0  0  0  0  0  0  0  0
  135.8587   78.2404  222.4451 H   0  0  0  0  0  0  0  0  0  0  0  0
  137.8140   78.8920  223.1450 C   0  0  0  0  0  0  0  0  0  0  0  0
  138.5510   77.8560  222.5480 C   0  0  0  0  0  0  0  0  0  0  0  0
  137.9410   76.9830  221.8680 O   0  0  0  0  0  0  0  0  0  0  0  0
  139.9190   77.7900  222.6970 N   0  0  0  0  0  0  0  0  0  0  0  0
  140.6500   76.6200  222.1440 C   0  0  0  0  0  0  0  0  0  0  0  0
  141.3635   76.2669  222.9031 H   0  0  0  0  0  0  0  0  0  0  0  0
  139.8943   75.8620  221.8901 H   0  0  0  0  0  0  0  0  0  0  0  0
  141.4350   76.9280  220.8410 C   0  0  0  0  0  0  0  0  0  0  0  0
  142.1692   77.6880  221.1466 H   0  0  0  0  0  0  0  0  0  0  0  0
  142.2260   75.7160  220.2900 C   0  0  0  0  0  0  0  0  0  0  0  0
  143.0837   75.5292  220.9529 H   0  0  0  0  0  0  0  0  0  0  0  0
  141.5314   74.8636  220.2571 H   0  0  0  0  0  0  0  0  0  0  0  0
  142.7550   75.9280  218.8530 C   0  0  0  0  0  0  0  0  0  0  0  0
  143.7745   75.5197  218.7899 H   0  0  0  0  0  0  0  0  0  0  0  0
  142.0662   75.4132  218.1670 H   0  0  0  0  0  0  0  0  0  0  0  0
  142.7930   77.4030  218.4470 C   0  0  0  0  0  0  0  0  0  0  0  0
  143.4871   77.9383  219.1116 H   0  0  0  0  0  0  0  0  0  0  0  0
  143.1259   77.4631  217.4003 H   0  0  0  0  0  0  0  0  0  0  0  0
  141.4000   78.0560  218.5480 C   0  0  0  0  0  0  0  0  0  0  0  0
  141.5330   79.1415  218.6661 H   0  0  0  0  0  0  0  0  0  0  0  0
  140.8562   77.7977  217.6274 H   0  0  0  0  0  0  0  0  0  0  0  0
  140.5550   77.5360  219.7330 C   0  0  0  0  0  0  0  0  0  0  0  0
  139.9800   78.3736  220.1547 H   0  0  0  0  0  0  0  0  0  0  0  0
  139.8872   76.7474  219.3561 H   0  0  0  0  0  0  0  0  0  0  0  0
  142.1330   80.8260  221.9640 C   0  0  0  0  0  0  0  0  0  0  0  0
  141.5490   82.0170  222.4220 C   0  0  0  0  0  0  0  0  0  0  0  0
  141.5340   82.2401  223.4990 H   0  0  0  0  0  0  0  0  0  0  0  0
  140.9870   82.9200  221.5180 C   0  0  0  0  0  0  0  0  0  0  0  0
  140.5443   83.8582  221.8838 H   0  0  0  0  0  0  0  0  0  0  0  0
  140.9850   82.6360  220.1510 C   0  0  0  0  0  0  0  0  0  0  0  0
  140.5521   83.3588  219.4438 H   0  0  0  0  0  0  0  0  0  0  0  0
  141.5300   81.4380  219.6740 C   0  0  0  0  0  0  0  0  0  0  0  0
  141.4760   81.1850  218.2950 O   0  0  0  0  0  0  0  0  0  0  0  0
  142.6190   81.0600  217.4560 C   0  0  0  0  0  0  0  0  0  0  0  0
  143.5211   80.9613  218.0776 H   0  0  0  0  0  0  0  0  0  0  0  0
  142.5120   80.1682  216.8210 H   0  0  0  0  0  0  0  0  0  0  0  0
  142.7072   81.9538  216.8210 H   0  0  0  0  0  0  0  0  0  0  0  0
  142.1070   80.5330  220.5860 C   0  0  0  0  0  0  0  0  0  0  0  0
  142.5405   79.5906  220.2199 H   0  0  0  0  0  0  0  0  0  0  0  0
  1  2  1  0
  2  3  2  0
  3  4  1  0
  3  5  1  0
  5  6  2  0
  6  7  1  0
  7  8  2  0
  8  9  1  0
  8 10  1  0
 10 11  1  0
 10 12  2  0
 12 13  1  0
 12 14  1  0
 14 15  1  0
 14 16  2  0
 16 17  1  0
 17 18  2  0
 17 19  1  0
 19 20  1  0
 20 21  1  0
 20 22  1  0
 20 23  1  0
 23 24  1  0
 23 25  1  0
 25 26  1  0
 25 27  1  0
 25 28  1  0
 28 29  1  0
 28 30  1  0
 28 31  1  0
 31 32  1  0
 31 33  1  0
 31 34  1  0
 34 35  1  0
 34 36  1  0
 34 37  1  0
 37 38  1  0
 37 39  1  0
  2 40  1  0
 40 41  2  0
 41 42  1  0
 41 43  1  0
 43 44  1  0
 43 45  2  0
 45 46  1  0
 45 47  1  0
 47 48  1  0
 48 49  1  0
 49 50  1  0
 49 51  1  0
 49 52  1  0
 47 53  2  0
 53 54  1  0
 19  5  1  0
 37 23  1  0
 53 40  1  0
 16  7  1  0
M  END
>  <UniqueID>  (18) 
71

>  <SMILES>  (18) 
COc1cccc(/C=C/c2nc3ccccc3c(=O)n2CC2CCCCC2)c1

>  <Energy>  (18) 
71.5097539010311

>  <Genealogy>  (18) 
COc1cccc(/C=C/c2nc3ccccc3c(=O)n2CC2CCCCC2)c1 (cis-trans isomerization)
COc1cccc(/C=C/c2nc3ccccc3c(=O)n2CC2CCCCC2)c1 (3D coordinates assigned)
COc1cccc(/C=C/c2nc3ccccc3c(=O)n2CC2CCCCC2)c1 (nonaromatic ring conformer: 71.5097539010311 kcal/mol)

>  <smiles>  (18) 
COc1cccc(/C=C/c2nc3ccccc3c(=O)n2CC2CCCCC2)c1

>  <score_type>  (18) 
oracle

>  <origin>  (18) 
autodockgpu

>  <m_score__min__energy>  (18) 
-7.3499999999999996

>  <m_primary>  (18) 
energy

>  <meeko>  (18) 
{"free_energy": -6.12, "intermolecular_energy": -7.91, "internal_energy": -2.3, "cluster_size": 3, "cluster_id": 11, "rank_in_cluster": 1}

>  <energy>  (18) 
-6.12

>  <cluster_rmsd>  (18) 
0.0

>  <rmsd>  (18) 
271.5

>  <cluster>  (18) 
11

$$$$
SDBQQCBUKDXRSS-CCEZHUSRNA-N
     RDKit          3D

 54 57  0  0  0  0  0  0  0  0999 V2000
  141.5279   74.2491  218.3365 H   0  0  0  0  0  0  0  0  0  0  0  0
  142.2760   74.9220  218.7810 C   0  0  0  0  0  0  0  0  0  0  0  0
  142.0040   76.2310  218.8510 C   0  0  0  0  0  0  0  0  0  0  0  0
  142.1242   76.8547  217.9529 H   0  0  0  0  0  0  0  0  0  0  0  0
  141.5440   76.8580  220.1140 C   0  0  0  0  0  0  0  0  0  0  0  0
  142.2230   77.9520  220.5500 N   0  0  0  0  0  0  0  0  0  0  0  0
  141.8450   78.6410  221.6490 C   0  0  0  0  0  0  0  0  0  0  0  0
  142.5760   79.7630  222.0590 C   0  0  0  0  0  0  0  0  0  0  0  0
  143.4749   80.0665  221.5023 H   0  0  0  0  0  0  0  0  0  0  0  0
  142.1650   80.4970  223.1740 C   0  0  0  0  0  0  0  0  0  0  0  0
  142.7400   81.3785  223.4939 H   0  0  0  0  0  0  0  0  0  0  0  0
  141.0250   80.1130  223.8830 C   0  0  0  0  0  0  0  0  0  0  0  0
  140.6997   80.6959  224.7573 H   0  0  0  0  0  0  0  0  0  0  0  0
  140.2960   78.9880  223.4830 C   0  0  0  0  0  0  0  0  0  0  0  0
  139.4011   78.6858  224.0468 H   0  0  0  0  0  0  0  0  0  0  0  0
  140.7040   78.2410  222.3610 C   0  0  0  0  0  0  0  0  0  0  0  0
  140.0140   77.1000  221.9230 C   0  0  0  0  0  0  0  0  0  0  0  0
  138.9790   76.7300  222.5480 O   0  0  0  0  0  0  0  0  0  0  0  0
  140.4540   76.3900  220.8260 N   0  0  0  0  0  0  0  0  0  0  0  0
  139.7630   75.1260  220.4600 C   0  0  0  0  0  0  0  0  0  0  0  0
  138.6808   75.3203  220.4256 H   0  0  0  0  0  0  0  0  0  0  0  0
  140.1668   74.8117  219.4862 H   0  0  0  0  0  0  0  0  0  0  0  0
  140.0190   73.9590  221.4520 C   0  0  0  0  0  0  0  0  0  0  0  0
  140.5066   74.4421  222.3116 H   0  0  0  0  0  0  0  0  0  0  0  0
  138.7230   73.2900  221.9720 C   0  0  0  0  0  0  0  0  0  0  0  0
  138.2265   73.9844  222.6657 H   0  0  0  0  0  0  0  0  0  0  0  0
  138.1005   73.0627  221.0940 H   0  0  0  0  0  0  0  0  0  0  0  0
  138.9740   71.9550  222.7110 C   0  0  0  0  0  0  0  0  0  0  0  0
  138.3188   71.9132  223.5936 H   0  0  0  0  0  0  0  0  0  0  0  0
  138.7591   71.1397  222.0046 H   0  0  0  0  0  0  0  0  0  0  0  0
  140.4250   71.7960  223.1710 C   0  0  0  0  0  0  0  0  0  0  0  0
  140.6608   72.5940  223.8904 H   0  0  0  0  0  0  0  0  0  0  0  0
  140.5320   70.8044  223.6349 H   0  0  0  0  0  0  0  0  0  0  0  0
  141.4090   71.8830  221.9870 C   0  0  0  0  0  0  0  0  0  0  0  0
  142.3932   72.1849  222.3746 H   0  0  0  0  0  0  0  0  0  0  0  0
  141.4313   70.8904  221.5136 H   0  0  0  0  0  0  0  0  0  0  0  0
  140.9820   72.8940  220.8980 C   0  0  0  0  0  0  0  0  0  0  0  0
  141.8794   73.3950  220.5059 H   0  0  0  0  0  0  0  0  0  0  0  0
  140.4591   72.3405  220.1041 H   0  0  0  0  0  0  0  0  0  0  0  0
  143.5450   74.3460  219.2790 C   0  0  0  0  0  0  0  0  0  0  0  0
  144.2070   74.9780  220.3430 C   0  0  0  0  0  0  0  0  0  0  0  0
  143.7847   75.8926  220.7848 H   0  0  0  0  0  0  0  0  0  0  0  0
  145.3990   74.4510  220.8430 C   0  0  0  0  0  0  0  0  0  0  0  0
  145.9045   74.9434  221.6868 H   0  0  0  0  0  0  0  0  0  0  0  0
  145.9520   73.3010  220.2760 C   0  0  0  0  0  0  0  0  0  0  0  0
  146.8850   72.8851  220.6840 H   0  0  0  0  0  0  0  0  0  0  0  0
  145.3270   72.6740  219.1920 C   0  0  0  0  0  0  0  0  0  0  0  0
  145.9380   71.5390  218.6370 O   0  0  0  0  0  0  0  0  0  0  0  0
  145.4700   70.2070  218.8160 C   0  0  0  0  0  0  0  0  0  0  0  0
  145.3927   69.9869  219.8910 H   0  0  0  0  0  0  0  0  0  0  0  0
  144.4804   70.1000  218.3477 H   0  0  0  0  0  0  0  0  0  0  0  0
  146.1752   69.5046  218.3477 H   0  0  0  0  0  0  0  0  0  0  0  0
  144.1180   73.2000  218.6940 C   0  0  0  0  0  0  0  0  0  0  0  0
  143.6189   72.7127  217.8434 H   0  0  0  0  0  0  0  0  0  0  0  0
  1  2  1  0
  2  3  2  0
  3  4  1  0
  3  5  1  0
  5  6  2  0
  6  7  1  0
  7  8  2  0
  8  9  1  0
  8 10  1  0
 10 11  1  0
 10 12  2  0
 12 13  1  0
 12 14  1  0
 14 15  1  0
 14 16  2  0
 16 17  1  0
 17 18  2  0
 17 19  1  0
 19 20  1  0
 20 21  1  0
 20 22  1  0
 20 23  1  0
 23 24  1  0
 23 25  1  0
 25 26  1  0
 25 27  1  0
 25 28  1  0
 28 29  1  0
 28 30  1  0
 28 31  1  0
 31 32  1  0
 31 33  1  0
 31 34  1  0
 34 35  1  0
 34 36  1  0
 34 37  1  0
 37 38  1  0
 37 39  1  0
  2 40  1  0
 40 41  2  0
 41 42  1  0
 41 43  1  0
 43 44  1  0
 43 45  2  0
 45 46  1  0
 45 47  1  0
 47 48  1  0
 48 49  1  0
 49 50  1  0
 49 51  1  0
 49 52  1  0
 47 53  2  0
 53 54  1  0
 19  5  1  0
 37 23  1  0
 53 40  1  0
 16  7  1  0
M  END
>  <UniqueID>  (19) 
71

>  <SMILES>  (19) 
COc1cccc(/C=C/c2nc3ccccc3c(=O)n2CC2CCCCC2)c1

>  <Energy>  (19) 
71.5097539010311

>  <Genealogy>  (19) 
COc1cccc(/C=C/c2nc3ccccc3c(=O)n2CC2CCCCC2)c1 (cis-trans isomerization)
COc1cccc(/C=C/c2nc3ccccc3c(=O)n2CC2CCCCC2)c1 (3D coordinates assigned)
COc1cccc(/C=C/c2nc3ccccc3c(=O)n2CC2CCCCC2)c1 (nonaromatic ring conformer: 71.5097539010311 kcal/mol)

>  <smiles>  (19) 
COc1cccc(/C=C/c2nc3ccccc3c(=O)n2CC2CCCCC2)c1

>  <score_type>  (19) 
oracle

>  <origin>  (19) 
autodockgpu

>  <m_score__min__energy>  (19) 
-7.3499999999999996

>  <m_primary>  (19) 
energy

>  <meeko>  (19) 
{"free_energy": -6.82, "intermolecular_energy": -8.61, "internal_energy": -1.6, "cluster_size": 1, "cluster_id": 8, "rank_in_cluster": 1}

>  <energy>  (19) 
-6.09

>  <cluster_rmsd>  (19) 
0.24

>  <rmsd>  (19) 
271.49

>  <cluster>  (19) 
11

$$$$
SDBQQCBUKDXRSS-CCEZHUSRNA-N
     RDKit          3D

 54 57  0  0  0  0  0  0  0  0999 V2000
  135.9620   70.6501  222.9497 H   0  0  0  0  0  0  0  0  0  0  0  0
  136.5430   71.5160  223.3000 C   0  0  0  0  0  0  0  0  0  0  0  0
  137.8800   71.4440  223.2840 C   0  0  0  0  0  0  0  0  0  0  0  0
  138.4375   71.9629  222.4903 H   0  0  0  0  0  0  0  0  0  0  0  0
  138.6250   70.6800  224.3130 C   0  0  0  0  0  0  0  0  0  0  0  0
  139.3610   71.3920  225.2070 N   0  0  0  0  0  0  0  0  0  0  0  0
  140.0220   70.8020  226.2270 C   0  0  0  0  0  0  0  0  0  0  0  0
  140.7660   71.5780  227.1230 C   0  0  0  0  0  0  0  0  0  0  0  0
  140.8367   72.6664  226.9798 H   0  0  0  0  0  0  0  0  0  0  0  0
  141.4190   70.9720  228.1990 C   0  0  0  0  0  0  0  0  0  0  0  0
  142.0033   71.5837  228.9022 H   0  0  0  0  0  0  0  0  0  0  0  0
  141.3310   69.5910  228.3830 C   0  0  0  0  0  0  0  0  0  0  0  0
  141.8410   69.1168  229.2345 H   0  0  0  0  0  0  0  0  0  0  0  0
  140.5950   68.8090  227.4860 C   0  0  0  0  0  0  0  0  0  0  0  0
  140.5315   67.7205  227.6314 H   0  0  0  0  0  0  0  0  0  0  0  0
  139.9350   69.4120  226.3970 C   0  0  0  0  0  0  0  0  0  0  0  0
  139.1910   68.6730  225.4630 C   0  0  0  0  0  0  0  0  0  0  0  0
  139.0970   67.4200  225.6060 O   0  0  0  0  0  0  0  0  0  0  0  0
  138.5700   69.3000  224.4050 N   0  0  0  0  0  0  0  0  0  0  0  0
  137.8860   68.4730  223.3760 C   0  0  0  0  0  0  0  0  0  0  0  0
  137.4248   67.6089  223.8767 H   0  0  0  0  0  0  0  0  0  0  0  0
  137.1455   69.1220  222.8856 H   0  0  0  0  0  0  0  0  0  0  0  0
  138.8300   67.9460  222.2630 C   0  0  0  0  0  0  0  0  0  0  0  0
  139.8341   68.2332  222.6084 H   0  0  0  0  0  0  0  0  0  0  0  0
  138.8160   66.4050  222.1140 C   0  0  0  0  0  0  0  0  0  0  0  0
  139.3308   65.9663  222.9815 H   0  0  0  0  0  0  0  0  0  0  0  0
  137.7624   66.0946  222.0543 H   0  0  0  0  0  0  0  0  0  0  0  0
  139.5120   65.9050  220.8270 C   0  0  0  0  0  0  0  0  0  0  0  0
  140.1004   65.0083  221.0712 H   0  0  0  0  0  0  0  0  0  0  0  0
  138.7264   65.6884  220.0881 H   0  0  0  0  0  0  0  0  0  0  0  0
  140.4460   66.9510  220.2140 C   0  0  0  0  0  0  0  0  0  0  0  0
  141.2498   67.1756  220.9306 H   0  0  0  0  0  0  0  0  0  0  0  0
  140.8562   66.5405  219.2795 H   0  0  0  0  0  0  0  0  0  0  0  0
  139.6950   68.2560  219.8790 C   0  0  0  0  0  0  0  0  0  0  0  0
  140.4240   69.0793  219.8529 H   0  0  0  0  0  0  0  0  0  0  0  0
  139.2006   68.1025  218.9084 H   0  0  0  0  0  0  0  0  0  0  0  0
  138.5900   68.6150  220.8970 C   0  0  0  0  0  0  0  0  0  0  0  0
  138.5728   69.7064  221.0334 H   0  0  0  0  0  0  0  0  0  0  0  0
  137.6304   68.2501  220.5021 H   0  0  0  0  0  0  0  0  0  0  0  0
  135.8180   72.7160  223.7710 C   0  0  0  0  0  0  0  0  0  0  0  0
  135.9230   73.9070  223.0360 C   0  0  0  0  0  0  0  0  0  0  0  0
  136.5469   73.9385  222.1306 H   0  0  0  0  0  0  0  0  0  0  0  0
  135.2390   75.0520  223.4490 C   0  0  0  0  0  0  0  0  0  0  0  0
  135.3133   75.9776  222.8593 H   0  0  0  0  0  0  0  0  0  0  0  0
  134.4610   75.0260  224.6080 C   0  0  0  0  0  0  0  0  0  0  0  0
  133.9161   75.9292  224.9198 H   0  0  0  0  0  0  0  0  0  0  0  0
  134.3690   73.8600  225.3760 C   0  0  0  0  0  0  0  0  0  0  0  0
  133.5990   73.8930  226.5480 O   0  0  0  0  0  0  0  0  0  0  0  0
  132.5400   72.9870  226.8390 C   0  0  0  0  0  0  0  0  0  0  0  0
  132.4283   72.8915  227.9291 H   0  0  0  0  0  0  0  0  0  0  0  0
  131.6029   73.3672  226.4064 H   0  0  0  0  0  0  0  0  0  0  0  0
  132.7706   72.0023  226.4064 H   0  0  0  0  0  0  0  0  0  0  0  0
  135.0500   72.7010  224.9530 C   0  0  0  0  0  0  0  0  0  0  0  0
  134.9819   71.7789  225.5489 H   0  0  0  0  0  0  0  0  0  0  0  0
  1  2  1  0
  2  3  2  0
  3  4  1  0
  3  5  1  0
  5  6  2  0
  6  7  1  0
  7  8  2  0
  8  9  1  0
  8 10  1  0
 10 11  1  0
 10 12  2  0
 12 13  1  0
 12 14  1  0
 14 15  1  0
 14 16  2  0
 16 17  1  0
 17 18  2  0
 17 19  1  0
 19 20  1  0
 20 21  1  0
 20 22  1  0
 20 23  1  0
 23 24  1  0
 23 25  1  0
 25 26  1  0
 25 27  1  0
 25 28  1  0
 28 29  1  0
 28 30  1  0
 28 31  1  0
 31 32  1  0
 31 33  1  0
 31 34  1  0
 34 35  1  0
 34 36  1  0
 34 37  1  0
 37 38  1  0
 37 39  1  0
  2 40  1  0
 40 41  2  0
 41 42  1  0
 41 43  1  0
 43 44  1  0
 43 45  2  0
 45 46  1  0
 45 47  1  0
 47 48  1  0
 48 49  1  0
 49 50  1  0
 49 51  1  0
 49 52  1  0
 47 53  2  0
 53 54  1  0
 19  5  1  0
 37 23  1  0
 53 40  1  0
 16  7  1  0
M  END
>  <UniqueID>  (20) 
71

>  <SMILES>  (20) 
COc1cccc(/C=C/c2nc3ccccc3c(=O)n2CC2CCCCC2)c1

>  <Energy>  (20) 
71.5097539010311

>  <Genealogy>  (20) 
COc1cccc(/C=C/c2nc3ccccc3c(=O)n2CC2CCCCC2)c1 (cis-trans isomerization)
COc1cccc(/C=C/c2nc3ccccc3c(=O)n2CC2CCCCC2)c1 (3D coordinates assigned)
COc1cccc(/C=C/c2nc3ccccc3c(=O)n2CC2CCCCC2)c1 (nonaromatic ring conformer: 71.5097539010311 kcal/mol)

>  <smiles>  (20) 
COc1cccc(/C=C/c2nc3ccccc3c(=O)n2CC2CCCCC2)c1

>  <score_type>  (20) 
oracle

>  <origin>  (20) 
autodockgpu

>  <m_score__min__energy>  (20) 
-7.3499999999999996

>  <m_primary>  (20) 
energy

>  <meeko>  (20) 
{"free_energy": -7.33, "intermolecular_energy": -9.12, "internal_energy": -1.18, "cluster_size": 2, "cluster_id": 2, "rank_in_cluster": 1}

>  <energy>  (20) 
-6.06

>  <cluster_rmsd>  (20) 
0.24

>  <rmsd>  (20) 
271.49

>  <cluster>  (20) 
11

$$$$
SDBQQCBUKDXRSS-CCEZHUSRNA-N
     RDKit          3D

 54 57  0  0  0  0  0  0  0  0999 V2000
  139.6252   77.3838  223.5584 H   0  0  0  0  0  0  0  0  0  0  0  0
  139.2280   77.9330  222.6920 C   0  0  0  0  0  0  0  0  0  0  0  0
  139.3080   77.3690  221.4800 C   0  0  0  0  0  0  0  0  0  0  0  0
  138.4383   77.4116  220.8078 H   0  0  0  0  0  0  0  0  0  0  0  0
  140.5450   76.6880  221.0250 C   0  0  0  0  0  0  0  0  0  0  0  0
  140.6820   75.3730  221.3380 N   0  0  0  0  0  0  0  0  0  0  0  0
  141.7350   74.6390  220.9140 C   0  0  0  0  0  0  0  0  0  0  0  0
  141.8330   73.2860  221.2610 C   0  0  0  0  0  0  0  0  0  0  0  0
  141.0670   72.8267  221.9031 H   0  0  0  0  0  0  0  0  0  0  0  0
  142.9020   72.5190  220.7930 C   0  0  0  0  0  0  0  0  0  0  0  0
  142.9780   71.4566  221.0678 H   0  0  0  0  0  0  0  0  0  0  0  0
  143.8750   73.1000  219.9760 C   0  0  0  0  0  0  0  0  0  0  0  0
  144.7122   72.4921  219.6024 H   0  0  0  0  0  0  0  0  0  0  0  0
  143.7870   74.4530  219.6320 C   0  0  0  0  0  0  0  0  0  0  0  0
  144.5582   74.9078  218.9929 H   0  0  0  0  0  0  0  0  0  0  0  0
  142.7130   75.2350  220.1020 C   0  0  0  0  0  0  0  0  0  0  0  0
  142.5820   76.5980  219.7950 C   0  0  0  0  0  0  0  0  0  0  0  0
  143.4500   77.1490  219.0590 O   0  0  0  0  0  0  0  0  0  0  0  0
  141.5210   77.3300  220.2850 N   0  0  0  0  0  0  0  0  0  0  0  0
  141.4760   78.7940  220.0300 C   0  0  0  0  0  0  0  0  0  0  0  0
  142.3471   79.0655  219.4156 H   0  0  0  0  0  0  0  0  0  0  0  0
  140.5215   79.0009  219.5239 H   0  0  0  0  0  0  0  0  0  0  0  0
  141.4990   79.6580  221.3200 C   0  0  0  0  0  0  0  0  0  0  0  0
  140.5052   79.5004  221.7645 H   0  0  0  0  0  0  0  0  0  0  0  0
  142.5490   79.1940  222.3590 C   0  0  0  0  0  0  0  0  0  0  0  0
  142.2045   78.2492  222.8047 H   0  0  0  0  0  0  0  0  0  0  0  0
  143.5041   79.0785  221.8257 H   0  0  0  0  0  0  0  0  0  0  0  0
  142.7820   80.2160  223.4960 C   0  0  0  0  0  0  0  0  0  0  0  0
  142.8733   79.6697  224.4464 H   0  0  0  0  0  0  0  0  0  0  0  0
  143.6990   80.7745  223.2567 H   0  0  0  0  0  0  0  0  0  0  0  0
  141.6430   81.2320  223.6230 C   0  0  0  0  0  0  0  0  0  0  0  0
  140.7148   80.6984  223.8754 H   0  0  0  0  0  0  0  0  0  0  0  0
  141.9089   81.9510  224.4119 H   0  0  0  0  0  0  0  0  0  0  0  0
  141.4310   82.0120  222.3100 C   0  0  0  0  0  0  0  0  0  0  0  0
  140.3986   82.3913  222.2944 H   0  0  0  0  0  0  0  0  0  0  0  0
  142.1762   82.8209  222.2933 H   0  0  0  0  0  0  0  0  0  0  0  0
  141.6580   81.1630  221.0380 C   0  0  0  0  0  0  0  0  0  0  0  0
  140.9244   81.4618  220.2747 H   0  0  0  0  0  0  0  0  0  0  0  0
  142.6860   81.3388  220.6882 H   0  0  0  0  0  0  0  0  0  0  0  0
  138.6260   79.2660  222.9100 C   0  0  0  0  0  0  0  0  0  0  0  0
  138.1880   80.0050  221.8000 C   0  0  0  0  0  0  0  0  0  0  0  0
  138.3048   79.5922  220.7871 H   0  0  0  0  0  0  0  0  0  0  0  0
  137.6050   81.2610  221.9750 C   0  0  0  0  0  0  0  0  0  0  0  0
  137.2507   81.8275  221.1012 H   0  0  0  0  0  0  0  0  0  0  0  0
  137.4700   81.8010  223.2560 C   0  0  0  0  0  0  0  0  0  0  0  0
  136.9979   82.7859  223.3866 H   0  0  0  0  0  0  0  0  0  0  0  0
  137.9310   81.0980  224.3740 C   0  0  0  0  0  0  0  0  0  0  0  0
  137.8000   81.6960  225.6370 O   0  0  0  0  0  0  0  0  0  0  0  0
  136.6050   81.6860  226.4110 C   0  0  0  0  0  0  0  0  0  0  0  0
  136.8610   81.6881  227.4808 H   0  0  0  0  0  0  0  0  0  0  0  0
  136.0079   82.5792  226.1751 H   0  0  0  0  0  0  0  0  0  0  0  0
  136.0229   80.7829  226.1751 H   0  0  0  0  0  0  0  0  0  0  0  0
  138.5090   79.8250  224.1980 C   0  0  0  0  0  0  0  0  0  0  0  0
  138.8713   79.2639  225.0720 H   0  0  0  0  0  0  0  0  0  0  0  0
  1  2  1  0
  2  3  2  0
  3  4  1  0
  3  5  1  0
  5  6  2  0
  6  7  1  0
  7  8  2  0
  8  9  1  0
  8 10  1  0
 10 11  1  0
 10 12  2  0
 12 13  1  0
 12 14  1  0
 14 15  1  0
 14 16  2  0
 16 17  1  0
 17 18  2  0
 17 19  1  0
 19 20  1  0
 20 21  1  0
 20 22  1  0
 20 23  1  0
 23 24  1  0
 23 25  1  0
 25 26  1  0
 25 27  1  0
 25 28  1  0
 28 29  1  0
 28 30  1  0
 28 31  1  0
 31 32  1  0
 31 33  1  0
 31 34  1  0
 34 35  1  0
 34 36  1  0
 34 37  1  0
 37 38  1  0
 37 39  1  0
  2 40  1  0
 40 41  2  0
 41 42  1  0
 41 43  1  0
 43 44  1  0
 43 45  2  0
 45 46  1  0
 45 47  1  0
 47 48  1  0
 48 49  1  0
 49 50  1  0
 49 51  1  0
 49 52  1  0
 47 53  2  0
 53 54  1  0
 19  5  1  0
 37 23  1  0
 53 40  1  0
 16  7  1  0
M  END
>  <UniqueID>  (21) 
72

>  <SMILES>  (21) 
COc1cccc(/C=C/c2nc3ccccc3c(=O)n2CC2CCCCC2)c1

>  <Energy>  (21) 
72.20270117746165

>  <Genealogy>  (21) 
COc1cccc(/C=C/c2nc3ccccc3c(=O)n2CC2CCCCC2)c1 (cis-trans isomerization)
COc1cccc(/C=C/c2nc3ccccc3c(=O)n2CC2CCCCC2)c1 (3D coordinates assigned)
COc1cccc(/C=C/c2nc3ccccc3c(=O)n2CC2CCCCC2)c1 (nonaromatic ring conformer: 72.20270117746165 kcal/mol)

>  <smiles>  (21) 
COc1cccc(/C=C/c2nc3ccccc3c(=O)n2CC2CCCCC2)c1

>  <score_type>  (21) 
oracle

>  <origin>  (21) 
autodockgpu

>  <m_score__min__energy>  (21) 
-7.3499999999999996

>  <m_primary>  (21) 
energy

>  <meeko>  (21) 
{"free_energy": -6.4, "intermolecular_energy": -8.19, "internal_energy": -2.0, "cluster_size": 2, "cluster_id": 10, "rank_in_cluster": 2}

>  <energy>  (21) 
-7.35

>  <cluster_rmsd>  (21) 
0.0

>  <rmsd>  (21) 
270.31

>  <cluster>  (21) 
1

$$$$
SDBQQCBUKDXRSS-CCEZHUSRNA-N
     RDKit          3D

 54 57  0  0  0  0  0  0  0  0999 V2000
  139.5805   77.9134  223.8933 H   0  0  0  0  0  0  0  0  0  0  0  0
  139.1160   78.4390  223.0460 C   0  0  0  0  0  0  0  0  0  0  0  0
  139.1720   77.8780  221.8310 C   0  0  0  0  0  0  0  0  0  0  0  0
  138.4258   78.1590  221.0732 H   0  0  0  0  0  0  0  0  0  0  0  0
  140.2190   76.8860  221.4860 C   0  0  0  0  0  0  0  0  0  0  0  0
  140.0070   75.5990  221.8700 N   0  0  0  0  0  0  0  0  0  0  0  0
  140.8620   74.6030  221.5460 C   0  0  0  0  0  0  0  0  0  0  0  0
  140.6010   73.2920  221.9640 C   0  0  0  0  0  0  0  0  0  0  0  0
  139.7153   73.0776  222.5801 H   0  0  0  0  0  0  0  0  0  0  0  0
  141.4650   72.2560  221.5990 C   0  0  0  0  0  0  0  0  0  0  0  0
  141.2589   71.2267  221.9277 H   0  0  0  0  0  0  0  0  0  0  0  0
  142.5900   72.5270  220.8170 C   0  0  0  0  0  0  0  0  0  0  0  0
  143.2660   71.7095  220.5260 H   0  0  0  0  0  0  0  0  0  0  0  0
  142.8590   73.8360  220.4030 C   0  0  0  0  0  0  0  0  0  0  0  0
  143.7479   74.0456  219.7899 H   0  0  0  0  0  0  0  0  0  0  0  0
  141.9950   74.8860  220.7690 C   0  0  0  0  0  0  0  0  0  0  0  0
  142.2240   76.2190  220.3890 C   0  0  0  0  0  0  0  0  0  0  0  0
  143.2360   76.4900  219.6820 O   0  0  0  0  0  0  0  0  0  0  0  0
  141.3590   77.2190  220.7780 N   0  0  0  0  0  0  0  0  0  0  0  0
  141.6940   78.6300  220.4500 C   0  0  0  0  0  0  0  0  0  0  0  0
  142.7139   78.6576  220.0387 H   0  0  0  0  0  0  0  0  0  0  0  0
  140.9395   78.9789  219.7296 H   0  0  0  0  0  0  0  0  0  0  0  0
  141.6320   79.5890  221.6690 C   0  0  0  0  0  0  0  0  0  0  0  0
  140.6875   79.3245  222.1669 H   0  0  0  0  0  0  0  0  0  0  0  0
  142.7730   79.3680  222.6930 C   0  0  0  0  0  0  0  0  0  0  0  0
  142.5867   78.4226  223.2235 H   0  0  0  0  0  0  0  0  0  0  0  0
  143.7166   79.3496  222.1279 H   0  0  0  0  0  0  0  0  0  0  0  0
  142.8900   80.5010  223.7380 C   0  0  0  0  0  0  0  0  0  0  0  0
  143.0913   80.0522  224.7219 H   0  0  0  0  0  0  0  0  0  0  0  0
  143.7068   81.1643  223.4173 H   0  0  0  0  0  0  0  0  0  0  0  0
  141.6200   81.3490  223.8380 C   0  0  0  0  0  0  0  0  0  0  0  0
  140.7893   80.7096  224.1712 H   0  0  0  0  0  0  0  0  0  0  0  0
  141.8043   82.1606  224.5572 H   0  0  0  0  0  0  0  0  0  0  0  0
  141.2510   81.9820  222.4810 C   0  0  0  0  0  0  0  0  0  0  0  0
  140.1740   82.2059  222.4834 H   0  0  0  0  0  0  0  0  0  0  0  0
  141.8670   82.8865  222.3697 H   0  0  0  0  0  0  0  0  0  0  0  0
  141.5580   81.0740  221.2690 C   0  0  0  0  0  0  0  0  0  0  0  0
  140.7635   81.2012  220.5189 H   0  0  0  0  0  0  0  0  0  0  0  0
  142.5373   81.3670  220.8626 H   0  0  0  0  0  0  0  0  0  0  0  0
  138.4530   79.7390  223.2920 C   0  0  0  0  0  0  0  0  0  0  0  0
  137.9980   80.4880  222.1960 C   0  0  0  0  0  0  0  0  0  0  0  0
  138.1471   80.1088  221.1742 H   0  0  0  0  0  0  0  0  0  0  0  0
  137.3570   81.7120  222.3960 C   0  0  0  0  0  0  0  0  0  0  0  0
  136.9887   82.2858  221.5328 H   0  0  0  0  0  0  0  0  0  0  0  0
  137.1820   82.2100  223.6890 C   0  0  0  0  0  0  0  0  0  0  0  0
  136.6656   83.1695  223.8393 H   0  0  0  0  0  0  0  0  0  0  0  0
  137.6590   81.4970  224.7950 C   0  0  0  0  0  0  0  0  0  0  0  0
  137.4860   82.0530  226.0710 O   0  0  0  0  0  0  0  0  0  0  0  0
  136.4190   81.7230  226.9540 C   0  0  0  0  0  0  0  0  0  0  0  0
  136.7587   81.8281  227.9949 H   0  0  0  0  0  0  0  0  0  0  0  0
  135.5716   82.4010  226.7746 H   0  0  0  0  0  0  0  0  0  0  0  0
  136.1024   80.6849  226.7746 H   0  0  0  0  0  0  0  0  0  0  0  0
  138.2960   80.2560  224.5920 C   0  0  0  0  0  0  0  0  0  0  0  0
  138.6729   79.6877  225.4551 H   0  0  0  0  0  0  0  0  0  0  0  0
  1  2  1  0
  2  3  2  0
  3  4  1  0
  3  5  1  0
  5  6  2  0
  6  7  1  0
  7  8  2  0
  8  9  1  0
  8 10  1  0
 10 11  1  0
 10 12  2  0
 12 13  1  0
 12 14  1  0
 14 15  1  0
 14 16  2  0
 16 17  1  0
 17 18  2  0
 17 19  1  0
 19 20  1  0
 20 21  1  0
 20 22  1  0
 20 23  1  0
 23 24  1  0
 23 25  1  0
 25 26  1  0
 25 27  1  0
 25 28  1  0
 28 29  1  0
 28 30  1  0
 28 31  1  0
 31 32  1  0
 31 33  1  0
 31 34  1  0
 34 35  1  0
 34 36  1  0
 34 37  1  0
 37 38  1  0
 37 39  1  0
  2 40  1  0
 40 41  2  0
 41 42  1  0
 41 43  1  0
 43 44  1  0
 43 45  2  0
 45 46  1  0
 45 47  1  0
 47 48  1  0
 48 49  1  0
 49 50  1  0
 49 51  1  0
 49 52  1  0
 47 53  2  0
 53 54  1  0
 19  5  1  0
 37 23  1  0
 53 40  1  0
 16  7  1  0
M  END
>  <UniqueID>  (22) 
72

>  <SMILES>  (22) 
COc1cccc(/C=C/c2nc3ccccc3c(=O)n2CC2CCCCC2)c1

>  <Energy>  (22) 
72.20270117746165

>  <Genealogy>  (22) 
COc1cccc(/C=C/c2nc3ccccc3c(=O)n2CC2CCCCC2)c1 (cis-trans isomerization)
COc1cccc(/C=C/c2nc3ccccc3c(=O)n2CC2CCCCC2)c1 (3D coordinates assigned)
COc1cccc(/C=C/c2nc3ccccc3c(=O)n2CC2CCCCC2)c1 (nonaromatic ring conformer: 72.20270117746165 kcal/mol)

>  <smiles>  (22) 
COc1cccc(/C=C/c2nc3ccccc3c(=O)n2CC2CCCCC2)c1

>  <score_type>  (22) 
oracle

>  <origin>  (22) 
autodockgpu

>  <m_score__min__energy>  (22) 
-7.3499999999999996

>  <m_primary>  (22) 
energy

>  <meeko>  (22) 
{"free_energy": -6.62, "intermolecular_energy": -8.41, "internal_energy": -1.75, "cluster_size": 2, "cluster_id": 10, "rank_in_cluster": 1}

>  <energy>  (22) 
-7.33

>  <cluster_rmsd>  (22) 
0.0

>  <rmsd>  (22) 
270.17

>  <cluster>  (22) 
2

$$$$
SDBQQCBUKDXRSS-CCEZHUSRNA-N
     RDKit          3D

 54 57  0  0  0  0  0  0  0  0999 V2000
  143.4857   78.3299  218.0060 H   0  0  0  0  0  0  0  0  0  0  0  0
  142.5700   78.1060  218.5730 C   0  0  0  0  0  0  0  0  0  0  0  0
  141.5440   78.9630  218.5040 C   0  0  0  0  0  0  0  0  0  0  0  0
  140.5157   78.5723  218.5006 H   0  0  0  0  0  0  0  0  0  0  0  0
  141.7640   80.4280  218.4320 C   0  0  0  0  0  0  0  0  0  0  0  0
  142.7170   80.8730  217.5710 N   0  0  0  0  0  0  0  0  0  0  0  0
  142.9510   82.1900  217.3750 C   0  0  0  0  0  0  0  0  0  0  0  0
  143.9440   82.6000  216.4770 C   0  0  0  0  0  0  0  0  0  0  0  0
  144.5543   81.8502  215.9524 H   0  0  0  0  0  0  0  0  0  0  0  0
  144.1600   83.9610  216.2470 C   0  0  0  0  0  0  0  0  0  0  0  0
  144.9398   84.2817  215.5405 H   0  0  0  0  0  0  0  0  0  0  0  0
  143.3870   84.9150  216.9130 C   0  0  0  0  0  0  0  0  0  0  0  0
  143.5555   85.9858  216.7262 H   0  0  0  0  0  0  0  0  0  0  0  0
  142.3990   84.5110  217.8170 C   0  0  0  0  0  0  0  0  0  0  0  0
  141.7952   85.2653  218.3428 H   0  0  0  0  0  0  0  0  0  0  0  0
  142.1750   83.1410  218.0560 C   0  0  0  0  0  0  0  0  0  0  0  0
  141.2040   82.6820  218.9600 C   0  0  0  0  0  0  0  0  0  0  0  0
  140.4910   83.5250  219.5770 O   0  0  0  0  0  0  0  0  0  0  0  0
  141.0240   81.3320  219.1740 N   0  0  0  0  0  0  0  0  0  0  0  0
  140.0640   80.8880  220.2190 C   0  0  0  0  0  0  0  0  0  0  0  0
  139.5289   81.7721  220.5958 H   0  0  0  0  0  0  0  0  0  0  0  0
  139.3917   80.1575  219.7453 H   0  0  0  0  0  0  0  0  0  0  0  0
  140.7320   80.1710  221.4230 C   0  0  0  0  0  0  0  0  0  0  0  0
  140.7739   79.1158  221.1150 H   0  0  0  0  0  0  0  0  0  0  0  0
  142.1860   80.6330  221.6920 C   0  0  0  0  0  0  0  0  0  0  0  0
  142.8306   80.2380  220.8930 H   0  0  0  0  0  0  0  0  0  0  0  0
  142.1779   81.7327  221.7149 H   0  0  0  0  0  0  0  0  0  0  0  0
  142.7420   80.1530  223.0520 C   0  0  0  0  0  0  0  0  0  0  0  0
  143.7872   79.8391  222.9136 H   0  0  0  0  0  0  0  0  0  0  0  0
  142.6585   80.9916  223.7590 H   0  0  0  0  0  0  0  0  0  0  0  0
  141.9510   78.9780  223.6340 C   0  0  0  0  0  0  0  0  0  0  0  0
  142.0303   78.1204  222.9497 H   0  0  0  0  0  0  0  0  0  0  0  0
  142.3730   78.7341  224.6201 H   0  0  0  0  0  0  0  0  0  0  0  0
  140.4620   79.3330  223.8210 C   0  0  0  0  0  0  0  0  0  0  0  0
  139.8801   78.3995  223.8246 H   0  0  0  0  0  0  0  0  0  0  0  0
  140.3791   79.8826  224.7702 H   0  0  0  0  0  0  0  0  0  0  0  0
  139.9000   80.2540  222.7150 C   0  0  0  0  0  0  0  0  0  0  0  0
  138.8659   79.9524  222.4923 H   0  0  0  0  0  0  0  0  0  0  0  0
  139.9401   81.2906  223.0809 H   0  0  0  0  0  0  0  0  0  0  0  0
  142.5190   76.8690  219.3830 C   0  0  0  0  0  0  0  0  0  0  0  0
  143.5210   75.9020  219.2100 C   0  0  0  0  0  0  0  0  0  0  0  0
  144.3209   76.0679  218.4734 H   0  0  0  0  0  0  0  0  0  0  0  0
  143.5070   74.7300  219.9690 C   0  0  0  0  0  0  0  0  0  0  0  0
  144.3049   73.9838  219.8399 H   0  0  0  0  0  0  0  0  0  0  0  0
  142.4840   74.5020  220.8910 C   0  0  0  0  0  0  0  0  0  0  0  0
  142.4868   73.5814  221.4930 H   0  0  0  0  0  0  0  0  0  0  0  0
  141.4550   75.4360  221.0550 C   0  0  0  0  0  0  0  0  0  0  0  0
  140.4330   75.1480  221.9720 O   0  0  0  0  0  0  0  0  0  0  0  0
  139.3370   76.0120  222.2520 C   0  0  0  0  0  0  0  0  0  0  0  0
  139.2149   76.1083  223.3410 H   0  0  0  0  0  0  0  0  0  0  0  0
  139.5306   77.0030  221.8157 H   0  0  0  0  0  0  0  0  0  0  0  0
  138.4185   75.5924  221.8157 H   0  0  0  0  0  0  0  0  0  0  0  0
  141.4760   76.6240  220.2970 C   0  0  0  0  0  0  0  0  0  0  0  0
  140.6723   77.3649  220.4201 H   0  0  0  0  0  0  0  0  0  0  0  0
  1  2  1  0
  2  3  2  0
  3  4  1  0
  3  5  1  0
  5  6  2  0
  6  7  1  0
  7  8  2  0
  8  9  1  0
  8 10  1  0
 10 11  1  0
 10 12  2  0
 12 13  1  0
 12 14  1  0
 14 15  1  0
 14 16  2  0
 16 17  1  0
 17 18  2  0
 17 19  1  0
 19 20  1  0
 20 21  1  0
 20 22  1  0
 20 23  1  0
 23 24  1  0
 23 25  1  0
 25 26  1  0
 25 27  1  0
 25 28  1  0
 28 29  1  0
 28 30  1  0
 28 31  1  0
 31 32  1  0
 31 33  1  0
 31 34  1  0
 34 35  1  0
 34 36  1  0
 34 37  1  0
 37 38  1  0
 37 39  1  0
  2 40  1  0
 40 41  2  0
 41 42  1  0
 41 43  1  0
 43 44  1  0
 43 45  2  0
 45 46  1  0
 45 47  1  0
 47 48  1  0
 48 49  1  0
 49 50  1  0
 49 51  1  0
 49 52  1  0
 47 53  2  0
 53 54  1  0
 19  5  1  0
 37 23  1  0
 53 40  1  0
 16  7  1  0
M  END
>  <UniqueID>  (23) 
72

>  <SMILES>  (23) 
COc1cccc(/C=C/c2nc3ccccc3c(=O)n2CC2CCCCC2)c1

>  <Energy>  (23) 
72.20270117746165

>  <Genealogy>  (23) 
COc1cccc(/C=C/c2nc3ccccc3c(=O)n2CC2CCCCC2)c1 (cis-trans isomerization)
COc1cccc(/C=C/c2nc3ccccc3c(=O)n2CC2CCCCC2)c1 (3D coordinates assigned)
COc1cccc(/C=C/c2nc3ccccc3c(=O)n2CC2CCCCC2)c1 (nonaromatic ring conformer: 72.20270117746165 kcal/mol)

>  <smiles>  (23) 
COc1cccc(/C=C/c2nc3ccccc3c(=O)n2CC2CCCCC2)c1

>  <score_type>  (23) 
oracle

>  <origin>  (23) 
autodockgpu

>  <m_score__min__energy>  (23) 
-7.3499999999999996

>  <m_primary>  (23) 
energy

>  <meeko>  (23) 
{"free_energy": -6.65, "intermolecular_energy": -8.44, "internal_energy": -1.81, "cluster_size": 1, "cluster_id": 9, "rank_in_cluster": 1}

>  <energy>  (23) 
-7.1

>  <cluster_rmsd>  (23) 
1.0

>  <rmsd>  (23) 
270.19

>  <cluster>  (23) 
2

$$$$
SDBQQCBUKDXRSS-CCEZHUSRNA-N
     RDKit          3D

 54 57  0  0  0  0  0  0  0  0999 V2000
  143.8124   76.0822  218.0829 H   0  0  0  0  0  0  0  0  0  0  0  0
  143.6220   75.6470  219.0750 C   0  0  0  0  0  0  0  0  0  0  0  0
  142.6500   76.1710  219.8330 C   0  0  0  0  0  0  0  0  0  0  0  0
  142.6226   77.2584  219.9969 H   0  0  0  0  0  0  0  0  0  0  0  0
  141.6100   75.3170  220.4560 C   0  0  0  0  0  0  0  0  0  0  0  0
  141.8220   73.9740  220.4500 N   0  0  0  0  0  0  0  0  0  0  0  0
  140.9740   73.1100  221.0520 C   0  0  0  0  0  0  0  0  0  0  0  0
  141.2350   71.7350  221.0200 C   0  0  0  0  0  0  0  0  0  0  0  0
  142.1149   71.3551  220.4802 H   0  0  0  0  0  0  0  0  0  0  0  0
  140.3790   70.8450  221.6730 C   0  0  0  0  0  0  0  0  0  0  0  0
  140.5859   69.7649  221.6475 H   0  0  0  0  0  0  0  0  0  0  0  0
  139.2610   71.3250  222.3580 C   0  0  0  0  0  0  0  0  0  0  0  0
  138.5914   70.6230  222.8764 H   0  0  0  0  0  0  0  0  0  0  0  0
  138.9910   72.6980  222.3860 C   0  0  0  0  0  0  0  0  0  0  0  0
  138.1068   73.0721  222.9228 H   0  0  0  0  0  0  0  0  0  0  0  0
  139.8480   73.6020  221.7290 C   0  0  0  0  0  0  0  0  0  0  0  0
  139.6180   74.9870  221.7190 C   0  0  0  0  0  0  0  0  0  0  0  0
  138.6120   75.4480  222.3300 O   0  0  0  0  0  0  0  0  0  0  0  0
  140.4760   75.8370  221.0530 N   0  0  0  0  0  0  0  0  0  0  0  0
  140.1400   77.2830  220.9710 C   0  0  0  0  0  0  0  0  0  0  0  0
  140.1275   77.5761  219.9108 H   0  0  0  0  0  0  0  0  0  0  0  0
  139.1611   77.4115  221.4561 H   0  0  0  0  0  0  0  0  0  0  0  0
  141.1390   78.2040  221.7210 C   0  0  0  0  0  0  0  0  0  0  0  0
  142.0610   77.6066  221.7757 H   0  0  0  0  0  0  0  0  0  0  0  0
  141.4770   79.5080  220.9560 C   0  0  0  0  0  0  0  0  0  0  0  0
  142.1109   79.2521  220.0942 H   0  0  0  0  0  0  0  0  0  0  0  0
  140.5225   79.9615  220.6507 H   0  0  0  0  0  0  0  0  0  0  0  0
  142.2220   80.5520  221.8190 C   0  0  0  0  0  0  0  0  0  0  0  0
  143.0104   81.0152  221.2076 H   0  0  0  0  0  0  0  0  0  0  0  0
  141.4811   81.2912  222.1577 H   0  0  0  0  0  0  0  0  0  0  0  0
  142.8660   79.9400  223.0660 C   0  0  0  0  0  0  0  0  0  0  0  0
  143.6223   79.2050  222.7531 H   0  0  0  0  0  0  0  0  0  0  0  0
  143.3250   80.7514  223.6499 H   0  0  0  0  0  0  0  0  0  0  0  0
  141.8220   79.2360  223.9560 C   0  0  0  0  0  0  0  0  0  0  0  0
  142.3394   78.4833  224.5690 H   0  0  0  0  0  0  0  0  0  0  0  0
  141.3413   80.0156  224.5652 H   0  0  0  0  0  0  0  0  0  0  0  0
  140.7010   78.5300  223.1600 C   0  0  0  0  0  0  0  0  0  0  0  0
  140.4365   77.5932  223.6724 H   0  0  0  0  0  0  0  0  0  0  0  0
  139.8381   79.2103  223.1086 H   0  0  0  0  0  0  0  0  0  0  0  0
  144.4490   74.5050  219.5220 C   0  0  0  0  0  0  0  0  0  0  0  0
  144.9410   74.4950  220.8370 C   0  0  0  0  0  0  0  0  0  0  0  0
  144.7164   75.3338  221.5123 H   0  0  0  0  0  0  0  0  0  0  0  0
  145.7140   73.4250  221.2910 C   0  0  0  0  0  0  0  0  0  0  0  0
  146.0835   73.4168  222.3270 H   0  0  0  0  0  0  0  0  0  0  0  0
  146.0200   72.3650  220.4350 C   0  0  0  0  0  0  0  0  0  0  0  0
  146.6194   71.5198  220.8044 H   0  0  0  0  0  0  0  0  0  0  0  0
  145.5690   72.3710  219.1100 C   0  0  0  0  0  0  0  0  0  0  0  0
  145.9290   71.2980  218.2800 O   0  0  0  0  0  0  0  0  0  0  0  0
  145.5340   69.9480  218.4970 C   0  0  0  0  0  0  0  0  0  0  0  0
  145.4766   69.7520  219.5779 H   0  0  0  0  0  0  0  0  0  0  0  0
  144.5480   69.7765  218.0404 H   0  0  0  0  0  0  0  0  0  0  0  0
  146.2720   69.2721  218.0404 H   0  0  0  0  0  0  0  0  0  0  0  0
  144.7800   73.4460  218.6550 C   0  0  0  0  0  0  0  0  0  0  0  0
  144.4202   73.4581  217.6156 H   0  0  0  0  0  0  0  0  0  0  0  0
  1  2  1  0
  2  3  2  0
  3  4  1  0
  3  5  1  0
  5  6  2  0
  6  7  1  0
  7  8  2  0
  8  9  1  0
  8 10  1  0
 10 11  1  0
 10 12  2  0
 12 13  1  0
 12 14  1  0
 14 15  1  0
 14 16  2  0
 16 17  1  0
 17 18  2  0
 17 19  1  0
 19 20  1  0
 20 21  1  0
 20 22  1  0
 20 23  1  0
 23 24  1  0
 23 25  1  0
 25 26  1  0
 25 27  1  0
 25 28  1  0
 28 29  1  0
 28 30  1  0
 28 31  1  0
 31 32  1  0
 31 33  1  0
 31 34  1  0
 34 35  1  0
 34 36  1  0
 34 37  1  0
 37 38  1  0
 37 39  1  0
  2 40  1  0
 40 41  2  0
 41 42  1  0
 41 43  1  0
 43 44  1  0
 43 45  2  0
 45 46  1  0
 45 47  1  0
 47 48  1  0
 48 49  1  0
 49 50  1  0
 49 51  1  0
 49 52  1  0
 47 53  2  0
 53 54  1  0
 19  5  1  0
 37 23  1  0
 53 40  1  0
 16  7  1  0
M  END
>  <UniqueID>  (24) 
72

>  <SMILES>  (24) 
COc1cccc(/C=C/c2nc3ccccc3c(=O)n2CC2CCCCC2)c1

>  <Energy>  (24) 
72.20270117746165

>  <Genealogy>  (24) 
COc1cccc(/C=C/c2nc3ccccc3c(=O)n2CC2CCCCC2)c1 (cis-trans isomerization)
COc1cccc(/C=C/c2nc3ccccc3c(=O)n2CC2CCCCC2)c1 (3D coordinates assigned)
COc1cccc(/C=C/c2nc3ccccc3c(=O)n2CC2CCCCC2)c1 (nonaromatic ring conformer: 72.20270117746165 kcal/mol)

>  <smiles>  (24) 
COc1cccc(/C=C/c2nc3ccccc3c(=O)n2CC2CCCCC2)c1

>  <score_type>  (24) 
oracle

>  <origin>  (24) 
autodockgpu

>  <m_score__min__energy>  (24) 
-7.3499999999999996

>  <m_primary>  (24) 
energy

>  <meeko>  (24) 
{"free_energy": -7.04, "intermolecular_energy": -8.83, "internal_energy": -1.44, "cluster_size": 1, "cluster_id": 7, "rank_in_cluster": 1}

>  <energy>  (24) 
-7.31

>  <cluster_rmsd>  (24) 
0.0

>  <rmsd>  (24) 
270.37

>  <cluster>  (24) 
3

$$$$
SDBQQCBUKDXRSS-CCEZHUSRNA-N
     RDKit          3D

 54 57  0  0  0  0  0  0  0  0999 V2000
  137.7872   72.6353  222.1155 H   0  0  0  0  0  0  0  0  0  0  0  0
  138.8730   72.4750  222.0420 C   0  0  0  0  0  0  0  0  0  0  0  0
  139.3510   71.2310  222.1770 C   0  0  0  0  0  0  0  0  0  0  0  0
  139.5224   70.6199  221.2785 H   0  0  0  0  0  0  0  0  0  0  0  0
  139.6540   70.6600  223.5110 C   0  0  0  0  0  0  0  0  0  0  0  0
  140.2300   71.4840  224.4260 N   0  0  0  0  0  0  0  0  0  0  0  0
  140.4830   71.0860  225.6930 C   0  0  0  0  0  0  0  0  0  0  0  0
  141.0770   71.9720  226.6000 C   0  0  0  0  0  0  0  0  0  0  0  0
  141.3634   72.9827  226.2738 H   0  0  0  0  0  0  0  0  0  0  0  0
  141.3060   71.5730  227.9190 C   0  0  0  0  0  0  0  0  0  0  0  0
  141.7737   72.2697  228.6302 H   0  0  0  0  0  0  0  0  0  0  0  0
  140.9420   70.2910  228.3360 C   0  0  0  0  0  0  0  0  0  0  0  0
  141.1168   69.9817  229.3770 H   0  0  0  0  0  0  0  0  0  0  0  0
  140.3550   69.3990  227.4310 C   0  0  0  0  0  0  0  0  0  0  0  0
  140.0741   68.3881  227.7614 H   0  0  0  0  0  0  0  0  0  0  0  0
  140.1230   69.7920  226.0990 C   0  0  0  0  0  0  0  0  0  0  0  0
  139.5450   68.9340  225.1490 C   0  0  0  0  0  0  0  0  0  0  0  0
  139.2080   67.7670  225.5000 O   0  0  0  0  0  0  0  0  0  0  0  0
  139.3460   69.3540  223.8510 N   0  0  0  0  0  0  0  0  0  0  0  0
  138.8360   68.3830  222.8480 C   0  0  0  0  0  0  0  0  0  0  0  0
  139.1999   68.6868  221.8554 H   0  0  0  0  0  0  0  0  0  0  0  0
  139.2050   67.3908  223.1471 H   0  0  0  0  0  0  0  0  0  0  0  0
  137.2870   68.2910  222.7940 C   0  0  0  0  0  0  0  0  0  0  0  0
  137.0693   67.2696  223.1396 H   0  0  0  0  0  0  0  0  0  0  0  0
  136.5720   69.2690  223.7600 C   0  0  0  0  0  0  0  0  0  0  0  0
  136.7175   68.9105  224.7897 H   0  0  0  0  0  0  0  0  0  0  0  0
  137.0130   70.2639  223.5995 H   0  0  0  0  0  0  0  0  0  0  0  0
  135.0540   69.3950  223.4950 C   0  0  0  0  0  0  0  0  0  0  0  0
  134.5297   69.4259  224.4615 H   0  0  0  0  0  0  0  0  0  0  0  0
  134.8941   70.3158  222.9149 H   0  0  0  0  0  0  0  0  0  0  0  0
  134.4970   68.2290  222.6730 C   0  0  0  0  0  0  0  0  0  0  0  0
  134.6344   67.2955  223.2385 H   0  0  0  0  0  0  0  0  0  0  0  0
  133.4303   68.4195  222.4836 H   0  0  0  0  0  0  0  0  0  0  0  0
  135.2140   68.1010  221.3130 C   0  0  0  0  0  0  0  0  0  0  0  0
  135.1045   67.0654  220.9587 H   0  0  0  0  0  0  0  0  0  0  0  0
  134.7465   68.8286  220.6333 H   0  0  0  0  0  0  0  0  0  0  0  0
  136.7200   68.4400  221.3710 C   0  0  0  0  0  0  0  0  0  0  0  0
  137.2638   67.7603  220.6985 H   0  0  0  0  0  0  0  0  0  0  0  0
  136.8458   69.4881  221.0617 H   0  0  0  0  0  0  0  0  0  0  0  0
  139.7490   73.6410  221.7980 C   0  0  0  0  0  0  0  0  0  0  0  0
  140.9840   73.4430  221.1610 C   0  0  0  0  0  0  0  0  0  0  0  0
  141.2898   72.4295  220.8622 H   0  0  0  0  0  0  0  0  0  0  0  0
  141.8260   74.5270  220.9050 C   0  0  0  0  0  0  0  0  0  0  0  0
  142.7847   74.3664  220.3901 H   0  0  0  0  0  0  0  0  0  0  0  0
  141.4560   75.8140  221.3000 C   0  0  0  0  0  0  0  0  0  0  0  0
  142.1205   76.6638  221.0849 H   0  0  0  0  0  0  0  0  0  0  0  0
  140.2450   76.0300  221.9680 C   0  0  0  0  0  0  0  0  0  0  0  0
  139.9320   77.3370  222.3710 O   0  0  0  0  0  0  0  0  0  0  0  0
  140.8980   78.3260  222.7120 C   0  0  0  0  0  0  0  0  0  0  0  0
  140.9732   78.4030  223.8067 H   0  0  0  0  0  0  0  0  0  0  0  0
  141.8760   78.0419  222.2964 H   0  0  0  0  0  0  0  0  0  0  0  0
  140.5910   79.2971  222.2964 H   0  0  0  0  0  0  0  0  0  0  0  0
  139.3900   74.9380  222.2160 C   0  0  0  0  0  0  0  0  0  0  0  0
  138.4360   75.0989  222.7394 H   0  0  0  0  0  0  0  0  0  0  0  0
  1  2  1  0
  2  3  2  0
  3  4  1  0
  3  5  1  0
  5  6  2  0
  6  7  1  0
  7  8  2  0
  8  9  1  0
  8 10  1  0
 10 11  1  0
 10 12  2  0
 12 13  1  0
 12 14  1  0
 14 15  1  0
 14 16  2  0
 16 17  1  0
 17 18  2  0
 17 19  1  0
 19 20  1  0
 20 21  1  0
 20 22  1  0
 20 23  1  0
 23 24  1  0
 23 25  1  0
 25 26  1  0
 25 27  1  0
 25 28  1  0
 28 29  1  0
 28 30  1  0
 28 31  1  0
 31 32  1  0
 31 33  1  0
 31 34  1  0
 34 35  1  0
 34 36  1  0
 34 37  1  0
 37 38  1  0
 37 39  1  0
  2 40  1  0
 40 41  2  0
 41 42  1  0
 41 43  1  0
 43 44  1  0
 43 45  2  0
 45 46  1  0
 45 47  1  0
 47 48  1  0
 48 49  1  0
 49 50  1  0
 49 51  1  0
 49 52  1  0
 47 53  2  0
 53 54  1  0
 19  5  1  0
 37 23  1  0
 53 40  1  0
 16  7  1  0
M  END
>  <UniqueID>  (25) 
72

>  <SMILES>  (25) 
COc1cccc(/C=C/c2nc3ccccc3c(=O)n2CC2CCCCC2)c1

>  <Energy>  (25) 
72.20270117746165

>  <Genealogy>  (25) 
COc1cccc(/C=C/c2nc3ccccc3c(=O)n2CC2CCCCC2)c1 (cis-trans isomerization)
COc1cccc(/C=C/c2nc3ccccc3c(=O)n2CC2CCCCC2)c1 (3D coordinates assigned)
COc1cccc(/C=C/c2nc3ccccc3c(=O)n2CC2CCCCC2)c1 (nonaromatic ring conformer: 72.20270117746165 kcal/mol)

>  <smiles>  (25) 
COc1cccc(/C=C/c2nc3ccccc3c(=O)n2CC2CCCCC2)c1

>  <score_type>  (25) 
oracle

>  <origin>  (25) 
autodockgpu

>  <m_score__min__energy>  (25) 
-7.3499999999999996

>  <m_primary>  (25) 
energy

>  <meeko>  (25) 
{"free_energy": -7.08, "intermolecular_energy": -8.87, "internal_energy": -1.39, "cluster_size": 2, "cluster_id": 5, "rank_in_cluster": 1}

>  <energy>  (25) 
-7.11

>  <cluster_rmsd>  (25) 
0.25

>  <rmsd>  (25) 
270.4

>  <cluster>  (25) 
3

$$$$
SDBQQCBUKDXRSS-CCEZHUSRNA-N
     RDKit          3D

 54 57  0  0  0  0  0  0  0  0999 V2000
  138.8819   73.1967  221.3984 H   0  0  0  0  0  0  0  0  0  0  0  0
  139.7910   72.8740  221.9270 C   0  0  0  0  0  0  0  0  0  0  0  0
  140.9730   73.3590  221.5290 C   0  0  0  0  0  0  0  0  0  0  0  0
  141.8197   72.6698  221.3940 H   0  0  0  0  0  0  0  0  0  0  0  0
  141.1660   74.8060  221.2660 C   0  0  0  0  0  0  0  0  0  0  0  0
  140.6760   75.6770  222.1870 N   0  0  0  0  0  0  0  0  0  0  0  0
  140.8580   77.0120  222.0820 C   0  0  0  0  0  0  0  0  0  0  0  0
  140.3350   77.8700  223.0570 C   0  0  0  0  0  0  0  0  0  0  0  0
  139.7520   77.4595  223.8946 H   0  0  0  0  0  0  0  0  0  0  0  0
  140.5530   79.2470  222.9670 C   0  0  0  0  0  0  0  0  0  0  0  0
  140.1405   79.9196  223.7335 H   0  0  0  0  0  0  0  0  0  0  0  0
  141.2940   79.7710  221.9050 C   0  0  0  0  0  0  0  0  0  0  0  0
  141.4703   80.8548  221.8401 H   0  0  0  0  0  0  0  0  0  0  0  0
  141.8120   78.9190  220.9240 C   0  0  0  0  0  0  0  0  0  0  0  0
  142.3907   79.3355  220.0864 H   0  0  0  0  0  0  0  0  0  0  0  0
  141.5950   77.5290  221.0050 C   0  0  0  0  0  0  0  0  0  0  0  0
  142.0840   76.6310  220.0430 C   0  0  0  0  0  0  0  0  0  0  0  0
  142.7560   77.0790  219.0700 O   0  0  0  0  0  0  0  0  0  0  0  0
  141.8390   75.2800  220.1540 N   0  0  0  0  0  0  0  0  0  0  0  0
  142.2780   74.3740  219.0590 C   0  0  0  0  0  0  0  0  0  0  0  0
  141.4962   73.6164  218.9018 H   0  0  0  0  0  0  0  0  0  0  0  0
  142.4417   75.0021  218.1709 H   0  0  0  0  0  0  0  0  0  0  0  0
  143.6160   73.6430  219.3470 C   0  0  0  0  0  0  0  0  0  0  0  0
  144.1821   73.7473  218.4097 H   0  0  0  0  0  0  0  0  0  0  0  0
  144.4550   74.3010  220.4700 C   0  0  0  0  0  0  0  0  0  0  0  0
  144.8681   75.2461  220.0878 H   0  0  0  0  0  0  0  0  0  0  0  0
  143.7835   74.4560  221.3274 H   0  0  0  0  0  0  0  0  0  0  0  0
  145.6250   73.4190  220.9620 C   0  0  0  0  0  0  0  0  0  0  0  0
  146.5057   74.0590  221.1196 H   0  0  0  0  0  0  0  0  0  0  0  0
  145.3034   72.9313  221.8941 H   0  0  0  0  0  0  0  0  0  0  0  0
  145.9940   72.3150  219.9670 C   0  0  0  0  0  0  0  0  0  0  0  0
  146.3328   72.7787  219.0288 H   0  0  0  0  0  0  0  0  0  0  0  0
  146.7915   71.7025  220.4129 H   0  0  0  0  0  0  0  0  0  0  0  0
  144.7920   71.3970  219.6660 C   0  0  0  0  0  0  0  0  0  0  0  0
  144.9547   70.9212  218.6877 H   0  0  0  0  0  0  0  0  0  0  0  0
  144.7340   70.6642  220.4843 H   0  0  0  0  0  0  0  0  0  0  0  0
  143.4380   72.1400  219.6280 C   0  0  0  0  0  0  0  0  0  0  0  0
  142.8138   71.7015  218.8355 H   0  0  0  0  0  0  0  0  0  0  0  0
  142.9616   72.0314  220.6135 H   0  0  0  0  0  0  0  0  0  0  0  0
  139.6600   71.9210  223.0500 C   0  0  0  0  0  0  0  0  0  0  0  0
  138.6140   70.9850  223.0310 C   0  0  0  0  0  0  0  0  0  0  0  0
  137.9024   70.9769  222.1922 H   0  0  0  0  0  0  0  0  0  0  0  0
  138.4720   70.0650  224.0700 C   0  0  0  0  0  0  0  0  0  0  0  0
  137.6582   69.3255  224.0402 H   0  0  0  0  0  0  0  0  0  0  0  0
  139.3600   70.0800  225.1480 C   0  0  0  0  0  0  0  0  0  0  0  0
  139.2495   69.3429  225.9570 H   0  0  0  0  0  0  0  0  0  0  0  0
  140.3890   71.0260  225.2060 C   0  0  0  0  0  0  0  0  0  0  0  0
  141.2360   71.0200  226.3250 O   0  0  0  0  0  0  0  0  0  0  0  0
  141.0750   71.8660  227.4590 C   0  0  0  0  0  0  0  0  0  0  0  0
  141.1879   71.2725  228.3782 H   0  0  0  0  0  0  0  0  0  0  0  0
  141.8386   72.6574  227.4374 H   0  0  0  0  0  0  0  0  0  0  0  0
  140.0740   72.3216  227.4374 H   0  0  0  0  0  0  0  0  0  0  0  0
  140.5380   71.9480  224.1510 C   0  0  0  0  0  0  0  0  0  0  0  0
  141.3455   72.6940  224.1875 H   0  0  0  0  0  0  0  0  0  0  0  0
  1  2  1  0
  2  3  2  0
  3  4  1  0
  3  5  1  0
  5  6  2  0
  6  7  1  0
  7  8  2  0
  8  9  1  0
  8 10  1  0
 10 11  1  0
 10 12  2  0
 12 13  1  0
 12 14  1  0
 14 15  1  0
 14 16  2  0
 16 17  1  0
 17 18  2  0
 17 19  1  0
 19 20  1  0
 20 21  1  0
 20 22  1  0
 20 23  1  0
 23 24  1  0
 23 25  1  0
 25 26  1  0
 25 27  1  0
 25 28  1  0
 28 29  1  0
 28 30  1  0
 28 31  1  0
 31 32  1  0
 31 33  1  0
 31 34  1  0
 34 35  1  0
 34 36  1  0
 34 37  1  0
 37 38  1  0
 37 39  1  0
  2 40  1  0
 40 41  2  0
 41 42  1  0
 41 43  1  0
 43 44  1  0
 43 45  2  0
 45 46  1  0
 45 47  1  0
 47 48  1  0
 48 49  1  0
 49 50  1  0
 49 51  1  0
 49 52  1  0
 47 53  2  0
 53 54  1  0
 19  5  1  0
 37 23  1  0
 53 40  1  0
 16  7  1  0
M  END
>  <UniqueID>  (26) 
72

>  <SMILES>  (26) 
COc1cccc(/C=C/c2nc3ccccc3c(=O)n2CC2CCCCC2)c1

>  <Energy>  (26) 
72.20270117746165

>  <Genealogy>  (26) 
COc1cccc(/C=C/c2nc3ccccc3c(=O)n2CC2CCCCC2)c1 (cis-trans isomerization)
COc1cccc(/C=C/c2nc3ccccc3c(=O)n2CC2CCCCC2)c1 (3D coordinates assigned)
COc1cccc(/C=C/c2nc3ccccc3c(=O)n2CC2CCCCC2)c1 (nonaromatic ring conformer: 72.20270117746165 kcal/mol)

>  <smiles>  (26) 
COc1cccc(/C=C/c2nc3ccccc3c(=O)n2CC2CCCCC2)c1

>  <score_type>  (26) 
oracle

>  <origin>  (26) 
autodockgpu

>  <m_score__min__energy>  (26) 
-7.3499999999999996

>  <m_primary>  (26) 
energy

>  <meeko>  (26) 
{"free_energy": -7.18, "intermolecular_energy": -8.97, "internal_energy": -1.3, "cluster_size": 2, "cluster_id": 4, "rank_in_cluster": 1}

>  <energy>  (26) 
-6.99

>  <cluster_rmsd>  (26) 
1.53

>  <rmsd>  (26) 
270.65

>  <cluster>  (26) 
3

$$$$
SDBQQCBUKDXRSS-CCEZHUSRNA-N
     RDKit          3D

 54 57  0  0  0  0  0  0  0  0999 V2000
  137.0134   73.0250  222.5767 H   0  0  0  0  0  0  0  0  0  0  0  0
  136.9610   72.1120  223.1880 C   0  0  0  0  0  0  0  0  0  0  0  0
  137.8510   71.1370  222.9670 C   0  0  0  0  0  0  0  0  0  0  0  0
  138.0368   70.8017  221.9360 H   0  0  0  0  0  0  0  0  0  0  0  0
  138.5920   70.4990  224.0820 C   0  0  0  0  0  0  0  0  0  0  0  0
  139.3060   71.3140  224.9020 N   0  0  0  0  0  0  0  0  0  0  0  0
  139.9600   70.8470  225.9890 C   0  0  0  0  0  0  0  0  0  0  0  0
  140.6830   71.7260  226.8050 C   0  0  0  0  0  0  0  0  0  0  0  0
  140.7423   72.7933  226.5455 H   0  0  0  0  0  0  0  0  0  0  0  0
  141.3290   71.2490  227.9480 C   0  0  0  0  0  0  0  0  0  0  0  0
  141.8964   71.9409  228.5877 H   0  0  0  0  0  0  0  0  0  0  0  0
  141.2550   69.8950  228.2790 C   0  0  0  0  0  0  0  0  0  0  0  0
  141.7589   69.5227  229.1831 H   0  0  0  0  0  0  0  0  0  0  0  0
  140.5410   69.0100  227.4630 C   0  0  0  0  0  0  0  0  0  0  0  0
  140.4891   67.9429  227.7248 H   0  0  0  0  0  0  0  0  0  0  0  0
  139.8890   69.4820  226.3080 C   0  0  0  0  0  0  0  0  0  0  0  0
  139.1670   68.6360  225.4500 C   0  0  0  0  0  0  0  0  0  0  0  0
  139.0860   67.4050  225.7260 O   0  0  0  0  0  0  0  0  0  0  0  0
  138.5530   69.1370  224.3220 N   0  0  0  0  0  0  0  0  0  0  0  0
  137.8930   68.1940  223.3810 C   0  0  0  0  0  0  0  0  0  0  0  0
  137.4851   67.3537  223.9619 H   0  0  0  0  0  0  0  0  0  0  0  0
  137.1117   68.7621  222.8549 H   0  0  0  0  0  0  0  0  0  0  0  0
  138.8430   67.6220  222.2950 C   0  0  0  0  0  0  0  0  0  0  0  0
  139.7517   67.3504  222.8521 H   0  0  0  0  0  0  0  0  0  0  0  0
  138.3120   66.3330  221.6210 C   0  0  0  0  0  0  0  0  0  0  0  0
  138.3811   65.5075  222.3447 H   0  0  0  0  0  0  0  0  0  0  0  0
  137.2747   66.5316  221.3136 H   0  0  0  0  0  0  0  0  0  0  0  0
  139.0960   65.9360  220.3490 C   0  0  0  0  0  0  0  0  0  0  0  0
  139.2327   64.8445  220.3466 H   0  0  0  0  0  0  0  0  0  0  0  0
  138.5126   66.2758  219.4806 H   0  0  0  0  0  0  0  0  0  0  0  0
  140.4730   66.6020  220.2690 C   0  0  0  0  0  0  0  0  0  0  0  0
  141.0820   66.2667  221.1215 H   0  0  0  0  0  0  0  0  0  0  0  0
  140.9401   66.3139  219.3157 H   0  0  0  0  0  0  0  0  0  0  0  0
  140.3620   68.1390  220.3070 C   0  0  0  0  0  0  0  0  0  0  0  0
  141.3182   68.5472  220.6662 H   0  0  0  0  0  0  0  0  0  0  0  0
  140.1214   68.4687  219.2855 H   0  0  0  0  0  0  0  0  0  0  0  0
  139.2340   68.6590  221.2260 C   0  0  0  0  0  0  0  0  0  0  0  0
  139.5778   69.5754  221.7280 H   0  0  0  0  0  0  0  0  0  0  0  0
  138.3496   68.8574  220.6027 H   0  0  0  0  0  0  0  0  0  0  0  0
  135.9090   72.0080  224.2240 C   0  0  0  0  0  0  0  0  0  0  0  0
  135.4640   70.7360  224.6160 C   0  0  0  0  0  0  0  0  0  0  0  0
  135.8909   69.8379  224.1458 H   0  0  0  0  0  0  0  0  0  0  0  0
  134.4820   70.6050  225.6000 C   0  0  0  0  0  0  0  0  0  0  0  0
  134.1493   69.6043  225.9130 H   0  0  0  0  0  0  0  0  0  0  0  0
  133.9210   71.7410  226.1880 C   0  0  0  0  0  0  0  0  0  0  0  0
  133.1564   71.6297  226.9709 H   0  0  0  0  0  0  0  0  0  0  0  0
  134.3250   73.0200  225.7880 C   0  0  0  0  0  0  0  0  0  0  0  0
  133.7100   74.1300  226.3870 O   0  0  0  0  0  0  0  0  0  0  0  0
  134.2760   75.4360  226.4290 C   0  0  0  0  0  0  0  0  0  0  0  0
  134.4096   75.7442  227.4765 H   0  0  0  0  0  0  0  0  0  0  0  0
  135.2519   75.4292  225.9215 H   0  0  0  0  0  0  0  0  0  0  0  0
  133.6037   76.1435  225.9215 H   0  0  0  0  0  0  0  0  0  0  0  0
  135.3240   73.1510  224.8030 C   0  0  0  0  0  0  0  0  0  0  0  0
  135.6491   74.1523  224.4842 H   0  0  0  0  0  0  0  0  0  0  0  0
  1  2  1  0
  2  3  2  0
  3  4  1  0
  3  5  1  0
  5  6  2  0
  6  7  1  0
  7  8  2  0
  8  9  1  0
  8 10  1  0
 10 11  1  0
 10 12  2  0
 12 13  1  0
 12 14  1  0
 14 15  1  0
 14 16  2  0
 16 17  1  0
 17 18  2  0
 17 19  1  0
 19 20  1  0
 20 21  1  0
 20 22  1  0
 20 23  1  0
 23 24  1  0
 23 25  1  0
 25 26  1  0
 25 27  1  0
 25 28  1  0
 28 29  1  0
 28 30  1  0
 28 31  1  0
 31 32  1  0
 31 33  1  0
 31 34  1  0
 34 35  1  0
 34 36  1  0
 34 37  1  0
 37 38  1  0
 37 39  1  0
  2 40  1  0
 40 41  2  0
 41 42  1  0
 41 43  1  0
 43 44  1  0
 43 45  2  0
 45 46  1  0
 45 47  1  0
 47 48  1  0
 48 49  1  0
 49 50  1  0
 49 51  1  0
 49 52  1  0
 47 53  2  0
 53 54  1  0
 19  5  1  0
 37 23  1  0
 53 40  1  0
 16  7  1  0
M  END
>  <UniqueID>  (27) 
72

>  <SMILES>  (27) 
COc1cccc(/C=C/c2nc3ccccc3c(=O)n2CC2CCCCC2)c1

>  <Energy>  (27) 
72.20270117746165

>  <Genealogy>  (27) 
COc1cccc(/C=C/c2nc3ccccc3c(=O)n2CC2CCCCC2)c1 (cis-trans isomerization)
COc1cccc(/C=C/c2nc3ccccc3c(=O)n2CC2CCCCC2)c1 (3D coordinates assigned)
COc1cccc(/C=C/c2nc3ccccc3c(=O)n2CC2CCCCC2)c1 (nonaromatic ring conformer: 72.20270117746165 kcal/mol)

>  <smiles>  (27) 
COc1cccc(/C=C/c2nc3ccccc3c(=O)n2CC2CCCCC2)c1

>  <score_type>  (27) 
oracle

>  <origin>  (27) 
autodockgpu

>  <m_score__min__energy>  (27) 
-7.3499999999999996

>  <m_primary>  (27) 
energy

>  <meeko>  (27) 
{"free_energy": -7.1, "intermolecular_energy": -8.89, "internal_energy": -1.48, "cluster_size": 2, "cluster_id": 2, "rank_in_cluster": 2}

>  <energy>  (27) 
-7.18

>  <cluster_rmsd>  (27) 
0.0

>  <rmsd>  (27) 
271.02

>  <cluster>  (27) 
4

$$$$
SDBQQCBUKDXRSS-CCEZHUSRNA-N
     RDKit          3D

 54 57  0  0  0  0  0  0  0  0999 V2000
  140.3833   70.7882  220.7421 H   0  0  0  0  0  0  0  0  0  0  0  0
  139.9900   71.5260  221.4570 C   0  0  0  0  0  0  0  0  0  0  0  0
  139.0580   71.1380  222.3360 C   0  0  0  0  0  0  0  0  0  0  0  0
  137.9964   71.3125  222.1069 H   0  0  0  0  0  0  0  0  0  0  0  0
  139.4260   70.4780  223.6120 C   0  0  0  0  0  0  0  0  0  0  0  0
  139.9500   71.2630  224.5910 N   0  0  0  0  0  0  0  0  0  0  0  0
  140.2550   70.7790  225.8150 C   0  0  0  0  0  0  0  0  0  0  0  0
  140.7920   71.6270  226.7910 C   0  0  0  0  0  0  0  0  0  0  0  0
  140.9929   72.6818  226.5521 H   0  0  0  0  0  0  0  0  0  0  0  0
  141.0730   71.1350  228.0680 C   0  0  0  0  0  0  0  0  0  0  0  0
  141.4946   71.8027  228.8338 H   0  0  0  0  0  0  0  0  0  0  0  0
  140.8190   69.7960  228.3730 C   0  0  0  0  0  0  0  0  0  0  0  0
  141.0362   69.4120  229.3807 H   0  0  0  0  0  0  0  0  0  0  0  0
  140.2890   68.9420  227.4000 C   0  0  0  0  0  0  0  0  0  0  0  0
  140.0935   67.8873  227.6436 H   0  0  0  0  0  0  0  0  0  0  0  0
  140.0050   69.4290  226.1090 C   0  0  0  0  0  0  0  0  0  0  0  0
  139.4820   68.6140  225.0930 C   0  0  0  0  0  0  0  0  0  0  0  0
  139.2440   67.3980  225.3430 O   0  0  0  0  0  0  0  0  0  0  0  0
  139.2290   69.1280  223.8390 N   0  0  0  0  0  0  0  0  0  0  0  0
  138.7810   68.2090  222.7590 C   0  0  0  0  0  0  0  0  0  0  0  0
  139.3493   68.4431  221.8467 H   0  0  0  0  0  0  0  0  0  0  0  0
  138.9605   67.1841  223.1160 H   0  0  0  0  0  0  0  0  0  0  0  0
  137.2670   68.3150  222.4330 C   0  0  0  0  0  0  0  0  0  0  0  0
  137.2254   69.0239  221.5930 H   0  0  0  0  0  0  0  0  0  0  0  0
  136.6410   66.9840  221.9470 C   0  0  0  0  0  0  0  0  0  0  0  0
  137.0094   66.7759  220.9316 H   0  0  0  0  0  0  0  0  0  0  0  0
  136.9371   66.2051  222.6651 H   0  0  0  0  0  0  0  0  0  0  0  0
  135.0950   67.0080  221.9120 C   0  0  0  0  0  0  0  0  0  0  0  0
  134.7560   66.4954  220.9997 H   0  0  0  0  0  0  0  0  0  0  0  0
  134.7351   66.5036  222.8209 H   0  0  0  0  0  0  0  0  0  0  0  0
  134.5240   68.4280  221.9160 C   0  0  0  0  0  0  0  0  0  0  0  0
  134.8605   68.9507  221.0085 H   0  0  0  0  0  0  0  0  0  0  0  0
  133.4266   68.3576  221.9446 H   0  0  0  0  0  0  0  0  0  0  0  0
  134.9890   69.2230  223.1530 C   0  0  0  0  0  0  0  0  0  0  0  0
  134.9262   70.2962  222.9200 H   0  0  0  0  0  0  0  0  0  0  0  0
  134.3309   68.9355  223.9862 H   0  0  0  0  0  0  0  0  0  0  0  0
  136.4370   68.9020  223.5890 C   0  0  0  0  0  0  0  0  0  0  0  0
  136.9173   69.8283  223.9373 H   0  0  0  0  0  0  0  0  0  0  0  0
  136.3931   68.1522  224.3926 H   0  0  0  0  0  0  0  0  0  0  0  0
  140.5110   72.9100  221.4110 C   0  0  0  0  0  0  0  0  0  0  0  0
  139.7090   73.9560  221.8950 C   0  0  0  0  0  0  0  0  0  0  0  0
  138.7061   73.7385  222.2911 H   0  0  0  0  0  0  0  0  0  0  0  0
  140.1780   75.2700  221.8760 C   0  0  0  0  0  0  0  0  0  0  0  0
  139.5494   76.0820  222.2703 H   0  0  0  0  0  0  0  0  0  0  0  0
  141.4430   75.5580  221.3580 C   0  0  0  0  0  0  0  0  0  0  0  0
  141.8106   76.5948  221.3587 H   0  0  0  0  0  0  0  0  0  0  0  0
  142.2460   74.5360  220.8380 C   0  0  0  0  0  0  0  0  0  0  0  0
  143.4950   74.8800  220.3010 O   0  0  0  0  0  0  0  0  0  0  0  0
  144.6850   74.1180  220.4820 C   0  0  0  0  0  0  0  0  0  0  0  0
  144.8803   73.9929  221.5573 H   0  0  0  0  0  0  0  0  0  0  0  0
  144.5624   73.1300  220.0142 H   0  0  0  0  0  0  0  0  0  0  0  0
  145.5311   74.6427  220.0142 H   0  0  0  0  0  0  0  0  0  0  0  0
  141.7760   73.2080  220.8680 C   0  0  0  0  0  0  0  0  0  0  0  0
  142.4015   72.3981  220.4644 H   0  0  0  0  0  0  0  0  0  0  0  0
  1  2  1  0
  2  3  2  0
  3  4  1  0
  3  5  1  0
  5  6  2  0
  6  7  1  0
  7  8  2  0
  8  9  1  0
  8 10  1  0
 10 11  1  0
 10 12  2  0
 12 13  1  0
 12 14  1  0
 14 15  1  0
 14 16  2  0
 16 17  1  0
 17 18  2  0
 17 19  1  0
 19 20  1  0
 20 21  1  0
 20 22  1  0
 20 23  1  0
 23 24  1  0
 23 25  1  0
 25 26  1  0
 25 27  1  0
 25 28  1  0
 28 29  1  0
 28 30  1  0
 28 31  1  0
 31 32  1  0
 31 33  1  0
 31 34  1  0
 34 35  1  0
 34 36  1  0
 34 37  1  0
 37 38  1  0
 37 39  1  0
  2 40  1  0
 40 41  2  0
 41 42  1  0
 41 43  1  0
 43 44  1  0
 43 45  2  0
 45 46  1  0
 45 47  1  0
 47 48  1  0
 48 49  1  0
 49 50  1  0
 49 51  1  0
 49 52  1  0
 47 53  2  0
 53 54  1  0
 19  5  1  0
 37 23  1  0
 53 40  1  0
 16  7  1  0
M  END
>  <UniqueID>  (28) 
72

>  <SMILES>  (28) 
COc1cccc(/C=C/c2nc3ccccc3c(=O)n2CC2CCCCC2)c1

>  <Energy>  (28) 
72.20270117746165

>  <Genealogy>  (28) 
COc1cccc(/C=C/c2nc3ccccc3c(=O)n2CC2CCCCC2)c1 (cis-trans isomerization)
COc1cccc(/C=C/c2nc3ccccc3c(=O)n2CC2CCCCC2)c1 (3D coordinates assigned)
COc1cccc(/C=C/c2nc3ccccc3c(=O)n2CC2CCCCC2)c1 (nonaromatic ring conformer: 72.20270117746165 kcal/mol)

>  <smiles>  (28) 
COc1cccc(/C=C/c2nc3ccccc3c(=O)n2CC2CCCCC2)c1

>  <score_type>  (28) 
oracle

>  <origin>  (28) 
autodockgpu

>  <m_score__min__energy>  (28) 
-7.3499999999999996

>  <m_primary>  (28) 
energy

>  <meeko>  (28) 
{"free_energy": -7.03, "intermolecular_energy": -8.82, "internal_energy": -1.3, "cluster_size": 2, "cluster_id": 5, "rank_in_cluster": 2}

>  <energy>  (28) 
-7.11

>  <cluster_rmsd>  (28) 
0.74

>  <rmsd>  (28) 
271.14

>  <cluster>  (28) 
4

$$$$
SDBQQCBUKDXRSS-CCEZHUSRNA-N
     RDKit          3D

 54 57  0  0  0  0  0  0  0  0999 V2000
  135.6854   69.8461  222.3378 H   0  0  0  0  0  0  0  0  0  0  0  0
  136.0610   69.6670  223.3560 C   0  0  0  0  0  0  0  0  0  0  0  0
  137.2110   69.0000  223.5090 C   0  0  0  0  0  0  0  0  0  0  0  0
  137.4138   68.1237  222.8758 H   0  0  0  0  0  0  0  0  0  0  0  0
  138.2180   69.4180  224.5150 C   0  0  0  0  0  0  0  0  0  0  0  0
  138.4440   68.5760  225.5580 N   0  0  0  0  0  0  0  0  0  0  0  0
  139.3880   68.8250  226.4920 C   0  0  0  0  0  0  0  0  0  0  0  0
  139.5840   67.9270  227.5480 C   0  0  0  0  0  0  0  0  0  0  0  0
  138.9494   67.0326  227.6338 H   0  0  0  0  0  0  0  0  0  0  0  0
  140.5850   68.1660  228.4930 C   0  0  0  0  0  0  0  0  0  0  0  0
  140.7382   67.4589  229.3216 H   0  0  0  0  0  0  0  0  0  0  0  0
  141.3910   69.3010  228.3870 C   0  0  0  0  0  0  0  0  0  0  0  0
  142.1814   69.4845  229.1297 H   0  0  0  0  0  0  0  0  0  0  0  0
  141.1950   70.2060  227.3370 C   0  0  0  0  0  0  0  0  0  0  0  0
  141.8300   71.1008  227.2584 H   0  0  0  0  0  0  0  0  0  0  0  0
  140.1870   69.9740  226.3810 C   0  0  0  0  0  0  0  0  0  0  0  0
  139.9410   70.8540  225.3150 C   0  0  0  0  0  0  0  0  0  0  0  0
  140.6560   71.8890  225.1970 O   0  0  0  0  0  0  0  0  0  0  0  0
  138.9370   70.5950  224.4070 N   0  0  0  0  0  0  0  0  0  0  0  0
  138.6350   71.6050  223.3580 C   0  0  0  0  0  0  0  0  0  0  0  0
  137.8818   71.1824  222.6767 H   0  0  0  0  0  0  0  0  0  0  0  0
  138.2765   72.5067  223.8761 H   0  0  0  0  0  0  0  0  0  0  0  0
  139.8710   72.0280  222.5190 C   0  0  0  0  0  0  0  0  0  0  0  0
  140.6899   72.0676  223.2524 H   0  0  0  0  0  0  0  0  0  0  0  0
  140.2700   70.9950  221.4360 C   0  0  0  0  0  0  0  0  0  0  0  0
  140.7083   70.1183  221.9352 H   0  0  0  0  0  0  0  0  0  0  0  0
  139.3572   70.7422  220.8767 H   0  0  0  0  0  0  0  0  0  0  0  0
  141.2940   71.5400  220.4150 C   0  0  0  0  0  0  0  0  0  0  0  0
  142.0321   70.7524  220.2030 H   0  0  0  0  0  0  0  0  0  0  0  0
  140.7378   71.8320  219.5120 H   0  0  0  0  0  0  0  0  0  0  0  0
  142.0340   72.7800  220.9210 C   0  0  0  0  0  0  0  0  0  0  0  0
  142.6095   72.5107  221.8189 H   0  0  0  0  0  0  0  0  0  0  0  0
  142.6992   73.1346  220.1200 H   0  0  0  0  0  0  0  0  0  0  0  0
  141.0560   73.9190  221.2760 C   0  0  0  0  0  0  0  0  0  0  0  0
  141.5482   74.5869  221.9983 H   0  0  0  0  0  0  0  0  0  0  0  0
  140.8036   74.4309  220.3357 H   0  0  0  0  0  0  0  0  0  0  0  0
  139.7280   73.4270  221.8930 C   0  0  0  0  0  0  0  0  0  0  0  0
  139.4141   74.1357  222.6735 H   0  0  0  0  0  0  0  0  0  0  0  0
  138.9797   73.3665  221.0891 H   0  0  0  0  0  0  0  0  0  0  0  0
  135.2750   70.1730  224.5030 C   0  0  0  0  0  0  0  0  0  0  0  0
  134.6500   69.2520  225.3580 C   0  0  0  0  0  0  0  0  0  0  0  0
  134.7409   68.1735  225.1614 H   0  0  0  0  0  0  0  0  0  0  0  0
  133.9140   69.6980  226.4560 C   0  0  0  0  0  0  0  0  0  0  0  0
  133.4405   68.9695  227.1306 H   0  0  0  0  0  0  0  0  0  0  0  0
  133.7760   71.0660  226.7020 C   0  0  0  0  0  0  0  0  0  0  0  0
  133.2033   71.4091  227.5762 H   0  0  0  0  0  0  0  0  0  0  0  0
  134.3620   72.0030  225.8430 C   0  0  0  0  0  0  0  0  0  0  0  0
  134.1700   73.3660  226.1140 O   0  0  0  0  0  0  0  0  0  0  0  0
  134.5910   74.4230  225.2580 C   0  0  0  0  0  0  0  0  0  0  0  0
  134.9301   75.2744  225.8663 H   0  0  0  0  0  0  0  0  0  0  0  0
  135.4185   74.0732  224.6232 H   0  0  0  0  0  0  0  0  0  0  0  0
  133.7497   74.7379  224.6232 H   0  0  0  0  0  0  0  0  0  0  0  0
  135.1150   71.5520  224.7410 C   0  0  0  0  0  0  0  0  0  0  0  0
  135.5809   72.2814  224.0621 H   0  0  0  0  0  0  0  0  0  0  0  0
  1  2  1  0
  2  3  2  0
  3  4  1  0
  3  5  1  0
  5  6  2  0
  6  7  1  0
  7  8  2  0
  8  9  1  0
  8 10  1  0
 10 11  1  0
 10 12  2  0
 12 13  1  0
 12 14  1  0
 14 15  1  0
 14 16  2  0
 16 17  1  0
 17 18  2  0
 17 19  1  0
 19 20  1  0
 20 21  1  0
 20 22  1  0
 20 23  1  0
 23 24  1  0
 23 25  1  0
 25 26  1  0
 25 27  1  0
 25 28  1  0
 28 29  1  0
 28 30  1  0
 28 31  1  0
 31 32  1  0
 31 33  1  0
 31 34  1  0
 34 35  1  0
 34 36  1  0
 34 37  1  0
 37 38  1  0
 37 39  1  0
  2 40  1  0
 40 41  2  0
 41 42  1  0
 41 43  1  0
 43 44  1  0
 43 45  2  0
 45 46  1  0
 45 47  1  0
 47 48  1  0
 48 49  1  0
 49 50  1  0
 49 51  1  0
 49 52  1  0
 47 53  2  0
 53 54  1  0
 19  5  1  0
 37 23  1  0
 53 40  1  0
 16  7  1  0
M  END
>  <UniqueID>  (29) 
72

>  <SMILES>  (29) 
COc1cccc(/C=C/c2nc3ccccc3c(=O)n2CC2CCCCC2)c1

>  <Energy>  (29) 
72.20270117746165

>  <Genealogy>  (29) 
COc1cccc(/C=C/c2nc3ccccc3c(=O)n2CC2CCCCC2)c1 (cis-trans isomerization)
COc1cccc(/C=C/c2nc3ccccc3c(=O)n2CC2CCCCC2)c1 (3D coordinates assigned)
COc1cccc(/C=C/c2nc3ccccc3c(=O)n2CC2CCCCC2)c1 (nonaromatic ring conformer: 72.20270117746165 kcal/mol)

>  <smiles>  (29) 
COc1cccc(/C=C/c2nc3ccccc3c(=O)n2CC2CCCCC2)c1

>  <score_type>  (29) 
oracle

>  <origin>  (29) 
autodockgpu

>  <m_score__min__energy>  (29) 
-7.3499999999999996

>  <m_primary>  (29) 
energy

>  <meeko>  (29) 
{"free_energy": -6.99, "intermolecular_energy": -8.78, "internal_energy": -1.43, "cluster_size": 3, "cluster_id": 3, "rank_in_cluster": 3}

>  <energy>  (29) 
-7.08

>  <cluster_rmsd>  (29) 
0.0

>  <rmsd>  (29) 
270.38

>  <cluster>  (29) 
5

$$$$
SDBQQCBUKDXRSS-CCEZHUSRNA-N
     RDKit          3D

 54 57  0  0  0  0  0  0  0  0999 V2000
  143.9018   79.7090  222.7739 H   0  0  0  0  0  0  0  0  0  0  0  0
  142.8050   79.7850  222.7400 C   0  0  0  0  0  0  0  0  0  0  0  0
  142.0780   78.9730  223.5190 C   0  0  0  0  0  0  0  0  0  0  0  0
  142.5861   78.3516  224.2711 H   0  0  0  0  0  0  0  0  0  0  0  0
  140.6030   78.8940  223.3890 C   0  0  0  0  0  0  0  0  0  0  0  0
  139.8690   79.8300  224.0460 N   0  0  0  0  0  0  0  0  0  0  0  0
  138.5230   79.8920  223.9400 C   0  0  0  0  0  0  0  0  0  0  0  0
  137.8090   80.8760  224.6360 C   0  0  0  0  0  0  0  0  0  0  0  0
  138.3413   81.5807  225.2918 H   0  0  0  0  0  0  0  0  0  0  0  0
  136.4220   80.9630  224.4980 C   0  0  0  0  0  0  0  0  0  0  0  0
  135.8628   81.7357  225.0460 H   0  0  0  0  0  0  0  0  0  0  0  0
  135.7440   80.0700  223.6650 C   0  0  0  0  0  0  0  0  0  0  0  0
  134.6524   80.1452  223.5521 H   0  0  0  0  0  0  0  0  0  0  0  0
  136.4510   79.0800  222.9740 C   0  0  0  0  0  0  0  0  0  0  0  0
  135.9130   78.3747  222.3235 H   0  0  0  0  0  0  0  0  0  0  0  0
  137.8500   78.9840  223.1090 C   0  0  0  0  0  0  0  0  0  0  0  0
  138.6060   78.0040  222.4450 C   0  0  0  0  0  0  0  0  0  0  0  0
  138.0170   77.1830  221.6870 O   0  0  0  0  0  0  0  0  0  0  0  0
  139.9720   77.9370  222.6140 N   0  0  0  0  0  0  0  0  0  0  0  0
  140.7230   76.8200  221.9830 C   0  0  0  0  0  0  0  0  0  0  0  0
  141.4888   76.4733  222.6925 H   0  0  0  0  0  0  0  0  0  0  0  0
  139.9879   76.0388  221.7394 H   0  0  0  0  0  0  0  0  0  0  0  0
  141.4270   77.2060  220.6540 C   0  0  0  0  0  0  0  0  0  0  0  0
  142.0632   78.0605  220.9281 H   0  0  0  0  0  0  0  0  0  0  0  0
  142.3560   76.1000  220.0980 C   0  0  0  0  0  0  0  0  0  0  0  0
  143.2477   76.0392  220.7392 H   0  0  0  0  0  0  0  0  0  0  0  0
  141.7794   75.1632  220.0962 H   0  0  0  0  0  0  0  0  0  0  0  0
  142.8150   76.3550  218.6440 C   0  0  0  0  0  0  0  0  0  0  0  0
  143.8773   76.0827  218.5577 H   0  0  0  0  0  0  0  0  0  0  0  0
  142.1826   75.7428  217.9843 H   0  0  0  0  0  0  0  0  0  0  0  0
  142.6480   77.8160  218.2180 C   0  0  0  0  0  0  0  0  0  0  0  0
  143.2824   78.4486  218.8562 H   0  0  0  0  0  0  0  0  0  0  0  0
  142.9431   77.9022  217.1618 H   0  0  0  0  0  0  0  0  0  0  0  0
  141.1840   78.2820  218.3490 C   0  0  0  0  0  0  0  0  0  0  0  0
  141.1757   79.3774  218.4492 H   0  0  0  0  0  0  0  0  0  0  0  0
  140.6553   77.9395  217.4473 H   0  0  0  0  0  0  0  0  0  0  0  0
  140.4460   77.6750  219.5640 C   0  0  0  0  0  0  0  0  0  0  0  0
  139.7771   78.4367  219.9910 H   0  0  0  0  0  0  0  0  0  0  0  0
  139.8779   76.7996  219.2162 H   0  0  0  0  0  0  0  0  0  0  0  0
  142.1880   80.7800  221.8360 C   0  0  0  0  0  0  0  0  0  0  0  0
  141.5940   81.9250  222.3880 C   0  0  0  0  0  0  0  0  0  0  0  0
  141.5837   82.0639  223.4792 H   0  0  0  0  0  0  0  0  0  0  0  0
  141.0160   82.8890  221.5600 C   0  0  0  0  0  0  0  0  0  0  0  0
  140.5666   83.7917  221.9995 H   0  0  0  0  0  0  0  0  0  0  0  0
  141.0070   82.7100  220.1750 C   0  0  0  0  0  0  0  0  0  0  0  0
  140.5604   83.4794  219.5280 H   0  0  0  0  0  0  0  0  0  0  0  0
  141.5620   81.5590  219.6040 C   0  0  0  0  0  0  0  0  0  0  0  0
  141.5010   81.4120  218.2100 O   0  0  0  0  0  0  0  0  0  0  0  0
  142.6400   81.3050  217.3630 C   0  0  0  0  0  0  0  0  0  0  0  0
  143.5478   81.2197  217.9783 H   0  0  0  0  0  0  0  0  0  0  0  0
  142.5422   80.4121  216.7281 H   0  0  0  0  0  0  0  0  0  0  0  0
  142.7102   82.2005  216.7281 H   0  0  0  0  0  0  0  0  0  0  0  0
  142.1550   80.5930  220.4400 C   0  0  0  0  0  0  0  0  0  0  0  0
  142.5955   79.6862  219.9999 H   0  0  0  0  0  0  0  0  0  0  0  0
  1  2  1  0
  2  3  2  0
  3  4  1  0
  3  5  1  0
  5  6  2  0
  6  7  1  0
  7  8  2  0
  8  9  1  0
  8 10  1  0
 10 11  1  0
 10 12  2  0
 12 13  1  0
 12 14  1  0
 14 15  1  0
 14 16  2  0
 16 17  1  0
 17 18  2  0
 17 19  1  0
 19 20  1  0
 20 21  1  0
 20 22  1  0
 20 23  1  0
 23 24  1  0
 23 25  1  0
 25 26  1  0
 25 27  1  0
 25 28  1  0
 28 29  1  0
 28 30  1  0
 28 31  1  0
 31 32  1  0
 31 33  1  0
 31 34  1  0
 34 35  1  0
 34 36  1  0
 34 37  1  0
 37 38  1  0
 37 39  1  0
  2 40  1  0
 40 41  2  0
 41 42  1  0
 41 43  1  0
 43 44  1  0
 43 45  2  0
 45 46  1  0
 45 47  1  0
 47 48  1  0
 48 49  1  0
 49 50  1  0
 49 51  1  0
 49 52  1  0
 47 53  2  0
 53 54  1  0
 19  5  1  0
 37 23  1  0
 53 40  1  0
 16  7  1  0
M  END
>  <UniqueID>  (30) 
72

>  <SMILES>  (30) 
COc1cccc(/C=C/c2nc3ccccc3c(=O)n2CC2CCCCC2)c1

>  <Energy>  (30) 
72.20270117746165

>  <Genealogy>  (30) 
COc1cccc(/C=C/c2nc3ccccc3c(=O)n2CC2CCCCC2)c1 (cis-trans isomerization)
COc1cccc(/C=C/c2nc3ccccc3c(=O)n2CC2CCCCC2)c1 (3D coordinates assigned)
COc1cccc(/C=C/c2nc3ccccc3c(=O)n2CC2CCCCC2)c1 (nonaromatic ring conformer: 72.20270117746165 kcal/mol)

>  <smiles>  (30) 
COc1cccc(/C=C/c2nc3ccccc3c(=O)n2CC2CCCCC2)c1

>  <score_type>  (30) 
oracle

>  <origin>  (30) 
autodockgpu

>  <m_score__min__energy>  (30) 
-7.3499999999999996

>  <m_primary>  (30) 
energy

>  <meeko>  (30) 
{"free_energy": -6.06, "intermolecular_energy": -7.85, "internal_energy": -2.36, "cluster_size": 3, "cluster_id": 11, "rank_in_cluster": 3}

>  <energy>  (30) 
-7.03

>  <cluster_rmsd>  (30) 
1.59

>  <rmsd>  (30) 
270.19

>  <cluster>  (30) 
5

$$$$
SDBQQCBUKDXRSS-CCEZHUSRNA-N
     RDKit          3D

 54 57  0  0  0  0  0  0  0  0999 V2000
  134.8777   70.1749  222.9018 H   0  0  0  0  0  0  0  0  0  0  0  0
  135.5170   70.4810  223.7430 C   0  0  0  0  0  0  0  0  0  0  0  0
  136.8450   70.3740  223.6140 C   0  0  0  0  0  0  0  0  0  0  0  0
  137.3486   69.4623  223.9678 H   0  0  0  0  0  0  0  0  0  0  0  0
  137.6520   71.4590  223.0040 C   0  0  0  0  0  0  0  0  0  0  0  0
  136.9790   72.4510  222.3640 N   0  0  0  0  0  0  0  0  0  0  0  0
  137.6100   73.5220  221.8340 C   0  0  0  0  0  0  0  0  0  0  0  0
  136.8730   74.5200  221.1850 C   0  0  0  0  0  0  0  0  0  0  0  0
  135.7826   74.4185  221.0812 H   0  0  0  0  0  0  0  0  0  0  0  0
  137.5220   75.6450  220.6690 C   0  0  0  0  0  0  0  0  0  0  0  0
  136.9419   76.4282  220.1591 H   0  0  0  0  0  0  0  0  0  0  0  0
  138.9060   75.7760  220.8000 C   0  0  0  0  0  0  0  0  0  0  0  0
  139.4136   76.6657  220.3991 H   0  0  0  0  0  0  0  0  0  0  0  0
  139.6480   74.7780  221.4400 C   0  0  0  0  0  0  0  0  0  0  0  0
  140.7388   74.8822  221.5360 H   0  0  0  0  0  0  0  0  0  0  0  0
  139.0030   73.6400  221.9620 C   0  0  0  0  0  0  0  0  0  0  0  0
  139.7010   72.6050  222.6050 C   0  0  0  0  0  0  0  0  0  0  0  0
  140.9550   72.6980  222.7350 O   0  0  0  0  0  0  0  0  0  0  0  0
  139.0320   71.5020  223.0910 N   0  0  0  0  0  0  0  0  0  0  0  0
  139.8170   70.3780  223.6660 C   0  0  0  0  0  0  0  0  0  0  0  0
  139.3633   69.4327  223.3335 H   0  0  0  0  0  0  0  0  0  0  0  0
  140.8517   70.4966  223.3121 H   0  0  0  0  0  0  0  0  0  0  0  0
  139.8680   70.3770  225.2180 C   0  0  0  0  0  0  0  0  0  0  0  0
  138.8706   70.7306  225.5182 H   0  0  0  0  0  0  0  0  0  0  0  0
  140.0630   68.9680  225.8320 C   0  0  0  0  0  0  0  0  0  0  0  0
  139.1303   68.3993  225.7032 H   0  0  0  0  0  0  0  0  0  0  0  0
  140.9104   68.5002  225.3094 H   0  0  0  0  0  0  0  0  0  0  0  0
  140.4150   68.9980  227.3370 C   0  0  0  0  0  0  0  0  0  0  0  0
  139.8635   68.1919  227.8430 H   0  0  0  0  0  0  0  0  0  0  0  0
  141.5035   68.8657  227.4251 H   0  0  0  0  0  0  0  0  0  0  0  0
  140.0570   70.3290  228.0040 C   0  0  0  0  0  0  0  0  0  0  0  0
  138.9694   70.4801  227.9389 H   0  0  0  0  0  0  0  0  0  0  0  0
  140.3851   70.2880  229.0531 H   0  0  0  0  0  0  0  0  0  0  0  0
  140.7690   71.5140  227.3210 C   0  0  0  0  0  0  0  0  0  0  0  0
  140.1934   72.4290  227.5245 H   0  0  0  0  0  0  0  0  0  0  0  0
  141.7875   71.5583  227.7340 H   0  0  0  0  0  0  0  0  0  0  0  0
  140.9090   71.3560  225.7900 C   0  0  0  0  0  0  0  0  0  0  0  0
  140.7707   72.3392  225.3166 H   0  0  0  0  0  0  0  0  0  0  0  0
  141.9101   70.9522  225.5784 H   0  0  0  0  0  0  0  0  0  0  0  0
  134.8760   70.9950  224.9730 C   0  0  0  0  0  0  0  0  0  0  0  0
  134.5720   70.0970  226.0080 C   0  0  0  0  0  0  0  0  0  0  0  0
  134.8020   69.0277  225.8905 H   0  0  0  0  0  0  0  0  0  0  0  0
  133.9790   70.5550  227.1860 C   0  0  0  0  0  0  0  0  0  0  0  0
  133.7583   69.8478  227.9992 H   0  0  0  0  0  0  0  0  0  0  0  0
  133.6650   71.9070  227.3360 C   0  0  0  0  0  0  0  0  0  0  0  0
  133.2088   72.2616  228.2720 H   0  0  0  0  0  0  0  0  0  0  0  0
  133.9270   72.8140  226.3030 C   0  0  0  0  0  0  0  0  0  0  0  0
  133.5650   74.1570  226.4890 O   0  0  0  0  0  0  0  0  0  0  0  0
  134.2410   75.2610  225.8950 C   0  0  0  0  0  0  0  0  0  0  0  0
  134.6409   75.9141  226.6847 H   0  0  0  0  0  0  0  0  0  0  0  0
  135.0681   74.8918  225.2708 H   0  0  0  0  0  0  0  0  0  0  0  0
  133.5361   75.8298  225.2708 H   0  0  0  0  0  0  0  0  0  0  0  0
  134.5360   72.3540  225.1190 C   0  0  0  0  0  0  0  0  0  0  0  0
  134.7474   73.0608  224.3031 H   0  0  0  0  0  0  0  0  0  0  0  0
  1  2  1  0
  2  3  2  0
  3  4  1  0
  3  5  1  0
  5  6  2  0
  6  7  1  0
  7  8  2  0
  8  9  1  0
  8 10  1  0
 10 11  1  0
 10 12  2  0
 12 13  1  0
 12 14  1  0
 14 15  1  0
 14 16  2  0
 16 17  1  0
 17 18  2  0
 17 19  1  0
 19 20  1  0
 20 21  1  0
 20 22  1  0
 20 23  1  0
 23 24  1  0
 23 25  1  0
 25 26  1  0
 25 27  1  0
 25 28  1  0
 28 29  1  0
 28 30  1  0
 28 31  1  0
 31 32  1  0
 31 33  1  0
 31 34  1  0
 34 35  1  0
 34 36  1  0
 34 37  1  0
 37 38  1  0
 37 39  1  0
  2 40  1  0
 40 41  2  0
 41 42  1  0
 41 43  1  0
 43 44  1  0
 43 45  2  0
 45 46  1  0
 45 47  1  0
 47 48  1  0
 48 49  1  0
 49 50  1  0
 49 51  1  0
 49 52  1  0
 47 53  2  0
 53 54  1  0
 19  5  1  0
 37 23  1  0
 53 40  1  0
 16  7  1  0
M  END
>  <UniqueID>  (31) 
72

>  <SMILES>  (31) 
COc1cccc(/C=C/c2nc3ccccc3c(=O)n2CC2CCCCC2)c1

>  <Energy>  (31) 
72.20270117746165

>  <Genealogy>  (31) 
COc1cccc(/C=C/c2nc3ccccc3c(=O)n2CC2CCCCC2)c1 (cis-trans isomerization)
COc1cccc(/C=C/c2nc3ccccc3c(=O)n2CC2CCCCC2)c1 (3D coordinates assigned)
COc1cccc(/C=C/c2nc3ccccc3c(=O)n2CC2CCCCC2)c1 (nonaromatic ring conformer: 72.20270117746165 kcal/mol)

>  <smiles>  (31) 
COc1cccc(/C=C/c2nc3ccccc3c(=O)n2CC2CCCCC2)c1

>  <score_type>  (31) 
oracle

>  <origin>  (31) 
autodockgpu

>  <m_score__min__energy>  (31) 
-7.3499999999999996

>  <m_primary>  (31) 
energy

>  <meeko>  (31) 
{"free_energy": -7.35, "intermolecular_energy": -9.14, "internal_energy": -1.42, "cluster_size": 1, "cluster_id": 1, "rank_in_cluster": 1}

>  <energy>  (31) 
-7.06

>  <cluster_rmsd>  (31) 
0.0

>  <rmsd>  (31) 
270.23

>  <cluster>  (31) 
6

$$$$
SDBQQCBUKDXRSS-CCEZHUSRNA-N
     RDKit          3D

 54 57  0  0  0  0  0  0  0  0999 V2000
  143.9169   79.9019  222.8717 H   0  0  0  0  0  0  0  0  0  0  0  0
  142.8240   79.8760  222.7500 C   0  0  0  0  0  0  0  0  0  0  0  0
  142.1200   78.9730  223.4440 C   0  0  0  0  0  0  0  0  0  0  0  0
  142.6494   78.2672  224.1010 H   0  0  0  0  0  0  0  0  0  0  0  0
  140.6420   78.9040  223.3460 C   0  0  0  0  0  0  0  0  0  0  0  0
  139.9290   79.8500  224.0110 N   0  0  0  0  0  0  0  0  0  0  0  0
  138.5810   79.9220  223.9320 C   0  0  0  0  0  0  0  0  0  0  0  0
  137.8900   80.9160  224.6350 C   0  0  0  0  0  0  0  0  0  0  0  0
  138.4413   81.6212  225.2744 H   0  0  0  0  0  0  0  0  0  0  0  0
  136.5000   81.0130  224.5250 C   0  0  0  0  0  0  0  0  0  0  0  0
  135.9581   81.7944  225.0779 H   0  0  0  0  0  0  0  0  0  0  0  0
  135.7990   80.1190  223.7140 C   0  0  0  0  0  0  0  0  0  0  0  0
  134.7058   80.2015  223.6234 H   0  0  0  0  0  0  0  0  0  0  0  0
  136.4840   79.1180  223.0160 C   0  0  0  0  0  0  0  0  0  0  0  0
  135.9273   78.4121  222.3821 H   0  0  0  0  0  0  0  0  0  0  0  0
  137.8840   79.0120  223.1230 C   0  0  0  0  0  0  0  0  0  0  0  0
  138.6190   78.0220  222.4510 C   0  0  0  0  0  0  0  0  0  0  0  0
  138.0080   77.1990  221.7120 O   0  0  0  0  0  0  0  0  0  0  0  0
  139.9880   77.9460  222.5920 N   0  0  0  0  0  0  0  0  0  0  0  0
  140.7180   76.8180  221.9550 C   0  0  0  0  0  0  0  0  0  0  0  0
  141.4758   76.4516  222.6632 H   0  0  0  0  0  0  0  0  0  0  0  0
  139.9687   76.0523  221.7057 H   0  0  0  0  0  0  0  0  0  0  0  0
  141.4310   77.2000  220.6300 C   0  0  0  0  0  0  0  0  0  0  0  0
  142.0529   78.0655  220.9024 H   0  0  0  0  0  0  0  0  0  0  0  0
  142.3790   76.0980  220.0950 C   0  0  0  0  0  0  0  0  0  0  0  0
  143.2642   76.0532  220.7465 H   0  0  0  0  0  0  0  0  0  0  0  0
  141.8134   75.1546  220.0963 H   0  0  0  0  0  0  0  0  0  0  0  0
  142.8510   76.3450  218.6430 C   0  0  0  0  0  0  0  0  0  0  0  0
  143.9173   76.0845  218.5710 H   0  0  0  0  0  0  0  0  0  0  0  0
  142.2324   75.7193  217.9829 H   0  0  0  0  0  0  0  0  0  0  0  0
  142.6720   77.7990  218.2000 C   0  0  0  0  0  0  0  0  0  0  0  0
  143.2923   78.4456  218.8381 H   0  0  0  0  0  0  0  0  0  0  0  0
  142.9775   77.8778  217.1462 H   0  0  0  0  0  0  0  0  0  0  0  0
  141.2010   78.2490  218.3110 C   0  0  0  0  0  0  0  0  0  0  0  0
  141.1789   79.3452  218.3998 H   0  0  0  0  0  0  0  0  0  0  0  0
  140.6861   77.8908  217.4074 H   0  0  0  0  0  0  0  0  0  0  0  0
  140.4570   77.6460  219.5240 C   0  0  0  0  0  0  0  0  0  0  0  0
  139.7744   78.4041  219.9355 H   0  0  0  0  0  0  0  0  0  0  0  0
  139.9035   76.7602  219.1790 H   0  0  0  0  0  0  0  0  0  0  0  0
  142.1880   80.8400  221.8260 C   0  0  0  0  0  0  0  0  0  0  0  0
  141.5930   81.9970  222.3540 C   0  0  0  0  0  0  0  0  0  0  0  0
  141.5972   82.1676  223.4407 H   0  0  0  0  0  0  0  0  0  0  0  0
  140.9960   82.9320  221.5060 C   0  0  0  0  0  0  0  0  0  0  0  0
  140.5454   83.8435  221.9257 H   0  0  0  0  0  0  0  0  0  0  0  0
  140.9690   82.7140  220.1270 C   0  0  0  0  0  0  0  0  0  0  0  0
  140.5071   83.4609  219.4646 H   0  0  0  0  0  0  0  0  0  0  0  0
  141.5260   81.5510  219.5820 C   0  0  0  0  0  0  0  0  0  0  0  0
  141.4470   81.3640  218.1940 O   0  0  0  0  0  0  0  0  0  0  0  0
  142.5740   81.3070  217.3250 C   0  0  0  0  0  0  0  0  0  0  0  0
  143.4961   81.2604  217.9230 H   0  0  0  0  0  0  0  0  0  0  0  0
  142.5028   80.4113  216.6904 H   0  0  0  0  0  0  0  0  0  0  0  0
  142.5935   82.2053  216.6904 H   0  0  0  0  0  0  0  0  0  0  0  0
  142.1380   80.6130  220.4370 C   0  0  0  0  0  0  0  0  0  0  0  0
  142.5796   79.6974  220.0168 H   0  0  0  0  0  0  0  0  0  0  0  0
  1  2  1  0
  2  3  2  0
  3  4  1  0
  3  5  1  0
  5  6  2  0
  6  7  1  0
  7  8  2  0
  8  9  1  0
  8 10  1  0
 10 11  1  0
 10 12  2  0
 12 13  1  0
 12 14  1  0
 14 15  1  0
 14 16  2  0
 16 17  1  0
 17 18  2  0
 17 19  1  0
 19 20  1  0
 20 21  1  0
 20 22  1  0
 20 23  1  0
 23 24  1  0
 23 25  1  0
 25 26  1  0
 25 27  1  0
 25 28  1  0
 28 29  1  0
 28 30  1  0
 28 31  1  0
 31 32  1  0
 31 33  1  0
 31 34  1  0
 34 35  1  0
 34 36  1  0
 34 37  1  0
 37 38  1  0
 37 39  1  0
  2 40  1  0
 40 41  2  0
 41 42  1  0
 41 43  1  0
 43 44  1  0
 43 45  2  0
 45 46  1  0
 45 47  1  0
 47 48  1  0
 48 49  1  0
 49 50  1  0
 49 51  1  0
 49 52  1  0
 47 53  2  0
 53 54  1  0
 19  5  1  0
 37 23  1  0
 53 40  1  0
 16  7  1  0
M  END
>  <UniqueID>  (32) 
72

>  <SMILES>  (32) 
COc1cccc(/C=C/c2nc3ccccc3c(=O)n2CC2CCCCC2)c1

>  <Energy>  (32) 
72.20270117746165

>  <Genealogy>  (32) 
COc1cccc(/C=C/c2nc3ccccc3c(=O)n2CC2CCCCC2)c1 (cis-trans isomerization)
COc1cccc(/C=C/c2nc3ccccc3c(=O)n2CC2CCCCC2)c1 (3D coordinates assigned)
COc1cccc(/C=C/c2nc3ccccc3c(=O)n2CC2CCCCC2)c1 (nonaromatic ring conformer: 72.20270117746165 kcal/mol)

>  <smiles>  (32) 
COc1cccc(/C=C/c2nc3ccccc3c(=O)n2CC2CCCCC2)c1

>  <score_type>  (32) 
oracle

>  <origin>  (32) 
autodockgpu

>  <m_score__min__energy>  (32) 
-7.3499999999999996

>  <m_primary>  (32) 
energy

>  <meeko>  (32) 
{"free_energy": -6.09, "intermolecular_energy": -7.88, "internal_energy": -2.37, "cluster_size": 3, "cluster_id": 11, "rank_in_cluster": 2}

>  <energy>  (32) 
-6.86

>  <cluster_rmsd>  (32) 
1.89

>  <rmsd>  (32) 
270.3

>  <cluster>  (32) 
6

$$$$
SDBQQCBUKDXRSS-CCEZHUSRNA-N
     RDKit          3D

 54 57  0  0  0  0  0  0  0  0999 V2000
  141.6123   72.2273  221.8026 H   0  0  0  0  0  0  0  0  0  0  0  0
  140.6600   72.4040  222.3240 C   0  0  0  0  0  0  0  0  0  0  0  0
  139.8570   73.3810  221.8850 C   0  0  0  0  0  0  0  0  0  0  0  0
  138.7833   73.1785  221.7581 H   0  0  0  0  0  0  0  0  0  0  0  0
  140.3830   74.7300  221.5660 C   0  0  0  0  0  0  0  0  0  0  0  0
  139.9750   75.7600  222.3540 N   0  0  0  0  0  0  0  0  0  0  0  0
  140.4470   77.0170  222.1960 C   0  0  0  0  0  0  0  0  0  0  0  0
  139.9970   78.0450  223.0320 C   0  0  0  0  0  0  0  0  0  0  0  0
  139.2371   77.8361  223.7994 H   0  0  0  0  0  0  0  0  0  0  0  0
  140.5120   79.3370  222.8930 C   0  0  0  0  0  0  0  0  0  0  0  0
  140.1576   80.1438  223.5514 H   0  0  0  0  0  0  0  0  0  0  0  0
  141.4760   79.6040  221.9190 C   0  0  0  0  0  0  0  0  0  0  0  0
  141.8845   80.6200  221.8151 H   0  0  0  0  0  0  0  0  0  0  0  0
  141.9240   78.5810  221.0740 C   0  0  0  0  0  0  0  0  0  0  0  0
  142.6804   78.7962  220.3048 H   0  0  0  0  0  0  0  0  0  0  0  0
  141.4080   77.2770  221.2070 C   0  0  0  0  0  0  0  0  0  0  0  0
  141.8160   76.2180  220.3800 C   0  0  0  0  0  0  0  0  0  0  0  0
  142.6860   76.4330  219.4890 O   0  0  0  0  0  0  0  0  0  0  0  0
  141.2780   74.9580  220.5360 N   0  0  0  0  0  0  0  0  0  0  0  0
  141.6510   73.8900  219.5710 C   0  0  0  0  0  0  0  0  0  0  0  0
  140.9864   73.0286  219.7332 H   0  0  0  0  0  0  0  0  0  0  0  0
  141.5470   74.3185  218.5633 H   0  0  0  0  0  0  0  0  0  0  0  0
  143.1200   73.4070  219.7070 C   0  0  0  0  0  0  0  0  0  0  0  0
  143.5860   73.7030  218.7556 H   0  0  0  0  0  0  0  0  0  0  0  0
  143.9030   74.1090  220.8440 C   0  0  0  0  0  0  0  0  0  0  0  0
  144.1037   75.1468  220.5396 H   0  0  0  0  0  0  0  0  0  0  0  0
  143.2799   74.0533  221.7488 H   0  0  0  0  0  0  0  0  0  0  0  0
  145.2500   73.4270  221.1760 C   0  0  0  0  0  0  0  0  0  0  0  0
  146.0056   74.2073  221.3497 H   0  0  0  0  0  0  0  0  0  0  0  0
  145.0944   72.8037  222.0689 H   0  0  0  0  0  0  0  0  0  0  0  0
  145.7430   72.5100  220.0540 C   0  0  0  0  0  0  0  0  0  0  0  0
  145.9189   73.1132  219.1511 H   0  0  0  0  0  0  0  0  0  0  0  0
  146.6717   72.0247  220.3887 H   0  0  0  0  0  0  0  0  0  0  0  0
  144.7130   71.4090  219.7280 C   0  0  0  0  0  0  0  0  0  0  0  0
  144.8882   71.0635  218.6985 H   0  0  0  0  0  0  0  0  0  0  0  0
  144.8530   70.6083  220.4691 H   0  0  0  0  0  0  0  0  0  0  0  0
  143.2450   71.8780  219.8420 C   0  0  0  0  0  0  0  0  0  0  0  0
  142.6561   71.4010  219.0447 H   0  0  0  0  0  0  0  0  0  0  0  0
  142.8711   71.5912  220.8359 H   0  0  0  0  0  0  0  0  0  0  0  0
  140.3150   71.5530  223.4840 C   0  0  0  0  0  0  0  0  0  0  0  0
  139.5580   70.3900  223.2720 C   0  0  0  0  0  0  0  0  0  0  0  0
  139.2233   70.1320  222.2564 H   0  0  0  0  0  0  0  0  0  0  0  0
  139.2280   69.5590  224.3450 C   0  0  0  0  0  0  0  0  0  0  0  0
  138.6477   68.6412  224.1691 H   0  0  0  0  0  0  0  0  0  0  0  0
  139.6320   69.8890  225.6400 C   0  0  0  0  0  0  0  0  0  0  0  0
  139.3783   69.2231  226.4780 H   0  0  0  0  0  0  0  0  0  0  0  0
  140.3580   71.0620  225.8790 C   0  0  0  0  0  0  0  0  0  0  0  0
  140.7150   71.3660  227.2020 O   0  0  0  0  0  0  0  0  0  0  0  0
  139.9810   70.9460  228.3480 C   0  0  0  0  0  0  0  0  0  0  0  0
  140.5163   71.2523  229.2588 H   0  0  0  0  0  0  0  0  0  0  0  0
  138.9838   71.4102  228.3352 H   0  0  0  0  0  0  0  0  0  0  0  0
  139.8760   69.8511  228.3352 H   0  0  0  0  0  0  0  0  0  0  0  0
  140.7000   71.8940  224.7950 C   0  0  0  0  0  0  0  0  0  0  0  0
  141.2718   72.8165  224.9738 H   0  0  0  0  0  0  0  0  0  0  0  0
  1  2  1  0
  2  3  2  0
  3  4  1  0
  3  5  1  0
  5  6  2  0
  6  7  1  0
  7  8  2  0
  8  9  1  0
  8 10  1  0
 10 11  1  0
 10 12  2  0
 12 13  1  0
 12 14  1  0
 14 15  1  0
 14 16  2  0
 16 17  1  0
 17 18  2  0
 17 19  1  0
 19 20  1  0
 20 21  1  0
 20 22  1  0
 20 23  1  0
 23 24  1  0
 23 25  1  0
 25 26  1  0
 25 27  1  0
 25 28  1  0
 28 29  1  0
 28 30  1  0
 28 31  1  0
 31 32  1  0
 31 33  1  0
 31 34  1  0
 34 35  1  0
 34 36  1  0
 34 37  1  0
 37 38  1  0
 37 39  1  0
  2 40  1  0
 40 41  2  0
 41 42  1  0
 41 43  1  0
 43 44  1  0
 43 45  2  0
 45 46  1  0
 45 47  1  0
 47 48  1  0
 48 49  1  0
 49 50  1  0
 49 51  1  0
 49 52  1  0
 47 53  2  0
 53 54  1  0
 19  5  1  0
 37 23  1  0
 53 40  1  0
 16  7  1  0
M  END
>  <UniqueID>  (33) 
72

>  <SMILES>  (33) 
COc1cccc(/C=C/c2nc3ccccc3c(=O)n2CC2CCCCC2)c1

>  <Energy>  (33) 
72.20270117746165

>  <Genealogy>  (33) 
COc1cccc(/C=C/c2nc3ccccc3c(=O)n2CC2CCCCC2)c1 (cis-trans isomerization)
COc1cccc(/C=C/c2nc3ccccc3c(=O)n2CC2CCCCC2)c1 (3D coordinates assigned)
COc1cccc(/C=C/c2nc3ccccc3c(=O)n2CC2CCCCC2)c1 (nonaromatic ring conformer: 72.20270117746165 kcal/mol)

>  <smiles>  (33) 
COc1cccc(/C=C/c2nc3ccccc3c(=O)n2CC2CCCCC2)c1

>  <score_type>  (33) 
oracle

>  <origin>  (33) 
autodockgpu

>  <m_score__min__energy>  (33) 
-7.3499999999999996

>  <m_primary>  (33) 
energy

>  <meeko>  (33) 
{"free_energy": -7.11, "intermolecular_energy": -8.9, "internal_energy": -1.24, "cluster_size": 2, "cluster_id": 4, "rank_in_cluster": 2}

>  <energy>  (33) 
-7.04

>  <cluster_rmsd>  (33) 
0.0

>  <rmsd>  (33) 
270.69

>  <cluster>  (33) 
7

$$$$
SDBQQCBUKDXRSS-CCEZHUSRNA-N
     RDKit          3D

 54 57  0  0  0  0  0  0  0  0999 V2000
  136.2887   69.2460  221.6347 H   0  0  0  0  0  0  0  0  0  0  0  0
  136.6490   69.2350  222.6740 C   0  0  0  0  0  0  0  0  0  0  0  0
  137.8860   68.7870  222.9220 C   0  0  0  0  0  0  0  0  0  0  0  0
  138.3318   68.0380  222.2510 H   0  0  0  0  0  0  0  0  0  0  0  0
  138.6680   69.2790  224.0820 C   0  0  0  0  0  0  0  0  0  0  0  0
  138.8470   68.4220  225.1220 N   0  0  0  0  0  0  0  0  0  0  0  0
  139.6010   68.7430  226.1970 C   0  0  0  0  0  0  0  0  0  0  0  0
  139.7560   67.8260  227.2430 C   0  0  0  0  0  0  0  0  0  0  0  0
  139.2407   66.8550  227.2033 H   0  0  0  0  0  0  0  0  0  0  0  0
  140.5650   68.1430  228.3380 C   0  0  0  0  0  0  0  0  0  0  0  0
  140.6857   67.4213  229.1593 H   0  0  0  0  0  0  0  0  0  0  0  0
  141.2200   69.3750  228.3900 C   0  0  0  0  0  0  0  0  0  0  0  0
  141.8612   69.6201  229.2495 H   0  0  0  0  0  0  0  0  0  0  0  0
  141.0620   70.2990  227.3500 C   0  0  0  0  0  0  0  0  0  0  0  0
  141.5762   71.2703  227.3964 H   0  0  0  0  0  0  0  0  0  0  0  0
  140.2460   69.9880  226.2440 C   0  0  0  0  0  0  0  0  0  0  0  0
  140.0460   70.8810  225.1800 C   0  0  0  0  0  0  0  0  0  0  0  0
  140.6260   72.0040  225.2030 O   0  0  0  0  0  0  0  0  0  0  0  0
  139.2310   70.5430  224.1210 N   0  0  0  0  0  0  0  0  0  0  0  0
  138.9560   71.5560  223.0690 C   0  0  0  0  0  0  0  0  0  0  0  0
  138.2493   71.1220  222.3464 H   0  0  0  0  0  0  0  0  0  0  0  0
  138.5486   72.4423  223.5775 H   0  0  0  0  0  0  0  0  0  0  0  0
  140.2200   72.0200  222.2980 C   0  0  0  0  0  0  0  0  0  0  0  0
  141.0071   72.0400  223.0661 H   0  0  0  0  0  0  0  0  0  0  0  0
  140.6740   71.0310  221.1960 C   0  0  0  0  0  0  0  0  0  0  0  0
  141.1008   70.1408  221.6811 H   0  0  0  0  0  0  0  0  0  0  0  0
  139.7874   70.7908  220.5908 H   0  0  0  0  0  0  0  0  0  0  0  0
  141.7340   71.6220  220.2370 C   0  0  0  0  0  0  0  0  0  0  0  0
  142.4880   70.8491  220.0268 H   0  0  0  0  0  0  0  0  0  0  0  0
  141.2126   71.9418  219.3227 H   0  0  0  0  0  0  0  0  0  0  0  0
  142.4400   72.8490  220.8190 C   0  0  0  0  0  0  0  0  0  0  0  0
  142.9803   72.5515  221.7298 H   0  0  0  0  0  0  0  0  0  0  0  0
  143.1345   73.2388  220.0602 H   0  0  0  0  0  0  0  0  0  0  0  0
  141.4370   73.9650  221.1740 C   0  0  0  0  0  0  0  0  0  0  0  0
  141.8922   74.6101  221.9399 H   0  0  0  0  0  0  0  0  0  0  0  0
  141.2184   74.5084  220.2429 H   0  0  0  0  0  0  0  0  0  0  0  0
  140.0890   73.4400  221.7170 C   0  0  0  0  0  0  0  0  0  0  0  0
  139.7361   74.1173  222.5086 H   0  0  0  0  0  0  0  0  0  0  0  0
  139.3751   73.4026  220.8809 H   0  0  0  0  0  0  0  0  0  0  0  0
  135.7480   69.7160  223.7450 C   0  0  0  0  0  0  0  0  0  0  0  0
  135.6230   71.0970  223.9590 C   0  0  0  0  0  0  0  0  0  0  0  0
  136.1993   71.8014  223.3412 H   0  0  0  0  0  0  0  0  0  0  0  0
  134.7700   71.5810  224.9530 C   0  0  0  0  0  0  0  0  0  0  0  0
  134.6651   72.6654  225.1046 H   0  0  0  0  0  0  0  0  0  0  0  0
  134.0500   70.6940  225.7550 C   0  0  0  0  0  0  0  0  0  0  0  0
  133.3713   71.0838  226.5280 H   0  0  0  0  0  0  0  0  0  0  0  0
  134.1860   69.3120  225.5820 C   0  0  0  0  0  0  0  0  0  0  0  0
  133.4650   68.4600  226.4330 O   0  0  0  0  0  0  0  0  0  0  0  0
  133.4820   67.0390  226.3500 C   0  0  0  0  0  0  0  0  0  0  0  0
  133.4871   66.6125  227.3640 H   0  0  0  0  0  0  0  0  0  0  0  0
  132.5879   66.6925  225.8110 H   0  0  0  0  0  0  0  0  0  0  0  0
  134.3841   66.7140  225.8110 H   0  0  0  0  0  0  0  0  0  0  0  0
  135.0380   68.8240  224.5710 C   0  0  0  0  0  0  0  0  0  0  0  0
  135.1490   67.7392  224.4263 H   0  0  0  0  0  0  0  0  0  0  0  0
  1  2  1  0
  2  3  2  0
  3  4  1  0
  3  5  1  0
  5  6  2  0
  6  7  1  0
  7  8  2  0
  8  9  1  0
  8 10  1  0
 10 11  1  0
 10 12  2  0
 12 13  1  0
 12 14  1  0
 14 15  1  0
 14 16  2  0
 16 17  1  0
 17 18  2  0
 17 19  1  0
 19 20  1  0
 20 21  1  0
 20 22  1  0
 20 23  1  0
 23 24  1  0
 23 25  1  0
 25 26  1  0
 25 27  1  0
 25 28  1  0
 28 29  1  0
 28 30  1  0
 28 31  1  0
 31 32  1  0
 31 33  1  0
 31 34  1  0
 34 35  1  0
 34 36  1  0
 34 37  1  0
 37 38  1  0
 37 39  1  0
  2 40  1  0
 40 41  2  0
 41 42  1  0
 41 43  1  0
 43 44  1  0
 43 45  2  0
 45 46  1  0
 45 47  1  0
 47 48  1  0
 48 49  1  0
 49 50  1  0
 49 51  1  0
 49 52  1  0
 47 53  2  0
 53 54  1  0
 19  5  1  0
 37 23  1  0
 53 40  1  0
 16  7  1  0
M  END
>  <UniqueID>  (34) 
72

>  <SMILES>  (34) 
COc1cccc(/C=C/c2nc3ccccc3c(=O)n2CC2CCCCC2)c1

>  <Energy>  (34) 
72.20270117746165

>  <Genealogy>  (34) 
COc1cccc(/C=C/c2nc3ccccc3c(=O)n2CC2CCCCC2)c1 (cis-trans isomerization)
COc1cccc(/C=C/c2nc3ccccc3c(=O)n2CC2CCCCC2)c1 (3D coordinates assigned)
COc1cccc(/C=C/c2nc3ccccc3c(=O)n2CC2CCCCC2)c1 (nonaromatic ring conformer: 72.20270117746165 kcal/mol)

>  <smiles>  (34) 
COc1cccc(/C=C/c2nc3ccccc3c(=O)n2CC2CCCCC2)c1

>  <score_type>  (34) 
oracle

>  <origin>  (34) 
autodockgpu

>  <m_score__min__energy>  (34) 
-7.3499999999999996

>  <m_primary>  (34) 
energy

>  <meeko>  (34) 
{"free_energy": -7.31, "intermolecular_energy": -9.1, "internal_energy": -1.56, "cluster_size": 3, "cluster_id": 3, "rank_in_cluster": 1}

>  <energy>  (34) 
-6.82

>  <cluster_rmsd>  (34) 
0.0

>  <rmsd>  (34) 
270.73

>  <cluster>  (34) 
8

$$$$
SDBQQCBUKDXRSS-CCEZHUSRNA-N
     RDKit          3D

 54 57  0  0  0  0  0  0  0  0999 V2000
  136.2453   68.6083  221.7567 H   0  0  0  0  0  0  0  0  0  0  0  0
  136.7360   69.0490  222.6370 C   0  0  0  0  0  0  0  0  0  0  0  0
  138.0740   69.0740  222.6840 C   0  0  0  0  0  0  0  0  0  0  0  0
  138.6493   68.7711  221.7967 H   0  0  0  0  0  0  0  0  0  0  0  0
  138.7970   69.5010  223.9060 C   0  0  0  0  0  0  0  0  0  0  0  0
  138.9080   68.5950  224.9130 N   0  0  0  0  0  0  0  0  0  0  0  0
  139.6060   68.8550  226.0410 C   0  0  0  0  0  0  0  0  0  0  0  0
  139.6910   67.8890  227.0510 C   0  0  0  0  0  0  0  0  0  0  0  0
  139.1657   66.9290  226.9392 H   0  0  0  0  0  0  0  0  0  0  0  0
  140.4430   68.1440  228.2010 C   0  0  0  0  0  0  0  0  0  0  0  0
  140.5100   67.3840  228.9934 H   0  0  0  0  0  0  0  0  0  0  0  0
  141.1090   69.3620  228.3450 C   0  0  0  0  0  0  0  0  0  0  0  0
  141.7052   69.5581  229.2484 H   0  0  0  0  0  0  0  0  0  0  0  0
  141.0200   70.3340  227.3430 C   0  0  0  0  0  0  0  0  0  0  0  0
  141.5425   71.2946  227.4627 H   0  0  0  0  0  0  0  0  0  0  0  0
  140.2630   70.0860  226.1810 C   0  0  0  0  0  0  0  0  0  0  0  0
  140.1330   71.0300  225.1500 C   0  0  0  0  0  0  0  0  0  0  0  0
  140.7250   72.1420  225.2560 O   0  0  0  0  0  0  0  0  0  0  0  0
  139.3730   70.7520  224.0340 N   0  0  0  0  0  0  0  0  0  0  0  0
  139.1690   71.8170  223.0160 C   0  0  0  0  0  0  0  0  0  0  0  0
  138.4249   71.4622  222.2878 H   0  0  0  0  0  0  0  0  0  0  0  0
  138.8359   72.7156  223.5560 H   0  0  0  0  0  0  0  0  0  0  0  0
  140.4600   72.2060  222.2460 C   0  0  0  0  0  0  0  0  0  0  0  0
  141.2318   72.2535  223.0283 H   0  0  0  0  0  0  0  0  0  0  0  0
  140.9130   71.1430  221.2140 C   0  0  0  0  0  0  0  0  0  0  0  0
  141.3079   70.2734  221.7598 H   0  0  0  0  0  0  0  0  0  0  0  0
  140.0338   70.8874  220.6043 H   0  0  0  0  0  0  0  0  0  0  0  0
  142.0060   71.6520  220.2470 C   0  0  0  0  0  0  0  0  0  0  0  0
  142.7458   70.8513  220.1002 H   0  0  0  0  0  0  0  0  0  0  0  0
  141.5112   71.9286  219.3043 H   0  0  0  0  0  0  0  0  0  0  0  0
  142.7290   72.8960  220.7700 C   0  0  0  0  0  0  0  0  0  0  0  0
  143.2443   72.6417  221.7080 H   0  0  0  0  0  0  0  0  0  0  0  0
  143.4473   73.2244  220.0044 H   0  0  0  0  0  0  0  0  0  0  0  0
  141.7450   74.0530  221.0370 C   0  0  0  0  0  0  0  0  0  0  0  0
  142.1996   74.7324  221.7730 H   0  0  0  0  0  0  0  0  0  0  0  0
  141.5577   74.5447  220.0710 H   0  0  0  0  0  0  0  0  0  0  0  0
  140.3750   73.5910  221.5810 C   0  0  0  0  0  0  0  0  0  0  0  0
  140.0226   74.3215  222.3241 H   0  0  0  0  0  0  0  0  0  0  0  0
  139.6775   73.5203  220.7333 H   0  0  0  0  0  0  0  0  0  0  0  0
  135.8930   69.5920  223.7250 C   0  0  0  0  0  0  0  0  0  0  0  0
  135.8720   70.9780  223.9420 C   0  0  0  0  0  0  0  0  0  0  0  0
  136.4853   71.6400  223.3130 H   0  0  0  0  0  0  0  0  0  0  0  0
  135.0760   71.5210  224.9530 C   0  0  0  0  0  0  0  0  0  0  0  0
  135.0527   72.6100  225.1068 H   0  0  0  0  0  0  0  0  0  0  0  0
  134.3100   70.6870  225.7690 C   0  0  0  0  0  0  0  0  0  0  0  0
  133.6770   71.1236  226.5556 H   0  0  0  0  0  0  0  0  0  0  0  0
  134.3420   69.2990  225.5930 C   0  0  0  0  0  0  0  0  0  0  0  0
  133.5780   68.5000  226.4570 O   0  0  0  0  0  0  0  0  0  0  0  0
  133.5630   67.0770  226.4330 C   0  0  0  0  0  0  0  0  0  0  0  0
  133.5590   66.6929  227.4638 H   0  0  0  0  0  0  0  0  0  0  0  0
  132.6611   66.7286  225.9083 H   0  0  0  0  0  0  0  0  0  0  0  0
  134.4573   66.7097  225.9083 H   0  0  0  0  0  0  0  0  0  0  0  0
  135.1370   68.7520  224.5660 C   0  0  0  0  0  0  0  0  0  0  0  0
  135.1674   67.6621  224.4201 H   0  0  0  0  0  0  0  0  0  0  0  0
  1  2  1  0
  2  3  2  0
  3  4  1  0
  3  5  1  0
  5  6  2  0
  6  7  1  0
  7  8  2  0
  8  9  1  0
  8 10  1  0
 10 11  1  0
 10 12  2  0
 12 13  1  0
 12 14  1  0
 14 15  1  0
 14 16  2  0
 16 17  1  0
 17 18  2  0
 17 19  1  0
 19 20  1  0
 20 21  1  0
 20 22  1  0
 20 23  1  0
 23 24  1  0
 23 25  1  0
 25 26  1  0
 25 27  1  0
 25 28  1  0
 28 29  1  0
 28 30  1  0
 28 31  1  0
 31 32  1  0
 31 33  1  0
 31 34  1  0
 34 35  1  0
 34 36  1  0
 34 37  1  0
 37 38  1  0
 37 39  1  0
  2 40  1  0
 40 41  2  0
 41 42  1  0
 41 43  1  0
 43 44  1  0
 43 45  2  0
 45 46  1  0
 45 47  1  0
 47 48  1  0
 48 49  1  0
 49 50  1  0
 49 51  1  0
 49 52  1  0
 47 53  2  0
 53 54  1  0
 19  5  1  0
 37 23  1  0
 53 40  1  0
 16  7  1  0
M  END
>  <UniqueID>  (35) 
72

>  <SMILES>  (35) 
COc1cccc(/C=C/c2nc3ccccc3c(=O)n2CC2CCCCC2)c1

>  <Energy>  (35) 
72.20270117746165

>  <Genealogy>  (35) 
COc1cccc(/C=C/c2nc3ccccc3c(=O)n2CC2CCCCC2)c1 (cis-trans isomerization)
COc1cccc(/C=C/c2nc3ccccc3c(=O)n2CC2CCCCC2)c1 (3D coordinates assigned)
COc1cccc(/C=C/c2nc3ccccc3c(=O)n2CC2CCCCC2)c1 (nonaromatic ring conformer: 72.20270117746165 kcal/mol)

>  <smiles>  (35) 
COc1cccc(/C=C/c2nc3ccccc3c(=O)n2CC2CCCCC2)c1

>  <score_type>  (35) 
oracle

>  <origin>  (35) 
autodockgpu

>  <m_score__min__energy>  (35) 
-7.3499999999999996

>  <m_primary>  (35) 
energy

>  <meeko>  (35) 
{"free_energy": -7.11, "intermolecular_energy": -8.9, "internal_energy": -1.62, "cluster_size": 3, "cluster_id": 3, "rank_in_cluster": 2}

>  <energy>  (35) 
-6.65

>  <cluster_rmsd>  (35) 
0.0

>  <rmsd>  (35) 
270.99

>  <cluster>  (35) 
9

$$$$
SDBQQCBUKDXRSS-CCEZHUSRNA-N
     RDKit          3D

 54 57  0  0  0  0  0  0  0  0999 V2000
  139.2740   73.9313  222.6622 H   0  0  0  0  0  0  0  0  0  0  0  0
  139.7280   72.9960  222.3030 C   0  0  0  0  0  0  0  0  0  0  0  0
  139.0900   71.8420  222.5310 C   0  0  0  0  0  0  0  0  0  0  0  0
  138.3190   71.5039  221.8231 H   0  0  0  0  0  0  0  0  0  0  0  0
  139.4010   71.0090  223.7190 C   0  0  0  0  0  0  0  0  0  0  0  0
  140.0150   71.6210  224.7660 N   0  0  0  0  0  0  0  0  0  0  0  0
  140.2800   70.9740  225.9220 C   0  0  0  0  0  0  0  0  0  0  0  0
  140.9140   71.6470  226.9730 C   0  0  0  0  0  0  0  0  0  0  0  0
  141.2228   72.6953  226.8474 H   0  0  0  0  0  0  0  0  0  0  0  0
  141.1550   70.9880  228.1820 C   0  0  0  0  0  0  0  0  0  0  0  0
  141.6524   71.5185  229.0073 H   0  0  0  0  0  0  0  0  0  0  0  0
  140.7650   69.6570  228.3430 C   0  0  0  0  0  0  0  0  0  0  0  0
  140.9510   69.1420  229.2970 H   0  0  0  0  0  0  0  0  0  0  0  0
  140.1380   68.9770  227.2930 C   0  0  0  0  0  0  0  0  0  0  0  0
  139.8357   67.9273  227.4223 H   0  0  0  0  0  0  0  0  0  0  0  0
  139.8930   69.6330  226.0710 C   0  0  0  0  0  0  0  0  0  0  0  0
  139.2760   68.9940  224.9820 C   0  0  0  0  0  0  0  0  0  0  0  0
  138.9140   67.7890  225.1020 O   0  0  0  0  0  0  0  0  0  0  0  0
  139.0650   69.6690  223.7990 N   0  0  0  0  0  0  0  0  0  0  0  0
  138.5110   68.9290  222.6350 C   0  0  0  0  0  0  0  0  0  0  0  0
  138.0285   68.0123  223.0049 H   0  0  0  0  0  0  0  0  0  0  0  0
  137.8031   69.6054  222.1336 H   0  0  0  0  0  0  0  0  0  0  0  0
  139.5770   68.5290  221.5800 C   0  0  0  0  0  0  0  0  0  0  0  0
  140.5347   68.6887  222.0970 H   0  0  0  0  0  0  0  0  0  0  0  0
  139.5170   67.0370  221.1690 C   0  0  0  0  0  0  0  0  0  0  0  0
  139.8870   66.4294  222.0080 H   0  0  0  0  0  0  0  0  0  0  0  0
  138.4694   66.8111  220.9211 H   0  0  0  0  0  0  0  0  0  0  0  0
  140.3620   66.7090  219.9170 C   0  0  0  0  0  0  0  0  0  0  0  0
  140.8713   65.7475  220.0787 H   0  0  0  0  0  0  0  0  0  0  0  0
  139.6776   66.6686  219.0568 H   0  0  0  0  0  0  0  0  0  0  0  0
  141.4170   67.7770  219.6170 C   0  0  0  0  0  0  0  0  0  0  0  0
  142.1227   67.8286  220.4592 H   0  0  0  0  0  0  0  0  0  0  0  0
  141.9353   67.4981  218.6877 H   0  0  0  0  0  0  0  0  0  0  0  0
  140.7760   69.1650  219.4150 C   0  0  0  0  0  0  0  0  0  0  0  0
  141.5365   69.9322  219.6225 H   0  0  0  0  0  0  0  0  0  0  0  0
  140.4131   69.2033  218.3773 H   0  0  0  0  0  0  0  0  0  0  0  0
  139.5580   69.4260  220.3290 C   0  0  0  0  0  0  0  0  0  0  0  0
  139.5705   70.4792  220.6462 H   0  0  0  0  0  0  0  0  0  0  0  0
  138.6469   69.1951  219.7575 H   0  0  0  0  0  0  0  0  0  0  0  0
  141.0210   73.0620  221.5860 C   0  0  0  0  0  0  0  0  0  0  0  0
  141.8300   71.9160  221.5360 C   0  0  0  0  0  0  0  0  0  0  0  0
  141.5022   70.9920  222.0347 H   0  0  0  0  0  0  0  0  0  0  0  0
  143.0490   71.9440  220.8560 C   0  0  0  0  0  0  0  0  0  0  0  0
  143.6705   71.0377  220.8078 H   0  0  0  0  0  0  0  0  0  0  0  0
  143.4820   73.1180  220.2370 C   0  0  0  0  0  0  0  0  0  0  0  0
  144.4383   73.1282  219.6936 H   0  0  0  0  0  0  0  0  0  0  0  0
  142.7080   74.2820  220.3030 C   0  0  0  0  0  0  0  0  0  0  0  0
  143.2000   75.4440  219.6910 O   0  0  0  0  0  0  0  0  0  0  0  0
  142.5790   76.7230  219.7780 C   0  0  0  0  0  0  0  0  0  0  0  0
  142.4468   76.9952  220.8356 H   0  0  0  0  0  0  0  0  0  0  0  0
  143.2133   77.4730  219.2828 H   0  0  0  0  0  0  0  0  0  0  0  0
  141.5974   76.6884  219.2828 H   0  0  0  0  0  0  0  0  0  0  0  0
  141.4730   74.2510  220.9800 C   0  0  0  0  0  0  0  0  0  0  0  0
  140.8575   75.1610  221.0359 H   0  0  0  0  0  0  0  0  0  0  0  0
  1  2  1  0
  2  3  2  0
  3  4  1  0
  3  5  1  0
  5  6  2  0
  6  7  1  0
  7  8  2  0
  8  9  1  0
  8 10  1  0
 10 11  1  0
 10 12  2  0
 12 13  1  0
 12 14  1  0
 14 15  1  0
 14 16  2  0
 16 17  1  0
 17 18  2  0
 17 19  1  0
 19 20  1  0
 20 21  1  0
 20 22  1  0
 20 23  1  0
 23 24  1  0
 23 25  1  0
 25 26  1  0
 25 27  1  0
 25 28  1  0
 28 29  1  0
 28 30  1  0
 28 31  1  0
 31 32  1  0
 31 33  1  0
 31 34  1  0
 34 35  1  0
 34 36  1  0
 34 37  1  0
 37 38  1  0
 37 39  1  0
  2 40  1  0
 40 41  2  0
 41 42  1  0
 41 43  1  0
 43 44  1  0
 43 45  2  0
 45 46  1  0
 45 47  1  0
 47 48  1  0
 48 49  1  0
 49 50  1  0
 49 51  1  0
 49 52  1  0
 47 53  2  0
 53 54  1  0
 19  5  1  0
 37 23  1  0
 53 40  1  0
 16  7  1  0
M  END
>  <UniqueID>  (36) 
72

>  <SMILES>  (36) 
COc1cccc(/C=C/c2nc3ccccc3c(=O)n2CC2CCCCC2)c1

>  <Energy>  (36) 
72.20270117746165

>  <Genealogy>  (36) 
COc1cccc(/C=C/c2nc3ccccc3c(=O)n2CC2CCCCC2)c1 (cis-trans isomerization)
COc1cccc(/C=C/c2nc3ccccc3c(=O)n2CC2CCCCC2)c1 (3D coordinates assigned)
COc1cccc(/C=C/c2nc3ccccc3c(=O)n2CC2CCCCC2)c1 (nonaromatic ring conformer: 72.20270117746165 kcal/mol)

>  <smiles>  (36) 
COc1cccc(/C=C/c2nc3ccccc3c(=O)n2CC2CCCCC2)c1

>  <score_type>  (36) 
oracle

>  <origin>  (36) 
autodockgpu

>  <m_score__min__energy>  (36) 
-7.3499999999999996

>  <m_primary>  (36) 
energy

>  <meeko>  (36) 
{"free_energy": -6.86, "intermolecular_energy": -8.65, "internal_energy": -1.68, "cluster_size": 2, "cluster_id": 6, "rank_in_cluster": 2}

>  <energy>  (36) 
-6.62

>  <cluster_rmsd>  (36) 
0.0

>  <rmsd>  (36) 
271.85

>  <cluster>  (36) 
10

$$$$
SDBQQCBUKDXRSS-CCEZHUSRNA-N
     RDKit          3D

 54 57  0  0  0  0  0  0  0  0999 V2000
  140.8285   73.6458  221.9936 H   0  0  0  0  0  0  0  0  0  0  0  0
  140.8400   72.5680  221.7740 C   0  0  0  0  0  0  0  0  0  0  0  0
  139.8350   71.8080  222.2260 C   0  0  0  0  0  0  0  0  0  0  0  0
  138.9010   71.7511  221.6477 H   0  0  0  0  0  0  0  0  0  0  0  0
  139.9540   71.0410  223.4900 C   0  0  0  0  0  0  0  0  0  0  0  0
  140.4340   71.7020  224.5760 N   0  0  0  0  0  0  0  0  0  0  0  0
  140.5170   71.1200  225.7930 C   0  0  0  0  0  0  0  0  0  0  0  0
  141.0170   71.8420  226.8830 C   0  0  0  0  0  0  0  0  0  0  0  0
  141.3693   72.8746  226.7431 H   0  0  0  0  0  0  0  0  0  0  0  0
  141.0690   71.2520  228.1490 C   0  0  0  0  0  0  0  0  0  0  0  0
  141.4615   71.8208  229.0048 H   0  0  0  0  0  0  0  0  0  0  0  0
  140.6230   69.9410  228.3280 C   0  0  0  0  0  0  0  0  0  0  0  0
  140.6595   69.4805  229.3263 H   0  0  0  0  0  0  0  0  0  0  0  0
  140.1300   69.2120  227.2410 C   0  0  0  0  0  0  0  0  0  0  0  0
  139.7841   68.1779  227.3859 H   0  0  0  0  0  0  0  0  0  0  0  0
  140.0750   69.7980  225.9610 C   0  0  0  0  0  0  0  0  0  0  0  0
  139.5980   69.1090  224.8350 C   0  0  0  0  0  0  0  0  0  0  0  0
  139.1900   67.9200  224.9700 O   0  0  0  0  0  0  0  0  0  0  0  0
  139.5730   69.7150  223.5970 N   0  0  0  0  0  0  0  0  0  0  0  0
  139.1650   68.9180  222.4110 C   0  0  0  0  0  0  0  0  0  0  0  0
  139.5972   69.3857  221.5141 H   0  0  0  0  0  0  0  0  0  0  0  0
  139.5330   67.8941  222.5725 H   0  0  0  0  0  0  0  0  0  0  0  0
  137.6280   68.8190  222.2180 C   0  0  0  0  0  0  0  0  0  0  0  0
  137.4277   69.4537  221.3422 H   0  0  0  0  0  0  0  0  0  0  0  0
  137.1360   67.3900  221.8770 C   0  0  0  0  0  0  0  0  0  0  0  0
  137.4422   67.1523  220.8476 H   0  0  0  0  0  0  0  0  0  0  0  0
  137.5861   66.7075  222.6130 H   0  0  0  0  0  0  0  0  0  0  0  0
  135.6020   67.2270  221.9820 C   0  0  0  0  0  0  0  0  0  0  0  0
  135.2553   66.6119  221.1385 H   0  0  0  0  0  0  0  0  0  0  0  0
  135.3849   66.7516  222.9499 H   0  0  0  0  0  0  0  0  0  0  0  0
  134.8600   68.5650  221.9490 C   0  0  0  0  0  0  0  0  0  0  0  0
  135.0511   69.0553  220.9830 H   0  0  0  0  0  0  0  0  0  0  0  0
  133.7865   68.3662  222.0835 H   0  0  0  0  0  0  0  0  0  0  0  0
  135.3230   69.5000  223.0850 C   0  0  0  0  0  0  0  0  0  0  0  0
  135.1078   70.5378  222.7905 H   0  0  0  0  0  0  0  0  0  0  0  0
  134.7771   69.2001  223.9917 H   0  0  0  0  0  0  0  0  0  0  0  0
  136.8310   69.3860  223.4060 C   0  0  0  0  0  0  0  0  0  0  0  0
  137.2194   70.3857  223.6504 H   0  0  0  0  0  0  0  0  0  0  0  0
  136.9481   68.6972  224.2556 H   0  0  0  0  0  0  0  0  0  0  0  0
  141.9660   72.0130  220.9900 C   0  0  0  0  0  0  0  0  0  0  0  0
  141.8240   70.7490  220.3960 C   0  0  0  0  0  0  0  0  0  0  0  0
  140.8892   70.1842  220.5269 H   0  0  0  0  0  0  0  0  0  0  0  0
  142.8640   70.2060  219.6400 C   0  0  0  0  0  0  0  0  0  0  0  0
  142.7399   69.2216  219.1651 H   0  0  0  0  0  0  0  0  0  0  0  0
  144.0610   70.9070  219.4840 C   0  0  0  0  0  0  0  0  0  0  0  0
  144.8707   70.4767  218.8764 H   0  0  0  0  0  0  0  0  0  0  0  0
  144.2380   72.1530  220.0950 C   0  0  0  0  0  0  0  0  0  0  0  0
  145.4700   72.8050  219.9340 O   0  0  0  0  0  0  0  0  0  0  0  0
  146.0160   73.7320  220.8670 C   0  0  0  0  0  0  0  0  0  0  0  0
  145.8118   73.3852  221.8907 H   0  0  0  0  0  0  0  0  0  0  0  0
  147.1029   73.8076  220.7155 H   0  0  0  0  0  0  0  0  0  0  0  0
  145.5551   74.7192  220.7155 H   0  0  0  0  0  0  0  0  0  0  0  0
  143.1840   72.7070  220.8490 C   0  0  0  0  0  0  0  0  0  0  0  0
  143.3132   73.6876  221.3305 H   0  0  0  0  0  0  0  0  0  0  0  0
  1  2  1  0
  2  3  2  0
  3  4  1  0
  3  5  1  0
  5  6  2  0
  6  7  1  0
  7  8  2  0
  8  9  1  0
  8 10  1  0
 10 11  1  0
 10 12  2  0
 12 13  1  0
 12 14  1  0
 14 15  1  0
 14 16  2  0
 16 17  1  0
 17 18  2  0
 17 19  1  0
 19 20  1  0
 20 21  1  0
 20 22  1  0
 20 23  1  0
 23 24  1  0
 23 25  1  0
 25 26  1  0
 25 27  1  0
 25 28  1  0
 28 29  1  0
 28 30  1  0
 28 31  1  0
 31 32  1  0
 31 33  1  0
 31 34  1  0
 34 35  1  0
 34 36  1  0
 34 37  1  0
 37 38  1  0
 37 39  1  0
  2 40  1  0
 40 41  2  0
 41 42  1  0
 41 43  1  0
 43 44  1  0
 43 45  2  0
 45 46  1  0
 45 47  1  0
 47 48  1  0
 48 49  1  0
 49 50  1  0
 49 51  1  0
 49 52  1  0
 47 53  2  0
 53 54  1  0
 19  5  1  0
 37 23  1  0
 53 40  1  0
 16  7  1  0
M  END
>  <UniqueID>  (37) 
72

>  <SMILES>  (37) 
COc1cccc(/C=C/c2nc3ccccc3c(=O)n2CC2CCCCC2)c1

>  <Energy>  (37) 
72.20270117746165

>  <Genealogy>  (37) 
COc1cccc(/C=C/c2nc3ccccc3c(=O)n2CC2CCCCC2)c1 (cis-trans isomerization)
COc1cccc(/C=C/c2nc3ccccc3c(=O)n2CC2CCCCC2)c1 (3D coordinates assigned)
COc1cccc(/C=C/c2nc3ccccc3c(=O)n2CC2CCCCC2)c1 (nonaromatic ring conformer: 72.20270117746165 kcal/mol)

>  <smiles>  (37) 
COc1cccc(/C=C/c2nc3ccccc3c(=O)n2CC2CCCCC2)c1

>  <score_type>  (37) 
oracle

>  <origin>  (37) 
autodockgpu

>  <m_score__min__energy>  (37) 
-7.3499999999999996

>  <m_primary>  (37) 
energy

>  <meeko>  (37) 
{"free_energy": -7.06, "intermolecular_energy": -8.85, "internal_energy": -1.35, "cluster_size": 2, "cluster_id": 6, "rank_in_cluster": 1}

>  <energy>  (37) 
-6.4

>  <cluster_rmsd>  (37) 
0.71

>  <rmsd>  (37) 
271.62

>  <cluster>  (37) 
10

$$$$
SDBQQCBUKDXRSS-CCEZHUSRNA-N
     RDKit          3D

 54 57  0  0  0  0  0  0  0  0999 V2000
  143.7784   80.0483  223.2490 H   0  0  0  0  0  0  0  0  0  0  0  0
  142.7320   79.8960  222.9460 C   0  0  0  0  0  0  0  0  0  0  0  0
  142.0490   78.8760  223.4800 C   0  0  0  0  0  0  0  0  0  0  0  0
  142.5958   78.0769  224.0020 H   0  0  0  0  0  0  0  0  0  0  0  0
  140.5710   78.8000  223.3830 C   0  0  0  0  0  0  0  0  0  0  0  0
  139.8560   79.7910  223.9770 N   0  0  0  0  0  0  0  0  0  0  0  0
  138.5090   79.8570  223.8900 C   0  0  0  0  0  0  0  0  0  0  0  0
  137.8160   80.8990  224.5180 C   0  0  0  0  0  0  0  0  0  0  0  0
  138.3658   81.6483  225.1065 H   0  0  0  0  0  0  0  0  0  0  0  0
  136.4270   80.9880  224.3980 C   0  0  0  0  0  0  0  0  0  0  0  0
  135.8841   81.8071  224.8923 H   0  0  0  0  0  0  0  0  0  0  0  0
  135.7270   80.0380  223.6510 C   0  0  0  0  0  0  0  0  0  0  0  0
  134.6341   80.1136  223.5522 H   0  0  0  0  0  0  0  0  0  0  0  0
  136.4140   78.9900  223.0280 C   0  0  0  0  0  0  0  0  0  0  0  0
  135.8587   78.2404  222.4451 H   0  0  0  0  0  0  0  0  0  0  0  0
  137.8140   78.8920  223.1450 C   0  0  0  0  0  0  0  0  0  0  0  0
  138.5510   77.8560  222.5480 C   0  0  0  0  0  0  0  0  0  0  0  0
  137.9410   76.9830  221.8680 O   0  0  0  0  0  0  0  0  0  0  0  0
  139.9190   77.7900  222.6970 N   0  0  0  0  0  0  0  0  0  0  0  0
  140.6500   76.6200  222.1440 C   0  0  0  0  0  0  0  0  0  0  0  0
  141.3635   76.2669  222.9031 H   0  0  0  0  0  0  0  0  0  0  0  0
  139.8943   75.8620  221.8901 H   0  0  0  0  0  0  0  0  0  0  0  0
  141.4350   76.9280  220.8410 C   0  0  0  0  0  0  0  0  0  0  0  0
  142.1692   77.6880  221.1466 H   0  0  0  0  0  0  0  0  0  0  0  0
  142.2260   75.7160  220.2900 C   0  0  0  0  0  0  0  0  0  0  0  0
  143.0837   75.5292  220.9529 H   0  0  0  0  0  0  0  0  0  0  0  0
  141.5314   74.8636  220.2571 H   0  0  0  0  0  0  0  0  0  0  0  0
  142.7550   75.9280  218.8530 C   0  0  0  0  0  0  0  0  0  0  0  0
  143.7745   75.5197  218.7899 H   0  0  0  0  0  0  0  0  0  0  0  0
  142.0662   75.4132  218.1670 H   0  0  0  0  0  0  0  0  0  0  0  0
  142.7930   77.4030  218.4470 C   0  0  0  0  0  0  0  0  0  0  0  0
  143.4871   77.9383  219.1116 H   0  0  0  0  0  0  0  0  0  0  0  0
  143.1259   77.4631  217.4003 H   0  0  0  0  0  0  0  0  0  0  0  0
  141.4000   78.0560  218.5480 C   0  0  0  0  0  0  0  0  0  0  0  0
  141.5330   79.1415  218.6661 H   0  0  0  0  0  0  0  0  0  0  0  0
  140.8562   77.7977  217.6274 H   0  0  0  0  0  0  0  0  0  0  0  0
  140.5550   77.5360  219.7330 C   0  0  0  0  0  0  0  0  0  0  0  0
  139.9800   78.3736  220.1547 H   0  0  0  0  0  0  0  0  0  0  0  0
  139.8872   76.7474  219.3561 H   0  0  0  0  0  0  0  0  0  0  0  0
  142.1330   80.8260  221.9640 C   0  0  0  0  0  0  0  0  0  0  0  0
  141.5490   82.0170  222.4220 C   0  0  0  0  0  0  0  0  0  0  0  0
  141.5340   82.2401  223.4990 H   0  0  0  0  0  0  0  0  0  0  0  0
  140.9870   82.9200  221.5180 C   0  0  0  0  0  0  0  0  0  0  0  0
  140.5443   83.8582  221.8838 H   0  0  0  0  0  0  0  0  0  0  0  0
  140.9850   82.6360  220.1510 C   0  0  0  0  0  0  0  0  0  0  0  0
  140.5521   83.3588  219.4438 H   0  0  0  0  0  0  0  0  0  0  0  0
  141.5300   81.4380  219.6740 C   0  0  0  0  0  0  0  0  0  0  0  0
  141.4760   81.1850  218.2950 O   0  0  0  0  0  0  0  0  0  0  0  0
  142.6190   81.0600  217.4560 C   0  0  0  0  0  0  0  0  0  0  0  0
  143.5211   80.9613  218.0776 H   0  0  0  0  0  0  0  0  0  0  0  0
  142.5120   80.1682  216.8210 H   0  0  0  0  0  0  0  0  0  0  0  0
  142.7072   81.9538  216.8210 H   0  0  0  0  0  0  0  0  0  0  0  0
  142.1070   80.5330  220.5860 C   0  0  0  0  0  0  0  0  0  0  0  0
  142.5405   79.5906  220.2199 H   0  0  0  0  0  0  0  0  0  0  0  0
  1  2  1  0
  2  3  2  0
  3  4  1  0
  3  5  1  0
  5  6  2  0
  6  7  1  0
  7  8  2  0
  8  9  1  0
  8 10  1  0
 10 11  1  0
 10 12  2  0
 12 13  1  0
 12 14  1  0
 14 15  1  0
 14 16  2  0
 16 17  1  0
 17 18  2  0
 17 19  1  0
 19 20  1  0
 20 21  1  0
 20 22  1  0
 20 23  1  0
 23 24  1  0
 23 25  1  0
 25 26  1  0
 25 27  1  0
 25 28  1  0
 28 29  1  0
 28 30  1  0
 28 31  1  0
 31 32  1  0
 31 33  1  0
 31 34  1  0
 34 35  1  0
 34 36  1  0
 34 37  1  0
 37 38  1  0
 37 39  1  0
  2 40  1  0
 40 41  2  0
 41 42  1  0
 41 43  1  0
 43 44  1  0
 43 45  2  0
 45 46  1  0
 45 47  1  0
 47 48  1  0
 48 49  1  0
 49 50  1  0
 49 51  1  0
 49 52  1  0
 47 53  2  0
 53 54  1  0
 19  5  1  0
 37 23  1  0
 53 40  1  0
 16  7  1  0
M  END
>  <UniqueID>  (38) 
72

>  <SMILES>  (38) 
COc1cccc(/C=C/c2nc3ccccc3c(=O)n2CC2CCCCC2)c1

>  <Energy>  (38) 
72.20270117746165

>  <Genealogy>  (38) 
COc1cccc(/C=C/c2nc3ccccc3c(=O)n2CC2CCCCC2)c1 (cis-trans isomerization)
COc1cccc(/C=C/c2nc3ccccc3c(=O)n2CC2CCCCC2)c1 (3D coordinates assigned)
COc1cccc(/C=C/c2nc3ccccc3c(=O)n2CC2CCCCC2)c1 (nonaromatic ring conformer: 72.20270117746165 kcal/mol)

>  <smiles>  (38) 
COc1cccc(/C=C/c2nc3ccccc3c(=O)n2CC2CCCCC2)c1

>  <score_type>  (38) 
oracle

>  <origin>  (38) 
autodockgpu

>  <m_score__min__energy>  (38) 
-7.3499999999999996

>  <m_primary>  (38) 
energy

>  <meeko>  (38) 
{"free_energy": -6.12, "intermolecular_energy": -7.91, "internal_energy": -2.3, "cluster_size": 3, "cluster_id": 11, "rank_in_cluster": 1}

>  <energy>  (38) 
-6.12

>  <cluster_rmsd>  (38) 
0.0

>  <rmsd>  (38) 
271.5

>  <cluster>  (38) 
11

$$$$
SDBQQCBUKDXRSS-CCEZHUSRNA-N
     RDKit          3D

 54 57  0  0  0  0  0  0  0  0999 V2000
  141.5279   74.2491  218.3365 H   0  0  0  0  0  0  0  0  0  0  0  0
  142.2760   74.9220  218.7810 C   0  0  0  0  0  0  0  0  0  0  0  0
  142.0040   76.2310  218.8510 C   0  0  0  0  0  0  0  0  0  0  0  0
  142.1242   76.8547  217.9529 H   0  0  0  0  0  0  0  0  0  0  0  0
  141.5440   76.8580  220.1140 C   0  0  0  0  0  0  0  0  0  0  0  0
  142.2230   77.9520  220.5500 N   0  0  0  0  0  0  0  0  0  0  0  0
  141.8450   78.6410  221.6490 C   0  0  0  0  0  0  0  0  0  0  0  0
  142.5760   79.7630  222.0590 C   0  0  0  0  0  0  0  0  0  0  0  0
  143.4749   80.0665  221.5023 H   0  0  0  0  0  0  0  0  0  0  0  0
  142.1650   80.4970  223.1740 C   0  0  0  0  0  0  0  0  0  0  0  0
  142.7400   81.3785  223.4939 H   0  0  0  0  0  0  0  0  0  0  0  0
  141.0250   80.1130  223.8830 C   0  0  0  0  0  0  0  0  0  0  0  0
  140.6997   80.6959  224.7573 H   0  0  0  0  0  0  0  0  0  0  0  0
  140.2960   78.9880  223.4830 C   0  0  0  0  0  0  0  0  0  0  0  0
  139.4011   78.6858  224.0468 H   0  0  0  0  0  0  0  0  0  0  0  0
  140.7040   78.2410  222.3610 C   0  0  0  0  0  0  0  0  0  0  0  0
  140.0140   77.1000  221.9230 C   0  0  0  0  0  0  0  0  0  0  0  0
  138.9790   76.7300  222.5480 O   0  0  0  0  0  0  0  0  0  0  0  0
  140.4540   76.3900  220.8260 N   0  0  0  0  0  0  0  0  0  0  0  0
  139.7630   75.1260  220.4600 C   0  0  0  0  0  0  0  0  0  0  0  0
  138.6808   75.3203  220.4256 H   0  0  0  0  0  0  0  0  0  0  0  0
  140.1668   74.8117  219.4862 H   0  0  0  0  0  0  0  0  0  0  0  0
  140.0190   73.9590  221.4520 C   0  0  0  0  0  0  0  0  0  0  0  0
  140.5066   74.4421  222.3116 H   0  0  0  0  0  0  0  0  0  0  0  0
  138.7230   73.2900  221.9720 C   0  0  0  0  0  0  0  0  0  0  0  0
  138.2265   73.9844  222.6657 H   0  0  0  0  0  0  0  0  0  0  0  0
  138.1005   73.0627  221.0940 H   0  0  0  0  0  0  0  0  0  0  0  0
  138.9740   71.9550  222.7110 C   0  0  0  0  0  0  0  0  0  0  0  0
  138.3188   71.9132  223.5936 H   0  0  0  0  0  0  0  0  0  0  0  0
  138.7591   71.1397  222.0046 H   0  0  0  0  0  0  0  0  0  0  0  0
  140.4250   71.7960  223.1710 C   0  0  0  0  0  0  0  0  0  0  0  0
  140.6608   72.5940  223.8904 H   0  0  0  0  0  0  0  0  0  0  0  0
  140.5320   70.8044  223.6349 H   0  0  0  0  0  0  0  0  0  0  0  0
  141.4090   71.8830  221.9870 C   0  0  0  0  0  0  0  0  0  0  0  0
  142.3932   72.1849  222.3746 H   0  0  0  0  0  0  0  0  0  0  0  0
  141.4313   70.8904  221.5136 H   0  0  0  0  0  0  0  0  0  0  0  0
  140.9820   72.8940  220.8980 C   0  0  0  0  0  0  0  0  0  0  0  0
  141.8794   73.3950  220.5059 H   0  0  0  0  0  0  0  0  0  0  0  0
  140.4591   72.3405  220.1041 H   0  0  0  0  0  0  0  0  0  0  0  0
  143.5450   74.3460  219.2790 C   0  0  0  0  0  0  0  0  0  0  0  0
  144.2070   74.9780  220.3430 C   0  0  0  0  0  0  0  0  0  0  0  0
  143.7847   75.8926  220.7848 H   0  0  0  0  0  0  0  0  0  0  0  0
  145.3990   74.4510  220.8430 C   0  0  0  0  0  0  0  0  0  0  0  0
  145.9045   74.9434  221.6868 H   0  0  0  0  0  0  0  0  0  0  0  0
  145.9520   73.3010  220.2760 C   0  0  0  0  0  0  0  0  0  0  0  0
  146.8850   72.8851  220.6840 H   0  0  0  0  0  0  0  0  0  0  0  0
  145.3270   72.6740  219.1920 C   0  0  0  0  0  0  0  0  0  0  0  0
  145.9380   71.5390  218.6370 O   0  0  0  0  0  0  0  0  0  0  0  0
  145.4700   70.2070  218.8160 C   0  0  0  0  0  0  0  0  0  0  0  0
  145.3927   69.9869  219.8910 H   0  0  0  0  0  0  0  0  0  0  0  0
  144.4804   70.1000  218.3477 H   0  0  0  0  0  0  0  0  0  0  0  0
  146.1752   69.5046  218.3477 H   0  0  0  0  0  0  0  0  0  0  0  0
  144.1180   73.2000  218.6940 C   0  0  0  0  0  0  0  0  0  0  0  0
  143.6189   72.7127  217.8434 H   0  0  0  0  0  0  0  0  0  0  0  0
  1  2  1  0
  2  3  2  0
  3  4  1  0
  3  5  1  0
  5  6  2  0
  6  7  1  0
  7  8  2  0
  8  9  1  0
  8 10  1  0
 10 11  1  0
 10 12  2  0
 12 13  1  0
 12 14  1  0
 14 15  1  0
 14 16  2  0
 16 17  1  0
 17 18  2  0
 17 19  1  0
 19 20  1  0
 20 21  1  0
 20 22  1  0
 20 23  1  0
 23 24  1  0
 23 25  1  0
 25 26  1  0
 25 27  1  0
 25 28  1  0
 28 29  1  0
 28 30  1  0
 28 31  1  0
 31 32  1  0
 31 33  1  0
 31 34  1  0
 34 35  1  0
 34 36  1  0
 34 37  1  0
 37 38  1  0
 37 39  1  0
  2 40  1  0
 40 41  2  0
 41 42  1  0
 41 43  1  0
 43 44  1  0
 43 45  2  0
 45 46  1  0
 45 47  1  0
 47 48  1  0
 48 49  1  0
 49 50  1  0
 49 51  1  0
 49 52  1  0
 47 53  2  0
 53 54  1  0
 19  5  1  0
 37 23  1  0
 53 40  1  0
 16  7  1  0
M  END
>  <UniqueID>  (39) 
72

>  <SMILES>  (39) 
COc1cccc(/C=C/c2nc3ccccc3c(=O)n2CC2CCCCC2)c1

>  <Energy>  (39) 
72.20270117746165

>  <Genealogy>  (39) 
COc1cccc(/C=C/c2nc3ccccc3c(=O)n2CC2CCCCC2)c1 (cis-trans isomerization)
COc1cccc(/C=C/c2nc3ccccc3c(=O)n2CC2CCCCC2)c1 (3D coordinates assigned)
COc1cccc(/C=C/c2nc3ccccc3c(=O)n2CC2CCCCC2)c1 (nonaromatic ring conformer: 72.20270117746165 kcal/mol)

>  <smiles>  (39) 
COc1cccc(/C=C/c2nc3ccccc3c(=O)n2CC2CCCCC2)c1

>  <score_type>  (39) 
oracle

>  <origin>  (39) 
autodockgpu

>  <m_score__min__energy>  (39) 
-7.3499999999999996

>  <m_primary>  (39) 
energy

>  <meeko>  (39) 
{"free_energy": -6.82, "intermolecular_energy": -8.61, "internal_energy": -1.6, "cluster_size": 1, "cluster_id": 8, "rank_in_cluster": 1}

>  <energy>  (39) 
-6.09

>  <cluster_rmsd>  (39) 
0.24

>  <rmsd>  (39) 
271.49

>  <cluster>  (39) 
11

$$$$
SDBQQCBUKDXRSS-CCEZHUSRNA-N
     RDKit          3D

 54 57  0  0  0  0  0  0  0  0999 V2000
  135.9620   70.6501  222.9497 H   0  0  0  0  0  0  0  0  0  0  0  0
  136.5430   71.5160  223.3000 C   0  0  0  0  0  0  0  0  0  0  0  0
  137.8800   71.4440  223.2840 C   0  0  0  0  0  0  0  0  0  0  0  0
  138.4375   71.9629  222.4903 H   0  0  0  0  0  0  0  0  0  0  0  0
  138.6250   70.6800  224.3130 C   0  0  0  0  0  0  0  0  0  0  0  0
  139.3610   71.3920  225.2070 N   0  0  0  0  0  0  0  0  0  0  0  0
  140.0220   70.8020  226.2270 C   0  0  0  0  0  0  0  0  0  0  0  0
  140.7660   71.5780  227.1230 C   0  0  0  0  0  0  0  0  0  0  0  0
  140.8367   72.6664  226.9798 H   0  0  0  0  0  0  0  0  0  0  0  0
  141.4190   70.9720  228.1990 C   0  0  0  0  0  0  0  0  0  0  0  0
  142.0033   71.5837  228.9022 H   0  0  0  0  0  0  0  0  0  0  0  0
  141.3310   69.5910  228.3830 C   0  0  0  0  0  0  0  0  0  0  0  0
  141.8410   69.1168  229.2345 H   0  0  0  0  0  0  0  0  0  0  0  0
  140.5950   68.8090  227.4860 C   0  0  0  0  0  0  0  0  0  0  0  0
  140.5315   67.7205  227.6314 H   0  0  0  0  0  0  0  0  0  0  0  0
  139.9350   69.4120  226.3970 C   0  0  0  0  0  0  0  0  0  0  0  0
  139.1910   68.6730  225.4630 C   0  0  0  0  0  0  0  0  0  0  0  0
  139.0970   67.4200  225.6060 O   0  0  0  0  0  0  0  0  0  0  0  0
  138.5700   69.3000  224.4050 N   0  0  0  0  0  0  0  0  0  0  0  0
  137.8860   68.4730  223.3760 C   0  0  0  0  0  0  0  0  0  0  0  0
  137.4248   67.6089  223.8767 H   0  0  0  0  0  0  0  0  0  0  0  0
  137.1455   69.1220  222.8856 H   0  0  0  0  0  0  0  0  0  0  0  0
  138.8300   67.9460  222.2630 C   0  0  0  0  0  0  0  0  0  0  0  0
  139.8341   68.2332  222.6084 H   0  0  0  0  0  0  0  0  0  0  0  0
  138.8160   66.4050  222.1140 C   0  0  0  0  0  0  0  0  0  0  0  0
  139.3308   65.9663  222.9815 H   0  0  0  0  0  0  0  0  0  0  0  0
  137.7624   66.0946  222.0543 H   0  0  0  0  0  0  0  0  0  0  0  0
  139.5120   65.9050  220.8270 C   0  0  0  0  0  0  0  0  0  0  0  0
  140.1004   65.0083  221.0712 H   0  0  0  0  0  0  0  0  0  0  0  0
  138.7264   65.6884  220.0881 H   0  0  0  0  0  0  0  0  0  0  0  0
  140.4460   66.9510  220.2140 C   0  0  0  0  0  0  0  0  0  0  0  0
  141.2498   67.1756  220.9306 H   0  0  0  0  0  0  0  0  0  0  0  0
  140.8562   66.5405  219.2795 H   0  0  0  0  0  0  0  0  0  0  0  0
  139.6950   68.2560  219.8790 C   0  0  0  0  0  0  0  0  0  0  0  0
  140.4240   69.0793  219.8529 H   0  0  0  0  0  0  0  0  0  0  0  0
  139.2006   68.1025  218.9084 H   0  0  0  0  0  0  0  0  0  0  0  0
  138.5900   68.6150  220.8970 C   0  0  0  0  0  0  0  0  0  0  0  0
  138.5728   69.7064  221.0334 H   0  0  0  0  0  0  0  0  0  0  0  0
  137.6304   68.2501  220.5021 H   0  0  0  0  0  0  0  0  0  0  0  0
  135.8180   72.7160  223.7710 C   0  0  0  0  0  0  0  0  0  0  0  0
  135.9230   73.9070  223.0360 C   0  0  0  0  0  0  0  0  0  0  0  0
  136.5469   73.9385  222.1306 H   0  0  0  0  0  0  0  0  0  0  0  0
  135.2390   75.0520  223.4490 C   0  0  0  0  0  0  0  0  0  0  0  0
  135.3133   75.9776  222.8593 H   0  0  0  0  0  0  0  0  0  0  0  0
  134.4610   75.0260  224.6080 C   0  0  0  0  0  0  0  0  0  0  0  0
  133.9161   75.9292  224.9198 H   0  0  0  0  0  0  0  0  0  0  0  0
  134.3690   73.8600  225.3760 C   0  0  0  0  0  0  0  0  0  0  0  0
  133.5990   73.8930  226.5480 O   0  0  0  0  0  0  0  0  0  0  0  0
  132.5400   72.9870  226.8390 C   0  0  0  0  0  0  0  0  0  0  0  0
  132.4283   72.8915  227.9291 H   0  0  0  0  0  0  0  0  0  0  0  0
  131.6029   73.3672  226.4064 H   0  0  0  0  0  0  0  0  0  0  0  0
  132.7706   72.0023  226.4064 H   0  0  0  0  0  0  0  0  0  0  0  0
  135.0500   72.7010  224.9530 C   0  0  0  0  0  0  0  0  0  0  0  0
  134.9819   71.7789  225.5489 H   0  0  0  0  0  0  0  0  0  0  0  0
  1  2  1  0
  2  3  2  0
  3  4  1  0
  3  5  1  0
  5  6  2  0
  6  7  1  0
  7  8  2  0
  8  9  1  0
  8 10  1  0
 10 11  1  0
 10 12  2  0
 12 13  1  0
 12 14  1  0
 14 15  1  0
 14 16  2  0
 16 17  1  0
 17 18  2  0
 17 19  1  0
 19 20  1  0
 20 21  1  0
 20 22  1  0
 20 23  1  0
 23 24  1  0
 23 25  1  0
 25 26  1  0
 25 27  1  0
 25 28  1  0
 28 29  1  0
 28 30  1  0
 28 31  1  0
 31 32  1  0
 31 33  1  0
 31 34  1  0
 34 35  1  0
 34 36  1  0
 34 37  1  0
 37 38  1  0
 37 39  1  0
  2 40  1  0
 40 41  2  0
 41 42  1  0
 41 43  1  0
 43 44  1  0
 43 45  2  0
 45 46  1  0
 45 47  1  0
 47 48  1  0
 48 49  1  0
 49 50  1  0
 49 51  1  0
 49 52  1  0
 47 53  2  0
 53 54  1  0
 19  5  1  0
 37 23  1  0
 53 40  1  0
 16  7  1  0
M  END
>  <UniqueID>  (40) 
72

>  <SMILES>  (40) 
COc1cccc(/C=C/c2nc3ccccc3c(=O)n2CC2CCCCC2)c1

>  <Energy>  (40) 
72.20270117746165

>  <Genealogy>  (40) 
COc1cccc(/C=C/c2nc3ccccc3c(=O)n2CC2CCCCC2)c1 (cis-trans isomerization)
COc1cccc(/C=C/c2nc3ccccc3c(=O)n2CC2CCCCC2)c1 (3D coordinates assigned)
COc1cccc(/C=C/c2nc3ccccc3c(=O)n2CC2CCCCC2)c1 (nonaromatic ring conformer: 72.20270117746165 kcal/mol)

>  <smiles>  (40) 
COc1cccc(/C=C/c2nc3ccccc3c(=O)n2CC2CCCCC2)c1

>  <score_type>  (40) 
oracle

>  <origin>  (40) 
autodockgpu

>  <m_score__min__energy>  (40) 
-7.3499999999999996

>  <m_primary>  (40) 
energy

>  <meeko>  (40) 
{"free_energy": -7.33, "intermolecular_energy": -9.12, "internal_energy": -1.18, "cluster_size": 2, "cluster_id": 2, "rank_in_cluster": 1}

>  <energy>  (40) 
-6.06

>  <cluster_rmsd>  (40) 
0.24

>  <rmsd>  (40) 
271.49

>  <cluster>  (40) 
11

$$$$
SDBQQCBUKDXRSS-CCEZHUSRNA-N
     RDKit          3D

 54 57  0  0  0  0  0  0  0  0999 V2000
  139.6252   77.3838  223.5584 H   0  0  0  0  0  0  0  0  0  0  0  0
  139.2280   77.9330  222.6920 C   0  0  0  0  0  0  0  0  0  0  0  0
  139.3080   77.3690  221.4800 C   0  0  0  0  0  0  0  0  0  0  0  0
  138.4383   77.4116  220.8078 H   0  0  0  0  0  0  0  0  0  0  0  0
  140.5450   76.6880  221.0250 C   0  0  0  0  0  0  0  0  0  0  0  0
  140.6820   75.3730  221.3380 N   0  0  0  0  0  0  0  0  0  0  0  0
  141.7350   74.6390  220.9140 C   0  0  0  0  0  0  0  0  0  0  0  0
  141.8330   73.2860  221.2610 C   0  0  0  0  0  0  0  0  0  0  0  0
  141.0670   72.8267  221.9031 H   0  0  0  0  0  0  0  0  0  0  0  0
  142.9020   72.5190  220.7930 C   0  0  0  0  0  0  0  0  0  0  0  0
  142.9780   71.4566  221.0678 H   0  0  0  0  0  0  0  0  0  0  0  0
  143.8750   73.1000  219.9760 C   0  0  0  0  0  0  0  0  0  0  0  0
  144.7122   72.4921  219.6024 H   0  0  0  0  0  0  0  0  0  0  0  0
  143.7870   74.4530  219.6320 C   0  0  0  0  0  0  0  0  0  0  0  0
  144.5582   74.9078  218.9929 H   0  0  0  0  0  0  0  0  0  0  0  0
  142.7130   75.2350  220.1020 C   0  0  0  0  0  0  0  0  0  0  0  0
  142.5820   76.5980  219.7950 C   0  0  0  0  0  0  0  0  0  0  0  0
  143.4500   77.1490  219.0590 O   0  0  0  0  0  0  0  0  0  0  0  0
  141.5210   77.3300  220.2850 N   0  0  0  0  0  0  0  0  0  0  0  0
  141.4760   78.7940  220.0300 C   0  0  0  0  0  0  0  0  0  0  0  0
  142.3471   79.0655  219.4156 H   0  0  0  0  0  0  0  0  0  0  0  0
  140.5215   79.0009  219.5239 H   0  0  0  0  0  0  0  0  0  0  0  0
  141.4990   79.6580  221.3200 C   0  0  0  0  0  0  0  0  0  0  0  0
  140.5052   79.5004  221.7645 H   0  0  0  0  0  0  0  0  0  0  0  0
  142.5490   79.1940  222.3590 C   0  0  0  0  0  0  0  0  0  0  0  0
  142.2045   78.2492  222.8047 H   0  0  0  0  0  0  0  0  0  0  0  0
  143.5041   79.0785  221.8257 H   0  0  0  0  0  0  0  0  0  0  0  0
  142.7820   80.2160  223.4960 C   0  0  0  0  0  0  0  0  0  0  0  0
  142.8733   79.6697  224.4464 H   0  0  0  0  0  0  0  0  0  0  0  0
  143.6990   80.7745  223.2567 H   0  0  0  0  0  0  0  0  0  0  0  0
  141.6430   81.2320  223.6230 C   0  0  0  0  0  0  0  0  0  0  0  0
  140.7148   80.6984  223.8754 H   0  0  0  0  0  0  0  0  0  0  0  0
  141.9089   81.9510  224.4119 H   0  0  0  0  0  0  0  0  0  0  0  0
  141.4310   82.0120  222.3100 C   0  0  0  0  0  0  0  0  0  0  0  0
  140.3986   82.3913  222.2944 H   0  0  0  0  0  0  0  0  0  0  0  0
  142.1762   82.8209  222.2933 H   0  0  0  0  0  0  0  0  0  0  0  0
  141.6580   81.1630  221.0380 C   0  0  0  0  0  0  0  0  0  0  0  0
  140.9244   81.4618  220.2747 H   0  0  0  0  0  0  0  0  0  0  0  0
  142.6860   81.3388  220.6882 H   0  0  0  0  0  0  0  0  0  0  0  0
  138.6260   79.2660  222.9100 C   0  0  0  0  0  0  0  0  0  0  0  0
  138.1880   80.0050  221.8000 C   0  0  0  0  0  0  0  0  0  0  0  0
  138.3048   79.5922  220.7871 H   0  0  0  0  0  0  0  0  0  0  0  0
  137.6050   81.2610  221.9750 C   0  0  0  0  0  0  0  0  0  0  0  0
  137.2507   81.8275  221.1012 H   0  0  0  0  0  0  0  0  0  0  0  0
  137.4700   81.8010  223.2560 C   0  0  0  0  0  0  0  0  0  0  0  0
  136.9979   82.7859  223.3866 H   0  0  0  0  0  0  0  0  0  0  0  0
  137.9310   81.0980  224.3740 C   0  0  0  0  0  0  0  0  0  0  0  0
  137.8000   81.6960  225.6370 O   0  0  0  0  0  0  0  0  0  0  0  0
  136.6050   81.6860  226.4110 C   0  0  0  0  0  0  0  0  0  0  0  0
  136.8610   81.6881  227.4808 H   0  0  0  0  0  0  0  0  0  0  0  0
  136.0079   82.5792  226.1751 H   0  0  0  0  0  0  0  0  0  0  0  0
  136.0229   80.7829  226.1751 H   0  0  0  0  0  0  0  0  0  0  0  0
  138.5090   79.8250  224.1980 C   0  0  0  0  0  0  0  0  0  0  0  0
  138.8713   79.2639  225.0720 H   0  0  0  0  0  0  0  0  0  0  0  0
  1  2  1  0
  2  3  2  0
  3  4  1  0
  3  5  1  0
  5  6  2  0
  6  7  1  0
  7  8  2  0
  8  9  1  0
  8 10  1  0
 10 11  1  0
 10 12  2  0
 12 13  1  0
 12 14  1  0
 14 15  1  0
 14 16  2  0
 16 17  1  0
 17 18  2  0
 17 19  1  0
 19 20  1  0
 20 21  1  0
 20 22  1  0
 20 23  1  0
 23 24  1  0
 23 25  1  0
 25 26  1  0
 25 27  1  0
 25 28  1  0
 28 29  1  0
 28 30  1  0
 28 31  1  0
 31 32  1  0
 31 33  1  0
 31 34  1  0
 34 35  1  0
 34 36  1  0
 34 37  1  0
 37 38  1  0
 37 39  1  0
  2 40  1  0
 40 41  2  0
 41 42  1  0
 41 43  1  0
 43 44  1  0
 43 45  2  0
 45 46  1  0
 45 47  1  0
 47 48  1  0
 48 49  1  0
 49 50  1  0
 49 51  1  0
 49 52  1  0
 47 53  2  0
 53 54  1  0
 19  5  1  0
 37 23  1  0
 53 40  1  0
 16  7  1  0
M  END
>  <UniqueID>  (41) 
73

>  <SMILES>  (41) 
COc1cccc(/C=C/c2nc3ccccc3c(=O)n2CC2CCCCC2)c1

>  <Energy>  (41) 
74.23093219320548

>  <Genealogy>  (41) 
COc1cccc(/C=C/c2nc3ccccc3c(=O)n2CC2CCCCC2)c1 (cis-trans isomerization)
COc1cccc(/C=C/c2nc3ccccc3c(=O)n2CC2CCCCC2)c1 (3D coordinates assigned)
COc1cccc(/C=C/c2nc3ccccc3c(=O)n2CC2CCCCC2)c1 (nonaromatic ring conformer: 74.23093219320548 kcal/mol)

>  <smiles>  (41) 
COc1cccc(/C=C/c2nc3ccccc3c(=O)n2CC2CCCCC2)c1

>  <score_type>  (41) 
oracle

>  <origin>  (41) 
autodockgpu

>  <m_score__min__energy>  (41) 
-7.3499999999999996

>  <m_primary>  (41) 
energy

>  <meeko>  (41) 
{"free_energy": -6.4, "intermolecular_energy": -8.19, "internal_energy": -2.0, "cluster_size": 2, "cluster_id": 10, "rank_in_cluster": 2}

>  <energy>  (41) 
-7.35

>  <cluster_rmsd>  (41) 
0.0

>  <rmsd>  (41) 
270.31

>  <cluster>  (41) 
1

$$$$
SDBQQCBUKDXRSS-CCEZHUSRNA-N
     RDKit          3D

 54 57  0  0  0  0  0  0  0  0999 V2000
  139.5805   77.9134  223.8933 H   0  0  0  0  0  0  0  0  0  0  0  0
  139.1160   78.4390  223.0460 C   0  0  0  0  0  0  0  0  0  0  0  0
  139.1720   77.8780  221.8310 C   0  0  0  0  0  0  0  0  0  0  0  0
  138.4258   78.1590  221.0732 H   0  0  0  0  0  0  0  0  0  0  0  0
  140.2190   76.8860  221.4860 C   0  0  0  0  0  0  0  0  0  0  0  0
  140.0070   75.5990  221.8700 N   0  0  0  0  0  0  0  0  0  0  0  0
  140.8620   74.6030  221.5460 C   0  0  0  0  0  0  0  0  0  0  0  0
  140.6010   73.2920  221.9640 C   0  0  0  0  0  0  0  0  0  0  0  0
  139.7153   73.0776  222.5801 H   0  0  0  0  0  0  0  0  0  0  0  0
  141.4650   72.2560  221.5990 C   0  0  0  0  0  0  0  0  0  0  0  0
  141.2589   71.2267  221.9277 H   0  0  0  0  0  0  0  0  0  0  0  0
  142.5900   72.5270  220.8170 C   0  0  0  0  0  0  0  0  0  0  0  0
  143.2660   71.7095  220.5260 H   0  0  0  0  0  0  0  0  0  0  0  0
  142.8590   73.8360  220.4030 C   0  0  0  0  0  0  0  0  0  0  0  0
  143.7479   74.0456  219.7899 H   0  0  0  0  0  0  0  0  0  0  0  0
  141.9950   74.8860  220.7690 C   0  0  0  0  0  0  0  0  0  0  0  0
  142.2240   76.2190  220.3890 C   0  0  0  0  0  0  0  0  0  0  0  0
  143.2360   76.4900  219.6820 O   0  0  0  0  0  0  0  0  0  0  0  0
  141.3590   77.2190  220.7780 N   0  0  0  0  0  0  0  0  0  0  0  0
  141.6940   78.6300  220.4500 C   0  0  0  0  0  0  0  0  0  0  0  0
  142.7139   78.6576  220.0387 H   0  0  0  0  0  0  0  0  0  0  0  0
  140.9395   78.9789  219.7296 H   0  0  0  0  0  0  0  0  0  0  0  0
  141.6320   79.5890  221.6690 C   0  0  0  0  0  0  0  0  0  0  0  0
  140.6875   79.3245  222.1669 H   0  0  0  0  0  0  0  0  0  0  0  0
  142.7730   79.3680  222.6930 C   0  0  0  0  0  0  0  0  0  0  0  0
  142.5867   78.4226  223.2235 H   0  0  0  0  0  0  0  0  0  0  0  0
  143.7166   79.3496  222.1279 H   0  0  0  0  0  0  0  0  0  0  0  0
  142.8900   80.5010  223.7380 C   0  0  0  0  0  0  0  0  0  0  0  0
  143.0913   80.0522  224.7219 H   0  0  0  0  0  0  0  0  0  0  0  0
  143.7068   81.1643  223.4173 H   0  0  0  0  0  0  0  0  0  0  0  0
  141.6200   81.3490  223.8380 C   0  0  0  0  0  0  0  0  0  0  0  0
  140.7893   80.7096  224.1712 H   0  0  0  0  0  0  0  0  0  0  0  0
  141.8043   82.1606  224.5572 H   0  0  0  0  0  0  0  0  0  0  0  0
  141.2510   81.9820  222.4810 C   0  0  0  0  0  0  0  0  0  0  0  0
  140.1740   82.2059  222.4834 H   0  0  0  0  0  0  0  0  0  0  0  0
  141.8670   82.8865  222.3697 H   0  0  0  0  0  0  0  0  0  0  0  0
  141.5580   81.0740  221.2690 C   0  0  0  0  0  0  0  0  0  0  0  0
  140.7635   81.2012  220.5189 H   0  0  0  0  0  0  0  0  0  0  0  0
  142.5373   81.3670  220.8626 H   0  0  0  0  0  0  0  0  0  0  0  0
  138.4530   79.7390  223.2920 C   0  0  0  0  0  0  0  0  0  0  0  0
  137.9980   80.4880  222.1960 C   0  0  0  0  0  0  0  0  0  0  0  0
  138.1471   80.1088  221.1742 H   0  0  0  0  0  0  0  0  0  0  0  0
  137.3570   81.7120  222.3960 C   0  0  0  0  0  0  0  0  0  0  0  0
  136.9887   82.2858  221.5328 H   0  0  0  0  0  0  0  0  0  0  0  0
  137.1820   82.2100  223.6890 C   0  0  0  0  0  0  0  0  0  0  0  0
  136.6656   83.1695  223.8393 H   0  0  0  0  0  0  0  0  0  0  0  0
  137.6590   81.4970  224.7950 C   0  0  0  0  0  0  0  0  0  0  0  0
  137.4860   82.0530  226.0710 O   0  0  0  0  0  0  0  0  0  0  0  0
  136.4190   81.7230  226.9540 C   0  0  0  0  0  0  0  0  0  0  0  0
  136.7587   81.8281  227.9949 H   0  0  0  0  0  0  0  0  0  0  0  0
  135.5716   82.4010  226.7746 H   0  0  0  0  0  0  0  0  0  0  0  0
  136.1024   80.6849  226.7746 H   0  0  0  0  0  0  0  0  0  0  0  0
  138.2960   80.2560  224.5920 C   0  0  0  0  0  0  0  0  0  0  0  0
  138.6729   79.6877  225.4551 H   0  0  0  0  0  0  0  0  0  0  0  0
  1  2  1  0
  2  3  2  0
  3  4  1  0
  3  5  1  0
  5  6  2  0
  6  7  1  0
  7  8  2  0
  8  9  1  0
  8 10  1  0
 10 11  1  0
 10 12  2  0
 12 13  1  0
 12 14  1  0
 14 15  1  0
 14 16  2  0
 16 17  1  0
 17 18  2  0
 17 19  1  0
 19 20  1  0
 20 21  1  0
 20 22  1  0
 20 23  1  0
 23 24  1  0
 23 25  1  0
 25 26  1  0
 25 27  1  0
 25 28  1  0
 28 29  1  0
 28 30  1  0
 28 31  1  0
 31 32  1  0
 31 33  1  0
 31 34  1  0
 34 35  1  0
 34 36  1  0
 34 37  1  0
 37 38  1  0
 37 39  1  0
  2 40  1  0
 40 41  2  0
 41 42  1  0
 41 43  1  0
 43 44  1  0
 43 45  2  0
 45 46  1  0
 45 47  1  0
 47 48  1  0
 48 49  1  0
 49 50  1  0
 49 51  1  0
 49 52  1  0
 47 53  2  0
 53 54  1  0
 19  5  1  0
 37 23  1  0
 53 40  1  0
 16  7  1  0
M  END
>  <UniqueID>  (42) 
73

>  <SMILES>  (42) 
COc1cccc(/C=C/c2nc3ccccc3c(=O)n2CC2CCCCC2)c1

>  <Energy>  (42) 
74.23093219320548

>  <Genealogy>  (42) 
COc1cccc(/C=C/c2nc3ccccc3c(=O)n2CC2CCCCC2)c1 (cis-trans isomerization)
COc1cccc(/C=C/c2nc3ccccc3c(=O)n2CC2CCCCC2)c1 (3D coordinates assigned)
COc1cccc(/C=C/c2nc3ccccc3c(=O)n2CC2CCCCC2)c1 (nonaromatic ring conformer: 74.23093219320548 kcal/mol)

>  <smiles>  (42) 
COc1cccc(/C=C/c2nc3ccccc3c(=O)n2CC2CCCCC2)c1

>  <score_type>  (42) 
oracle

>  <origin>  (42) 
autodockgpu

>  <m_score__min__energy>  (42) 
-7.3499999999999996

>  <m_primary>  (42) 
energy

>  <meeko>  (42) 
{"free_energy": -6.62, "intermolecular_energy": -8.41, "internal_energy": -1.75, "cluster_size": 2, "cluster_id": 10, "rank_in_cluster": 1}

>  <energy>  (42) 
-7.33

>  <cluster_rmsd>  (42) 
0.0

>  <rmsd>  (42) 
270.17

>  <cluster>  (42) 
2

$$$$
SDBQQCBUKDXRSS-CCEZHUSRNA-N
     RDKit          3D

 54 57  0  0  0  0  0  0  0  0999 V2000
  143.4857   78.3299  218.0060 H   0  0  0  0  0  0  0  0  0  0  0  0
  142.5700   78.1060  218.5730 C   0  0  0  0  0  0  0  0  0  0  0  0
  141.5440   78.9630  218.5040 C   0  0  0  0  0  0  0  0  0  0  0  0
  140.5157   78.5723  218.5006 H   0  0  0  0  0  0  0  0  0  0  0  0
  141.7640   80.4280  218.4320 C   0  0  0  0  0  0  0  0  0  0  0  0
  142.7170   80.8730  217.5710 N   0  0  0  0  0  0  0  0  0  0  0  0
  142.9510   82.1900  217.3750 C   0  0  0  0  0  0  0  0  0  0  0  0
  143.9440   82.6000  216.4770 C   0  0  0  0  0  0  0  0  0  0  0  0
  144.5543   81.8502  215.9524 H   0  0  0  0  0  0  0  0  0  0  0  0
  144.1600   83.9610  216.2470 C   0  0  0  0  0  0  0  0  0  0  0  0
  144.9398   84.2817  215.5405 H   0  0  0  0  0  0  0  0  0  0  0  0
  143.3870   84.9150  216.9130 C   0  0  0  0  0  0  0  0  0  0  0  0
  143.5555   85.9858  216.7262 H   0  0  0  0  0  0  0  0  0  0  0  0
  142.3990   84.5110  217.8170 C   0  0  0  0  0  0  0  0  0  0  0  0
  141.7952   85.2653  218.3428 H   0  0  0  0  0  0  0  0  0  0  0  0
  142.1750   83.1410  218.0560 C   0  0  0  0  0  0  0  0  0  0  0  0
  141.2040   82.6820  218.9600 C   0  0  0  0  0  0  0  0  0  0  0  0
  140.4910   83.5250  219.5770 O   0  0  0  0  0  0  0  0  0  0  0  0
  141.0240   81.3320  219.1740 N   0  0  0  0  0  0  0  0  0  0  0  0
  140.0640   80.8880  220.2190 C   0  0  0  0  0  0  0  0  0  0  0  0
  139.5289   81.7721  220.5958 H   0  0  0  0  0  0  0  0  0  0  0  0
  139.3917   80.1575  219.7453 H   0  0  0  0  0  0  0  0  0  0  0  0
  140.7320   80.1710  221.4230 C   0  0  0  0  0  0  0  0  0  0  0  0
  140.7739   79.1158  221.1150 H   0  0  0  0  0  0  0  0  0  0  0  0
  142.1860   80.6330  221.6920 C   0  0  0  0  0  0  0  0  0  0  0  0
  142.8306   80.2380  220.8930 H   0  0  0  0  0  0  0  0  0  0  0  0
  142.1779   81.7327  221.7149 H   0  0  0  0  0  0  0  0  0  0  0  0
  142.7420   80.1530  223.0520 C   0  0  0  0  0  0  0  0  0  0  0  0
  143.7872   79.8391  222.9136 H   0  0  0  0  0  0  0  0  0  0  0  0
  142.6585   80.9916  223.7590 H   0  0  0  0  0  0  0  0  0  0  0  0
  141.9510   78.9780  223.6340 C   0  0  0  0  0  0  0  0  0  0  0  0
  142.0303   78.1204  222.9497 H   0  0  0  0  0  0  0  0  0  0  0  0
  142.3730   78.7341  224.6201 H   0  0  0  0  0  0  0  0  0  0  0  0
  140.4620   79.3330  223.8210 C   0  0  0  0  0  0  0  0  0  0  0  0
  139.8801   78.3995  223.8246 H   0  0  0  0  0  0  0  0  0  0  0  0
  140.3791   79.8826  224.7702 H   0  0  0  0  0  0  0  0  0  0  0  0
  139.9000   80.2540  222.7150 C   0  0  0  0  0  0  0  0  0  0  0  0
  138.8659   79.9524  222.4923 H   0  0  0  0  0  0  0  0  0  0  0  0
  139.9401   81.2906  223.0809 H   0  0  0  0  0  0  0  0  0  0  0  0
  142.5190   76.8690  219.3830 C   0  0  0  0  0  0  0  0  0  0  0  0
  143.5210   75.9020  219.2100 C   0  0  0  0  0  0  0  0  0  0  0  0
  144.3209   76.0679  218.4734 H   0  0  0  0  0  0  0  0  0  0  0  0
  143.5070   74.7300  219.9690 C   0  0  0  0  0  0  0  0  0  0  0  0
  144.3049   73.9838  219.8399 H   0  0  0  0  0  0  0  0  0  0  0  0
  142.4840   74.5020  220.8910 C   0  0  0  0  0  0  0  0  0  0  0  0
  142.4868   73.5814  221.4930 H   0  0  0  0  0  0  0  0  0  0  0  0
  141.4550   75.4360  221.0550 C   0  0  0  0  0  0  0  0  0  0  0  0
  140.4330   75.1480  221.9720 O   0  0  0  0  0  0  0  0  0  0  0  0
  139.3370   76.0120  222.2520 C   0  0  0  0  0  0  0  0  0  0  0  0
  139.2149   76.1083  223.3410 H   0  0  0  0  0  0  0  0  0  0  0  0
  139.5306   77.0030  221.8157 H   0  0  0  0  0  0  0  0  0  0  0  0
  138.4185   75.5924  221.8157 H   0  0  0  0  0  0  0  0  0  0  0  0
  141.4760   76.6240  220.2970 C   0  0  0  0  0  0  0  0  0  0  0  0
  140.6723   77.3649  220.4201 H   0  0  0  0  0  0  0  0  0  0  0  0
  1  2  1  0
  2  3  2  0
  3  4  1  0
  3  5  1  0
  5  6  2  0
  6  7  1  0
  7  8  2  0
  8  9  1  0
  8 10  1  0
 10 11  1  0
 10 12  2  0
 12 13  1  0
 12 14  1  0
 14 15  1  0
 14 16  2  0
 16 17  1  0
 17 18  2  0
 17 19  1  0
 19 20  1  0
 20 21  1  0
 20 22  1  0
 20 23  1  0
 23 24  1  0
 23 25  1  0
 25 26  1  0
 25 27  1  0
 25 28  1  0
 28 29  1  0
 28 30  1  0
 28 31  1  0
 31 32  1  0
 31 33  1  0
 31 34  1  0
 34 35  1  0
 34 36  1  0
 34 37  1  0
 37 38  1  0
 37 39  1  0
  2 40  1  0
 40 41  2  0
 41 42  1  0
 41 43  1  0
 43 44  1  0
 43 45  2  0
 45 46  1  0
 45 47  1  0
 47 48  1  0
 48 49  1  0
 49 50  1  0
 49 51  1  0
 49 52  1  0
 47 53  2  0
 53 54  1  0
 19  5  1  0
 37 23  1  0
 53 40  1  0
 16  7  1  0
M  END
>  <UniqueID>  (43) 
73

>  <SMILES>  (43) 
COc1cccc(/C=C/c2nc3ccccc3c(=O)n2CC2CCCCC2)c1

>  <Energy>  (43) 
74.23093219320548

>  <Genealogy>  (43) 
COc1cccc(/C=C/c2nc3ccccc3c(=O)n2CC2CCCCC2)c1 (cis-trans isomerization)
COc1cccc(/C=C/c2nc3ccccc3c(=O)n2CC2CCCCC2)c1 (3D coordinates assigned)
COc1cccc(/C=C/c2nc3ccccc3c(=O)n2CC2CCCCC2)c1 (nonaromatic ring conformer: 74.23093219320548 kcal/mol)

>  <smiles>  (43) 
COc1cccc(/C=C/c2nc3ccccc3c(=O)n2CC2CCCCC2)c1

>  <score_type>  (43) 
oracle

>  <origin>  (43) 
autodockgpu

>  <m_score__min__energy>  (43) 
-7.3499999999999996

>  <m_primary>  (43) 
energy

>  <meeko>  (43) 
{"free_energy": -6.65, "intermolecular_energy": -8.44, "internal_energy": -1.81, "cluster_size": 1, "cluster_id": 9, "rank_in_cluster": 1}

>  <energy>  (43) 
-7.1

>  <cluster_rmsd>  (43) 
1.0

>  <rmsd>  (43) 
270.19

>  <cluster>  (43) 
2

$$$$
SDBQQCBUKDXRSS-CCEZHUSRNA-N
     RDKit          3D

 54 57  0  0  0  0  0  0  0  0999 V2000
  143.8124   76.0822  218.0829 H   0  0  0  0  0  0  0  0  0  0  0  0
  143.6220   75.6470  219.0750 C   0  0  0  0  0  0  0  0  0  0  0  0
  142.6500   76.1710  219.8330 C   0  0  0  0  0  0  0  0  0  0  0  0
  142.6226   77.2584  219.9969 H   0  0  0  0  0  0  0  0  0  0  0  0
  141.6100   75.3170  220.4560 C   0  0  0  0  0  0  0  0  0  0  0  0
  141.8220   73.9740  220.4500 N   0  0  0  0  0  0  0  0  0  0  0  0
  140.9740   73.1100  221.0520 C   0  0  0  0  0  0  0  0  0  0  0  0
  141.2350   71.7350  221.0200 C   0  0  0  0  0  0  0  0  0  0  0  0
  142.1149   71.3551  220.4802 H   0  0  0  0  0  0  0  0  0  0  0  0
  140.3790   70.8450  221.6730 C   0  0  0  0  0  0  0  0  0  0  0  0
  140.5859   69.7649  221.6475 H   0  0  0  0  0  0  0  0  0  0  0  0
  139.2610   71.3250  222.3580 C   0  0  0  0  0  0  0  0  0  0  0  0
  138.5914   70.6230  222.8764 H   0  0  0  0  0  0  0  0  0  0  0  0
  138.9910   72.6980  222.3860 C   0  0  0  0  0  0  0  0  0  0  0  0
  138.1068   73.0721  222.9228 H   0  0  0  0  0  0  0  0  0  0  0  0
  139.8480   73.6020  221.7290 C   0  0  0  0  0  0  0  0  0  0  0  0
  139.6180   74.9870  221.7190 C   0  0  0  0  0  0  0  0  0  0  0  0
  138.6120   75.4480  222.3300 O   0  0  0  0  0  0  0  0  0  0  0  0
  140.4760   75.8370  221.0530 N   0  0  0  0  0  0  0  0  0  0  0  0
  140.1400   77.2830  220.9710 C   0  0  0  0  0  0  0  0  0  0  0  0
  140.1275   77.5761  219.9108 H   0  0  0  0  0  0  0  0  0  0  0  0
  139.1611   77.4115  221.4561 H   0  0  0  0  0  0  0  0  0  0  0  0
  141.1390   78.2040  221.7210 C   0  0  0  0  0  0  0  0  0  0  0  0
  142.0610   77.6066  221.7757 H   0  0  0  0  0  0  0  0  0  0  0  0
  141.4770   79.5080  220.9560 C   0  0  0  0  0  0  0  0  0  0  0  0
  142.1109   79.2521  220.0942 H   0  0  0  0  0  0  0  0  0  0  0  0
  140.5225   79.9615  220.6507 H   0  0  0  0  0  0  0  0  0  0  0  0
  142.2220   80.5520  221.8190 C   0  0  0  0  0  0  0  0  0  0  0  0
  143.0104   81.0152  221.2076 H   0  0  0  0  0  0  0  0  0  0  0  0
  141.4811   81.2912  222.1577 H   0  0  0  0  0  0  0  0  0  0  0  0
  142.8660   79.9400  223.0660 C   0  0  0  0  0  0  0  0  0  0  0  0
  143.6223   79.2050  222.7531 H   0  0  0  0  0  0  0  0  0  0  0  0
  143.3250   80.7514  223.6499 H   0  0  0  0  0  0  0  0  0  0  0  0
  141.8220   79.2360  223.9560 C   0  0  0  0  0  0  0  0  0  0  0  0
  142.3394   78.4833  224.5690 H   0  0  0  0  0  0  0  0  0  0  0  0
  141.3413   80.0156  224.5652 H   0  0  0  0  0  0  0  0  0  0  0  0
  140.7010   78.5300  223.1600 C   0  0  0  0  0  0  0  0  0  0  0  0
  140.4365   77.5932  223.6724 H   0  0  0  0  0  0  0  0  0  0  0  0
  139.8381   79.2103  223.1086 H   0  0  0  0  0  0  0  0  0  0  0  0
  144.4490   74.5050  219.5220 C   0  0  0  0  0  0  0  0  0  0  0  0
  144.9410   74.4950  220.8370 C   0  0  0  0  0  0  0  0  0  0  0  0
  144.7164   75.3338  221.5123 H   0  0  0  0  0  0  0  0  0  0  0  0
  145.7140   73.4250  221.2910 C   0  0  0  0  0  0  0  0  0  0  0  0
  146.0835   73.4168  222.3270 H   0  0  0  0  0  0  0  0  0  0  0  0
  146.0200   72.3650  220.4350 C   0  0  0  0  0  0  0  0  0  0  0  0
  146.6194   71.5198  220.8044 H   0  0  0  0  0  0  0  0  0  0  0  0
  145.5690   72.3710  219.1100 C   0  0  0  0  0  0  0  0  0  0  0  0
  145.9290   71.2980  218.2800 O   0  0  0  0  0  0  0  0  0  0  0  0
  145.5340   69.9480  218.4970 C   0  0  0  0  0  0  0  0  0  0  0  0
  145.4766   69.7520  219.5779 H   0  0  0  0  0  0  0  0  0  0  0  0
  144.5480   69.7765  218.0404 H   0  0  0  0  0  0  0  0  0  0  0  0
  146.2720   69.2721  218.0404 H   0  0  0  0  0  0  0  0  0  0  0  0
  144.7800   73.4460  218.6550 C   0  0  0  0  0  0  0  0  0  0  0  0
  144.4202   73.4581  217.6156 H   0  0  0  0  0  0  0  0  0  0  0  0
  1  2  1  0
  2  3  2  0
  3  4  1  0
  3  5  1  0
  5  6  2  0
  6  7  1  0
  7  8  2  0
  8  9  1  0
  8 10  1  0
 10 11  1  0
 10 12  2  0
 12 13  1  0
 12 14  1  0
 14 15  1  0
 14 16  2  0
 16 17  1  0
 17 18  2  0
 17 19  1  0
 19 20  1  0
 20 21  1  0
 20 22  1  0
 20 23  1  0
 23 24  1  0
 23 25  1  0
 25 26  1  0
 25 27  1  0
 25 28  1  0
 28 29  1  0
 28 30  1  0
 28 31  1  0
 31 32  1  0
 31 33  1  0
 31 34  1  0
 34 35  1  0
 34 36  1  0
 34 37  1  0
 37 38  1  0
 37 39  1  0
  2 40  1  0
 40 41  2  0
 41 42  1  0
 41 43  1  0
 43 44  1  0
 43 45  2  0
 45 46  1  0
 45 47  1  0
 47 48  1  0
 48 49  1  0
 49 50  1  0
 49 51  1  0
 49 52  1  0
 47 53  2  0
 53 54  1  0
 19  5  1  0
 37 23  1  0
 53 40  1  0
 16  7  1  0
M  END
>  <UniqueID>  (44) 
73

>  <SMILES>  (44) 
COc1cccc(/C=C/c2nc3ccccc3c(=O)n2CC2CCCCC2)c1

>  <Energy>  (44) 
74.23093219320548

>  <Genealogy>  (44) 
COc1cccc(/C=C/c2nc3ccccc3c(=O)n2CC2CCCCC2)c1 (cis-trans isomerization)
COc1cccc(/C=C/c2nc3ccccc3c(=O)n2CC2CCCCC2)c1 (3D coordinates assigned)
COc1cccc(/C=C/c2nc3ccccc3c(=O)n2CC2CCCCC2)c1 (nonaromatic ring conformer: 74.23093219320548 kcal/mol)

>  <smiles>  (44) 
COc1cccc(/C=C/c2nc3ccccc3c(=O)n2CC2CCCCC2)c1

>  <score_type>  (44) 
oracle

>  <origin>  (44) 
autodockgpu

>  <m_score__min__energy>  (44) 
-7.3499999999999996

>  <m_primary>  (44) 
energy

>  <meeko>  (44) 
{"free_energy": -7.04, "intermolecular_energy": -8.83, "internal_energy": -1.44, "cluster_size": 1, "cluster_id": 7, "rank_in_cluster": 1}

>  <energy>  (44) 
-7.31

>  <cluster_rmsd>  (44) 
0.0

>  <rmsd>  (44) 
270.37

>  <cluster>  (44) 
3

$$$$
SDBQQCBUKDXRSS-CCEZHUSRNA-N
     RDKit          3D

 54 57  0  0  0  0  0  0  0  0999 V2000
  137.7872   72.6353  222.1155 H   0  0  0  0  0  0  0  0  0  0  0  0
  138.8730   72.4750  222.0420 C   0  0  0  0  0  0  0  0  0  0  0  0
  139.3510   71.2310  222.1770 C   0  0  0  0  0  0  0  0  0  0  0  0
  139.5224   70.6199  221.2785 H   0  0  0  0  0  0  0  0  0  0  0  0
  139.6540   70.6600  223.5110 C   0  0  0  0  0  0  0  0  0  0  0  0
  140.2300   71.4840  224.4260 N   0  0  0  0  0  0  0  0  0  0  0  0
  140.4830   71.0860  225.6930 C   0  0  0  0  0  0  0  0  0  0  0  0
  141.0770   71.9720  226.6000 C   0  0  0  0  0  0  0  0  0  0  0  0
  141.3634   72.9827  226.2738 H   0  0  0  0  0  0  0  0  0  0  0  0
  141.3060   71.5730  227.9190 C   0  0  0  0  0  0  0  0  0  0  0  0
  141.7737   72.2697  228.6302 H   0  0  0  0  0  0  0  0  0  0  0  0
  140.9420   70.2910  228.3360 C   0  0  0  0  0  0  0  0  0  0  0  0
  141.1168   69.9817  229.3770 H   0  0  0  0  0  0  0  0  0  0  0  0
  140.3550   69.3990  227.4310 C   0  0  0  0  0  0  0  0  0  0  0  0
  140.0741   68.3881  227.7614 H   0  0  0  0  0  0  0  0  0  0  0  0
  140.1230   69.7920  226.0990 C   0  0  0  0  0  0  0  0  0  0  0  0
  139.5450   68.9340  225.1490 C   0  0  0  0  0  0  0  0  0  0  0  0
  139.2080   67.7670  225.5000 O   0  0  0  0  0  0  0  0  0  0  0  0
  139.3460   69.3540  223.8510 N   0  0  0  0  0  0  0  0  0  0  0  0
  138.8360   68.3830  222.8480 C   0  0  0  0  0  0  0  0  0  0  0  0
  139.1999   68.6868  221.8554 H   0  0  0  0  0  0  0  0  0  0  0  0
  139.2050   67.3908  223.1471 H   0  0  0  0  0  0  0  0  0  0  0  0
  137.2870   68.2910  222.7940 C   0  0  0  0  0  0  0  0  0  0  0  0
  137.0693   67.2696  223.1396 H   0  0  0  0  0  0  0  0  0  0  0  0
  136.5720   69.2690  223.7600 C   0  0  0  0  0  0  0  0  0  0  0  0
  136.7175   68.9105  224.7897 H   0  0  0  0  0  0  0  0  0  0  0  0
  137.0130   70.2639  223.5995 H   0  0  0  0  0  0  0  0  0  0  0  0
  135.0540   69.3950  223.4950 C   0  0  0  0  0  0  0  0  0  0  0  0
  134.5297   69.4259  224.4615 H   0  0  0  0  0  0  0  0  0  0  0  0
  134.8941   70.3158  222.9149 H   0  0  0  0  0  0  0  0  0  0  0  0
  134.4970   68.2290  222.6730 C   0  0  0  0  0  0  0  0  0  0  0  0
  134.6344   67.2955  223.2385 H   0  0  0  0  0  0  0  0  0  0  0  0
  133.4303   68.4195  222.4836 H   0  0  0  0  0  0  0  0  0  0  0  0
  135.2140   68.1010  221.3130 C   0  0  0  0  0  0  0  0  0  0  0  0
  135.1045   67.0654  220.9587 H   0  0  0  0  0  0  0  0  0  0  0  0
  134.7465   68.8286  220.6333 H   0  0  0  0  0  0  0  0  0  0  0  0
  136.7200   68.4400  221.3710 C   0  0  0  0  0  0  0  0  0  0  0  0
  137.2638   67.7603  220.6985 H   0  0  0  0  0  0  0  0  0  0  0  0
  136.8458   69.4881  221.0617 H   0  0  0  0  0  0  0  0  0  0  0  0
  139.7490   73.6410  221.7980 C   0  0  0  0  0  0  0  0  0  0  0  0
  140.9840   73.4430  221.1610 C   0  0  0  0  0  0  0  0  0  0  0  0
  141.2898   72.4295  220.8622 H   0  0  0  0  0  0  0  0  0  0  0  0
  141.8260   74.5270  220.9050 C   0  0  0  0  0  0  0  0  0  0  0  0
  142.7847   74.3664  220.3901 H   0  0  0  0  0  0  0  0  0  0  0  0
  141.4560   75.8140  221.3000 C   0  0  0  0  0  0  0  0  0  0  0  0
  142.1205   76.6638  221.0849 H   0  0  0  0  0  0  0  0  0  0  0  0
  140.2450   76.0300  221.9680 C   0  0  0  0  0  0  0  0  0  0  0  0
  139.9320   77.3370  222.3710 O   0  0  0  0  0  0  0  0  0  0  0  0
  140.8980   78.3260  222.7120 C   0  0  0  0  0  0  0  0  0  0  0  0
  140.9732   78.4030  223.8067 H   0  0  0  0  0  0  0  0  0  0  0  0
  141.8760   78.0419  222.2964 H   0  0  0  0  0  0  0  0  0  0  0  0
  140.5910   79.2971  222.2964 H   0  0  0  0  0  0  0  0  0  0  0  0
  139.3900   74.9380  222.2160 C   0  0  0  0  0  0  0  0  0  0  0  0
  138.4360   75.0989  222.7394 H   0  0  0  0  0  0  0  0  0  0  0  0
  1  2  1  0
  2  3  2  0
  3  4  1  0
  3  5  1  0
  5  6  2  0
  6  7  1  0
  7  8  2  0
  8  9  1  0
  8 10  1  0
 10 11  1  0
 10 12  2  0
 12 13  1  0
 12 14  1  0
 14 15  1  0
 14 16  2  0
 16 17  1  0
 17 18  2  0
 17 19  1  0
 19 20  1  0
 20 21  1  0
 20 22  1  0
 20 23  1  0
 23 24  1  0
 23 25  1  0
 25 26  1  0
 25 27  1  0
 25 28  1  0
 28 29  1  0
 28 30  1  0
 28 31  1  0
 31 32  1  0
 31 33  1  0
 31 34  1  0
 34 35  1  0
 34 36  1  0
 34 37  1  0
 37 38  1  0
 37 39  1  0
  2 40  1  0
 40 41  2  0
 41 42  1  0
 41 43  1  0
 43 44  1  0
 43 45  2  0
 45 46  1  0
 45 47  1  0
 47 48  1  0
 48 49  1  0
 49 50  1  0
 49 51  1  0
 49 52  1  0
 47 53  2  0
 53 54  1  0
 19  5  1  0
 37 23  1  0
 53 40  1  0
 16  7  1  0
M  END
>  <UniqueID>  (45) 
73

>  <SMILES>  (45) 
COc1cccc(/C=C/c2nc3ccccc3c(=O)n2CC2CCCCC2)c1

>  <Energy>  (45) 
74.23093219320548

>  <Genealogy>  (45) 
COc1cccc(/C=C/c2nc3ccccc3c(=O)n2CC2CCCCC2)c1 (cis-trans isomerization)
COc1cccc(/C=C/c2nc3ccccc3c(=O)n2CC2CCCCC2)c1 (3D coordinates assigned)
COc1cccc(/C=C/c2nc3ccccc3c(=O)n2CC2CCCCC2)c1 (nonaromatic ring conformer: 74.23093219320548 kcal/mol)

>  <smiles>  (45) 
COc1cccc(/C=C/c2nc3ccccc3c(=O)n2CC2CCCCC2)c1

>  <score_type>  (45) 
oracle

>  <origin>  (45) 
autodockgpu

>  <m_score__min__energy>  (45) 
-7.3499999999999996

>  <m_primary>  (45) 
energy

>  <meeko>  (45) 
{"free_energy": -7.08, "intermolecular_energy": -8.87, "internal_energy": -1.39, "cluster_size": 2, "cluster_id": 5, "rank_in_cluster": 1}

>  <energy>  (45) 
-7.11

>  <cluster_rmsd>  (45) 
0.25

>  <rmsd>  (45) 
270.4

>  <cluster>  (45) 
3

$$$$
SDBQQCBUKDXRSS-CCEZHUSRNA-N
     RDKit          3D

 54 57  0  0  0  0  0  0  0  0999 V2000
  138.8819   73.1967  221.3984 H   0  0  0  0  0  0  0  0  0  0  0  0
  139.7910   72.8740  221.9270 C   0  0  0  0  0  0  0  0  0  0  0  0
  140.9730   73.3590  221.5290 C   0  0  0  0  0  0  0  0  0  0  0  0
  141.8197   72.6698  221.3940 H   0  0  0  0  0  0  0  0  0  0  0  0
  141.1660   74.8060  221.2660 C   0  0  0  0  0  0  0  0  0  0  0  0
  140.6760   75.6770  222.1870 N   0  0  0  0  0  0  0  0  0  0  0  0
  140.8580   77.0120  222.0820 C   0  0  0  0  0  0  0  0  0  0  0  0
  140.3350   77.8700  223.0570 C   0  0  0  0  0  0  0  0  0  0  0  0
  139.7520   77.4595  223.8946 H   0  0  0  0  0  0  0  0  0  0  0  0
  140.5530   79.2470  222.9670 C   0  0  0  0  0  0  0  0  0  0  0  0
  140.1405   79.9196  223.7335 H   0  0  0  0  0  0  0  0  0  0  0  0
  141.2940   79.7710  221.9050 C   0  0  0  0  0  0  0  0  0  0  0  0
  141.4703   80.8548  221.8401 H   0  0  0  0  0  0  0  0  0  0  0  0
  141.8120   78.9190  220.9240 C   0  0  0  0  0  0  0  0  0  0  0  0
  142.3907   79.3355  220.0864 H   0  0  0  0  0  0  0  0  0  0  0  0
  141.5950   77.5290  221.0050 C   0  0  0  0  0  0  0  0  0  0  0  0
  142.0840   76.6310  220.0430 C   0  0  0  0  0  0  0  0  0  0  0  0
  142.7560   77.0790  219.0700 O   0  0  0  0  0  0  0  0  0  0  0  0
  141.8390   75.2800  220.1540 N   0  0  0  0  0  0  0  0  0  0  0  0
  142.2780   74.3740  219.0590 C   0  0  0  0  0  0  0  0  0  0  0  0
  141.4962   73.6164  218.9018 H   0  0  0  0  0  0  0  0  0  0  0  0
  142.4417   75.0021  218.1709 H   0  0  0  0  0  0  0  0  0  0  0  0
  143.6160   73.6430  219.3470 C   0  0  0  0  0  0  0  0  0  0  0  0
  144.1821   73.7473  218.4097 H   0  0  0  0  0  0  0  0  0  0  0  0
  144.4550   74.3010  220.4700 C   0  0  0  0  0  0  0  0  0  0  0  0
  144.8681   75.2461  220.0878 H   0  0  0  0  0  0  0  0  0  0  0  0
  143.7835   74.4560  221.3274 H   0  0  0  0  0  0  0  0  0  0  0  0
  145.6250   73.4190  220.9620 C   0  0  0  0  0  0  0  0  0  0  0  0
  146.5057   74.0590  221.1196 H   0  0  0  0  0  0  0  0  0  0  0  0
  145.3034   72.9313  221.8941 H   0  0  0  0  0  0  0  0  0  0  0  0
  145.9940   72.3150  219.9670 C   0  0  0  0  0  0  0  0  0  0  0  0
  146.3328   72.7787  219.0288 H   0  0  0  0  0  0  0  0  0  0  0  0
  146.7915   71.7025  220.4129 H   0  0  0  0  0  0  0  0  0  0  0  0
  144.7920   71.3970  219.6660 C   0  0  0  0  0  0  0  0  0  0  0  0
  144.9547   70.9212  218.6877 H   0  0  0  0  0  0  0  0  0  0  0  0
  144.7340   70.6642  220.4843 H   0  0  0  0  0  0  0  0  0  0  0  0
  143.4380   72.1400  219.6280 C   0  0  0  0  0  0  0  0  0  0  0  0
  142.8138   71.7015  218.8355 H   0  0  0  0  0  0  0  0  0  0  0  0
  142.9616   72.0314  220.6135 H   0  0  0  0  0  0  0  0  0  0  0  0
  139.6600   71.9210  223.0500 C   0  0  0  0  0  0  0  0  0  0  0  0
  138.6140   70.9850  223.0310 C   0  0  0  0  0  0  0  0  0  0  0  0
  137.9024   70.9769  222.1922 H   0  0  0  0  0  0  0  0  0  0  0  0
  138.4720   70.0650  224.0700 C   0  0  0  0  0  0  0  0  0  0  0  0
  137.6582   69.3255  224.0402 H   0  0  0  0  0  0  0  0  0  0  0  0
  139.3600   70.0800  225.1480 C   0  0  0  0  0  0  0  0  0  0  0  0
  139.2495   69.3429  225.9570 H   0  0  0  0  0  0  0  0  0  0  0  0
  140.3890   71.0260  225.2060 C   0  0  0  0  0  0  0  0  0  0  0  0
  141.2360   71.0200  226.3250 O   0  0  0  0  0  0  0  0  0  0  0  0
  141.0750   71.8660  227.4590 C   0  0  0  0  0  0  0  0  0  0  0  0
  141.1879   71.2725  228.3782 H   0  0  0  0  0  0  0  0  0  0  0  0
  141.8386   72.6574  227.4374 H   0  0  0  0  0  0  0  0  0  0  0  0
  140.0740   72.3216  227.4374 H   0  0  0  0  0  0  0  0  0  0  0  0
  140.5380   71.9480  224.1510 C   0  0  0  0  0  0  0  0  0  0  0  0
  141.3455   72.6940  224.1875 H   0  0  0  0  0  0  0  0  0  0  0  0
  1  2  1  0
  2  3  2  0
  3  4  1  0
  3  5  1  0
  5  6  2  0
  6  7  1  0
  7  8  2  0
  8  9  1  0
  8 10  1  0
 10 11  1  0
 10 12  2  0
 12 13  1  0
 12 14  1  0
 14 15  1  0
 14 16  2  0
 16 17  1  0
 17 18  2  0
 17 19  1  0
 19 20  1  0
 20 21  1  0
 20 22  1  0
 20 23  1  0
 23 24  1  0
 23 25  1  0
 25 26  1  0
 25 27  1  0
 25 28  1  0
 28 29  1  0
 28 30  1  0
 28 31  1  0
 31 32  1  0
 31 33  1  0
 31 34  1  0
 34 35  1  0
 34 36  1  0
 34 37  1  0
 37 38  1  0
 37 39  1  0
  2 40  1  0
 40 41  2  0
 41 42  1  0
 41 43  1  0
 43 44  1  0
 43 45  2  0
 45 46  1  0
 45 47  1  0
 47 48  1  0
 48 49  1  0
 49 50  1  0
 49 51  1  0
 49 52  1  0
 47 53  2  0
 53 54  1  0
 19  5  1  0
 37 23  1  0
 53 40  1  0
 16  7  1  0
M  END
>  <UniqueID>  (46) 
73

>  <SMILES>  (46) 
COc1cccc(/C=C/c2nc3ccccc3c(=O)n2CC2CCCCC2)c1

>  <Energy>  (46) 
74.23093219320548

>  <Genealogy>  (46) 
COc1cccc(/C=C/c2nc3ccccc3c(=O)n2CC2CCCCC2)c1 (cis-trans isomerization)
COc1cccc(/C=C/c2nc3ccccc3c(=O)n2CC2CCCCC2)c1 (3D coordinates assigned)
COc1cccc(/C=C/c2nc3ccccc3c(=O)n2CC2CCCCC2)c1 (nonaromatic ring conformer: 74.23093219320548 kcal/mol)

>  <smiles>  (46) 
COc1cccc(/C=C/c2nc3ccccc3c(=O)n2CC2CCCCC2)c1

>  <score_type>  (46) 
oracle

>  <origin>  (46) 
autodockgpu

>  <m_score__min__energy>  (46) 
-7.3499999999999996

>  <m_primary>  (46) 
energy

>  <meeko>  (46) 
{"free_energy": -7.18, "intermolecular_energy": -8.97, "internal_energy": -1.3, "cluster_size": 2, "cluster_id": 4, "rank_in_cluster": 1}

>  <energy>  (46) 
-6.99

>  <cluster_rmsd>  (46) 
1.53

>  <rmsd>  (46) 
270.65

>  <cluster>  (46) 
3

$$$$
SDBQQCBUKDXRSS-CCEZHUSRNA-N
     RDKit          3D

 54 57  0  0  0  0  0  0  0  0999 V2000
  137.0134   73.0250  222.5767 H   0  0  0  0  0  0  0  0  0  0  0  0
  136.9610   72.1120  223.1880 C   0  0  0  0  0  0  0  0  0  0  0  0
  137.8510   71.1370  222.9670 C   0  0  0  0  0  0  0  0  0  0  0  0
  138.0368   70.8017  221.9360 H   0  0  0  0  0  0  0  0  0  0  0  0
  138.5920   70.4990  224.0820 C   0  0  0  0  0  0  0  0  0  0  0  0
  139.3060   71.3140  224.9020 N   0  0  0  0  0  0  0  0  0  0  0  0
  139.9600   70.8470  225.9890 C   0  0  0  0  0  0  0  0  0  0  0  0
  140.6830   71.7260  226.8050 C   0  0  0  0  0  0  0  0  0  0  0  0
  140.7423   72.7933  226.5455 H   0  0  0  0  0  0  0  0  0  0  0  0
  141.3290   71.2490  227.9480 C   0  0  0  0  0  0  0  0  0  0  0  0
  141.8964   71.9409  228.5877 H   0  0  0  0  0  0  0  0  0  0  0  0
  141.2550   69.8950  228.2790 C   0  0  0  0  0  0  0  0  0  0  0  0
  141.7589   69.5227  229.1831 H   0  0  0  0  0  0  0  0  0  0  0  0
  140.5410   69.0100  227.4630 C   0  0  0  0  0  0  0  0  0  0  0  0
  140.4891   67.9429  227.7248 H   0  0  0  0  0  0  0  0  0  0  0  0
  139.8890   69.4820  226.3080 C   0  0  0  0  0  0  0  0  0  0  0  0
  139.1670   68.6360  225.4500 C   0  0  0  0  0  0  0  0  0  0  0  0
  139.0860   67.4050  225.7260 O   0  0  0  0  0  0  0  0  0  0  0  0
  138.5530   69.1370  224.3220 N   0  0  0  0  0  0  0  0  0  0  0  0
  137.8930   68.1940  223.3810 C   0  0  0  0  0  0  0  0  0  0  0  0
  137.4851   67.3537  223.9619 H   0  0  0  0  0  0  0  0  0  0  0  0
  137.1117   68.7621  222.8549 H   0  0  0  0  0  0  0  0  0  0  0  0
  138.8430   67.6220  222.2950 C   0  0  0  0  0  0  0  0  0  0  0  0
  139.7517   67.3504  222.8521 H   0  0  0  0  0  0  0  0  0  0  0  0
  138.3120   66.3330  221.6210 C   0  0  0  0  0  0  0  0  0  0  0  0
  138.3811   65.5075  222.3447 H   0  0  0  0  0  0  0  0  0  0  0  0
  137.2747   66.5316  221.3136 H   0  0  0  0  0  0  0  0  0  0  0  0
  139.0960   65.9360  220.3490 C   0  0  0  0  0  0  0  0  0  0  0  0
  139.2327   64.8445  220.3466 H   0  0  0  0  0  0  0  0  0  0  0  0
  138.5126   66.2758  219.4806 H   0  0  0  0  0  0  0  0  0  0  0  0
  140.4730   66.6020  220.2690 C   0  0  0  0  0  0  0  0  0  0  0  0
  141.0820   66.2667  221.1215 H   0  0  0  0  0  0  0  0  0  0  0  0
  140.9401   66.3139  219.3157 H   0  0  0  0  0  0  0  0  0  0  0  0
  140.3620   68.1390  220.3070 C   0  0  0  0  0  0  0  0  0  0  0  0
  141.3182   68.5472  220.6662 H   0  0  0  0  0  0  0  0  0  0  0  0
  140.1214   68.4687  219.2855 H   0  0  0  0  0  0  0  0  0  0  0  0
  139.2340   68.6590  221.2260 C   0  0  0  0  0  0  0  0  0  0  0  0
  139.5778   69.5754  221.7280 H   0  0  0  0  0  0  0  0  0  0  0  0
  138.3496   68.8574  220.6027 H   0  0  0  0  0  0  0  0  0  0  0  0
  135.9090   72.0080  224.2240 C   0  0  0  0  0  0  0  0  0  0  0  0
  135.4640   70.7360  224.6160 C   0  0  0  0  0  0  0  0  0  0  0  0
  135.8909   69.8379  224.1458 H   0  0  0  0  0  0  0  0  0  0  0  0
  134.4820   70.6050  225.6000 C   0  0  0  0  0  0  0  0  0  0  0  0
  134.1493   69.6043  225.9130 H   0  0  0  0  0  0  0  0  0  0  0  0
  133.9210   71.7410  226.1880 C   0  0  0  0  0  0  0  0  0  0  0  0
  133.1564   71.6297  226.9709 H   0  0  0  0  0  0  0  0  0  0  0  0
  134.3250   73.0200  225.7880 C   0  0  0  0  0  0  0  0  0  0  0  0
  133.7100   74.1300  226.3870 O   0  0  0  0  0  0  0  0  0  0  0  0
  134.2760   75.4360  226.4290 C   0  0  0  0  0  0  0  0  0  0  0  0
  134.4096   75.7442  227.4765 H   0  0  0  0  0  0  0  0  0  0  0  0
  135.2519   75.4292  225.9215 H   0  0  0  0  0  0  0  0  0  0  0  0
  133.6037   76.1435  225.9215 H   0  0  0  0  0  0  0  0  0  0  0  0
  135.3240   73.1510  224.8030 C   0  0  0  0  0  0  0  0  0  0  0  0
  135.6491   74.1523  224.4842 H   0  0  0  0  0  0  0  0  0  0  0  0
  1  2  1  0
  2  3  2  0
  3  4  1  0
  3  5  1  0
  5  6  2  0
  6  7  1  0
  7  8  2  0
  8  9  1  0
  8 10  1  0
 10 11  1  0
 10 12  2  0
 12 13  1  0
 12 14  1  0
 14 15  1  0
 14 16  2  0
 16 17  1  0
 17 18  2  0
 17 19  1  0
 19 20  1  0
 20 21  1  0
 20 22  1  0
 20 23  1  0
 23 24  1  0
 23 25  1  0
 25 26  1  0
 25 27  1  0
 25 28  1  0
 28 29  1  0
 28 30  1  0
 28 31  1  0
 31 32  1  0
 31 33  1  0
 31 34  1  0
 34 35  1  0
 34 36  1  0
 34 37  1  0
 37 38  1  0
 37 39  1  0
  2 40  1  0
 40 41  2  0
 41 42  1  0
 41 43  1  0
 43 44  1  0
 43 45  2  0
 45 46  1  0
 45 47  1  0
 47 48  1  0
 48 49  1  0
 49 50  1  0
 49 51  1  0
 49 52  1  0
 47 53  2  0
 53 54  1  0
 19  5  1  0
 37 23  1  0
 53 40  1  0
 16  7  1  0
M  END
>  <UniqueID>  (47) 
73

>  <SMILES>  (47) 
COc1cccc(/C=C/c2nc3ccccc3c(=O)n2CC2CCCCC2)c1

>  <Energy>  (47) 
74.23093219320548

>  <Genealogy>  (47) 
COc1cccc(/C=C/c2nc3ccccc3c(=O)n2CC2CCCCC2)c1 (cis-trans isomerization)
COc1cccc(/C=C/c2nc3ccccc3c(=O)n2CC2CCCCC2)c1 (3D coordinates assigned)
COc1cccc(/C=C/c2nc3ccccc3c(=O)n2CC2CCCCC2)c1 (nonaromatic ring conformer: 74.23093219320548 kcal/mol)

>  <smiles>  (47) 
COc1cccc(/C=C/c2nc3ccccc3c(=O)n2CC2CCCCC2)c1

>  <score_type>  (47) 
oracle

>  <origin>  (47) 
autodockgpu

>  <m_score__min__energy>  (47) 
-7.3499999999999996

>  <m_primary>  (47) 
energy

>  <meeko>  (47) 
{"free_energy": -7.1, "intermolecular_energy": -8.89, "internal_energy": -1.48, "cluster_size": 2, "cluster_id": 2, "rank_in_cluster": 2}

>  <energy>  (47) 
-7.18

>  <cluster_rmsd>  (47) 
0.0

>  <rmsd>  (47) 
271.02

>  <cluster>  (47) 
4

$$$$
SDBQQCBUKDXRSS-CCEZHUSRNA-N
     RDKit          3D

 54 57  0  0  0  0  0  0  0  0999 V2000
  140.3833   70.7882  220.7421 H   0  0  0  0  0  0  0  0  0  0  0  0
  139.9900   71.5260  221.4570 C   0  0  0  0  0  0  0  0  0  0  0  0
  139.0580   71.1380  222.3360 C   0  0  0  0  0  0  0  0  0  0  0  0
  137.9964   71.3125  222.1069 H   0  0  0  0  0  0  0  0  0  0  0  0
  139.4260   70.4780  223.6120 C   0  0  0  0  0  0  0  0  0  0  0  0
  139.9500   71.2630  224.5910 N   0  0  0  0  0  0  0  0  0  0  0  0
  140.2550   70.7790  225.8150 C   0  0  0  0  0  0  0  0  0  0  0  0
  140.7920   71.6270  226.7910 C   0  0  0  0  0  0  0  0  0  0  0  0
  140.9929   72.6818  226.5521 H   0  0  0  0  0  0  0  0  0  0  0  0
  141.0730   71.1350  228.0680 C   0  0  0  0  0  0  0  0  0  0  0  0
  141.4946   71.8027  228.8338 H   0  0  0  0  0  0  0  0  0  0  0  0
  140.8190   69.7960  228.3730 C   0  0  0  0  0  0  0  0  0  0  0  0
  141.0362   69.4120  229.3807 H   0  0  0  0  0  0  0  0  0  0  0  0
  140.2890   68.9420  227.4000 C   0  0  0  0  0  0  0  0  0  0  0  0
  140.0935   67.8873  227.6436 H   0  0  0  0  0  0  0  0  0  0  0  0
  140.0050   69.4290  226.1090 C   0  0  0  0  0  0  0  0  0  0  0  0
  139.4820   68.6140  225.0930 C   0  0  0  0  0  0  0  0  0  0  0  0
  139.2440   67.3980  225.3430 O   0  0  0  0  0  0  0  0  0  0  0  0
  139.2290   69.1280  223.8390 N   0  0  0  0  0  0  0  0  0  0  0  0
  138.7810   68.2090  222.7590 C   0  0  0  0  0  0  0  0  0  0  0  0
  139.3493   68.4431  221.8467 H   0  0  0  0  0  0  0  0  0  0  0  0
  138.9605   67.1841  223.1160 H   0  0  0  0  0  0  0  0  0  0  0  0
  137.2670   68.3150  222.4330 C   0  0  0  0  0  0  0  0  0  0  0  0
  137.2254   69.0239  221.5930 H   0  0  0  0  0  0  0  0  0  0  0  0
  136.6410   66.9840  221.9470 C   0  0  0  0  0  0  0  0  0  0  0  0
  137.0094   66.7759  220.9316 H   0  0  0  0  0  0  0  0  0  0  0  0
  136.9371   66.2051  222.6651 H   0  0  0  0  0  0  0  0  0  0  0  0
  135.0950   67.0080  221.9120 C   0  0  0  0  0  0  0  0  0  0  0  0
  134.7560   66.4954  220.9997 H   0  0  0  0  0  0  0  0  0  0  0  0
  134.7351   66.5036  222.8209 H   0  0  0  0  0  0  0  0  0  0  0  0
  134.5240   68.4280  221.9160 C   0  0  0  0  0  0  0  0  0  0  0  0
  134.8605   68.9507  221.0085 H   0  0  0  0  0  0  0  0  0  0  0  0
  133.4266   68.3576  221.9446 H   0  0  0  0  0  0  0  0  0  0  0  0
  134.9890   69.2230  223.1530 C   0  0  0  0  0  0  0  0  0  0  0  0
  134.9262   70.2962  222.9200 H   0  0  0  0  0  0  0  0  0  0  0  0
  134.3309   68.9355  223.9862 H   0  0  0  0  0  0  0  0  0  0  0  0
  136.4370   68.9020  223.5890 C   0  0  0  0  0  0  0  0  0  0  0  0
  136.9173   69.8283  223.9373 H   0  0  0  0  0  0  0  0  0  0  0  0
  136.3931   68.1522  224.3926 H   0  0  0  0  0  0  0  0  0  0  0  0
  140.5110   72.9100  221.4110 C   0  0  0  0  0  0  0  0  0  0  0  0
  139.7090   73.9560  221.8950 C   0  0  0  0  0  0  0  0  0  0  0  0
  138.7061   73.7385  222.2911 H   0  0  0  0  0  0  0  0  0  0  0  0
  140.1780   75.2700  221.8760 C   0  0  0  0  0  0  0  0  0  0  0  0
  139.5494   76.0820  222.2703 H   0  0  0  0  0  0  0  0  0  0  0  0
  141.4430   75.5580  221.3580 C   0  0  0  0  0  0  0  0  0  0  0  0
  141.8106   76.5948  221.3587 H   0  0  0  0  0  0  0  0  0  0  0  0
  142.2460   74.5360  220.8380 C   0  0  0  0  0  0  0  0  0  0  0  0
  143.4950   74.8800  220.3010 O   0  0  0  0  0  0  0  0  0  0  0  0
  144.6850   74.1180  220.4820 C   0  0  0  0  0  0  0  0  0  0  0  0
  144.8803   73.9929  221.5573 H   0  0  0  0  0  0  0  0  0  0  0  0
  144.5624   73.1300  220.0142 H   0  0  0  0  0  0  0  0  0  0  0  0
  145.5311   74.6427  220.0142 H   0  0  0  0  0  0  0  0  0  0  0  0
  141.7760   73.2080  220.8680 C   0  0  0  0  0  0  0  0  0  0  0  0
  142.4015   72.3981  220.4644 H   0  0  0  0  0  0  0  0  0  0  0  0
  1  2  1  0
  2  3  2  0
  3  4  1  0
  3  5  1  0
  5  6  2  0
  6  7  1  0
  7  8  2  0
  8  9  1  0
  8 10  1  0
 10 11  1  0
 10 12  2  0
 12 13  1  0
 12 14  1  0
 14 15  1  0
 14 16  2  0
 16 17  1  0
 17 18  2  0
 17 19  1  0
 19 20  1  0
 20 21  1  0
 20 22  1  0
 20 23  1  0
 23 24  1  0
 23 25  1  0
 25 26  1  0
 25 27  1  0
 25 28  1  0
 28 29  1  0
 28 30  1  0
 28 31  1  0
 31 32  1  0
 31 33  1  0
 31 34  1  0
 34 35  1  0
 34 36  1  0
 34 37  1  0
 37 38  1  0
 37 39  1  0
  2 40  1  0
 40 41  2  0
 41 42  1  0
 41 43  1  0
 43 44  1  0
 43 45  2  0
 45 46  1  0
 45 47  1  0
 47 48  1  0
 48 49  1  0
 49 50  1  0
 49 51  1  0
 49 52  1  0
 47 53  2  0
 53 54  1  0
 19  5  1  0
 37 23  1  0
 53 40  1  0
 16  7  1  0
M  END
>  <UniqueID>  (48) 
73

>  <SMILES>  (48) 
COc1cccc(/C=C/c2nc3ccccc3c(=O)n2CC2CCCCC2)c1

>  <Energy>  (48) 
74.23093219320548

>  <Genealogy>  (48) 
COc1cccc(/C=C/c2nc3ccccc3c(=O)n2CC2CCCCC2)c1 (cis-trans isomerization)
COc1cccc(/C=C/c2nc3ccccc3c(=O)n2CC2CCCCC2)c1 (3D coordinates assigned)
COc1cccc(/C=C/c2nc3ccccc3c(=O)n2CC2CCCCC2)c1 (nonaromatic ring conformer: 74.23093219320548 kcal/mol)

>  <smiles>  (48) 
COc1cccc(/C=C/c2nc3ccccc3c(=O)n2CC2CCCCC2)c1

>  <score_type>  (48) 
oracle

>  <origin>  (48) 
autodockgpu

>  <m_score__min__energy>  (48) 
-7.3499999999999996

>  <m_primary>  (48) 
energy

>  <meeko>  (48) 
{"free_energy": -7.03, "intermolecular_energy": -8.82, "internal_energy": -1.3, "cluster_size": 2, "cluster_id": 5, "rank_in_cluster": 2}

>  <energy>  (48) 
-7.11

>  <cluster_rmsd>  (48) 
0.74

>  <rmsd>  (48) 
271.14

>  <cluster>  (48) 
4

$$$$
SDBQQCBUKDXRSS-CCEZHUSRNA-N
     RDKit          3D

 54 57  0  0  0  0  0  0  0  0999 V2000
  135.6854   69.8461  222.3378 H   0  0  0  0  0  0  0  0  0  0  0  0
  136.0610   69.6670  223.3560 C   0  0  0  0  0  0  0  0  0  0  0  0
  137.2110   69.0000  223.5090 C   0  0  0  0  0  0  0  0  0  0  0  0
  137.4138   68.1237  222.8758 H   0  0  0  0  0  0  0  0  0  0  0  0
  138.2180   69.4180  224.5150 C   0  0  0  0  0  0  0  0  0  0  0  0
  138.4440   68.5760  225.5580 N   0  0  0  0  0  0  0  0  0  0  0  0
  139.3880   68.8250  226.4920 C   0  0  0  0  0  0  0  0  0  0  0  0
  139.5840   67.9270  227.5480 C   0  0  0  0  0  0  0  0  0  0  0  0
  138.9494   67.0326  227.6338 H   0  0  0  0  0  0  0  0  0  0  0  0
  140.5850   68.1660  228.4930 C   0  0  0  0  0  0  0  0  0  0  0  0
  140.7382   67.4589  229.3216 H   0  0  0  0  0  0  0  0  0  0  0  0
  141.3910   69.3010  228.3870 C   0  0  0  0  0  0  0  0  0  0  0  0
  142.1814   69.4845  229.1297 H   0  0  0  0  0  0  0  0  0  0  0  0
  141.1950   70.2060  227.3370 C   0  0  0  0  0  0  0  0  0  0  0  0
  141.8300   71.1008  227.2584 H   0  0  0  0  0  0  0  0  0  0  0  0
  140.1870   69.9740  226.3810 C   0  0  0  0  0  0  0  0  0  0  0  0
  139.9410   70.8540  225.3150 C   0  0  0  0  0  0  0  0  0  0  0  0
  140.6560   71.8890  225.1970 O   0  0  0  0  0  0  0  0  0  0  0  0
  138.9370   70.5950  224.4070 N   0  0  0  0  0  0  0  0  0  0  0  0
  138.6350   71.6050  223.3580 C   0  0  0  0  0  0  0  0  0  0  0  0
  137.8818   71.1824  222.6767 H   0  0  0  0  0  0  0  0  0  0  0  0
  138.2765   72.5067  223.8761 H   0  0  0  0  0  0  0  0  0  0  0  0
  139.8710   72.0280  222.5190 C   0  0  0  0  0  0  0  0  0  0  0  0
  140.6899   72.0676  223.2524 H   0  0  0  0  0  0  0  0  0  0  0  0
  140.2700   70.9950  221.4360 C   0  0  0  0  0  0  0  0  0  0  0  0
  140.7083   70.1183  221.9352 H   0  0  0  0  0  0  0  0  0  0  0  0
  139.3572   70.7422  220.8767 H   0  0  0  0  0  0  0  0  0  0  0  0
  141.2940   71.5400  220.4150 C   0  0  0  0  0  0  0  0  0  0  0  0
  142.0321   70.7524  220.2030 H   0  0  0  0  0  0  0  0  0  0  0  0
  140.7378   71.8320  219.5120 H   0  0  0  0  0  0  0  0  0  0  0  0
  142.0340   72.7800  220.9210 C   0  0  0  0  0  0  0  0  0  0  0  0
  142.6095   72.5107  221.8189 H   0  0  0  0  0  0  0  0  0  0  0  0
  142.6992   73.1346  220.1200 H   0  0  0  0  0  0  0  0  0  0  0  0
  141.0560   73.9190  221.2760 C   0  0  0  0  0  0  0  0  0  0  0  0
  141.5482   74.5869  221.9983 H   0  0  0  0  0  0  0  0  0  0  0  0
  140.8036   74.4309  220.3357 H   0  0  0  0  0  0  0  0  0  0  0  0
  139.7280   73.4270  221.8930 C   0  0  0  0  0  0  0  0  0  0  0  0
  139.4141   74.1357  222.6735 H   0  0  0  0  0  0  0  0  0  0  0  0
  138.9797   73.3665  221.0891 H   0  0  0  0  0  0  0  0  0  0  0  0
  135.2750   70.1730  224.5030 C   0  0  0  0  0  0  0  0  0  0  0  0
  134.6500   69.2520  225.3580 C   0  0  0  0  0  0  0  0  0  0  0  0
  134.7409   68.1735  225.1614 H   0  0  0  0  0  0  0  0  0  0  0  0
  133.9140   69.6980  226.4560 C   0  0  0  0  0  0  0  0  0  0  0  0
  133.4405   68.9695  227.1306 H   0  0  0  0  0  0  0  0  0  0  0  0
  133.7760   71.0660  226.7020 C   0  0  0  0  0  0  0  0  0  0  0  0
  133.2033   71.4091  227.5762 H   0  0  0  0  0  0  0  0  0  0  0  0
  134.3620   72.0030  225.8430 C   0  0  0  0  0  0  0  0  0  0  0  0
  134.1700   73.3660  226.1140 O   0  0  0  0  0  0  0  0  0  0  0  0
  134.5910   74.4230  225.2580 C   0  0  0  0  0  0  0  0  0  0  0  0
  134.9301   75.2744  225.8663 H   0  0  0  0  0  0  0  0  0  0  0  0
  135.4185   74.0732  224.6232 H   0  0  0  0  0  0  0  0  0  0  0  0
  133.7497   74.7379  224.6232 H   0  0  0  0  0  0  0  0  0  0  0  0
  135.1150   71.5520  224.7410 C   0  0  0  0  0  0  0  0  0  0  0  0
  135.5809   72.2814  224.0621 H   0  0  0  0  0  0  0  0  0  0  0  0
  1  2  1  0
  2  3  2  0
  3  4  1  0
  3  5  1  0
  5  6  2  0
  6  7  1  0
  7  8  2  0
  8  9  1  0
  8 10  1  0
 10 11  1  0
 10 12  2  0
 12 13  1  0
 12 14  1  0
 14 15  1  0
 14 16  2  0
 16 17  1  0
 17 18  2  0
 17 19  1  0
 19 20  1  0
 20 21  1  0
 20 22  1  0
 20 23  1  0
 23 24  1  0
 23 25  1  0
 25 26  1  0
 25 27  1  0
 25 28  1  0
 28 29  1  0
 28 30  1  0
 28 31  1  0
 31 32  1  0
 31 33  1  0
 31 34  1  0
 34 35  1  0
 34 36  1  0
 34 37  1  0
 37 38  1  0
 37 39  1  0
  2 40  1  0
 40 41  2  0
 41 42  1  0
 41 43  1  0
 43 44  1  0
 43 45  2  0
 45 46  1  0
 45 47  1  0
 47 48  1  0
 48 49  1  0
 49 50  1  0
 49 51  1  0
 49 52  1  0
 47 53  2  0
 53 54  1  0
 19  5  1  0
 37 23  1  0
 53 40  1  0
 16  7  1  0
M  END
>  <UniqueID>  (49) 
73

>  <SMILES>  (49) 
COc1cccc(/C=C/c2nc3ccccc3c(=O)n2CC2CCCCC2)c1

>  <Energy>  (49) 
74.23093219320548

>  <Genealogy>  (49) 
COc1cccc(/C=C/c2nc3ccccc3c(=O)n2CC2CCCCC2)c1 (cis-trans isomerization)
COc1cccc(/C=C/c2nc3ccccc3c(=O)n2CC2CCCCC2)c1 (3D coordinates assigned)
COc1cccc(/C=C/c2nc3ccccc3c(=O)n2CC2CCCCC2)c1 (nonaromatic ring conformer: 74.23093219320548 kcal/mol)

>  <smiles>  (49) 
COc1cccc(/C=C/c2nc3ccccc3c(=O)n2CC2CCCCC2)c1

>  <score_type>  (49) 
oracle

>  <origin>  (49) 
autodockgpu

>  <m_score__min__energy>  (49) 
-7.3499999999999996

>  <m_primary>  (49) 
energy

>  <meeko>  (49) 
{"free_energy": -6.99, "intermolecular_energy": -8.78, "internal_energy": -1.43, "cluster_size": 3, "cluster_id": 3, "rank_in_cluster": 3}

>  <energy>  (49) 
-7.08

>  <cluster_rmsd>  (49) 
0.0

>  <rmsd>  (49) 
270.38

>  <cluster>  (49) 
5

$$$$
SDBQQCBUKDXRSS-CCEZHUSRNA-N
     RDKit          3D

 54 57  0  0  0  0  0  0  0  0999 V2000
  143.9018   79.7090  222.7739 H   0  0  0  0  0  0  0  0  0  0  0  0
  142.8050   79.7850  222.7400 C   0  0  0  0  0  0  0  0  0  0  0  0
  142.0780   78.9730  223.5190 C   0  0  0  0  0  0  0  0  0  0  0  0
  142.5861   78.3516  224.2711 H   0  0  0  0  0  0  0  0  0  0  0  0
  140.6030   78.8940  223.3890 C   0  0  0  0  0  0  0  0  0  0  0  0
  139.8690   79.8300  224.0460 N   0  0  0  0  0  0  0  0  0  0  0  0
  138.5230   79.8920  223.9400 C   0  0  0  0  0  0  0  0  0  0  0  0
  137.8090   80.8760  224.6360 C   0  0  0  0  0  0  0  0  0  0  0  0
  138.3413   81.5807  225.2918 H   0  0  0  0  0  0  0  0  0  0  0  0
  136.4220   80.9630  224.4980 C   0  0  0  0  0  0  0  0  0  0  0  0
  135.8628   81.7357  225.0460 H   0  0  0  0  0  0  0  0  0  0  0  0
  135.7440   80.0700  223.6650 C   0  0  0  0  0  0  0  0  0  0  0  0
  134.6524   80.1452  223.5521 H   0  0  0  0  0  0  0  0  0  0  0  0
  136.4510   79.0800  222.9740 C   0  0  0  0  0  0  0  0  0  0  0  0
  135.9130   78.3747  222.3235 H   0  0  0  0  0  0  0  0  0  0  0  0
  137.8500   78.9840  223.1090 C   0  0  0  0  0  0  0  0  0  0  0  0
  138.6060   78.0040  222.4450 C   0  0  0  0  0  0  0  0  0  0  0  0
  138.0170   77.1830  221.6870 O   0  0  0  0  0  0  0  0  0  0  0  0
  139.9720   77.9370  222.6140 N   0  0  0  0  0  0  0  0  0  0  0  0
  140.7230   76.8200  221.9830 C   0  0  0  0  0  0  0  0  0  0  0  0
  141.4888   76.4733  222.6925 H   0  0  0  0  0  0  0  0  0  0  0  0
  139.9879   76.0388  221.7394 H   0  0  0  0  0  0  0  0  0  0  0  0
  141.4270   77.2060  220.6540 C   0  0  0  0  0  0  0  0  0  0  0  0
  142.0632   78.0605  220.9281 H   0  0  0  0  0  0  0  0  0  0  0  0
  142.3560   76.1000  220.0980 C   0  0  0  0  0  0  0  0  0  0  0  0
  143.2477   76.0392  220.7392 H   0  0  0  0  0  0  0  0  0  0  0  0
  141.7794   75.1632  220.0962 H   0  0  0  0  0  0  0  0  0  0  0  0
  142.8150   76.3550  218.6440 C   0  0  0  0  0  0  0  0  0  0  0  0
  143.8773   76.0827  218.5577 H   0  0  0  0  0  0  0  0  0  0  0  0
  142.1826   75.7428  217.9843 H   0  0  0  0  0  0  0  0  0  0  0  0
  142.6480   77.8160  218.2180 C   0  0  0  0  0  0  0  0  0  0  0  0
  143.2824   78.4486  218.8562 H   0  0  0  0  0  0  0  0  0  0  0  0
  142.9431   77.9022  217.1618 H   0  0  0  0  0  0  0  0  0  0  0  0
  141.1840   78.2820  218.3490 C   0  0  0  0  0  0  0  0  0  0  0  0
  141.1757   79.3774  218.4492 H   0  0  0  0  0  0  0  0  0  0  0  0
  140.6553   77.9395  217.4473 H   0  0  0  0  0  0  0  0  0  0  0  0
  140.4460   77.6750  219.5640 C   0  0  0  0  0  0  0  0  0  0  0  0
  139.7771   78.4367  219.9910 H   0  0  0  0  0  0  0  0  0  0  0  0
  139.8779   76.7996  219.2162 H   0  0  0  0  0  0  0  0  0  0  0  0
  142.1880   80.7800  221.8360 C   0  0  0  0  0  0  0  0  0  0  0  0
  141.5940   81.9250  222.3880 C   0  0  0  0  0  0  0  0  0  0  0  0
  141.5837   82.0639  223.4792 H   0  0  0  0  0  0  0  0  0  0  0  0
  141.0160   82.8890  221.5600 C   0  0  0  0  0  0  0  0  0  0  0  0
  140.5666   83.7917  221.9995 H   0  0  0  0  0  0  0  0  0  0  0  0
  141.0070   82.7100  220.1750 C   0  0  0  0  0  0  0  0  0  0  0  0
  140.5604   83.4794  219.5280 H   0  0  0  0  0  0  0  0  0  0  0  0
  141.5620   81.5590  219.6040 C   0  0  0  0  0  0  0  0  0  0  0  0
  141.5010   81.4120  218.2100 O   0  0  0  0  0  0  0  0  0  0  0  0
  142.6400   81.3050  217.3630 C   0  0  0  0  0  0  0  0  0  0  0  0
  143.5478   81.2197  217.9783 H   0  0  0  0  0  0  0  0  0  0  0  0
  142.5422   80.4121  216.7281 H   0  0  0  0  0  0  0  0  0  0  0  0
  142.7102   82.2005  216.7281 H   0  0  0  0  0  0  0  0  0  0  0  0
  142.1550   80.5930  220.4400 C   0  0  0  0  0  0  0  0  0  0  0  0
  142.5955   79.6862  219.9999 H   0  0  0  0  0  0  0  0  0  0  0  0
  1  2  1  0
  2  3  2  0
  3  4  1  0
  3  5  1  0
  5  6  2  0
  6  7  1  0
  7  8  2  0
  8  9  1  0
  8 10  1  0
 10 11  1  0
 10 12  2  0
 12 13  1  0
 12 14  1  0
 14 15  1  0
 14 16  2  0
 16 17  1  0
 17 18  2  0
 17 19  1  0
 19 20  1  0
 20 21  1  0
 20 22  1  0
 20 23  1  0
 23 24  1  0
 23 25  1  0
 25 26  1  0
 25 27  1  0
 25 28  1  0
 28 29  1  0
 28 30  1  0
 28 31  1  0
 31 32  1  0
 31 33  1  0
 31 34  1  0
 34 35  1  0
 34 36  1  0
 34 37  1  0
 37 38  1  0
 37 39  1  0
  2 40  1  0
 40 41  2  0
 41 42  1  0
 41 43  1  0
 43 44  1  0
 43 45  2  0
 45 46  1  0
 45 47  1  0
 47 48  1  0
 48 49  1  0
 49 50  1  0
 49 51  1  0
 49 52  1  0
 47 53  2  0
 53 54  1  0
 19  5  1  0
 37 23  1  0
 53 40  1  0
 16  7  1  0
M  END
>  <UniqueID>  (50) 
73

>  <SMILES>  (50) 
COc1cccc(/C=C/c2nc3ccccc3c(=O)n2CC2CCCCC2)c1

>  <Energy>  (50) 
74.23093219320548

>  <Genealogy>  (50) 
COc1cccc(/C=C/c2nc3ccccc3c(=O)n2CC2CCCCC2)c1 (cis-trans isomerization)
COc1cccc(/C=C/c2nc3ccccc3c(=O)n2CC2CCCCC2)c1 (3D coordinates assigned)
COc1cccc(/C=C/c2nc3ccccc3c(=O)n2CC2CCCCC2)c1 (nonaromatic ring conformer: 74.23093219320548 kcal/mol)

>  <smiles>  (50) 
COc1cccc(/C=C/c2nc3ccccc3c(=O)n2CC2CCCCC2)c1

>  <score_type>  (50) 
oracle

>  <origin>  (50) 
autodockgpu

>  <m_score__min__energy>  (50) 
-7.3499999999999996

>  <m_primary>  (50) 
energy

>  <meeko>  (50) 
{"free_energy": -6.06, "intermolecular_energy": -7.85, "internal_energy": -2.36, "cluster_size": 3, "cluster_id": 11, "rank_in_cluster": 3}

>  <energy>  (50) 
-7.03

>  <cluster_rmsd>  (50) 
1.59

>  <rmsd>  (50) 
270.19

>  <cluster>  (50) 
5

$$$$
SDBQQCBUKDXRSS-CCEZHUSRNA-N
     RDKit          3D

 54 57  0  0  0  0  0  0  0  0999 V2000
  134.8777   70.1749  222.9018 H   0  0  0  0  0  0  0  0  0  0  0  0
  135.5170   70.4810  223.7430 C   0  0  0  0  0  0  0  0  0  0  0  0
  136.8450   70.3740  223.6140 C   0  0  0  0  0  0  0  0  0  0  0  0
  137.3486   69.4623  223.9678 H   0  0  0  0  0  0  0  0  0  0  0  0
  137.6520   71.4590  223.0040 C   0  0  0  0  0  0  0  0  0  0  0  0
  136.9790   72.4510  222.3640 N   0  0  0  0  0  0  0  0  0  0  0  0
  137.6100   73.5220  221.8340 C   0  0  0  0  0  0  0  0  0  0  0  0
  136.8730   74.5200  221.1850 C   0  0  0  0  0  0  0  0  0  0  0  0
  135.7826   74.4185  221.0812 H   0  0  0  0  0  0  0  0  0  0  0  0
  137.5220   75.6450  220.6690 C   0  0  0  0  0  0  0  0  0  0  0  0
  136.9419   76.4282  220.1591 H   0  0  0  0  0  0  0  0  0  0  0  0
  138.9060   75.7760  220.8000 C   0  0  0  0  0  0  0  0  0  0  0  0
  139.4136   76.6657  220.3991 H   0  0  0  0  0  0  0  0  0  0  0  0
  139.6480   74.7780  221.4400 C   0  0  0  0  0  0  0  0  0  0  0  0
  140.7388   74.8822  221.5360 H   0  0  0  0  0  0  0  0  0  0  0  0
  139.0030   73.6400  221.9620 C   0  0  0  0  0  0  0  0  0  0  0  0
  139.7010   72.6050  222.6050 C   0  0  0  0  0  0  0  0  0  0  0  0
  140.9550   72.6980  222.7350 O   0  0  0  0  0  0  0  0  0  0  0  0
  139.0320   71.5020  223.0910 N   0  0  0  0  0  0  0  0  0  0  0  0
  139.8170   70.3780  223.6660 C   0  0  0  0  0  0  0  0  0  0  0  0
  139.3633   69.4327  223.3335 H   0  0  0  0  0  0  0  0  0  0  0  0
  140.8517   70.4966  223.3121 H   0  0  0  0  0  0  0  0  0  0  0  0
  139.8680   70.3770  225.2180 C   0  0  0  0  0  0  0  0  0  0  0  0
  138.8706   70.7306  225.5182 H   0  0  0  0  0  0  0  0  0  0  0  0
  140.0630   68.9680  225.8320 C   0  0  0  0  0  0  0  0  0  0  0  0
  139.1303   68.3993  225.7032 H   0  0  0  0  0  0  0  0  0  0  0  0
  140.9104   68.5002  225.3094 H   0  0  0  0  0  0  0  0  0  0  0  0
  140.4150   68.9980  227.3370 C   0  0  0  0  0  0  0  0  0  0  0  0
  139.8635   68.1919  227.8430 H   0  0  0  0  0  0  0  0  0  0  0  0
  141.5035   68.8657  227.4251 H   0  0  0  0  0  0  0  0  0  0  0  0
  140.0570   70.3290  228.0040 C   0  0  0  0  0  0  0  0  0  0  0  0
  138.9694   70.4801  227.9389 H   0  0  0  0  0  0  0  0  0  0  0  0
  140.3851   70.2880  229.0531 H   0  0  0  0  0  0  0  0  0  0  0  0
  140.7690   71.5140  227.3210 C   0  0  0  0  0  0  0  0  0  0  0  0
  140.1934   72.4290  227.5245 H   0  0  0  0  0  0  0  0  0  0  0  0
  141.7875   71.5583  227.7340 H   0  0  0  0  0  0  0  0  0  0  0  0
  140.9090   71.3560  225.7900 C   0  0  0  0  0  0  0  0  0  0  0  0
  140.7707   72.3392  225.3166 H   0  0  0  0  0  0  0  0  0  0  0  0
  141.9101   70.9522  225.5784 H   0  0  0  0  0  0  0  0  0  0  0  0
  134.8760   70.9950  224.9730 C   0  0  0  0  0  0  0  0  0  0  0  0
  134.5720   70.0970  226.0080 C   0  0  0  0  0  0  0  0  0  0  0  0
  134.8020   69.0277  225.8905 H   0  0  0  0  0  0  0  0  0  0  0  0
  133.9790   70.5550  227.1860 C   0  0  0  0  0  0  0  0  0  0  0  0
  133.7583   69.8478  227.9992 H   0  0  0  0  0  0  0  0  0  0  0  0
  133.6650   71.9070  227.3360 C   0  0  0  0  0  0  0  0  0  0  0  0
  133.2088   72.2616  228.2720 H   0  0  0  0  0  0  0  0  0  0  0  0
  133.9270   72.8140  226.3030 C   0  0  0  0  0  0  0  0  0  0  0  0
  133.5650   74.1570  226.4890 O   0  0  0  0  0  0  0  0  0  0  0  0
  134.2410   75.2610  225.8950 C   0  0  0  0  0  0  0  0  0  0  0  0
  134.6409   75.9141  226.6847 H   0  0  0  0  0  0  0  0  0  0  0  0
  135.0681   74.8918  225.2708 H   0  0  0  0  0  0  0  0  0  0  0  0
  133.5361   75.8298  225.2708 H   0  0  0  0  0  0  0  0  0  0  0  0
  134.5360   72.3540  225.1190 C   0  0  0  0  0  0  0  0  0  0  0  0
  134.7474   73.0608  224.3031 H   0  0  0  0  0  0  0  0  0  0  0  0
  1  2  1  0
  2  3  2  0
  3  4  1  0
  3  5  1  0
  5  6  2  0
  6  7  1  0
  7  8  2  0
  8  9  1  0
  8 10  1  0
 10 11  1  0
 10 12  2  0
 12 13  1  0
 12 14  1  0
 14 15  1  0
 14 16  2  0
 16 17  1  0
 17 18  2  0
 17 19  1  0
 19 20  1  0
 20 21  1  0
 20 22  1  0
 20 23  1  0
 23 24  1  0
 23 25  1  0
 25 26  1  0
 25 27  1  0
 25 28  1  0
 28 29  1  0
 28 30  1  0
 28 31  1  0
 31 32  1  0
 31 33  1  0
 31 34  1  0
 34 35  1  0
 34 36  1  0
 34 37  1  0
 37 38  1  0
 37 39  1  0
  2 40  1  0
 40 41  2  0
 41 42  1  0
 41 43  1  0
 43 44  1  0
 43 45  2  0
 45 46  1  0
 45 47  1  0
 47 48  1  0
 48 49  1  0
 49 50  1  0
 49 51  1  0
 49 52  1  0
 47 53  2  0
 53 54  1  0
 19  5  1  0
 37 23  1  0
 53 40  1  0
 16  7  1  0
M  END
>  <UniqueID>  (51) 
73

>  <SMILES>  (51) 
COc1cccc(/C=C/c2nc3ccccc3c(=O)n2CC2CCCCC2)c1

>  <Energy>  (51) 
74.23093219320548

>  <Genealogy>  (51) 
COc1cccc(/C=C/c2nc3ccccc3c(=O)n2CC2CCCCC2)c1 (cis-trans isomerization)
COc1cccc(/C=C/c2nc3ccccc3c(=O)n2CC2CCCCC2)c1 (3D coordinates assigned)
COc1cccc(/C=C/c2nc3ccccc3c(=O)n2CC2CCCCC2)c1 (nonaromatic ring conformer: 74.23093219320548 kcal/mol)

>  <smiles>  (51) 
COc1cccc(/C=C/c2nc3ccccc3c(=O)n2CC2CCCCC2)c1

>  <score_type>  (51) 
oracle

>  <origin>  (51) 
autodockgpu

>  <m_score__min__energy>  (51) 
-7.3499999999999996

>  <m_primary>  (51) 
energy

>  <meeko>  (51) 
{"free_energy": -7.35, "intermolecular_energy": -9.14, "internal_energy": -1.42, "cluster_size": 1, "cluster_id": 1, "rank_in_cluster": 1}

>  <energy>  (51) 
-7.06

>  <cluster_rmsd>  (51) 
0.0

>  <rmsd>  (51) 
270.23

>  <cluster>  (51) 
6

$$$$
SDBQQCBUKDXRSS-CCEZHUSRNA-N
     RDKit          3D

 54 57  0  0  0  0  0  0  0  0999 V2000
  143.9169   79.9019  222.8717 H   0  0  0  0  0  0  0  0  0  0  0  0
  142.8240   79.8760  222.7500 C   0  0  0  0  0  0  0  0  0  0  0  0
  142.1200   78.9730  223.4440 C   0  0  0  0  0  0  0  0  0  0  0  0
  142.6494   78.2672  224.1010 H   0  0  0  0  0  0  0  0  0  0  0  0
  140.6420   78.9040  223.3460 C   0  0  0  0  0  0  0  0  0  0  0  0
  139.9290   79.8500  224.0110 N   0  0  0  0  0  0  0  0  0  0  0  0
  138.5810   79.9220  223.9320 C   0  0  0  0  0  0  0  0  0  0  0  0
  137.8900   80.9160  224.6350 C   0  0  0  0  0  0  0  0  0  0  0  0
  138.4413   81.6212  225.2744 H   0  0  0  0  0  0  0  0  0  0  0  0
  136.5000   81.0130  224.5250 C   0  0  0  0  0  0  0  0  0  0  0  0
  135.9581   81.7944  225.0779 H   0  0  0  0  0  0  0  0  0  0  0  0
  135.7990   80.1190  223.7140 C   0  0  0  0  0  0  0  0  0  0  0  0
  134.7058   80.2015  223.6234 H   0  0  0  0  0  0  0  0  0  0  0  0
  136.4840   79.1180  223.0160 C   0  0  0  0  0  0  0  0  0  0  0  0
  135.9273   78.4121  222.3821 H   0  0  0  0  0  0  0  0  0  0  0  0
  137.8840   79.0120  223.1230 C   0  0  0  0  0  0  0  0  0  0  0  0
  138.6190   78.0220  222.4510 C   0  0  0  0  0  0  0  0  0  0  0  0
  138.0080   77.1990  221.7120 O   0  0  0  0  0  0  0  0  0  0  0  0
  139.9880   77.9460  222.5920 N   0  0  0  0  0  0  0  0  0  0  0  0
  140.7180   76.8180  221.9550 C   0  0  0  0  0  0  0  0  0  0  0  0
  141.4758   76.4516  222.6632 H   0  0  0  0  0  0  0  0  0  0  0  0
  139.9687   76.0523  221.7057 H   0  0  0  0  0  0  0  0  0  0  0  0
  141.4310   77.2000  220.6300 C   0  0  0  0  0  0  0  0  0  0  0  0
  142.0529   78.0655  220.9024 H   0  0  0  0  0  0  0  0  0  0  0  0
  142.3790   76.0980  220.0950 C   0  0  0  0  0  0  0  0  0  0  0  0
  143.2642   76.0532  220.7465 H   0  0  0  0  0  0  0  0  0  0  0  0
  141.8134   75.1546  220.0963 H   0  0  0  0  0  0  0  0  0  0  0  0
  142.8510   76.3450  218.6430 C   0  0  0  0  0  0  0  0  0  0  0  0
  143.9173   76.0845  218.5710 H   0  0  0  0  0  0  0  0  0  0  0  0
  142.2324   75.7193  217.9829 H   0  0  0  0  0  0  0  0  0  0  0  0
  142.6720   77.7990  218.2000 C   0  0  0  0  0  0  0  0  0  0  0  0
  143.2923   78.4456  218.8381 H   0  0  0  0  0  0  0  0  0  0  0  0
  142.9775   77.8778  217.1462 H   0  0  0  0  0  0  0  0  0  0  0  0
  141.2010   78.2490  218.3110 C   0  0  0  0  0  0  0  0  0  0  0  0
  141.1789   79.3452  218.3998 H   0  0  0  0  0  0  0  0  0  0  0  0
  140.6861   77.8908  217.4074 H   0  0  0  0  0  0  0  0  0  0  0  0
  140.4570   77.6460  219.5240 C   0  0  0  0  0  0  0  0  0  0  0  0
  139.7744   78.4041  219.9355 H   0  0  0  0  0  0  0  0  0  0  0  0
  139.9035   76.7602  219.1790 H   0  0  0  0  0  0  0  0  0  0  0  0
  142.1880   80.8400  221.8260 C   0  0  0  0  0  0  0  0  0  0  0  0
  141.5930   81.9970  222.3540 C   0  0  0  0  0  0  0  0  0  0  0  0
  141.5972   82.1676  223.4407 H   0  0  0  0  0  0  0  0  0  0  0  0
  140.9960   82.9320  221.5060 C   0  0  0  0  0  0  0  0  0  0  0  0
  140.5454   83.8435  221.9257 H   0  0  0  0  0  0  0  0  0  0  0  0
  140.9690   82.7140  220.1270 C   0  0  0  0  0  0  0  0  0  0  0  0
  140.5071   83.4609  219.4646 H   0  0  0  0  0  0  0  0  0  0  0  0
  141.5260   81.5510  219.5820 C   0  0  0  0  0  0  0  0  0  0  0  0
  141.4470   81.3640  218.1940 O   0  0  0  0  0  0  0  0  0  0  0  0
  142.5740   81.3070  217.3250 C   0  0  0  0  0  0  0  0  0  0  0  0
  143.4961   81.2604  217.9230 H   0  0  0  0  0  0  0  0  0  0  0  0
  142.5028   80.4113  216.6904 H   0  0  0  0  0  0  0  0  0  0  0  0
  142.5935   82.2053  216.6904 H   0  0  0  0  0  0  0  0  0  0  0  0
  142.1380   80.6130  220.4370 C   0  0  0  0  0  0  0  0  0  0  0  0
  142.5796   79.6974  220.0168 H   0  0  0  0  0  0  0  0  0  0  0  0
  1  2  1  0
  2  3  2  0
  3  4  1  0
  3  5  1  0
  5  6  2  0
  6  7  1  0
  7  8  2  0
  8  9  1  0
  8 10  1  0
 10 11  1  0
 10 12  2  0
 12 13  1  0
 12 14  1  0
 14 15  1  0
 14 16  2  0
 16 17  1  0
 17 18  2  0
 17 19  1  0
 19 20  1  0
 20 21  1  0
 20 22  1  0
 20 23  1  0
 23 24  1  0
 23 25  1  0
 25 26  1  0
 25 27  1  0
 25 28  1  0
 28 29  1  0
 28 30  1  0
 28 31  1  0
 31 32  1  0
 31 33  1  0
 31 34  1  0
 34 35  1  0
 34 36  1  0
 34 37  1  0
 37 38  1  0
 37 39  1  0
  2 40  1  0
 40 41  2  0
 41 42  1  0
 41 43  1  0
 43 44  1  0
 43 45  2  0
 45 46  1  0
 45 47  1  0
 47 48  1  0
 48 49  1  0
 49 50  1  0
 49 51  1  0
 49 52  1  0
 47 53  2  0
 53 54  1  0
 19  5  1  0
 37 23  1  0
 53 40  1  0
 16  7  1  0
M  END
>  <UniqueID>  (52) 
73

>  <SMILES>  (52) 
COc1cccc(/C=C/c2nc3ccccc3c(=O)n2CC2CCCCC2)c1

>  <Energy>  (52) 
74.23093219320548

>  <Genealogy>  (52) 
COc1cccc(/C=C/c2nc3ccccc3c(=O)n2CC2CCCCC2)c1 (cis-trans isomerization)
COc1cccc(/C=C/c2nc3ccccc3c(=O)n2CC2CCCCC2)c1 (3D coordinates assigned)
COc1cccc(/C=C/c2nc3ccccc3c(=O)n2CC2CCCCC2)c1 (nonaromatic ring conformer: 74.23093219320548 kcal/mol)

>  <smiles>  (52) 
COc1cccc(/C=C/c2nc3ccccc3c(=O)n2CC2CCCCC2)c1

>  <score_type>  (52) 
oracle

>  <origin>  (52) 
autodockgpu

>  <m_score__min__energy>  (52) 
-7.3499999999999996

>  <m_primary>  (52) 
energy

>  <meeko>  (52) 
{"free_energy": -6.09, "intermolecular_energy": -7.88, "internal_energy": -2.37, "cluster_size": 3, "cluster_id": 11, "rank_in_cluster": 2}

>  <energy>  (52) 
-6.86

>  <cluster_rmsd>  (52) 
1.89

>  <rmsd>  (52) 
270.3

>  <cluster>  (52) 
6

$$$$
SDBQQCBUKDXRSS-CCEZHUSRNA-N
     RDKit          3D

 54 57  0  0  0  0  0  0  0  0999 V2000
  141.6123   72.2273  221.8026 H   0  0  0  0  0  0  0  0  0  0  0  0
  140.6600   72.4040  222.3240 C   0  0  0  0  0  0  0  0  0  0  0  0
  139.8570   73.3810  221.8850 C   0  0  0  0  0  0  0  0  0  0  0  0
  138.7833   73.1785  221.7581 H   0  0  0  0  0  0  0  0  0  0  0  0
  140.3830   74.7300  221.5660 C   0  0  0  0  0  0  0  0  0  0  0  0
  139.9750   75.7600  222.3540 N   0  0  0  0  0  0  0  0  0  0  0  0
  140.4470   77.0170  222.1960 C   0  0  0  0  0  0  0  0  0  0  0  0
  139.9970   78.0450  223.0320 C   0  0  0  0  0  0  0  0  0  0  0  0
  139.2371   77.8361  223.7994 H   0  0  0  0  0  0  0  0  0  0  0  0
  140.5120   79.3370  222.8930 C   0  0  0  0  0  0  0  0  0  0  0  0
  140.1576   80.1438  223.5514 H   0  0  0  0  0  0  0  0  0  0  0  0
  141.4760   79.6040  221.9190 C   0  0  0  0  0  0  0  0  0  0  0  0
  141.8845   80.6200  221.8151 H   0  0  0  0  0  0  0  0  0  0  0  0
  141.9240   78.5810  221.0740 C   0  0  0  0  0  0  0  0  0  0  0  0
  142.6804   78.7962  220.3048 H   0  0  0  0  0  0  0  0  0  0  0  0
  141.4080   77.2770  221.2070 C   0  0  0  0  0  0  0  0  0  0  0  0
  141.8160   76.2180  220.3800 C   0  0  0  0  0  0  0  0  0  0  0  0
  142.6860   76.4330  219.4890 O   0  0  0  0  0  0  0  0  0  0  0  0
  141.2780   74.9580  220.5360 N   0  0  0  0  0  0  0  0  0  0  0  0
  141.6510   73.8900  219.5710 C   0  0  0  0  0  0  0  0  0  0  0  0
  140.9864   73.0286  219.7332 H   0  0  0  0  0  0  0  0  0  0  0  0
  141.5470   74.3185  218.5633 H   0  0  0  0  0  0  0  0  0  0  0  0
  143.1200   73.4070  219.7070 C   0  0  0  0  0  0  0  0  0  0  0  0
  143.5860   73.7030  218.7556 H   0  0  0  0  0  0  0  0  0  0  0  0
  143.9030   74.1090  220.8440 C   0  0  0  0  0  0  0  0  0  0  0  0
  144.1037   75.1468  220.5396 H   0  0  0  0  0  0  0  0  0  0  0  0
  143.2799   74.0533  221.7488 H   0  0  0  0  0  0  0  0  0  0  0  0
  145.2500   73.4270  221.1760 C   0  0  0  0  0  0  0  0  0  0  0  0
  146.0056   74.2073  221.3497 H   0  0  0  0  0  0  0  0  0  0  0  0
  145.0944   72.8037  222.0689 H   0  0  0  0  0  0  0  0  0  0  0  0
  145.7430   72.5100  220.0540 C   0  0  0  0  0  0  0  0  0  0  0  0
  145.9189   73.1132  219.1511 H   0  0  0  0  0  0  0  0  0  0  0  0
  146.6717   72.0247  220.3887 H   0  0  0  0  0  0  0  0  0  0  0  0
  144.7130   71.4090  219.7280 C   0  0  0  0  0  0  0  0  0  0  0  0
  144.8882   71.0635  218.6985 H   0  0  0  0  0  0  0  0  0  0  0  0
  144.8530   70.6083  220.4691 H   0  0  0  0  0  0  0  0  0  0  0  0
  143.2450   71.8780  219.8420 C   0  0  0  0  0  0  0  0  0  0  0  0
  142.6561   71.4010  219.0447 H   0  0  0  0  0  0  0  0  0  0  0  0
  142.8711   71.5912  220.8359 H   0  0  0  0  0  0  0  0  0  0  0  0
  140.3150   71.5530  223.4840 C   0  0  0  0  0  0  0  0  0  0  0  0
  139.5580   70.3900  223.2720 C   0  0  0  0  0  0  0  0  0  0  0  0
  139.2233   70.1320  222.2564 H   0  0  0  0  0  0  0  0  0  0  0  0
  139.2280   69.5590  224.3450 C   0  0  0  0  0  0  0  0  0  0  0  0
  138.6477   68.6412  224.1691 H   0  0  0  0  0  0  0  0  0  0  0  0
  139.6320   69.8890  225.6400 C   0  0  0  0  0  0  0  0  0  0  0  0
  139.3783   69.2231  226.4780 H   0  0  0  0  0  0  0  0  0  0  0  0
  140.3580   71.0620  225.8790 C   0  0  0  0  0  0  0  0  0  0  0  0
  140.7150   71.3660  227.2020 O   0  0  0  0  0  0  0  0  0  0  0  0
  139.9810   70.9460  228.3480 C   0  0  0  0  0  0  0  0  0  0  0  0
  140.5163   71.2523  229.2588 H   0  0  0  0  0  0  0  0  0  0  0  0
  138.9838   71.4102  228.3352 H   0  0  0  0  0  0  0  0  0  0  0  0
  139.8760   69.8511  228.3352 H   0  0  0  0  0  0  0  0  0  0  0  0
  140.7000   71.8940  224.7950 C   0  0  0  0  0  0  0  0  0  0  0  0
  141.2718   72.8165  224.9738 H   0  0  0  0  0  0  0  0  0  0  0  0
  1  2  1  0
  2  3  2  0
  3  4  1  0
  3  5  1  0
  5  6  2  0
  6  7  1  0
  7  8  2  0
  8  9  1  0
  8 10  1  0
 10 11  1  0
 10 12  2  0
 12 13  1  0
 12 14  1  0
 14 15  1  0
 14 16  2  0
 16 17  1  0
 17 18  2  0
 17 19  1  0
 19 20  1  0
 20 21  1  0
 20 22  1  0
 20 23  1  0
 23 24  1  0
 23 25  1  0
 25 26  1  0
 25 27  1  0
 25 28  1  0
 28 29  1  0
 28 30  1  0
 28 31  1  0
 31 32  1  0
 31 33  1  0
 31 34  1  0
 34 35  1  0
 34 36  1  0
 34 37  1  0
 37 38  1  0
 37 39  1  0
  2 40  1  0
 40 41  2  0
 41 42  1  0
 41 43  1  0
 43 44  1  0
 43 45  2  0
 45 46  1  0
 45 47  1  0
 47 48  1  0
 48 49  1  0
 49 50  1  0
 49 51  1  0
 49 52  1  0
 47 53  2  0
 53 54  1  0
 19  5  1  0
 37 23  1  0
 53 40  1  0
 16  7  1  0
M  END
>  <UniqueID>  (53) 
73

>  <SMILES>  (53) 
COc1cccc(/C=C/c2nc3ccccc3c(=O)n2CC2CCCCC2)c1

>  <Energy>  (53) 
74.23093219320548

>  <Genealogy>  (53) 
COc1cccc(/C=C/c2nc3ccccc3c(=O)n2CC2CCCCC2)c1 (cis-trans isomerization)
COc1cccc(/C=C/c2nc3ccccc3c(=O)n2CC2CCCCC2)c1 (3D coordinates assigned)
COc1cccc(/C=C/c2nc3ccccc3c(=O)n2CC2CCCCC2)c1 (nonaromatic ring conformer: 74.23093219320548 kcal/mol)

>  <smiles>  (53) 
COc1cccc(/C=C/c2nc3ccccc3c(=O)n2CC2CCCCC2)c1

>  <score_type>  (53) 
oracle

>  <origin>  (53) 
autodockgpu

>  <m_score__min__energy>  (53) 
-7.3499999999999996

>  <m_primary>  (53) 
energy

>  <meeko>  (53) 
{"free_energy": -7.11, "intermolecular_energy": -8.9, "internal_energy": -1.24, "cluster_size": 2, "cluster_id": 4, "rank_in_cluster": 2}

>  <energy>  (53) 
-7.04

>  <cluster_rmsd>  (53) 
0.0

>  <rmsd>  (53) 
270.69

>  <cluster>  (53) 
7

$$$$
SDBQQCBUKDXRSS-CCEZHUSRNA-N
     RDKit          3D

 54 57  0  0  0  0  0  0  0  0999 V2000
  136.2887   69.2460  221.6347 H   0  0  0  0  0  0  0  0  0  0  0  0
  136.6490   69.2350  222.6740 C   0  0  0  0  0  0  0  0  0  0  0  0
  137.8860   68.7870  222.9220 C   0  0  0  0  0  0  0  0  0  0  0  0
  138.3318   68.0380  222.2510 H   0  0  0  0  0  0  0  0  0  0  0  0
  138.6680   69.2790  224.0820 C   0  0  0  0  0  0  0  0  0  0  0  0
  138.8470   68.4220  225.1220 N   0  0  0  0  0  0  0  0  0  0  0  0
  139.6010   68.7430  226.1970 C   0  0  0  0  0  0  0  0  0  0  0  0
  139.7560   67.8260  227.2430 C   0  0  0  0  0  0  0  0  0  0  0  0
  139.2407   66.8550  227.2033 H   0  0  0  0  0  0  0  0  0  0  0  0
  140.5650   68.1430  228.3380 C   0  0  0  0  0  0  0  0  0  0  0  0
  140.6857   67.4213  229.1593 H   0  0  0  0  0  0  0  0  0  0  0  0
  141.2200   69.3750  228.3900 C   0  0  0  0  0  0  0  0  0  0  0  0
  141.8612   69.6201  229.2495 H   0  0  0  0  0  0  0  0  0  0  0  0
  141.0620   70.2990  227.3500 C   0  0  0  0  0  0  0  0  0  0  0  0
  141.5762   71.2703  227.3964 H   0  0  0  0  0  0  0  0  0  0  0  0
  140.2460   69.9880  226.2440 C   0  0  0  0  0  0  0  0  0  0  0  0
  140.0460   70.8810  225.1800 C   0  0  0  0  0  0  0  0  0  0  0  0
  140.6260   72.0040  225.2030 O   0  0  0  0  0  0  0  0  0  0  0  0
  139.2310   70.5430  224.1210 N   0  0  0  0  0  0  0  0  0  0  0  0
  138.9560   71.5560  223.0690 C   0  0  0  0  0  0  0  0  0  0  0  0
  138.2493   71.1220  222.3464 H   0  0  0  0  0  0  0  0  0  0  0  0
  138.5486   72.4423  223.5775 H   0  0  0  0  0  0  0  0  0  0  0  0
  140.2200   72.0200  222.2980 C   0  0  0  0  0  0  0  0  0  0  0  0
  141.0071   72.0400  223.0661 H   0  0  0  0  0  0  0  0  0  0  0  0
  140.6740   71.0310  221.1960 C   0  0  0  0  0  0  0  0  0  0  0  0
  141.1008   70.1408  221.6811 H   0  0  0  0  0  0  0  0  0  0  0  0
  139.7874   70.7908  220.5908 H   0  0  0  0  0  0  0  0  0  0  0  0
  141.7340   71.6220  220.2370 C   0  0  0  0  0  0  0  0  0  0  0  0
  142.4880   70.8491  220.0268 H   0  0  0  0  0  0  0  0  0  0  0  0
  141.2126   71.9418  219.3227 H   0  0  0  0  0  0  0  0  0  0  0  0
  142.4400   72.8490  220.8190 C   0  0  0  0  0  0  0  0  0  0  0  0
  142.9803   72.5515  221.7298 H   0  0  0  0  0  0  0  0  0  0  0  0
  143.1345   73.2388  220.0602 H   0  0  0  0  0  0  0  0  0  0  0  0
  141.4370   73.9650  221.1740 C   0  0  0  0  0  0  0  0  0  0  0  0
  141.8922   74.6101  221.9399 H   0  0  0  0  0  0  0  0  0  0  0  0
  141.2184   74.5084  220.2429 H   0  0  0  0  0  0  0  0  0  0  0  0
  140.0890   73.4400  221.7170 C   0  0  0  0  0  0  0  0  0  0  0  0
  139.7361   74.1173  222.5086 H   0  0  0  0  0  0  0  0  0  0  0  0
  139.3751   73.4026  220.8809 H   0  0  0  0  0  0  0  0  0  0  0  0
  135.7480   69.7160  223.7450 C   0  0  0  0  0  0  0  0  0  0  0  0
  135.6230   71.0970  223.9590 C   0  0  0  0  0  0  0  0  0  0  0  0
  136.1993   71.8014  223.3412 H   0  0  0  0  0  0  0  0  0  0  0  0
  134.7700   71.5810  224.9530 C   0  0  0  0  0  0  0  0  0  0  0  0
  134.6651   72.6654  225.1046 H   0  0  0  0  0  0  0  0  0  0  0  0
  134.0500   70.6940  225.7550 C   0  0  0  0  0  0  0  0  0  0  0  0
  133.3713   71.0838  226.5280 H   0  0  0  0  0  0  0  0  0  0  0  0
  134.1860   69.3120  225.5820 C   0  0  0  0  0  0  0  0  0  0  0  0
  133.4650   68.4600  226.4330 O   0  0  0  0  0  0  0  0  0  0  0  0
  133.4820   67.0390  226.3500 C   0  0  0  0  0  0  0  0  0  0  0  0
  133.4871   66.6125  227.3640 H   0  0  0  0  0  0  0  0  0  0  0  0
  132.5879   66.6925  225.8110 H   0  0  0  0  0  0  0  0  0  0  0  0
  134.3841   66.7140  225.8110 H   0  0  0  0  0  0  0  0  0  0  0  0
  135.0380   68.8240  224.5710 C   0  0  0  0  0  0  0  0  0  0  0  0
  135.1490   67.7392  224.4263 H   0  0  0  0  0  0  0  0  0  0  0  0
  1  2  1  0
  2  3  2  0
  3  4  1  0
  3  5  1  0
  5  6  2  0
  6  7  1  0
  7  8  2  0
  8  9  1  0
  8 10  1  0
 10 11  1  0
 10 12  2  0
 12 13  1  0
 12 14  1  0
 14 15  1  0
 14 16  2  0
 16 17  1  0
 17 18  2  0
 17 19  1  0
 19 20  1  0
 20 21  1  0
 20 22  1  0
 20 23  1  0
 23 24  1  0
 23 25  1  0
 25 26  1  0
 25 27  1  0
 25 28  1  0
 28 29  1  0
 28 30  1  0
 28 31  1  0
 31 32  1  0
 31 33  1  0
 31 34  1  0
 34 35  1  0
 34 36  1  0
 34 37  1  0
 37 38  1  0
 37 39  1  0
  2 40  1  0
 40 41  2  0
 41 42  1  0
 41 43  1  0
 43 44  1  0
 43 45  2  0
 45 46  1  0
 45 47  1  0
 47 48  1  0
 48 49  1  0
 49 50  1  0
 49 51  1  0
 49 52  1  0
 47 53  2  0
 53 54  1  0
 19  5  1  0
 37 23  1  0
 53 40  1  0
 16  7  1  0
M  END
>  <UniqueID>  (54) 
73

>  <SMILES>  (54) 
COc1cccc(/C=C/c2nc3ccccc3c(=O)n2CC2CCCCC2)c1

>  <Energy>  (54) 
74.23093219320548

>  <Genealogy>  (54) 
COc1cccc(/C=C/c2nc3ccccc3c(=O)n2CC2CCCCC2)c1 (cis-trans isomerization)
COc1cccc(/C=C/c2nc3ccccc3c(=O)n2CC2CCCCC2)c1 (3D coordinates assigned)
COc1cccc(/C=C/c2nc3ccccc3c(=O)n2CC2CCCCC2)c1 (nonaromatic ring conformer: 74.23093219320548 kcal/mol)

>  <smiles>  (54) 
COc1cccc(/C=C/c2nc3ccccc3c(=O)n2CC2CCCCC2)c1

>  <score_type>  (54) 
oracle

>  <origin>  (54) 
autodockgpu

>  <m_score__min__energy>  (54) 
-7.3499999999999996

>  <m_primary>  (54) 
energy

>  <meeko>  (54) 
{"free_energy": -7.31, "intermolecular_energy": -9.1, "internal_energy": -1.56, "cluster_size": 3, "cluster_id": 3, "rank_in_cluster": 1}

>  <energy>  (54) 
-6.82

>  <cluster_rmsd>  (54) 
0.0

>  <rmsd>  (54) 
270.73

>  <cluster>  (54) 
8

$$$$
SDBQQCBUKDXRSS-CCEZHUSRNA-N
     RDKit          3D

 54 57  0  0  0  0  0  0  0  0999 V2000
  136.2453   68.6083  221.7567 H   0  0  0  0  0  0  0  0  0  0  0  0
  136.7360   69.0490  222.6370 C   0  0  0  0  0  0  0  0  0  0  0  0
  138.0740   69.0740  222.6840 C   0  0  0  0  0  0  0  0  0  0  0  0
  138.6493   68.7711  221.7967 H   0  0  0  0  0  0  0  0  0  0  0  0
  138.7970   69.5010  223.9060 C   0  0  0  0  0  0  0  0  0  0  0  0
  138.9080   68.5950  224.9130 N   0  0  0  0  0  0  0  0  0  0  0  0
  139.6060   68.8550  226.0410 C   0  0  0  0  0  0  0  0  0  0  0  0
  139.6910   67.8890  227.0510 C   0  0  0  0  0  0  0  0  0  0  0  0
  139.1657   66.9290  226.9392 H   0  0  0  0  0  0  0  0  0  0  0  0
  140.4430   68.1440  228.2010 C   0  0  0  0  0  0  0  0  0  0  0  0
  140.5100   67.3840  228.9934 H   0  0  0  0  0  0  0  0  0  0  0  0
  141.1090   69.3620  228.3450 C   0  0  0  0  0  0  0  0  0  0  0  0
  141.7052   69.5581  229.2484 H   0  0  0  0  0  0  0  0  0  0  0  0
  141.0200   70.3340  227.3430 C   0  0  0  0  0  0  0  0  0  0  0  0
  141.5425   71.2946  227.4627 H   0  0  0  0  0  0  0  0  0  0  0  0
  140.2630   70.0860  226.1810 C   0  0  0  0  0  0  0  0  0  0  0  0
  140.1330   71.0300  225.1500 C   0  0  0  0  0  0  0  0  0  0  0  0
  140.7250   72.1420  225.2560 O   0  0  0  0  0  0  0  0  0  0  0  0
  139.3730   70.7520  224.0340 N   0  0  0  0  0  0  0  0  0  0  0  0
  139.1690   71.8170  223.0160 C   0  0  0  0  0  0  0  0  0  0  0  0
  138.4249   71.4622  222.2878 H   0  0  0  0  0  0  0  0  0  0  0  0
  138.8359   72.7156  223.5560 H   0  0  0  0  0  0  0  0  0  0  0  0
  140.4600   72.2060  222.2460 C   0  0  0  0  0  0  0  0  0  0  0  0
  141.2318   72.2535  223.0283 H   0  0  0  0  0  0  0  0  0  0  0  0
  140.9130   71.1430  221.2140 C   0  0  0  0  0  0  0  0  0  0  0  0
  141.3079   70.2734  221.7598 H   0  0  0  0  0  0  0  0  0  0  0  0
  140.0338   70.8874  220.6043 H   0  0  0  0  0  0  0  0  0  0  0  0
  142.0060   71.6520  220.2470 C   0  0  0  0  0  0  0  0  0  0  0  0
  142.7458   70.8513  220.1002 H   0  0  0  0  0  0  0  0  0  0  0  0
  141.5112   71.9286  219.3043 H   0  0  0  0  0  0  0  0  0  0  0  0
  142.7290   72.8960  220.7700 C   0  0  0  0  0  0  0  0  0  0  0  0
  143.2443   72.6417  221.7080 H   0  0  0  0  0  0  0  0  0  0  0  0
  143.4473   73.2244  220.0044 H   0  0  0  0  0  0  0  0  0  0  0  0
  141.7450   74.0530  221.0370 C   0  0  0  0  0  0  0  0  0  0  0  0
  142.1996   74.7324  221.7730 H   0  0  0  0  0  0  0  0  0  0  0  0
  141.5577   74.5447  220.0710 H   0  0  0  0  0  0  0  0  0  0  0  0
  140.3750   73.5910  221.5810 C   0  0  0  0  0  0  0  0  0  0  0  0
  140.0226   74.3215  222.3241 H   0  0  0  0  0  0  0  0  0  0  0  0
  139.6775   73.5203  220.7333 H   0  0  0  0  0  0  0  0  0  0  0  0
  135.8930   69.5920  223.7250 C   0  0  0  0  0  0  0  0  0  0  0  0
  135.8720   70.9780  223.9420 C   0  0  0  0  0  0  0  0  0  0  0  0
  136.4853   71.6400  223.3130 H   0  0  0  0  0  0  0  0  0  0  0  0
  135.0760   71.5210  224.9530 C   0  0  0  0  0  0  0  0  0  0  0  0
  135.0527   72.6100  225.1068 H   0  0  0  0  0  0  0  0  0  0  0  0
  134.3100   70.6870  225.7690 C   0  0  0  0  0  0  0  0  0  0  0  0
  133.6770   71.1236  226.5556 H   0  0  0  0  0  0  0  0  0  0  0  0
  134.3420   69.2990  225.5930 C   0  0  0  0  0  0  0  0  0  0  0  0
  133.5780   68.5000  226.4570 O   0  0  0  0  0  0  0  0  0  0  0  0
  133.5630   67.0770  226.4330 C   0  0  0  0  0  0  0  0  0  0  0  0
  133.5590   66.6929  227.4638 H   0  0  0  0  0  0  0  0  0  0  0  0
  132.6611   66.7286  225.9083 H   0  0  0  0  0  0  0  0  0  0  0  0
  134.4573   66.7097  225.9083 H   0  0  0  0  0  0  0  0  0  0  0  0
  135.1370   68.7520  224.5660 C   0  0  0  0  0  0  0  0  0  0  0  0
  135.1674   67.6621  224.4201 H   0  0  0  0  0  0  0  0  0  0  0  0
  1  2  1  0
  2  3  2  0
  3  4  1  0
  3  5  1  0
  5  6  2  0
  6  7  1  0
  7  8  2  0
  8  9  1  0
  8 10  1  0
 10 11  1  0
 10 12  2  0
 12 13  1  0
 12 14  1  0
 14 15  1  0
 14 16  2  0
 16 17  1  0
 17 18  2  0
 17 19  1  0
 19 20  1  0
 20 21  1  0
 20 22  1  0
 20 23  1  0
 23 24  1  0
 23 25  1  0
 25 26  1  0
 25 27  1  0
 25 28  1  0
 28 29  1  0
 28 30  1  0
 28 31  1  0
 31 32  1  0
 31 33  1  0
 31 34  1  0
 34 35  1  0
 34 36  1  0
 34 37  1  0
 37 38  1  0
 37 39  1  0
  2 40  1  0
 40 41  2  0
 41 42  1  0
 41 43  1  0
 43 44  1  0
 43 45  2  0
 45 46  1  0
 45 47  1  0
 47 48  1  0
 48 49  1  0
 49 50  1  0
 49 51  1  0
 49 52  1  0
 47 53  2  0
 53 54  1  0
 19  5  1  0
 37 23  1  0
 53 40  1  0
 16  7  1  0
M  END
>  <UniqueID>  (55) 
73

>  <SMILES>  (55) 
COc1cccc(/C=C/c2nc3ccccc3c(=O)n2CC2CCCCC2)c1

>  <Energy>  (55) 
74.23093219320548

>  <Genealogy>  (55) 
COc1cccc(/C=C/c2nc3ccccc3c(=O)n2CC2CCCCC2)c1 (cis-trans isomerization)
COc1cccc(/C=C/c2nc3ccccc3c(=O)n2CC2CCCCC2)c1 (3D coordinates assigned)
COc1cccc(/C=C/c2nc3ccccc3c(=O)n2CC2CCCCC2)c1 (nonaromatic ring conformer: 74.23093219320548 kcal/mol)

>  <smiles>  (55) 
COc1cccc(/C=C/c2nc3ccccc3c(=O)n2CC2CCCCC2)c1

>  <score_type>  (55) 
oracle

>  <origin>  (55) 
autodockgpu

>  <m_score__min__energy>  (55) 
-7.3499999999999996

>  <m_primary>  (55) 
energy

>  <meeko>  (55) 
{"free_energy": -7.11, "intermolecular_energy": -8.9, "internal_energy": -1.62, "cluster_size": 3, "cluster_id": 3, "rank_in_cluster": 2}

>  <energy>  (55) 
-6.65

>  <cluster_rmsd>  (55) 
0.0

>  <rmsd>  (55) 
270.99

>  <cluster>  (55) 
9

$$$$
SDBQQCBUKDXRSS-CCEZHUSRNA-N
     RDKit          3D

 54 57  0  0  0  0  0  0  0  0999 V2000
  139.2740   73.9313  222.6622 H   0  0  0  0  0  0  0  0  0  0  0  0
  139.7280   72.9960  222.3030 C   0  0  0  0  0  0  0  0  0  0  0  0
  139.0900   71.8420  222.5310 C   0  0  0  0  0  0  0  0  0  0  0  0
  138.3190   71.5039  221.8231 H   0  0  0  0  0  0  0  0  0  0  0  0
  139.4010   71.0090  223.7190 C   0  0  0  0  0  0  0  0  0  0  0  0
  140.0150   71.6210  224.7660 N   0  0  0  0  0  0  0  0  0  0  0  0
  140.2800   70.9740  225.9220 C   0  0  0  0  0  0  0  0  0  0  0  0
  140.9140   71.6470  226.9730 C   0  0  0  0  0  0  0  0  0  0  0  0
  141.2228   72.6953  226.8474 H   0  0  0  0  0  0  0  0  0  0  0  0
  141.1550   70.9880  228.1820 C   0  0  0  0  0  0  0  0  0  0  0  0
  141.6524   71.5185  229.0073 H   0  0  0  0  0  0  0  0  0  0  0  0
  140.7650   69.6570  228.3430 C   0  0  0  0  0  0  0  0  0  0  0  0
  140.9510   69.1420  229.2970 H   0  0  0  0  0  0  0  0  0  0  0  0
  140.1380   68.9770  227.2930 C   0  0  0  0  0  0  0  0  0  0  0  0
  139.8357   67.9273  227.4223 H   0  0  0  0  0  0  0  0  0  0  0  0
  139.8930   69.6330  226.0710 C   0  0  0  0  0  0  0  0  0  0  0  0
  139.2760   68.9940  224.9820 C   0  0  0  0  0  0  0  0  0  0  0  0
  138.9140   67.7890  225.1020 O   0  0  0  0  0  0  0  0  0  0  0  0
  139.0650   69.6690  223.7990 N   0  0  0  0  0  0  0  0  0  0  0  0
  138.5110   68.9290  222.6350 C   0  0  0  0  0  0  0  0  0  0  0  0
  138.0285   68.0123  223.0049 H   0  0  0  0  0  0  0  0  0  0  0  0
  137.8031   69.6054  222.1336 H   0  0  0  0  0  0  0  0  0  0  0  0
  139.5770   68.5290  221.5800 C   0  0  0  0  0  0  0  0  0  0  0  0
  140.5347   68.6887  222.0970 H   0  0  0  0  0  0  0  0  0  0  0  0
  139.5170   67.0370  221.1690 C   0  0  0  0  0  0  0  0  0  0  0  0
  139.8870   66.4294  222.0080 H   0  0  0  0  0  0  0  0  0  0  0  0
  138.4694   66.8111  220.9211 H   0  0  0  0  0  0  0  0  0  0  0  0
  140.3620   66.7090  219.9170 C   0  0  0  0  0  0  0  0  0  0  0  0
  140.8713   65.7475  220.0787 H   0  0  0  0  0  0  0  0  0  0  0  0
  139.6776   66.6686  219.0568 H   0  0  0  0  0  0  0  0  0  0  0  0
  141.4170   67.7770  219.6170 C   0  0  0  0  0  0  0  0  0  0  0  0
  142.1227   67.8286  220.4592 H   0  0  0  0  0  0  0  0  0  0  0  0
  141.9353   67.4981  218.6877 H   0  0  0  0  0  0  0  0  0  0  0  0
  140.7760   69.1650  219.4150 C   0  0  0  0  0  0  0  0  0  0  0  0
  141.5365   69.9322  219.6225 H   0  0  0  0  0  0  0  0  0  0  0  0
  140.4131   69.2033  218.3773 H   0  0  0  0  0  0  0  0  0  0  0  0
  139.5580   69.4260  220.3290 C   0  0  0  0  0  0  0  0  0  0  0  0
  139.5705   70.4792  220.6462 H   0  0  0  0  0  0  0  0  0  0  0  0
  138.6469   69.1951  219.7575 H   0  0  0  0  0  0  0  0  0  0  0  0
  141.0210   73.0620  221.5860 C   0  0  0  0  0  0  0  0  0  0  0  0
  141.8300   71.9160  221.5360 C   0  0  0  0  0  0  0  0  0  0  0  0
  141.5022   70.9920  222.0347 H   0  0  0  0  0  0  0  0  0  0  0  0
  143.0490   71.9440  220.8560 C   0  0  0  0  0  0  0  0  0  0  0  0
  143.6705   71.0377  220.8078 H   0  0  0  0  0  0  0  0  0  0  0  0
  143.4820   73.1180  220.2370 C   0  0  0  0  0  0  0  0  0  0  0  0
  144.4383   73.1282  219.6936 H   0  0  0  0  0  0  0  0  0  0  0  0
  142.7080   74.2820  220.3030 C   0  0  0  0  0  0  0  0  0  0  0  0
  143.2000   75.4440  219.6910 O   0  0  0  0  0  0  0  0  0  0  0  0
  142.5790   76.7230  219.7780 C   0  0  0  0  0  0  0  0  0  0  0  0
  142.4468   76.9952  220.8356 H   0  0  0  0  0  0  0  0  0  0  0  0
  143.2133   77.4730  219.2828 H   0  0  0  0  0  0  0  0  0  0  0  0
  141.5974   76.6884  219.2828 H   0  0  0  0  0  0  0  0  0  0  0  0
  141.4730   74.2510  220.9800 C   0  0  0  0  0  0  0  0  0  0  0  0
  140.8575   75.1610  221.0359 H   0  0  0  0  0  0  0  0  0  0  0  0
  1  2  1  0
  2  3  2  0
  3  4  1  0
  3  5  1  0
  5  6  2  0
  6  7  1  0
  7  8  2  0
  8  9  1  0
  8 10  1  0
 10 11  1  0
 10 12  2  0
 12 13  1  0
 12 14  1  0
 14 15  1  0
 14 16  2  0
 16 17  1  0
 17 18  2  0
 17 19  1  0
 19 20  1  0
 20 21  1  0
 20 22  1  0
 20 23  1  0
 23 24  1  0
 23 25  1  0
 25 26  1  0
 25 27  1  0
 25 28  1  0
 28 29  1  0
 28 30  1  0
 28 31  1  0
 31 32  1  0
 31 33  1  0
 31 34  1  0
 34 35  1  0
 34 36  1  0
 34 37  1  0
 37 38  1  0
 37 39  1  0
  2 40  1  0
 40 41  2  0
 41 42  1  0
 41 43  1  0
 43 44  1  0
 43 45  2  0
 45 46  1  0
 45 47  1  0
 47 48  1  0
 48 49  1  0
 49 50  1  0
 49 51  1  0
 49 52  1  0
 47 53  2  0
 53 54  1  0
 19  5  1  0
 37 23  1  0
 53 40  1  0
 16  7  1  0
M  END
>  <UniqueID>  (56) 
73

>  <SMILES>  (56) 
COc1cccc(/C=C/c2nc3ccccc3c(=O)n2CC2CCCCC2)c1

>  <Energy>  (56) 
74.23093219320548

>  <Genealogy>  (56) 
COc1cccc(/C=C/c2nc3ccccc3c(=O)n2CC2CCCCC2)c1 (cis-trans isomerization)
COc1cccc(/C=C/c2nc3ccccc3c(=O)n2CC2CCCCC2)c1 (3D coordinates assigned)
COc1cccc(/C=C/c2nc3ccccc3c(=O)n2CC2CCCCC2)c1 (nonaromatic ring conformer: 74.23093219320548 kcal/mol)

>  <smiles>  (56) 
COc1cccc(/C=C/c2nc3ccccc3c(=O)n2CC2CCCCC2)c1

>  <score_type>  (56) 
oracle

>  <origin>  (56) 
autodockgpu

>  <m_score__min__energy>  (56) 
-7.3499999999999996

>  <m_primary>  (56) 
energy

>  <meeko>  (56) 
{"free_energy": -6.86, "intermolecular_energy": -8.65, "internal_energy": -1.68, "cluster_size": 2, "cluster_id": 6, "rank_in_cluster": 2}

>  <energy>  (56) 
-6.62

>  <cluster_rmsd>  (56) 
0.0

>  <rmsd>  (56) 
271.85

>  <cluster>  (56) 
10

$$$$
SDBQQCBUKDXRSS-CCEZHUSRNA-N
     RDKit          3D

 54 57  0  0  0  0  0  0  0  0999 V2000
  140.8285   73.6458  221.9936 H   0  0  0  0  0  0  0  0  0  0  0  0
  140.8400   72.5680  221.7740 C   0  0  0  0  0  0  0  0  0  0  0  0
  139.8350   71.8080  222.2260 C   0  0  0  0  0  0  0  0  0  0  0  0
  138.9010   71.7511  221.6477 H   0  0  0  0  0  0  0  0  0  0  0  0
  139.9540   71.0410  223.4900 C   0  0  0  0  0  0  0  0  0  0  0  0
  140.4340   71.7020  224.5760 N   0  0  0  0  0  0  0  0  0  0  0  0
  140.5170   71.1200  225.7930 C   0  0  0  0  0  0  0  0  0  0  0  0
  141.0170   71.8420  226.8830 C   0  0  0  0  0  0  0  0  0  0  0  0
  141.3693   72.8746  226.7431 H   0  0  0  0  0  0  0  0  0  0  0  0
  141.0690   71.2520  228.1490 C   0  0  0  0  0  0  0  0  0  0  0  0
  141.4615   71.8208  229.0048 H   0  0  0  0  0  0  0  0  0  0  0  0
  140.6230   69.9410  228.3280 C   0  0  0  0  0  0  0  0  0  0  0  0
  140.6595   69.4805  229.3263 H   0  0  0  0  0  0  0  0  0  0  0  0
  140.1300   69.2120  227.2410 C   0  0  0  0  0  0  0  0  0  0  0  0
  139.7841   68.1779  227.3859 H   0  0  0  0  0  0  0  0  0  0  0  0
  140.0750   69.7980  225.9610 C   0  0  0  0  0  0  0  0  0  0  0  0
  139.5980   69.1090  224.8350 C   0  0  0  0  0  0  0  0  0  0  0  0
  139.1900   67.9200  224.9700 O   0  0  0  0  0  0  0  0  0  0  0  0
  139.5730   69.7150  223.5970 N   0  0  0  0  0  0  0  0  0  0  0  0
  139.1650   68.9180  222.4110 C   0  0  0  0  0  0  0  0  0  0  0  0
  139.5972   69.3857  221.5141 H   0  0  0  0  0  0  0  0  0  0  0  0
  139.5330   67.8941  222.5725 H   0  0  0  0  0  0  0  0  0  0  0  0
  137.6280   68.8190  222.2180 C   0  0  0  0  0  0  0  0  0  0  0  0
  137.4277   69.4537  221.3422 H   0  0  0  0  0  0  0  0  0  0  0  0
  137.1360   67.3900  221.8770 C   0  0  0  0  0  0  0  0  0  0  0  0
  137.4422   67.1523  220.8476 H   0  0  0  0  0  0  0  0  0  0  0  0
  137.5861   66.7075  222.6130 H   0  0  0  0  0  0  0  0  0  0  0  0
  135.6020   67.2270  221.9820 C   0  0  0  0  0  0  0  0  0  0  0  0
  135.2553   66.6119  221.1385 H   0  0  0  0  0  0  0  0  0  0  0  0
  135.3849   66.7516  222.9499 H   0  0  0  0  0  0  0  0  0  0  0  0
  134.8600   68.5650  221.9490 C   0  0  0  0  0  0  0  0  0  0  0  0
  135.0511   69.0553  220.9830 H   0  0  0  0  0  0  0  0  0  0  0  0
  133.7865   68.3662  222.0835 H   0  0  0  0  0  0  0  0  0  0  0  0
  135.3230   69.5000  223.0850 C   0  0  0  0  0  0  0  0  0  0  0  0
  135.1078   70.5378  222.7905 H   0  0  0  0  0  0  0  0  0  0  0  0
  134.7771   69.2001  223.9917 H   0  0  0  0  0  0  0  0  0  0  0  0
  136.8310   69.3860  223.4060 C   0  0  0  0  0  0  0  0  0  0  0  0
  137.2194   70.3857  223.6504 H   0  0  0  0  0  0  0  0  0  0  0  0
  136.9481   68.6972  224.2556 H   0  0  0  0  0  0  0  0  0  0  0  0
  141.9660   72.0130  220.9900 C   0  0  0  0  0  0  0  0  0  0  0  0
  141.8240   70.7490  220.3960 C   0  0  0  0  0  0  0  0  0  0  0  0
  140.8892   70.1842  220.5269 H   0  0  0  0  0  0  0  0  0  0  0  0
  142.8640   70.2060  219.6400 C   0  0  0  0  0  0  0  0  0  0  0  0
  142.7399   69.2216  219.1651 H   0  0  0  0  0  0  0  0  0  0  0  0
  144.0610   70.9070  219.4840 C   0  0  0  0  0  0  0  0  0  0  0  0
  144.8707   70.4767  218.8764 H   0  0  0  0  0  0  0  0  0  0  0  0
  144.2380   72.1530  220.0950 C   0  0  0  0  0  0  0  0  0  0  0  0
  145.4700   72.8050  219.9340 O   0  0  0  0  0  0  0  0  0  0  0  0
  146.0160   73.7320  220.8670 C   0  0  0  0  0  0  0  0  0  0  0  0
  145.8118   73.3852  221.8907 H   0  0  0  0  0  0  0  0  0  0  0  0
  147.1029   73.8076  220.7155 H   0  0  0  0  0  0  0  0  0  0  0  0
  145.5551   74.7192  220.7155 H   0  0  0  0  0  0  0  0  0  0  0  0
  143.1840   72.7070  220.8490 C   0  0  0  0  0  0  0  0  0  0  0  0
  143.3132   73.6876  221.3305 H   0  0  0  0  0  0  0  0  0  0  0  0
  1  2  1  0
  2  3  2  0
  3  4  1  0
  3  5  1  0
  5  6  2  0
  6  7  1  0
  7  8  2  0
  8  9  1  0
  8 10  1  0
 10 11  1  0
 10 12  2  0
 12 13  1  0
 12 14  1  0
 14 15  1  0
 14 16  2  0
 16 17  1  0
 17 18  2  0
 17 19  1  0
 19 20  1  0
 20 21  1  0
 20 22  1  0
 20 23  1  0
 23 24  1  0
 23 25  1  0
 25 26  1  0
 25 27  1  0
 25 28  1  0
 28 29  1  0
 28 30  1  0
 28 31  1  0
 31 32  1  0
 31 33  1  0
 31 34  1  0
 34 35  1  0
 34 36  1  0
 34 37  1  0
 37 38  1  0
 37 39  1  0
  2 40  1  0
 40 41  2  0
 41 42  1  0
 41 43  1  0
 43 44  1  0
 43 45  2  0
 45 46  1  0
 45 47  1  0
 47 48  1  0
 48 49  1  0
 49 50  1  0
 49 51  1  0
 49 52  1  0
 47 53  2  0
 53 54  1  0
 19  5  1  0
 37 23  1  0
 53 40  1  0
 16  7  1  0
M  END
>  <UniqueID>  (57) 
73

>  <SMILES>  (57) 
COc1cccc(/C=C/c2nc3ccccc3c(=O)n2CC2CCCCC2)c1

>  <Energy>  (57) 
74.23093219320548

>  <Genealogy>  (57) 
COc1cccc(/C=C/c2nc3ccccc3c(=O)n2CC2CCCCC2)c1 (cis-trans isomerization)
COc1cccc(/C=C/c2nc3ccccc3c(=O)n2CC2CCCCC2)c1 (3D coordinates assigned)
COc1cccc(/C=C/c2nc3ccccc3c(=O)n2CC2CCCCC2)c1 (nonaromatic ring conformer: 74.23093219320548 kcal/mol)

>  <smiles>  (57) 
COc1cccc(/C=C/c2nc3ccccc3c(=O)n2CC2CCCCC2)c1

>  <score_type>  (57) 
oracle

>  <origin>  (57) 
autodockgpu

>  <m_score__min__energy>  (57) 
-7.3499999999999996

>  <m_primary>  (57) 
energy

>  <meeko>  (57) 
{"free_energy": -7.06, "intermolecular_energy": -8.85, "internal_energy": -1.35, "cluster_size": 2, "cluster_id": 6, "rank_in_cluster": 1}

>  <energy>  (57) 
-6.4

>  <cluster_rmsd>  (57) 
0.71

>  <rmsd>  (57) 
271.62

>  <cluster>  (57) 
10

$$$$
SDBQQCBUKDXRSS-CCEZHUSRNA-N
     RDKit          3D

 54 57  0  0  0  0  0  0  0  0999 V2000
  143.7784   80.0483  223.2490 H   0  0  0  0  0  0  0  0  0  0  0  0
  142.7320   79.8960  222.9460 C   0  0  0  0  0  0  0  0  0  0  0  0
  142.0490   78.8760  223.4800 C   0  0  0  0  0  0  0  0  0  0  0  0
  142.5958   78.0769  224.0020 H   0  0  0  0  0  0  0  0  0  0  0  0
  140.5710   78.8000  223.3830 C   0  0  0  0  0  0  0  0  0  0  0  0
  139.8560   79.7910  223.9770 N   0  0  0  0  0  0  0  0  0  0  0  0
  138.5090   79.8570  223.8900 C   0  0  0  0  0  0  0  0  0  0  0  0
  137.8160   80.8990  224.5180 C   0  0  0  0  0  0  0  0  0  0  0  0
  138.3658   81.6483  225.1065 H   0  0  0  0  0  0  0  0  0  0  0  0
  136.4270   80.9880  224.3980 C   0  0  0  0  0  0  0  0  0  0  0  0
  135.8841   81.8071  224.8923 H   0  0  0  0  0  0  0  0  0  0  0  0
  135.7270   80.0380  223.6510 C   0  0  0  0  0  0  0  0  0  0  0  0
  134.6341   80.1136  223.5522 H   0  0  0  0  0  0  0  0  0  0  0  0
  136.4140   78.9900  223.0280 C   0  0  0  0  0  0  0  0  0  0  0  0
  135.8587   78.2404  222.4451 H   0  0  0  0  0  0  0  0  0  0  0  0
  137.8140   78.8920  223.1450 C   0  0  0  0  0  0  0  0  0  0  0  0
  138.5510   77.8560  222.5480 C   0  0  0  0  0  0  0  0  0  0  0  0
  137.9410   76.9830  221.8680 O   0  0  0  0  0  0  0  0  0  0  0  0
  139.9190   77.7900  222.6970 N   0  0  0  0  0  0  0  0  0  0  0  0
  140.6500   76.6200  222.1440 C   0  0  0  0  0  0  0  0  0  0  0  0
  141.3635   76.2669  222.9031 H   0  0  0  0  0  0  0  0  0  0  0  0
  139.8943   75.8620  221.8901 H   0  0  0  0  0  0  0  0  0  0  0  0
  141.4350   76.9280  220.8410 C   0  0  0  0  0  0  0  0  0  0  0  0
  142.1692   77.6880  221.1466 H   0  0  0  0  0  0  0  0  0  0  0  0
  142.2260   75.7160  220.2900 C   0  0  0  0  0  0  0  0  0  0  0  0
  143.0837   75.5292  220.9529 H   0  0  0  0  0  0  0  0  0  0  0  0
  141.5314   74.8636  220.2571 H   0  0  0  0  0  0  0  0  0  0  0  0
  142.7550   75.9280  218.8530 C   0  0  0  0  0  0  0  0  0  0  0  0
  143.7745   75.5197  218.7899 H   0  0  0  0  0  0  0  0  0  0  0  0
  142.0662   75.4132  218.1670 H   0  0  0  0  0  0  0  0  0  0  0  0
  142.7930   77.4030  218.4470 C   0  0  0  0  0  0  0  0  0  0  0  0
  143.4871   77.9383  219.1116 H   0  0  0  0  0  0  0  0  0  0  0  0
  143.1259   77.4631  217.4003 H   0  0  0  0  0  0  0  0  0  0  0  0
  141.4000   78.0560  218.5480 C   0  0  0  0  0  0  0  0  0  0  0  0
  141.5330   79.1415  218.6661 H   0  0  0  0  0  0  0  0  0  0  0  0
  140.8562   77.7977  217.6274 H   0  0  0  0  0  0  0  0  0  0  0  0
  140.5550   77.5360  219.7330 C   0  0  0  0  0  0  0  0  0  0  0  0
  139.9800   78.3736  220.1547 H   0  0  0  0  0  0  0  0  0  0  0  0
  139.8872   76.7474  219.3561 H   0  0  0  0  0  0  0  0  0  0  0  0
  142.1330   80.8260  221.9640 C   0  0  0  0  0  0  0  0  0  0  0  0
  141.5490   82.0170  222.4220 C   0  0  0  0  0  0  0  0  0  0  0  0
  141.5340   82.2401  223.4990 H   0  0  0  0  0  0  0  0  0  0  0  0
  140.9870   82.9200  221.5180 C   0  0  0  0  0  0  0  0  0  0  0  0
  140.5443   83.8582  221.8838 H   0  0  0  0  0  0  0  0  0  0  0  0
  140.9850   82.6360  220.1510 C   0  0  0  0  0  0  0  0  0  0  0  0
  140.5521   83.3588  219.4438 H   0  0  0  0  0  0  0  0  0  0  0  0
  141.5300   81.4380  219.6740 C   0  0  0  0  0  0  0  0  0  0  0  0
  141.4760   81.1850  218.2950 O   0  0  0  0  0  0  0  0  0  0  0  0
  142.6190   81.0600  217.4560 C   0  0  0  0  0  0  0  0  0  0  0  0
  143.5211   80.9613  218.0776 H   0  0  0  0  0  0  0  0  0  0  0  0
  142.5120   80.1682  216.8210 H   0  0  0  0  0  0  0  0  0  0  0  0
  142.7072   81.9538  216.8210 H   0  0  0  0  0  0  0  0  0  0  0  0
  142.1070   80.5330  220.5860 C   0  0  0  0  0  0  0  0  0  0  0  0
  142.5405   79.5906  220.2199 H   0  0  0  0  0  0  0  0  0  0  0  0
  1  2  1  0
  2  3  2  0
  3  4  1  0
  3  5  1  0
  5  6  2  0
  6  7  1  0
  7  8  2  0
  8  9  1  0
  8 10  1  0
 10 11  1  0
 10 12  2  0
 12 13  1  0
 12 14  1  0
 14 15  1  0
 14 16  2  0
 16 17  1  0
 17 18  2  0
 17 19  1  0
 19 20  1  0
 20 21  1  0
 20 22  1  0
 20 23  1  0
 23 24  1  0
 23 25  1  0
 25 26  1  0
 25 27  1  0
 25 28  1  0
 28 29  1  0
 28 30  1  0
 28 31  1  0
 31 32  1  0
 31 33  1  0
 31 34  1  0
 34 35  1  0
 34 36  1  0
 34 37  1  0
 37 38  1  0
 37 39  1  0
  2 40  1  0
 40 41  2  0
 41 42  1  0
 41 43  1  0
 43 44  1  0
 43 45  2  0
 45 46  1  0
 45 47  1  0
 47 48  1  0
 48 49  1  0
 49 50  1  0
 49 51  1  0
 49 52  1  0
 47 53  2  0
 53 54  1  0
 19  5  1  0
 37 23  1  0
 53 40  1  0
 16  7  1  0
M  END
>  <UniqueID>  (58) 
73

>  <SMILES>  (58) 
COc1cccc(/C=C/c2nc3ccccc3c(=O)n2CC2CCCCC2)c1

>  <Energy>  (58) 
74.23093219320548

>  <Genealogy>  (58) 
COc1cccc(/C=C/c2nc3ccccc3c(=O)n2CC2CCCCC2)c1 (cis-trans isomerization)
COc1cccc(/C=C/c2nc3ccccc3c(=O)n2CC2CCCCC2)c1 (3D coordinates assigned)
COc1cccc(/C=C/c2nc3ccccc3c(=O)n2CC2CCCCC2)c1 (nonaromatic ring conformer: 74.23093219320548 kcal/mol)

>  <smiles>  (58) 
COc1cccc(/C=C/c2nc3ccccc3c(=O)n2CC2CCCCC2)c1

>  <score_type>  (58) 
oracle

>  <origin>  (58) 
autodockgpu

>  <m_score__min__energy>  (58) 
-7.3499999999999996

>  <m_primary>  (58) 
energy

>  <meeko>  (58) 
{"free_energy": -6.12, "intermolecular_energy": -7.91, "internal_energy": -2.3, "cluster_size": 3, "cluster_id": 11, "rank_in_cluster": 1}

>  <energy>  (58) 
-6.12

>  <cluster_rmsd>  (58) 
0.0

>  <rmsd>  (58) 
271.5

>  <cluster>  (58) 
11

$$$$
SDBQQCBUKDXRSS-CCEZHUSRNA-N
     RDKit          3D

 54 57  0  0  0  0  0  0  0  0999 V2000
  141.5279   74.2491  218.3365 H   0  0  0  0  0  0  0  0  0  0  0  0
  142.2760   74.9220  218.7810 C   0  0  0  0  0  0  0  0  0  0  0  0
  142.0040   76.2310  218.8510 C   0  0  0  0  0  0  0  0  0  0  0  0
  142.1242   76.8547  217.9529 H   0  0  0  0  0  0  0  0  0  0  0  0
  141.5440   76.8580  220.1140 C   0  0  0  0  0  0  0  0  0  0  0  0
  142.2230   77.9520  220.5500 N   0  0  0  0  0  0  0  0  0  0  0  0
  141.8450   78.6410  221.6490 C   0  0  0  0  0  0  0  0  0  0  0  0
  142.5760   79.7630  222.0590 C   0  0  0  0  0  0  0  0  0  0  0  0
  143.4749   80.0665  221.5023 H   0  0  0  0  0  0  0  0  0  0  0  0
  142.1650   80.4970  223.1740 C   0  0  0  0  0  0  0  0  0  0  0  0
  142.7400   81.3785  223.4939 H   0  0  0  0  0  0  0  0  0  0  0  0
  141.0250   80.1130  223.8830 C   0  0  0  0  0  0  0  0  0  0  0  0
  140.6997   80.6959  224.7573 H   0  0  0  0  0  0  0  0  0  0  0  0
  140.2960   78.9880  223.4830 C   0  0  0  0  0  0  0  0  0  0  0  0
  139.4011   78.6858  224.0468 H   0  0  0  0  0  0  0  0  0  0  0  0
  140.7040   78.2410  222.3610 C   0  0  0  0  0  0  0  0  0  0  0  0
  140.0140   77.1000  221.9230 C   0  0  0  0  0  0  0  0  0  0  0  0
  138.9790   76.7300  222.5480 O   0  0  0  0  0  0  0  0  0  0  0  0
  140.4540   76.3900  220.8260 N   0  0  0  0  0  0  0  0  0  0  0  0
  139.7630   75.1260  220.4600 C   0  0  0  0  0  0  0  0  0  0  0  0
  138.6808   75.3203  220.4256 H   0  0  0  0  0  0  0  0  0  0  0  0
  140.1668   74.8117  219.4862 H   0  0  0  0  0  0  0  0  0  0  0  0
  140.0190   73.9590  221.4520 C   0  0  0  0  0  0  0  0  0  0  0  0
  140.5066   74.4421  222.3116 H   0  0  0  0  0  0  0  0  0  0  0  0
  138.7230   73.2900  221.9720 C   0  0  0  0  0  0  0  0  0  0  0  0
  138.2265   73.9844  222.6657 H   0  0  0  0  0  0  0  0  0  0  0  0
  138.1005   73.0627  221.0940 H   0  0  0  0  0  0  0  0  0  0  0  0
  138.9740   71.9550  222.7110 C   0  0  0  0  0  0  0  0  0  0  0  0
  138.3188   71.9132  223.5936 H   0  0  0  0  0  0  0  0  0  0  0  0
  138.7591   71.1397  222.0046 H   0  0  0  0  0  0  0  0  0  0  0  0
  140.4250   71.7960  223.1710 C   0  0  0  0  0  0  0  0  0  0  0  0
  140.6608   72.5940  223.8904 H   0  0  0  0  0  0  0  0  0  0  0  0
  140.5320   70.8044  223.6349 H   0  0  0  0  0  0  0  0  0  0  0  0
  141.4090   71.8830  221.9870 C   0  0  0  0  0  0  0  0  0  0  0  0
  142.3932   72.1849  222.3746 H   0  0  0  0  0  0  0  0  0  0  0  0
  141.4313   70.8904  221.5136 H   0  0  0  0  0  0  0  0  0  0  0  0
  140.9820   72.8940  220.8980 C   0  0  0  0  0  0  0  0  0  0  0  0
  141.8794   73.3950  220.5059 H   0  0  0  0  0  0  0  0  0  0  0  0
  140.4591   72.3405  220.1041 H   0  0  0  0  0  0  0  0  0  0  0  0
  143.5450   74.3460  219.2790 C   0  0  0  0  0  0  0  0  0  0  0  0
  144.2070   74.9780  220.3430 C   0  0  0  0  0  0  0  0  0  0  0  0
  143.7847   75.8926  220.7848 H   0  0  0  0  0  0  0  0  0  0  0  0
  145.3990   74.4510  220.8430 C   0  0  0  0  0  0  0  0  0  0  0  0
  145.9045   74.9434  221.6868 H   0  0  0  0  0  0  0  0  0  0  0  0
  145.9520   73.3010  220.2760 C   0  0  0  0  0  0  0  0  0  0  0  0
  146.8850   72.8851  220.6840 H   0  0  0  0  0  0  0  0  0  0  0  0
  145.3270   72.6740  219.1920 C   0  0  0  0  0  0  0  0  0  0  0  0
  145.9380   71.5390  218.6370 O   0  0  0  0  0  0  0  0  0  0  0  0
  145.4700   70.2070  218.8160 C   0  0  0  0  0  0  0  0  0  0  0  0
  145.3927   69.9869  219.8910 H   0  0  0  0  0  0  0  0  0  0  0  0
  144.4804   70.1000  218.3477 H   0  0  0  0  0  0  0  0  0  0  0  0
  146.1752   69.5046  218.3477 H   0  0  0  0  0  0  0  0  0  0  0  0
  144.1180   73.2000  218.6940 C   0  0  0  0  0  0  0  0  0  0  0  0
  143.6189   72.7127  217.8434 H   0  0  0  0  0  0  0  0  0  0  0  0
  1  2  1  0
  2  3  2  0
  3  4  1  0
  3  5  1  0
  5  6  2  0
  6  7  1  0
  7  8  2  0
  8  9  1  0
  8 10  1  0
 10 11  1  0
 10 12  2  0
 12 13  1  0
 12 14  1  0
 14 15  1  0
 14 16  2  0
 16 17  1  0
 17 18  2  0
 17 19  1  0
 19 20  1  0
 20 21  1  0
 20 22  1  0
 20 23  1  0
 23 24  1  0
 23 25  1  0
 25 26  1  0
 25 27  1  0
 25 28  1  0
 28 29  1  0
 28 30  1  0
 28 31  1  0
 31 32  1  0
 31 33  1  0
 31 34  1  0
 34 35  1  0
 34 36  1  0
 34 37  1  0
 37 38  1  0
 37 39  1  0
  2 40  1  0
 40 41  2  0
 41 42  1  0
 41 43  1  0
 43 44  1  0
 43 45  2  0
 45 46  1  0
 45 47  1  0
 47 48  1  0
 48 49  1  0
 49 50  1  0
 49 51  1  0
 49 52  1  0
 47 53  2  0
 53 54  1  0
 19  5  1  0
 37 23  1  0
 53 40  1  0
 16  7  1  0
M  END
>  <UniqueID>  (59) 
73

>  <SMILES>  (59) 
COc1cccc(/C=C/c2nc3ccccc3c(=O)n2CC2CCCCC2)c1

>  <Energy>  (59) 
74.23093219320548

>  <Genealogy>  (59) 
COc1cccc(/C=C/c2nc3ccccc3c(=O)n2CC2CCCCC2)c1 (cis-trans isomerization)
COc1cccc(/C=C/c2nc3ccccc3c(=O)n2CC2CCCCC2)c1 (3D coordinates assigned)
COc1cccc(/C=C/c2nc3ccccc3c(=O)n2CC2CCCCC2)c1 (nonaromatic ring conformer: 74.23093219320548 kcal/mol)

>  <smiles>  (59) 
COc1cccc(/C=C/c2nc3ccccc3c(=O)n2CC2CCCCC2)c1

>  <score_type>  (59) 
oracle

>  <origin>  (59) 
autodockgpu

>  <m_score__min__energy>  (59) 
-7.3499999999999996

>  <m_primary>  (59) 
energy

>  <meeko>  (59) 
{"free_energy": -6.82, "intermolecular_energy": -8.61, "internal_energy": -1.6, "cluster_size": 1, "cluster_id": 8, "rank_in_cluster": 1}

>  <energy>  (59) 
-6.09

>  <cluster_rmsd>  (59) 
0.24

>  <rmsd>  (59) 
271.49

>  <cluster>  (59) 
11

$$$$
SDBQQCBUKDXRSS-CCEZHUSRNA-N
     RDKit          3D

 54 57  0  0  0  0  0  0  0  0999 V2000
  135.9620   70.6501  222.9497 H   0  0  0  0  0  0  0  0  0  0  0  0
  136.5430   71.5160  223.3000 C   0  0  0  0  0  0  0  0  0  0  0  0
  137.8800   71.4440  223.2840 C   0  0  0  0  0  0  0  0  0  0  0  0
  138.4375   71.9629  222.4903 H   0  0  0  0  0  0  0  0  0  0  0  0
  138.6250   70.6800  224.3130 C   0  0  0  0  0  0  0  0  0  0  0  0
  139.3610   71.3920  225.2070 N   0  0  0  0  0  0  0  0  0  0  0  0
  140.0220   70.8020  226.2270 C   0  0  0  0  0  0  0  0  0  0  0  0
  140.7660   71.5780  227.1230 C   0  0  0  0  0  0  0  0  0  0  0  0
  140.8367   72.6664  226.9798 H   0  0  0  0  0  0  0  0  0  0  0  0
  141.4190   70.9720  228.1990 C   0  0  0  0  0  0  0  0  0  0  0  0
  142.0033   71.5837  228.9022 H   0  0  0  0  0  0  0  0  0  0  0  0
  141.3310   69.5910  228.3830 C   0  0  0  0  0  0  0  0  0  0  0  0
  141.8410   69.1168  229.2345 H   0  0  0  0  0  0  0  0  0  0  0  0
  140.5950   68.8090  227.4860 C   0  0  0  0  0  0  0  0  0  0  0  0
  140.5315   67.7205  227.6314 H   0  0  0  0  0  0  0  0  0  0  0  0
  139.9350   69.4120  226.3970 C   0  0  0  0  0  0  0  0  0  0  0  0
  139.1910   68.6730  225.4630 C   0  0  0  0  0  0  0  0  0  0  0  0
  139.0970   67.4200  225.6060 O   0  0  0  0  0  0  0  0  0  0  0  0
  138.5700   69.3000  224.4050 N   0  0  0  0  0  0  0  0  0  0  0  0
  137.8860   68.4730  223.3760 C   0  0  0  0  0  0  0  0  0  0  0  0
  137.4248   67.6089  223.8767 H   0  0  0  0  0  0  0  0  0  0  0  0
  137.1455   69.1220  222.8856 H   0  0  0  0  0  0  0  0  0  0  0  0
  138.8300   67.9460  222.2630 C   0  0  0  0  0  0  0  0  0  0  0  0
  139.8341   68.2332  222.6084 H   0  0  0  0  0  0  0  0  0  0  0  0
  138.8160   66.4050  222.1140 C   0  0  0  0  0  0  0  0  0  0  0  0
  139.3308   65.9663  222.9815 H   0  0  0  0  0  0  0  0  0  0  0  0
  137.7624   66.0946  222.0543 H   0  0  0  0  0  0  0  0  0  0  0  0
  139.5120   65.9050  220.8270 C   0  0  0  0  0  0  0  0  0  0  0  0
  140.1004   65.0083  221.0712 H   0  0  0  0  0  0  0  0  0  0  0  0
  138.7264   65.6884  220.0881 H   0  0  0  0  0  0  0  0  0  0  0  0
  140.4460   66.9510  220.2140 C   0  0  0  0  0  0  0  0  0  0  0  0
  141.2498   67.1756  220.9306 H   0  0  0  0  0  0  0  0  0  0  0  0
  140.8562   66.5405  219.2795 H   0  0  0  0  0  0  0  0  0  0  0  0
  139.6950   68.2560  219.8790 C   0  0  0  0  0  0  0  0  0  0  0  0
  140.4240   69.0793  219.8529 H   0  0  0  0  0  0  0  0  0  0  0  0
  139.2006   68.1025  218.9084 H   0  0  0  0  0  0  0  0  0  0  0  0
  138.5900   68.6150  220.8970 C   0  0  0  0  0  0  0  0  0  0  0  0
  138.5728   69.7064  221.0334 H   0  0  0  0  0  0  0  0  0  0  0  0
  137.6304   68.2501  220.5021 H   0  0  0  0  0  0  0  0  0  0  0  0
  135.8180   72.7160  223.7710 C   0  0  0  0  0  0  0  0  0  0  0  0
  135.9230   73.9070  223.0360 C   0  0  0  0  0  0  0  0  0  0  0  0
  136.5469   73.9385  222.1306 H   0  0  0  0  0  0  0  0  0  0  0  0
  135.2390   75.0520  223.4490 C   0  0  0  0  0  0  0  0  0  0  0  0
  135.3133   75.9776  222.8593 H   0  0  0  0  0  0  0  0  0  0  0  0
  134.4610   75.0260  224.6080 C   0  0  0  0  0  0  0  0  0  0  0  0
  133.9161   75.9292  224.9198 H   0  0  0  0  0  0  0  0  0  0  0  0
  134.3690   73.8600  225.3760 C   0  0  0  0  0  0  0  0  0  0  0  0
  133.5990   73.8930  226.5480 O   0  0  0  0  0  0  0  0  0  0  0  0
  132.5400   72.9870  226.8390 C   0  0  0  0  0  0  0  0  0  0  0  0
  132.4283   72.8915  227.9291 H   0  0  0  0  0  0  0  0  0  0  0  0
  131.6029   73.3672  226.4064 H   0  0  0  0  0  0  0  0  0  0  0  0
  132.7706   72.0023  226.4064 H   0  0  0  0  0  0  0  0  0  0  0  0
  135.0500   72.7010  224.9530 C   0  0  0  0  0  0  0  0  0  0  0  0
  134.9819   71.7789  225.5489 H   0  0  0  0  0  0  0  0  0  0  0  0
  1  2  1  0
  2  3  2  0
  3  4  1  0
  3  5  1  0
  5  6  2  0
  6  7  1  0
  7  8  2  0
  8  9  1  0
  8 10  1  0
 10 11  1  0
 10 12  2  0
 12 13  1  0
 12 14  1  0
 14 15  1  0
 14 16  2  0
 16 17  1  0
 17 18  2  0
 17 19  1  0
 19 20  1  0
 20 21  1  0
 20 22  1  0
 20 23  1  0
 23 24  1  0
 23 25  1  0
 25 26  1  0
 25 27  1  0
 25 28  1  0
 28 29  1  0
 28 30  1  0
 28 31  1  0
 31 32  1  0
 31 33  1  0
 31 34  1  0
 34 35  1  0
 34 36  1  0
 34 37  1  0
 37 38  1  0
 37 39  1  0
  2 40  1  0
 40 41  2  0
 41 42  1  0
 41 43  1  0
 43 44  1  0
 43 45  2  0
 45 46  1  0
 45 47  1  0
 47 48  1  0
 48 49  1  0
 49 50  1  0
 49 51  1  0
 49 52  1  0
 47 53  2  0
 53 54  1  0
 19  5  1  0
 37 23  1  0
 53 40  1  0
 16  7  1  0
M  END
>  <UniqueID>  (60) 
73

>  <SMILES>  (60) 
COc1cccc(/C=C/c2nc3ccccc3c(=O)n2CC2CCCCC2)c1

>  <Energy>  (60) 
74.23093219320548

>  <Genealogy>  (60) 
COc1cccc(/C=C/c2nc3ccccc3c(=O)n2CC2CCCCC2)c1 (cis-trans isomerization)
COc1cccc(/C=C/c2nc3ccccc3c(=O)n2CC2CCCCC2)c1 (3D coordinates assigned)
COc1cccc(/C=C/c2nc3ccccc3c(=O)n2CC2CCCCC2)c1 (nonaromatic ring conformer: 74.23093219320548 kcal/mol)

>  <smiles>  (60) 
COc1cccc(/C=C/c2nc3ccccc3c(=O)n2CC2CCCCC2)c1

>  <score_type>  (60) 
oracle

>  <origin>  (60) 
autodockgpu

>  <m_score__min__energy>  (60) 
-7.3499999999999996

>  <m_primary>  (60) 
energy

>  <meeko>  (60) 
{"free_energy": -7.33, "intermolecular_energy": -9.12, "internal_energy": -1.18, "cluster_size": 2, "cluster_id": 2, "rank_in_cluster": 1}

>  <energy>  (60) 
-6.06

>  <cluster_rmsd>  (60) 
0.24

>  <rmsd>  (60) 
271.49

>  <cluster>  (60) 
11

$$$$
SDBQQCBUKDXRSS-CCEZHUSRNA-N
     RDKit          3D

 54 57  0  0  0  0  0  0  0  0999 V2000
  139.6252   77.3838  223.5584 H   0  0  0  0  0  0  0  0  0  0  0  0
  139.2280   77.9330  222.6920 C   0  0  0  0  0  0  0  0  0  0  0  0
  139.3080   77.3690  221.4800 C   0  0  0  0  0  0  0  0  0  0  0  0
  138.4383   77.4116  220.8078 H   0  0  0  0  0  0  0  0  0  0  0  0
  140.5450   76.6880  221.0250 C   0  0  0  0  0  0  0  0  0  0  0  0
  140.6820   75.3730  221.3380 N   0  0  0  0  0  0  0  0  0  0  0  0
  141.7350   74.6390  220.9140 C   0  0  0  0  0  0  0  0  0  0  0  0
  141.8330   73.2860  221.2610 C   0  0  0  0  0  0  0  0  0  0  0  0
  141.0670   72.8267  221.9031 H   0  0  0  0  0  0  0  0  0  0  0  0
  142.9020   72.5190  220.7930 C   0  0  0  0  0  0  0  0  0  0  0  0
  142.9780   71.4566  221.0678 H   0  0  0  0  0  0  0  0  0  0  0  0
  143.8750   73.1000  219.9760 C   0  0  0  0  0  0  0  0  0  0  0  0
  144.7122   72.4921  219.6024 H   0  0  0  0  0  0  0  0  0  0  0  0
  143.7870   74.4530  219.6320 C   0  0  0  0  0  0  0  0  0  0  0  0
  144.5582   74.9078  218.9929 H   0  0  0  0  0  0  0  0  0  0  0  0
  142.7130   75.2350  220.1020 C   0  0  0  0  0  0  0  0  0  0  0  0
  142.5820   76.5980  219.7950 C   0  0  0  0  0  0  0  0  0  0  0  0
  143.4500   77.1490  219.0590 O   0  0  0  0  0  0  0  0  0  0  0  0
  141.5210   77.3300  220.2850 N   0  0  0  0  0  0  0  0  0  0  0  0
  141.4760   78.7940  220.0300 C   0  0  0  0  0  0  0  0  0  0  0  0
  142.3471   79.0655  219.4156 H   0  0  0  0  0  0  0  0  0  0  0  0
  140.5215   79.0009  219.5239 H   0  0  0  0  0  0  0  0  0  0  0  0
  141.4990   79.6580  221.3200 C   0  0  0  0  0  0  0  0  0  0  0  0
  140.5052   79.5004  221.7645 H   0  0  0  0  0  0  0  0  0  0  0  0
  142.5490   79.1940  222.3590 C   0  0  0  0  0  0  0  0  0  0  0  0
  142.2045   78.2492  222.8047 H   0  0  0  0  0  0  0  0  0  0  0  0
  143.5041   79.0785  221.8257 H   0  0  0  0  0  0  0  0  0  0  0  0
  142.7820   80.2160  223.4960 C   0  0  0  0  0  0  0  0  0  0  0  0
  142.8733   79.6697  224.4464 H   0  0  0  0  0  0  0  0  0  0  0  0
  143.6990   80.7745  223.2567 H   0  0  0  0  0  0  0  0  0  0  0  0
  141.6430   81.2320  223.6230 C   0  0  0  0  0  0  0  0  0  0  0  0
  140.7148   80.6984  223.8754 H   0  0  0  0  0  0  0  0  0  0  0  0
  141.9089   81.9510  224.4119 H   0  0  0  0  0  0  0  0  0  0  0  0
  141.4310   82.0120  222.3100 C   0  0  0  0  0  0  0  0  0  0  0  0
  140.3986   82.3913  222.2944 H   0  0  0  0  0  0  0  0  0  0  0  0
  142.1762   82.8209  222.2933 H   0  0  0  0  0  0  0  0  0  0  0  0
  141.6580   81.1630  221.0380 C   0  0  0  0  0  0  0  0  0  0  0  0
  140.9244   81.4618  220.2747 H   0  0  0  0  0  0  0  0  0  0  0  0
  142.6860   81.3388  220.6882 H   0  0  0  0  0  0  0  0  0  0  0  0
  138.6260   79.2660  222.9100 C   0  0  0  0  0  0  0  0  0  0  0  0
  138.1880   80.0050  221.8000 C   0  0  0  0  0  0  0  0  0  0  0  0
  138.3048   79.5922  220.7871 H   0  0  0  0  0  0  0  0  0  0  0  0
  137.6050   81.2610  221.9750 C   0  0  0  0  0  0  0  0  0  0  0  0
  137.2507   81.8275  221.1012 H   0  0  0  0  0  0  0  0  0  0  0  0
  137.4700   81.8010  223.2560 C   0  0  0  0  0  0  0  0  0  0  0  0
  136.9979   82.7859  223.3866 H   0  0  0  0  0  0  0  0  0  0  0  0
  137.9310   81.0980  224.3740 C   0  0  0  0  0  0  0  0  0  0  0  0
  137.8000   81.6960  225.6370 O   0  0  0  0  0  0  0  0  0  0  0  0
  136.6050   81.6860  226.4110 C   0  0  0  0  0  0  0  0  0  0  0  0
  136.8610   81.6881  227.4808 H   0  0  0  0  0  0  0  0  0  0  0  0
  136.0079   82.5792  226.1751 H   0  0  0  0  0  0  0  0  0  0  0  0
  136.0229   80.7829  226.1751 H   0  0  0  0  0  0  0  0  0  0  0  0
  138.5090   79.8250  224.1980 C   0  0  0  0  0  0  0  0  0  0  0  0
  138.8713   79.2639  225.0720 H   0  0  0  0  0  0  0  0  0  0  0  0
  1  2  1  0
  2  3  2  0
  3  4  1  0
  3  5  1  0
  5  6  2  0
  6  7  1  0
  7  8  2  0
  8  9  1  0
  8 10  1  0
 10 11  1  0
 10 12  2  0
 12 13  1  0
 12 14  1  0
 14 15  1  0
 14 16  2  0
 16 17  1  0
 17 18  2  0
 17 19  1  0
 19 20  1  0
 20 21  1  0
 20 22  1  0
 20 23  1  0
 23 24  1  0
 23 25  1  0
 25 26  1  0
 25 27  1  0
 25 28  1  0
 28 29  1  0
 28 30  1  0
 28 31  1  0
 31 32  1  0
 31 33  1  0
 31 34  1  0
 34 35  1  0
 34 36  1  0
 34 37  1  0
 37 38  1  0
 37 39  1  0
  2 40  1  0
 40 41  2  0
 41 42  1  0
 41 43  1  0
 43 44  1  0
 43 45  2  0
 45 46  1  0
 45 47  1  0
 47 48  1  0
 48 49  1  0
 49 50  1  0
 49 51  1  0
 49 52  1  0
 47 53  2  0
 53 54  1  0
 19  5  1  0
 37 23  1  0
 53 40  1  0
 16  7  1  0
M  END
>  <UniqueID>  (61) 
74

>  <SMILES>  (61) 
COc1cccc(/C=C/c2nc3ccccc3c(=O)n2CC2CCCCC2)c1

>  <Energy>  (61) 
74.32562762985688

>  <Genealogy>  (61) 
COc1cccc(/C=C/c2nc3ccccc3c(=O)n2CC2CCCCC2)c1 (cis-trans isomerization)
COc1cccc(/C=C/c2nc3ccccc3c(=O)n2CC2CCCCC2)c1 (3D coordinates assigned)
COc1cccc(/C=C/c2nc3ccccc3c(=O)n2CC2CCCCC2)c1 (nonaromatic ring conformer: 74.32562762985688 kcal/mol)

>  <smiles>  (61) 
COc1cccc(/C=C/c2nc3ccccc3c(=O)n2CC2CCCCC2)c1

>  <score_type>  (61) 
oracle

>  <origin>  (61) 
autodockgpu

>  <m_score__min__energy>  (61) 
-7.3499999999999996

>  <m_primary>  (61) 
energy

>  <meeko>  (61) 
{"free_energy": -6.4, "intermolecular_energy": -8.19, "internal_energy": -2.0, "cluster_size": 2, "cluster_id": 10, "rank_in_cluster": 2}

>  <energy>  (61) 
-7.35

>  <cluster_rmsd>  (61) 
0.0

>  <rmsd>  (61) 
270.31

>  <cluster>  (61) 
1

$$$$
SDBQQCBUKDXRSS-CCEZHUSRNA-N
     RDKit          3D

 54 57  0  0  0  0  0  0  0  0999 V2000
  139.5805   77.9134  223.8933 H   0  0  0  0  0  0  0  0  0  0  0  0
  139.1160   78.4390  223.0460 C   0  0  0  0  0  0  0  0  0  0  0  0
  139.1720   77.8780  221.8310 C   0  0  0  0  0  0  0  0  0  0  0  0
  138.4258   78.1590  221.0732 H   0  0  0  0  0  0  0  0  0  0  0  0
  140.2190   76.8860  221.4860 C   0  0  0  0  0  0  0  0  0  0  0  0
  140.0070   75.5990  221.8700 N   0  0  0  0  0  0  0  0  0  0  0  0
  140.8620   74.6030  221.5460 C   0  0  0  0  0  0  0  0  0  0  0  0
  140.6010   73.2920  221.9640 C   0  0  0  0  0  0  0  0  0  0  0  0
  139.7153   73.0776  222.5801 H   0  0  0  0  0  0  0  0  0  0  0  0
  141.4650   72.2560  221.5990 C   0  0  0  0  0  0  0  0  0  0  0  0
  141.2589   71.2267  221.9277 H   0  0  0  0  0  0  0  0  0  0  0  0
  142.5900   72.5270  220.8170 C   0  0  0  0  0  0  0  0  0  0  0  0
  143.2660   71.7095  220.5260 H   0  0  0  0  0  0  0  0  0  0  0  0
  142.8590   73.8360  220.4030 C   0  0  0  0  0  0  0  0  0  0  0  0
  143.7479   74.0456  219.7899 H   0  0  0  0  0  0  0  0  0  0  0  0
  141.9950   74.8860  220.7690 C   0  0  0  0  0  0  0  0  0  0  0  0
  142.2240   76.2190  220.3890 C   0  0  0  0  0  0  0  0  0  0  0  0
  143.2360   76.4900  219.6820 O   0  0  0  0  0  0  0  0  0  0  0  0
  141.3590   77.2190  220.7780 N   0  0  0  0  0  0  0  0  0  0  0  0
  141.6940   78.6300  220.4500 C   0  0  0  0  0  0  0  0  0  0  0  0
  142.7139   78.6576  220.0387 H   0  0  0  0  0  0  0  0  0  0  0  0
  140.9395   78.9789  219.7296 H   0  0  0  0  0  0  0  0  0  0  0  0
  141.6320   79.5890  221.6690 C   0  0  0  0  0  0  0  0  0  0  0  0
  140.6875   79.3245  222.1669 H   0  0  0  0  0  0  0  0  0  0  0  0
  142.7730   79.3680  222.6930 C   0  0  0  0  0  0  0  0  0  0  0  0
  142.5867   78.4226  223.2235 H   0  0  0  0  0  0  0  0  0  0  0  0
  143.7166   79.3496  222.1279 H   0  0  0  0  0  0  0  0  0  0  0  0
  142.8900   80.5010  223.7380 C   0  0  0  0  0  0  0  0  0  0  0  0
  143.0913   80.0522  224.7219 H   0  0  0  0  0  0  0  0  0  0  0  0
  143.7068   81.1643  223.4173 H   0  0  0  0  0  0  0  0  0  0  0  0
  141.6200   81.3490  223.8380 C   0  0  0  0  0  0  0  0  0  0  0  0
  140.7893   80.7096  224.1712 H   0  0  0  0  0  0  0  0  0  0  0  0
  141.8043   82.1606  224.5572 H   0  0  0  0  0  0  0  0  0  0  0  0
  141.2510   81.9820  222.4810 C   0  0  0  0  0  0  0  0  0  0  0  0
  140.1740   82.2059  222.4834 H   0  0  0  0  0  0  0  0  0  0  0  0
  141.8670   82.8865  222.3697 H   0  0  0  0  0  0  0  0  0  0  0  0
  141.5580   81.0740  221.2690 C   0  0  0  0  0  0  0  0  0  0  0  0
  140.7635   81.2012  220.5189 H   0  0  0  0  0  0  0  0  0  0  0  0
  142.5373   81.3670  220.8626 H   0  0  0  0  0  0  0  0  0  0  0  0
  138.4530   79.7390  223.2920 C   0  0  0  0  0  0  0  0  0  0  0  0
  137.9980   80.4880  222.1960 C   0  0  0  0  0  0  0  0  0  0  0  0
  138.1471   80.1088  221.1742 H   0  0  0  0  0  0  0  0  0  0  0  0
  137.3570   81.7120  222.3960 C   0  0  0  0  0  0  0  0  0  0  0  0
  136.9887   82.2858  221.5328 H   0  0  0  0  0  0  0  0  0  0  0  0
  137.1820   82.2100  223.6890 C   0  0  0  0  0  0  0  0  0  0  0  0
  136.6656   83.1695  223.8393 H   0  0  0  0  0  0  0  0  0  0  0  0
  137.6590   81.4970  224.7950 C   0  0  0  0  0  0  0  0  0  0  0  0
  137.4860   82.0530  226.0710 O   0  0  0  0  0  0  0  0  0  0  0  0
  136.4190   81.7230  226.9540 C   0  0  0  0  0  0  0  0  0  0  0  0
  136.7587   81.8281  227.9949 H   0  0  0  0  0  0  0  0  0  0  0  0
  135.5716   82.4010  226.7746 H   0  0  0  0  0  0  0  0  0  0  0  0
  136.1024   80.6849  226.7746 H   0  0  0  0  0  0  0  0  0  0  0  0
  138.2960   80.2560  224.5920 C   0  0  0  0  0  0  0  0  0  0  0  0
  138.6729   79.6877  225.4551 H   0  0  0  0  0  0  0  0  0  0  0  0
  1  2  1  0
  2  3  2  0
  3  4  1  0
  3  5  1  0
  5  6  2  0
  6  7  1  0
  7  8  2  0
  8  9  1  0
  8 10  1  0
 10 11  1  0
 10 12  2  0
 12 13  1  0
 12 14  1  0
 14 15  1  0
 14 16  2  0
 16 17  1  0
 17 18  2  0
 17 19  1  0
 19 20  1  0
 20 21  1  0
 20 22  1  0
 20 23  1  0
 23 24  1  0
 23 25  1  0
 25 26  1  0
 25 27  1  0
 25 28  1  0
 28 29  1  0
 28 30  1  0
 28 31  1  0
 31 32  1  0
 31 33  1  0
 31 34  1  0
 34 35  1  0
 34 36  1  0
 34 37  1  0
 37 38  1  0
 37 39  1  0
  2 40  1  0
 40 41  2  0
 41 42  1  0
 41 43  1  0
 43 44  1  0
 43 45  2  0
 45 46  1  0
 45 47  1  0
 47 48  1  0
 48 49  1  0
 49 50  1  0
 49 51  1  0
 49 52  1  0
 47 53  2  0
 53 54  1  0
 19  5  1  0
 37 23  1  0
 53 40  1  0
 16  7  1  0
M  END
>  <UniqueID>  (62) 
74

>  <SMILES>  (62) 
COc1cccc(/C=C/c2nc3ccccc3c(=O)n2CC2CCCCC2)c1

>  <Energy>  (62) 
74.32562762985688

>  <Genealogy>  (62) 
COc1cccc(/C=C/c2nc3ccccc3c(=O)n2CC2CCCCC2)c1 (cis-trans isomerization)
COc1cccc(/C=C/c2nc3ccccc3c(=O)n2CC2CCCCC2)c1 (3D coordinates assigned)
COc1cccc(/C=C/c2nc3ccccc3c(=O)n2CC2CCCCC2)c1 (nonaromatic ring conformer: 74.32562762985688 kcal/mol)

>  <smiles>  (62) 
COc1cccc(/C=C/c2nc3ccccc3c(=O)n2CC2CCCCC2)c1

>  <score_type>  (62) 
oracle

>  <origin>  (62) 
autodockgpu

>  <m_score__min__energy>  (62) 
-7.3499999999999996

>  <m_primary>  (62) 
energy

>  <meeko>  (62) 
{"free_energy": -6.62, "intermolecular_energy": -8.41, "internal_energy": -1.75, "cluster_size": 2, "cluster_id": 10, "rank_in_cluster": 1}

>  <energy>  (62) 
-7.33

>  <cluster_rmsd>  (62) 
0.0

>  <rmsd>  (62) 
270.17

>  <cluster>  (62) 
2

$$$$
SDBQQCBUKDXRSS-CCEZHUSRNA-N
     RDKit          3D

 54 57  0  0  0  0  0  0  0  0999 V2000
  143.4857   78.3299  218.0060 H   0  0  0  0  0  0  0  0  0  0  0  0
  142.5700   78.1060  218.5730 C   0  0  0  0  0  0  0  0  0  0  0  0
  141.5440   78.9630  218.5040 C   0  0  0  0  0  0  0  0  0  0  0  0
  140.5157   78.5723  218.5006 H   0  0  0  0  0  0  0  0  0  0  0  0
  141.7640   80.4280  218.4320 C   0  0  0  0  0  0  0  0  0  0  0  0
  142.7170   80.8730  217.5710 N   0  0  0  0  0  0  0  0  0  0  0  0
  142.9510   82.1900  217.3750 C   0  0  0  0  0  0  0  0  0  0  0  0
  143.9440   82.6000  216.4770 C   0  0  0  0  0  0  0  0  0  0  0  0
  144.5543   81.8502  215.9524 H   0  0  0  0  0  0  0  0  0  0  0  0
  144.1600   83.9610  216.2470 C   0  0  0  0  0  0  0  0  0  0  0  0
  144.9398   84.2817  215.5405 H   0  0  0  0  0  0  0  0  0  0  0  0
  143.3870   84.9150  216.9130 C   0  0  0  0  0  0  0  0  0  0  0  0
  143.5555   85.9858  216.7262 H   0  0  0  0  0  0  0  0  0  0  0  0
  142.3990   84.5110  217.8170 C   0  0  0  0  0  0  0  0  0  0  0  0
  141.7952   85.2653  218.3428 H   0  0  0  0  0  0  0  0  0  0  0  0
  142.1750   83.1410  218.0560 C   0  0  0  0  0  0  0  0  0  0  0  0
  141.2040   82.6820  218.9600 C   0  0  0  0  0  0  0  0  0  0  0  0
  140.4910   83.5250  219.5770 O   0  0  0  0  0  0  0  0  0  0  0  0
  141.0240   81.3320  219.1740 N   0  0  0  0  0  0  0  0  0  0  0  0
  140.0640   80.8880  220.2190 C   0  0  0  0  0  0  0  0  0  0  0  0
  139.5289   81.7721  220.5958 H   0  0  0  0  0  0  0  0  0  0  0  0
  139.3917   80.1575  219.7453 H   0  0  0  0  0  0  0  0  0  0  0  0
  140.7320   80.1710  221.4230 C   0  0  0  0  0  0  0  0  0  0  0  0
  140.7739   79.1158  221.1150 H   0  0  0  0  0  0  0  0  0  0  0  0
  142.1860   80.6330  221.6920 C   0  0  0  0  0  0  0  0  0  0  0  0
  142.8306   80.2380  220.8930 H   0  0  0  0  0  0  0  0  0  0  0  0
  142.1779   81.7327  221.7149 H   0  0  0  0  0  0  0  0  0  0  0  0
  142.7420   80.1530  223.0520 C   0  0  0  0  0  0  0  0  0  0  0  0
  143.7872   79.8391  222.9136 H   0  0  0  0  0  0  0  0  0  0  0  0
  142.6585   80.9916  223.7590 H   0  0  0  0  0  0  0  0  0  0  0  0
  141.9510   78.9780  223.6340 C   0  0  0  0  0  0  0  0  0  0  0  0
  142.0303   78.1204  222.9497 H   0  0  0  0  0  0  0  0  0  0  0  0
  142.3730   78.7341  224.6201 H   0  0  0  0  0  0  0  0  0  0  0  0
  140.4620   79.3330  223.8210 C   0  0  0  0  0  0  0  0  0  0  0  0
  139.8801   78.3995  223.8246 H   0  0  0  0  0  0  0  0  0  0  0  0
  140.3791   79.8826  224.7702 H   0  0  0  0  0  0  0  0  0  0  0  0
  139.9000   80.2540  222.7150 C   0  0  0  0  0  0  0  0  0  0  0  0
  138.8659   79.9524  222.4923 H   0  0  0  0  0  0  0  0  0  0  0  0
  139.9401   81.2906  223.0809 H   0  0  0  0  0  0  0  0  0  0  0  0
  142.5190   76.8690  219.3830 C   0  0  0  0  0  0  0  0  0  0  0  0
  143.5210   75.9020  219.2100 C   0  0  0  0  0  0  0  0  0  0  0  0
  144.3209   76.0679  218.4734 H   0  0  0  0  0  0  0  0  0  0  0  0
  143.5070   74.7300  219.9690 C   0  0  0  0  0  0  0  0  0  0  0  0
  144.3049   73.9838  219.8399 H   0  0  0  0  0  0  0  0  0  0  0  0
  142.4840   74.5020  220.8910 C   0  0  0  0  0  0  0  0  0  0  0  0
  142.4868   73.5814  221.4930 H   0  0  0  0  0  0  0  0  0  0  0  0
  141.4550   75.4360  221.0550 C   0  0  0  0  0  0  0  0  0  0  0  0
  140.4330   75.1480  221.9720 O   0  0  0  0  0  0  0  0  0  0  0  0
  139.3370   76.0120  222.2520 C   0  0  0  0  0  0  0  0  0  0  0  0
  139.2149   76.1083  223.3410 H   0  0  0  0  0  0  0  0  0  0  0  0
  139.5306   77.0030  221.8157 H   0  0  0  0  0  0  0  0  0  0  0  0
  138.4185   75.5924  221.8157 H   0  0  0  0  0  0  0  0  0  0  0  0
  141.4760   76.6240  220.2970 C   0  0  0  0  0  0  0  0  0  0  0  0
  140.6723   77.3649  220.4201 H   0  0  0  0  0  0  0  0  0  0  0  0
  1  2  1  0
  2  3  2  0
  3  4  1  0
  3  5  1  0
  5  6  2  0
  6  7  1  0
  7  8  2  0
  8  9  1  0
  8 10  1  0
 10 11  1  0
 10 12  2  0
 12 13  1  0
 12 14  1  0
 14 15  1  0
 14 16  2  0
 16 17  1  0
 17 18  2  0
 17 19  1  0
 19 20  1  0
 20 21  1  0
 20 22  1  0
 20 23  1  0
 23 24  1  0
 23 25  1  0
 25 26  1  0
 25 27  1  0
 25 28  1  0
 28 29  1  0
 28 30  1  0
 28 31  1  0
 31 32  1  0
 31 33  1  0
 31 34  1  0
 34 35  1  0
 34 36  1  0
 34 37  1  0
 37 38  1  0
 37 39  1  0
  2 40  1  0
 40 41  2  0
 41 42  1  0
 41 43  1  0
 43 44  1  0
 43 45  2  0
 45 46  1  0
 45 47  1  0
 47 48  1  0
 48 49  1  0
 49 50  1  0
 49 51  1  0
 49 52  1  0
 47 53  2  0
 53 54  1  0
 19  5  1  0
 37 23  1  0
 53 40  1  0
 16  7  1  0
M  END
>  <UniqueID>  (63) 
74

>  <SMILES>  (63) 
COc1cccc(/C=C/c2nc3ccccc3c(=O)n2CC2CCCCC2)c1

>  <Energy>  (63) 
74.32562762985688

>  <Genealogy>  (63) 
COc1cccc(/C=C/c2nc3ccccc3c(=O)n2CC2CCCCC2)c1 (cis-trans isomerization)
COc1cccc(/C=C/c2nc3ccccc3c(=O)n2CC2CCCCC2)c1 (3D coordinates assigned)
COc1cccc(/C=C/c2nc3ccccc3c(=O)n2CC2CCCCC2)c1 (nonaromatic ring conformer: 74.32562762985688 kcal/mol)

>  <smiles>  (63) 
COc1cccc(/C=C/c2nc3ccccc3c(=O)n2CC2CCCCC2)c1

>  <score_type>  (63) 
oracle

>  <origin>  (63) 
autodockgpu

>  <m_score__min__energy>  (63) 
-7.3499999999999996

>  <m_primary>  (63) 
energy

>  <meeko>  (63) 
{"free_energy": -6.65, "intermolecular_energy": -8.44, "internal_energy": -1.81, "cluster_size": 1, "cluster_id": 9, "rank_in_cluster": 1}

>  <energy>  (63) 
-7.1

>  <cluster_rmsd>  (63) 
1.0

>  <rmsd>  (63) 
270.19

>  <cluster>  (63) 
2

$$$$
SDBQQCBUKDXRSS-CCEZHUSRNA-N
     RDKit          3D

 54 57  0  0  0  0  0  0  0  0999 V2000
  143.8124   76.0822  218.0829 H   0  0  0  0  0  0  0  0  0  0  0  0
  143.6220   75.6470  219.0750 C   0  0  0  0  0  0  0  0  0  0  0  0
  142.6500   76.1710  219.8330 C   0  0  0  0  0  0  0  0  0  0  0  0
  142.6226   77.2584  219.9969 H   0  0  0  0  0  0  0  0  0  0  0  0
  141.6100   75.3170  220.4560 C   0  0  0  0  0  0  0  0  0  0  0  0
  141.8220   73.9740  220.4500 N   0  0  0  0  0  0  0  0  0  0  0  0
  140.9740   73.1100  221.0520 C   0  0  0  0  0  0  0  0  0  0  0  0
  141.2350   71.7350  221.0200 C   0  0  0  0  0  0  0  0  0  0  0  0
  142.1149   71.3551  220.4802 H   0  0  0  0  0  0  0  0  0  0  0  0
  140.3790   70.8450  221.6730 C   0  0  0  0  0  0  0  0  0  0  0  0
  140.5859   69.7649  221.6475 H   0  0  0  0  0  0  0  0  0  0  0  0
  139.2610   71.3250  222.3580 C   0  0  0  0  0  0  0  0  0  0  0  0
  138.5914   70.6230  222.8764 H   0  0  0  0  0  0  0  0  0  0  0  0
  138.9910   72.6980  222.3860 C   0  0  0  0  0  0  0  0  0  0  0  0
  138.1068   73.0721  222.9228 H   0  0  0  0  0  0  0  0  0  0  0  0
  139.8480   73.6020  221.7290 C   0  0  0  0  0  0  0  0  0  0  0  0
  139.6180   74.9870  221.7190 C   0  0  0  0  0  0  0  0  0  0  0  0
  138.6120   75.4480  222.3300 O   0  0  0  0  0  0  0  0  0  0  0  0
  140.4760   75.8370  221.0530 N   0  0  0  0  0  0  0  0  0  0  0  0
  140.1400   77.2830  220.9710 C   0  0  0  0  0  0  0  0  0  0  0  0
  140.1275   77.5761  219.9108 H   0  0  0  0  0  0  0  0  0  0  0  0
  139.1611   77.4115  221.4561 H   0  0  0  0  0  0  0  0  0  0  0  0
  141.1390   78.2040  221.7210 C   0  0  0  0  0  0  0  0  0  0  0  0
  142.0610   77.6066  221.7757 H   0  0  0  0  0  0  0  0  0  0  0  0
  141.4770   79.5080  220.9560 C   0  0  0  0  0  0  0  0  0  0  0  0
  142.1109   79.2521  220.0942 H   0  0  0  0  0  0  0  0  0  0  0  0
  140.5225   79.9615  220.6507 H   0  0  0  0  0  0  0  0  0  0  0  0
  142.2220   80.5520  221.8190 C   0  0  0  0  0  0  0  0  0  0  0  0
  143.0104   81.0152  221.2076 H   0  0  0  0  0  0  0  0  0  0  0  0
  141.4811   81.2912  222.1577 H   0  0  0  0  0  0  0  0  0  0  0  0
  142.8660   79.9400  223.0660 C   0  0  0  0  0  0  0  0  0  0  0  0
  143.6223   79.2050  222.7531 H   0  0  0  0  0  0  0  0  0  0  0  0
  143.3250   80.7514  223.6499 H   0  0  0  0  0  0  0  0  0  0  0  0
  141.8220   79.2360  223.9560 C   0  0  0  0  0  0  0  0  0  0  0  0
  142.3394   78.4833  224.5690 H   0  0  0  0  0  0  0  0  0  0  0  0
  141.3413   80.0156  224.5652 H   0  0  0  0  0  0  0  0  0  0  0  0
  140.7010   78.5300  223.1600 C   0  0  0  0  0  0  0  0  0  0  0  0
  140.4365   77.5932  223.6724 H   0  0  0  0  0  0  0  0  0  0  0  0
  139.8381   79.2103  223.1086 H   0  0  0  0  0  0  0  0  0  0  0  0
  144.4490   74.5050  219.5220 C   0  0  0  0  0  0  0  0  0  0  0  0
  144.9410   74.4950  220.8370 C   0  0  0  0  0  0  0  0  0  0  0  0
  144.7164   75.3338  221.5123 H   0  0  0  0  0  0  0  0  0  0  0  0
  145.7140   73.4250  221.2910 C   0  0  0  0  0  0  0  0  0  0  0  0
  146.0835   73.4168  222.3270 H   0  0  0  0  0  0  0  0  0  0  0  0
  146.0200   72.3650  220.4350 C   0  0  0  0  0  0  0  0  0  0  0  0
  146.6194   71.5198  220.8044 H   0  0  0  0  0  0  0  0  0  0  0  0
  145.5690   72.3710  219.1100 C   0  0  0  0  0  0  0  0  0  0  0  0
  145.9290   71.2980  218.2800 O   0  0  0  0  0  0  0  0  0  0  0  0
  145.5340   69.9480  218.4970 C   0  0  0  0  0  0  0  0  0  0  0  0
  145.4766   69.7520  219.5779 H   0  0  0  0  0  0  0  0  0  0  0  0
  144.5480   69.7765  218.0404 H   0  0  0  0  0  0  0  0  0  0  0  0
  146.2720   69.2721  218.0404 H   0  0  0  0  0  0  0  0  0  0  0  0
  144.7800   73.4460  218.6550 C   0  0  0  0  0  0  0  0  0  0  0  0
  144.4202   73.4581  217.6156 H   0  0  0  0  0  0  0  0  0  0  0  0
  1  2  1  0
  2  3  2  0
  3  4  1  0
  3  5  1  0
  5  6  2  0
  6  7  1  0
  7  8  2  0
  8  9  1  0
  8 10  1  0
 10 11  1  0
 10 12  2  0
 12 13  1  0
 12 14  1  0
 14 15  1  0
 14 16  2  0
 16 17  1  0
 17 18  2  0
 17 19  1  0
 19 20  1  0
 20 21  1  0
 20 22  1  0
 20 23  1  0
 23 24  1  0
 23 25  1  0
 25 26  1  0
 25 27  1  0
 25 28  1  0
 28 29  1  0
 28 30  1  0
 28 31  1  0
 31 32  1  0
 31 33  1  0
 31 34  1  0
 34 35  1  0
 34 36  1  0
 34 37  1  0
 37 38  1  0
 37 39  1  0
  2 40  1  0
 40 41  2  0
 41 42  1  0
 41 43  1  0
 43 44  1  0
 43 45  2  0
 45 46  1  0
 45 47  1  0
 47 48  1  0
 48 49  1  0
 49 50  1  0
 49 51  1  0
 49 52  1  0
 47 53  2  0
 53 54  1  0
 19  5  1  0
 37 23  1  0
 53 40  1  0
 16  7  1  0
M  END
>  <UniqueID>  (64) 
74

>  <SMILES>  (64) 
COc1cccc(/C=C/c2nc3ccccc3c(=O)n2CC2CCCCC2)c1

>  <Energy>  (64) 
74.32562762985688

>  <Genealogy>  (64) 
COc1cccc(/C=C/c2nc3ccccc3c(=O)n2CC2CCCCC2)c1 (cis-trans isomerization)
COc1cccc(/C=C/c2nc3ccccc3c(=O)n2CC2CCCCC2)c1 (3D coordinates assigned)
COc1cccc(/C=C/c2nc3ccccc3c(=O)n2CC2CCCCC2)c1 (nonaromatic ring conformer: 74.32562762985688 kcal/mol)

>  <smiles>  (64) 
COc1cccc(/C=C/c2nc3ccccc3c(=O)n2CC2CCCCC2)c1

>  <score_type>  (64) 
oracle

>  <origin>  (64) 
autodockgpu

>  <m_score__min__energy>  (64) 
-7.3499999999999996

>  <m_primary>  (64) 
energy

>  <meeko>  (64) 
{"free_energy": -7.04, "intermolecular_energy": -8.83, "internal_energy": -1.44, "cluster_size": 1, "cluster_id": 7, "rank_in_cluster": 1}

>  <energy>  (64) 
-7.31

>  <cluster_rmsd>  (64) 
0.0

>  <rmsd>  (64) 
270.37

>  <cluster>  (64) 
3

$$$$
SDBQQCBUKDXRSS-CCEZHUSRNA-N
     RDKit          3D

 54 57  0  0  0  0  0  0  0  0999 V2000
  137.7872   72.6353  222.1155 H   0  0  0  0  0  0  0  0  0  0  0  0
  138.8730   72.4750  222.0420 C   0  0  0  0  0  0  0  0  0  0  0  0
  139.3510   71.2310  222.1770 C   0  0  0  0  0  0  0  0  0  0  0  0
  139.5224   70.6199  221.2785 H   0  0  0  0  0  0  0  0  0  0  0  0
  139.6540   70.6600  223.5110 C   0  0  0  0  0  0  0  0  0  0  0  0
  140.2300   71.4840  224.4260 N   0  0  0  0  0  0  0  0  0  0  0  0
  140.4830   71.0860  225.6930 C   0  0  0  0  0  0  0  0  0  0  0  0
  141.0770   71.9720  226.6000 C   0  0  0  0  0  0  0  0  0  0  0  0
  141.3634   72.9827  226.2738 H   0  0  0  0  0  0  0  0  0  0  0  0
  141.3060   71.5730  227.9190 C   0  0  0  0  0  0  0  0  0  0  0  0
  141.7737   72.2697  228.6302 H   0  0  0  0  0  0  0  0  0  0  0  0
  140.9420   70.2910  228.3360 C   0  0  0  0  0  0  0  0  0  0  0  0
  141.1168   69.9817  229.3770 H   0  0  0  0  0  0  0  0  0  0  0  0
  140.3550   69.3990  227.4310 C   0  0  0  0  0  0  0  0  0  0  0  0
  140.0741   68.3881  227.7614 H   0  0  0  0  0  0  0  0  0  0  0  0
  140.1230   69.7920  226.0990 C   0  0  0  0  0  0  0  0  0  0  0  0
  139.5450   68.9340  225.1490 C   0  0  0  0  0  0  0  0  0  0  0  0
  139.2080   67.7670  225.5000 O   0  0  0  0  0  0  0  0  0  0  0  0
  139.3460   69.3540  223.8510 N   0  0  0  0  0  0  0  0  0  0  0  0
  138.8360   68.3830  222.8480 C   0  0  0  0  0  0  0  0  0  0  0  0
  139.1999   68.6868  221.8554 H   0  0  0  0  0  0  0  0  0  0  0  0
  139.2050   67.3908  223.1471 H   0  0  0  0  0  0  0  0  0  0  0  0
  137.2870   68.2910  222.7940 C   0  0  0  0  0  0  0  0  0  0  0  0
  137.0693   67.2696  223.1396 H   0  0  0  0  0  0  0  0  0  0  0  0
  136.5720   69.2690  223.7600 C   0  0  0  0  0  0  0  0  0  0  0  0
  136.7175   68.9105  224.7897 H   0  0  0  0  0  0  0  0  0  0  0  0
  137.0130   70.2639  223.5995 H   0  0  0  0  0  0  0  0  0  0  0  0
  135.0540   69.3950  223.4950 C   0  0  0  0  0  0  0  0  0  0  0  0
  134.5297   69.4259  224.4615 H   0  0  0  0  0  0  0  0  0  0  0  0
  134.8941   70.3158  222.9149 H   0  0  0  0  0  0  0  0  0  0  0  0
  134.4970   68.2290  222.6730 C   0  0  0  0  0  0  0  0  0  0  0  0
  134.6344   67.2955  223.2385 H   0  0  0  0  0  0  0  0  0  0  0  0
  133.4303   68.4195  222.4836 H   0  0  0  0  0  0  0  0  0  0  0  0
  135.2140   68.1010  221.3130 C   0  0  0  0  0  0  0  0  0  0  0  0
  135.1045   67.0654  220.9587 H   0  0  0  0  0  0  0  0  0  0  0  0
  134.7465   68.8286  220.6333 H   0  0  0  0  0  0  0  0  0  0  0  0
  136.7200   68.4400  221.3710 C   0  0  0  0  0  0  0  0  0  0  0  0
  137.2638   67.7603  220.6985 H   0  0  0  0  0  0  0  0  0  0  0  0
  136.8458   69.4881  221.0617 H   0  0  0  0  0  0  0  0  0  0  0  0
  139.7490   73.6410  221.7980 C   0  0  0  0  0  0  0  0  0  0  0  0
  140.9840   73.4430  221.1610 C   0  0  0  0  0  0  0  0  0  0  0  0
  141.2898   72.4295  220.8622 H   0  0  0  0  0  0  0  0  0  0  0  0
  141.8260   74.5270  220.9050 C   0  0  0  0  0  0  0  0  0  0  0  0
  142.7847   74.3664  220.3901 H   0  0  0  0  0  0  0  0  0  0  0  0
  141.4560   75.8140  221.3000 C   0  0  0  0  0  0  0  0  0  0  0  0
  142.1205   76.6638  221.0849 H   0  0  0  0  0  0  0  0  0  0  0  0
  140.2450   76.0300  221.9680 C   0  0  0  0  0  0  0  0  0  0  0  0
  139.9320   77.3370  222.3710 O   0  0  0  0  0  0  0  0  0  0  0  0
  140.8980   78.3260  222.7120 C   0  0  0  0  0  0  0  0  0  0  0  0
  140.9732   78.4030  223.8067 H   0  0  0  0  0  0  0  0  0  0  0  0
  141.8760   78.0419  222.2964 H   0  0  0  0  0  0  0  0  0  0  0  0
  140.5910   79.2971  222.2964 H   0  0  0  0  0  0  0  0  0  0  0  0
  139.3900   74.9380  222.2160 C   0  0  0  0  0  0  0  0  0  0  0  0
  138.4360   75.0989  222.7394 H   0  0  0  0  0  0  0  0  0  0  0  0
  1  2  1  0
  2  3  2  0
  3  4  1  0
  3  5  1  0
  5  6  2  0
  6  7  1  0
  7  8  2  0
  8  9  1  0
  8 10  1  0
 10 11  1  0
 10 12  2  0
 12 13  1  0
 12 14  1  0
 14 15  1  0
 14 16  2  0
 16 17  1  0
 17 18  2  0
 17 19  1  0
 19 20  1  0
 20 21  1  0
 20 22  1  0
 20 23  1  0
 23 24  1  0
 23 25  1  0
 25 26  1  0
 25 27  1  0
 25 28  1  0
 28 29  1  0
 28 30  1  0
 28 31  1  0
 31 32  1  0
 31 33  1  0
 31 34  1  0
 34 35  1  0
 34 36  1  0
 34 37  1  0
 37 38  1  0
 37 39  1  0
  2 40  1  0
 40 41  2  0
 41 42  1  0
 41 43  1  0
 43 44  1  0
 43 45  2  0
 45 46  1  0
 45 47  1  0
 47 48  1  0
 48 49  1  0
 49 50  1  0
 49 51  1  0
 49 52  1  0
 47 53  2  0
 53 54  1  0
 19  5  1  0
 37 23  1  0
 53 40  1  0
 16  7  1  0
M  END
>  <UniqueID>  (65) 
74

>  <SMILES>  (65) 
COc1cccc(/C=C/c2nc3ccccc3c(=O)n2CC2CCCCC2)c1

>  <Energy>  (65) 
74.32562762985688

>  <Genealogy>  (65) 
COc1cccc(/C=C/c2nc3ccccc3c(=O)n2CC2CCCCC2)c1 (cis-trans isomerization)
COc1cccc(/C=C/c2nc3ccccc3c(=O)n2CC2CCCCC2)c1 (3D coordinates assigned)
COc1cccc(/C=C/c2nc3ccccc3c(=O)n2CC2CCCCC2)c1 (nonaromatic ring conformer: 74.32562762985688 kcal/mol)

>  <smiles>  (65) 
COc1cccc(/C=C/c2nc3ccccc3c(=O)n2CC2CCCCC2)c1

>  <score_type>  (65) 
oracle

>  <origin>  (65) 
autodockgpu

>  <m_score__min__energy>  (65) 
-7.3499999999999996

>  <m_primary>  (65) 
energy

>  <meeko>  (65) 
{"free_energy": -7.08, "intermolecular_energy": -8.87, "internal_energy": -1.39, "cluster_size": 2, "cluster_id": 5, "rank_in_cluster": 1}

>  <energy>  (65) 
-7.11

>  <cluster_rmsd>  (65) 
0.25

>  <rmsd>  (65) 
270.4

>  <cluster>  (65) 
3

$$$$
SDBQQCBUKDXRSS-CCEZHUSRNA-N
     RDKit          3D

 54 57  0  0  0  0  0  0  0  0999 V2000
  138.8819   73.1967  221.3984 H   0  0  0  0  0  0  0  0  0  0  0  0
  139.7910   72.8740  221.9270 C   0  0  0  0  0  0  0  0  0  0  0  0
  140.9730   73.3590  221.5290 C   0  0  0  0  0  0  0  0  0  0  0  0
  141.8197   72.6698  221.3940 H   0  0  0  0  0  0  0  0  0  0  0  0
  141.1660   74.8060  221.2660 C   0  0  0  0  0  0  0  0  0  0  0  0
  140.6760   75.6770  222.1870 N   0  0  0  0  0  0  0  0  0  0  0  0
  140.8580   77.0120  222.0820 C   0  0  0  0  0  0  0  0  0  0  0  0
  140.3350   77.8700  223.0570 C   0  0  0  0  0  0  0  0  0  0  0  0
  139.7520   77.4595  223.8946 H   0  0  0  0  0  0  0  0  0  0  0  0
  140.5530   79.2470  222.9670 C   0  0  0  0  0  0  0  0  0  0  0  0
  140.1405   79.9196  223.7335 H   0  0  0  0  0  0  0  0  0  0  0  0
  141.2940   79.7710  221.9050 C   0  0  0  0  0  0  0  0  0  0  0  0
  141.4703   80.8548  221.8401 H   0  0  0  0  0  0  0  0  0  0  0  0
  141.8120   78.9190  220.9240 C   0  0  0  0  0  0  0  0  0  0  0  0
  142.3907   79.3355  220.0864 H   0  0  0  0  0  0  0  0  0  0  0  0
  141.5950   77.5290  221.0050 C   0  0  0  0  0  0  0  0  0  0  0  0
  142.0840   76.6310  220.0430 C   0  0  0  0  0  0  0  0  0  0  0  0
  142.7560   77.0790  219.0700 O   0  0  0  0  0  0  0  0  0  0  0  0
  141.8390   75.2800  220.1540 N   0  0  0  0  0  0  0  0  0  0  0  0
  142.2780   74.3740  219.0590 C   0  0  0  0  0  0  0  0  0  0  0  0
  141.4962   73.6164  218.9018 H   0  0  0  0  0  0  0  0  0  0  0  0
  142.4417   75.0021  218.1709 H   0  0  0  0  0  0  0  0  0  0  0  0
  143.6160   73.6430  219.3470 C   0  0  0  0  0  0  0  0  0  0  0  0
  144.1821   73.7473  218.4097 H   0  0  0  0  0  0  0  0  0  0  0  0
  144.4550   74.3010  220.4700 C   0  0  0  0  0  0  0  0  0  0  0  0
  144.8681   75.2461  220.0878 H   0  0  0  0  0  0  0  0  0  0  0  0
  143.7835   74.4560  221.3274 H   0  0  0  0  0  0  0  0  0  0  0  0
  145.6250   73.4190  220.9620 C   0  0  0  0  0  0  0  0  0  0  0  0
  146.5057   74.0590  221.1196 H   0  0  0  0  0  0  0  0  0  0  0  0
  145.3034   72.9313  221.8941 H   0  0  0  0  0  0  0  0  0  0  0  0
  145.9940   72.3150  219.9670 C   0  0  0  0  0  0  0  0  0  0  0  0
  146.3328   72.7787  219.0288 H   0  0  0  0  0  0  0  0  0  0  0  0
  146.7915   71.7025  220.4129 H   0  0  0  0  0  0  0  0  0  0  0  0
  144.7920   71.3970  219.6660 C   0  0  0  0  0  0  0  0  0  0  0  0
  144.9547   70.9212  218.6877 H   0  0  0  0  0  0  0  0  0  0  0  0
  144.7340   70.6642  220.4843 H   0  0  0  0  0  0  0  0  0  0  0  0
  143.4380   72.1400  219.6280 C   0  0  0  0  0  0  0  0  0  0  0  0
  142.8138   71.7015  218.8355 H   0  0  0  0  0  0  0  0  0  0  0  0
  142.9616   72.0314  220.6135 H   0  0  0  0  0  0  0  0  0  0  0  0
  139.6600   71.9210  223.0500 C   0  0  0  0  0  0  0  0  0  0  0  0
  138.6140   70.9850  223.0310 C   0  0  0  0  0  0  0  0  0  0  0  0
  137.9024   70.9769  222.1922 H   0  0  0  0  0  0  0  0  0  0  0  0
  138.4720   70.0650  224.0700 C   0  0  0  0  0  0  0  0  0  0  0  0
  137.6582   69.3255  224.0402 H   0  0  0  0  0  0  0  0  0  0  0  0
  139.3600   70.0800  225.1480 C   0  0  0  0  0  0  0  0  0  0  0  0
  139.2495   69.3429  225.9570 H   0  0  0  0  0  0  0  0  0  0  0  0
  140.3890   71.0260  225.2060 C   0  0  0  0  0  0  0  0  0  0  0  0
  141.2360   71.0200  226.3250 O   0  0  0  0  0  0  0  0  0  0  0  0
  141.0750   71.8660  227.4590 C   0  0  0  0  0  0  0  0  0  0  0  0
  141.1879   71.2725  228.3782 H   0  0  0  0  0  0  0  0  0  0  0  0
  141.8386   72.6574  227.4374 H   0  0  0  0  0  0  0  0  0  0  0  0
  140.0740   72.3216  227.4374 H   0  0  0  0  0  0  0  0  0  0  0  0
  140.5380   71.9480  224.1510 C   0  0  0  0  0  0  0  0  0  0  0  0
  141.3455   72.6940  224.1875 H   0  0  0  0  0  0  0  0  0  0  0  0
  1  2  1  0
  2  3  2  0
  3  4  1  0
  3  5  1  0
  5  6  2  0
  6  7  1  0
  7  8  2  0
  8  9  1  0
  8 10  1  0
 10 11  1  0
 10 12  2  0
 12 13  1  0
 12 14  1  0
 14 15  1  0
 14 16  2  0
 16 17  1  0
 17 18  2  0
 17 19  1  0
 19 20  1  0
 20 21  1  0
 20 22  1  0
 20 23  1  0
 23 24  1  0
 23 25  1  0
 25 26  1  0
 25 27  1  0
 25 28  1  0
 28 29  1  0
 28 30  1  0
 28 31  1  0
 31 32  1  0
 31 33  1  0
 31 34  1  0
 34 35  1  0
 34 36  1  0
 34 37  1  0
 37 38  1  0
 37 39  1  0
  2 40  1  0
 40 41  2  0
 41 42  1  0
 41 43  1  0
 43 44  1  0
 43 45  2  0
 45 46  1  0
 45 47  1  0
 47 48  1  0
 48 49  1  0
 49 50  1  0
 49 51  1  0
 49 52  1  0
 47 53  2  0
 53 54  1  0
 19  5  1  0
 37 23  1  0
 53 40  1  0
 16  7  1  0
M  END
>  <UniqueID>  (66) 
74

>  <SMILES>  (66) 
COc1cccc(/C=C/c2nc3ccccc3c(=O)n2CC2CCCCC2)c1

>  <Energy>  (66) 
74.32562762985688

>  <Genealogy>  (66) 
COc1cccc(/C=C/c2nc3ccccc3c(=O)n2CC2CCCCC2)c1 (cis-trans isomerization)
COc1cccc(/C=C/c2nc3ccccc3c(=O)n2CC2CCCCC2)c1 (3D coordinates assigned)
COc1cccc(/C=C/c2nc3ccccc3c(=O)n2CC2CCCCC2)c1 (nonaromatic ring conformer: 74.32562762985688 kcal/mol)

>  <smiles>  (66) 
COc1cccc(/C=C/c2nc3ccccc3c(=O)n2CC2CCCCC2)c1

>  <score_type>  (66) 
oracle

>  <origin>  (66) 
autodockgpu

>  <m_score__min__energy>  (66) 
-7.3499999999999996

>  <m_primary>  (66) 
energy

>  <meeko>  (66) 
{"free_energy": -7.18, "intermolecular_energy": -8.97, "internal_energy": -1.3, "cluster_size": 2, "cluster_id": 4, "rank_in_cluster": 1}

>  <energy>  (66) 
-6.99

>  <cluster_rmsd>  (66) 
1.53

>  <rmsd>  (66) 
270.65

>  <cluster>  (66) 
3

$$$$
SDBQQCBUKDXRSS-CCEZHUSRNA-N
     RDKit          3D

 54 57  0  0  0  0  0  0  0  0999 V2000
  137.0134   73.0250  222.5767 H   0  0  0  0  0  0  0  0  0  0  0  0
  136.9610   72.1120  223.1880 C   0  0  0  0  0  0  0  0  0  0  0  0
  137.8510   71.1370  222.9670 C   0  0  0  0  0  0  0  0  0  0  0  0
  138.0368   70.8017  221.9360 H   0  0  0  0  0  0  0  0  0  0  0  0
  138.5920   70.4990  224.0820 C   0  0  0  0  0  0  0  0  0  0  0  0
  139.3060   71.3140  224.9020 N   0  0  0  0  0  0  0  0  0  0  0  0
  139.9600   70.8470  225.9890 C   0  0  0  0  0  0  0  0  0  0  0  0
  140.6830   71.7260  226.8050 C   0  0  0  0  0  0  0  0  0  0  0  0
  140.7423   72.7933  226.5455 H   0  0  0  0  0  0  0  0  0  0  0  0
  141.3290   71.2490  227.9480 C   0  0  0  0  0  0  0  0  0  0  0  0
  141.8964   71.9409  228.5877 H   0  0  0  0  0  0  0  0  0  0  0  0
  141.2550   69.8950  228.2790 C   0  0  0  0  0  0  0  0  0  0  0  0
  141.7589   69.5227  229.1831 H   0  0  0  0  0  0  0  0  0  0  0  0
  140.5410   69.0100  227.4630 C   0  0  0  0  0  0  0  0  0  0  0  0
  140.4891   67.9429  227.7248 H   0  0  0  0  0  0  0  0  0  0  0  0
  139.8890   69.4820  226.3080 C   0  0  0  0  0  0  0  0  0  0  0  0
  139.1670   68.6360  225.4500 C   0  0  0  0  0  0  0  0  0  0  0  0
  139.0860   67.4050  225.7260 O   0  0  0  0  0  0  0  0  0  0  0  0
  138.5530   69.1370  224.3220 N   0  0  0  0  0  0  0  0  0  0  0  0
  137.8930   68.1940  223.3810 C   0  0  0  0  0  0  0  0  0  0  0  0
  137.4851   67.3537  223.9619 H   0  0  0  0  0  0  0  0  0  0  0  0
  137.1117   68.7621  222.8549 H   0  0  0  0  0  0  0  0  0  0  0  0
  138.8430   67.6220  222.2950 C   0  0  0  0  0  0  0  0  0  0  0  0
  139.7517   67.3504  222.8521 H   0  0  0  0  0  0  0  0  0  0  0  0
  138.3120   66.3330  221.6210 C   0  0  0  0  0  0  0  0  0  0  0  0
  138.3811   65.5075  222.3447 H   0  0  0  0  0  0  0  0  0  0  0  0
  137.2747   66.5316  221.3136 H   0  0  0  0  0  0  0  0  0  0  0  0
  139.0960   65.9360  220.3490 C   0  0  0  0  0  0  0  0  0  0  0  0
  139.2327   64.8445  220.3466 H   0  0  0  0  0  0  0  0  0  0  0  0
  138.5126   66.2758  219.4806 H   0  0  0  0  0  0  0  0  0  0  0  0
  140.4730   66.6020  220.2690 C   0  0  0  0  0  0  0  0  0  0  0  0
  141.0820   66.2667  221.1215 H   0  0  0  0  0  0  0  0  0  0  0  0
  140.9401   66.3139  219.3157 H   0  0  0  0  0  0  0  0  0  0  0  0
  140.3620   68.1390  220.3070 C   0  0  0  0  0  0  0  0  0  0  0  0
  141.3182   68.5472  220.6662 H   0  0  0  0  0  0  0  0  0  0  0  0
  140.1214   68.4687  219.2855 H   0  0  0  0  0  0  0  0  0  0  0  0
  139.2340   68.6590  221.2260 C   0  0  0  0  0  0  0  0  0  0  0  0
  139.5778   69.5754  221.7280 H   0  0  0  0  0  0  0  0  0  0  0  0
  138.3496   68.8574  220.6027 H   0  0  0  0  0  0  0  0  0  0  0  0
  135.9090   72.0080  224.2240 C   0  0  0  0  0  0  0  0  0  0  0  0
  135.4640   70.7360  224.6160 C   0  0  0  0  0  0  0  0  0  0  0  0
  135.8909   69.8379  224.1458 H   0  0  0  0  0  0  0  0  0  0  0  0
  134.4820   70.6050  225.6000 C   0  0  0  0  0  0  0  0  0  0  0  0
  134.1493   69.6043  225.9130 H   0  0  0  0  0  0  0  0  0  0  0  0
  133.9210   71.7410  226.1880 C   0  0  0  0  0  0  0  0  0  0  0  0
  133.1564   71.6297  226.9709 H   0  0  0  0  0  0  0  0  0  0  0  0
  134.3250   73.0200  225.7880 C   0  0  0  0  0  0  0  0  0  0  0  0
  133.7100   74.1300  226.3870 O   0  0  0  0  0  0  0  0  0  0  0  0
  134.2760   75.4360  226.4290 C   0  0  0  0  0  0  0  0  0  0  0  0
  134.4096   75.7442  227.4765 H   0  0  0  0  0  0  0  0  0  0  0  0
  135.2519   75.4292  225.9215 H   0  0  0  0  0  0  0  0  0  0  0  0
  133.6037   76.1435  225.9215 H   0  0  0  0  0  0  0  0  0  0  0  0
  135.3240   73.1510  224.8030 C   0  0  0  0  0  0  0  0  0  0  0  0
  135.6491   74.1523  224.4842 H   0  0  0  0  0  0  0  0  0  0  0  0
  1  2  1  0
  2  3  2  0
  3  4  1  0
  3  5  1  0
  5  6  2  0
  6  7  1  0
  7  8  2  0
  8  9  1  0
  8 10  1  0
 10 11  1  0
 10 12  2  0
 12 13  1  0
 12 14  1  0
 14 15  1  0
 14 16  2  0
 16 17  1  0
 17 18  2  0
 17 19  1  0
 19 20  1  0
 20 21  1  0
 20 22  1  0
 20 23  1  0
 23 24  1  0
 23 25  1  0
 25 26  1  0
 25 27  1  0
 25 28  1  0
 28 29  1  0
 28 30  1  0
 28 31  1  0
 31 32  1  0
 31 33  1  0
 31 34  1  0
 34 35  1  0
 34 36  1  0
 34 37  1  0
 37 38  1  0
 37 39  1  0
  2 40  1  0
 40 41  2  0
 41 42  1  0
 41 43  1  0
 43 44  1  0
 43 45  2  0
 45 46  1  0
 45 47  1  0
 47 48  1  0
 48 49  1  0
 49 50  1  0
 49 51  1  0
 49 52  1  0
 47 53  2  0
 53 54  1  0
 19  5  1  0
 37 23  1  0
 53 40  1  0
 16  7  1  0
M  END
>  <UniqueID>  (67) 
74

>  <SMILES>  (67) 
COc1cccc(/C=C/c2nc3ccccc3c(=O)n2CC2CCCCC2)c1

>  <Energy>  (67) 
74.32562762985688

>  <Genealogy>  (67) 
COc1cccc(/C=C/c2nc3ccccc3c(=O)n2CC2CCCCC2)c1 (cis-trans isomerization)
COc1cccc(/C=C/c2nc3ccccc3c(=O)n2CC2CCCCC2)c1 (3D coordinates assigned)
COc1cccc(/C=C/c2nc3ccccc3c(=O)n2CC2CCCCC2)c1 (nonaromatic ring conformer: 74.32562762985688 kcal/mol)

>  <smiles>  (67) 
COc1cccc(/C=C/c2nc3ccccc3c(=O)n2CC2CCCCC2)c1

>  <score_type>  (67) 
oracle

>  <origin>  (67) 
autodockgpu

>  <m_score__min__energy>  (67) 
-7.3499999999999996

>  <m_primary>  (67) 
energy

>  <meeko>  (67) 
{"free_energy": -7.1, "intermolecular_energy": -8.89, "internal_energy": -1.48, "cluster_size": 2, "cluster_id": 2, "rank_in_cluster": 2}

>  <energy>  (67) 
-7.18

>  <cluster_rmsd>  (67) 
0.0

>  <rmsd>  (67) 
271.02

>  <cluster>  (67) 
4

$$$$
SDBQQCBUKDXRSS-CCEZHUSRNA-N
     RDKit          3D

 54 57  0  0  0  0  0  0  0  0999 V2000
  140.3833   70.7882  220.7421 H   0  0  0  0  0  0  0  0  0  0  0  0
  139.9900   71.5260  221.4570 C   0  0  0  0  0  0  0  0  0  0  0  0
  139.0580   71.1380  222.3360 C   0  0  0  0  0  0  0  0  0  0  0  0
  137.9964   71.3125  222.1069 H   0  0  0  0  0  0  0  0  0  0  0  0
  139.4260   70.4780  223.6120 C   0  0  0  0  0  0  0  0  0  0  0  0
  139.9500   71.2630  224.5910 N   0  0  0  0  0  0  0  0  0  0  0  0
  140.2550   70.7790  225.8150 C   0  0  0  0  0  0  0  0  0  0  0  0
  140.7920   71.6270  226.7910 C   0  0  0  0  0  0  0  0  0  0  0  0
  140.9929   72.6818  226.5521 H   0  0  0  0  0  0  0  0  0  0  0  0
  141.0730   71.1350  228.0680 C   0  0  0  0  0  0  0  0  0  0  0  0
  141.4946   71.8027  228.8338 H   0  0  0  0  0  0  0  0  0  0  0  0
  140.8190   69.7960  228.3730 C   0  0  0  0  0  0  0  0  0  0  0  0
  141.0362   69.4120  229.3807 H   0  0  0  0  0  0  0  0  0  0  0  0
  140.2890   68.9420  227.4000 C   0  0  0  0  0  0  0  0  0  0  0  0
  140.0935   67.8873  227.6436 H   0  0  0  0  0  0  0  0  0  0  0  0
  140.0050   69.4290  226.1090 C   0  0  0  0  0  0  0  0  0  0  0  0
  139.4820   68.6140  225.0930 C   0  0  0  0  0  0  0  0  0  0  0  0
  139.2440   67.3980  225.3430 O   0  0  0  0  0  0  0  0  0  0  0  0
  139.2290   69.1280  223.8390 N   0  0  0  0  0  0  0  0  0  0  0  0
  138.7810   68.2090  222.7590 C   0  0  0  0  0  0  0  0  0  0  0  0
  139.3493   68.4431  221.8467 H   0  0  0  0  0  0  0  0  0  0  0  0
  138.9605   67.1841  223.1160 H   0  0  0  0  0  0  0  0  0  0  0  0
  137.2670   68.3150  222.4330 C   0  0  0  0  0  0  0  0  0  0  0  0
  137.2254   69.0239  221.5930 H   0  0  0  0  0  0  0  0  0  0  0  0
  136.6410   66.9840  221.9470 C   0  0  0  0  0  0  0  0  0  0  0  0
  137.0094   66.7759  220.9316 H   0  0  0  0  0  0  0  0  0  0  0  0
  136.9371   66.2051  222.6651 H   0  0  0  0  0  0  0  0  0  0  0  0
  135.0950   67.0080  221.9120 C   0  0  0  0  0  0  0  0  0  0  0  0
  134.7560   66.4954  220.9997 H   0  0  0  0  0  0  0  0  0  0  0  0
  134.7351   66.5036  222.8209 H   0  0  0  0  0  0  0  0  0  0  0  0
  134.5240   68.4280  221.9160 C   0  0  0  0  0  0  0  0  0  0  0  0
  134.8605   68.9507  221.0085 H   0  0  0  0  0  0  0  0  0  0  0  0
  133.4266   68.3576  221.9446 H   0  0  0  0  0  0  0  0  0  0  0  0
  134.9890   69.2230  223.1530 C   0  0  0  0  0  0  0  0  0  0  0  0
  134.9262   70.2962  222.9200 H   0  0  0  0  0  0  0  0  0  0  0  0
  134.3309   68.9355  223.9862 H   0  0  0  0  0  0  0  0  0  0  0  0
  136.4370   68.9020  223.5890 C   0  0  0  0  0  0  0  0  0  0  0  0
  136.9173   69.8283  223.9373 H   0  0  0  0  0  0  0  0  0  0  0  0
  136.3931   68.1522  224.3926 H   0  0  0  0  0  0  0  0  0  0  0  0
  140.5110   72.9100  221.4110 C   0  0  0  0  0  0  0  0  0  0  0  0
  139.7090   73.9560  221.8950 C   0  0  0  0  0  0  0  0  0  0  0  0
  138.7061   73.7385  222.2911 H   0  0  0  0  0  0  0  0  0  0  0  0
  140.1780   75.2700  221.8760 C   0  0  0  0  0  0  0  0  0  0  0  0
  139.5494   76.0820  222.2703 H   0  0  0  0  0  0  0  0  0  0  0  0
  141.4430   75.5580  221.3580 C   0  0  0  0  0  0  0  0  0  0  0  0
  141.8106   76.5948  221.3587 H   0  0  0  0  0  0  0  0  0  0  0  0
  142.2460   74.5360  220.8380 C   0  0  0  0  0  0  0  0  0  0  0  0
  143.4950   74.8800  220.3010 O   0  0  0  0  0  0  0  0  0  0  0  0
  144.6850   74.1180  220.4820 C   0  0  0  0  0  0  0  0  0  0  0  0
  144.8803   73.9929  221.5573 H   0  0  0  0  0  0  0  0  0  0  0  0
  144.5624   73.1300  220.0142 H   0  0  0  0  0  0  0  0  0  0  0  0
  145.5311   74.6427  220.0142 H   0  0  0  0  0  0  0  0  0  0  0  0
  141.7760   73.2080  220.8680 C   0  0  0  0  0  0  0  0  0  0  0  0
  142.4015   72.3981  220.4644 H   0  0  0  0  0  0  0  0  0  0  0  0
  1  2  1  0
  2  3  2  0
  3  4  1  0
  3  5  1  0
  5  6  2  0
  6  7  1  0
  7  8  2  0
  8  9  1  0
  8 10  1  0
 10 11  1  0
 10 12  2  0
 12 13  1  0
 12 14  1  0
 14 15  1  0
 14 16  2  0
 16 17  1  0
 17 18  2  0
 17 19  1  0
 19 20  1  0
 20 21  1  0
 20 22  1  0
 20 23  1  0
 23 24  1  0
 23 25  1  0
 25 26  1  0
 25 27  1  0
 25 28  1  0
 28 29  1  0
 28 30  1  0
 28 31  1  0
 31 32  1  0
 31 33  1  0
 31 34  1  0
 34 35  1  0
 34 36  1  0
 34 37  1  0
 37 38  1  0
 37 39  1  0
  2 40  1  0
 40 41  2  0
 41 42  1  0
 41 43  1  0
 43 44  1  0
 43 45  2  0
 45 46  1  0
 45 47  1  0
 47 48  1  0
 48 49  1  0
 49 50  1  0
 49 51  1  0
 49 52  1  0
 47 53  2  0
 53 54  1  0
 19  5  1  0
 37 23  1  0
 53 40  1  0
 16  7  1  0
M  END
>  <UniqueID>  (68) 
74

>  <SMILES>  (68) 
COc1cccc(/C=C/c2nc3ccccc3c(=O)n2CC2CCCCC2)c1

>  <Energy>  (68) 
74.32562762985688

>  <Genealogy>  (68) 
COc1cccc(/C=C/c2nc3ccccc3c(=O)n2CC2CCCCC2)c1 (cis-trans isomerization)
COc1cccc(/C=C/c2nc3ccccc3c(=O)n2CC2CCCCC2)c1 (3D coordinates assigned)
COc1cccc(/C=C/c2nc3ccccc3c(=O)n2CC2CCCCC2)c1 (nonaromatic ring conformer: 74.32562762985688 kcal/mol)

>  <smiles>  (68) 
COc1cccc(/C=C/c2nc3ccccc3c(=O)n2CC2CCCCC2)c1

>  <score_type>  (68) 
oracle

>  <origin>  (68) 
autodockgpu

>  <m_score__min__energy>  (68) 
-7.3499999999999996

>  <m_primary>  (68) 
energy

>  <meeko>  (68) 
{"free_energy": -7.03, "intermolecular_energy": -8.82, "internal_energy": -1.3, "cluster_size": 2, "cluster_id": 5, "rank_in_cluster": 2}

>  <energy>  (68) 
-7.11

>  <cluster_rmsd>  (68) 
0.74

>  <rmsd>  (68) 
271.14

>  <cluster>  (68) 
4

$$$$
SDBQQCBUKDXRSS-CCEZHUSRNA-N
     RDKit          3D

 54 57  0  0  0  0  0  0  0  0999 V2000
  135.6854   69.8461  222.3378 H   0  0  0  0  0  0  0  0  0  0  0  0
  136.0610   69.6670  223.3560 C   0  0  0  0  0  0  0  0  0  0  0  0
  137.2110   69.0000  223.5090 C   0  0  0  0  0  0  0  0  0  0  0  0
  137.4138   68.1237  222.8758 H   0  0  0  0  0  0  0  0  0  0  0  0
  138.2180   69.4180  224.5150 C   0  0  0  0  0  0  0  0  0  0  0  0
  138.4440   68.5760  225.5580 N   0  0  0  0  0  0  0  0  0  0  0  0
  139.3880   68.8250  226.4920 C   0  0  0  0  0  0  0  0  0  0  0  0
  139.5840   67.9270  227.5480 C   0  0  0  0  0  0  0  0  0  0  0  0
  138.9494   67.0326  227.6338 H   0  0  0  0  0  0  0  0  0  0  0  0
  140.5850   68.1660  228.4930 C   0  0  0  0  0  0  0  0  0  0  0  0
  140.7382   67.4589  229.3216 H   0  0  0  0  0  0  0  0  0  0  0  0
  141.3910   69.3010  228.3870 C   0  0  0  0  0  0  0  0  0  0  0  0
  142.1814   69.4845  229.1297 H   0  0  0  0  0  0  0  0  0  0  0  0
  141.1950   70.2060  227.3370 C   0  0  0  0  0  0  0  0  0  0  0  0
  141.8300   71.1008  227.2584 H   0  0  0  0  0  0  0  0  0  0  0  0
  140.1870   69.9740  226.3810 C   0  0  0  0  0  0  0  0  0  0  0  0
  139.9410   70.8540  225.3150 C   0  0  0  0  0  0  0  0  0  0  0  0
  140.6560   71.8890  225.1970 O   0  0  0  0  0  0  0  0  0  0  0  0
  138.9370   70.5950  224.4070 N   0  0  0  0  0  0  0  0  0  0  0  0
  138.6350   71.6050  223.3580 C   0  0  0  0  0  0  0  0  0  0  0  0
  137.8818   71.1824  222.6767 H   0  0  0  0  0  0  0  0  0  0  0  0
  138.2765   72.5067  223.8761 H   0  0  0  0  0  0  0  0  0  0  0  0
  139.8710   72.0280  222.5190 C   0  0  0  0  0  0  0  0  0  0  0  0
  140.6899   72.0676  223.2524 H   0  0  0  0  0  0  0  0  0  0  0  0
  140.2700   70.9950  221.4360 C   0  0  0  0  0  0  0  0  0  0  0  0
  140.7083   70.1183  221.9352 H   0  0  0  0  0  0  0  0  0  0  0  0
  139.3572   70.7422  220.8767 H   0  0  0  0  0  0  0  0  0  0  0  0
  141.2940   71.5400  220.4150 C   0  0  0  0  0  0  0  0  0  0  0  0
  142.0321   70.7524  220.2030 H   0  0  0  0  0  0  0  0  0  0  0  0
  140.7378   71.8320  219.5120 H   0  0  0  0  0  0  0  0  0  0  0  0
  142.0340   72.7800  220.9210 C   0  0  0  0  0  0  0  0  0  0  0  0
  142.6095   72.5107  221.8189 H   0  0  0  0  0  0  0  0  0  0  0  0
  142.6992   73.1346  220.1200 H   0  0  0  0  0  0  0  0  0  0  0  0
  141.0560   73.9190  221.2760 C   0  0  0  0  0  0  0  0  0  0  0  0
  141.5482   74.5869  221.9983 H   0  0  0  0  0  0  0  0  0  0  0  0
  140.8036   74.4309  220.3357 H   0  0  0  0  0  0  0  0  0  0  0  0
  139.7280   73.4270  221.8930 C   0  0  0  0  0  0  0  0  0  0  0  0
  139.4141   74.1357  222.6735 H   0  0  0  0  0  0  0  0  0  0  0  0
  138.9797   73.3665  221.0891 H   0  0  0  0  0  0  0  0  0  0  0  0
  135.2750   70.1730  224.5030 C   0  0  0  0  0  0  0  0  0  0  0  0
  134.6500   69.2520  225.3580 C   0  0  0  0  0  0  0  0  0  0  0  0
  134.7409   68.1735  225.1614 H   0  0  0  0  0  0  0  0  0  0  0  0
  133.9140   69.6980  226.4560 C   0  0  0  0  0  0  0  0  0  0  0  0
  133.4405   68.9695  227.1306 H   0  0  0  0  0  0  0  0  0  0  0  0
  133.7760   71.0660  226.7020 C   0  0  0  0  0  0  0  0  0  0  0  0
  133.2033   71.4091  227.5762 H   0  0  0  0  0  0  0  0  0  0  0  0
  134.3620   72.0030  225.8430 C   0  0  0  0  0  0  0  0  0  0  0  0
  134.1700   73.3660  226.1140 O   0  0  0  0  0  0  0  0  0  0  0  0
  134.5910   74.4230  225.2580 C   0  0  0  0  0  0  0  0  0  0  0  0
  134.9301   75.2744  225.8663 H   0  0  0  0  0  0  0  0  0  0  0  0
  135.4185   74.0732  224.6232 H   0  0  0  0  0  0  0  0  0  0  0  0
  133.7497   74.7379  224.6232 H   0  0  0  0  0  0  0  0  0  0  0  0
  135.1150   71.5520  224.7410 C   0  0  0  0  0  0  0  0  0  0  0  0
  135.5809   72.2814  224.0621 H   0  0  0  0  0  0  0  0  0  0  0  0
  1  2  1  0
  2  3  2  0
  3  4  1  0
  3  5  1  0
  5  6  2  0
  6  7  1  0
  7  8  2  0
  8  9  1  0
  8 10  1  0
 10 11  1  0
 10 12  2  0
 12 13  1  0
 12 14  1  0
 14 15  1  0
 14 16  2  0
 16 17  1  0
 17 18  2  0
 17 19  1  0
 19 20  1  0
 20 21  1  0
 20 22  1  0
 20 23  1  0
 23 24  1  0
 23 25  1  0
 25 26  1  0
 25 27  1  0
 25 28  1  0
 28 29  1  0
 28 30  1  0
 28 31  1  0
 31 32  1  0
 31 33  1  0
 31 34  1  0
 34 35  1  0
 34 36  1  0
 34 37  1  0
 37 38  1  0
 37 39  1  0
  2 40  1  0
 40 41  2  0
 41 42  1  0
 41 43  1  0
 43 44  1  0
 43 45  2  0
 45 46  1  0
 45 47  1  0
 47 48  1  0
 48 49  1  0
 49 50  1  0
 49 51  1  0
 49 52  1  0
 47 53  2  0
 53 54  1  0
 19  5  1  0
 37 23  1  0
 53 40  1  0
 16  7  1  0
M  END
>  <UniqueID>  (69) 
74

>  <SMILES>  (69) 
COc1cccc(/C=C/c2nc3ccccc3c(=O)n2CC2CCCCC2)c1

>  <Energy>  (69) 
74.32562762985688

>  <Genealogy>  (69) 
COc1cccc(/C=C/c2nc3ccccc3c(=O)n2CC2CCCCC2)c1 (cis-trans isomerization)
COc1cccc(/C=C/c2nc3ccccc3c(=O)n2CC2CCCCC2)c1 (3D coordinates assigned)
COc1cccc(/C=C/c2nc3ccccc3c(=O)n2CC2CCCCC2)c1 (nonaromatic ring conformer: 74.32562762985688 kcal/mol)

>  <smiles>  (69) 
COc1cccc(/C=C/c2nc3ccccc3c(=O)n2CC2CCCCC2)c1

>  <score_type>  (69) 
oracle

>  <origin>  (69) 
autodockgpu

>  <m_score__min__energy>  (69) 
-7.3499999999999996

>  <m_primary>  (69) 
energy

>  <meeko>  (69) 
{"free_energy": -6.99, "intermolecular_energy": -8.78, "internal_energy": -1.43, "cluster_size": 3, "cluster_id": 3, "rank_in_cluster": 3}

>  <energy>  (69) 
-7.08

>  <cluster_rmsd>  (69) 
0.0

>  <rmsd>  (69) 
270.38

>  <cluster>  (69) 
5

$$$$
SDBQQCBUKDXRSS-CCEZHUSRNA-N
     RDKit          3D

 54 57  0  0  0  0  0  0  0  0999 V2000
  143.9018   79.7090  222.7739 H   0  0  0  0  0  0  0  0  0  0  0  0
  142.8050   79.7850  222.7400 C   0  0  0  0  0  0  0  0  0  0  0  0
  142.0780   78.9730  223.5190 C   0  0  0  0  0  0  0  0  0  0  0  0
  142.5861   78.3516  224.2711 H   0  0  0  0  0  0  0  0  0  0  0  0
  140.6030   78.8940  223.3890 C   0  0  0  0  0  0  0  0  0  0  0  0
  139.8690   79.8300  224.0460 N   0  0  0  0  0  0  0  0  0  0  0  0
  138.5230   79.8920  223.9400 C   0  0  0  0  0  0  0  0  0  0  0  0
  137.8090   80.8760  224.6360 C   0  0  0  0  0  0  0  0  0  0  0  0
  138.3413   81.5807  225.2918 H   0  0  0  0  0  0  0  0  0  0  0  0
  136.4220   80.9630  224.4980 C   0  0  0  0  0  0  0  0  0  0  0  0
  135.8628   81.7357  225.0460 H   0  0  0  0  0  0  0  0  0  0  0  0
  135.7440   80.0700  223.6650 C   0  0  0  0  0  0  0  0  0  0  0  0
  134.6524   80.1452  223.5521 H   0  0  0  0  0  0  0  0  0  0  0  0
  136.4510   79.0800  222.9740 C   0  0  0  0  0  0  0  0  0  0  0  0
  135.9130   78.3747  222.3235 H   0  0  0  0  0  0  0  0  0  0  0  0
  137.8500   78.9840  223.1090 C   0  0  0  0  0  0  0  0  0  0  0  0
  138.6060   78.0040  222.4450 C   0  0  0  0  0  0  0  0  0  0  0  0
  138.0170   77.1830  221.6870 O   0  0  0  0  0  0  0  0  0  0  0  0
  139.9720   77.9370  222.6140 N   0  0  0  0  0  0  0  0  0  0  0  0
  140.7230   76.8200  221.9830 C   0  0  0  0  0  0  0  0  0  0  0  0
  141.4888   76.4733  222.6925 H   0  0  0  0  0  0  0  0  0  0  0  0
  139.9879   76.0388  221.7394 H   0  0  0  0  0  0  0  0  0  0  0  0
  141.4270   77.2060  220.6540 C   0  0  0  0  0  0  0  0  0  0  0  0
  142.0632   78.0605  220.9281 H   0  0  0  0  0  0  0  0  0  0  0  0
  142.3560   76.1000  220.0980 C   0  0  0  0  0  0  0  0  0  0  0  0
  143.2477   76.0392  220.7392 H   0  0  0  0  0  0  0  0  0  0  0  0
  141.7794   75.1632  220.0962 H   0  0  0  0  0  0  0  0  0  0  0  0
  142.8150   76.3550  218.6440 C   0  0  0  0  0  0  0  0  0  0  0  0
  143.8773   76.0827  218.5577 H   0  0  0  0  0  0  0  0  0  0  0  0
  142.1826   75.7428  217.9843 H   0  0  0  0  0  0  0  0  0  0  0  0
  142.6480   77.8160  218.2180 C   0  0  0  0  0  0  0  0  0  0  0  0
  143.2824   78.4486  218.8562 H   0  0  0  0  0  0  0  0  0  0  0  0
  142.9431   77.9022  217.1618 H   0  0  0  0  0  0  0  0  0  0  0  0
  141.1840   78.2820  218.3490 C   0  0  0  0  0  0  0  0  0  0  0  0
  141.1757   79.3774  218.4492 H   0  0  0  0  0  0  0  0  0  0  0  0
  140.6553   77.9395  217.4473 H   0  0  0  0  0  0  0  0  0  0  0  0
  140.4460   77.6750  219.5640 C   0  0  0  0  0  0  0  0  0  0  0  0
  139.7771   78.4367  219.9910 H   0  0  0  0  0  0  0  0  0  0  0  0
  139.8779   76.7996  219.2162 H   0  0  0  0  0  0  0  0  0  0  0  0
  142.1880   80.7800  221.8360 C   0  0  0  0  0  0  0  0  0  0  0  0
  141.5940   81.9250  222.3880 C   0  0  0  0  0  0  0  0  0  0  0  0
  141.5837   82.0639  223.4792 H   0  0  0  0  0  0  0  0  0  0  0  0
  141.0160   82.8890  221.5600 C   0  0  0  0  0  0  0  0  0  0  0  0
  140.5666   83.7917  221.9995 H   0  0  0  0  0  0  0  0  0  0  0  0
  141.0070   82.7100  220.1750 C   0  0  0  0  0  0  0  0  0  0  0  0
  140.5604   83.4794  219.5280 H   0  0  0  0  0  0  0  0  0  0  0  0
  141.5620   81.5590  219.6040 C   0  0  0  0  0  0  0  0  0  0  0  0
  141.5010   81.4120  218.2100 O   0  0  0  0  0  0  0  0  0  0  0  0
  142.6400   81.3050  217.3630 C   0  0  0  0  0  0  0  0  0  0  0  0
  143.5478   81.2197  217.9783 H   0  0  0  0  0  0  0  0  0  0  0  0
  142.5422   80.4121  216.7281 H   0  0  0  0  0  0  0  0  0  0  0  0
  142.7102   82.2005  216.7281 H   0  0  0  0  0  0  0  0  0  0  0  0
  142.1550   80.5930  220.4400 C   0  0  0  0  0  0  0  0  0  0  0  0
  142.5955   79.6862  219.9999 H   0  0  0  0  0  0  0  0  0  0  0  0
  1  2  1  0
  2  3  2  0
  3  4  1  0
  3  5  1  0
  5  6  2  0
  6  7  1  0
  7  8  2  0
  8  9  1  0
  8 10  1  0
 10 11  1  0
 10 12  2  0
 12 13  1  0
 12 14  1  0
 14 15  1  0
 14 16  2  0
 16 17  1  0
 17 18  2  0
 17 19  1  0
 19 20  1  0
 20 21  1  0
 20 22  1  0
 20 23  1  0
 23 24  1  0
 23 25  1  0
 25 26  1  0
 25 27  1  0
 25 28  1  0
 28 29  1  0
 28 30  1  0
 28 31  1  0
 31 32  1  0
 31 33  1  0
 31 34  1  0
 34 35  1  0
 34 36  1  0
 34 37  1  0
 37 38  1  0
 37 39  1  0
  2 40  1  0
 40 41  2  0
 41 42  1  0
 41 43  1  0
 43 44  1  0
 43 45  2  0
 45 46  1  0
 45 47  1  0
 47 48  1  0
 48 49  1  0
 49 50  1  0
 49 51  1  0
 49 52  1  0
 47 53  2  0
 53 54  1  0
 19  5  1  0
 37 23  1  0
 53 40  1  0
 16  7  1  0
M  END
>  <UniqueID>  (70) 
74

>  <SMILES>  (70) 
COc1cccc(/C=C/c2nc3ccccc3c(=O)n2CC2CCCCC2)c1

>  <Energy>  (70) 
74.32562762985688

>  <Genealogy>  (70) 
COc1cccc(/C=C/c2nc3ccccc3c(=O)n2CC2CCCCC2)c1 (cis-trans isomerization)
COc1cccc(/C=C/c2nc3ccccc3c(=O)n2CC2CCCCC2)c1 (3D coordinates assigned)
COc1cccc(/C=C/c2nc3ccccc3c(=O)n2CC2CCCCC2)c1 (nonaromatic ring conformer: 74.32562762985688 kcal/mol)

>  <smiles>  (70) 
COc1cccc(/C=C/c2nc3ccccc3c(=O)n2CC2CCCCC2)c1

>  <score_type>  (70) 
oracle

>  <origin>  (70) 
autodockgpu

>  <m_score__min__energy>  (70) 
-7.3499999999999996

>  <m_primary>  (70) 
energy

>  <meeko>  (70) 
{"free_energy": -6.06, "intermolecular_energy": -7.85, "internal_energy": -2.36, "cluster_size": 3, "cluster_id": 11, "rank_in_cluster": 3}

>  <energy>  (70) 
-7.03

>  <cluster_rmsd>  (70) 
1.59

>  <rmsd>  (70) 
270.19

>  <cluster>  (70) 
5

$$$$
SDBQQCBUKDXRSS-CCEZHUSRNA-N
     RDKit          3D

 54 57  0  0  0  0  0  0  0  0999 V2000
  134.8777   70.1749  222.9018 H   0  0  0  0  0  0  0  0  0  0  0  0
  135.5170   70.4810  223.7430 C   0  0  0  0  0  0  0  0  0  0  0  0
  136.8450   70.3740  223.6140 C   0  0  0  0  0  0  0  0  0  0  0  0
  137.3486   69.4623  223.9678 H   0  0  0  0  0  0  0  0  0  0  0  0
  137.6520   71.4590  223.0040 C   0  0  0  0  0  0  0  0  0  0  0  0
  136.9790   72.4510  222.3640 N   0  0  0  0  0  0  0  0  0  0  0  0
  137.6100   73.5220  221.8340 C   0  0  0  0  0  0  0  0  0  0  0  0
  136.8730   74.5200  221.1850 C   0  0  0  0  0  0  0  0  0  0  0  0
  135.7826   74.4185  221.0812 H   0  0  0  0  0  0  0  0  0  0  0  0
  137.5220   75.6450  220.6690 C   0  0  0  0  0  0  0  0  0  0  0  0
  136.9419   76.4282  220.1591 H   0  0  0  0  0  0  0  0  0  0  0  0
  138.9060   75.7760  220.8000 C   0  0  0  0  0  0  0  0  0  0  0  0
  139.4136   76.6657  220.3991 H   0  0  0  0  0  0  0  0  0  0  0  0
  139.6480   74.7780  221.4400 C   0  0  0  0  0  0  0  0  0  0  0  0
  140.7388   74.8822  221.5360 H   0  0  0  0  0  0  0  0  0  0  0  0
  139.0030   73.6400  221.9620 C   0  0  0  0  0  0  0  0  0  0  0  0
  139.7010   72.6050  222.6050 C   0  0  0  0  0  0  0  0  0  0  0  0
  140.9550   72.6980  222.7350 O   0  0  0  0  0  0  0  0  0  0  0  0
  139.0320   71.5020  223.0910 N   0  0  0  0  0  0  0  0  0  0  0  0
  139.8170   70.3780  223.6660 C   0  0  0  0  0  0  0  0  0  0  0  0
  139.3633   69.4327  223.3335 H   0  0  0  0  0  0  0  0  0  0  0  0
  140.8517   70.4966  223.3121 H   0  0  0  0  0  0  0  0  0  0  0  0
  139.8680   70.3770  225.2180 C   0  0  0  0  0  0  0  0  0  0  0  0
  138.8706   70.7306  225.5182 H   0  0  0  0  0  0  0  0  0  0  0  0
  140.0630   68.9680  225.8320 C   0  0  0  0  0  0  0  0  0  0  0  0
  139.1303   68.3993  225.7032 H   0  0  0  0  0  0  0  0  0  0  0  0
  140.9104   68.5002  225.3094 H   0  0  0  0  0  0  0  0  0  0  0  0
  140.4150   68.9980  227.3370 C   0  0  0  0  0  0  0  0  0  0  0  0
  139.8635   68.1919  227.8430 H   0  0  0  0  0  0  0  0  0  0  0  0
  141.5035   68.8657  227.4251 H   0  0  0  0  0  0  0  0  0  0  0  0
  140.0570   70.3290  228.0040 C   0  0  0  0  0  0  0  0  0  0  0  0
  138.9694   70.4801  227.9389 H   0  0  0  0  0  0  0  0  0  0  0  0
  140.3851   70.2880  229.0531 H   0  0  0  0  0  0  0  0  0  0  0  0
  140.7690   71.5140  227.3210 C   0  0  0  0  0  0  0  0  0  0  0  0
  140.1934   72.4290  227.5245 H   0  0  0  0  0  0  0  0  0  0  0  0
  141.7875   71.5583  227.7340 H   0  0  0  0  0  0  0  0  0  0  0  0
  140.9090   71.3560  225.7900 C   0  0  0  0  0  0  0  0  0  0  0  0
  140.7707   72.3392  225.3166 H   0  0  0  0  0  0  0  0  0  0  0  0
  141.9101   70.9522  225.5784 H   0  0  0  0  0  0  0  0  0  0  0  0
  134.8760   70.9950  224.9730 C   0  0  0  0  0  0  0  0  0  0  0  0
  134.5720   70.0970  226.0080 C   0  0  0  0  0  0  0  0  0  0  0  0
  134.8020   69.0277  225.8905 H   0  0  0  0  0  0  0  0  0  0  0  0
  133.9790   70.5550  227.1860 C   0  0  0  0  0  0  0  0  0  0  0  0
  133.7583   69.8478  227.9992 H   0  0  0  0  0  0  0  0  0  0  0  0
  133.6650   71.9070  227.3360 C   0  0  0  0  0  0  0  0  0  0  0  0
  133.2088   72.2616  228.2720 H   0  0  0  0  0  0  0  0  0  0  0  0
  133.9270   72.8140  226.3030 C   0  0  0  0  0  0  0  0  0  0  0  0
  133.5650   74.1570  226.4890 O   0  0  0  0  0  0  0  0  0  0  0  0
  134.2410   75.2610  225.8950 C   0  0  0  0  0  0  0  0  0  0  0  0
  134.6409   75.9141  226.6847 H   0  0  0  0  0  0  0  0  0  0  0  0
  135.0681   74.8918  225.2708 H   0  0  0  0  0  0  0  0  0  0  0  0
  133.5361   75.8298  225.2708 H   0  0  0  0  0  0  0  0  0  0  0  0
  134.5360   72.3540  225.1190 C   0  0  0  0  0  0  0  0  0  0  0  0
  134.7474   73.0608  224.3031 H   0  0  0  0  0  0  0  0  0  0  0  0
  1  2  1  0
  2  3  2  0
  3  4  1  0
  3  5  1  0
  5  6  2  0
  6  7  1  0
  7  8  2  0
  8  9  1  0
  8 10  1  0
 10 11  1  0
 10 12  2  0
 12 13  1  0
 12 14  1  0
 14 15  1  0
 14 16  2  0
 16 17  1  0
 17 18  2  0
 17 19  1  0
 19 20  1  0
 20 21  1  0
 20 22  1  0
 20 23  1  0
 23 24  1  0
 23 25  1  0
 25 26  1  0
 25 27  1  0
 25 28  1  0
 28 29  1  0
 28 30  1  0
 28 31  1  0
 31 32  1  0
 31 33  1  0
 31 34  1  0
 34 35  1  0
 34 36  1  0
 34 37  1  0
 37 38  1  0
 37 39  1  0
  2 40  1  0
 40 41  2  0
 41 42  1  0
 41 43  1  0
 43 44  1  0
 43 45  2  0
 45 46  1  0
 45 47  1  0
 47 48  1  0
 48 49  1  0
 49 50  1  0
 49 51  1  0
 49 52  1  0
 47 53  2  0
 53 54  1  0
 19  5  1  0
 37 23  1  0
 53 40  1  0
 16  7  1  0
M  END
>  <UniqueID>  (71) 
74

>  <SMILES>  (71) 
COc1cccc(/C=C/c2nc3ccccc3c(=O)n2CC2CCCCC2)c1

>  <Energy>  (71) 
74.32562762985688

>  <Genealogy>  (71) 
COc1cccc(/C=C/c2nc3ccccc3c(=O)n2CC2CCCCC2)c1 (cis-trans isomerization)
COc1cccc(/C=C/c2nc3ccccc3c(=O)n2CC2CCCCC2)c1 (3D coordinates assigned)
COc1cccc(/C=C/c2nc3ccccc3c(=O)n2CC2CCCCC2)c1 (nonaromatic ring conformer: 74.32562762985688 kcal/mol)

>  <smiles>  (71) 
COc1cccc(/C=C/c2nc3ccccc3c(=O)n2CC2CCCCC2)c1

>  <score_type>  (71) 
oracle

>  <origin>  (71) 
autodockgpu

>  <m_score__min__energy>  (71) 
-7.3499999999999996

>  <m_primary>  (71) 
energy

>  <meeko>  (71) 
{"free_energy": -7.35, "intermolecular_energy": -9.14, "internal_energy": -1.42, "cluster_size": 1, "cluster_id": 1, "rank_in_cluster": 1}

>  <energy>  (71) 
-7.06

>  <cluster_rmsd>  (71) 
0.0

>  <rmsd>  (71) 
270.23

>  <cluster>  (71) 
6

$$$$
SDBQQCBUKDXRSS-CCEZHUSRNA-N
     RDKit          3D

 54 57  0  0  0  0  0  0  0  0999 V2000
  143.9169   79.9019  222.8717 H   0  0  0  0  0  0  0  0  0  0  0  0
  142.8240   79.8760  222.7500 C   0  0  0  0  0  0  0  0  0  0  0  0
  142.1200   78.9730  223.4440 C   0  0  0  0  0  0  0  0  0  0  0  0
  142.6494   78.2672  224.1010 H   0  0  0  0  0  0  0  0  0  0  0  0
  140.6420   78.9040  223.3460 C   0  0  0  0  0  0  0  0  0  0  0  0
  139.9290   79.8500  224.0110 N   0  0  0  0  0  0  0  0  0  0  0  0
  138.5810   79.9220  223.9320 C   0  0  0  0  0  0  0  0  0  0  0  0
  137.8900   80.9160  224.6350 C   0  0  0  0  0  0  0  0  0  0  0  0
  138.4413   81.6212  225.2744 H   0  0  0  0  0  0  0  0  0  0  0  0
  136.5000   81.0130  224.5250 C   0  0  0  0  0  0  0  0  0  0  0  0
  135.9581   81.7944  225.0779 H   0  0  0  0  0  0  0  0  0  0  0  0
  135.7990   80.1190  223.7140 C   0  0  0  0  0  0  0  0  0  0  0  0
  134.7058   80.2015  223.6234 H   0  0  0  0  0  0  0  0  0  0  0  0
  136.4840   79.1180  223.0160 C   0  0  0  0  0  0  0  0  0  0  0  0
  135.9273   78.4121  222.3821 H   0  0  0  0  0  0  0  0  0  0  0  0
  137.8840   79.0120  223.1230 C   0  0  0  0  0  0  0  0  0  0  0  0
  138.6190   78.0220  222.4510 C   0  0  0  0  0  0  0  0  0  0  0  0
  138.0080   77.1990  221.7120 O   0  0  0  0  0  0  0  0  0  0  0  0
  139.9880   77.9460  222.5920 N   0  0  0  0  0  0  0  0  0  0  0  0
  140.7180   76.8180  221.9550 C   0  0  0  0  0  0  0  0  0  0  0  0
  141.4758   76.4516  222.6632 H   0  0  0  0  0  0  0  0  0  0  0  0
  139.9687   76.0523  221.7057 H   0  0  0  0  0  0  0  0  0  0  0  0
  141.4310   77.2000  220.6300 C   0  0  0  0  0  0  0  0  0  0  0  0
  142.0529   78.0655  220.9024 H   0  0  0  0  0  0  0  0  0  0  0  0
  142.3790   76.0980  220.0950 C   0  0  0  0  0  0  0  0  0  0  0  0
  143.2642   76.0532  220.7465 H   0  0  0  0  0  0  0  0  0  0  0  0
  141.8134   75.1546  220.0963 H   0  0  0  0  0  0  0  0  0  0  0  0
  142.8510   76.3450  218.6430 C   0  0  0  0  0  0  0  0  0  0  0  0
  143.9173   76.0845  218.5710 H   0  0  0  0  0  0  0  0  0  0  0  0
  142.2324   75.7193  217.9829 H   0  0  0  0  0  0  0  0  0  0  0  0
  142.6720   77.7990  218.2000 C   0  0  0  0  0  0  0  0  0  0  0  0
  143.2923   78.4456  218.8381 H   0  0  0  0  0  0  0  0  0  0  0  0
  142.9775   77.8778  217.1462 H   0  0  0  0  0  0  0  0  0  0  0  0
  141.2010   78.2490  218.3110 C   0  0  0  0  0  0  0  0  0  0  0  0
  141.1789   79.3452  218.3998 H   0  0  0  0  0  0  0  0  0  0  0  0
  140.6861   77.8908  217.4074 H   0  0  0  0  0  0  0  0  0  0  0  0
  140.4570   77.6460  219.5240 C   0  0  0  0  0  0  0  0  0  0  0  0
  139.7744   78.4041  219.9355 H   0  0  0  0  0  0  0  0  0  0  0  0
  139.9035   76.7602  219.1790 H   0  0  0  0  0  0  0  0  0  0  0  0
  142.1880   80.8400  221.8260 C   0  0  0  0  0  0  0  0  0  0  0  0
  141.5930   81.9970  222.3540 C   0  0  0  0  0  0  0  0  0  0  0  0
  141.5972   82.1676  223.4407 H   0  0  0  0  0  0  0  0  0  0  0  0
  140.9960   82.9320  221.5060 C   0  0  0  0  0  0  0  0  0  0  0  0
  140.5454   83.8435  221.9257 H   0  0  0  0  0  0  0  0  0  0  0  0
  140.9690   82.7140  220.1270 C   0  0  0  0  0  0  0  0  0  0  0  0
  140.5071   83.4609  219.4646 H   0  0  0  0  0  0  0  0  0  0  0  0
  141.5260   81.5510  219.5820 C   0  0  0  0  0  0  0  0  0  0  0  0
  141.4470   81.3640  218.1940 O   0  0  0  0  0  0  0  0  0  0  0  0
  142.5740   81.3070  217.3250 C   0  0  0  0  0  0  0  0  0  0  0  0
  143.4961   81.2604  217.9230 H   0  0  0  0  0  0  0  0  0  0  0  0
  142.5028   80.4113  216.6904 H   0  0  0  0  0  0  0  0  0  0  0  0
  142.5935   82.2053  216.6904 H   0  0  0  0  0  0  0  0  0  0  0  0
  142.1380   80.6130  220.4370 C   0  0  0  0  0  0  0  0  0  0  0  0
  142.5796   79.6974  220.0168 H   0  0  0  0  0  0  0  0  0  0  0  0
  1  2  1  0
  2  3  2  0
  3  4  1  0
  3  5  1  0
  5  6  2  0
  6  7  1  0
  7  8  2  0
  8  9  1  0
  8 10  1  0
 10 11  1  0
 10 12  2  0
 12 13  1  0
 12 14  1  0
 14 15  1  0
 14 16  2  0
 16 17  1  0
 17 18  2  0
 17 19  1  0
 19 20  1  0
 20 21  1  0
 20 22  1  0
 20 23  1  0
 23 24  1  0
 23 25  1  0
 25 26  1  0
 25 27  1  0
 25 28  1  0
 28 29  1  0
 28 30  1  0
 28 31  1  0
 31 32  1  0
 31 33  1  0
 31 34  1  0
 34 35  1  0
 34 36  1  0
 34 37  1  0
 37 38  1  0
 37 39  1  0
  2 40  1  0
 40 41  2  0
 41 42  1  0
 41 43  1  0
 43 44  1  0
 43 45  2  0
 45 46  1  0
 45 47  1  0
 47 48  1  0
 48 49  1  0
 49 50  1  0
 49 51  1  0
 49 52  1  0
 47 53  2  0
 53 54  1  0
 19  5  1  0
 37 23  1  0
 53 40  1  0
 16  7  1  0
M  END
>  <UniqueID>  (72) 
74

>  <SMILES>  (72) 
COc1cccc(/C=C/c2nc3ccccc3c(=O)n2CC2CCCCC2)c1

>  <Energy>  (72) 
74.32562762985688

>  <Genealogy>  (72) 
COc1cccc(/C=C/c2nc3ccccc3c(=O)n2CC2CCCCC2)c1 (cis-trans isomerization)
COc1cccc(/C=C/c2nc3ccccc3c(=O)n2CC2CCCCC2)c1 (3D coordinates assigned)
COc1cccc(/C=C/c2nc3ccccc3c(=O)n2CC2CCCCC2)c1 (nonaromatic ring conformer: 74.32562762985688 kcal/mol)

>  <smiles>  (72) 
COc1cccc(/C=C/c2nc3ccccc3c(=O)n2CC2CCCCC2)c1

>  <score_type>  (72) 
oracle

>  <origin>  (72) 
autodockgpu

>  <m_score__min__energy>  (72) 
-7.3499999999999996

>  <m_primary>  (72) 
energy

>  <meeko>  (72) 
{"free_energy": -6.09, "intermolecular_energy": -7.88, "internal_energy": -2.37, "cluster_size": 3, "cluster_id": 11, "rank_in_cluster": 2}

>  <energy>  (72) 
-6.86

>  <cluster_rmsd>  (72) 
1.89

>  <rmsd>  (72) 
270.3

>  <cluster>  (72) 
6

$$$$
SDBQQCBUKDXRSS-CCEZHUSRNA-N
     RDKit          3D

 54 57  0  0  0  0  0  0  0  0999 V2000
  141.6123   72.2273  221.8026 H   0  0  0  0  0  0  0  0  0  0  0  0
  140.6600   72.4040  222.3240 C   0  0  0  0  0  0  0  0  0  0  0  0
  139.8570   73.3810  221.8850 C   0  0  0  0  0  0  0  0  0  0  0  0
  138.7833   73.1785  221.7581 H   0  0  0  0  0  0  0  0  0  0  0  0
  140.3830   74.7300  221.5660 C   0  0  0  0  0  0  0  0  0  0  0  0
  139.9750   75.7600  222.3540 N   0  0  0  0  0  0  0  0  0  0  0  0
  140.4470   77.0170  222.1960 C   0  0  0  0  0  0  0  0  0  0  0  0
  139.9970   78.0450  223.0320 C   0  0  0  0  0  0  0  0  0  0  0  0
  139.2371   77.8361  223.7994 H   0  0  0  0  0  0  0  0  0  0  0  0
  140.5120   79.3370  222.8930 C   0  0  0  0  0  0  0  0  0  0  0  0
  140.1576   80.1438  223.5514 H   0  0  0  0  0  0  0  0  0  0  0  0
  141.4760   79.6040  221.9190 C   0  0  0  0  0  0  0  0  0  0  0  0
  141.8845   80.6200  221.8151 H   0  0  0  0  0  0  0  0  0  0  0  0
  141.9240   78.5810  221.0740 C   0  0  0  0  0  0  0  0  0  0  0  0
  142.6804   78.7962  220.3048 H   0  0  0  0  0  0  0  0  0  0  0  0
  141.4080   77.2770  221.2070 C   0  0  0  0  0  0  0  0  0  0  0  0
  141.8160   76.2180  220.3800 C   0  0  0  0  0  0  0  0  0  0  0  0
  142.6860   76.4330  219.4890 O   0  0  0  0  0  0  0  0  0  0  0  0
  141.2780   74.9580  220.5360 N   0  0  0  0  0  0  0  0  0  0  0  0
  141.6510   73.8900  219.5710 C   0  0  0  0  0  0  0  0  0  0  0  0
  140.9864   73.0286  219.7332 H   0  0  0  0  0  0  0  0  0  0  0  0
  141.5470   74.3185  218.5633 H   0  0  0  0  0  0  0  0  0  0  0  0
  143.1200   73.4070  219.7070 C   0  0  0  0  0  0  0  0  0  0  0  0
  143.5860   73.7030  218.7556 H   0  0  0  0  0  0  0  0  0  0  0  0
  143.9030   74.1090  220.8440 C   0  0  0  0  0  0  0  0  0  0  0  0
  144.1037   75.1468  220.5396 H   0  0  0  0  0  0  0  0  0  0  0  0
  143.2799   74.0533  221.7488 H   0  0  0  0  0  0  0  0  0  0  0  0
  145.2500   73.4270  221.1760 C   0  0  0  0  0  0  0  0  0  0  0  0
  146.0056   74.2073  221.3497 H   0  0  0  0  0  0  0  0  0  0  0  0
  145.0944   72.8037  222.0689 H   0  0  0  0  0  0  0  0  0  0  0  0
  145.7430   72.5100  220.0540 C   0  0  0  0  0  0  0  0  0  0  0  0
  145.9189   73.1132  219.1511 H   0  0  0  0  0  0  0  0  0  0  0  0
  146.6717   72.0247  220.3887 H   0  0  0  0  0  0  0  0  0  0  0  0
  144.7130   71.4090  219.7280 C   0  0  0  0  0  0  0  0  0  0  0  0
  144.8882   71.0635  218.6985 H   0  0  0  0  0  0  0  0  0  0  0  0
  144.8530   70.6083  220.4691 H   0  0  0  0  0  0  0  0  0  0  0  0
  143.2450   71.8780  219.8420 C   0  0  0  0  0  0  0  0  0  0  0  0
  142.6561   71.4010  219.0447 H   0  0  0  0  0  0  0  0  0  0  0  0
  142.8711   71.5912  220.8359 H   0  0  0  0  0  0  0  0  0  0  0  0
  140.3150   71.5530  223.4840 C   0  0  0  0  0  0  0  0  0  0  0  0
  139.5580   70.3900  223.2720 C   0  0  0  0  0  0  0  0  0  0  0  0
  139.2233   70.1320  222.2564 H   0  0  0  0  0  0  0  0  0  0  0  0
  139.2280   69.5590  224.3450 C   0  0  0  0  0  0  0  0  0  0  0  0
  138.6477   68.6412  224.1691 H   0  0  0  0  0  0  0  0  0  0  0  0
  139.6320   69.8890  225.6400 C   0  0  0  0  0  0  0  0  0  0  0  0
  139.3783   69.2231  226.4780 H   0  0  0  0  0  0  0  0  0  0  0  0
  140.3580   71.0620  225.8790 C   0  0  0  0  0  0  0  0  0  0  0  0
  140.7150   71.3660  227.2020 O   0  0  0  0  0  0  0  0  0  0  0  0
  139.9810   70.9460  228.3480 C   0  0  0  0  0  0  0  0  0  0  0  0
  140.5163   71.2523  229.2588 H   0  0  0  0  0  0  0  0  0  0  0  0
  138.9838   71.4102  228.3352 H   0  0  0  0  0  0  0  0  0  0  0  0
  139.8760   69.8511  228.3352 H   0  0  0  0  0  0  0  0  0  0  0  0
  140.7000   71.8940  224.7950 C   0  0  0  0  0  0  0  0  0  0  0  0
  141.2718   72.8165  224.9738 H   0  0  0  0  0  0  0  0  0  0  0  0
  1  2  1  0
  2  3  2  0
  3  4  1  0
  3  5  1  0
  5  6  2  0
  6  7  1  0
  7  8  2  0
  8  9  1  0
  8 10  1  0
 10 11  1  0
 10 12  2  0
 12 13  1  0
 12 14  1  0
 14 15  1  0
 14 16  2  0
 16 17  1  0
 17 18  2  0
 17 19  1  0
 19 20  1  0
 20 21  1  0
 20 22  1  0
 20 23  1  0
 23 24  1  0
 23 25  1  0
 25 26  1  0
 25 27  1  0
 25 28  1  0
 28 29  1  0
 28 30  1  0
 28 31  1  0
 31 32  1  0
 31 33  1  0
 31 34  1  0
 34 35  1  0
 34 36  1  0
 34 37  1  0
 37 38  1  0
 37 39  1  0
  2 40  1  0
 40 41  2  0
 41 42  1  0
 41 43  1  0
 43 44  1  0
 43 45  2  0
 45 46  1  0
 45 47  1  0
 47 48  1  0
 48 49  1  0
 49 50  1  0
 49 51  1  0
 49 52  1  0
 47 53  2  0
 53 54  1  0
 19  5  1  0
 37 23  1  0
 53 40  1  0
 16  7  1  0
M  END
>  <UniqueID>  (73) 
74

>  <SMILES>  (73) 
COc1cccc(/C=C/c2nc3ccccc3c(=O)n2CC2CCCCC2)c1

>  <Energy>  (73) 
74.32562762985688

>  <Genealogy>  (73) 
COc1cccc(/C=C/c2nc3ccccc3c(=O)n2CC2CCCCC2)c1 (cis-trans isomerization)
COc1cccc(/C=C/c2nc3ccccc3c(=O)n2CC2CCCCC2)c1 (3D coordinates assigned)
COc1cccc(/C=C/c2nc3ccccc3c(=O)n2CC2CCCCC2)c1 (nonaromatic ring conformer: 74.32562762985688 kcal/mol)

>  <smiles>  (73) 
COc1cccc(/C=C/c2nc3ccccc3c(=O)n2CC2CCCCC2)c1

>  <score_type>  (73) 
oracle

>  <origin>  (73) 
autodockgpu

>  <m_score__min__energy>  (73) 
-7.3499999999999996

>  <m_primary>  (73) 
energy

>  <meeko>  (73) 
{"free_energy": -7.11, "intermolecular_energy": -8.9, "internal_energy": -1.24, "cluster_size": 2, "cluster_id": 4, "rank_in_cluster": 2}

>  <energy>  (73) 
-7.04

>  <cluster_rmsd>  (73) 
0.0

>  <rmsd>  (73) 
270.69

>  <cluster>  (73) 
7

$$$$
SDBQQCBUKDXRSS-CCEZHUSRNA-N
     RDKit          3D

 54 57  0  0  0  0  0  0  0  0999 V2000
  136.2887   69.2460  221.6347 H   0  0  0  0  0  0  0  0  0  0  0  0
  136.6490   69.2350  222.6740 C   0  0  0  0  0  0  0  0  0  0  0  0
  137.8860   68.7870  222.9220 C   0  0  0  0  0  0  0  0  0  0  0  0
  138.3318   68.0380  222.2510 H   0  0  0  0  0  0  0  0  0  0  0  0
  138.6680   69.2790  224.0820 C   0  0  0  0  0  0  0  0  0  0  0  0
  138.8470   68.4220  225.1220 N   0  0  0  0  0  0  0  0  0  0  0  0
  139.6010   68.7430  226.1970 C   0  0  0  0  0  0  0  0  0  0  0  0
  139.7560   67.8260  227.2430 C   0  0  0  0  0  0  0  0  0  0  0  0
  139.2407   66.8550  227.2033 H   0  0  0  0  0  0  0  0  0  0  0  0
  140.5650   68.1430  228.3380 C   0  0  0  0  0  0  0  0  0  0  0  0
  140.6857   67.4213  229.1593 H   0  0  0  0  0  0  0  0  0  0  0  0
  141.2200   69.3750  228.3900 C   0  0  0  0  0  0  0  0  0  0  0  0
  141.8612   69.6201  229.2495 H   0  0  0  0  0  0  0  0  0  0  0  0
  141.0620   70.2990  227.3500 C   0  0  0  0  0  0  0  0  0  0  0  0
  141.5762   71.2703  227.3964 H   0  0  0  0  0  0  0  0  0  0  0  0
  140.2460   69.9880  226.2440 C   0  0  0  0  0  0  0  0  0  0  0  0
  140.0460   70.8810  225.1800 C   0  0  0  0  0  0  0  0  0  0  0  0
  140.6260   72.0040  225.2030 O   0  0  0  0  0  0  0  0  0  0  0  0
  139.2310   70.5430  224.1210 N   0  0  0  0  0  0  0  0  0  0  0  0
  138.9560   71.5560  223.0690 C   0  0  0  0  0  0  0  0  0  0  0  0
  138.2493   71.1220  222.3464 H   0  0  0  0  0  0  0  0  0  0  0  0
  138.5486   72.4423  223.5775 H   0  0  0  0  0  0  0  0  0  0  0  0
  140.2200   72.0200  222.2980 C   0  0  0  0  0  0  0  0  0  0  0  0
  141.0071   72.0400  223.0661 H   0  0  0  0  0  0  0  0  0  0  0  0
  140.6740   71.0310  221.1960 C   0  0  0  0  0  0  0  0  0  0  0  0
  141.1008   70.1408  221.6811 H   0  0  0  0  0  0  0  0  0  0  0  0
  139.7874   70.7908  220.5908 H   0  0  0  0  0  0  0  0  0  0  0  0
  141.7340   71.6220  220.2370 C   0  0  0  0  0  0  0  0  0  0  0  0
  142.4880   70.8491  220.0268 H   0  0  0  0  0  0  0  0  0  0  0  0
  141.2126   71.9418  219.3227 H   0  0  0  0  0  0  0  0  0  0  0  0
  142.4400   72.8490  220.8190 C   0  0  0  0  0  0  0  0  0  0  0  0
  142.9803   72.5515  221.7298 H   0  0  0  0  0  0  0  0  0  0  0  0
  143.1345   73.2388  220.0602 H   0  0  0  0  0  0  0  0  0  0  0  0
  141.4370   73.9650  221.1740 C   0  0  0  0  0  0  0  0  0  0  0  0
  141.8922   74.6101  221.9399 H   0  0  0  0  0  0  0  0  0  0  0  0
  141.2184   74.5084  220.2429 H   0  0  0  0  0  0  0  0  0  0  0  0
  140.0890   73.4400  221.7170 C   0  0  0  0  0  0  0  0  0  0  0  0
  139.7361   74.1173  222.5086 H   0  0  0  0  0  0  0  0  0  0  0  0
  139.3751   73.4026  220.8809 H   0  0  0  0  0  0  0  0  0  0  0  0
  135.7480   69.7160  223.7450 C   0  0  0  0  0  0  0  0  0  0  0  0
  135.6230   71.0970  223.9590 C   0  0  0  0  0  0  0  0  0  0  0  0
  136.1993   71.8014  223.3412 H   0  0  0  0  0  0  0  0  0  0  0  0
  134.7700   71.5810  224.9530 C   0  0  0  0  0  0  0  0  0  0  0  0
  134.6651   72.6654  225.1046 H   0  0  0  0  0  0  0  0  0  0  0  0
  134.0500   70.6940  225.7550 C   0  0  0  0  0  0  0  0  0  0  0  0
  133.3713   71.0838  226.5280 H   0  0  0  0  0  0  0  0  0  0  0  0
  134.1860   69.3120  225.5820 C   0  0  0  0  0  0  0  0  0  0  0  0
  133.4650   68.4600  226.4330 O   0  0  0  0  0  0  0  0  0  0  0  0
  133.4820   67.0390  226.3500 C   0  0  0  0  0  0  0  0  0  0  0  0
  133.4871   66.6125  227.3640 H   0  0  0  0  0  0  0  0  0  0  0  0
  132.5879   66.6925  225.8110 H   0  0  0  0  0  0  0  0  0  0  0  0
  134.3841   66.7140  225.8110 H   0  0  0  0  0  0  0  0  0  0  0  0
  135.0380   68.8240  224.5710 C   0  0  0  0  0  0  0  0  0  0  0  0
  135.1490   67.7392  224.4263 H   0  0  0  0  0  0  0  0  0  0  0  0
  1  2  1  0
  2  3  2  0
  3  4  1  0
  3  5  1  0
  5  6  2  0
  6  7  1  0
  7  8  2  0
  8  9  1  0
  8 10  1  0
 10 11  1  0
 10 12  2  0
 12 13  1  0
 12 14  1  0
 14 15  1  0
 14 16  2  0
 16 17  1  0
 17 18  2  0
 17 19  1  0
 19 20  1  0
 20 21  1  0
 20 22  1  0
 20 23  1  0
 23 24  1  0
 23 25  1  0
 25 26  1  0
 25 27  1  0
 25 28  1  0
 28 29  1  0
 28 30  1  0
 28 31  1  0
 31 32  1  0
 31 33  1  0
 31 34  1  0
 34 35  1  0
 34 36  1  0
 34 37  1  0
 37 38  1  0
 37 39  1  0
  2 40  1  0
 40 41  2  0
 41 42  1  0
 41 43  1  0
 43 44  1  0
 43 45  2  0
 45 46  1  0
 45 47  1  0
 47 48  1  0
 48 49  1  0
 49 50  1  0
 49 51  1  0
 49 52  1  0
 47 53  2  0
 53 54  1  0
 19  5  1  0
 37 23  1  0
 53 40  1  0
 16  7  1  0
M  END
>  <UniqueID>  (74) 
74

>  <SMILES>  (74) 
COc1cccc(/C=C/c2nc3ccccc3c(=O)n2CC2CCCCC2)c1

>  <Energy>  (74) 
74.32562762985688

>  <Genealogy>  (74) 
COc1cccc(/C=C/c2nc3ccccc3c(=O)n2CC2CCCCC2)c1 (cis-trans isomerization)
COc1cccc(/C=C/c2nc3ccccc3c(=O)n2CC2CCCCC2)c1 (3D coordinates assigned)
COc1cccc(/C=C/c2nc3ccccc3c(=O)n2CC2CCCCC2)c1 (nonaromatic ring conformer: 74.32562762985688 kcal/mol)

>  <smiles>  (74) 
COc1cccc(/C=C/c2nc3ccccc3c(=O)n2CC2CCCCC2)c1

>  <score_type>  (74) 
oracle

>  <origin>  (74) 
autodockgpu

>  <m_score__min__energy>  (74) 
-7.3499999999999996

>  <m_primary>  (74) 
energy

>  <meeko>  (74) 
{"free_energy": -7.31, "intermolecular_energy": -9.1, "internal_energy": -1.56, "cluster_size": 3, "cluster_id": 3, "rank_in_cluster": 1}

>  <energy>  (74) 
-6.82

>  <cluster_rmsd>  (74) 
0.0

>  <rmsd>  (74) 
270.73

>  <cluster>  (74) 
8

$$$$
SDBQQCBUKDXRSS-CCEZHUSRNA-N
     RDKit          3D

 54 57  0  0  0  0  0  0  0  0999 V2000
  136.2453   68.6083  221.7567 H   0  0  0  0  0  0  0  0  0  0  0  0
  136.7360   69.0490  222.6370 C   0  0  0  0  0  0  0  0  0  0  0  0
  138.0740   69.0740  222.6840 C   0  0  0  0  0  0  0  0  0  0  0  0
  138.6493   68.7711  221.7967 H   0  0  0  0  0  0  0  0  0  0  0  0
  138.7970   69.5010  223.9060 C   0  0  0  0  0  0  0  0  0  0  0  0
  138.9080   68.5950  224.9130 N   0  0  0  0  0  0  0  0  0  0  0  0
  139.6060   68.8550  226.0410 C   0  0  0  0  0  0  0  0  0  0  0  0
  139.6910   67.8890  227.0510 C   0  0  0  0  0  0  0  0  0  0  0  0
  139.1657   66.9290  226.9392 H   0  0  0  0  0  0  0  0  0  0  0  0
  140.4430   68.1440  228.2010 C   0  0  0  0  0  0  0  0  0  0  0  0
  140.5100   67.3840  228.9934 H   0  0  0  0  0  0  0  0  0  0  0  0
  141.1090   69.3620  228.3450 C   0  0  0  0  0  0  0  0  0  0  0  0
  141.7052   69.5581  229.2484 H   0  0  0  0  0  0  0  0  0  0  0  0
  141.0200   70.3340  227.3430 C   0  0  0  0  0  0  0  0  0  0  0  0
  141.5425   71.2946  227.4627 H   0  0  0  0  0  0  0  0  0  0  0  0
  140.2630   70.0860  226.1810 C   0  0  0  0  0  0  0  0  0  0  0  0
  140.1330   71.0300  225.1500 C   0  0  0  0  0  0  0  0  0  0  0  0
  140.7250   72.1420  225.2560 O   0  0  0  0  0  0  0  0  0  0  0  0
  139.3730   70.7520  224.0340 N   0  0  0  0  0  0  0  0  0  0  0  0
  139.1690   71.8170  223.0160 C   0  0  0  0  0  0  0  0  0  0  0  0
  138.4249   71.4622  222.2878 H   0  0  0  0  0  0  0  0  0  0  0  0
  138.8359   72.7156  223.5560 H   0  0  0  0  0  0  0  0  0  0  0  0
  140.4600   72.2060  222.2460 C   0  0  0  0  0  0  0  0  0  0  0  0
  141.2318   72.2535  223.0283 H   0  0  0  0  0  0  0  0  0  0  0  0
  140.9130   71.1430  221.2140 C   0  0  0  0  0  0  0  0  0  0  0  0
  141.3079   70.2734  221.7598 H   0  0  0  0  0  0  0  0  0  0  0  0
  140.0338   70.8874  220.6043 H   0  0  0  0  0  0  0  0  0  0  0  0
  142.0060   71.6520  220.2470 C   0  0  0  0  0  0  0  0  0  0  0  0
  142.7458   70.8513  220.1002 H   0  0  0  0  0  0  0  0  0  0  0  0
  141.5112   71.9286  219.3043 H   0  0  0  0  0  0  0  0  0  0  0  0
  142.7290   72.8960  220.7700 C   0  0  0  0  0  0  0  0  0  0  0  0
  143.2443   72.6417  221.7080 H   0  0  0  0  0  0  0  0  0  0  0  0
  143.4473   73.2244  220.0044 H   0  0  0  0  0  0  0  0  0  0  0  0
  141.7450   74.0530  221.0370 C   0  0  0  0  0  0  0  0  0  0  0  0
  142.1996   74.7324  221.7730 H   0  0  0  0  0  0  0  0  0  0  0  0
  141.5577   74.5447  220.0710 H   0  0  0  0  0  0  0  0  0  0  0  0
  140.3750   73.5910  221.5810 C   0  0  0  0  0  0  0  0  0  0  0  0
  140.0226   74.3215  222.3241 H   0  0  0  0  0  0  0  0  0  0  0  0
  139.6775   73.5203  220.7333 H   0  0  0  0  0  0  0  0  0  0  0  0
  135.8930   69.5920  223.7250 C   0  0  0  0  0  0  0  0  0  0  0  0
  135.8720   70.9780  223.9420 C   0  0  0  0  0  0  0  0  0  0  0  0
  136.4853   71.6400  223.3130 H   0  0  0  0  0  0  0  0  0  0  0  0
  135.0760   71.5210  224.9530 C   0  0  0  0  0  0  0  0  0  0  0  0
  135.0527   72.6100  225.1068 H   0  0  0  0  0  0  0  0  0  0  0  0
  134.3100   70.6870  225.7690 C   0  0  0  0  0  0  0  0  0  0  0  0
  133.6770   71.1236  226.5556 H   0  0  0  0  0  0  0  0  0  0  0  0
  134.3420   69.2990  225.5930 C   0  0  0  0  0  0  0  0  0  0  0  0
  133.5780   68.5000  226.4570 O   0  0  0  0  0  0  0  0  0  0  0  0
  133.5630   67.0770  226.4330 C   0  0  0  0  0  0  0  0  0  0  0  0
  133.5590   66.6929  227.4638 H   0  0  0  0  0  0  0  0  0  0  0  0
  132.6611   66.7286  225.9083 H   0  0  0  0  0  0  0  0  0  0  0  0
  134.4573   66.7097  225.9083 H   0  0  0  0  0  0  0  0  0  0  0  0
  135.1370   68.7520  224.5660 C   0  0  0  0  0  0  0  0  0  0  0  0
  135.1674   67.6621  224.4201 H   0  0  0  0  0  0  0  0  0  0  0  0
  1  2  1  0
  2  3  2  0
  3  4  1  0
  3  5  1  0
  5  6  2  0
  6  7  1  0
  7  8  2  0
  8  9  1  0
  8 10  1  0
 10 11  1  0
 10 12  2  0
 12 13  1  0
 12 14  1  0
 14 15  1  0
 14 16  2  0
 16 17  1  0
 17 18  2  0
 17 19  1  0
 19 20  1  0
 20 21  1  0
 20 22  1  0
 20 23  1  0
 23 24  1  0
 23 25  1  0
 25 26  1  0
 25 27  1  0
 25 28  1  0
 28 29  1  0
 28 30  1  0
 28 31  1  0
 31 32  1  0
 31 33  1  0
 31 34  1  0
 34 35  1  0
 34 36  1  0
 34 37  1  0
 37 38  1  0
 37 39  1  0
  2 40  1  0
 40 41  2  0
 41 42  1  0
 41 43  1  0
 43 44  1  0
 43 45  2  0
 45 46  1  0
 45 47  1  0
 47 48  1  0
 48 49  1  0
 49 50  1  0
 49 51  1  0
 49 52  1  0
 47 53  2  0
 53 54  1  0
 19  5  1  0
 37 23  1  0
 53 40  1  0
 16  7  1  0
M  END
>  <UniqueID>  (75) 
74

>  <SMILES>  (75) 
COc1cccc(/C=C/c2nc3ccccc3c(=O)n2CC2CCCCC2)c1

>  <Energy>  (75) 
74.32562762985688

>  <Genealogy>  (75) 
COc1cccc(/C=C/c2nc3ccccc3c(=O)n2CC2CCCCC2)c1 (cis-trans isomerization)
COc1cccc(/C=C/c2nc3ccccc3c(=O)n2CC2CCCCC2)c1 (3D coordinates assigned)
COc1cccc(/C=C/c2nc3ccccc3c(=O)n2CC2CCCCC2)c1 (nonaromatic ring conformer: 74.32562762985688 kcal/mol)

>  <smiles>  (75) 
COc1cccc(/C=C/c2nc3ccccc3c(=O)n2CC2CCCCC2)c1

>  <score_type>  (75) 
oracle

>  <origin>  (75) 
autodockgpu

>  <m_score__min__energy>  (75) 
-7.3499999999999996

>  <m_primary>  (75) 
energy

>  <meeko>  (75) 
{"free_energy": -7.11, "intermolecular_energy": -8.9, "internal_energy": -1.62, "cluster_size": 3, "cluster_id": 3, "rank_in_cluster": 2}

>  <energy>  (75) 
-6.65

>  <cluster_rmsd>  (75) 
0.0

>  <rmsd>  (75) 
270.99

>  <cluster>  (75) 
9

$$$$
SDBQQCBUKDXRSS-CCEZHUSRNA-N
     RDKit          3D

 54 57  0  0  0  0  0  0  0  0999 V2000
  139.2740   73.9313  222.6622 H   0  0  0  0  0  0  0  0  0  0  0  0
  139.7280   72.9960  222.3030 C   0  0  0  0  0  0  0  0  0  0  0  0
  139.0900   71.8420  222.5310 C   0  0  0  0  0  0  0  0  0  0  0  0
  138.3190   71.5039  221.8231 H   0  0  0  0  0  0  0  0  0  0  0  0
  139.4010   71.0090  223.7190 C   0  0  0  0  0  0  0  0  0  0  0  0
  140.0150   71.6210  224.7660 N   0  0  0  0  0  0  0  0  0  0  0  0
  140.2800   70.9740  225.9220 C   0  0  0  0  0  0  0  0  0  0  0  0
  140.9140   71.6470  226.9730 C   0  0  0  0  0  0  0  0  0  0  0  0
  141.2228   72.6953  226.8474 H   0  0  0  0  0  0  0  0  0  0  0  0
  141.1550   70.9880  228.1820 C   0  0  0  0  0  0  0  0  0  0  0  0
  141.6524   71.5185  229.0073 H   0  0  0  0  0  0  0  0  0  0  0  0
  140.7650   69.6570  228.3430 C   0  0  0  0  0  0  0  0  0  0  0  0
  140.9510   69.1420  229.2970 H   0  0  0  0  0  0  0  0  0  0  0  0
  140.1380   68.9770  227.2930 C   0  0  0  0  0  0  0  0  0  0  0  0
  139.8357   67.9273  227.4223 H   0  0  0  0  0  0  0  0  0  0  0  0
  139.8930   69.6330  226.0710 C   0  0  0  0  0  0  0  0  0  0  0  0
  139.2760   68.9940  224.9820 C   0  0  0  0  0  0  0  0  0  0  0  0
  138.9140   67.7890  225.1020 O   0  0  0  0  0  0  0  0  0  0  0  0
  139.0650   69.6690  223.7990 N   0  0  0  0  0  0  0  0  0  0  0  0
  138.5110   68.9290  222.6350 C   0  0  0  0  0  0  0  0  0  0  0  0
  138.0285   68.0123  223.0049 H   0  0  0  0  0  0  0  0  0  0  0  0
  137.8031   69.6054  222.1336 H   0  0  0  0  0  0  0  0  0  0  0  0
  139.5770   68.5290  221.5800 C   0  0  0  0  0  0  0  0  0  0  0  0
  140.5347   68.6887  222.0970 H   0  0  0  0  0  0  0  0  0  0  0  0
  139.5170   67.0370  221.1690 C   0  0  0  0  0  0  0  0  0  0  0  0
  139.8870   66.4294  222.0080 H   0  0  0  0  0  0  0  0  0  0  0  0
  138.4694   66.8111  220.9211 H   0  0  0  0  0  0  0  0  0  0  0  0
  140.3620   66.7090  219.9170 C   0  0  0  0  0  0  0  0  0  0  0  0
  140.8713   65.7475  220.0787 H   0  0  0  0  0  0  0  0  0  0  0  0
  139.6776   66.6686  219.0568 H   0  0  0  0  0  0  0  0  0  0  0  0
  141.4170   67.7770  219.6170 C   0  0  0  0  0  0  0  0  0  0  0  0
  142.1227   67.8286  220.4592 H   0  0  0  0  0  0  0  0  0  0  0  0
  141.9353   67.4981  218.6877 H   0  0  0  0  0  0  0  0  0  0  0  0
  140.7760   69.1650  219.4150 C   0  0  0  0  0  0  0  0  0  0  0  0
  141.5365   69.9322  219.6225 H   0  0  0  0  0  0  0  0  0  0  0  0
  140.4131   69.2033  218.3773 H   0  0  0  0  0  0  0  0  0  0  0  0
  139.5580   69.4260  220.3290 C   0  0  0  0  0  0  0  0  0  0  0  0
  139.5705   70.4792  220.6462 H   0  0  0  0  0  0  0  0  0  0  0  0
  138.6469   69.1951  219.7575 H   0  0  0  0  0  0  0  0  0  0  0  0
  141.0210   73.0620  221.5860 C   0  0  0  0  0  0  0  0  0  0  0  0
  141.8300   71.9160  221.5360 C   0  0  0  0  0  0  0  0  0  0  0  0
  141.5022   70.9920  222.0347 H   0  0  0  0  0  0  0  0  0  0  0  0
  143.0490   71.9440  220.8560 C   0  0  0  0  0  0  0  0  0  0  0  0
  143.6705   71.0377  220.8078 H   0  0  0  0  0  0  0  0  0  0  0  0
  143.4820   73.1180  220.2370 C   0  0  0  0  0  0  0  0  0  0  0  0
  144.4383   73.1282  219.6936 H   0  0  0  0  0  0  0  0  0  0  0  0
  142.7080   74.2820  220.3030 C   0  0  0  0  0  0  0  0  0  0  0  0
  143.2000   75.4440  219.6910 O   0  0  0  0  0  0  0  0  0  0  0  0
  142.5790   76.7230  219.7780 C   0  0  0  0  0  0  0  0  0  0  0  0
  142.4468   76.9952  220.8356 H   0  0  0  0  0  0  0  0  0  0  0  0
  143.2133   77.4730  219.2828 H   0  0  0  0  0  0  0  0  0  0  0  0
  141.5974   76.6884  219.2828 H   0  0  0  0  0  0  0  0  0  0  0  0
  141.4730   74.2510  220.9800 C   0  0  0  0  0  0  0  0  0  0  0  0
  140.8575   75.1610  221.0359 H   0  0  0  0  0  0  0  0  0  0  0  0
  1  2  1  0
  2  3  2  0
  3  4  1  0
  3  5  1  0
  5  6  2  0
  6  7  1  0
  7  8  2  0
  8  9  1  0
  8 10  1  0
 10 11  1  0
 10 12  2  0
 12 13  1  0
 12 14  1  0
 14 15  1  0
 14 16  2  0
 16 17  1  0
 17 18  2  0
 17 19  1  0
 19 20  1  0
 20 21  1  0
 20 22  1  0
 20 23  1  0
 23 24  1  0
 23 25  1  0
 25 26  1  0
 25 27  1  0
 25 28  1  0
 28 29  1  0
 28 30  1  0
 28 31  1  0
 31 32  1  0
 31 33  1  0
 31 34  1  0
 34 35  1  0
 34 36  1  0
 34 37  1  0
 37 38  1  0
 37 39  1  0
  2 40  1  0
 40 41  2  0
 41 42  1  0
 41 43  1  0
 43 44  1  0
 43 45  2  0
 45 46  1  0
 45 47  1  0
 47 48  1  0
 48 49  1  0
 49 50  1  0
 49 51  1  0
 49 52  1  0
 47 53  2  0
 53 54  1  0
 19  5  1  0
 37 23  1  0
 53 40  1  0
 16  7  1  0
M  END
>  <UniqueID>  (76) 
74

>  <SMILES>  (76) 
COc1cccc(/C=C/c2nc3ccccc3c(=O)n2CC2CCCCC2)c1

>  <Energy>  (76) 
74.32562762985688

>  <Genealogy>  (76) 
COc1cccc(/C=C/c2nc3ccccc3c(=O)n2CC2CCCCC2)c1 (cis-trans isomerization)
COc1cccc(/C=C/c2nc3ccccc3c(=O)n2CC2CCCCC2)c1 (3D coordinates assigned)
COc1cccc(/C=C/c2nc3ccccc3c(=O)n2CC2CCCCC2)c1 (nonaromatic ring conformer: 74.32562762985688 kcal/mol)

>  <smiles>  (76) 
COc1cccc(/C=C/c2nc3ccccc3c(=O)n2CC2CCCCC2)c1

>  <score_type>  (76) 
oracle

>  <origin>  (76) 
autodockgpu

>  <m_score__min__energy>  (76) 
-7.3499999999999996

>  <m_primary>  (76) 
energy

>  <meeko>  (76) 
{"free_energy": -6.86, "intermolecular_energy": -8.65, "internal_energy": -1.68, "cluster_size": 2, "cluster_id": 6, "rank_in_cluster": 2}

>  <energy>  (76) 
-6.62

>  <cluster_rmsd>  (76) 
0.0

>  <rmsd>  (76) 
271.85

>  <cluster>  (76) 
10

$$$$
SDBQQCBUKDXRSS-CCEZHUSRNA-N
     RDKit          3D

 54 57  0  0  0  0  0  0  0  0999 V2000
  140.8285   73.6458  221.9936 H   0  0  0  0  0  0  0  0  0  0  0  0
  140.8400   72.5680  221.7740 C   0  0  0  0  0  0  0  0  0  0  0  0
  139.8350   71.8080  222.2260 C   0  0  0  0  0  0  0  0  0  0  0  0
  138.9010   71.7511  221.6477 H   0  0  0  0  0  0  0  0  0  0  0  0
  139.9540   71.0410  223.4900 C   0  0  0  0  0  0  0  0  0  0  0  0
  140.4340   71.7020  224.5760 N   0  0  0  0  0  0  0  0  0  0  0  0
  140.5170   71.1200  225.7930 C   0  0  0  0  0  0  0  0  0  0  0  0
  141.0170   71.8420  226.8830 C   0  0  0  0  0  0  0  0  0  0  0  0
  141.3693   72.8746  226.7431 H   0  0  0  0  0  0  0  0  0  0  0  0
  141.0690   71.2520  228.1490 C   0  0  0  0  0  0  0  0  0  0  0  0
  141.4615   71.8208  229.0048 H   0  0  0  0  0  0  0  0  0  0  0  0
  140.6230   69.9410  228.3280 C   0  0  0  0  0  0  0  0  0  0  0  0
  140.6595   69.4805  229.3263 H   0  0  0  0  0  0  0  0  0  0  0  0
  140.1300   69.2120  227.2410 C   0  0  0  0  0  0  0  0  0  0  0  0
  139.7841   68.1779  227.3859 H   0  0  0  0  0  0  0  0  0  0  0  0
  140.0750   69.7980  225.9610 C   0  0  0  0  0  0  0  0  0  0  0  0
  139.5980   69.1090  224.8350 C   0  0  0  0  0  0  0  0  0  0  0  0
  139.1900   67.9200  224.9700 O   0  0  0  0  0  0  0  0  0  0  0  0
  139.5730   69.7150  223.5970 N   0  0  0  0  0  0  0  0  0  0  0  0
  139.1650   68.9180  222.4110 C   0  0  0  0  0  0  0  0  0  0  0  0
  139.5972   69.3857  221.5141 H   0  0  0  0  0  0  0  0  0  0  0  0
  139.5330   67.8941  222.5725 H   0  0  0  0  0  0  0  0  0  0  0  0
  137.6280   68.8190  222.2180 C   0  0  0  0  0  0  0  0  0  0  0  0
  137.4277   69.4537  221.3422 H   0  0  0  0  0  0  0  0  0  0  0  0
  137.1360   67.3900  221.8770 C   0  0  0  0  0  0  0  0  0  0  0  0
  137.4422   67.1523  220.8476 H   0  0  0  0  0  0  0  0  0  0  0  0
  137.5861   66.7075  222.6130 H   0  0  0  0  0  0  0  0  0  0  0  0
  135.6020   67.2270  221.9820 C   0  0  0  0  0  0  0  0  0  0  0  0
  135.2553   66.6119  221.1385 H   0  0  0  0  0  0  0  0  0  0  0  0
  135.3849   66.7516  222.9499 H   0  0  0  0  0  0  0  0  0  0  0  0
  134.8600   68.5650  221.9490 C   0  0  0  0  0  0  0  0  0  0  0  0
  135.0511   69.0553  220.9830 H   0  0  0  0  0  0  0  0  0  0  0  0
  133.7865   68.3662  222.0835 H   0  0  0  0  0  0  0  0  0  0  0  0
  135.3230   69.5000  223.0850 C   0  0  0  0  0  0  0  0  0  0  0  0
  135.1078   70.5378  222.7905 H   0  0  0  0  0  0  0  0  0  0  0  0
  134.7771   69.2001  223.9917 H   0  0  0  0  0  0  0  0  0  0  0  0
  136.8310   69.3860  223.4060 C   0  0  0  0  0  0  0  0  0  0  0  0
  137.2194   70.3857  223.6504 H   0  0  0  0  0  0  0  0  0  0  0  0
  136.9481   68.6972  224.2556 H   0  0  0  0  0  0  0  0  0  0  0  0
  141.9660   72.0130  220.9900 C   0  0  0  0  0  0  0  0  0  0  0  0
  141.8240   70.7490  220.3960 C   0  0  0  0  0  0  0  0  0  0  0  0
  140.8892   70.1842  220.5269 H   0  0  0  0  0  0  0  0  0  0  0  0
  142.8640   70.2060  219.6400 C   0  0  0  0  0  0  0  0  0  0  0  0
  142.7399   69.2216  219.1651 H   0  0  0  0  0  0  0  0  0  0  0  0
  144.0610   70.9070  219.4840 C   0  0  0  0  0  0  0  0  0  0  0  0
  144.8707   70.4767  218.8764 H   0  0  0  0  0  0  0  0  0  0  0  0
  144.2380   72.1530  220.0950 C   0  0  0  0  0  0  0  0  0  0  0  0
  145.4700   72.8050  219.9340 O   0  0  0  0  0  0  0  0  0  0  0  0
  146.0160   73.7320  220.8670 C   0  0  0  0  0  0  0  0  0  0  0  0
  145.8118   73.3852  221.8907 H   0  0  0  0  0  0  0  0  0  0  0  0
  147.1029   73.8076  220.7155 H   0  0  0  0  0  0  0  0  0  0  0  0
  145.5551   74.7192  220.7155 H   0  0  0  0  0  0  0  0  0  0  0  0
  143.1840   72.7070  220.8490 C   0  0  0  0  0  0  0  0  0  0  0  0
  143.3132   73.6876  221.3305 H   0  0  0  0  0  0  0  0  0  0  0  0
  1  2  1  0
  2  3  2  0
  3  4  1  0
  3  5  1  0
  5  6  2  0
  6  7  1  0
  7  8  2  0
  8  9  1  0
  8 10  1  0
 10 11  1  0
 10 12  2  0
 12 13  1  0
 12 14  1  0
 14 15  1  0
 14 16  2  0
 16 17  1  0
 17 18  2  0
 17 19  1  0
 19 20  1  0
 20 21  1  0
 20 22  1  0
 20 23  1  0
 23 24  1  0
 23 25  1  0
 25 26  1  0
 25 27  1  0
 25 28  1  0
 28 29  1  0
 28 30  1  0
 28 31  1  0
 31 32  1  0
 31 33  1  0
 31 34  1  0
 34 35  1  0
 34 36  1  0
 34 37  1  0
 37 38  1  0
 37 39  1  0
  2 40  1  0
 40 41  2  0
 41 42  1  0
 41 43  1  0
 43 44  1  0
 43 45  2  0
 45 46  1  0
 45 47  1  0
 47 48  1  0
 48 49  1  0
 49 50  1  0
 49 51  1  0
 49 52  1  0
 47 53  2  0
 53 54  1  0
 19  5  1  0
 37 23  1  0
 53 40  1  0
 16  7  1  0
M  END
>  <UniqueID>  (77) 
74

>  <SMILES>  (77) 
COc1cccc(/C=C/c2nc3ccccc3c(=O)n2CC2CCCCC2)c1

>  <Energy>  (77) 
74.32562762985688

>  <Genealogy>  (77) 
COc1cccc(/C=C/c2nc3ccccc3c(=O)n2CC2CCCCC2)c1 (cis-trans isomerization)
COc1cccc(/C=C/c2nc3ccccc3c(=O)n2CC2CCCCC2)c1 (3D coordinates assigned)
COc1cccc(/C=C/c2nc3ccccc3c(=O)n2CC2CCCCC2)c1 (nonaromatic ring conformer: 74.32562762985688 kcal/mol)

>  <smiles>  (77) 
COc1cccc(/C=C/c2nc3ccccc3c(=O)n2CC2CCCCC2)c1

>  <score_type>  (77) 
oracle

>  <origin>  (77) 
autodockgpu

>  <m_score__min__energy>  (77) 
-7.3499999999999996

>  <m_primary>  (77) 
energy

>  <meeko>  (77) 
{"free_energy": -7.06, "intermolecular_energy": -8.85, "internal_energy": -1.35, "cluster_size": 2, "cluster_id": 6, "rank_in_cluster": 1}

>  <energy>  (77) 
-6.4

>  <cluster_rmsd>  (77) 
0.71

>  <rmsd>  (77) 
271.62

>  <cluster>  (77) 
10

$$$$
SDBQQCBUKDXRSS-CCEZHUSRNA-N
     RDKit          3D

 54 57  0  0  0  0  0  0  0  0999 V2000
  143.7784   80.0483  223.2490 H   0  0  0  0  0  0  0  0  0  0  0  0
  142.7320   79.8960  222.9460 C   0  0  0  0  0  0  0  0  0  0  0  0
  142.0490   78.8760  223.4800 C   0  0  0  0  0  0  0  0  0  0  0  0
  142.5958   78.0769  224.0020 H   0  0  0  0  0  0  0  0  0  0  0  0
  140.5710   78.8000  223.3830 C   0  0  0  0  0  0  0  0  0  0  0  0
  139.8560   79.7910  223.9770 N   0  0  0  0  0  0  0  0  0  0  0  0
  138.5090   79.8570  223.8900 C   0  0  0  0  0  0  0  0  0  0  0  0
  137.8160   80.8990  224.5180 C   0  0  0  0  0  0  0  0  0  0  0  0
  138.3658   81.6483  225.1065 H   0  0  0  0  0  0  0  0  0  0  0  0
  136.4270   80.9880  224.3980 C   0  0  0  0  0  0  0  0  0  0  0  0
  135.8841   81.8071  224.8923 H   0  0  0  0  0  0  0  0  0  0  0  0
  135.7270   80.0380  223.6510 C   0  0  0  0  0  0  0  0  0  0  0  0
  134.6341   80.1136  223.5522 H   0  0  0  0  0  0  0  0  0  0  0  0
  136.4140   78.9900  223.0280 C   0  0  0  0  0  0  0  0  0  0  0  0
  135.8587   78.2404  222.4451 H   0  0  0  0  0  0  0  0  0  0  0  0
  137.8140   78.8920  223.1450 C   0  0  0  0  0  0  0  0  0  0  0  0
  138.5510   77.8560  222.5480 C   0  0  0  0  0  0  0  0  0  0  0  0
  137.9410   76.9830  221.8680 O   0  0  0  0  0  0  0  0  0  0  0  0
  139.9190   77.7900  222.6970 N   0  0  0  0  0  0  0  0  0  0  0  0
  140.6500   76.6200  222.1440 C   0  0  0  0  0  0  0  0  0  0  0  0
  141.3635   76.2669  222.9031 H   0  0  0  0  0  0  0  0  0  0  0  0
  139.8943   75.8620  221.8901 H   0  0  0  0  0  0  0  0  0  0  0  0
  141.4350   76.9280  220.8410 C   0  0  0  0  0  0  0  0  0  0  0  0
  142.1692   77.6880  221.1466 H   0  0  0  0  0  0  0  0  0  0  0  0
  142.2260   75.7160  220.2900 C   0  0  0  0  0  0  0  0  0  0  0  0
  143.0837   75.5292  220.9529 H   0  0  0  0  0  0  0  0  0  0  0  0
  141.5314   74.8636  220.2571 H   0  0  0  0  0  0  0  0  0  0  0  0
  142.7550   75.9280  218.8530 C   0  0  0  0  0  0  0  0  0  0  0  0
  143.7745   75.5197  218.7899 H   0  0  0  0  0  0  0  0  0  0  0  0
  142.0662   75.4132  218.1670 H   0  0  0  0  0  0  0  0  0  0  0  0
  142.7930   77.4030  218.4470 C   0  0  0  0  0  0  0  0  0  0  0  0
  143.4871   77.9383  219.1116 H   0  0  0  0  0  0  0  0  0  0  0  0
  143.1259   77.4631  217.4003 H   0  0  0  0  0  0  0  0  0  0  0  0
  141.4000   78.0560  218.5480 C   0  0  0  0  0  0  0  0  0  0  0  0
  141.5330   79.1415  218.6661 H   0  0  0  0  0  0  0  0  0  0  0  0
  140.8562   77.7977  217.6274 H   0  0  0  0  0  0  0  0  0  0  0  0
  140.5550   77.5360  219.7330 C   0  0  0  0  0  0  0  0  0  0  0  0
  139.9800   78.3736  220.1547 H   0  0  0  0  0  0  0  0  0  0  0  0
  139.8872   76.7474  219.3561 H   0  0  0  0  0  0  0  0  0  0  0  0
  142.1330   80.8260  221.9640 C   0  0  0  0  0  0  0  0  0  0  0  0
  141.5490   82.0170  222.4220 C   0  0  0  0  0  0  0  0  0  0  0  0
  141.5340   82.2401  223.4990 H   0  0  0  0  0  0  0  0  0  0  0  0
  140.9870   82.9200  221.5180 C   0  0  0  0  0  0  0  0  0  0  0  0
  140.5443   83.8582  221.8838 H   0  0  0  0  0  0  0  0  0  0  0  0
  140.9850   82.6360  220.1510 C   0  0  0  0  0  0  0  0  0  0  0  0
  140.5521   83.3588  219.4438 H   0  0  0  0  0  0  0  0  0  0  0  0
  141.5300   81.4380  219.6740 C   0  0  0  0  0  0  0  0  0  0  0  0
  141.4760   81.1850  218.2950 O   0  0  0  0  0  0  0  0  0  0  0  0
  142.6190   81.0600  217.4560 C   0  0  0  0  0  0  0  0  0  0  0  0
  143.5211   80.9613  218.0776 H   0  0  0  0  0  0  0  0  0  0  0  0
  142.5120   80.1682  216.8210 H   0  0  0  0  0  0  0  0  0  0  0  0
  142.7072   81.9538  216.8210 H   0  0  0  0  0  0  0  0  0  0  0  0
  142.1070   80.5330  220.5860 C   0  0  0  0  0  0  0  0  0  0  0  0
  142.5405   79.5906  220.2199 H   0  0  0  0  0  0  0  0  0  0  0  0
  1  2  1  0
  2  3  2  0
  3  4  1  0
  3  5  1  0
  5  6  2  0
  6  7  1  0
  7  8  2  0
  8  9  1  0
  8 10  1  0
 10 11  1  0
 10 12  2  0
 12 13  1  0
 12 14  1  0
 14 15  1  0
 14 16  2  0
 16 17  1  0
 17 18  2  0
 17 19  1  0
 19 20  1  0
 20 21  1  0
 20 22  1  0
 20 23  1  0
 23 24  1  0
 23 25  1  0
 25 26  1  0
 25 27  1  0
 25 28  1  0
 28 29  1  0
 28 30  1  0
 28 31  1  0
 31 32  1  0
 31 33  1  0
 31 34  1  0
 34 35  1  0
 34 36  1  0
 34 37  1  0
 37 38  1  0
 37 39  1  0
  2 40  1  0
 40 41  2  0
 41 42  1  0
 41 43  1  0
 43 44  1  0
 43 45  2  0
 45 46  1  0
 45 47  1  0
 47 48  1  0
 48 49  1  0
 49 50  1  0
 49 51  1  0
 49 52  1  0
 47 53  2  0
 53 54  1  0
 19  5  1  0
 37 23  1  0
 53 40  1  0
 16  7  1  0
M  END
>  <UniqueID>  (78) 
74

>  <SMILES>  (78) 
COc1cccc(/C=C/c2nc3ccccc3c(=O)n2CC2CCCCC2)c1

>  <Energy>  (78) 
74.32562762985688

>  <Genealogy>  (78) 
COc1cccc(/C=C/c2nc3ccccc3c(=O)n2CC2CCCCC2)c1 (cis-trans isomerization)
COc1cccc(/C=C/c2nc3ccccc3c(=O)n2CC2CCCCC2)c1 (3D coordinates assigned)
COc1cccc(/C=C/c2nc3ccccc3c(=O)n2CC2CCCCC2)c1 (nonaromatic ring conformer: 74.32562762985688 kcal/mol)

>  <smiles>  (78) 
COc1cccc(/C=C/c2nc3ccccc3c(=O)n2CC2CCCCC2)c1

>  <score_type>  (78) 
oracle

>  <origin>  (78) 
autodockgpu

>  <m_score__min__energy>  (78) 
-7.3499999999999996

>  <m_primary>  (78) 
energy

>  <meeko>  (78) 
{"free_energy": -6.12, "intermolecular_energy": -7.91, "internal_energy": -2.3, "cluster_size": 3, "cluster_id": 11, "rank_in_cluster": 1}

>  <energy>  (78) 
-6.12

>  <cluster_rmsd>  (78) 
0.0

>  <rmsd>  (78) 
271.5

>  <cluster>  (78) 
11

$$$$
SDBQQCBUKDXRSS-CCEZHUSRNA-N
     RDKit          3D

 54 57  0  0  0  0  0  0  0  0999 V2000
  141.5279   74.2491  218.3365 H   0  0  0  0  0  0  0  0  0  0  0  0
  142.2760   74.9220  218.7810 C   0  0  0  0  0  0  0  0  0  0  0  0
  142.0040   76.2310  218.8510 C   0  0  0  0  0  0  0  0  0  0  0  0
  142.1242   76.8547  217.9529 H   0  0  0  0  0  0  0  0  0  0  0  0
  141.5440   76.8580  220.1140 C   0  0  0  0  0  0  0  0  0  0  0  0
  142.2230   77.9520  220.5500 N   0  0  0  0  0  0  0  0  0  0  0  0
  141.8450   78.6410  221.6490 C   0  0  0  0  0  0  0  0  0  0  0  0
  142.5760   79.7630  222.0590 C   0  0  0  0  0  0  0  0  0  0  0  0
  143.4749   80.0665  221.5023 H   0  0  0  0  0  0  0  0  0  0  0  0
  142.1650   80.4970  223.1740 C   0  0  0  0  0  0  0  0  0  0  0  0
  142.7400   81.3785  223.4939 H   0  0  0  0  0  0  0  0  0  0  0  0
  141.0250   80.1130  223.8830 C   0  0  0  0  0  0  0  0  0  0  0  0
  140.6997   80.6959  224.7573 H   0  0  0  0  0  0  0  0  0  0  0  0
  140.2960   78.9880  223.4830 C   0  0  0  0  0  0  0  0  0  0  0  0
  139.4011   78.6858  224.0468 H   0  0  0  0  0  0  0  0  0  0  0  0
  140.7040   78.2410  222.3610 C   0  0  0  0  0  0  0  0  0  0  0  0
  140.0140   77.1000  221.9230 C   0  0  0  0  0  0  0  0  0  0  0  0
  138.9790   76.7300  222.5480 O   0  0  0  0  0  0  0  0  0  0  0  0
  140.4540   76.3900  220.8260 N   0  0  0  0  0  0  0  0  0  0  0  0
  139.7630   75.1260  220.4600 C   0  0  0  0  0  0  0  0  0  0  0  0
  138.6808   75.3203  220.4256 H   0  0  0  0  0  0  0  0  0  0  0  0
  140.1668   74.8117  219.4862 H   0  0  0  0  0  0  0  0  0  0  0  0
  140.0190   73.9590  221.4520 C   0  0  0  0  0  0  0  0  0  0  0  0
  140.5066   74.4421  222.3116 H   0  0  0  0  0  0  0  0  0  0  0  0
  138.7230   73.2900  221.9720 C   0  0  0  0  0  0  0  0  0  0  0  0
  138.2265   73.9844  222.6657 H   0  0  0  0  0  0  0  0  0  0  0  0
  138.1005   73.0627  221.0940 H   0  0  0  0  0  0  0  0  0  0  0  0
  138.9740   71.9550  222.7110 C   0  0  0  0  0  0  0  0  0  0  0  0
  138.3188   71.9132  223.5936 H   0  0  0  0  0  0  0  0  0  0  0  0
  138.7591   71.1397  222.0046 H   0  0  0  0  0  0  0  0  0  0  0  0
  140.4250   71.7960  223.1710 C   0  0  0  0  0  0  0  0  0  0  0  0
  140.6608   72.5940  223.8904 H   0  0  0  0  0  0  0  0  0  0  0  0
  140.5320   70.8044  223.6349 H   0  0  0  0  0  0  0  0  0  0  0  0
  141.4090   71.8830  221.9870 C   0  0  0  0  0  0  0  0  0  0  0  0
  142.3932   72.1849  222.3746 H   0  0  0  0  0  0  0  0  0  0  0  0
  141.4313   70.8904  221.5136 H   0  0  0  0  0  0  0  0  0  0  0  0
  140.9820   72.8940  220.8980 C   0  0  0  0  0  0  0  0  0  0  0  0
  141.8794   73.3950  220.5059 H   0  0  0  0  0  0  0  0  0  0  0  0
  140.4591   72.3405  220.1041 H   0  0  0  0  0  0  0  0  0  0  0  0
  143.5450   74.3460  219.2790 C   0  0  0  0  0  0  0  0  0  0  0  0
  144.2070   74.9780  220.3430 C   0  0  0  0  0  0  0  0  0  0  0  0
  143.7847   75.8926  220.7848 H   0  0  0  0  0  0  0  0  0  0  0  0
  145.3990   74.4510  220.8430 C   0  0  0  0  0  0  0  0  0  0  0  0
  145.9045   74.9434  221.6868 H   0  0  0  0  0  0  0  0  0  0  0  0
  145.9520   73.3010  220.2760 C   0  0  0  0  0  0  0  0  0  0  0  0
  146.8850   72.8851  220.6840 H   0  0  0  0  0  0  0  0  0  0  0  0
  145.3270   72.6740  219.1920 C   0  0  0  0  0  0  0  0  0  0  0  0
  145.9380   71.5390  218.6370 O   0  0  0  0  0  0  0  0  0  0  0  0
  145.4700   70.2070  218.8160 C   0  0  0  0  0  0  0  0  0  0  0  0
  145.3927   69.9869  219.8910 H   0  0  0  0  0  0  0  0  0  0  0  0
  144.4804   70.1000  218.3477 H   0  0  0  0  0  0  0  0  0  0  0  0
  146.1752   69.5046  218.3477 H   0  0  0  0  0  0  0  0  0  0  0  0
  144.1180   73.2000  218.6940 C   0  0  0  0  0  0  0  0  0  0  0  0
  143.6189   72.7127  217.8434 H   0  0  0  0  0  0  0  0  0  0  0  0
  1  2  1  0
  2  3  2  0
  3  4  1  0
  3  5  1  0
  5  6  2  0
  6  7  1  0
  7  8  2  0
  8  9  1  0
  8 10  1  0
 10 11  1  0
 10 12  2  0
 12 13  1  0
 12 14  1  0
 14 15  1  0
 14 16  2  0
 16 17  1  0
 17 18  2  0
 17 19  1  0
 19 20  1  0
 20 21  1  0
 20 22  1  0
 20 23  1  0
 23 24  1  0
 23 25  1  0
 25 26  1  0
 25 27  1  0
 25 28  1  0
 28 29  1  0
 28 30  1  0
 28 31  1  0
 31 32  1  0
 31 33  1  0
 31 34  1  0
 34 35  1  0
 34 36  1  0
 34 37  1  0
 37 38  1  0
 37 39  1  0
  2 40  1  0
 40 41  2  0
 41 42  1  0
 41 43  1  0
 43 44  1  0
 43 45  2  0
 45 46  1  0
 45 47  1  0
 47 48  1  0
 48 49  1  0
 49 50  1  0
 49 51  1  0
 49 52  1  0
 47 53  2  0
 53 54  1  0
 19  5  1  0
 37 23  1  0
 53 40  1  0
 16  7  1  0
M  END
>  <UniqueID>  (79) 
74

>  <SMILES>  (79) 
COc1cccc(/C=C/c2nc3ccccc3c(=O)n2CC2CCCCC2)c1

>  <Energy>  (79) 
74.32562762985688

>  <Genealogy>  (79) 
COc1cccc(/C=C/c2nc3ccccc3c(=O)n2CC2CCCCC2)c1 (cis-trans isomerization)
COc1cccc(/C=C/c2nc3ccccc3c(=O)n2CC2CCCCC2)c1 (3D coordinates assigned)
COc1cccc(/C=C/c2nc3ccccc3c(=O)n2CC2CCCCC2)c1 (nonaromatic ring conformer: 74.32562762985688 kcal/mol)

>  <smiles>  (79) 
COc1cccc(/C=C/c2nc3ccccc3c(=O)n2CC2CCCCC2)c1

>  <score_type>  (79) 
oracle

>  <origin>  (79) 
autodockgpu

>  <m_score__min__energy>  (79) 
-7.3499999999999996

>  <m_primary>  (79) 
energy

>  <meeko>  (79) 
{"free_energy": -6.82, "intermolecular_energy": -8.61, "internal_energy": -1.6, "cluster_size": 1, "cluster_id": 8, "rank_in_cluster": 1}

>  <energy>  (79) 
-6.09

>  <cluster_rmsd>  (79) 
0.24

>  <rmsd>  (79) 
271.49

>  <cluster>  (79) 
11

$$$$
SDBQQCBUKDXRSS-CCEZHUSRNA-N
     RDKit          3D

 54 57  0  0  0  0  0  0  0  0999 V2000
  135.9620   70.6501  222.9497 H   0  0  0  0  0  0  0  0  0  0  0  0
  136.5430   71.5160  223.3000 C   0  0  0  0  0  0  0  0  0  0  0  0
  137.8800   71.4440  223.2840 C   0  0  0  0  0  0  0  0  0  0  0  0
  138.4375   71.9629  222.4903 H   0  0  0  0  0  0  0  0  0  0  0  0
  138.6250   70.6800  224.3130 C   0  0  0  0  0  0  0  0  0  0  0  0
  139.3610   71.3920  225.2070 N   0  0  0  0  0  0  0  0  0  0  0  0
  140.0220   70.8020  226.2270 C   0  0  0  0  0  0  0  0  0  0  0  0
  140.7660   71.5780  227.1230 C   0  0  0  0  0  0  0  0  0  0  0  0
  140.8367   72.6664  226.9798 H   0  0  0  0  0  0  0  0  0  0  0  0
  141.4190   70.9720  228.1990 C   0  0  0  0  0  0  0  0  0  0  0  0
  142.0033   71.5837  228.9022 H   0  0  0  0  0  0  0  0  0  0  0  0
  141.3310   69.5910  228.3830 C   0  0  0  0  0  0  0  0  0  0  0  0
  141.8410   69.1168  229.2345 H   0  0  0  0  0  0  0  0  0  0  0  0
  140.5950   68.8090  227.4860 C   0  0  0  0  0  0  0  0  0  0  0  0
  140.5315   67.7205  227.6314 H   0  0  0  0  0  0  0  0  0  0  0  0
  139.9350   69.4120  226.3970 C   0  0  0  0  0  0  0  0  0  0  0  0
  139.1910   68.6730  225.4630 C   0  0  0  0  0  0  0  0  0  0  0  0
  139.0970   67.4200  225.6060 O   0  0  0  0  0  0  0  0  0  0  0  0
  138.5700   69.3000  224.4050 N   0  0  0  0  0  0  0  0  0  0  0  0
  137.8860   68.4730  223.3760 C   0  0  0  0  0  0  0  0  0  0  0  0
  137.4248   67.6089  223.8767 H   0  0  0  0  0  0  0  0  0  0  0  0
  137.1455   69.1220  222.8856 H   0  0  0  0  0  0  0  0  0  0  0  0
  138.8300   67.9460  222.2630 C   0  0  0  0  0  0  0  0  0  0  0  0
  139.8341   68.2332  222.6084 H   0  0  0  0  0  0  0  0  0  0  0  0
  138.8160   66.4050  222.1140 C   0  0  0  0  0  0  0  0  0  0  0  0
  139.3308   65.9663  222.9815 H   0  0  0  0  0  0  0  0  0  0  0  0
  137.7624   66.0946  222.0543 H   0  0  0  0  0  0  0  0  0  0  0  0
  139.5120   65.9050  220.8270 C   0  0  0  0  0  0  0  0  0  0  0  0
  140.1004   65.0083  221.0712 H   0  0  0  0  0  0  0  0  0  0  0  0
  138.7264   65.6884  220.0881 H   0  0  0  0  0  0  0  0  0  0  0  0
  140.4460   66.9510  220.2140 C   0  0  0  0  0  0  0  0  0  0  0  0
  141.2498   67.1756  220.9306 H   0  0  0  0  0  0  0  0  0  0  0  0
  140.8562   66.5405  219.2795 H   0  0  0  0  0  0  0  0  0  0  0  0
  139.6950   68.2560  219.8790 C   0  0  0  0  0  0  0  0  0  0  0  0
  140.4240   69.0793  219.8529 H   0  0  0  0  0  0  0  0  0  0  0  0
  139.2006   68.1025  218.9084 H   0  0  0  0  0  0  0  0  0  0  0  0
  138.5900   68.6150  220.8970 C   0  0  0  0  0  0  0  0  0  0  0  0
  138.5728   69.7064  221.0334 H   0  0  0  0  0  0  0  0  0  0  0  0
  137.6304   68.2501  220.5021 H   0  0  0  0  0  0  0  0  0  0  0  0
  135.8180   72.7160  223.7710 C   0  0  0  0  0  0  0  0  0  0  0  0
  135.9230   73.9070  223.0360 C   0  0  0  0  0  0  0  0  0  0  0  0
  136.5469   73.9385  222.1306 H   0  0  0  0  0  0  0  0  0  0  0  0
  135.2390   75.0520  223.4490 C   0  0  0  0  0  0  0  0  0  0  0  0
  135.3133   75.9776  222.8593 H   0  0  0  0  0  0  0  0  0  0  0  0
  134.4610   75.0260  224.6080 C   0  0  0  0  0  0  0  0  0  0  0  0
  133.9161   75.9292  224.9198 H   0  0  0  0  0  0  0  0  0  0  0  0
  134.3690   73.8600  225.3760 C   0  0  0  0  0  0  0  0  0  0  0  0
  133.5990   73.8930  226.5480 O   0  0  0  0  0  0  0  0  0  0  0  0
  132.5400   72.9870  226.8390 C   0  0  0  0  0  0  0  0  0  0  0  0
  132.4283   72.8915  227.9291 H   0  0  0  0  0  0  0  0  0  0  0  0
  131.6029   73.3672  226.4064 H   0  0  0  0  0  0  0  0  0  0  0  0
  132.7706   72.0023  226.4064 H   0  0  0  0  0  0  0  0  0  0  0  0
  135.0500   72.7010  224.9530 C   0  0  0  0  0  0  0  0  0  0  0  0
  134.9819   71.7789  225.5489 H   0  0  0  0  0  0  0  0  0  0  0  0
  1  2  1  0
  2  3  2  0
  3  4  1  0
  3  5  1  0
  5  6  2  0
  6  7  1  0
  7  8  2  0
  8  9  1  0
  8 10  1  0
 10 11  1  0
 10 12  2  0
 12 13  1  0
 12 14  1  0
 14 15  1  0
 14 16  2  0
 16 17  1  0
 17 18  2  0
 17 19  1  0
 19 20  1  0
 20 21  1  0
 20 22  1  0
 20 23  1  0
 23 24  1  0
 23 25  1  0
 25 26  1  0
 25 27  1  0
 25 28  1  0
 28 29  1  0
 28 30  1  0
 28 31  1  0
 31 32  1  0
 31 33  1  0
 31 34  1  0
 34 35  1  0
 34 36  1  0
 34 37  1  0
 37 38  1  0
 37 39  1  0
  2 40  1  0
 40 41  2  0
 41 42  1  0
 41 43  1  0
 43 44  1  0
 43 45  2  0
 45 46  1  0
 45 47  1  0
 47 48  1  0
 48 49  1  0
 49 50  1  0
 49 51  1  0
 49 52  1  0
 47 53  2  0
 53 54  1  0
 19  5  1  0
 37 23  1  0
 53 40  1  0
 16  7  1  0
M  END
>  <UniqueID>  (80) 
74

>  <SMILES>  (80) 
COc1cccc(/C=C/c2nc3ccccc3c(=O)n2CC2CCCCC2)c1

>  <Energy>  (80) 
74.32562762985688

>  <Genealogy>  (80) 
COc1cccc(/C=C/c2nc3ccccc3c(=O)n2CC2CCCCC2)c1 (cis-trans isomerization)
COc1cccc(/C=C/c2nc3ccccc3c(=O)n2CC2CCCCC2)c1 (3D coordinates assigned)
COc1cccc(/C=C/c2nc3ccccc3c(=O)n2CC2CCCCC2)c1 (nonaromatic ring conformer: 74.32562762985688 kcal/mol)

>  <smiles>  (80) 
COc1cccc(/C=C/c2nc3ccccc3c(=O)n2CC2CCCCC2)c1

>  <score_type>  (80) 
oracle

>  <origin>  (80) 
autodockgpu

>  <m_score__min__energy>  (80) 
-7.3499999999999996

>  <m_primary>  (80) 
energy

>  <meeko>  (80) 
{"free_energy": -7.33, "intermolecular_energy": -9.12, "internal_energy": -1.18, "cluster_size": 2, "cluster_id": 2, "rank_in_cluster": 1}

>  <energy>  (80) 
-6.06

>  <cluster_rmsd>  (80) 
0.24

>  <rmsd>  (80) 
271.49

>  <cluster>  (80) 
11

$$$$
