
     RDKit          3D

 59 62  0  0  0  0  0  0  0  0999 V2000
  141.0300   72.2670  221.5670 O   0  0  0  0  0  0  0  0  0  0  0  0
  140.1010   72.3230  222.4130 C   0  0  0  0  0  0  0  0  0  0  0  0
  139.0470   73.2750  222.3240 N   0  0  0  0  0  0  0  0  0  0  0  0
  139.0700   74.1990  221.2090 C   0  0  0  0  0  0  0  0  0  0  0  0
  140.3090   75.0340  221.2870 C   0  0  0  0  0  0  0  0  0  0  0  0
  140.5560   75.7150  222.3190 O   0  0  0  0  0  0  0  0  0  0  0  0
  141.1870   75.0230  220.1500 N   0  0  0  0  0  0  0  0  0  0  0  0
  140.9790   74.3390  218.8740 C   0  0  0  0  0  0  0  0  0  0  0  0
  142.3970   74.0370  218.4290 C   0  0  2  0  0  0  0  0  0  0  0  0
  142.8050   72.8640  219.0160 O   0  0  0  0  0  0  0  0  0  0  0  0
  143.1670   75.2560  218.8990 C   0  0  0  0  0  0  0  0  0  0  0  0
  142.4580   75.7310  220.1260 C   0  0  1  0  0  0  0  0  0  0  0  0
  142.1410   77.1810  220.0760 C   0  0  0  0  0  0  0  0  0  0  0  0
  142.1430   77.8410  219.0170 O   0  0  0  0  0  0  0  0  0  0  0  0
  141.8250   77.8070  221.3310 N   0  0  0  0  0  0  0  0  0  0  0  0
  141.5080   79.2250  221.3340 C   0  0  0  0  0  0  0  0  0  0  0  0
  142.4160   79.8810  222.3540 C   0  0  0  0  0  0  0  0  0  0  0  0
  141.9170   81.2660  222.7170 C   0  0  0  0  0  0  0  0  0  0  0  0
  140.6180   81.1520  223.4710 C   0  0  0  0  0  0  0  0  0  0  0  0
  139.9970   79.8050  223.1830 C   0  0  0  0  0  0  0  0  0  0  0  0
  140.0770   79.4800  221.7240 C   0  0  0  0  0  0  0  0  0  0  0  0
  140.0640   71.3980  223.5440 C   0  0  0  0  0  0  0  0  0  0  0  0
  139.5220   70.1180  223.3910 C   0  0  0  0  0  0  0  0  0  0  0  0
  139.4910   69.2390  224.4770 C   0  0  0  0  0  0  0  0  0  0  0  0
  139.9830   69.5970  225.7180 C   0  0  0  0  0  0  0  0  0  0  0  0
  139.9610   68.7410  226.8070 C   0  0  0  0  0  0  0  0  0  0  0  0
  140.4870   69.2190  227.9990 C   0  0  0  0  0  0  0  0  0  0  0  0
  140.4920   68.4250  229.0960 F   0  0  0  0  0  0  0  0  0  0  0  0
  141.0160   70.4910  228.1160 C   0  0  0  0  0  0  0  0  0  0  0  0
  141.0320   71.3370  227.0160 C   0  0  0  0  0  0  0  0  0  0  0  0
  140.5110   70.8790  225.8220 C   0  0  0  0  0  0  0  0  0  0  0  0
  140.5340   71.7110  224.7650 N   0  0  0  0  0  0  0  0  0  0  0  0
  138.2760   73.3160  223.0330 H   0  0  0  0  0  0  0  0  0  0  0  0
  139.0650   73.6356  220.2642 H   0  0  0  0  0  0  0  0  0  0  0  0
  138.1834   74.8489  221.2495 H   0  0  0  0  0  0  0  0  0  0  0  0
  140.3990   73.4141  219.0086 H   0  0  0  0  0  0  0  0  0  0  0  0
  140.4079   74.9334  218.1456 H   0  0  0  0  0  0  0  0  0  0  0  0
  142.5335   73.8808  217.3487 H   0  0  0  0  0  0  0  0  0  0  0  0
  142.2680   72.6230  219.8300 H   0  0  0  0  0  0  0  0  0  0  0  0
  144.2064   74.9855  219.1367 H   0  0  0  0  0  0  0  0  0  0  0  0
  143.2067   76.0359  218.1243 H   0  0  0  0  0  0  0  0  0  0  0  0
  143.0983   75.5512  221.0022 H   0  0  0  0  0  0  0  0  0  0  0  0
  141.8190   77.2740  222.2160 H   0  0  0  0  0  0  0  0  0  0  0  0
  141.6530   79.6312  220.3221 H   0  0  0  0  0  0  0  0  0  0  0  0
  142.4448   79.2601  223.2615 H   0  0  0  0  0  0  0  0  0  0  0  0
  143.4216   79.9747  221.9181 H   0  0  0  0  0  0  0  0  0  0  0  0
  142.6636   81.7707  223.3477 H   0  0  0  0  0  0  0  0  0  0  0  0
  141.7569   81.8496  221.7984 H   0  0  0  0  0  0  0  0  0  0  0  0
  140.8087   81.2467  224.5502 H   0  0  0  0  0  0  0  0  0  0  0  0
  139.9331   81.9519  223.1532 H   0  0  0  0  0  0  0  0  0  0  0  0
  140.5326   79.0322  223.7539 H   0  0  0  0  0  0  0  0  0  0  0  0
  138.9378   79.8364  223.4782 H   0  0  0  0  0  0  0  0  0  0  0  0
  139.4769   78.5817  221.5169 H   0  0  0  0  0  0  0  0  0  0  0  0
  139.6886   80.3288  221.1420 H   0  0  0  0  0  0  0  0  0  0  0  0
  139.1204   69.8032  222.4165 H   0  0  0  0  0  0  0  0  0  0  0  0
  139.0633   68.2348  224.3404 H   0  0  0  0  0  0  0  0  0  0  0  0
  139.5444   67.7258  226.7302 H   0  0  0  0  0  0  0  0  0  0  0  0
  141.4235   70.8318  229.0792 H   0  0  0  0  0  0  0  0  0  0  0  0
  141.4509   72.3511  227.0936 H   0  0  0  0  0  0  0  0  0  0  0  0
  1  2  2  0
  2  3  1  0
  3  4  1  0
  4  5  1  0
  5  6  2  0
  5  7  1  0
  7  8  1  0
  8  9  1  0
  9 10  1  0
  9 11  1  0
 11 12  1  0
 12 13  1  0
 13 14  2  0
 13 15  1  0
 15 16  1  0
 16 17  1  0
 17 18  1  0
 18 19  1  0
 19 20  1  0
 20 21  1  0
  2 22  1  0
 22 23  2  0
 23 24  1  0
 24 25  2  0
 25 26  1  0
 26 27  2  0
 27 28  1  0
 27 29  1  0
 29 30  2  0
 30 31  1  0
 31 32  2  0
 12  7  1  0
 21 16  1  0
 32 22  1  0
 31 25  1  0
  3 33  1  0
  4 34  1  0
  4 35  1  0
  8 36  1  0
  8 37  1  0
  9 38  1  6
 10 39  1  0
 11 40  1  0
 11 41  1  0
 12 42  1  1
 15 43  1  0
 16 44  1  0
 17 45  1  0
 17 46  1  0
 18 47  1  0
 18 48  1  0
 19 49  1  0
 19 50  1  0
 20 51  1  0
 20 52  1  0
 21 53  1  0
 21 54  1  0
 23 55  1  0
 24 56  1  0
 26 57  1  0
 29 58  1  0
 30 59  1  0
M  END
>  <smiles>  (1) 
O=C(NCC(=O)N1C[C@H](O)C[C@H]1C(=O)NC1CCCCC1)c1ccc2cc(F)ccc2n1

>  <score_type>  (1) 
oracle

>  <origin>  (1) 
autodockgpu

>  <m_score__min__energy>  (1) 
-8.9499999999999993

>  <m_primary>  (1) 
energy

>  <meeko>  (1) 
{"free_energy": -8.54, "intermolecular_energy": -10.63, "internal_energy": -3.01, "cluster_size": 12, "cluster_id": 1, "rank_in_cluster": 4}

>  <energy>  (1) 
-8.95

>  <cluster_rmsd>  (1) 
0.0

>  <rmsd>  (1) 
271.29

>  <cluster>  (1) 
1

$$$$

     RDKit          3D

 59 62  0  0  0  0  0  0  0  0999 V2000
  140.8820   72.1170  221.4450 O   0  0  0  0  0  0  0  0  0  0  0  0
  140.0100   72.2140  222.3460 C   0  0  0  0  0  0  0  0  0  0  0  0
  138.9830   73.2000  222.3080 N   0  0  0  0  0  0  0  0  0  0  0  0
  138.9670   74.1080  221.1800 C   0  0  0  0  0  0  0  0  0  0  0  0
  140.1540   75.0150  221.2620 C   0  0  0  0  0  0  0  0  0  0  0  0
  140.3460   75.7260  222.2860 O   0  0  0  0  0  0  0  0  0  0  0  0
  141.0480   75.0380  220.1380 N   0  0  0  0  0  0  0  0  0  0  0  0
  140.8380   74.4310  218.8240 C   0  0  0  0  0  0  0  0  0  0  0  0
  142.2520   74.1080  218.3820 C   0  0  2  0  0  0  0  0  0  0  0  0
  142.6130   72.8910  218.9080 O   0  0  0  0  0  0  0  0  0  0  0  0
  143.0530   75.2730  218.9280 C   0  0  0  0  0  0  0  0  0  0  0  0
  142.3420   75.7030  220.1700 C   0  0  1  0  0  0  0  0  0  0  0  0
  142.0720   77.1640  220.1960 C   0  0  0  0  0  0  0  0  0  0  0  0
  142.0610   77.8710  219.1680 O   0  0  0  0  0  0  0  0  0  0  0  0
  141.8190   77.7420  221.4870 N   0  0  0  0  0  0  0  0  0  0  0  0
  141.5500   79.1670  221.5650 C   0  0  0  0  0  0  0  0  0  0  0  0
  142.5600   79.7580  222.5260 C   0  0  0  0  0  0  0  0  0  0  0  0
  142.1380   81.1440  222.9770 C   0  0  0  0  0  0  0  0  0  0  0  0
  140.9030   81.0420  223.8330 C   0  0  0  0  0  0  0  0  0  0  0  0
  140.2170   79.7250  223.5520 C   0  0  0  0  0  0  0  0  0  0  0  0
  140.1650   79.4510  222.0810 C   0  0  0  0  0  0  0  0  0  0  0  0
  140.0130   71.3050  223.4910 C   0  0  0  0  0  0  0  0  0  0  0  0
  139.5150   70.0050  223.3600 C   0  0  0  0  0  0  0  0  0  0  0  0
  139.5210   69.1410  224.4580 C   0  0  0  0  0  0  0  0  0  0  0  0
  140.0100   69.5330  225.6900 C   0  0  0  0  0  0  0  0  0  0  0  0
  140.0250   68.6940  226.7910 C   0  0  0  0  0  0  0  0  0  0  0  0
  140.5430   69.2070  227.9720 C   0  0  0  0  0  0  0  0  0  0  0  0
  140.5830   68.4300  229.0810 F   0  0  0  0  0  0  0  0  0  0  0  0
  141.0280   70.4970  228.0680 C   0  0  0  0  0  0  0  0  0  0  0  0
  141.0060   71.3270  226.9560 C   0  0  0  0  0  0  0  0  0  0  0  0
  140.4940   70.8340  225.7720 C   0  0  0  0  0  0  0  0  0  0  0  0
  140.4800   71.6520  224.7030 N   0  0  0  0  0  0  0  0  0  0  0  0
  138.2590   73.2750  223.0630 H   0  0  0  0  0  0  0  0  0  0  0  0
  139.0078   73.5323  220.2436 H   0  0  0  0  0  0  0  0  0  0  0  0
  138.0434   74.7052  221.1992 H   0  0  0  0  0  0  0  0  0  0  0  0
  140.2273   73.5193  218.9003 H   0  0  0  0  0  0  0  0  0  0  0  0
  140.2969   75.0821  218.1216 H   0  0  0  0  0  0  0  0  0  0  0  0
  142.4002   74.0073  217.2967 H   0  0  0  0  0  0  0  0  0  0  0  0
  142.0300   72.6050  219.6750 H   0  0  0  0  0  0  0  0  0  0  0  0
  144.0797   74.9561  219.1635 H   0  0  0  0  0  0  0  0  0  0  0  0
  143.1286   76.0924  218.1980 H   0  0  0  0  0  0  0  0  0  0  0  0
  142.9635   75.4539  221.0427 H   0  0  0  0  0  0  0  0  0  0  0  0
  141.8240   77.1690  222.3470 H   0  0  0  0  0  0  0  0  0  0  0  0
  141.6241   79.6051  220.5588 H   0  0  0  0  0  0  0  0  0  0  0  0
  142.6441   79.1037  223.4063 H   0  0  0  0  0  0  0  0  0  0  0  0
  143.5282   79.8379  222.0101 H   0  0  0  0  0  0  0  0  0  0  0  0
  142.9505   81.6027  223.5596 H   0  0  0  0  0  0  0  0  0  0  0  0
  141.9214   81.7651  222.0954 H   0  0  0  0  0  0  0  0  0  0  0  0
  141.1852   81.0916  224.8950 H   0  0  0  0  0  0  0  0  0  0  0  0
  140.2207   81.8732  223.6016 H   0  0  0  0  0  0  0  0  0  0  0  0
  140.7729   78.9164  224.0492 H   0  0  0  0  0  0  0  0  0  0  0  0
  139.1874   79.7769  223.9357 H   0  0  0  0  0  0  0  0  0  0  0  0
  139.5202   78.5795  221.8946 H   0  0  0  0  0  0  0  0  0  0  0  0
  139.7580   80.3315  221.5622 H   0  0  0  0  0  0  0  0  0  0  0  0
  139.1186   69.6626  222.3927 H   0  0  0  0  0  0  0  0  0  0  0  0
  139.1259   68.1213  224.3388 H   0  0  0  0  0  0  0  0  0  0  0  0
  139.6425   67.6643  226.7323 H   0  0  0  0  0  0  0  0  0  0  0  0
  141.4305   70.8652  229.0232 H   0  0  0  0  0  0  0  0  0  0  0  0
  141.3886   72.3566  227.0165 H   0  0  0  0  0  0  0  0  0  0  0  0
  1  2  2  0
  2  3  1  0
  3  4  1  0
  4  5  1  0
  5  6  2  0
  5  7  1  0
  7  8  1  0
  8  9  1  0
  9 10  1  0
  9 11  1  0
 11 12  1  0
 12 13  1  0
 13 14  2  0
 13 15  1  0
 15 16  1  0
 16 17  1  0
 17 18  1  0
 18 19  1  0
 19 20  1  0
 20 21  1  0
  2 22  1  0
 22 23  2  0
 23 24  1  0
 24 25  2  0
 25 26  1  0
 26 27  2  0
 27 28  1  0
 27 29  1  0
 29 30  2  0
 30 31  1  0
 31 32  2  0
 12  7  1  0
 21 16  1  0
 32 22  1  0
 31 25  1  0
  3 33  1  0
  4 34  1  0
  4 35  1  0
  8 36  1  0
  8 37  1  0
  9 38  1  6
 10 39  1  0
 11 40  1  0
 11 41  1  0
 12 42  1  1
 15 43  1  0
 16 44  1  0
 17 45  1  0
 17 46  1  0
 18 47  1  0
 18 48  1  0
 19 49  1  0
 19 50  1  0
 20 51  1  0
 20 52  1  0
 21 53  1  0
 21 54  1  0
 23 55  1  0
 24 56  1  0
 26 57  1  0
 29 58  1  0
 30 59  1  0
M  END
>  <smiles>  (2) 
O=C(NCC(=O)N1C[C@H](O)C[C@H]1C(=O)NC1CCCCC1)c1ccc2cc(F)ccc2n1

>  <score_type>  (2) 
oracle

>  <origin>  (2) 
autodockgpu

>  <m_score__min__energy>  (2) 
-8.9499999999999993

>  <m_primary>  (2) 
energy

>  <meeko>  (2) 
{"free_energy": -8.51, "intermolecular_energy": -10.6, "internal_energy": -3.01, "cluster_size": 12, "cluster_id": 1, "rank_in_cluster": 10}

>  <energy>  (2) 
-8.89

>  <cluster_rmsd>  (2) 
0.51

>  <rmsd>  (2) 
271.31

>  <cluster>  (2) 
1

$$$$

     RDKit          3D

 59 62  0  0  0  0  0  0  0  0999 V2000
  133.7640   69.8170  226.4600 O   0  0  0  0  0  0  0  0  0  0  0  0
  134.0580   70.9630  226.0320 C   0  0  0  0  0  0  0  0  0  0  0  0
  135.0730   71.1740  225.0570 N   0  0  0  0  0  0  0  0  0  0  0  0
  135.7750   70.0100  224.5570 C   0  0  0  0  0  0  0  0  0  0  0  0
  137.0900   70.4350  223.9850 C   0  0  0  0  0  0  0  0  0  0  0  0
  137.5660   71.5720  224.2530 O   0  0  0  0  0  0  0  0  0  0  0  0
  137.7730   69.5030  223.1320 N   0  0  0  0  0  0  0  0  0  0  0  0
  138.2700   69.7380  221.7770 C   0  0  0  0  0  0  0  0  0  0  0  0
  138.1730   68.3620  221.1480 C   0  0  2  0  0  0  0  0  0  0  0  0
  136.8980   68.1820  220.6710 O   0  0  0  0  0  0  0  0  0  0  0  0
  138.5330   67.4380  222.2960 C   0  0  0  0  0  0  0  0  0  0  0  0
  138.0710   68.1360  223.5340 C   0  0  1  0  0  0  0  0  0  0  0  0
  139.1300   68.2150  224.5730 C   0  0  0  0  0  0  0  0  0  0  0  0
  139.5410   67.2190  225.2020 O   0  0  0  0  0  0  0  0  0  0  0  0
  139.6740   69.5210  224.8290 N   0  0  0  0  0  0  0  0  0  0  0  0
  140.7120   69.6510  225.8360 C   0  0  0  0  0  0  0  0  0  0  0  0
  140.0530   69.4400  227.1830 C   0  0  0  0  0  0  0  0  0  0  0  0
  140.9450   69.9270  228.3090 C   0  0  0  0  0  0  0  0  0  0  0  0
  141.0640   71.4270  228.2430 C   0  0  0  0  0  0  0  0  0  0  0  0
  140.7080   71.8890  226.8490 C   0  0  0  0  0  0  0  0  0  0  0  0
  141.3470   71.0150  225.8160 C   0  0  0  0  0  0  0  0  0  0  0  0
  133.3580   72.1470  226.5270 C   0  0  0  0  0  0  0  0  0  0  0  0
  132.1240   72.0190  227.1730 C   0  0  0  0  0  0  0  0  0  0  0  0
  131.4620   73.1550  227.6430 C   0  0  0  0  0  0  0  0  0  0  0  0
  131.9910   74.4220  227.4890 C   0  0  0  0  0  0  0  0  0  0  0  0
  131.3510   75.5620  227.9470 C   0  0  0  0  0  0  0  0  0  0  0  0
  131.9860   76.7760  227.7320 C   0  0  0  0  0  0  0  0  0  0  0  0
  131.4050   77.9230  228.1590 F   0  0  0  0  0  0  0  0  0  0  0  0
  133.2060   76.8680  227.0890 C   0  0  0  0  0  0  0  0  0  0  0  0
  133.8360   75.7180  226.6350 C   0  0  0  0  0  0  0  0  0  0  0  0
  133.2180   74.5000  226.8410 C   0  0  0  0  0  0  0  0  0  0  0  0
  133.8420   73.3940  226.3950 N   0  0  0  0  0  0  0  0  0  0  0  0
  135.3130   72.1320  224.7050 H   0  0  0  0  0  0  0  0  0  0  0  0
  135.9443   69.3009  225.3807 H   0  0  0  0  0  0  0  0  0  0  0  0
  135.1728   69.5234  223.7756 H   0  0  0  0  0  0  0  0  0  0  0  0
  137.6398   70.4644  221.2430 H   0  0  0  0  0  0  0  0  0  0  0  0
  139.2847   70.1618  221.7497 H   0  0  0  0  0  0  0  0  0  0  0  0
  138.8306   68.1865  220.2838 H   0  0  0  0  0  0  0  0  0  0  0  0
  136.1890   68.3880  221.3530 H   0  0  0  0  0  0  0  0  0  0  0  0
  138.0199   66.4712  222.1861 H   0  0  0  0  0  0  0  0  0  0  0  0
  139.6123   67.2278  222.3261 H   0  0  0  0  0  0  0  0  0  0  0  0
  137.2169   67.5872  223.9575 H   0  0  0  0  0  0  0  0  0  0  0  0
  139.3440   70.3550  224.3160 H   0  0  0  0  0  0  0  0  0  0  0  0
  141.5039   68.9139  225.6373 H   0  0  0  0  0  0  0  0  0  0  0  0
  139.1043   69.9961  227.2100 H   0  0  0  0  0  0  0  0  0  0  0  0
  139.8738   68.3633  227.3197 H   0  0  0  0  0  0  0  0  0  0  0  0
  140.5073   69.6362  229.2753 H   0  0  0  0  0  0  0  0  0  0  0  0
  141.9429   69.4754  228.2074 H   0  0  0  0  0  0  0  0  0  0  0  0
  140.3759   71.8837  228.9696 H   0  0  0  0  0  0  0  0  0  0  0  0
  142.0945   71.7285  228.4821 H   0  0  0  0  0  0  0  0  0  0  0  0
  139.6155   71.8523  226.7257 H   0  0  0  0  0  0  0  0  0  0  0  0
  141.0760   72.9169  226.7153 H   0  0  0  0  0  0  0  0  0  0  0  0
  141.2113   71.4660  224.8219 H   0  0  0  0  0  0  0  0  0  0  0  0
  142.4203   70.9183  226.0368 H   0  0  0  0  0  0  0  0  0  0  0  0
  131.6754   71.0241  227.3107 H   0  0  0  0  0  0  0  0  0  0  0  0
  130.4927   73.0380  228.1498 H   0  0  0  0  0  0  0  0  0  0  0  0
  130.3795   75.5066  228.4599 H   0  0  0  0  0  0  0  0  0  0  0  0
  133.6765   77.8507  226.9375 H   0  0  0  0  0  0  0  0  0  0  0  0
  134.8073   75.7752  226.1218 H   0  0  0  0  0  0  0  0  0  0  0  0
  1  2  2  0
  2  3  1  0
  3  4  1  0
  4  5  1  0
  5  6  2  0
  5  7  1  0
  7  8  1  0
  8  9  1  0
  9 10  1  0
  9 11  1  0
 11 12  1  0
 12 13  1  0
 13 14  2  0
 13 15  1  0
 15 16  1  0
 16 17  1  0
 17 18  1  0
 18 19  1  0
 19 20  1  0
 20 21  1  0
  2 22  1  0
 22 23  2  0
 23 24  1  0
 24 25  2  0
 25 26  1  0
 26 27  2  0
 27 28  1  0
 27 29  1  0
 29 30  2  0
 30 31  1  0
 31 32  2  0
 12  7  1  0
 21 16  1  0
 32 22  1  0
 31 25  1  0
  3 33  1  0
  4 34  1  0
  4 35  1  0
  8 36  1  0
  8 37  1  0
  9 38  1  6
 10 39  1  0
 11 40  1  0
 11 41  1  0
 12 42  1  1
 15 43  1  0
 16 44  1  0
 17 45  1  0
 17 46  1  0
 18 47  1  0
 18 48  1  0
 19 49  1  0
 19 50  1  0
 20 51  1  0
 20 52  1  0
 21 53  1  0
 21 54  1  0
 23 55  1  0
 24 56  1  0
 26 57  1  0
 29 58  1  0
 30 59  1  0
M  END
>  <smiles>  (3) 
O=C(NCC(=O)N1C[C@H](O)C[C@H]1C(=O)NC1CCCCC1)c1ccc2cc(F)ccc2n1

>  <score_type>  (3) 
oracle

>  <origin>  (3) 
autodockgpu

>  <m_score__min__energy>  (3) 
-8.9499999999999993

>  <m_primary>  (3) 
energy

>  <meeko>  (3) 
{"free_energy": -8.19, "intermolecular_energy": -10.27, "internal_energy": -2.87, "cluster_size": 4, "cluster_id": 2, "rank_in_cluster": 1}

>  <energy>  (3) 
-8.78

>  <cluster_rmsd>  (3) 
1.25

>  <rmsd>  (3) 
271.29

>  <cluster>  (3) 
1

$$$$

     RDKit          3D

 59 62  0  0  0  0  0  0  0  0999 V2000
  133.7570   69.8580  226.3750 O   0  0  0  0  0  0  0  0  0  0  0  0
  134.0690   71.0040  225.9610 C   0  0  0  0  0  0  0  0  0  0  0  0
  135.0910   71.2110  224.9920 N   0  0  0  0  0  0  0  0  0  0  0  0
  135.7800   70.0430  224.4830 C   0  0  0  0  0  0  0  0  0  0  0  0
  137.1150   70.4530  223.9480 C   0  0  0  0  0  0  0  0  0  0  0  0
  137.5960   71.5840  224.2280 O   0  0  0  0  0  0  0  0  0  0  0  0
  137.8110   69.5110  223.1150 N   0  0  0  0  0  0  0  0  0  0  0  0
  138.3230   69.7300  221.7630 C   0  0  0  0  0  0  0  0  0  0  0  0
  138.2380   68.3450  221.1520 C   0  0  2  0  0  0  0  0  0  0  0  0
  136.9680   68.1550  220.6620 O   0  0  0  0  0  0  0  0  0  0  0  0
  138.5860   67.4380  222.3150 C   0  0  0  0  0  0  0  0  0  0  0  0
  138.1070   68.1500  223.5390 C   0  0  1  0  0  0  0  0  0  0  0  0
  139.1530   68.2460  224.5890 C   0  0  0  0  0  0  0  0  0  0  0  0
  139.5400   67.2640  225.2550 O   0  0  0  0  0  0  0  0  0  0  0  0
  139.7140   69.5500  224.8110 N   0  0  0  0  0  0  0  0  0  0  0  0
  140.7410   69.6970  225.8280 C   0  0  0  0  0  0  0  0  0  0  0  0
  140.0700   69.4910  227.1700 C   0  0  0  0  0  0  0  0  0  0  0  0
  140.9460   69.9940  228.3010 C   0  0  0  0  0  0  0  0  0  0  0  0
  141.0550   71.4950  228.2240 C   0  0  0  0  0  0  0  0  0  0  0  0
  140.7100   71.9430  226.8220 C   0  0  0  0  0  0  0  0  0  0  0  0
  141.3660   71.0650  225.8030 C   0  0  0  0  0  0  0  0  0  0  0  0
  133.3830   72.1920  226.4660 C   0  0  0  0  0  0  0  0  0  0  0  0
  132.1750   72.0680  227.1590 C   0  0  0  0  0  0  0  0  0  0  0  0
  131.5260   73.2090  227.6390 C   0  0  0  0  0  0  0  0  0  0  0  0
  132.0430   74.4760  227.4470 C   0  0  0  0  0  0  0  0  0  0  0  0
  131.4160   75.6190  227.9140 C   0  0  0  0  0  0  0  0  0  0  0  0
  132.0380   76.8330  227.6580 C   0  0  0  0  0  0  0  0  0  0  0  0
  131.4690   77.9830  228.0910 F   0  0  0  0  0  0  0  0  0  0  0  0
  133.2330   76.9200  226.9690 C   0  0  0  0  0  0  0  0  0  0  0  0
  133.8500   75.7660  226.5070 C   0  0  0  0  0  0  0  0  0  0  0  0
  133.2450   74.5490  226.7520 C   0  0  0  0  0  0  0  0  0  0  0  0
  133.8570   73.4400  226.2980 N   0  0  0  0  0  0  0  0  0  0  0  0
  135.3460   72.1700  224.6520 H   0  0  0  0  0  0  0  0  0  0  0  0
  135.9174   69.3140  225.2952 H   0  0  0  0  0  0  0  0  0  0  0  0
  135.1851   69.5844  223.6794 H   0  0  0  0  0  0  0  0  0  0  0  0
  137.6965   70.4468  221.2119 H   0  0  0  0  0  0  0  0  0  0  0  0
  139.3363   70.1575  221.7416 H   0  0  0  0  0  0  0  0  0  0  0  0
  138.9071   68.1598  220.2988 H   0  0  0  0  0  0  0  0  0  0  0  0
  136.2580   68.5790  221.2320 H   0  0  0  0  0  0  0  0  0  0  0  0
  138.0770   66.4684  222.2112 H   0  0  0  0  0  0  0  0  0  0  0  0
  139.6655   67.2319  222.3609 H   0  0  0  0  0  0  0  0  0  0  0  0
  137.2497   67.6040  223.9597 H   0  0  0  0  0  0  0  0  0  0  0  0
  139.4050   70.3730  224.2670 H   0  0  0  0  0  0  0  0  0  0  0  0
  141.5409   68.9648  225.6434 H   0  0  0  0  0  0  0  0  0  0  0  0
  139.1165   70.0393  227.1829 H   0  0  0  0  0  0  0  0  0  0  0  0
  139.8985   68.4139  227.3133 H   0  0  0  0  0  0  0  0  0  0  0  0
  140.5000   69.7079  229.2650 H   0  0  0  0  0  0  0  0  0  0  0  0
  141.9482   69.5491  228.2136 H   0  0  0  0  0  0  0  0  0  0  0  0
  140.3561   71.9526  228.9397 H   0  0  0  0  0  0  0  0  0  0  0  0
  142.0807   71.8060  228.4714 H   0  0  0  0  0  0  0  0  0  0  0  0
  139.6192   71.8973  226.6877 H   0  0  0  0  0  0  0  0  0  0  0  0
  141.0720   72.9725  226.6835 H   0  0  0  0  0  0  0  0  0  0  0  0
  141.2373   71.5067  224.8038 H   0  0  0  0  0  0  0  0  0  0  0  0
  142.4376   70.9781  226.0357 H   0  0  0  0  0  0  0  0  0  0  0  0
  131.7358   71.0734  227.3263 H   0  0  0  0  0  0  0  0  0  0  0  0
  130.5776   73.0953  228.1846 H   0  0  0  0  0  0  0  0  0  0  0  0
  130.4651   75.5669  228.4646 H   0  0  0  0  0  0  0  0  0  0  0  0
  133.6941   77.9020  226.7872 H   0  0  0  0  0  0  0  0  0  0  0  0
  134.8012   75.8195  225.9571 H   0  0  0  0  0  0  0  0  0  0  0  0
  1  2  2  0
  2  3  1  0
  3  4  1  0
  4  5  1  0
  5  6  2  0
  5  7  1  0
  7  8  1  0
  8  9  1  0
  9 10  1  0
  9 11  1  0
 11 12  1  0
 12 13  1  0
 13 14  2  0
 13 15  1  0
 15 16  1  0
 16 17  1  0
 17 18  1  0
 18 19  1  0
 19 20  1  0
 20 21  1  0
  2 22  1  0
 22 23  2  0
 23 24  1  0
 24 25  2  0
 25 26  1  0
 26 27  2  0
 27 28  1  0
 27 29  1  0
 29 30  2  0
 30 31  1  0
 31 32  2  0
 12  7  1  0
 21 16  1  0
 32 22  1  0
 31 25  1  0
  3 33  1  0
  4 34  1  0
  4 35  1  0
  8 36  1  0
  8 37  1  0
  9 38  1  6
 10 39  1  0
 11 40  1  0
 11 41  1  0
 12 42  1  1
 15 43  1  0
 16 44  1  0
 17 45  1  0
 17 46  1  0
 18 47  1  0
 18 48  1  0
 19 49  1  0
 19 50  1  0
 20 51  1  0
 20 52  1  0
 21 53  1  0
 21 54  1  0
 23 55  1  0
 24 56  1  0
 26 57  1  0
 29 58  1  0
 30 59  1  0
M  END
>  <smiles>  (4) 
O=C(NCC(=O)N1C[C@H](O)C[C@H]1C(=O)NC1CCCCC1)c1ccc2cc(F)ccc2n1

>  <score_type>  (4) 
oracle

>  <origin>  (4) 
autodockgpu

>  <m_score__min__energy>  (4) 
-8.9499999999999993

>  <m_primary>  (4) 
energy

>  <meeko>  (4) 
{"free_energy": -8.13, "intermolecular_energy": -10.22, "internal_energy": -2.89, "cluster_size": 4, "cluster_id": 2, "rank_in_cluster": 3}

>  <energy>  (4) 
-8.54

>  <cluster_rmsd>  (4) 
1.11

>  <rmsd>  (4) 
271.23

>  <cluster>  (4) 
1

$$$$

     RDKit          3D

 59 62  0  0  0  0  0  0  0  0999 V2000
  140.8440   71.5300  220.9520 O   0  0  0  0  0  0  0  0  0  0  0  0
  140.2390   72.0300  221.9350 C   0  0  0  0  0  0  0  0  0  0  0  0
  139.6960   73.3460  221.9040 N   0  0  0  0  0  0  0  0  0  0  0  0
  139.8620   74.1120  220.6860 C   0  0  0  0  0  0  0  0  0  0  0  0
  140.9590   75.1100  220.8760 C   0  0  0  0  0  0  0  0  0  0  0  0
  141.3280   75.4400  222.0360 O   0  0  0  0  0  0  0  0  0  0  0  0
  141.5620   75.6630  219.6950 N   0  0  0  0  0  0  0  0  0  0  0  0
  141.2700   75.3180  218.3040 C   0  0  0  0  0  0  0  0  0  0  0  0
  142.5970   75.5750  217.6170 C   0  0  2  0  0  0  0  0  0  0  0  0
  143.3880   74.4600  217.7490 O   0  0  0  0  0  0  0  0  0  0  0  0
  143.1280   76.7920  218.3500 C   0  0  0  0  0  0  0  0  0  0  0  0
  142.5920   76.6900  219.7410 C   0  0  1  0  0  0  0  0  0  0  0  0
  141.9300   77.9420  220.1900 C   0  0  0  0  0  0  0  0  0  0  0  0
  141.5020   78.8060  219.3990 O   0  0  0  0  0  0  0  0  0  0  0  0
  141.8030   78.1200  221.6100 N   0  0  0  0  0  0  0  0  0  0  0  0
  141.1620   79.3280  222.1000 C   0  0  0  0  0  0  0  0  0  0  0  0
  141.9920   80.4980  221.6140 C   0  0  0  0  0  0  0  0  0  0  0  0
  141.6460   81.7650  222.3740 C   0  0  0  0  0  0  0  0  0  0  0  0
  142.0920   81.6290  223.8070 C   0  0  0  0  0  0  0  0  0  0  0  0
  142.2540   80.1640  224.1370 C   0  0  0  0  0  0  0  0  0  0  0  0
  141.1060   79.3650  223.6040 C   0  0  0  0  0  0  0  0  0  0  0  0
  140.0650   71.2700  223.1710 C   0  0  0  0  0  0  0  0  0  0  0  0
  139.4200   70.0300  223.1520 C   0  0  0  0  0  0  0  0  0  0  0  0
  139.2580   69.3090  224.3380 C   0  0  0  0  0  0  0  0  0  0  0  0
  139.7190   69.7870  225.5490 C   0  0  0  0  0  0  0  0  0  0  0  0
  139.5680   69.0890  226.7360 C   0  0  0  0  0  0  0  0  0  0  0  0
  140.0750   69.6770  227.8860 C   0  0  0  0  0  0  0  0  0  0  0  0
  139.9560   69.0390  229.0750 F   0  0  0  0  0  0  0  0  0  0  0  0
  140.7090   70.9060  227.8710 C   0  0  0  0  0  0  0  0  0  0  0  0
  140.8530   71.5930  226.6740 C   0  0  0  0  0  0  0  0  0  0  0  0
  140.3530   71.0240  225.5190 C   0  0  0  0  0  0  0  0  0  0  0  0
  140.5010   71.7040  224.3670 N   0  0  0  0  0  0  0  0  0  0  0  0
  139.1940   73.7570  222.7280 H   0  0  0  0  0  0  0  0  0  0  0  0
  140.1203   73.4350  219.8584 H   0  0  0  0  0  0  0  0  0  0  0  0
  138.9241   74.6357  220.4492 H   0  0  0  0  0  0  0  0  0  0  0  0
  140.9714   74.2635  218.2102 H   0  0  0  0  0  0  0  0  0  0  0  0
  140.4357   75.8926  217.8754 H   0  0  0  0  0  0  0  0  0  0  0  0
  142.5437   75.7626  216.5344 H   0  0  0  0  0  0  0  0  0  0  0  0
  144.3570   74.6790  217.8970 H   0  0  0  0  0  0  0  0  0  0  0  0
  144.2279   76.7838  218.3610 H   0  0  0  0  0  0  0  0  0  0  0  0
  142.8178   77.7279  217.8623 H   0  0  0  0  0  0  0  0  0  0  0  0
  143.4218   76.4757  220.4306 H   0  0  0  0  0  0  0  0  0  0  0  0
  142.1520   77.4130  222.2790 H   0  0  0  0  0  0  0  0  0  0  0  0
  140.1270   79.3655  221.7295 H   0  0  0  0  0  0  0  0  0  0  0  0
  143.0576   80.2692  221.7629 H   0  0  0  0  0  0  0  0  0  0  0  0
  141.7773   80.6602  220.5474 H   0  0  0  0  0  0  0  0  0  0  0  0
  142.1572   82.6217  221.9106 H   0  0  0  0  0  0  0  0  0  0  0  0
  140.5583   81.9261  222.3423 H   0  0  0  0  0  0  0  0  0  0  0  0
  143.0531   82.1460  223.9443 H   0  0  0  0  0  0  0  0  0  0  0  0
  141.3408   82.0782  224.4733 H   0  0  0  0  0  0  0  0  0  0  0  0
  143.1882   79.7952  223.6884 H   0  0  0  0  0  0  0  0  0  0  0  0
  142.2818   80.0517  225.2309 H   0  0  0  0  0  0  0  0  0  0  0  0
  141.1624   78.3389  223.9964 H   0  0  0  0  0  0  0  0  0  0  0  0
  140.1617   79.8325  223.9199 H   0  0  0  0  0  0  0  0  0  0  0  0
  139.0401   69.6219  222.2038 H   0  0  0  0  0  0  0  0  0  0  0  0
  138.7494   68.3341  224.3062 H   0  0  0  0  0  0  0  0  0  0  0  0
  139.0673   68.1100  226.7656 H   0  0  0  0  0  0  0  0  0  0  0  0
  141.0979   71.3376  228.8051 H   0  0  0  0  0  0  0  0  0  0  0  0
  141.3553   72.5712  226.6455 H   0  0  0  0  0  0  0  0  0  0  0  0
  1  2  2  0
  2  3  1  0
  3  4  1  0
  4  5  1  0
  5  6  2  0
  5  7  1  0
  7  8  1  0
  8  9  1  0
  9 10  1  0
  9 11  1  0
 11 12  1  0
 12 13  1  0
 13 14  2  0
 13 15  1  0
 15 16  1  0
 16 17  1  0
 17 18  1  0
 18 19  1  0
 19 20  1  0
 20 21  1  0
  2 22  1  0
 22 23  2  0
 23 24  1  0
 24 25  2  0
 25 26  1  0
 26 27  2  0
 27 28  1  0
 27 29  1  0
 29 30  2  0
 30 31  1  0
 31 32  2  0
 12  7  1  0
 21 16  1  0
 32 22  1  0
 31 25  1  0
  3 33  1  0
  4 34  1  0
  4 35  1  0
  8 36  1  0
  8 37  1  0
  9 38  1  6
 10 39  1  0
 11 40  1  0
 11 41  1  0
 12 42  1  1
 15 43  1  0
 16 44  1  0
 17 45  1  0
 17 46  1  0
 18 47  1  0
 18 48  1  0
 19 49  1  0
 19 50  1  0
 20 51  1  0
 20 52  1  0
 21 53  1  0
 21 54  1  0
 23 55  1  0
 24 56  1  0
 26 57  1  0
 29 58  1  0
 30 59  1  0
M  END
>  <smiles>  (5) 
O=C(NCC(=O)N1C[C@H](O)C[C@H]1C(=O)NC1CCCCC1)c1ccc2cc(F)ccc2n1

>  <score_type>  (5) 
oracle

>  <origin>  (5) 
autodockgpu

>  <m_score__min__energy>  (5) 
-8.9499999999999993

>  <m_primary>  (5) 
energy

>  <meeko>  (5) 
{"free_energy": -8.95, "intermolecular_energy": -11.04, "internal_energy": -2.23, "cluster_size": 12, "cluster_id": 1, "rank_in_cluster": 1}

>  <energy>  (5) 
-8.53

>  <cluster_rmsd>  (5) 
1.1

>  <rmsd>  (5) 
271.26

>  <cluster>  (5) 
1

$$$$

     RDKit          3D

 59 62  0  0  0  0  0  0  0  0999 V2000
  139.7820   71.3680  221.5380 O   0  0  0  0  0  0  0  0  0  0  0  0
  139.1700   71.6320  222.6050 C   0  0  0  0  0  0  0  0  0  0  0  0
  137.9820   72.4160  222.6270 N   0  0  0  0  0  0  0  0  0  0  0  0
  137.4830   72.9130  221.3610 C   0  0  0  0  0  0  0  0  0  0  0  0
  137.8560   74.3550  221.2170 C   0  0  0  0  0  0  0  0  0  0  0  0
  136.9930   75.2580  221.3910 O   0  0  0  0  0  0  0  0  0  0  0  0
  139.2190   74.6540  220.8760 N   0  0  0  0  0  0  0  0  0  0  0  0
  139.8260   74.6380  219.5460 C   0  0  0  0  0  0  0  0  0  0  0  0
  141.2680   74.2770  219.8480 C   0  0  2  0  0  0  0  0  0  0  0  0
  141.3730   72.9100  219.9340 O   0  0  0  0  0  0  0  0  0  0  0  0
  141.5310   74.9950  221.1570 C   0  0  0  0  0  0  0  0  0  0  0  0
  140.2160   75.0320  221.8670 C   0  0  1  0  0  0  0  0  0  0  0  0
  139.8600   76.3960  222.3360 C   0  0  0  0  0  0  0  0  0  0  0  0
  138.7100   76.7090  222.7060 O   0  0  0  0  0  0  0  0  0  0  0  0
  140.9220   77.3630  222.3460 N   0  0  0  0  0  0  0  0  0  0  0  0
  140.6240   78.7120  222.7960 C   0  0  0  0  0  0  0  0  0  0  0  0
  140.8320   79.6320  221.6110 C   0  0  0  0  0  0  0  0  0  0  0  0
  140.9260   81.0790  222.0550 C   0  0  0  0  0  0  0  0  0  0  0  0
  142.1920   81.2830  222.8440 C   0  0  0  0  0  0  0  0  0  0  0  0
  142.6730   79.9460  223.3590 C   0  0  0  0  0  0  0  0  0  0  0  0
  141.5360   79.1460  223.9130 C   0  0  0  0  0  0  0  0  0  0  0  0
  139.6610   71.1380  223.8900 C   0  0  0  0  0  0  0  0  0  0  0  0
  140.5850   71.8860  224.6270 C   0  0  0  0  0  0  0  0  0  0  0  0
  141.0490   71.4070  225.8550 C   0  0  0  0  0  0  0  0  0  0  0  0
  140.6230   70.2000  226.3740 C   0  0  0  0  0  0  0  0  0  0  0  0
  141.0710   69.7070  227.5880 C   0  0  0  0  0  0  0  0  0  0  0  0
  140.5660   68.4820  228.0000 C   0  0  0  0  0  0  0  0  0  0  0  0
  140.9700   67.9520  229.1800 F   0  0  0  0  0  0  0  0  0  0  0  0
  139.6540   67.7680  227.2470 C   0  0  0  0  0  0  0  0  0  0  0  0
  139.2130   68.2740  226.0330 C   0  0  0  0  0  0  0  0  0  0  0  0
  139.7060   69.4920  225.6060 C   0  0  0  0  0  0  0  0  0  0  0  0
  139.2690   69.9690  224.4260 N   0  0  0  0  0  0  0  0  0  0  0  0
  137.4770   72.6330  223.5200 H   0  0  0  0  0  0  0  0  0  0  0  0
  137.9270   72.3341  220.5377 H   0  0  0  0  0  0  0  0  0  0  0  0
  136.3884   72.8095  221.3289 H   0  0  0  0  0  0  0  0  0  0  0  0
  139.3532   73.8816  218.9023 H   0  0  0  0  0  0  0  0  0  0  0  0
  139.7162   75.5879  219.0023 H   0  0  0  0  0  0  0  0  0  0  0  0
  142.0030   74.5743  219.0855 H   0  0  0  0  0  0  0  0  0  0  0  0
  140.4830   72.4450  219.9120 H   0  0  0  0  0  0  0  0  0  0  0  0
  142.2741   74.4456  221.7536 H   0  0  0  0  0  0  0  0  0  0  0  0
  141.9334   76.0055  220.9930 H   0  0  0  0  0  0  0  0  0  0  0  0
  140.2629   74.3702  222.7444 H   0  0  0  0  0  0  0  0  0  0  0  0
  141.8800   77.1190  222.0430 H   0  0  0  0  0  0  0  0  0  0  0  0
  139.5928   78.7477  223.1771 H   0  0  0  0  0  0  0  0  0  0  0  0
  141.7638   79.3522  221.0978 H   0  0  0  0  0  0  0  0  0  0  0  0
  139.9721   79.5291  220.9328 H   0  0  0  0  0  0  0  0  0  0  0  0
  140.9359   81.7335  221.1709 H   0  0  0  0  0  0  0  0  0  0  0  0
  140.0587   81.3253  222.6851 H   0  0  0  0  0  0  0  0  0  0  0  0
  142.9623   81.7274  222.1965 H   0  0  0  0  0  0  0  0  0  0  0  0
  141.9973   81.9584  223.6901 H   0  0  0  0  0  0  0  0  0  0  0  0
  143.1371   79.3877  222.5326 H   0  0  0  0  0  0  0  0  0  0  0  0
  143.4034   80.1213  224.1626 H   0  0  0  0  0  0  0  0  0  0  0  0
  141.9313   78.2577  224.4274 H   0  0  0  0  0  0  0  0  0  0  0  0
  140.9694   79.7653  224.6239 H   0  0  0  0  0  0  0  0  0  0  0  0
  140.9461   72.8504  224.2403 H   0  0  0  0  0  0  0  0  0  0  0  0
  141.7736   72.0079  226.4241 H   0  0  0  0  0  0  0  0  0  0  0  0
  141.7966   70.2630  228.1999 H   0  0  0  0  0  0  0  0  0  0  0  0
  139.2782   66.7998  227.6095 H   0  0  0  0  0  0  0  0  0  0  0  0
  138.4862   67.7173  225.4232 H   0  0  0  0  0  0  0  0  0  0  0  0
  1  2  2  0
  2  3  1  0
  3  4  1  0
  4  5  1  0
  5  6  2  0
  5  7  1  0
  7  8  1  0
  8  9  1  0
  9 10  1  0
  9 11  1  0
 11 12  1  0
 12 13  1  0
 13 14  2  0
 13 15  1  0
 15 16  1  0
 16 17  1  0
 17 18  1  0
 18 19  1  0
 19 20  1  0
 20 21  1  0
  2 22  1  0
 22 23  2  0
 23 24  1  0
 24 25  2  0
 25 26  1  0
 26 27  2  0
 27 28  1  0
 27 29  1  0
 29 30  2  0
 30 31  1  0
 31 32  2  0
 12  7  1  0
 21 16  1  0
 32 22  1  0
 31 25  1  0
  3 33  1  0
  4 34  1  0
  4 35  1  0
  8 36  1  0
  8 37  1  0
  9 38  1  6
 10 39  1  0
 11 40  1  0
 11 41  1  0
 12 42  1  1
 15 43  1  0
 16 44  1  0
 17 45  1  0
 17 46  1  0
 18 47  1  0
 18 48  1  0
 19 49  1  0
 19 50  1  0
 20 51  1  0
 20 52  1  0
 21 53  1  0
 21 54  1  0
 23 55  1  0
 24 56  1  0
 26 57  1  0
 29 58  1  0
 30 59  1  0
M  END
>  <smiles>  (6) 
O=C(NCC(=O)N1C[C@H](O)C[C@H]1C(=O)NC1CCCCC1)c1ccc2cc(F)ccc2n1

>  <score_type>  (6) 
oracle

>  <origin>  (6) 
autodockgpu

>  <m_score__min__energy>  (6) 
-8.9499999999999993

>  <m_primary>  (6) 
energy

>  <meeko>  (6) 
{"free_energy": -8.53, "intermolecular_energy": -10.62, "internal_energy": -2.46, "cluster_size": 12, "cluster_id": 1, "rank_in_cluster": 7}

>  <energy>  (6) 
-8.53

>  <cluster_rmsd>  (6) 
0.55

>  <rmsd>  (6) 
271.17

>  <cluster>  (6) 
1

$$$$

     RDKit          3D

 59 62  0  0  0  0  0  0  0  0999 V2000
  141.0710   72.3270  221.5720 O   0  0  0  0  0  0  0  0  0  0  0  0
  140.1450   72.3770  222.4220 C   0  0  0  0  0  0  0  0  0  0  0  0
  139.0850   73.3240  222.3380 N   0  0  0  0  0  0  0  0  0  0  0  0
  139.1000   74.2500  221.2250 C   0  0  0  0  0  0  0  0  0  0  0  0
  140.3420   75.0810  221.2920 C   0  0  0  0  0  0  0  0  0  0  0  0
  140.6040   75.7540  222.3260 O   0  0  0  0  0  0  0  0  0  0  0  0
  141.2040   75.0760  220.1440 N   0  0  0  0  0  0  0  0  0  0  0  0
  140.9760   74.4050  218.8640 C   0  0  0  0  0  0  0  0  0  0  0  0
  142.3850   74.0990  218.3980 C   0  0  2  0  0  0  0  0  0  0  0  0
  142.7930   72.9170  218.9670 O   0  0  0  0  0  0  0  0  0  0  0  0
  143.1700   75.3080  218.8700 C   0  0  0  0  0  0  0  0  0  0  0  0
  142.4800   75.7750  220.1100 C   0  0  1  0  0  0  0  0  0  0  0  0
  142.1720   77.2280  220.0780 C   0  0  0  0  0  0  0  0  0  0  0  0
  142.1730   77.9010  219.0280 O   0  0  0  0  0  0  0  0  0  0  0  0
  141.8660   77.8420  221.3420 N   0  0  0  0  0  0  0  0  0  0  0  0
  141.5580   79.2610  221.3640 C   0  0  0  0  0  0  0  0  0  0  0  0
  142.3890   79.8790  222.4680 C   0  0  0  0  0  0  0  0  0  0  0  0
  141.8730   81.2580  222.8340 C   0  0  0  0  0  0  0  0  0  0  0  0
  140.5200   81.1320  223.4830 C   0  0  0  0  0  0  0  0  0  0  0  0
  139.9140   79.7990  223.1090 C   0  0  0  0  0  0  0  0  0  0  0  0
  140.1030   79.5160  221.6510 C   0  0  0  0  0  0  0  0  0  0  0  0
  140.1170   71.4490  223.5510 C   0  0  0  0  0  0  0  0  0  0  0  0
  139.5900   70.1630  223.3950 C   0  0  0  0  0  0  0  0  0  0  0  0
  139.5670   69.2820  224.4790 C   0  0  0  0  0  0  0  0  0  0  0  0
  140.0530   69.6420  225.7210 C   0  0  0  0  0  0  0  0  0  0  0  0
  140.0400   68.7850  226.8080 C   0  0  0  0  0  0  0  0  0  0  0  0
  140.5580   69.2660  228.0020 C   0  0  0  0  0  0  0  0  0  0  0  0
  140.5700   68.4700  229.0980 F   0  0  0  0  0  0  0  0  0  0  0  0
  141.0720   70.5440  228.1230 C   0  0  0  0  0  0  0  0  0  0  0  0
  141.0790   71.3920  227.0240 C   0  0  0  0  0  0  0  0  0  0  0  0
  140.5670   70.9300  225.8280 C   0  0  0  0  0  0  0  0  0  0  0  0
  140.5810   71.7650  224.7730 N   0  0  0  0  0  0  0  0  0  0  0  0
  138.3170   73.3590  223.0510 H   0  0  0  0  0  0  0  0  0  0  0  0
  139.0838   73.6885  220.2792 H   0  0  0  0  0  0  0  0  0  0  0  0
  138.2160   74.9026  221.2758 H   0  0  0  0  0  0  0  0  0  0  0  0
  140.3923   73.4822  218.9974 H   0  0  0  0  0  0  0  0  0  0  0  0
  140.3994   75.0098  218.1486 H   0  0  0  0  0  0  0  0  0  0  0  0
  142.5060   73.9536  217.3144 H   0  0  0  0  0  0  0  0  0  0  0  0
  142.2810   72.6840  219.7990 H   0  0  0  0  0  0  0  0  0  0  0  0
  144.2104   75.0278  219.0917 H   0  0  0  0  0  0  0  0  0  0  0  0
  143.2058   76.0953  218.1027 H   0  0  0  0  0  0  0  0  0  0  0  0
  143.1304   75.5815  220.9757 H   0  0  0  0  0  0  0  0  0  0  0  0
  141.8610   77.2980  222.2210 H   0  0  0  0  0  0  0  0  0  0  0  0
  141.7821   79.6959  220.3788 H   0  0  0  0  0  0  0  0  0  0  0  0
  142.3448   79.2316  223.3562 H   0  0  0  0  0  0  0  0  0  0  0  0
  143.4252   79.9770  222.1120 H   0  0  0  0  0  0  0  0  0  0  0  0
  142.5726   81.7372  223.5347 H   0  0  0  0  0  0  0  0  0  0  0  0
  141.7876   81.8708  221.9245 H   0  0  0  0  0  0  0  0  0  0  0  0
  140.6286   81.1935  224.5759 H   0  0  0  0  0  0  0  0  0  0  0  0
  139.8661   81.9462  223.1374 H   0  0  0  0  0  0  0  0  0  0  0  0
  140.3996   79.0054  223.6957 H   0  0  0  0  0  0  0  0  0  0  0  0
  138.8356   79.8307  223.3238 H   0  0  0  0  0  0  0  0  0  0  0  0
  139.5152   78.6290  221.3723 H   0  0  0  0  0  0  0  0  0  0  0  0
  139.7650   80.3843  221.0664 H   0  0  0  0  0  0  0  0  0  0  0  0
  139.1938   69.8453  222.4193 H   0  0  0  0  0  0  0  0  0  0  0  0
  139.1503   68.2736  224.3397 H   0  0  0  0  0  0  0  0  0  0  0  0
  139.6358   67.7650  226.7285 H   0  0  0  0  0  0  0  0  0  0  0  0
  141.4742   70.8877  229.0874 H   0  0  0  0  0  0  0  0  0  0  0  0
  141.4843   72.4114  227.1044 H   0  0  0  0  0  0  0  0  0  0  0  0
  1  2  2  0
  2  3  1  0
  3  4  1  0
  4  5  1  0
  5  6  2  0
  5  7  1  0
  7  8  1  0
  8  9  1  0
  9 10  1  0
  9 11  1  0
 11 12  1  0
 12 13  1  0
 13 14  2  0
 13 15  1  0
 15 16  1  0
 16 17  1  0
 17 18  1  0
 18 19  1  0
 19 20  1  0
 20 21  1  0
  2 22  1  0
 22 23  2  0
 23 24  1  0
 24 25  2  0
 25 26  1  0
 26 27  2  0
 27 28  1  0
 27 29  1  0
 29 30  2  0
 30 31  1  0
 31 32  2  0
 12  7  1  0
 21 16  1  0
 32 22  1  0
 31 25  1  0
  3 33  1  0
  4 34  1  0
  4 35  1  0
  8 36  1  0
  8 37  1  0
  9 38  1  6
 10 39  1  0
 11 40  1  0
 11 41  1  0
 12 42  1  1
 15 43  1  0
 16 44  1  0
 17 45  1  0
 17 46  1  0
 18 47  1  0
 18 48  1  0
 19 49  1  0
 19 50  1  0
 20 51  1  0
 20 52  1  0
 21 53  1  0
 21 54  1  0
 23 55  1  0
 24 56  1  0
 26 57  1  0
 29 58  1  0
 30 59  1  0
M  END
>  <smiles>  (7) 
O=C(NCC(=O)N1C[C@H](O)C[C@H]1C(=O)NC1CCCCC1)c1ccc2cc(F)ccc2n1

>  <score_type>  (7) 
oracle

>  <origin>  (7) 
autodockgpu

>  <m_score__min__energy>  (7) 
-8.9499999999999993

>  <m_primary>  (7) 
energy

>  <meeko>  (7) 
{"free_energy": -8.53, "intermolecular_energy": -10.62, "internal_energy": -3.01, "cluster_size": 12, "cluster_id": 1, "rank_in_cluster": 5}

>  <energy>  (7) 
-8.53

>  <cluster_rmsd>  (7) 
1.73

>  <rmsd>  (7) 
271.14

>  <cluster>  (7) 
1

$$$$

     RDKit          3D

 59 62  0  0  0  0  0  0  0  0999 V2000
  133.7390   69.8580  226.2750 O   0  0  0  0  0  0  0  0  0  0  0  0
  134.0970   71.0100  225.9150 C   0  0  0  0  0  0  0  0  0  0  0  0
  135.1610   71.2220  224.9940 N   0  0  0  0  0  0  0  0  0  0  0  0
  135.8380   70.0540  224.4700 C   0  0  0  0  0  0  0  0  0  0  0  0
  137.1790   70.4560  223.9430 C   0  0  0  0  0  0  0  0  0  0  0  0
  137.6590   71.5890  224.2170 O   0  0  0  0  0  0  0  0  0  0  0  0
  137.8800   69.5060  223.1250 N   0  0  0  0  0  0  0  0  0  0  0  0
  138.4110   69.7150  221.7780 C   0  0  0  0  0  0  0  0  0  0  0  0
  138.3260   68.3270  221.1730 C   0  0  2  0  0  0  0  0  0  0  0  0
  137.0620   68.1420  220.6670 O   0  0  0  0  0  0  0  0  0  0  0  0
  138.6540   67.4240  222.3460 C   0  0  0  0  0  0  0  0  0  0  0  0
  138.1630   68.1460  223.5590 C   0  0  1  0  0  0  0  0  0  0  0  0
  139.1960   68.2410  224.6230 C   0  0  0  0  0  0  0  0  0  0  0  0
  139.5680   67.2610  225.2990 O   0  0  0  0  0  0  0  0  0  0  0  0
  139.7610   69.5440  224.8450 N   0  0  0  0  0  0  0  0  0  0  0  0
  140.7750   69.6900  225.8750 C   0  0  0  0  0  0  0  0  0  0  0  0
  140.0870   69.4820  227.2080 C   0  0  0  0  0  0  0  0  0  0  0  0
  140.9490   69.9850  228.3510 C   0  0  0  0  0  0  0  0  0  0  0  0
  141.0580   71.4850  228.2770 C   0  0  0  0  0  0  0  0  0  0  0  0
  140.7300   71.9350  226.8720 C   0  0  0  0  0  0  0  0  0  0  0  0
  141.3990   71.0590  225.8590 C   0  0  0  0  0  0  0  0  0  0  0  0
  133.4230   72.1980  226.4350 C   0  0  0  0  0  0  0  0  0  0  0  0
  132.2260   72.0750  227.1470 C   0  0  0  0  0  0  0  0  0  0  0  0
  131.5880   73.2160  227.6410 C   0  0  0  0  0  0  0  0  0  0  0  0
  132.1070   74.4820  227.4470 C   0  0  0  0  0  0  0  0  0  0  0  0
  131.4910   75.6260  227.9290 C   0  0  0  0  0  0  0  0  0  0  0  0
  132.1130   76.8380  227.6680 C   0  0  0  0  0  0  0  0  0  0  0  0
  131.5550   77.9890  228.1150 F   0  0  0  0  0  0  0  0  0  0  0  0
  133.2980   76.9240  226.9610 C   0  0  0  0  0  0  0  0  0  0  0  0
  133.9040   75.7700  226.4850 C   0  0  0  0  0  0  0  0  0  0  0  0
  133.2980   74.5540  226.7340 C   0  0  0  0  0  0  0  0  0  0  0  0
  133.8990   73.4440  226.2660 N   0  0  0  0  0  0  0  0  0  0  0  0
  135.4540   72.1850  224.6980 H   0  0  0  0  0  0  0  0  0  0  0  0
  135.9655   69.3122  225.2722 H   0  0  0  0  0  0  0  0  0  0  0  0
  135.2396   69.6137  223.6587 H   0  0  0  0  0  0  0  0  0  0  0  0
  137.7959   70.4324  221.2151 H   0  0  0  0  0  0  0  0  0  0  0  0
  139.4269   70.1366  221.7675 H   0  0  0  0  0  0  0  0  0  0  0  0
  139.0050   68.1330  220.3296 H   0  0  0  0  0  0  0  0  0  0  0  0
  136.4190   68.8640  220.9390 H   0  0  0  0  0  0  0  0  0  0  0  0
  138.1409   66.4567  222.2410 H   0  0  0  0  0  0  0  0  0  0  0  0
  139.7316   67.2117  222.4072 H   0  0  0  0  0  0  0  0  0  0  0  0
  137.2965   67.6075  223.9705 H   0  0  0  0  0  0  0  0  0  0  0  0
  139.4630   70.3660  224.2940 H   0  0  0  0  0  0  0  0  0  0  0  0
  141.5778   68.9585  225.7003 H   0  0  0  0  0  0  0  0  0  0  0  0
  139.1330   70.0296  227.2094 H   0  0  0  0  0  0  0  0  0  0  0  0
  139.9142   68.4047  227.3481 H   0  0  0  0  0  0  0  0  0  0  0  0
  140.4912   69.6977  229.3091 H   0  0  0  0  0  0  0  0  0  0  0  0
  141.9525   69.5409  228.2755 H   0  0  0  0  0  0  0  0  0  0  0  0
  140.3503   71.9413  228.9848 H   0  0  0  0  0  0  0  0  0  0  0  0
  142.0806   71.7959  228.5369 H   0  0  0  0  0  0  0  0  0  0  0  0
  139.6409   71.8889  226.7244 H   0  0  0  0  0  0  0  0  0  0  0  0
  141.0932   72.9648  226.7397 H   0  0  0  0  0  0  0  0  0  0  0  0
  141.2813   71.5020  224.8590 H   0  0  0  0  0  0  0  0  0  0  0  0
  142.4680   70.9730  226.1037 H   0  0  0  0  0  0  0  0  0  0  0  0
  131.7869   71.0811  227.3182 H   0  0  0  0  0  0  0  0  0  0  0  0
  130.6470   73.1033  228.1995 H   0  0  0  0  0  0  0  0  0  0  0  0
  130.5489   75.5751  228.4945 H   0  0  0  0  0  0  0  0  0  0  0  0
  133.7595   77.9053  226.7762 H   0  0  0  0  0  0  0  0  0  0  0  0
  134.8471   75.8225  225.9213 H   0  0  0  0  0  0  0  0  0  0  0  0
  1  2  2  0
  2  3  1  0
  3  4  1  0
  4  5  1  0
  5  6  2  0
  5  7  1  0
  7  8  1  0
  8  9  1  0
  9 10  1  0
  9 11  1  0
 11 12  1  0
 12 13  1  0
 13 14  2  0
 13 15  1  0
 15 16  1  0
 16 17  1  0
 17 18  1  0
 18 19  1  0
 19 20  1  0
 20 21  1  0
  2 22  1  0
 22 23  2  0
 23 24  1  0
 24 25  2  0
 25 26  1  0
 26 27  2  0
 27 28  1  0
 27 29  1  0
 29 30  2  0
 30 31  1  0
 31 32  2  0
 12  7  1  0
 21 16  1  0
 32 22  1  0
 31 25  1  0
  3 33  1  0
  4 34  1  0
  4 35  1  0
  8 36  1  0
  8 37  1  0
  9 38  1  6
 10 39  1  0
 11 40  1  0
 11 41  1  0
 12 42  1  1
 15 43  1  0
 16 44  1  0
 17 45  1  0
 17 46  1  0
 18 47  1  0
 18 48  1  0
 19 49  1  0
 19 50  1  0
 20 51  1  0
 20 52  1  0
 21 53  1  0
 21 54  1  0
 23 55  1  0
 24 56  1  0
 26 57  1  0
 29 58  1  0
 30 59  1  0
M  END
>  <smiles>  (8) 
O=C(NCC(=O)N1C[C@H](O)C[C@H]1C(=O)NC1CCCCC1)c1ccc2cc(F)ccc2n1

>  <score_type>  (8) 
oracle

>  <origin>  (8) 
autodockgpu

>  <m_score__min__energy>  (8) 
-8.9499999999999993

>  <m_primary>  (8) 
energy

>  <meeko>  (8) 
{"free_energy": -8.09, "intermolecular_energy": -10.18, "internal_energy": -2.94, "cluster_size": 4, "cluster_id": 2, "rank_in_cluster": 4}

>  <energy>  (8) 
-8.53

>  <cluster_rmsd>  (8) 
0.53

>  <rmsd>  (8) 
271.18

>  <cluster>  (8) 
1

$$$$

     RDKit          3D

 59 62  0  0  0  0  0  0  0  0999 V2000
  140.3270   71.3430  220.9580 O   0  0  0  0  0  0  0  0  0  0  0  0
  140.0530   71.8990  222.0530 C   0  0  0  0  0  0  0  0  0  0  0  0
  139.8440   73.3040  222.1610 N   0  0  0  0  0  0  0  0  0  0  0  0
  139.9560   74.0940  220.9530 C   0  0  0  0  0  0  0  0  0  0  0  0
  140.9970   75.1500  221.1500 C   0  0  0  0  0  0  0  0  0  0  0  0
  141.2400   75.6000  222.3030 O   0  0  0  0  0  0  0  0  0  0  0  0
  141.6920   75.6190  219.9840 N   0  0  0  0  0  0  0  0  0  0  0  0
  141.5860   75.1040  218.6190 C   0  0  0  0  0  0  0  0  0  0  0  0
  142.9620   75.3910  218.0520 C   0  0  2  0  0  0  0  0  0  0  0  0
  143.8060   74.3630  218.3960 O   0  0  0  0  0  0  0  0  0  0  0  0
  143.3230   76.7180  218.6900 C   0  0  0  0  0  0  0  0  0  0  0  0
  142.6390   76.7240  220.0190 C   0  0  1  0  0  0  0  0  0  0  0  0
  141.8470   77.9600  220.2470 C   0  0  0  0  0  0  0  0  0  0  0  0
  141.4630   78.7020  219.3200 O   0  0  0  0  0  0  0  0  0  0  0  0
  141.5350   78.2730  221.6140 N   0  0  0  0  0  0  0  0  0  0  0  0
  140.7620   79.4720  221.8890 C   0  0  0  0  0  0  0  0  0  0  0  0
  141.0660   79.8780  223.3160 C   0  0  0  0  0  0  0  0  0  0  0  0
  140.0400   80.8710  223.8310 C   0  0  0  0  0  0  0  0  0  0  0  0
  138.7040   80.1890  223.9690 C   0  0  0  0  0  0  0  0  0  0  0  0
  138.6910   78.9500  223.1040 C   0  0  0  0  0  0  0  0  0  0  0  0
  139.2830   79.2300  221.7580 C   0  0  0  0  0  0  0  0  0  0  0  0
  139.9370   71.1150  223.2810 C   0  0  0  0  0  0  0  0  0  0  0  0
  139.3500   69.8470  223.2540 C   0  0  0  0  0  0  0  0  0  0  0  0
  139.2420   69.1030  224.4330 C   0  0  0  0  0  0  0  0  0  0  0  0
  139.7020   69.5850  225.6430 C   0  0  0  0  0  0  0  0  0  0  0  0
  139.6060   68.8650  226.8220 C   0  0  0  0  0  0  0  0  0  0  0  0
  140.1060   69.4600  227.9710 C   0  0  0  0  0  0  0  0  0  0  0  0
  140.0380   68.8010  229.1520 F   0  0  0  0  0  0  0  0  0  0  0  0
  140.6810   70.7170  227.9630 C   0  0  0  0  0  0  0  0  0  0  0  0
  140.7710   71.4270  226.7740 C   0  0  0  0  0  0  0  0  0  0  0  0
  140.2780   70.8510  225.6200 C   0  0  0  0  0  0  0  0  0  0  0  0
  140.3730   71.5520  224.4750 N   0  0  0  0  0  0  0  0  0  0  0  0
  139.6160   73.7600  223.0770 H   0  0  0  0  0  0  0  0  0  0  0  0
  140.2455   73.4441  220.1140 H   0  0  0  0  0  0  0  0  0  0  0  0
  138.9881   74.5666  220.7297 H   0  0  0  0  0  0  0  0  0  0  0  0
  141.3723   74.0249  218.6168 H   0  0  0  0  0  0  0  0  0  0  0  0
  140.7695   75.5605  218.0404 H   0  0  0  0  0  0  0  0  0  0  0  0
  143.0201   75.4563  216.9555 H   0  0  0  0  0  0  0  0  0  0  0  0
  144.7770   74.5980  218.2910 H   0  0  0  0  0  0  0  0  0  0  0  0
  144.4125   76.7986  218.8185 H   0  0  0  0  0  0  0  0  0  0  0  0
  143.0090   77.5682  218.0667 H   0  0  0  0  0  0  0  0  0  0  0  0
  143.3974   76.6520  220.8125 H   0  0  0  0  0  0  0  0  0  0  0  0
  141.8460   77.6680  222.3930 H   0  0  0  0  0  0  0  0  0  0  0  0
  141.0344   80.2534  221.1643 H   0  0  0  0  0  0  0  0  0  0  0  0
  141.0521   78.9828  223.9551 H   0  0  0  0  0  0  0  0  0  0  0  0
  142.0571   80.3546  223.3405 H   0  0  0  0  0  0  0  0  0  0  0  0
  140.3596   81.2526  224.8119 H   0  0  0  0  0  0  0  0  0  0  0  0
  139.9524   81.7076  223.1221 H   0  0  0  0  0  0  0  0  0  0  0  0
  138.5410   79.9068  225.0196 H   0  0  0  0  0  0  0  0  0  0  0  0
  137.9036   80.8728  223.6499 H   0  0  0  0  0  0  0  0  0  0  0  0
  139.2767   78.1604  223.5975 H   0  0  0  0  0  0  0  0  0  0  0  0
  137.6480   78.6279  222.9683 H   0  0  0  0  0  0  0  0  0  0  0  0
  139.1118   78.3671  221.0976 H   0  0  0  0  0  0  0  0  0  0  0  0
  138.8061   80.1250  221.3319 H   0  0  0  0  0  0  0  0  0  0  0  0
  138.9734   69.4347  222.3063 H   0  0  0  0  0  0  0  0  0  0  0  0
  138.7779   68.1064  224.3959 H   0  0  0  0  0  0  0  0  0  0  0  0
  139.1523   67.8632  226.8464 H   0  0  0  0  0  0  0  0  0  0  0  0
  141.0661   71.1533  228.8964 H   0  0  0  0  0  0  0  0  0  0  0  0
  141.2258   72.4283  226.7514 H   0  0  0  0  0  0  0  0  0  0  0  0
  1  2  2  0
  2  3  1  0
  3  4  1  0
  4  5  1  0
  5  6  2  0
  5  7  1  0
  7  8  1  0
  8  9  1  0
  9 10  1  0
  9 11  1  0
 11 12  1  0
 12 13  1  0
 13 14  2  0
 13 15  1  0
 15 16  1  0
 16 17  1  0
 17 18  1  0
 18 19  1  0
 19 20  1  0
 20 21  1  0
  2 22  1  0
 22 23  2  0
 23 24  1  0
 24 25  2  0
 25 26  1  0
 26 27  2  0
 27 28  1  0
 27 29  1  0
 29 30  2  0
 30 31  1  0
 31 32  2  0
 12  7  1  0
 21 16  1  0
 32 22  1  0
 31 25  1  0
  3 33  1  0
  4 34  1  0
  4 35  1  0
  8 36  1  0
  8 37  1  0
  9 38  1  6
 10 39  1  0
 11 40  1  0
 11 41  1  0
 12 42  1  1
 15 43  1  0
 16 44  1  0
 17 45  1  0
 17 46  1  0
 18 47  1  0
 18 48  1  0
 19 49  1  0
 19 50  1  0
 20 51  1  0
 20 52  1  0
 21 53  1  0
 21 54  1  0
 23 55  1  0
 24 56  1  0
 26 57  1  0
 29 58  1  0
 30 59  1  0
M  END
>  <smiles>  (9) 
O=C(NCC(=O)N1C[C@H](O)C[C@H]1C(=O)NC1CCCCC1)c1ccc2cc(F)ccc2n1

>  <score_type>  (9) 
oracle

>  <origin>  (9) 
autodockgpu

>  <m_score__min__energy>  (9) 
-8.9499999999999993

>  <m_primary>  (9) 
energy

>  <meeko>  (9) 
{"free_energy": -8.44, "intermolecular_energy": -10.53, "internal_energy": -2.55, "cluster_size": 12, "cluster_id": 1, "rank_in_cluster": 11}

>  <energy>  (9) 
-8.53

>  <cluster_rmsd>  (9) 
0.51

>  <rmsd>  (9) 
271.18

>  <cluster>  (9) 
1

$$$$

     RDKit          3D

 59 62  0  0  0  0  0  0  0  0999 V2000
  133.7440   69.8180  226.4060 O   0  0  0  0  0  0  0  0  0  0  0  0
  134.0760   70.9700  226.0250 C   0  0  0  0  0  0  0  0  0  0  0  0
  135.1360   71.1890  225.1000 N   0  0  0  0  0  0  0  0  0  0  0  0
  135.8370   70.0270  224.5960 C   0  0  0  0  0  0  0  0  0  0  0  0
  137.1150   70.4630  223.9530 C   0  0  0  0  0  0  0  0  0  0  0  0
  137.5650   71.6250  224.1490 O   0  0  0  0  0  0  0  0  0  0  0  0
  137.7930   69.5120  223.1160 N   0  0  0  0  0  0  0  0  0  0  0  0
  138.3100   69.7270  221.7650 C   0  0  0  0  0  0  0  0  0  0  0  0
  138.1980   68.3470  221.1470 C   0  0  2  0  0  0  0  0  0  0  0  0
  136.9250   68.1840  220.6560 O   0  0  0  0  0  0  0  0  0  0  0  0
  138.5290   67.4280  222.3070 C   0  0  0  0  0  0  0  0  0  0  0  0
  138.0630   68.1440  223.5330 C   0  0  1  0  0  0  0  0  0  0  0  0
  139.1110   68.2150  224.5840 C   0  0  0  0  0  0  0  0  0  0  0  0
  139.5090   67.2160  225.2160 O   0  0  0  0  0  0  0  0  0  0  0  0
  139.6590   69.5180  224.8480 N   0  0  0  0  0  0  0  0  0  0  0  0
  140.6870   69.6400  225.8680 C   0  0  0  0  0  0  0  0  0  0  0  0
  140.0070   69.4560  227.2080 C   0  0  0  0  0  0  0  0  0  0  0  0
  140.8930   69.9400  228.3400 C   0  0  0  0  0  0  0  0  0  0  0  0
  141.0410   71.4370  228.2590 C   0  0  0  0  0  0  0  0  0  0  0  0
  140.7120   71.8900  226.8560 C   0  0  0  0  0  0  0  0  0  0  0  0
  141.3470   70.9920  225.8400 C   0  0  0  0  0  0  0  0  0  0  0  0
  133.3780   72.1520  226.5260 C   0  0  0  0  0  0  0  0  0  0  0  0
  132.1570   72.0200  227.1960 C   0  0  0  0  0  0  0  0  0  0  0  0
  131.4960   73.1550  227.6710 C   0  0  0  0  0  0  0  0  0  0  0  0
  132.0120   74.4240  227.4980 C   0  0  0  0  0  0  0  0  0  0  0  0
  131.3730   75.5630  227.9610 C   0  0  0  0  0  0  0  0  0  0  0  0
  131.9950   76.7800  227.7250 C   0  0  0  0  0  0  0  0  0  0  0  0
  131.4140   77.9260  228.1550 F   0  0  0  0  0  0  0  0  0  0  0  0
  133.2020   76.8760  227.0580 C   0  0  0  0  0  0  0  0  0  0  0  0
  133.8310   75.7270  226.6000 C   0  0  0  0  0  0  0  0  0  0  0  0
  133.2260   74.5070  226.8260 C   0  0  0  0  0  0  0  0  0  0  0  0
  133.8500   73.4020  226.3760 N   0  0  0  0  0  0  0  0  0  0  0  0
  135.4070   72.1520  224.7870 H   0  0  0  0  0  0  0  0  0  0  0  0
  136.0588   69.3420  225.4276 H   0  0  0  0  0  0  0  0  0  0  0  0
  135.2092   69.5094  223.8558 H   0  0  0  0  0  0  0  0  0  0  0  0
  137.6982   70.4587  221.2171 H   0  0  0  0  0  0  0  0  0  0  0  0
  139.3317   70.1342  221.7462 H   0  0  0  0  0  0  0  0  0  0  0  0
  138.8628   68.1525  220.2925 H   0  0  0  0  0  0  0  0  0  0  0  0
  136.6560   68.9040  220.0100 H   0  0  0  0  0  0  0  0  0  0  0  0
  138.0020   66.4685  222.1991 H   0  0  0  0  0  0  0  0  0  0  0  0
  139.6044   67.2012  222.3523 H   0  0  0  0  0  0  0  0  0  0  0  0
  137.1947   67.6130  223.9503 H   0  0  0  0  0  0  0  0  0  0  0  0
  139.3400   70.3550  224.3330 H   0  0  0  0  0  0  0  0  0  0  0  0
  141.4679   68.8862  225.6889 H   0  0  0  0  0  0  0  0  0  0  0  0
  139.0681   70.0290  227.2163 H   0  0  0  0  0  0  0  0  0  0  0  0
  139.8067   68.3843  227.3543 H   0  0  0  0  0  0  0  0  0  0  0  0
  140.4373   69.6685  229.3037 H   0  0  0  0  0  0  0  0  0  0  0  0
  141.8836   69.4692  228.2564 H   0  0  0  0  0  0  0  0  0  0  0  0
  140.3523   71.9145  228.9715 H   0  0  0  0  0  0  0  0  0  0  0  0
  142.0739   71.7217  228.5082 H   0  0  0  0  0  0  0  0  0  0  0  0
  139.6207   71.8732  226.7191 H   0  0  0  0  0  0  0  0  0  0  0  0
  141.1020   72.9090  226.7160 H   0  0  0  0  0  0  0  0  0  0  0  0
  141.2310   71.4339  224.8394 H   0  0  0  0  0  0  0  0  0  0  0  0
  142.4157   70.8783  226.0746 H   0  0  0  0  0  0  0  0  0  0  0  0
  131.7179   71.0231  227.3486 H   0  0  0  0  0  0  0  0  0  0  0  0
  130.5377   73.0346  228.1976 H   0  0  0  0  0  0  0  0  0  0  0  0
  130.4123   75.5044  228.4936 H   0  0  0  0  0  0  0  0  0  0  0  0
  133.6627   77.8608  226.8907 H   0  0  0  0  0  0  0  0  0  0  0  0
  134.7918   75.7871  226.0679 H   0  0  0  0  0  0  0  0  0  0  0  0
  1  2  2  0
  2  3  1  0
  3  4  1  0
  4  5  1  0
  5  6  2  0
  5  7  1  0
  7  8  1  0
  8  9  1  0
  9 10  1  0
  9 11  1  0
 11 12  1  0
 12 13  1  0
 13 14  2  0
 13 15  1  0
 15 16  1  0
 16 17  1  0
 17 18  1  0
 18 19  1  0
 19 20  1  0
 20 21  1  0
  2 22  1  0
 22 23  2  0
 23 24  1  0
 24 25  2  0
 25 26  1  0
 26 27  2  0
 27 28  1  0
 27 29  1  0
 29 30  2  0
 30 31  1  0
 31 32  2  0
 12  7  1  0
 21 16  1  0
 32 22  1  0
 31 25  1  0
  3 33  1  0
  4 34  1  0
  4 35  1  0
  8 36  1  0
  8 37  1  0
  9 38  1  6
 10 39  1  0
 11 40  1  0
 11 41  1  0
 12 42  1  1
 15 43  1  0
 16 44  1  0
 17 45  1  0
 17 46  1  0
 18 47  1  0
 18 48  1  0
 19 49  1  0
 19 50  1  0
 20 51  1  0
 20 52  1  0
 21 53  1  0
 21 54  1  0
 23 55  1  0
 24 56  1  0
 26 57  1  0
 29 58  1  0
 30 59  1  0
M  END
>  <smiles>  (10) 
O=C(NCC(=O)N1C[C@H](O)C[C@H]1C(=O)NC1CCCCC1)c1ccc2cc(F)ccc2n1

>  <score_type>  (10) 
oracle

>  <origin>  (10) 
autodockgpu

>  <m_score__min__energy>  (10) 
-8.9499999999999993

>  <m_primary>  (10) 
energy

>  <meeko>  (10) 
{"free_energy": -8.14, "intermolecular_energy": -10.22, "internal_energy": -2.92, "cluster_size": 4, "cluster_id": 2, "rank_in_cluster": 2}

>  <energy>  (10) 
-8.51

>  <cluster_rmsd>  (10) 
1.1

>  <rmsd>  (10) 
271.24

>  <cluster>  (10) 
1

$$$$

     RDKit          3D

 59 62  0  0  0  0  0  0  0  0999 V2000
  136.6700   76.3210  221.4920 O   0  0  0  0  0  0  0  0  0  0  0  0
  137.7880   76.2600  222.0650 C   0  0  0  0  0  0  0  0  0  0  0  0
  138.4340   75.0230  222.3430 N   0  0  0  0  0  0  0  0  0  0  0  0
  137.7580   73.8070  221.9400 C   0  0  0  0  0  0  0  0  0  0  0  0
  138.6410   72.6340  222.2240 C   0  0  0  0  0  0  0  0  0  0  0  0
  139.7860   72.8030  222.7250 O   0  0  0  0  0  0  0  0  0  0  0  0
  138.1320   71.3300  221.9030 N   0  0  0  0  0  0  0  0  0  0  0  0
  138.0750   70.6980  220.5860 C   0  0  0  0  0  0  0  0  0  0  0  0
  136.8600   69.7980  220.7050 C   0  0  2  0  0  0  0  0  0  0  0  0
  135.7350   70.5340  220.4220 O   0  0  0  0  0  0  0  0  0  0  0  0
  136.9330   69.3180  222.1410 C   0  0  0  0  0  0  0  0  0  0  0  0
  137.5800   70.4290  222.9040 C   0  0  1  0  0  0  0  0  0  0  0  0
  138.7190   69.9610  223.7350 C   0  0  0  0  0  0  0  0  0  0  0  0
  139.1210   68.7800  223.7340 O   0  0  0  0  0  0  0  0  0  0  0  0
  139.3540   70.9520  224.5610 N   0  0  0  0  0  0  0  0  0  0  0  0
  140.4730   70.5440  225.3920 C   0  0  0  0  0  0  0  0  0  0  0  0
  139.9190   69.6300  226.4650 C   0  0  0  0  0  0  0  0  0  0  0  0
  140.9110   69.4580  227.6000 C   0  0  0  0  0  0  0  0  0  0  0  0
  141.0650   70.7620  228.3370 C   0  0  0  0  0  0  0  0  0  0  0  0
  140.6100   71.8910  227.4420 C   0  0  0  0  0  0  0  0  0  0  0  0
  141.1400   71.7200  226.0530 C   0  0  0  0  0  0  0  0  0  0  0  0
  138.4830   77.4780  222.4780 C   0  0  0  0  0  0  0  0  0  0  0  0
  137.7640   78.6540  222.7170 C   0  0  0  0  0  0  0  0  0  0  0  0
  138.4350   79.8140  223.1120 C   0  0  0  0  0  0  0  0  0  0  0  0
  139.8070   79.8420  223.2750 C   0  0  0  0  0  0  0  0  0  0  0  0
  140.4920   80.9800  223.6650 C   0  0  0  0  0  0  0  0  0  0  0  0
  141.8690   80.8790  223.7940 C   0  0  0  0  0  0  0  0  0  0  0  0
  142.5900   81.9610  224.1730 F   0  0  0  0  0  0  0  0  0  0  0  0
  142.5500   79.7010  223.5500 C   0  0  0  0  0  0  0  0  0  0  0  0
  141.8500   78.5670  223.1600 C   0  0  0  0  0  0  0  0  0  0  0  0
  140.4790   78.6500  223.0260 C   0  0  0  0  0  0  0  0  0  0  0  0
  139.8150   77.5420  222.6470 N   0  0  0  0  0  0  0  0  0  0  0  0
  139.3660   74.9800  222.8220 H   0  0  0  0  0  0  0  0  0  0  0  0
  136.8186   73.7048  222.5031 H   0  0  0  0  0  0  0  0  0  0  0  0
  137.5348   73.8485  220.8637 H   0  0  0  0  0  0  0  0  0  0  0  0
  137.9387   71.4466  219.7916 H   0  0  0  0  0  0  0  0  0  0  0  0
  138.9955   70.1583  220.3188 H   0  0  0  0  0  0  0  0  0  0  0  0
  136.8282   68.9460  220.0099 H   0  0  0  0  0  0  0  0  0  0  0  0
  135.9390   71.4870  220.1780 H   0  0  0  0  0  0  0  0  0  0  0  0
  135.9238   69.1207  222.5317 H   0  0  0  0  0  0  0  0  0  0  0  0
  137.5007   68.3799  222.2282 H   0  0  0  0  0  0  0  0  0  0  0  0
  136.8352   70.8876  223.5710 H   0  0  0  0  0  0  0  0  0  0  0  0
  139.0320   71.9340  224.5720 H   0  0  0  0  0  0  0  0  0  0  0  0
  141.2271   70.0448  224.7658 H   0  0  0  0  0  0  0  0  0  0  0  0
  138.9898   70.0642  226.8624 H   0  0  0  0  0  0  0  0  0  0  0  0
  139.7241   68.6439  226.0182 H   0  0  0  0  0  0  0  0  0  0  0  0
  140.5443   68.6866  228.2932 H   0  0  0  0  0  0  0  0  0  0  0  0
  141.8852   69.1518  227.1910 H   0  0  0  0  0  0  0  0  0  0  0  0
  140.4508   70.7445  229.2494 H   0  0  0  0  0  0  0  0  0  0  0  0
  142.1193   70.9096  228.6137 H   0  0  0  0  0  0  0  0  0  0  0  0
  139.5106   71.9031  227.4087 H   0  0  0  0  0  0  0  0  0  0  0  0
  140.9933   72.8381  227.8496 H   0  0  0  0  0  0  0  0  0  0  0  0
  140.9360   72.6302  225.4700 H   0  0  0  0  0  0  0  0  0  0  0  0
  142.2247   71.5431  226.0983 H   0  0  0  0  0  0  0  0  0  0  0  0
  136.6710   78.6654  222.5940 H   0  0  0  0  0  0  0  0  0  0  0  0
  137.8553   80.7301  223.2984 H   0  0  0  0  0  0  0  0  0  0  0  0
  139.9658   81.9252  223.8643 H   0  0  0  0  0  0  0  0  0  0  0  0
  143.6433   79.6621  223.6645 H   0  0  0  0  0  0  0  0  0  0  0  0
  142.3773   77.6221  222.9620 H   0  0  0  0  0  0  0  0  0  0  0  0
  1  2  2  0
  2  3  1  0
  3  4  1  0
  4  5  1  0
  5  6  2  0
  5  7  1  0
  7  8  1  0
  8  9  1  0
  9 10  1  0
  9 11  1  0
 11 12  1  0
 12 13  1  0
 13 14  2  0
 13 15  1  0
 15 16  1  0
 16 17  1  0
 17 18  1  0
 18 19  1  0
 19 20  1  0
 20 21  1  0
  2 22  1  0
 22 23  2  0
 23 24  1  0
 24 25  2  0
 25 26  1  0
 26 27  2  0
 27 28  1  0
 27 29  1  0
 29 30  2  0
 30 31  1  0
 31 32  2  0
 12  7  1  0
 21 16  1  0
 32 22  1  0
 31 25  1  0
  3 33  1  0
  4 34  1  0
  4 35  1  0
  8 36  1  0
  8 37  1  0
  9 38  1  6
 10 39  1  0
 11 40  1  0
 11 41  1  0
 12 42  1  1
 15 43  1  0
 16 44  1  0
 17 45  1  0
 17 46  1  0
 18 47  1  0
 18 48  1  0
 19 49  1  0
 19 50  1  0
 20 51  1  0
 20 52  1  0
 21 53  1  0
 21 54  1  0
 23 55  1  0
 24 56  1  0
 26 57  1  0
 29 58  1  0
 30 59  1  0
M  END
>  <smiles>  (11) 
O=C(NCC(=O)N1C[C@H](O)C[C@H]1C(=O)NC1CCCCC1)c1ccc2cc(F)ccc2n1

>  <score_type>  (11) 
oracle

>  <origin>  (11) 
autodockgpu

>  <m_score__min__energy>  (11) 
-8.9499999999999993

>  <m_primary>  (11) 
energy

>  <meeko>  (11) 
{"free_energy": -7.76, "intermolecular_energy": -9.85, "internal_energy": -2.79, "cluster_size": 1, "cluster_id": 3, "rank_in_cluster": 1}

>  <energy>  (11) 
-8.44

>  <cluster_rmsd>  (11) 
0.83

>  <rmsd>  (11) 
271.2

>  <cluster>  (11) 
1

$$$$

     RDKit          3D

 59 62  0  0  0  0  0  0  0  0999 V2000
  140.1230   74.1030  222.0110 O   0  0  0  0  0  0  0  0  0  0  0  0
  140.5610   75.2700  221.8360 C   0  0  0  0  0  0  0  0  0  0  0  0
  141.8200   75.5270  221.2230 N   0  0  0  0  0  0  0  0  0  0  0  0
  142.6030   74.3850  220.7960 C   0  0  0  0  0  0  0  0  0  0  0  0
  143.7660   74.8610  219.9850 C   0  0  0  0  0  0  0  0  0  0  0  0
  144.8870   75.0570  220.5280 O   0  0  0  0  0  0  0  0  0  0  0  0
  143.5480   75.0810  218.5820 N   0  0  0  0  0  0  0  0  0  0  0  0
  143.1550   74.0920  217.5790 C   0  0  0  0  0  0  0  0  0  0  0  0
  143.7920   74.6350  216.3150 C   0  0  2  0  0  0  0  0  0  0  0  0
  145.0960   74.2070  216.2560 O   0  0  0  0  0  0  0  0  0  0  0  0
  143.6480   76.1360  216.4800 C   0  0  0  0  0  0  0  0  0  0  0  0
  143.6990   76.3850  217.9530 C   0  0  1  0  0  0  0  0  0  0  0  0
  142.5690   77.2230  218.4290 C   0  0  0  0  0  0  0  0  0  0  0  0
  141.5700   76.7530  219.0100 O   0  0  0  0  0  0  0  0  0  0  0  0
  142.6780   78.6360  218.1840 N   0  0  0  0  0  0  0  0  0  0  0  0
  141.5980   79.4990  218.6300 C   0  0  0  0  0  0  0  0  0  0  0  0
  142.0320   80.9260  218.3650 C   0  0  0  0  0  0  0  0  0  0  0  0
  141.1680   81.9100  219.1300 C   0  0  0  0  0  0  0  0  0  0  0  0
  141.4280   81.7650  220.6070 C   0  0  0  0  0  0  0  0  0  0  0  0
  142.0390   80.4080  220.8700 C   0  0  0  0  0  0  0  0  0  0  0  0
  141.3240   79.3410  220.1010 C   0  0  0  0  0  0  0  0  0  0  0  0
  139.7830   76.4320  222.2620 C   0  0  0  0  0  0  0  0  0  0  0  0
  138.3850   76.3830  222.2590 C   0  0  0  0  0  0  0  0  0  0  0  0
  137.6480   77.4970  222.6680 C   0  0  0  0  0  0  0  0  0  0  0  0
  138.2610   78.6650  223.0800 C   0  0  0  0  0  0  0  0  0  0  0  0
  137.5490   79.7810  223.4880 C   0  0  0  0  0  0  0  0  0  0  0  0
  138.2820   80.8920  223.8790 C   0  0  0  0  0  0  0  0  0  0  0  0
  137.6380   82.0110  224.2880 F   0  0  0  0  0  0  0  0  0  0  0  0
  139.6640   80.9070  223.8690 C   0  0  0  0  0  0  0  0  0  0  0  0
  140.3640   79.7820  223.4580 C   0  0  0  0  0  0  0  0  0  0  0  0
  139.6510   78.6660  223.0640 C   0  0  0  0  0  0  0  0  0  0  0  0
  140.3450   77.5830  222.6680 N   0  0  0  0  0  0  0  0  0  0  0  0
  142.1790   76.5020  221.0810 H   0  0  0  0  0  0  0  0  0  0  0  0
  142.9686   73.8391  221.6782 H   0  0  0  0  0  0  0  0  0  0  0  0
  141.9777   73.7152  220.1874 H   0  0  0  0  0  0  0  0  0  0  0  0
  143.5502   73.0958  217.8269 H   0  0  0  0  0  0  0  0  0  0  0  0
  142.0661   73.9582  217.4985 H   0  0  0  0  0  0  0  0  0  0  0  0
  143.3367   74.2996  215.3715 H   0  0  0  0  0  0  0  0  0  0  0  0
  145.6510   74.5260  217.0300 H   0  0  0  0  0  0  0  0  0  0  0  0
  144.4726   76.6589  215.9734 H   0  0  0  0  0  0  0  0  0  0  0  0
  142.7119   76.5063  216.0367 H   0  0  0  0  0  0  0  0  0  0  0  0
  144.6373   76.9051  218.1961 H   0  0  0  0  0  0  0  0  0  0  0  0
  143.4990   79.0410  217.7040 H   0  0  0  0  0  0  0  0  0  0  0  0
  140.6762   79.2349  218.0911 H   0  0  0  0  0  0  0  0  0  0  0  0
  143.0792   81.0474  218.6792 H   0  0  0  0  0  0  0  0  0  0  0  0
  141.9252   81.1298  217.2893 H   0  0  0  0  0  0  0  0  0  0  0  0
  141.4119   82.9349  218.8138 H   0  0  0  0  0  0  0  0  0  0  0  0
  140.1074   81.7046  218.9228 H   0  0  0  0  0  0  0  0  0  0  0  0
  142.1217   82.5519  220.9380 H   0  0  0  0  0  0  0  0  0  0  0  0
  140.4824   81.8597  221.1611 H   0  0  0  0  0  0  0  0  0  0  0  0
  143.0960   80.4241  220.5657 H   0  0  0  0  0  0  0  0  0  0  0  0
  141.9511   80.1856  221.9437 H   0  0  0  0  0  0  0  0  0  0  0  0
  141.6763   78.3535  220.4336 H   0  0  0  0  0  0  0  0  0  0  0  0
  140.2422   79.4293  220.2794 H   0  0  0  0  0  0  0  0  0  0  0  0
  137.8667   75.4685  221.9350 H   0  0  0  0  0  0  0  0  0  0  0  0
  136.5493   77.4430  222.6619 H   0  0  0  0  0  0  0  0  0  0  0  0
  136.4491   79.7860  223.5014 H   0  0  0  0  0  0  0  0  0  0  0  0
  140.2077   81.8091  224.1863 H   0  0  0  0  0  0  0  0  0  0  0  0
  141.4639   79.7785  223.4460 H   0  0  0  0  0  0  0  0  0  0  0  0
  1  2  2  0
  2  3  1  0
  3  4  1  0
  4  5  1  0
  5  6  2  0
  5  7  1  0
  7  8  1  0
  8  9  1  0
  9 10  1  0
  9 11  1  0
 11 12  1  0
 12 13  1  0
 13 14  2  0
 13 15  1  0
 15 16  1  0
 16 17  1  0
 17 18  1  0
 18 19  1  0
 19 20  1  0
 20 21  1  0
  2 22  1  0
 22 23  2  0
 23 24  1  0
 24 25  2  0
 25 26  1  0
 26 27  2  0
 27 28  1  0
 27 29  1  0
 29 30  2  0
 30 31  1  0
 31 32  2  0
 12  7  1  0
 21 16  1  0
 32 22  1  0
 31 25  1  0
  3 33  1  0
  4 34  1  0
  4 35  1  0
  8 36  1  0
  8 37  1  0
  9 38  1  6
 10 39  1  0
 11 40  1  0
 11 41  1  0
 12 42  1  6
 15 43  1  0
 16 44  1  0
 17 45  1  0
 17 46  1  0
 18 47  1  0
 18 48  1  0
 19 49  1  0
 19 50  1  0
 20 51  1  0
 20 52  1  0
 21 53  1  0
 21 54  1  0
 23 55  1  0
 24 56  1  0
 26 57  1  0
 29 58  1  0
 30 59  1  0
M  END
>  <smiles>  (12) 
O=C(NCC(=O)N1C[C@H](O)C[C@H]1C(=O)NC1CCCCC1)c1ccc2cc(F)ccc2n1

>  <score_type>  (12) 
oracle

>  <origin>  (12) 
autodockgpu

>  <m_score__min__energy>  (12) 
-8.9499999999999993

>  <m_primary>  (12) 
energy

>  <meeko>  (12) 
{"free_energy": -6.88, "intermolecular_energy": -8.97, "internal_energy": -3.2, "cluster_size": 1, "cluster_id": 5, "rank_in_cluster": 1}

>  <energy>  (12) 
-8.1

>  <cluster_rmsd>  (12) 
1.38

>  <rmsd>  (12) 
270.95

>  <cluster>  (12) 
1

$$$$

     RDKit          3D

 59 62  0  0  0  0  0  0  0  0999 V2000
  141.2040   72.0150  221.3430 O   0  0  0  0  0  0  0  0  0  0  0  0
  140.2850   72.2070  222.1810 C   0  0  0  0  0  0  0  0  0  0  0  0
  139.3250   73.2480  222.0330 N   0  0  0  0  0  0  0  0  0  0  0  0
  139.4350   74.1010  220.8680 C   0  0  0  0  0  0  0  0  0  0  0  0
  140.5990   75.0250  221.0420 C   0  0  0  0  0  0  0  0  0  0  0  0
  140.9660   75.3790  222.1950 O   0  0  0  0  0  0  0  0  0  0  0  0
  141.2650   75.4800  219.8540 N   0  0  0  0  0  0  0  0  0  0  0  0
  140.9690   75.1080  218.4710 C   0  0  0  0  0  0  0  0  0  0  0  0
  142.3240   75.2270  217.8010 C   0  0  2  0  0  0  0  0  0  0  0  0
  143.0160   74.0550  217.9900 O   0  0  0  0  0  0  0  0  0  0  0  0
  142.9430   76.4220  218.4990 C   0  0  0  0  0  0  0  0  0  0  0  0
  142.3780   76.4190  219.8820 C   0  0  1  0  0  0  0  0  0  0  0  0
  141.8160   77.7370  220.2720 C   0  0  0  0  0  0  0  0  0  0  0  0
  141.4860   78.6080  219.4410 O   0  0  0  0  0  0  0  0  0  0  0  0
  141.6650   77.9740  221.6810 N   0  0  0  0  0  0  0  0  0  0  0  0
  141.1200   79.2490  222.1140 C   0  0  0  0  0  0  0  0  0  0  0  0
  142.0720   80.3240  221.6330 C   0  0  0  0  0  0  0  0  0  0  0  0
  141.8150   81.6380  222.3460 C   0  0  0  0  0  0  0  0  0  0  0  0
  142.1900   81.5050  223.7980 C   0  0  0  0  0  0  0  0  0  0  0  0
  142.2040   80.0410  224.1710 C   0  0  0  0  0  0  0  0  0  0  0  0
  141.0090   79.3340  223.6120 C   0  0  0  0  0  0  0  0  0  0  0  0
  140.1610   71.3540  223.3620 C   0  0  0  0  0  0  0  0  0  0  0  0
  139.5390   70.1050  223.2680 C   0  0  0  0  0  0  0  0  0  0  0  0
  139.4250   69.2960  224.4010 C   0  0  0  0  0  0  0  0  0  0  0  0
  139.9110   69.6930  225.6320 C   0  0  0  0  0  0  0  0  0  0  0  0
  139.8080   68.9070  226.7680 C   0  0  0  0  0  0  0  0  0  0  0  0
  140.3370   69.4190  227.9430 C   0  0  0  0  0  0  0  0  0  0  0  0
  140.2640   68.6930  229.0850 F   0  0  0  0  0  0  0  0  0  0  0  0
  140.9460   70.6590  228.0020 C   0  0  0  0  0  0  0  0  0  0  0  0
  141.0420   71.4360  226.8560 C   0  0  0  0  0  0  0  0  0  0  0  0
  140.5200   70.9420  225.6770 C   0  0  0  0  0  0  0  0  0  0  0  0
  140.6220   71.7080  224.5740 N   0  0  0  0  0  0  0  0  0  0  0  0
  138.5620   73.4010  222.7350 H   0  0  0  0  0  0  0  0  0  0  0  0
  139.5878   73.4817  219.9718 H   0  0  0  0  0  0  0  0  0  0  0  0
  138.5119   74.6878  220.7515 H   0  0  0  0  0  0  0  0  0  0  0  0
  140.5844   74.0792  218.4098 H   0  0  0  0  0  0  0  0  0  0  0  0
  140.1935   75.7339  218.0053 H   0  0  0  0  0  0  0  0  0  0  0  0
  142.3049   75.3770  216.7114 H   0  0  0  0  0  0  0  0  0  0  0  0
  142.7330   73.5600  218.8160 H   0  0  0  0  0  0  0  0  0  0  0  0
  144.0380   76.3224  218.5317 H   0  0  0  0  0  0  0  0  0  0  0  0
  142.7202   77.3610  217.9712 H   0  0  0  0  0  0  0  0  0  0  0  0
  143.1762   76.1633  220.5944 H   0  0  0  0  0  0  0  0  0  0  0  0
  141.9330   77.2620  222.3820 H   0  0  0  0  0  0  0  0  0  0  0  0
  140.1079   79.3702  221.7005 H   0  0  0  0  0  0  0  0  0  0  0  0
  143.1056   80.0037  221.8309 H   0  0  0  0  0  0  0  0  0  0  0  0
  141.9143   80.4742  220.5548 H   0  0  0  0  0  0  0  0  0  0  0  0
  142.4204   82.4308  221.8824 H   0  0  0  0  0  0  0  0  0  0  0  0
  140.7486   81.8954  222.2656 H   0  0  0  0  0  0  0  0  0  0  0  0
  143.1883   81.9368  223.9620 H   0  0  0  0  0  0  0  0  0  0  0  0
  141.4581   82.0400  224.4211 H   0  0  0  0  0  0  0  0  0  0  0  0
  143.1170   79.5763  223.7703 H   0  0  0  0  0  0  0  0  0  0  0  0
  142.1791   79.9583  225.2676 H   0  0  0  0  0  0  0  0  0  0  0  0
  140.9560   78.3188  224.0322 H   0  0  0  0  0  0  0  0  0  0  0  0
  140.0998   79.8935  223.8771 H   0  0  0  0  0  0  0  0  0  0  0  0
  139.1399   69.7600  222.3028 H   0  0  0  0  0  0  0  0  0  0  0  0
  138.9346   68.3155  224.3107 H   0  0  0  0  0  0  0  0  0  0  0  0
  139.3268   67.9183  226.7392 H   0  0  0  0  0  0  0  0  0  0  0  0
  141.3533   71.0286  228.9546 H   0  0  0  0  0  0  0  0  0  0  0  0
  141.5238   72.4244  226.8863 H   0  0  0  0  0  0  0  0  0  0  0  0
  1  2  2  0
  2  3  1  0
  3  4  1  0
  4  5  1  0
  5  6  2  0
  5  7  1  0
  7  8  1  0
  8  9  1  0
  9 10  1  0
  9 11  1  0
 11 12  1  0
 12 13  1  0
 13 14  2  0
 13 15  1  0
 15 16  1  0
 16 17  1  0
 17 18  1  0
 18 19  1  0
 19 20  1  0
 20 21  1  0
  2 22  1  0
 22 23  2  0
 23 24  1  0
 24 25  2  0
 25 26  1  0
 26 27  2  0
 27 28  1  0
 27 29  1  0
 29 30  2  0
 30 31  1  0
 31 32  2  0
 12  7  1  0
 21 16  1  0
 32 22  1  0
 31 25  1  0
  3 33  1  0
  4 34  1  0
  4 35  1  0
  8 36  1  0
  8 37  1  0
  9 38  1  6
 10 39  1  0
 11 40  1  0
 11 41  1  0
 12 42  1  1
 15 43  1  0
 16 44  1  0
 17 45  1  0
 17 46  1  0
 18 47  1  0
 18 48  1  0
 19 49  1  0
 19 50  1  0
 20 51  1  0
 20 52  1  0
 21 53  1  0
 21 54  1  0
 23 55  1  0
 24 56  1  0
 26 57  1  0
 29 58  1  0
 30 59  1  0
M  END
>  <smiles>  (13) 
O=C(NCC(=O)N1C[C@H](O)C[C@H]1C(=O)NC1CCCCC1)c1ccc2cc(F)ccc2n1

>  <score_type>  (13) 
oracle

>  <origin>  (13) 
autodockgpu

>  <m_score__min__energy>  (13) 
-8.9499999999999993

>  <m_primary>  (13) 
energy

>  <meeko>  (13) 
{"free_energy": -8.89, "intermolecular_energy": -10.98, "internal_energy": -2.26, "cluster_size": 12, "cluster_id": 1, "rank_in_cluster": 2}

>  <energy>  (13) 
-8.19

>  <cluster_rmsd>  (13) 
0.0

>  <rmsd>  (13) 
270.44

>  <cluster>  (13) 
2

$$$$

     RDKit          3D

 59 62  0  0  0  0  0  0  0  0999 V2000
  139.6380   70.9470  220.7670 O   0  0  0  0  0  0  0  0  0  0  0  0
  139.8960   71.5330  221.8500 C   0  0  0  0  0  0  0  0  0  0  0  0
  140.2760   72.9040  221.9010 N   0  0  0  0  0  0  0  0  0  0  0  0
  140.3590   73.6240  220.6470 C   0  0  0  0  0  0  0  0  0  0  0  0
  141.2370   74.8220  220.8240 C   0  0  0  0  0  0  0  0  0  0  0  0
  141.4300   75.3080  221.9710 O   0  0  0  0  0  0  0  0  0  0  0  0
  141.8370   75.3820  219.6450 N   0  0  0  0  0  0  0  0  0  0  0  0
  141.6210   74.9730  218.2580 C   0  0  0  0  0  0  0  0  0  0  0  0
  142.9480   75.3090  217.6060 C   0  0  2  0  0  0  0  0  0  0  0  0
  143.8150   74.2610  217.8010 O   0  0  0  0  0  0  0  0  0  0  0  0
  143.3610   76.5850  218.3140 C   0  0  0  0  0  0  0  0  0  0  0  0
  142.7860   76.4860  219.6900 C   0  0  1  0  0  0  0  0  0  0  0  0
  142.0170   77.6970  220.0740 C   0  0  0  0  0  0  0  0  0  0  0  0
  141.5570   78.5040  219.2410 O   0  0  0  0  0  0  0  0  0  0  0  0
  141.8210   77.9060  221.4830 N   0  0  0  0  0  0  0  0  0  0  0  0
  141.0750   79.0770  221.9110 C   0  0  0  0  0  0  0  0  0  0  0  0
  141.7880   80.2880  221.3470 C   0  0  0  0  0  0  0  0  0  0  0  0
  141.3330   81.5600  222.0370 C   0  0  0  0  0  0  0  0  0  0  0  0
  141.8010   81.5500  223.4690 C   0  0  0  0  0  0  0  0  0  0  0  0
  142.1010   80.1280  223.8800 C   0  0  0  0  0  0  0  0  0  0  0  0
  141.0280   79.1960  223.4100 C   0  0  0  0  0  0  0  0  0  0  0  0
  139.8170   70.8200  223.1230 C   0  0  0  0  0  0  0  0  0  0  0  0
  139.2220   69.5560  223.1870 C   0  0  0  0  0  0  0  0  0  0  0  0
  139.1500   68.8800  224.4080 C   0  0  0  0  0  0  0  0  0  0  0  0
  139.6520   69.4260  225.5740 C   0  0  0  0  0  0  0  0  0  0  0  0
  139.5910   68.7740  226.7940 C   0  0  0  0  0  0  0  0  0  0  0  0
  140.1320   69.4280  227.8910 C   0  0  0  0  0  0  0  0  0  0  0  0
  140.1000   68.8370  229.1090 F   0  0  0  0  0  0  0  0  0  0  0  0
  140.7140   70.6780  227.7930 C   0  0  0  0  0  0  0  0  0  0  0  0
  140.7680   71.3200  226.5640 C   0  0  0  0  0  0  0  0  0  0  0  0
  140.2340   70.6840  225.4610 C   0  0  0  0  0  0  0  0  0  0  0  0
  140.2950   71.3200  224.2760 N   0  0  0  0  0  0  0  0  0  0  0  0
  140.4900   73.3860  222.8070 H   0  0  0  0  0  0  0  0  0  0  0  0
  140.7841   72.9676  219.8735 H   0  0  0  0  0  0  0  0  0  0  0  0
  139.3533   73.9456  220.3386 H   0  0  0  0  0  0  0  0  0  0  0  0
  141.4060   73.8964  218.1900 H   0  0  0  0  0  0  0  0  0  0  0  0
  140.7614   75.4689  217.7835 H   0  0  0  0  0  0  0  0  0  0  0  0
  142.9185   75.4589  216.5167 H   0  0  0  0  0  0  0  0  0  0  0  0
  144.7620   74.5570  217.9560 H   0  0  0  0  0  0  0  0  0  0  0  0
  144.4574   76.6605  218.3606 H   0  0  0  0  0  0  0  0  0  0  0  0
  142.9990   77.4791  217.7852 H   0  0  0  0  0  0  0  0  0  0  0  0
  143.6048   76.3569  220.4131 H   0  0  0  0  0  0  0  0  0  0  0  0
  142.1960   77.2470  222.1860 H   0  0  0  0  0  0  0  0  0  0  0  0
  140.0380   78.9977  221.5527 H   0  0  0  0  0  0  0  0  0  0  0  0
  142.8715   80.1676  221.4936 H   0  0  0  0  0  0  0  0  0  0  0  0
  141.5492   80.3668  220.2761 H   0  0  0  0  0  0  0  0  0  0  0  0
  141.7593   82.4312  221.5181 H   0  0  0  0  0  0  0  0  0  0  0  0
  140.2349   81.6185  222.0107 H   0  0  0  0  0  0  0  0  0  0  0  0
  142.7110   82.1607  223.5636 H   0  0  0  0  0  0  0  0  0  0  0  0
  141.0168   81.9663  224.1185 H   0  0  0  0  0  0  0  0  0  0  0  0
  143.0616   79.8215  223.4404 H   0  0  0  0  0  0  0  0  0  0  0  0
  142.1479   80.0831  224.9781 H   0  0  0  0  0  0  0  0  0  0  0  0
  141.1833   78.2043  223.8598 H   0  0  0  0  0  0  0  0  0  0  0  0
  140.0468   79.5911  223.7118 H   0  0  0  0  0  0  0  0  0  0  0  0
  138.8110   69.0943  222.2771 H   0  0  0  0  0  0  0  0  0  0  0  0
  138.6807   67.8857  224.4419 H   0  0  0  0  0  0  0  0  0  0  0  0
  139.1325   67.7787  226.8893 H   0  0  0  0  0  0  0  0  0  0  0  0
  141.1333   71.1626  228.6871 H   0  0  0  0  0  0  0  0  0  0  0  0
  141.2269   72.3153  226.4704 H   0  0  0  0  0  0  0  0  0  0  0  0
  1  2  2  0
  2  3  1  0
  3  4  1  0
  4  5  1  0
  5  6  2  0
  5  7  1  0
  7  8  1  0
  8  9  1  0
  9 10  1  0
  9 11  1  0
 11 12  1  0
 12 13  1  0
 13 14  2  0
 13 15  1  0
 15 16  1  0
 16 17  1  0
 17 18  1  0
 18 19  1  0
 19 20  1  0
 20 21  1  0
  2 22  1  0
 22 23  2  0
 23 24  1  0
 24 25  2  0
 25 26  1  0
 26 27  2  0
 27 28  1  0
 27 29  1  0
 29 30  2  0
 30 31  1  0
 31 32  2  0
 12  7  1  0
 21 16  1  0
 32 22  1  0
 31 25  1  0
  3 33  1  0
  4 34  1  0
  4 35  1  0
  8 36  1  0
  8 37  1  0
  9 38  1  6
 10 39  1  0
 11 40  1  0
 11 41  1  0
 12 42  1  1
 15 43  1  0
 16 44  1  0
 17 45  1  0
 17 46  1  0
 18 47  1  0
 18 48  1  0
 19 49  1  0
 19 50  1  0
 20 51  1  0
 20 52  1  0
 21 53  1  0
 21 54  1  0
 23 55  1  0
 24 56  1  0
 26 57  1  0
 29 58  1  0
 30 59  1  0
M  END
>  <smiles>  (14) 
O=C(NCC(=O)N1C[C@H](O)C[C@H]1C(=O)NC1CCCCC1)c1ccc2cc(F)ccc2n1

>  <score_type>  (14) 
oracle

>  <origin>  (14) 
autodockgpu

>  <m_score__min__energy>  (14) 
-8.9499999999999993

>  <m_primary>  (14) 
energy

>  <meeko>  (14) 
{"free_energy": -8.53, "intermolecular_energy": -10.62, "internal_energy": -2.69, "cluster_size": 12, "cluster_id": 1, "rank_in_cluster": 9}

>  <energy>  (14) 
-8.14

>  <cluster_rmsd>  (14) 
0.26

>  <rmsd>  (14) 
270.43

>  <cluster>  (14) 
2

$$$$

     RDKit          3D

 59 62  0  0  0  0  0  0  0  0999 V2000
  139.5840   70.9300  220.7930 O   0  0  0  0  0  0  0  0  0  0  0  0
  139.8710   71.5160  221.8690 C   0  0  0  0  0  0  0  0  0  0  0  0
  140.2790   72.8790  221.9080 N   0  0  0  0  0  0  0  0  0  0  0  0
  140.3590   73.5910  220.6490 C   0  0  0  0  0  0  0  0  0  0  0  0
  141.1970   74.8170  220.8290 C   0  0  0  0  0  0  0  0  0  0  0  0
  141.3340   75.3360  221.9700 O   0  0  0  0  0  0  0  0  0  0  0  0
  141.8260   75.3650  219.6590 N   0  0  0  0  0  0  0  0  0  0  0  0
  141.6370   74.9480  218.2710 C   0  0  0  0  0  0  0  0  0  0  0  0
  142.9800   75.2710  217.6450 C   0  0  2  0  0  0  0  0  0  0  0  0
  143.8360   74.2190  217.8660 O   0  0  0  0  0  0  0  0  0  0  0  0
  143.3860   76.5490  218.3530 C   0  0  0  0  0  0  0  0  0  0  0  0
  142.7800   76.4630  219.7170 C   0  0  1  0  0  0  0  0  0  0  0  0
  142.0110   77.6820  220.0760 C   0  0  0  0  0  0  0  0  0  0  0  0
  141.5470   78.4680  219.2260 O   0  0  0  0  0  0  0  0  0  0  0  0
  141.8210   77.9230  221.4810 N   0  0  0  0  0  0  0  0  0  0  0  0
  141.0750   79.1020  221.8840 C   0  0  0  0  0  0  0  0  0  0  0  0
  141.8030   80.3030  221.3180 C   0  0  0  0  0  0  0  0  0  0  0  0
  141.3440   81.5850  221.9870 C   0  0  0  0  0  0  0  0  0  0  0  0
  141.7890   81.5890  223.4260 C   0  0  0  0  0  0  0  0  0  0  0  0
  142.0750   80.1690  223.8580 C   0  0  0  0  0  0  0  0  0  0  0  0
  141.0050   79.2380  223.3810 C   0  0  0  0  0  0  0  0  0  0  0  0
  139.7960   70.8100  223.1470 C   0  0  0  0  0  0  0  0  0  0  0  0
  139.2060   69.5440  223.2200 C   0  0  0  0  0  0  0  0  0  0  0  0
  139.1380   68.8760  224.4450 C   0  0  0  0  0  0  0  0  0  0  0  0
  139.6400   69.4310  225.6060 C   0  0  0  0  0  0  0  0  0  0  0  0
  139.5830   68.7860  226.8310 C   0  0  0  0  0  0  0  0  0  0  0  0
  140.1230   69.4500  227.9230 C   0  0  0  0  0  0  0  0  0  0  0  0
  140.0940   68.8660  229.1450 F   0  0  0  0  0  0  0  0  0  0  0  0
  140.6990   70.7020  227.8160 C   0  0  0  0  0  0  0  0  0  0  0  0
  140.7490   71.3360  226.5830 C   0  0  0  0  0  0  0  0  0  0  0  0
  140.2160   70.6910  225.4850 C   0  0  0  0  0  0  0  0  0  0  0  0
  140.2730   71.3190  224.2960 N   0  0  0  0  0  0  0  0  0  0  0  0
  140.5170   73.3610  222.8080 H   0  0  0  0  0  0  0  0  0  0  0  0
  140.8159   72.9417  219.8876 H   0  0  0  0  0  0  0  0  0  0  0  0
  139.3487   73.8788  220.3227 H   0  0  0  0  0  0  0  0  0  0  0  0
  141.4165   73.8723  218.2057 H   0  0  0  0  0  0  0  0  0  0  0  0
  140.7910   75.4462  217.7750 H   0  0  0  0  0  0  0  0  0  0  0  0
  142.9746   75.4133  216.5543 H   0  0  0  0  0  0  0  0  0  0  0  0
  144.7810   74.5100  218.0390 H   0  0  0  0  0  0  0  0  0  0  0  0
  144.4816   76.6176  218.4232 H   0  0  0  0  0  0  0  0  0  0  0  0
  143.0419   77.4418  217.8103 H   0  0  0  0  0  0  0  0  0  0  0  0
  143.5817   76.3336  220.4589 H   0  0  0  0  0  0  0  0  0  0  0  0
  142.1990   77.2810  222.1970 H   0  0  0  0  0  0  0  0  0  0  0  0
  140.0434   79.0240  221.5102 H   0  0  0  0  0  0  0  0  0  0  0  0
  142.8835   80.1787  221.4828 H   0  0  0  0  0  0  0  0  0  0  0  0
  141.5812   80.3712  220.2427 H   0  0  0  0  0  0  0  0  0  0  0  0
  141.7831   82.4481  221.4653 H   0  0  0  0  0  0  0  0  0  0  0  0
  140.2467   81.6485  221.9429 H   0  0  0  0  0  0  0  0  0  0  0  0
  142.7006   82.1960  223.5282 H   0  0  0  0  0  0  0  0  0  0  0  0
  140.9969   82.0168  224.0582 H   0  0  0  0  0  0  0  0  0  0  0  0
  143.0409   79.8526  223.4375 H   0  0  0  0  0  0  0  0  0  0  0  0
  142.1041   80.1360  224.9571 H   0  0  0  0  0  0  0  0  0  0  0  0
  141.1476   78.2505  223.8441 H   0  0  0  0  0  0  0  0  0  0  0  0
  140.0213   79.6419  223.6625 H   0  0  0  0  0  0  0  0  0  0  0  0
  138.7959   69.0747  222.3136 H   0  0  0  0  0  0  0  0  0  0  0  0
  138.6718   67.8805  224.4862 H   0  0  0  0  0  0  0  0  0  0  0  0
  139.1287   67.7894  226.9334 H   0  0  0  0  0  0  0  0  0  0  0  0
  141.1168   71.1945  228.7064 H   0  0  0  0  0  0  0  0  0  0  0  0
  141.2041   72.3324  226.4823 H   0  0  0  0  0  0  0  0  0  0  0  0
  1  2  2  0
  2  3  1  0
  3  4  1  0
  4  5  1  0
  5  6  2  0
  5  7  1  0
  7  8  1  0
  8  9  1  0
  9 10  1  0
  9 11  1  0
 11 12  1  0
 12 13  1  0
 13 14  2  0
 13 15  1  0
 15 16  1  0
 16 17  1  0
 17 18  1  0
 18 19  1  0
 19 20  1  0
 20 21  1  0
  2 22  1  0
 22 23  2  0
 23 24  1  0
 24 25  2  0
 25 26  1  0
 26 27  2  0
 27 28  1  0
 27 29  1  0
 29 30  2  0
 30 31  1  0
 31 32  2  0
 12  7  1  0
 21 16  1  0
 32 22  1  0
 31 25  1  0
  3 33  1  0
  4 34  1  0
  4 35  1  0
  8 36  1  0
  8 37  1  0
  9 38  1  6
 10 39  1  0
 11 40  1  0
 11 41  1  0
 12 42  1  1
 15 43  1  0
 16 44  1  0
 17 45  1  0
 17 46  1  0
 18 47  1  0
 18 48  1  0
 19 49  1  0
 19 50  1  0
 20 51  1  0
 20 52  1  0
 21 53  1  0
 21 54  1  0
 23 55  1  0
 24 56  1  0
 26 57  1  0
 29 58  1  0
 30 59  1  0
M  END
>  <smiles>  (15) 
O=C(NCC(=O)N1C[C@H](O)C[C@H]1C(=O)NC1CCCCC1)c1ccc2cc(F)ccc2n1

>  <score_type>  (15) 
oracle

>  <origin>  (15) 
autodockgpu

>  <m_score__min__energy>  (15) 
-8.9499999999999993

>  <m_primary>  (15) 
energy

>  <meeko>  (15) 
{"free_energy": -8.53, "intermolecular_energy": -10.62, "internal_energy": -2.7, "cluster_size": 12, "cluster_id": 1, "rank_in_cluster": 8}

>  <energy>  (15) 
-8.13

>  <cluster_rmsd>  (15) 
0.09

>  <rmsd>  (15) 
270.43

>  <cluster>  (15) 
2

$$$$

     RDKit          3D

 59 62  0  0  0  0  0  0  0  0999 V2000
  138.7180   75.2930  221.6860 O   0  0  0  0  0  0  0  0  0  0  0  0
  139.8840   75.6610  221.9820 C   0  0  0  0  0  0  0  0  0  0  0  0
  141.0020   74.7840  221.9020 N   0  0  0  0  0  0  0  0  0  0  0  0
  140.7590   73.4260  221.4610 C   0  0  0  0  0  0  0  0  0  0  0  0
  141.3310   73.2440  220.0900 C   0  0  0  0  0  0  0  0  0  0  0  0
  140.6060   72.8320  219.1450 O   0  0  0  0  0  0  0  0  0  0  0  0
  142.7210   73.5570  219.9070 N   0  0  0  0  0  0  0  0  0  0  0  0
  143.7600   72.6930  219.3470 C   0  0  0  0  0  0  0  0  0  0  0  0
  145.0070   73.1740  220.0620 C   0  0  2  0  0  0  0  0  0  0  0  0
  145.0980   72.5330  221.2740 O   0  0  0  0  0  0  0  0  0  0  0  0
  144.7780   74.6680  220.1760 C   0  0  0  0  0  0  0  0  0  0  0  0
  143.2970   74.8420  220.2750 C   0  0  1  0  0  0  0  0  0  0  0  0
  142.7750   75.8390  219.3060 C   0  0  0  0  0  0  0  0  0  0  0  0
  142.8180   75.6750  218.0700 O   0  0  0  0  0  0  0  0  0  0  0  0
  142.2040   77.0330  219.8670 N   0  0  0  0  0  0  0  0  0  0  0  0
  141.6790   78.0400  218.9610 C   0  0  0  0  0  0  0  0  0  0  0  0
  142.8630   78.6470  218.2380 C   0  0  0  0  0  0  0  0  0  0  0  0
  142.4810   79.9520  217.5650 C   0  0  0  0  0  0  0  0  0  0  0  0
  142.1790   80.9900  218.6140 C   0  0  0  0  0  0  0  0  0  0  0  0
  141.8610   80.2950  219.9180 C   0  0  0  0  0  0  0  0  0  0  0  0
  140.9470   79.1310  219.6960 C   0  0  0  0  0  0  0  0  0  0  0  0
  140.1440   77.0280  222.4300 C   0  0  0  0  0  0  0  0  0  0  0  0
  139.0820   77.8870  222.7270 C   0  0  0  0  0  0  0  0  0  0  0  0
  139.3390   79.1930  223.1550 C   0  0  0  0  0  0  0  0  0  0  0  0
  140.6260   79.6720  223.2950 C   0  0  0  0  0  0  0  0  0  0  0  0
  140.9040   80.9620  223.7170 C   0  0  0  0  0  0  0  0  0  0  0  0
  142.2390   81.3230  223.8180 C   0  0  0  0  0  0  0  0  0  0  0  0
  142.5680   82.5730  224.2260 F   0  0  0  0  0  0  0  0  0  0  0  0
  143.2660   80.4490  223.5160 C   0  0  0  0  0  0  0  0  0  0  0  0
  142.9740   79.1590  223.0950 C   0  0  0  0  0  0  0  0  0  0  0  0
  141.6500   78.7830  222.9870 C   0  0  0  0  0  0  0  0  0  0  0  0
  141.3830   77.5290  222.5780 N   0  0  0  0  0  0  0  0  0  0  0  0
  141.9710   75.0980  222.1510 H   0  0  0  0  0  0  0  0  0  0  0  0
  141.2392   72.7219  222.1564 H   0  0  0  0  0  0  0  0  0  0  0  0
  139.6763   73.2330  221.4383 H   0  0  0  0  0  0  0  0  0  0  0  0
  143.5584   71.6344  219.5679 H   0  0  0  0  0  0  0  0  0  0  0  0
  143.8336   72.7494  218.2509 H   0  0  0  0  0  0  0  0  0  0  0  0
  145.9588   72.9623  219.5528 H   0  0  0  0  0  0  0  0  0  0  0  0
  145.5410   71.6330  221.2120 H   0  0  0  0  0  0  0  0  0  0  0  0
  145.2720   75.0645  221.0753 H   0  0  0  0  0  0  0  0  0  0  0  0
  145.1945   75.2102  219.3143 H   0  0  0  0  0  0  0  0  0  0  0  0
  143.0426   75.1843  221.2890 H   0  0  0  0  0  0  0  0  0  0  0  0
  142.1600   77.1840  220.8890 H   0  0  0  0  0  0  0  0  0  0  0  0
  140.9638   77.5693  218.2704 H   0  0  0  0  0  0  0  0  0  0  0  0
  143.6673   78.8388  218.9635 H   0  0  0  0  0  0  0  0  0  0  0  0
  143.2002   77.9407  217.4651 H   0  0  0  0  0  0  0  0  0  0  0  0
  143.3149   80.2980  216.9366 H   0  0  0  0  0  0  0  0  0  0  0  0
  141.5903   79.7941  216.9392 H   0  0  0  0  0  0  0  0  0  0  0  0
  143.0535   81.6436  218.7483 H   0  0  0  0  0  0  0  0  0  0  0  0
  141.3185   81.5980  218.2978 H   0  0  0  0  0  0  0  0  0  0  0  0
  142.7965   79.9364  220.3720 H   0  0  0  0  0  0  0  0  0  0  0  0
  141.3596   81.0123  220.5844 H   0  0  0  0  0  0  0  0  0  0  0  0
  140.6009   78.7481  220.6674 H   0  0  0  0  0  0  0  0  0  0  0  0
  140.0839   79.4564  219.0967 H   0  0  0  0  0  0  0  0  0  0  0  0
  138.0447   77.5357  222.6241 H   0  0  0  0  0  0  0  0  0  0  0  0
  138.4928   79.8567  223.3864 H   0  0  0  0  0  0  0  0  0  0  0  0
  140.0990   81.6705  223.9618 H   0  0  0  0  0  0  0  0  0  0  0  0
  144.3125   80.7749  223.6091 H   0  0  0  0  0  0  0  0  0  0  0  0
  143.7804   78.4513  222.8525 H   0  0  0  0  0  0  0  0  0  0  0  0
  1  2  2  0
  2  3  1  0
  3  4  1  0
  4  5  1  0
  5  6  2  0
  5  7  1  0
  7  8  1  0
  8  9  1  0
  9 10  1  0
  9 11  1  0
 11 12  1  0
 12 13  1  0
 13 14  2  0
 13 15  1  0
 15 16  1  0
 16 17  1  0
 17 18  1  0
 18 19  1  0
 19 20  1  0
 20 21  1  0
  2 22  1  0
 22 23  2  0
 23 24  1  0
 24 25  2  0
 25 26  1  0
 26 27  2  0
 27 28  1  0
 27 29  1  0
 29 30  2  0
 30 31  1  0
 31 32  2  0
 12  7  1  0
 21 16  1  0
 32 22  1  0
 31 25  1  0
  3 33  1  0
  4 34  1  0
  4 35  1  0
  8 36  1  0
  8 37  1  0
  9 38  1  6
 10 39  1  0
 11 40  1  0
 11 41  1  0
 12 42  1  1
 15 43  1  0
 16 44  1  0
 17 45  1  0
 17 46  1  0
 18 47  1  0
 18 48  1  0
 19 49  1  0
 19 50  1  0
 20 51  1  0
 20 52  1  0
 21 53  1  0
 21 54  1  0
 23 55  1  0
 24 56  1  0
 26 57  1  0
 29 58  1  0
 30 59  1  0
M  END
>  <smiles>  (16) 
O=C(NCC(=O)N1C[C@H](O)C[C@H]1C(=O)NC1CCCCC1)c1ccc2cc(F)ccc2n1

>  <score_type>  (16) 
oracle

>  <origin>  (16) 
autodockgpu

>  <m_score__min__energy>  (16) 
-8.9499999999999993

>  <m_primary>  (16) 
energy

>  <meeko>  (16) 
{"free_energy": -6.81, "intermolecular_energy": -8.9, "internal_energy": -3.77, "cluster_size": 2, "cluster_id": 4, "rank_in_cluster": 2}

>  <energy>  (16) 
-8.09

>  <cluster_rmsd>  (16) 
0.17

>  <rmsd>  (16) 
270.46

>  <cluster>  (16) 
2

$$$$

     RDKit          3D

 59 62  0  0  0  0  0  0  0  0999 V2000
  139.4550   70.9570  220.7740 O   0  0  0  0  0  0  0  0  0  0  0  0
  139.8580   71.5110  221.8290 C   0  0  0  0  0  0  0  0  0  0  0  0
  140.3940   72.8300  221.8380 N   0  0  0  0  0  0  0  0  0  0  0  0
  140.4650   73.5340  220.5740 C   0  0  0  0  0  0  0  0  0  0  0  0
  141.1820   74.8320  220.7730 C   0  0  0  0  0  0  0  0  0  0  0  0
  141.2350   75.3640  221.9150 O   0  0  0  0  0  0  0  0  0  0  0  0
  141.7970   75.4300  219.6210 N   0  0  0  0  0  0  0  0  0  0  0  0
  141.6020   75.0630  218.2190 C   0  0  0  0  0  0  0  0  0  0  0  0
  142.9370   75.4250  217.5960 C   0  0  2  0  0  0  0  0  0  0  0  0
  143.8060   74.3760  217.7720 O   0  0  0  0  0  0  0  0  0  0  0  0
  143.3340   76.6800  218.3490 C   0  0  0  0  0  0  0  0  0  0  0  0
  142.7390   76.5360  219.7130 C   0  0  1  0  0  0  0  0  0  0  0  0
  141.9590   77.7320  220.1240 C   0  0  0  0  0  0  0  0  0  0  0  0
  141.4640   78.5340  219.3060 O   0  0  0  0  0  0  0  0  0  0  0  0
  141.7950   77.9290  221.5380 N   0  0  0  0  0  0  0  0  0  0  0  0
  141.0400   79.0850  221.9900 C   0  0  0  0  0  0  0  0  0  0  0  0
  141.6780   80.3060  221.3620 C   0  0  0  0  0  0  0  0  0  0  0  0
  141.2250   81.5760  222.0570 C   0  0  0  0  0  0  0  0  0  0  0  0
  141.7800   81.6090  223.4570 C   0  0  0  0  0  0  0  0  0  0  0  0
  142.1500   80.2050  223.8740 C   0  0  0  0  0  0  0  0  0  0  0  0
  141.0810   79.2320  223.4880 C   0  0  0  0  0  0  0  0  0  0  0  0
  139.7920   70.8130  223.1120 C   0  0  0  0  0  0  0  0  0  0  0  0
  139.1970   69.5510  223.1980 C   0  0  0  0  0  0  0  0  0  0  0  0
  139.1390   68.8900  224.4280 C   0  0  0  0  0  0  0  0  0  0  0  0
  139.6550   69.4500  225.5800 C   0  0  0  0  0  0  0  0  0  0  0  0
  139.6070   68.8120  226.8090 C   0  0  0  0  0  0  0  0  0  0  0  0
  140.1620   69.4800  227.8920 C   0  0  0  0  0  0  0  0  0  0  0  0
  140.1430   68.9030  229.1170 F   0  0  0  0  0  0  0  0  0  0  0  0
  140.7430   70.7280  227.7720 C   0  0  0  0  0  0  0  0  0  0  0  0
  140.7840   71.3550  226.5340 C   0  0  0  0  0  0  0  0  0  0  0  0
  140.2360   70.7060  225.4460 C   0  0  0  0  0  0  0  0  0  0  0  0
  140.2840   71.3270  224.2530 N   0  0  0  0  0  0  0  0  0  0  0  0
  140.7270   73.2860  222.7220 H   0  0  0  0  0  0  0  0  0  0  0  0
  141.0106   72.9209  219.8416 H   0  0  0  0  0  0  0  0  0  0  0  0
  139.4483   73.7270  220.2010 H   0  0  0  0  0  0  0  0  0  0  0  0
  141.3932   73.9880  218.1148 H   0  0  0  0  0  0  0  0  0  0  0  0
  140.7466   75.5695  217.7481 H   0  0  0  0  0  0  0  0  0  0  0  0
  142.9218   75.6081  216.5114 H   0  0  0  0  0  0  0  0  0  0  0  0
  144.7610   74.6680  217.8730 H   0  0  0  0  0  0  0  0  0  0  0  0
  144.4293   76.7583  218.4142 H   0  0  0  0  0  0  0  0  0  0  0  0
  142.9760   77.5886  217.8428 H   0  0  0  0  0  0  0  0  0  0  0  0
  143.5480   76.3881  220.4435 H   0  0  0  0  0  0  0  0  0  0  0  0
  142.1990   77.2730  222.2270 H   0  0  0  0  0  0  0  0  0  0  0  0
  139.9862   78.9670  221.6973 H   0  0  0  0  0  0  0  0  0  0  0  0
  142.7718   80.2221  221.4435 H   0  0  0  0  0  0  0  0  0  0  0  0
  141.3723   80.3567  220.3065 H   0  0  0  0  0  0  0  0  0  0  0  0
  141.5898   82.4500  221.4975 H   0  0  0  0  0  0  0  0  0  0  0  0
  140.1260   81.5988  222.0982 H   0  0  0  0  0  0  0  0  0  0  0  0
  142.6741   82.2492  223.4840 H   0  0  0  0  0  0  0  0  0  0  0  0
  141.0244   82.0139  224.1463 H   0  0  0  0  0  0  0  0  0  0  0  0
  143.0912   79.9196  223.3813 H   0  0  0  0  0  0  0  0  0  0  0  0
  142.2656   80.1831  224.9677 H   0  0  0  0  0  0  0  0  0  0  0  0
  141.2950   78.2545  223.9449 H   0  0  0  0  0  0  0  0  0  0  0  0
  140.1080   79.6027  223.8428 H   0  0  0  0  0  0  0  0  0  0  0  0
  138.7750   69.0788  222.2986 H   0  0  0  0  0  0  0  0  0  0  0  0
  138.6695   67.8966  224.4799 H   0  0  0  0  0  0  0  0  0  0  0  0
  139.1486   67.8184  226.9218 H   0  0  0  0  0  0  0  0  0  0  0  0
  141.1720   71.2236  228.6554 H   0  0  0  0  0  0  0  0  0  0  0  0
  141.2436   72.3482  226.4225 H   0  0  0  0  0  0  0  0  0  0  0  0
  1  2  2  0
  2  3  1  0
  3  4  1  0
  4  5  1  0
  5  6  2  0
  5  7  1  0
  7  8  1  0
  8  9  1  0
  9 10  1  0
  9 11  1  0
 11 12  1  0
 12 13  1  0
 13 14  2  0
 13 15  1  0
 15 16  1  0
 16 17  1  0
 17 18  1  0
 18 19  1  0
 19 20  1  0
 20 21  1  0
  2 22  1  0
 22 23  2  0
 23 24  1  0
 24 25  2  0
 25 26  1  0
 26 27  2  0
 27 28  1  0
 27 29  1  0
 29 30  2  0
 30 31  1  0
 31 32  2  0
 12  7  1  0
 21 16  1  0
 32 22  1  0
 31 25  1  0
  3 33  1  0
  4 34  1  0
  4 35  1  0
  8 36  1  0
  8 37  1  0
  9 38  1  6
 10 39  1  0
 11 40  1  0
 11 41  1  0
 12 42  1  1
 15 43  1  0
 16 44  1  0
 17 45  1  0
 17 46  1  0
 18 47  1  0
 18 48  1  0
 19 49  1  0
 19 50  1  0
 20 51  1  0
 20 52  1  0
 21 53  1  0
 21 54  1  0
 23 55  1  0
 24 56  1  0
 26 57  1  0
 29 58  1  0
 30 59  1  0
M  END
>  <smiles>  (17) 
O=C(NCC(=O)N1C[C@H](O)C[C@H]1C(=O)NC1CCCCC1)c1ccc2cc(F)ccc2n1

>  <score_type>  (17) 
oracle

>  <origin>  (17) 
autodockgpu

>  <m_score__min__energy>  (17) 
-8.9499999999999993

>  <m_primary>  (17) 
energy

>  <meeko>  (17) 
{"free_energy": -8.53, "intermolecular_energy": -10.62, "internal_energy": -2.65, "cluster_size": 12, "cluster_id": 1, "rank_in_cluster": 6}

>  <energy>  (17) 
-7.76

>  <cluster_rmsd>  (17) 
0.0

>  <rmsd>  (17) 
270.87

>  <cluster>  (17) 
3

$$$$

     RDKit          3D

 59 62  0  0  0  0  0  0  0  0999 V2000
  138.5960   75.3350  221.5460 O   0  0  0  0  0  0  0  0  0  0  0  0
  139.7480   75.6450  221.9450 C   0  0  0  0  0  0  0  0  0  0  0  0
  140.8240   74.7120  221.9630 N   0  0  0  0  0  0  0  0  0  0  0  0
  140.5520   73.3670  221.4990 C   0  0  0  0  0  0  0  0  0  0  0  0
  141.1230   73.1950  220.1270 C   0  0  0  0  0  0  0  0  0  0  0  0
  140.4130   72.7300  219.1940 O   0  0  0  0  0  0  0  0  0  0  0  0
  142.4930   73.5770  219.9280 N   0  0  0  0  0  0  0  0  0  0  0  0
  143.5620   72.7730  219.3370 C   0  0  0  0  0  0  0  0  0  0  0  0
  144.7970   73.3000  220.0410 C   0  0  2  0  0  0  0  0  0  0  0  0
  144.9390   72.6430  221.2390 O   0  0  0  0  0  0  0  0  0  0  0  0
  144.5000   74.7800  220.1870 C   0  0  0  0  0  0  0  0  0  0  0  0
  143.0140   74.8810  220.3110 C   0  0  1  0  0  0  0  0  0  0  0  0
  142.4290   75.8700  219.3700 C   0  0  0  0  0  0  0  0  0  0  0  0
  142.1440   75.5950  218.1860 O   0  0  0  0  0  0  0  0  0  0  0  0
  142.2000   77.1890  219.8930 N   0  0  0  0  0  0  0  0  0  0  0  0
  141.6290   78.1920  219.0110 C   0  0  0  0  0  0  0  0  0  0  0  0
  142.7780   78.8140  218.2440 C   0  0  0  0  0  0  0  0  0  0  0  0
  142.3550   80.1160  217.5910 C   0  0  0  0  0  0  0  0  0  0  0  0
  142.0840   81.1480  218.6540 C   0  0  0  0  0  0  0  0  0  0  0  0
  141.8240   80.4470  219.9670 C   0  0  0  0  0  0  0  0  0  0  0  0
  140.9160   79.2730  219.7770 C   0  0  0  0  0  0  0  0  0  0  0  0
  140.0370   76.9990  222.4160 C   0  0  0  0  0  0  0  0  0  0  0  0
  138.9930   77.8650  222.7540 C   0  0  0  0  0  0  0  0  0  0  0  0
  139.2770   79.1570  223.2040 C   0  0  0  0  0  0  0  0  0  0  0  0
  140.5740   79.6170  223.3270 C   0  0  0  0  0  0  0  0  0  0  0  0
  140.8770   80.8940  223.7700 C   0  0  0  0  0  0  0  0  0  0  0  0
  142.2200   81.2350  223.8500 C   0  0  0  0  0  0  0  0  0  0  0  0
  142.5740   82.4700  224.2770 F   0  0  0  0  0  0  0  0  0  0  0  0
  143.2280   80.3530  223.5070 C   0  0  0  0  0  0  0  0  0  0  0  0
  142.9090   79.0770  223.0650 C   0  0  0  0  0  0  0  0  0  0  0  0
  141.5780   78.7210  222.9780 C   0  0  0  0  0  0  0  0  0  0  0  0
  141.2850   77.4790  222.5480 N   0  0  0  0  0  0  0  0  0  0  0  0
  141.7810   74.9780  222.2970 H   0  0  0  0  0  0  0  0  0  0  0  0
  141.0147   72.6410  222.1837 H   0  0  0  0  0  0  0  0  0  0  0  0
  139.4654   73.1985  221.4708 H   0  0  0  0  0  0  0  0  0  0  0  0
  143.4140   71.7025  219.5421 H   0  0  0  0  0  0  0  0  0  0  0  0
  143.6150   72.8517  218.2411 H   0  0  0  0  0  0  0  0  0  0  0  0
  145.7486   73.1426  219.5122 H   0  0  0  0  0  0  0  0  0  0  0  0
  145.5860   71.8770  221.1940 H   0  0  0  0  0  0  0  0  0  0  0  0
  144.9887   75.1829  221.0864 H   0  0  0  0  0  0  0  0  0  0  0  0
  144.8773   75.3575  219.3302 H   0  0  0  0  0  0  0  0  0  0  0  0
  142.7606   75.1921  221.3352 H   0  0  0  0  0  0  0  0  0  0  0  0
  142.4310   77.4310  220.8710 H   0  0  0  0  0  0  0  0  0  0  0  0
  140.8923   77.7152  218.3477 H   0  0  0  0  0  0  0  0  0  0  0  0
  143.6078   79.0129  218.9381 H   0  0  0  0  0  0  0  0  0  0  0  0
  143.0932   78.1136  217.4566 H   0  0  0  0  0  0  0  0  0  0  0  0
  143.1591   80.4728  216.9306 H   0  0  0  0  0  0  0  0  0  0  0  0
  141.4415   79.9497  217.0012 H   0  0  0  0  0  0  0  0  0  0  0  0
  142.9566   81.8099  218.7561 H   0  0  0  0  0  0  0  0  0  0  0  0
  141.2058   81.7481  218.3734 H   0  0  0  0  0  0  0  0  0  0  0  0
  142.7802   80.0984  220.3843 H   0  0  0  0  0  0  0  0  0  0  0  0
  141.3400   81.1570  220.6537 H   0  0  0  0  0  0  0  0  0  0  0  0
  140.6127   78.8838  220.7601 H   0  0  0  0  0  0  0  0  0  0  0  0
  140.0272   79.5907  219.2121 H   0  0  0  0  0  0  0  0  0  0  0  0
  137.9491   77.5297  222.6658 H   0  0  0  0  0  0  0  0  0  0  0  0
  138.4449   79.8264  223.4676 H   0  0  0  0  0  0  0  0  0  0  0  0
  140.0868   81.6075  224.0466 H   0  0  0  0  0  0  0  0  0  0  0  0
  144.2808   80.6622  223.5844 H   0  0  0  0  0  0  0  0  0  0  0  0
  143.7001   78.3640  222.7897 H   0  0  0  0  0  0  0  0  0  0  0  0
  1  2  2  0
  2  3  1  0
  3  4  1  0
  4  5  1  0
  5  6  2  0
  5  7  1  0
  7  8  1  0
  8  9  1  0
  9 10  1  0
  9 11  1  0
 11 12  1  0
 12 13  1  0
 13 14  2  0
 13 15  1  0
 15 16  1  0
 16 17  1  0
 17 18  1  0
 18 19  1  0
 19 20  1  0
 20 21  1  0
  2 22  1  0
 22 23  2  0
 23 24  1  0
 24 25  2  0
 25 26  1  0
 26 27  2  0
 27 28  1  0
 27 29  1  0
 29 30  2  0
 30 31  1  0
 31 32  2  0
 12  7  1  0
 21 16  1  0
 32 22  1  0
 31 25  1  0
  3 33  1  0
  4 34  1  0
  4 35  1  0
  8 36  1  0
  8 37  1  0
  9 38  1  6
 10 39  1  0
 11 40  1  0
 11 41  1  0
 12 42  1  1
 15 43  1  0
 16 44  1  0
 17 45  1  0
 17 46  1  0
 18 47  1  0
 18 48  1  0
 19 49  1  0
 19 50  1  0
 20 51  1  0
 20 52  1  0
 21 53  1  0
 21 54  1  0
 23 55  1  0
 24 56  1  0
 26 57  1  0
 29 58  1  0
 30 59  1  0
M  END
>  <smiles>  (18) 
O=C(NCC(=O)N1C[C@H](O)C[C@H]1C(=O)NC1CCCCC1)c1ccc2cc(F)ccc2n1

>  <score_type>  (18) 
oracle

>  <origin>  (18) 
autodockgpu

>  <m_score__min__energy>  (18) 
-8.9499999999999993

>  <m_primary>  (18) 
energy

>  <meeko>  (18) 
{"free_energy": -6.92, "intermolecular_energy": -9.01, "internal_energy": -3.75, "cluster_size": 2, "cluster_id": 4, "rank_in_cluster": 1}

>  <energy>  (18) 
-6.92

>  <cluster_rmsd>  (18) 
0.0

>  <rmsd>  (18) 
271.14

>  <cluster>  (18) 
4

$$$$

     RDKit          3D

 59 62  0  0  0  0  0  0  0  0999 V2000
  138.6260   73.0580  222.2760 O   0  0  0  0  0  0  0  0  0  0  0  0
  139.7370   72.5480  222.5740 C   0  0  0  0  0  0  0  0  0  0  0  0
  140.9350   72.8760  221.8790 N   0  0  0  0  0  0  0  0  0  0  0  0
  140.8420   73.8340  220.7960 C   0  0  0  0  0  0  0  0  0  0  0  0
  142.2180   74.1580  220.3050 C   0  0  0  0  0  0  0  0  0  0  0  0
  143.2290   73.6390  220.8500 O   0  0  0  0  0  0  0  0  0  0  0  0
  142.3280   75.0750  219.2040 N   0  0  0  0  0  0  0  0  0  0  0  0
  141.9970   74.8220  217.8020 C   0  0  0  0  0  0  0  0  0  0  0  0
  142.9560   75.7390  217.0680 C   0  0  2  0  0  0  0  0  0  0  0  0
  144.1600   75.0940  216.9210 O   0  0  0  0  0  0  0  0  0  0  0  0
  143.0200   76.9560  217.9710 C   0  0  0  0  0  0  0  0  0  0  0  0
  142.8080   76.4400  219.3580 C   0  0  1  0  0  0  0  0  0  0  0  0
  141.7520   77.1870  220.0880 C   0  0  0  0  0  0  0  0  0  0  0  0
  140.5360   77.0680  219.8340 O   0  0  0  0  0  0  0  0  0  0  0  0
  142.2020   78.0740  221.1250 N   0  0  0  0  0  0  0  0  0  0  0  0
  141.2070   78.8280  221.8690 C   0  0  0  0  0  0  0  0  0  0  0  0
  141.2660   80.2560  221.3690 C   0  0  0  0  0  0  0  0  0  0  0  0
  140.5600   81.1980  222.3240 C   0  0  0  0  0  0  0  0  0  0  0  0
  141.3310   81.2790  223.6150 C   0  0  0  0  0  0  0  0  0  0  0  0
  142.2230   80.0640  223.7330 C   0  0  0  0  0  0  0  0  0  0  0  0
  141.4860   78.8200  223.3480 C   0  0  0  0  0  0  0  0  0  0  0  0
  139.8470   71.5810  223.6640 C   0  0  0  0  0  0  0  0  0  0  0  0
  139.4480   70.2540  223.4720 C   0  0  0  0  0  0  0  0  0  0  0  0
  139.5560   69.3350  224.5190 C   0  0  0  0  0  0  0  0  0  0  0  0
  140.0490   69.6970  225.7570 C   0  0  0  0  0  0  0  0  0  0  0  0
  140.1650   68.8020  226.8080 C   0  0  0  0  0  0  0  0  0  0  0  0
  140.6760   69.2890  228.0030 C   0  0  0  0  0  0  0  0  0  0  0  0
  140.8110   68.4580  229.0640 F   0  0  0  0  0  0  0  0  0  0  0  0
  141.0610   70.6070  228.1590 C   0  0  0  0  0  0  0  0  0  0  0  0
  140.9400   71.4930  227.0970 C   0  0  0  0  0  0  0  0  0  0  0  0
  140.4320   71.0260  225.9010 C   0  0  0  0  0  0  0  0  0  0  0  0
  140.3210   71.8970  224.8810 N   0  0  0  0  0  0  0  0  0  0  0  0
  141.8580   72.4470  222.1320 H   0  0  0  0  0  0  0  0  0  0  0  0
  140.2501   73.4041  219.9745 H   0  0  0  0  0  0  0  0  0  0  0  0
  140.3528   74.7513  221.1555 H   0  0  0  0  0  0  0  0  0  0  0  0
  142.1717   73.7690  217.5360 H   0  0  0  0  0  0  0  0  0  0  0  0
  140.9402   75.0085  217.5603 H   0  0  0  0  0  0  0  0  0  0  0  0
  142.6560   76.0240  216.0488 H   0  0  0  0  0  0  0  0  0  0  0  0
  144.9050   75.5290  217.4350 H   0  0  0  0  0  0  0  0  0  0  0  0
  144.0026   77.4436  217.8889 H   0  0  0  0  0  0  0  0  0  0  0  0
  142.2642   77.7065  217.6963 H   0  0  0  0  0  0  0  0  0  0  0  0
  143.7466   76.5339  219.9239 H   0  0  0  0  0  0  0  0  0  0  0  0
  143.2050   78.1830  221.3470 H   0  0  0  0  0  0  0  0  0  0  0  0
  140.2177   78.3720  221.7161 H   0  0  0  0  0  0  0  0  0  0  0  0
  142.3188   80.5610  221.2762 H   0  0  0  0  0  0  0  0  0  0  0  0
  140.7617   80.3055  220.3927 H   0  0  0  0  0  0  0  0  0  0  0  0
  140.4971   82.1987  221.8717 H   0  0  0  0  0  0  0  0  0  0  0  0
  139.5465   80.8214  222.5265 H   0  0  0  0  0  0  0  0  0  0  0  0
  141.9468   82.1905  223.6202 H   0  0  0  0  0  0  0  0  0  0  0  0
  140.6320   81.3106  224.4638 H   0  0  0  0  0  0  0  0  0  0  0  0
  143.0907   80.1886  223.0685 H   0  0  0  0  0  0  0  0  0  0  0  0
  142.5500   79.9688  224.7789 H   0  0  0  0  0  0  0  0  0  0  0  0
  142.0977   77.9409  223.5992 H   0  0  0  0  0  0  0  0  0  0  0  0
  140.5334   78.7786  223.8964 H   0  0  0  0  0  0  0  0  0  0  0  0
  139.0496   69.9343  222.4978 H   0  0  0  0  0  0  0  0  0  0  0  0
  139.2396   68.2947  224.3525 H   0  0  0  0  0  0  0  0  0  0  0  0
  139.8647   67.7493  226.7000 H   0  0  0  0  0  0  0  0  0  0  0  0
  141.4626   70.9535  229.1227 H   0  0  0  0  0  0  0  0  0  0  0  0
  141.2425   72.5450  227.2061 H   0  0  0  0  0  0  0  0  0  0  0  0
  1  2  2  0
  2  3  1  0
  3  4  1  0
  4  5  1  0
  5  6  2  0
  5  7  1  0
  7  8  1  0
  8  9  1  0
  9 10  1  0
  9 11  1  0
 11 12  1  0
 12 13  1  0
 13 14  2  0
 13 15  1  0
 15 16  1  0
 16 17  1  0
 17 18  1  0
 18 19  1  0
 19 20  1  0
 20 21  1  0
  2 22  1  0
 22 23  2  0
 23 24  1  0
 24 25  2  0
 25 26  1  0
 26 27  2  0
 27 28  1  0
 27 29  1  0
 29 30  2  0
 30 31  1  0
 31 32  2  0
 12  7  1  0
 21 16  1  0
 32 22  1  0
 31 25  1  0
  3 33  1  0
  4 34  1  0
  4 35  1  0
  8 36  1  0
  8 37  1  0
  9 38  1  6
 10 39  1  0
 11 40  1  0
 11 41  1  0
 12 42  1  1
 15 43  1  0
 16 44  1  0
 17 45  1  0
 17 46  1  0
 18 47  1  0
 18 48  1  0
 19 49  1  0
 19 50  1  0
 20 51  1  0
 20 52  1  0
 21 53  1  0
 21 54  1  0
 23 55  1  0
 24 56  1  0
 26 57  1  0
 29 58  1  0
 30 59  1  0
M  END
>  <smiles>  (19) 
O=C(NCC(=O)N1C[C@H](O)C[C@H]1C(=O)NC1CCCCC1)c1ccc2cc(F)ccc2n1

>  <score_type>  (19) 
oracle

>  <origin>  (19) 
autodockgpu

>  <m_score__min__energy>  (19) 
-8.9499999999999993

>  <m_primary>  (19) 
energy

>  <meeko>  (19) 
{"free_energy": -8.78, "intermolecular_energy": -10.87, "internal_energy": -1.99, "cluster_size": 12, "cluster_id": 1, "rank_in_cluster": 3}

>  <energy>  (19) 
-6.81

>  <cluster_rmsd>  (19) 
0.23

>  <rmsd>  (19) 
271.18

>  <cluster>  (19) 
4

$$$$

     RDKit          3D

 59 62  0  0  0  0  0  0  0  0999 V2000
  139.3550   70.7350  220.9810 O   0  0  0  0  0  0  0  0  0  0  0  0
  139.4410   71.3390  222.0820 C   0  0  0  0  0  0  0  0  0  0  0  0
  139.4400   72.7590  222.1720 N   0  0  0  0  0  0  0  0  0  0  0  0
  139.3360   73.5100  220.9380 C   0  0  0  0  0  0  0  0  0  0  0  0
  139.7500   74.9260  221.1870 C   0  0  0  0  0  0  0  0  0  0  0  0
  139.9050   75.3490  222.3640 O   0  0  0  0  0  0  0  0  0  0  0  0
  139.9590   75.7650  220.0390 N   0  0  0  0  0  0  0  0  0  0  0  0
  139.0650   75.9440  218.8950 C   0  0  0  0  0  0  0  0  0  0  0  0
  140.0320   76.2530  217.7690 C   0  0  2  0  0  0  0  0  0  0  0  0
  140.4960   75.0700  217.2470 O   0  0  0  0  0  0  0  0  0  0  0  0
  141.1010   77.0800  218.4560 C   0  0  0  0  0  0  0  0  0  0  0  0
  141.1490   76.5840  219.8650 C   0  0  1  0  0  0  0  0  0  0  0  0
  141.0610   77.6840  220.8600 C   0  0  0  0  0  0  0  0  0  0  0  0
  140.6790   78.8350  220.5680 O   0  0  0  0  0  0  0  0  0  0  0  0
  141.4480   77.3580  222.2050 N   0  0  0  0  0  0  0  0  0  0  0  0
  141.3800   78.4000  223.2150 C   0  0  0  0  0  0  0  0  0  0  0  0
  140.0370   79.0820  223.0600 C   0  0  0  0  0  0  0  0  0  0  0  0
  140.0130   80.4120  223.7900 C   0  0  0  0  0  0  0  0  0  0  0  0
  140.9440   81.3780  223.1060 C   0  0  0  0  0  0  0  0  0  0  0  0
  141.9410   80.6000  222.2780 C   0  0  0  0  0  0  0  0  0  0  0  0
  142.4680   79.4240  223.0390 C   0  0  0  0  0  0  0  0  0  0  0  0
  139.5470   70.5940  223.3350 C   0  0  0  0  0  0  0  0  0  0  0  0
  139.0900   69.2750  223.4130 C   0  0  0  0  0  0  0  0  0  0  0  0
  139.1950   68.5710  224.6150 C   0  0  0  0  0  0  0  0  0  0  0  0
  139.7430   69.1410  225.7480 C   0  0  0  0  0  0  0  0  0  0  0  0
  139.8560   68.4600  226.9490 C   0  0  0  0  0  0  0  0  0  0  0  0
  140.4250   69.1430  228.0140 C   0  0  0  0  0  0  0  0  0  0  0  0
  140.5610   68.5270  229.2120 F   0  0  0  0  0  0  0  0  0  0  0  0
  140.8680   70.4480  227.9030 C   0  0  0  0  0  0  0  0  0  0  0  0
  140.7480   71.1180  226.6930 C   0  0  0  0  0  0  0  0  0  0  0  0
  140.1830   70.4530  225.6230 C   0  0  0  0  0  0  0  0  0  0  0  0
  140.0740   71.1160  224.4570 N   0  0  0  0  0  0  0  0  0  0  0  0
  139.5120   73.2550  223.0930 H   0  0  0  0  0  0  0  0  0  0  0  0
  139.9940   73.0625  220.1785 H   0  0  0  0  0  0  0  0  0  0  0  0
  138.2968   73.4868  220.5780 H   0  0  0  0  0  0  0  0  0  0  0  0
  138.4946   75.0264  218.6887 H   0  0  0  0  0  0  0  0  0  0  0  0
  138.3065   76.7257  219.0489 H   0  0  0  0  0  0  0  0  0  0  0  0
  139.6071   76.7979  216.9131 H   0  0  0  0  0  0  0  0  0  0  0  0
  140.7300   74.3940  217.9510 H   0  0  0  0  0  0  0  0  0  0  0  0
  142.0742   76.9345  217.9643 H   0  0  0  0  0  0  0  0  0  0  0  0
  140.8754   78.1557  218.4105 H   0  0  0  0  0  0  0  0  0  0  0  0
  142.0984   76.0521  220.0253 H   0  0  0  0  0  0  0  0  0  0  0  0
  141.7670   76.4090  222.4620 H   0  0  0  0  0  0  0  0  0  0  0  0
  141.5073   77.9496  224.2105 H   0  0  0  0  0  0  0  0  0  0  0  0
  139.8431   79.2551  221.9912 H   0  0  0  0  0  0  0  0  0  0  0  0
  139.2626   78.4316  223.4927 H   0  0  0  0  0  0  0  0  0  0  0  0
  138.9907   80.8179  223.7786 H   0  0  0  0  0  0  0  0  0  0  0  0
  140.3380   80.2646  224.8305 H   0  0  0  0  0  0  0  0  0  0  0  0
  140.3654   82.0477  222.4528 H   0  0  0  0  0  0  0  0  0  0  0  0
  141.4753   81.9780  223.8595 H   0  0  0  0  0  0  0  0  0  0  0  0
  141.4475   80.2438  221.3617 H   0  0  0  0  0  0  0  0  0  0  0  0
  142.7831   81.2626  222.0293 H   0  0  0  0  0  0  0  0  0  0  0  0
  143.3050   78.9754  222.4838 H   0  0  0  0  0  0  0  0  0  0  0  0
  142.8150   79.7580  224.0280 H   0  0  0  0  0  0  0  0  0  0  0  0
  138.6482   68.7921  222.5289 H   0  0  0  0  0  0  0  0  0  0  0  0
  138.8313   67.5339  224.6607 H   0  0  0  0  0  0  0  0  0  0  0  0
  139.5092   67.4214  227.0538 H   0  0  0  0  0  0  0  0  0  0  0  0
  141.3145   70.9543  228.7715 H   0  0  0  0  0  0  0  0  0  0  0  0
  141.0956   72.1564  226.5890 H   0  0  0  0  0  0  0  0  0  0  0  0
  1  2  2  0
  2  3  1  0
  3  4  1  0
  4  5  1  0
  5  6  2  0
  5  7  1  0
  7  8  1  0
  8  9  1  0
  9 10  1  0
  9 11  1  0
 11 12  1  0
 12 13  1  0
 13 14  2  0
 13 15  1  0
 15 16  1  0
 16 17  1  0
 17 18  1  0
 18 19  1  0
 19 20  1  0
 20 21  1  0
  2 22  1  0
 22 23  2  0
 23 24  1  0
 24 25  2  0
 25 26  1  0
 26 27  2  0
 27 28  1  0
 27 29  1  0
 29 30  2  0
 30 31  1  0
 31 32  2  0
 12  7  1  0
 21 16  1  0
 32 22  1  0
 31 25  1  0
  3 33  1  0
  4 34  1  0
  4 35  1  0
  8 36  1  0
  8 37  1  0
  9 38  1  6
 10 39  1  0
 11 40  1  0
 11 41  1  0
 12 42  1  6
 15 43  1  0
 16 44  1  0
 17 45  1  0
 17 46  1  0
 18 47  1  0
 18 48  1  0
 19 49  1  0
 19 50  1  0
 20 51  1  0
 20 52  1  0
 21 53  1  0
 21 54  1  0
 23 55  1  0
 24 56  1  0
 26 57  1  0
 29 58  1  0
 30 59  1  0
M  END
>  <smiles>  (20) 
O=C(NCC(=O)N1C[C@H](O)C[C@H]1C(=O)NC1CCCCC1)c1ccc2cc(F)ccc2n1

>  <score_type>  (20) 
oracle

>  <origin>  (20) 
autodockgpu

>  <m_score__min__energy>  (20) 
-8.9499999999999993

>  <m_primary>  (20) 
energy

>  <meeko>  (20) 
{"free_energy": -8.1, "intermolecular_energy": -10.19, "internal_energy": -2.46, "cluster_size": 12, "cluster_id": 1, "rank_in_cluster": 12}

>  <energy>  (20) 
-6.88

>  <cluster_rmsd>  (20) 
0.0

>  <rmsd>  (20) 
270.58

>  <cluster>  (20) 
5

$$$$
