VCUSMEIKIQENRV-DOLDNGAINA-O
     RDKit          3D

 46 48  0  0  0  0  0  0  0  0999 V2000
  145.4449   71.4334  220.4941 H   0  0  0  0  0  0  0  0  0  0  0  0
  144.7990   72.3190  220.4020 C   0  0  0  0  0  0  0  0  0  0  0  0
  143.4240   72.1630  220.2070 C   0  0  0  0  0  0  0  0  0  0  0  0
  142.9881   71.1546  220.1509 H   0  0  0  0  0  0  0  0  0  0  0  0
  142.6010   73.2880  220.0830 C   0  0  0  0  0  0  0  0  0  0  0  0
  141.2670   73.1180  219.8920 F   0  0  0  0  0  0  0  0  0  0  0  0
  143.1550   74.5780  220.1420 C   0  0  0  0  0  0  0  0  0  0  0  0
  142.2770   75.7640  220.0350 C   0  0  0  0  0  0  0  0  0  0  0  0
  142.2780   76.5720  218.8900 C   0  0  0  0  0  0  0  0  0  0  0  0
  143.3350   76.1760  217.3410 Br  0  0  0  0  0  0  0  0  0  0  0  0
  141.4710   77.6580  218.8630 N   0  0  0  0  0  0  0  0  0  0  0  0
  140.6780   77.9550  219.8900 N   0  0  0  0  0  0  0  0  0  0  0  0
  140.6250   77.1770  221.0090 C   0  0  0  0  0  0  0  0  0  0  0  0
  139.8140   77.5080  222.0030 N   0  0  0  0  0  0  0  0  0  0  0  0
  138.4930   76.9240  222.0360 C   0  0  0  0  0  0  0  0  0  0  0  0
  137.4840   77.6430  221.8070 O   0  0  0  0  0  0  0  0  0  0  0  0
  138.3050   75.4740  222.3580 C   0  0  0  0  0  0  0  0  0  0  0  0
  138.2876   75.3401  223.4497 H   0  0  0  0  0  0  0  0  0  0  0  0
  137.3539   75.1238  221.9305 H   0  0  0  0  0  0  0  0  0  0  0  0
  139.1353   74.8928  221.9305 H   0  0  0  0  0  0  0  0  0  0  0  0
  140.1470   78.5510  223.0140 C   0  0  0  0  0  0  0  0  0  0  0  0
  139.5064   78.3920  223.8940 H   0  0  0  0  0  0  0  0  0  0  0  0
  139.8160   79.9860  222.5150 C   0  0  0  0  0  0  0  0  0  0  0  0
  140.2594   80.1032  221.5152 H   0  0  0  0  0  0  0  0  0  0  0  0
  138.7186   80.0574  222.5379 H   0  0  0  0  0  0  0  0  0  0  0  0
  140.3210   81.1510  223.3920 C   0  0  0  0  0  0  0  0  0  0  0  0
  140.0617   82.0922  222.8852 H   0  0  0  0  0  0  0  0  0  0  0  0
  139.8349   81.0216  224.3703 H   0  0  0  0  0  0  0  0  0  0  0  0
  141.8330   81.1680  223.6750 C   0  0  0  0  0  0  0  0  0  0  0  0
  142.1532   82.2093  223.8276 H   0  0  0  0  0  0  0  0  0  0  0  0
  142.0156   80.5576  224.5717 H   0  0  0  0  0  0  0  0  0  0  0  0
  142.6470   80.5640  222.5190 C   0  0  0  0  0  0  0  0  0  0  0  0
  142.2489   80.9578  221.5722 H   0  0  0  0  0  0  0  0  0  0  0  0
  143.6969   80.8468  222.6855 H   0  0  0  0  0  0  0  0  0  0  0  0
  142.6020   79.0330  222.4620 C   0  0  0  0  0  0  0  0  0  0  0  0
  142.3024   78.7323  221.4472 H   0  0  0  0  0  0  0  0  0  0  0  0
  143.6066   78.6725  222.7282 H   0  0  0  0  0  0  0  0  0  0  0  0
  141.6200   78.4040  223.4640 C   0  0  0  0  0  0  0  0  0  0  0  0
  141.8541   77.3339  223.5644 H   0  0  0  0  0  0  0  0  0  0  0  0
  141.7332   78.9317  224.4225 H   0  0  0  0  0  0  0  0  0  0  0  0
  141.4480   76.0810  221.0690 N   0  0  0  0  0  0  0  0  0  0  0  0
  141.5190   75.4850  221.9210 H   0  0  0  0  0  0  0  0  0  0  0  0
  144.5380   74.7270  220.3560 C   0  0  0  0  0  0  0  0  0  0  0  0
  145.0900   75.9620  220.4670 F   0  0  0  0  0  0  0  0  0  0  0  0
  145.3540   73.5990  220.4800 C   0  0  0  0  0  0  0  0  0  0  0  0
  146.4357   73.7192  220.6394 H   0  0  0  0  0  0  0  0  0  0  0  0
  1  2  1  0
  2  3  2  0
  3  4  1  0
  3  5  1  0
  5  6  1  0
  5  7  2  0
  7  8  1  0
  8  9  2  0
  9 10  1  0
  9 11  1  0
 11 12  2  0
 12 13  1  0
 13 14  2  0
 14 15  1  0
 15 16  2  0
 15 17  1  0
 17 18  1  0
 17 19  1  0
 17 20  1  0
 14 21  1  0
 21 22  1  0
 21 23  1  0
 23 24  1  0
 23 25  1  0
 23 26  1  0
 26 27  1  0
 26 28  1  0
 26 29  1  0
 29 30  1  0
 29 31  1  0
 29 32  1  0
 32 33  1  0
 32 34  1  0
 32 35  1  0
 35 36  1  0
 35 37  1  0
 35 38  1  0
 38 39  1  0
 38 40  1  0
 13 41  1  0
 41 42  1  0
  7 43  1  0
 43 44  1  0
 43 45  2  0
 45 46  1  0
 45  2  1  0
 41  8  1  0
 38 21  1  0
M  CHG  1  14   1
M  END
>  <UniqueID>  (1) 
4

>  <SMILES>  (1) 
CC(=O)/[N+](=c1/nnc(Br)c(-c2c(F)cccc2F)[nH]1)C1CCCCCC1

>  <Energy>  (1) 
72.45715472952679

>  <Genealogy>  (1) 
CC(=O)[NH+](c1nnc(Br)c(-c2c(F)cccc2F)n1)C1CCCCCC1 (protonated)
CC(=O)[N+](=c1nnc(Br)c(-c2c(F)cccc2F)[nH]1)C1CCCCCC1 (tautomer)
CC(=O)/[N+](=c1/nnc(Br)c(-c2c(F)cccc2F)[nH]1)C1CCCCCC1 (cis-trans isomerization)
CC(=O)/[N+](=c1/nnc(Br)c(-c2c(F)cccc2F)[nH]1)C1CCCCCC1 (3D coordinates assigned)
CC(=O)/[N+](=c1/nnc(Br)c(-c2c(F)cccc2F)[nH]1)C1CCCCCC1 (nonaromatic ring conformer: 72.45715472952679 kcal/mol)

>  <smiles>  (1) 
CC(=O)N(c1nnc(Br)c(-c2c(F)cccc2F)n1)C1CCCCCC1

>  <score_type>  (1) 
oracle

>  <origin>  (1) 
autodockgpu

>  <m_score__min__energy>  (1) 
-5.2800000000000002

>  <m_primary>  (1) 
energy

>  <meeko>  (1) 
{"free_energy": -4.45, "intermolecular_energy": -7.13, "internal_energy": -1.45, "cluster_size": 2, "cluster_id": 5, "rank_in_cluster": 1}

>  <energy>  (1) 
-5.28

>  <cluster_rmsd>  (1) 
0.0

>  <rmsd>  (1) 
271.81

>  <cluster>  (1) 
1

$$$$
VCUSMEIKIQENRV-DOLDNGAINA-O
     RDKit          3D

 46 48  0  0  0  0  0  0  0  0999 V2000
  141.0916   82.3454  224.4741 H   0  0  0  0  0  0  0  0  0  0  0  0
  141.2160   81.5610  223.7130 C   0  0  0  0  0  0  0  0  0  0  0  0
  142.3830   80.7940  223.6860 C   0  0  0  0  0  0  0  0  0  0  0  0
  143.1744   80.9721  224.4290 H   0  0  0  0  0  0  0  0  0  0  0  0
  142.5470   79.8000  222.7160 C   0  0  0  0  0  0  0  0  0  0  0  0
  143.6890   79.0650  222.7030 F   0  0  0  0  0  0  0  0  0  0  0  0
  141.5440   79.5750  221.7570 C   0  0  0  0  0  0  0  0  0  0  0  0
  141.7110   78.5070  220.7490 C   0  0  0  0  0  0  0  0  0  0  0  0
  141.8910   78.8040  219.3910 C   0  0  0  0  0  0  0  0  0  0  0  0
  142.0220   80.5990  218.7310 Br  0  0  0  0  0  0  0  0  0  0  0  0
  142.0110   77.7810  218.5140 N   0  0  0  0  0  0  0  0  0  0  0  0
  141.9780   76.5150  218.9210 N   0  0  0  0  0  0  0  0  0  0  0  0
  141.8370   76.1830  220.2370 C   0  0  0  0  0  0  0  0  0  0  0  0
  141.8170   74.9080  220.5960 N   0  0  0  0  0  0  0  0  0  0  0  0
  140.5750   74.3500  221.0780 C   0  0  0  0  0  0  0  0  0  0  0  0
  140.4560   74.0440  222.2940 O   0  0  0  0  0  0  0  0  0  0  0  0
  139.4300   74.1120  220.1440 C   0  0  0  0  0  0  0  0  0  0  0  0
  138.5158   73.9220  220.7255 H   0  0  0  0  0  0  0  0  0  0  0  0
  139.2835   74.9989  219.5100 H   0  0  0  0  0  0  0  0  0  0  0  0
  139.6491   73.2402  219.5100 H   0  0  0  0  0  0  0  0  0  0  0  0
  143.0390   74.0570  220.6510 C   0  0  0  0  0  0  0  0  0  0  0  0
  143.2547   73.8355  221.7067 H   0  0  0  0  0  0  0  0  0  0  0  0
  144.2990   74.7960  220.1170 C   0  0  0  0  0  0  0  0  0  0  0  0
  144.4077   74.5447  219.0516 H   0  0  0  0  0  0  0  0  0  0  0  0
  144.1189   75.8624  220.3180 H   0  0  0  0  0  0  0  0  0  0  0  0
  145.6350   74.4680  220.8150 C   0  0  0  0  0  0  0  0  0  0  0  0
  146.4470   74.8929  220.2067 H   0  0  0  0  0  0  0  0  0  0  0  0
  145.5594   74.8998  221.8239 H   0  0  0  0  0  0  0  0  0  0  0  0
  145.9320   72.9730  221.0210 C   0  0  0  0  0  0  0  0  0  0  0  0
  147.0211   72.8213  220.9932 H   0  0  0  0  0  0  0  0  0  0  0  0
  145.5106   72.6762  221.9928 H   0  0  0  0  0  0  0  0  0  0  0  0
  145.2830   72.0970  219.9390 C   0  0  0  0  0  0  0  0  0  0  0  0
  145.2641   72.6668  218.9983 H   0  0  0  0  0  0  0  0  0  0  0  0
  145.8870   71.1804  219.8677 H   0  0  0  0  0  0  0  0  0  0  0  0
  143.8500   71.6590  220.2660 C   0  0  0  0  0  0  0  0  0  0  0  0
  143.6277   70.7456  219.6947 H   0  0  0  0  0  0  0  0  0  0  0  0
  143.8047   71.4973  221.3531 H   0  0  0  0  0  0  0  0  0  0  0  0
  142.7860   72.7140  219.9260 C   0  0  0  0  0  0  0  0  0  0  0  0
  142.7969   72.8904  218.8403 H   0  0  0  0  0  0  0  0  0  0  0  0
  141.8113   72.3292  220.2604 H   0  0  0  0  0  0  0  0  0  0  0  0
  141.6920   77.2030  221.1450 N   0  0  0  0  0  0  0  0  0  0  0  0
  141.5030   77.0250  222.1530 H   0  0  0  0  0  0  0  0  0  0  0  0
  140.3630   80.3400  221.8010 C   0  0  0  0  0  0  0  0  0  0  0  0
  139.3580   80.1100  220.9190 F   0  0  0  0  0  0  0  0  0  0  0  0
  140.2060   81.3330  222.7740 C   0  0  0  0  0  0  0  0  0  0  0  0
  139.2860   81.9354  222.8001 H   0  0  0  0  0  0  0  0  0  0  0  0
  1  2  1  0
  2  3  2  0
  3  4  1  0
  3  5  1  0
  5  6  1  0
  5  7  2  0
  7  8  1  0
  8  9  2  0
  9 10  1  0
  9 11  1  0
 11 12  2  0
 12 13  1  0
 13 14  2  0
 14 15  1  0
 15 16  2  0
 15 17  1  0
 17 18  1  0
 17 19  1  0
 17 20  1  0
 14 21  1  0
 21 22  1  0
 21 23  1  0
 23 24  1  0
 23 25  1  0
 23 26  1  0
 26 27  1  0
 26 28  1  0
 26 29  1  0
 29 30  1  0
 29 31  1  0
 29 32  1  0
 32 33  1  0
 32 34  1  0
 32 35  1  0
 35 36  1  0
 35 37  1  0
 35 38  1  0
 38 39  1  0
 38 40  1  0
 13 41  1  0
 41 42  1  0
  7 43  1  0
 43 44  1  0
 43 45  2  0
 45 46  1  0
 45  2  1  0
 41  8  1  0
 38 21  1  0
M  CHG  1  14   1
M  END
>  <UniqueID>  (2) 
4

>  <SMILES>  (2) 
CC(=O)/[N+](=c1/nnc(Br)c(-c2c(F)cccc2F)[nH]1)C1CCCCCC1

>  <Energy>  (2) 
72.45715472952679

>  <Genealogy>  (2) 
CC(=O)[NH+](c1nnc(Br)c(-c2c(F)cccc2F)n1)C1CCCCCC1 (protonated)
CC(=O)[N+](=c1nnc(Br)c(-c2c(F)cccc2F)[nH]1)C1CCCCCC1 (tautomer)
CC(=O)/[N+](=c1/nnc(Br)c(-c2c(F)cccc2F)[nH]1)C1CCCCCC1 (cis-trans isomerization)
CC(=O)/[N+](=c1/nnc(Br)c(-c2c(F)cccc2F)[nH]1)C1CCCCCC1 (3D coordinates assigned)
CC(=O)/[N+](=c1/nnc(Br)c(-c2c(F)cccc2F)[nH]1)C1CCCCCC1 (nonaromatic ring conformer: 72.45715472952679 kcal/mol)

>  <smiles>  (2) 
CC(=O)N(c1nnc(Br)c(-c2c(F)cccc2F)n1)C1CCCCCC1

>  <score_type>  (2) 
oracle

>  <origin>  (2) 
autodockgpu

>  <m_score__min__energy>  (2) 
-5.2800000000000002

>  <m_primary>  (2) 
energy

>  <meeko>  (2) 
{"free_energy": -5.05, "intermolecular_energy": -7.73, "internal_energy": -1.28, "cluster_size": 5, "cluster_id": 2, "rank_in_cluster": 2}

>  <energy>  (2) 
-5.27

>  <cluster_rmsd>  (2) 
0.36

>  <rmsd>  (2) 
271.82

>  <cluster>  (2) 
1

$$$$
VCUSMEIKIQENRV-DOLDNGAINA-O
     RDKit          3D

 46 48  0  0  0  0  0  0  0  0999 V2000
  142.4853   82.3658  223.9893 H   0  0  0  0  0  0  0  0  0  0  0  0
  142.2110   81.4390  223.4640 C   0  0  0  0  0  0  0  0  0  0  0  0
  141.8030   81.4880  222.1290 C   0  0  0  0  0  0  0  0  0  0  0  0
  141.7608   82.4534  221.6033 H   0  0  0  0  0  0  0  0  0  0  0  0
  141.4480   80.3130  221.4590 C   0  0  0  0  0  0  0  0  0  0  0  0
  141.0520   80.3790  220.1620 F   0  0  0  0  0  0  0  0  0  0  0  0
  141.4890   79.0780  222.1300 C   0  0  0  0  0  0  0  0  0  0  0  0
  141.1360   77.8350  221.4110 C   0  0  0  0  0  0  0  0  0  0  0  0
  139.8860   77.2220  221.5800 C   0  0  0  0  0  0  0  0  0  0  0  0
  138.5040   77.9710  222.6750 Br  0  0  0  0  0  0  0  0  0  0  0  0
  139.6340   76.0720  220.9140 N   0  0  0  0  0  0  0  0  0  0  0  0
  140.5380   75.5310  220.1010 N   0  0  0  0  0  0  0  0  0  0  0  0
  141.7530   76.1130  219.8850 C   0  0  0  0  0  0  0  0  0  0  0  0
  142.6180   75.5410  219.0600 N   0  0  0  0  0  0  0  0  0  0  0  0
  142.6790   76.0100  217.6950 C   0  0  0  0  0  0  0  0  0  0  0  0
  142.2610   75.2740  216.7610 O   0  0  0  0  0  0  0  0  0  0  0  0
  143.2500   77.3550  217.3720 C   0  0  0  0  0  0  0  0  0  0  0  0
  143.4774   77.8906  218.3055 H   0  0  0  0  0  0  0  0  0  0  0  0
  144.1729   77.2306  216.7865 H   0  0  0  0  0  0  0  0  0  0  0  0
  142.5194   77.9325  216.7865 H   0  0  0  0  0  0  0  0  0  0  0  0
  143.4380   74.3550  219.4340 C   0  0  0  0  0  0  0  0  0  0  0  0
  143.9479   73.9935  218.5289 H   0  0  0  0  0  0  0  0  0  0  0  0
  142.5660   73.1630  219.9240 C   0  0  0  0  0  0  0  0  0  0  0  0
  142.4368   73.2676  221.0114 H   0  0  0  0  0  0  0  0  0  0  0  0
  141.6323   73.2270  219.3460 H   0  0  0  0  0  0  0  0  0  0  0  0
  143.1210   71.7490  219.6510 C   0  0  0  0  0  0  0  0  0  0  0  0
  142.4872   71.0279  220.1879 H   0  0  0  0  0  0  0  0  0  0  0  0
  143.1076   71.6280  218.5578 H   0  0  0  0  0  0  0  0  0  0  0  0
  144.5780   71.5090  220.0810 C   0  0  0  0  0  0  0  0  0  0  0  0
  144.6290   71.5186  221.1798 H   0  0  0  0  0  0  0  0  0  0  0  0
  144.8942   70.5374  219.6735 H   0  0  0  0  0  0  0  0  0  0  0  0
  145.5310   72.5830  219.5320 C   0  0  0  0  0  0  0  0  0  0  0  0
  146.5154   72.1209  219.3660 H   0  0  0  0  0  0  0  0  0  0  0  0
  145.0824   72.9642  218.6028 H   0  0  0  0  0  0  0  0  0  0  0  0
  145.7130   73.7860  220.4660 C   0  0  0  0  0  0  0  0  0  0  0  0
  145.8516   73.4119  221.4911 H   0  0  0  0  0  0  0  0  0  0  0  0
  146.5868   74.3463  220.1019 H   0  0  0  0  0  0  0  0  0  0  0  0
  144.5220   74.7580  220.4610 C   0  0  0  0  0  0  0  0  0  0  0  0
  144.0713   74.7700  221.4644 H   0  0  0  0  0  0  0  0  0  0  0  0
  144.9003   75.7513  220.1778 H   0  0  0  0  0  0  0  0  0  0  0  0
  142.0420   77.2700  220.5640 N   0  0  0  0  0  0  0  0  0  0  0  0
  142.9750   77.7270  220.5090 H   0  0  0  0  0  0  0  0  0  0  0  0
  141.9170   79.0340  223.4700 C   0  0  0  0  0  0  0  0  0  0  0  0
  142.0130   77.8500  224.1250 F   0  0  0  0  0  0  0  0  0  0  0  0
  142.2710   80.2130  224.1330 C   0  0  0  0  0  0  0  0  0  0  0  0
  142.5973   80.1758  225.1828 H   0  0  0  0  0  0  0  0  0  0  0  0
  1  2  1  0
  2  3  2  0
  3  4  1  0
  3  5  1  0
  5  6  1  0
  5  7  2  0
  7  8  1  0
  8  9  2  0
  9 10  1  0
  9 11  1  0
 11 12  2  0
 12 13  1  0
 13 14  2  0
 14 15  1  0
 15 16  2  0
 15 17  1  0
 17 18  1  0
 17 19  1  0
 17 20  1  0
 14 21  1  0
 21 22  1  0
 21 23  1  0
 23 24  1  0
 23 25  1  0
 23 26  1  0
 26 27  1  0
 26 28  1  0
 26 29  1  0
 29 30  1  0
 29 31  1  0
 29 32  1  0
 32 33  1  0
 32 34  1  0
 32 35  1  0
 35 36  1  0
 35 37  1  0
 35 38  1  0
 38 39  1  0
 38 40  1  0
 13 41  1  0
 41 42  1  0
  7 43  1  0
 43 44  1  0
 43 45  2  0
 45 46  1  0
 45  2  1  0
 41  8  1  0
 38 21  1  0
M  CHG  1  14   1
M  END
>  <UniqueID>  (3) 
4

>  <SMILES>  (3) 
CC(=O)/[N+](=c1/nnc(Br)c(-c2c(F)cccc2F)[nH]1)C1CCCCCC1

>  <Energy>  (3) 
72.45715472952679

>  <Genealogy>  (3) 
CC(=O)[NH+](c1nnc(Br)c(-c2c(F)cccc2F)n1)C1CCCCCC1 (protonated)
CC(=O)[N+](=c1nnc(Br)c(-c2c(F)cccc2F)[nH]1)C1CCCCCC1 (tautomer)
CC(=O)/[N+](=c1/nnc(Br)c(-c2c(F)cccc2F)[nH]1)C1CCCCCC1 (cis-trans isomerization)
CC(=O)/[N+](=c1/nnc(Br)c(-c2c(F)cccc2F)[nH]1)C1CCCCCC1 (3D coordinates assigned)
CC(=O)/[N+](=c1/nnc(Br)c(-c2c(F)cccc2F)[nH]1)C1CCCCCC1 (nonaromatic ring conformer: 72.45715472952679 kcal/mol)

>  <smiles>  (3) 
CC(=O)N(c1nnc(Br)c(-c2c(F)cccc2F)n1)C1CCCCCC1

>  <score_type>  (3) 
oracle

>  <origin>  (3) 
autodockgpu

>  <m_score__min__energy>  (3) 
-5.2800000000000002

>  <m_primary>  (3) 
energy

>  <meeko>  (3) 
{"free_energy": -5.01, "intermolecular_energy": -7.69, "internal_energy": -1.3, "cluster_size": 4, "cluster_id": 3, "rank_in_cluster": 2}

>  <energy>  (3) 
-5.02

>  <cluster_rmsd>  (3) 
0.56

>  <rmsd>  (3) 
271.9

>  <cluster>  (3) 
1

$$$$
VCUSMEIKIQENRV-DOLDNGAINA-O
     RDKit          3D

 46 48  0  0  0  0  0  0  0  0999 V2000
  143.5023   81.7593  222.6216 H   0  0  0  0  0  0  0  0  0  0  0  0
  142.8720   80.8610  222.5460 C   0  0  0  0  0  0  0  0  0  0  0  0
  142.7640   79.9900  223.6330 C   0  0  0  0  0  0  0  0  0  0  0  0
  143.3065   80.2062  224.5652 H   0  0  0  0  0  0  0  0  0  0  0  0
  141.9680   78.8440  223.5390 C   0  0  0  0  0  0  0  0  0  0  0  0
  141.8760   78.0070  224.6040 F   0  0  0  0  0  0  0  0  0  0  0  0
  141.2810   78.5570  222.3460 C   0  0  0  0  0  0  0  0  0  0  0  0
  140.4210   77.3570  222.2580 C   0  0  0  0  0  0  0  0  0  0  0  0
  139.0580   77.4100  222.5820 C   0  0  0  0  0  0  0  0  0  0  0  0
  138.1720   79.0350  223.0760 Br  0  0  0  0  0  0  0  0  0  0  0  0
  138.3310   76.2720  222.5070 N   0  0  0  0  0  0  0  0  0  0  0  0
  138.8810   75.1240  222.1220 N   0  0  0  0  0  0  0  0  0  0  0  0
  140.1960   75.0370  221.7690 C   0  0  0  0  0  0  0  0  0  0  0  0
  140.6990   73.8730  221.3840 N   0  0  0  0  0  0  0  0  0  0  0  0
  140.2730   72.6780  222.0760 C   0  0  0  0  0  0  0  0  0  0  0  0
  141.0800   72.0670  222.8260 O   0  0  0  0  0  0  0  0  0  0  0  0
  138.8860   72.1450  221.8990 C   0  0  0  0  0  0  0  0  0  0  0  0
  138.4316   71.9704  222.8854 H   0  0  0  0  0  0  0  0  0  0  0  0
  138.2812   72.8748  221.3407 H   0  0  0  0  0  0  0  0  0  0  0  0
  138.9256   71.1980  221.3407 H   0  0  0  0  0  0  0  0  0  0  0  0
  141.7780   73.7480  220.3640 C   0  0  0  0  0  0  0  0  0  0  0  0
  141.9952   72.6787  220.2247 H   0  0  0  0  0  0  0  0  0  0  0  0
  143.1160   74.3840  220.8370 C   0  0  0  0  0  0  0  0  0  0  0  0
  143.1427   75.4201  220.4684 H   0  0  0  0  0  0  0  0  0  0  0  0
  143.1126   74.2901  221.9330 H   0  0  0  0  0  0  0  0  0  0  0  0
  144.4110   73.6860  220.3700 C   0  0  0  0  0  0  0  0  0  0  0  0
  145.2628   74.2234  220.8123 H   0  0  0  0  0  0  0  0  0  0  0  0
  144.3233   72.6402  220.6995 H   0  0  0  0  0  0  0  0  0  0  0  0
  144.6270   73.6290  218.8480 C   0  0  0  0  0  0  0  0  0  0  0  0
  145.6670   73.9113  218.6271 H   0  0  0  0  0  0  0  0  0  0  0  0
  144.4107   72.6032  218.5148 H   0  0  0  0  0  0  0  0  0  0  0  0
  143.6850   74.5790  218.0910 C   0  0  0  0  0  0  0  0  0  0  0  0
  143.5935   75.5100  218.6697 H   0  0  0  0  0  0  0  0  0  0  0  0
  144.1267   74.7418  217.0968 H   0  0  0  0  0  0  0  0  0  0  0  0
  142.2790   74.0100  217.8660 C   0  0  0  0  0  0  0  0  0  0  0  0
  141.8755   74.4392  216.9370 H   0  0  0  0  0  0  0  0  0  0  0  0
  142.3802   72.9159  217.8144 H   0  0  0  0  0  0  0  0  0  0  0  0
  141.2970   74.3160  219.0080 C   0  0  0  0  0  0  0  0  0  0  0  0
  141.1897   75.4069  219.0995 H   0  0  0  0  0  0  0  0  0  0  0  0
  140.3373   73.8370  218.7639 H   0  0  0  0  0  0  0  0  0  0  0  0
  140.9610   76.1730  221.8550 N   0  0  0  0  0  0  0  0  0  0  0  0
  141.9870   76.1660  221.6770 H   0  0  0  0  0  0  0  0  0  0  0  0
  141.3810   79.4470  221.2600 C   0  0  0  0  0  0  0  0  0  0  0  0
  140.6900   79.2210  220.1150 F   0  0  0  0  0  0  0  0  0  0  0  0
  142.1790   80.5910  221.3620 C   0  0  0  0  0  0  0  0  0  0  0  0
  142.2617   81.2801  220.5086 H   0  0  0  0  0  0  0  0  0  0  0  0
  1  2  1  0
  2  3  2  0
  3  4  1  0
  3  5  1  0
  5  6  1  0
  5  7  2  0
  7  8  1  0
  8  9  2  0
  9 10  1  0
  9 11  1  0
 11 12  2  0
 12 13  1  0
 13 14  2  0
 14 15  1  0
 15 16  2  0
 15 17  1  0
 17 18  1  0
 17 19  1  0
 17 20  1  0
 14 21  1  0
 21 22  1  0
 21 23  1  0
 23 24  1  0
 23 25  1  0
 23 26  1  0
 26 27  1  0
 26 28  1  0
 26 29  1  0
 29 30  1  0
 29 31  1  0
 29 32  1  0
 32 33  1  0
 32 34  1  0
 32 35  1  0
 35 36  1  0
 35 37  1  0
 35 38  1  0
 38 39  1  0
 38 40  1  0
 13 41  1  0
 41 42  1  0
  7 43  1  0
 43 44  1  0
 43 45  2  0
 45 46  1  0
 45  2  1  0
 41  8  1  0
 38 21  1  0
M  CHG  1  14   1
M  END
>  <UniqueID>  (4) 
4

>  <SMILES>  (4) 
CC(=O)/[N+](=c1/nnc(Br)c(-c2c(F)cccc2F)[nH]1)C1CCCCCC1

>  <Energy>  (4) 
72.45715472952679

>  <Genealogy>  (4) 
CC(=O)[NH+](c1nnc(Br)c(-c2c(F)cccc2F)n1)C1CCCCCC1 (protonated)
CC(=O)[N+](=c1nnc(Br)c(-c2c(F)cccc2F)[nH]1)C1CCCCCC1 (tautomer)
CC(=O)/[N+](=c1/nnc(Br)c(-c2c(F)cccc2F)[nH]1)C1CCCCCC1 (cis-trans isomerization)
CC(=O)/[N+](=c1/nnc(Br)c(-c2c(F)cccc2F)[nH]1)C1CCCCCC1 (3D coordinates assigned)
CC(=O)/[N+](=c1/nnc(Br)c(-c2c(F)cccc2F)[nH]1)C1CCCCCC1 (nonaromatic ring conformer: 72.45715472952679 kcal/mol)

>  <smiles>  (4) 
CC(=O)N(c1nnc(Br)c(-c2c(F)cccc2F)n1)C1CCCCCC1

>  <score_type>  (4) 
oracle

>  <origin>  (4) 
autodockgpu

>  <m_score__min__energy>  (4) 
-5.2800000000000002

>  <m_primary>  (4) 
energy

>  <meeko>  (4) 
{"free_energy": -4.73, "intermolecular_energy": -7.41, "internal_energy": -1.24, "cluster_size": 5, "cluster_id": 1, "rank_in_cluster": 4}

>  <energy>  (4) 
-4.73

>  <cluster_rmsd>  (4) 
1.13

>  <rmsd>  (4) 
271.51

>  <cluster>  (4) 
1

$$$$
VCUSMEIKIQENRV-DOLDNGAINA-O
     RDKit          3D

 46 48  0  0  0  0  0  0  0  0999 V2000
  141.9845   82.7131  223.3358 H   0  0  0  0  0  0  0  0  0  0  0  0
  141.8310   81.6900  222.9620 C   0  0  0  0  0  0  0  0  0  0  0  0
  141.9840   80.6020  223.8240 C   0  0  0  0  0  0  0  0  0  0  0  0
  142.2537   80.7699  224.8771 H   0  0  0  0  0  0  0  0  0  0  0  0
  141.7950   79.2990  223.3510 C   0  0  0  0  0  0  0  0  0  0  0  0
  141.9500   78.2530  224.2030 F   0  0  0  0  0  0  0  0  0  0  0  0
  141.4610   79.0780  222.0040 C   0  0  0  0  0  0  0  0  0  0  0  0
  141.2380   77.7010  221.5140 C   0  0  0  0  0  0  0  0  0  0  0  0
  140.0470   77.0130  221.7830 C   0  0  0  0  0  0  0  0  0  0  0  0
  138.5790   77.8100  222.7220 Br  0  0  0  0  0  0  0  0  0  0  0  0
  139.9150   75.7460  221.3300 N   0  0  0  0  0  0  0  0  0  0  0  0
  140.8810   75.1580  220.6290 N   0  0  0  0  0  0  0  0  0  0  0  0
  142.0420   75.8030  220.3190 C   0  0  0  0  0  0  0  0  0  0  0  0
  142.9730   75.1800  219.6120 N   0  0  0  0  0  0  0  0  0  0  0  0
  143.8650   74.2740  220.2980 C   0  0  0  0  0  0  0  0  0  0  0  0
  145.0770   74.5820  220.4500 O   0  0  0  0  0  0  0  0  0  0  0  0
  143.3700   72.9600  220.8170 C   0  0  0  0  0  0  0  0  0  0  0  0
  143.3755   72.9746  221.9169 H   0  0  0  0  0  0  0  0  0  0  0  0
  142.3449   72.7865  220.4577 H   0  0  0  0  0  0  0  0  0  0  0  0
  144.0259   72.1533  220.4577 H   0  0  0  0  0  0  0  0  0  0  0  0
  143.2310   75.4640  218.1720 C   0  0  0  0  0  0  0  0  0  0  0  0
  144.2998   75.2937  217.9755 H   0  0  0  0  0  0  0  0  0  0  0  0
  142.9740   76.9550  217.8080 C   0  0  0  0  0  0  0  0  0  0  0  0
  141.9055   77.1598  217.9704 H   0  0  0  0  0  0  0  0  0  0  0  0
  143.6518   77.5342  218.4523 H   0  0  0  0  0  0  0  0  0  0  0  0
  143.3190   77.3780  216.3650 C   0  0  0  0  0  0  0  0  0  0  0  0
  142.8705   78.3664  216.1865 H   0  0  0  0  0  0  0  0  0  0  0  0
  144.4173   77.3681  216.3049 H   0  0  0  0  0  0  0  0  0  0  0  0
  142.8310   76.4310  215.2560 C   0  0  0  0  0  0  0  0  0  0  0  0
  141.7930   76.1385  215.4730 H   0  0  0  0  0  0  0  0  0  0  0  0
  142.9074   76.9683  214.2992 H   0  0  0  0  0  0  0  0  0  0  0  0
  143.6890   75.1610  215.1490 C   0  0  0  0  0  0  0  0  0  0  0  0
  143.6590   74.8094  214.1071 H   0  0  0  0  0  0  0  0  0  0  0  0
  144.7042   75.4330  215.4736 H   0  0  0  0  0  0  0  0  0  0  0  0
  143.2220   74.0180  216.0580 C   0  0  0  0  0  0  0  0  0  0  0  0
  142.5854   73.3428  215.4673 H   0  0  0  0  0  0  0  0  0  0  0  0
  144.1263   73.5190  216.4365 H   0  0  0  0  0  0  0  0  0  0  0  0
  142.4230   74.4890  217.2840 C   0  0  0  0  0  0  0  0  0  0  0  0
  141.5116   74.9984  216.9379 H   0  0  0  0  0  0  0  0  0  0  0  0
  142.1825   73.6028  217.8897 H   0  0  0  0  0  0  0  0  0  0  0  0
  142.2100   77.0830  220.7840 N   0  0  0  0  0  0  0  0  0  0  0  0
  143.0990   77.6100  220.6540 H   0  0  0  0  0  0  0  0  0  0  0  0
  141.2920   80.1800  221.1450 C   0  0  0  0  0  0  0  0  0  0  0  0
  140.9210   79.9980  219.8520 F   0  0  0  0  0  0  0  0  0  0  0  0
  141.4830   81.4800  221.6250 C   0  0  0  0  0  0  0  0  0  0  0  0
  141.3590   82.3386  220.9487 H   0  0  0  0  0  0  0  0  0  0  0  0
  1  2  1  0
  2  3  2  0
  3  4  1  0
  3  5  1  0
  5  6  1  0
  5  7  2  0
  7  8  1  0
  8  9  2  0
  9 10  1  0
  9 11  1  0
 11 12  2  0
 12 13  1  0
 13 14  2  0
 14 15  1  0
 15 16  2  0
 15 17  1  0
 17 18  1  0
 17 19  1  0
 17 20  1  0
 14 21  1  0
 21 22  1  0
 21 23  1  0
 23 24  1  0
 23 25  1  0
 23 26  1  0
 26 27  1  0
 26 28  1  0
 26 29  1  0
 29 30  1  0
 29 31  1  0
 29 32  1  0
 32 33  1  0
 32 34  1  0
 32 35  1  0
 35 36  1  0
 35 37  1  0
 35 38  1  0
 38 39  1  0
 38 40  1  0
 13 41  1  0
 41 42  1  0
  7 43  1  0
 43 44  1  0
 43 45  2  0
 45 46  1  0
 45  2  1  0
 41  8  1  0
 38 21  1  0
M  CHG  1  14   1
M  END
>  <UniqueID>  (5) 
4

>  <SMILES>  (5) 
CC(=O)/[N+](=c1/nnc(Br)c(-c2c(F)cccc2F)[nH]1)C1CCCCCC1

>  <Energy>  (5) 
72.45715472952679

>  <Genealogy>  (5) 
CC(=O)[NH+](c1nnc(Br)c(-c2c(F)cccc2F)n1)C1CCCCCC1 (protonated)
CC(=O)[N+](=c1nnc(Br)c(-c2c(F)cccc2F)[nH]1)C1CCCCCC1 (tautomer)
CC(=O)/[N+](=c1/nnc(Br)c(-c2c(F)cccc2F)[nH]1)C1CCCCCC1 (cis-trans isomerization)
CC(=O)/[N+](=c1/nnc(Br)c(-c2c(F)cccc2F)[nH]1)C1CCCCCC1 (3D coordinates assigned)
CC(=O)/[N+](=c1/nnc(Br)c(-c2c(F)cccc2F)[nH]1)C1CCCCCC1 (nonaromatic ring conformer: 72.45715472952679 kcal/mol)

>  <smiles>  (5) 
CC(=O)N(c1nnc(Br)c(-c2c(F)cccc2F)n1)C1CCCCCC1

>  <score_type>  (5) 
oracle

>  <origin>  (5) 
autodockgpu

>  <m_score__min__energy>  (5) 
-5.2800000000000002

>  <m_primary>  (5) 
energy

>  <meeko>  (5) 
{"free_energy": -4.11, "intermolecular_energy": -6.8, "internal_energy": -1.31, "cluster_size": 1, "cluster_id": 6, "rank_in_cluster": 1}

>  <energy>  (5) 
-4.66

>  <cluster_rmsd>  (5) 
1.33

>  <rmsd>  (5) 
271.54

>  <cluster>  (5) 
1

$$$$
VCUSMEIKIQENRV-DOLDNGAINA-O
     RDKit          3D

 46 48  0  0  0  0  0  0  0  0999 V2000
  140.7010   82.0091  224.5676 H   0  0  0  0  0  0  0  0  0  0  0  0
  140.8930   81.2380  223.8070 C   0  0  0  0  0  0  0  0  0  0  0  0
  142.1500   80.6340  223.7280 C   0  0  0  0  0  0  0  0  0  0  0  0
  142.9454   80.9278  224.4288 H   0  0  0  0  0  0  0  0  0  0  0  0
  142.3990   79.6560  222.7590 C   0  0  0  0  0  0  0  0  0  0  0  0
  143.6270   79.0800  222.6950 F   0  0  0  0  0  0  0  0  0  0  0  0
  141.3900   79.2870  221.8530 C   0  0  0  0  0  0  0  0  0  0  0  0
  141.6500   78.2350  220.8460 C   0  0  0  0  0  0  0  0  0  0  0  0
  141.9390   78.5570  219.5120 C   0  0  0  0  0  0  0  0  0  0  0  0
  142.1070   80.3620  218.8930 Br  0  0  0  0  0  0  0  0  0  0  0  0
  142.1420   77.5490  218.6330 N   0  0  0  0  0  0  0  0  0  0  0  0
  142.0870   76.2760  219.0160 N   0  0  0  0  0  0  0  0  0  0  0  0
  141.8410   75.9220  220.3100 C   0  0  0  0  0  0  0  0  0  0  0  0
  141.8030   74.6410  220.6470 N   0  0  0  0  0  0  0  0  0  0  0  0
  140.5250   74.0560  220.9830 C   0  0  0  0  0  0  0  0  0  0  0  0
  140.2800   73.7290  222.1750 O   0  0  0  0  0  0  0  0  0  0  0  0
  139.4920   73.8170  219.9270 C   0  0  0  0  0  0  0  0  0  0  0  0
  138.5259   73.5935  220.4031 H   0  0  0  0  0  0  0  0  0  0  0  0
  139.3929   74.7160  219.3008 H   0  0  0  0  0  0  0  0  0  0  0  0
  139.7979   72.9659  219.3008 H   0  0  0  0  0  0  0  0  0  0  0  0
  143.0250   73.8080  220.8220 C   0  0  0  0  0  0  0  0  0  0  0  0
  143.2377   73.7362  221.8988 H   0  0  0  0  0  0  0  0  0  0  0  0
  144.2860   74.4670  220.1920 C   0  0  0  0  0  0  0  0  0  0  0  0
  144.3209   74.1766  219.1316 H   0  0  0  0  0  0  0  0  0  0  0  0
  144.1685   75.5469  220.3652 H   0  0  0  0  0  0  0  0  0  0  0  0
  145.6430   74.0960  220.8250 C   0  0  0  0  0  0  0  0  0  0  0  0
  146.3672   74.8785  220.5543 H   0  0  0  0  0  0  0  0  0  0  0  0
  145.4568   74.0145  221.9060 H   0  0  0  0  0  0  0  0  0  0  0  0
  146.2310   72.7400  220.3980 C   0  0  0  0  0  0  0  0  0  0  0  0
  147.0984   72.9201  219.7459 H   0  0  0  0  0  0  0  0  0  0  0  0
  146.5199   72.1963  221.3095 H   0  0  0  0  0  0  0  0  0  0  0  0
  145.2120   71.8760  219.6380 C   0  0  0  0  0  0  0  0  0  0  0  0
  144.8542   72.4471  218.7686 H   0  0  0  0  0  0  0  0  0  0  0  0
  145.7309   70.9495  219.3512 H   0  0  0  0  0  0  0  0  0  0  0  0
  143.9970   71.4630  220.4770 C   0  0  0  0  0  0  0  0  0  0  0  0
  143.7110   70.4395  220.1932 H   0  0  0  0  0  0  0  0  0  0  0  0
  144.2956   71.5385  221.5330 H   0  0  0  0  0  0  0  0  0  0  0  0
  142.7760   72.3770  220.2900 C   0  0  0  0  0  0  0  0  0  0  0  0
  142.5388   72.4349  219.2174 H   0  0  0  0  0  0  0  0  0  0  0  0
  141.9425   71.9456  220.8638 H   0  0  0  0  0  0  0  0  0  0  0  0
  141.6110   76.9250  221.2180 N   0  0  0  0  0  0  0  0  0  0  0  0
  141.3410   76.7300  222.2050 H   0  0  0  0  0  0  0  0  0  0  0  0
  140.1210   79.8880  221.9490 C   0  0  0  0  0  0  0  0  0  0  0  0
  139.1150   79.5140  221.1200 F   0  0  0  0  0  0  0  0  0  0  0  0
  139.8790   80.8640  222.9210 C   0  0  0  0  0  0  0  0  0  0  0  0
  138.8887   81.3381  222.9883 H   0  0  0  0  0  0  0  0  0  0  0  0
  1  2  1  0
  2  3  2  0
  3  4  1  0
  3  5  1  0
  5  6  1  0
  5  7  2  0
  7  8  1  0
  8  9  2  0
  9 10  1  0
  9 11  1  0
 11 12  2  0
 12 13  1  0
 13 14  2  0
 14 15  1  0
 15 16  2  0
 15 17  1  0
 17 18  1  0
 17 19  1  0
 17 20  1  0
 14 21  1  0
 21 22  1  0
 21 23  1  0
 23 24  1  0
 23 25  1  0
 23 26  1  0
 26 27  1  0
 26 28  1  0
 26 29  1  0
 29 30  1  0
 29 31  1  0
 29 32  1  0
 32 33  1  0
 32 34  1  0
 32 35  1  0
 35 36  1  0
 35 37  1  0
 35 38  1  0
 38 39  1  0
 38 40  1  0
 13 41  1  0
 41 42  1  0
  7 43  1  0
 43 44  1  0
 43 45  2  0
 45 46  1  0
 45  2  1  0
 41  8  1  0
 38 21  1  0
M  CHG  1  14   1
M  END
>  <UniqueID>  (6) 
4

>  <SMILES>  (6) 
CC(=O)/[N+](=c1/nnc(Br)c(-c2c(F)cccc2F)[nH]1)C1CCCCCC1

>  <Energy>  (6) 
72.45715472952679

>  <Genealogy>  (6) 
CC(=O)[NH+](c1nnc(Br)c(-c2c(F)cccc2F)n1)C1CCCCCC1 (protonated)
CC(=O)[N+](=c1nnc(Br)c(-c2c(F)cccc2F)[nH]1)C1CCCCCC1 (tautomer)
CC(=O)/[N+](=c1/nnc(Br)c(-c2c(F)cccc2F)[nH]1)C1CCCCCC1 (cis-trans isomerization)
CC(=O)/[N+](=c1/nnc(Br)c(-c2c(F)cccc2F)[nH]1)C1CCCCCC1 (3D coordinates assigned)
CC(=O)/[N+](=c1/nnc(Br)c(-c2c(F)cccc2F)[nH]1)C1CCCCCC1 (nonaromatic ring conformer: 72.45715472952679 kcal/mol)

>  <smiles>  (6) 
CC(=O)N(c1nnc(Br)c(-c2c(F)cccc2F)n1)C1CCCCCC1

>  <score_type>  (6) 
oracle

>  <origin>  (6) 
autodockgpu

>  <m_score__min__energy>  (6) 
-5.2800000000000002

>  <m_primary>  (6) 
energy

>  <meeko>  (6) 
{"free_energy": -5.14, "intermolecular_energy": -7.83, "internal_energy": -1.27, "cluster_size": 5, "cluster_id": 2, "rank_in_cluster": 1}

>  <energy>  (6) 
-5.14

>  <cluster_rmsd>  (6) 
0.0

>  <rmsd>  (6) 
271.75

>  <cluster>  (6) 
2

$$$$
VCUSMEIKIQENRV-DOLDNGAINA-O
     RDKit          3D

 46 48  0  0  0  0  0  0  0  0999 V2000
  143.1656   82.1835  222.9928 H   0  0  0  0  0  0  0  0  0  0  0  0
  142.5560   81.2760  222.8710 C   0  0  0  0  0  0  0  0  0  0  0  0
  142.5680   80.2890  223.8600 C   0  0  0  0  0  0  0  0  0  0  0  0
  143.1836   80.4231  224.7617 H   0  0  0  0  0  0  0  0  0  0  0  0
  141.7990   79.1310  223.7060 C   0  0  0  0  0  0  0  0  0  0  0  0
  141.8240   78.1820  224.6770 F   0  0  0  0  0  0  0  0  0  0  0  0
  141.0190   78.9500  222.5510 C   0  0  0  0  0  0  0  0  0  0  0  0
  140.1880   77.7350  222.4040 C   0  0  0  0  0  0  0  0  0  0  0  0
  138.7920   77.7840  222.5320 C   0  0  0  0  0  0  0  0  0  0  0  0
  137.8340   79.4180  222.8180 Br  0  0  0  0  0  0  0  0  0  0  0  0
  138.0910   76.6330  222.4130 N   0  0  0  0  0  0  0  0  0  0  0  0
  138.6990   75.4760  222.1650 N   0  0  0  0  0  0  0  0  0  0  0  0
  140.0500   75.3910  222.0020 C   0  0  0  0  0  0  0  0  0  0  0  0
  140.6100   74.2170  221.7490 N   0  0  0  0  0  0  0  0  0  0  0  0
  139.9160   73.0210  222.1650 C   0  0  0  0  0  0  0  0  0  0  0  0
  140.3730   72.3280  223.1130 O   0  0  0  0  0  0  0  0  0  0  0  0
  138.6650   72.5810  221.4700 C   0  0  0  0  0  0  0  0  0  0  0  0
  137.9045   72.3135  222.2184 H   0  0  0  0  0  0  0  0  0  0  0  0
  138.2877   73.4004  220.8405 H   0  0  0  0  0  0  0  0  0  0  0  0
  138.8837   71.7058  220.8405 H   0  0  0  0  0  0  0  0  0  0  0  0
  141.9780   74.0730  221.1760 C   0  0  0  0  0  0  0  0  0  0  0  0
  142.7066   74.2371  221.9835 H   0  0  0  0  0  0  0  0  0  0  0  0
  142.2890   75.1610  220.1080 C   0  0  0  0  0  0  0  0  0  0  0  0
  141.6629   74.9544  219.2275 H   0  0  0  0  0  0  0  0  0  0  0  0
  142.0796   76.1222  220.6002 H   0  0  0  0  0  0  0  0  0  0  0  0
  143.7540   75.2550  219.6310 C   0  0  0  0  0  0  0  0  0  0  0  0
  143.7872   74.9394  218.5778 H   0  0  0  0  0  0  0  0  0  0  0  0
  144.0553   76.3003  219.7938 H   0  0  0  0  0  0  0  0  0  0  0  0
  144.7670   74.4010  220.4120 C   0  0  0  0  0  0  0  0  0  0  0  0
  145.7824   74.7573  220.1838 H   0  0  0  0  0  0  0  0  0  0  0  0
  144.5413   74.5018  221.4839 H   0  0  0  0  0  0  0  0  0  0  0  0
  144.6690   72.9060  220.0430 C   0  0  0  0  0  0  0  0  0  0  0  0
  144.4124   72.8290  218.9761 H   0  0  0  0  0  0  0  0  0  0  0  0
  145.6448   72.4554  220.2771 H   0  0  0  0  0  0  0  0  0  0  0  0
  143.6180   72.1330  220.8490 C   0  0  0  0  0  0  0  0  0  0  0  0
  143.6615   71.0749  220.5515 H   0  0  0  0  0  0  0  0  0  0  0  0
  143.8566   72.2805  221.9126 H   0  0  0  0  0  0  0  0  0  0  0  0
  142.1810   72.6380  220.6370 C   0  0  0  0  0  0  0  0  0  0  0  0
  141.9585   72.6299  219.5598 H   0  0  0  0  0  0  0  0  0  0  0  0
  141.5046   71.9712  221.1918 H   0  0  0  0  0  0  0  0  0  0  0  0
  140.7880   76.5410  222.1390 N   0  0  0  0  0  0  0  0  0  0  0  0
  141.8280   76.5400  222.1050 H   0  0  0  0  0  0  0  0  0  0  0  0
  140.9980   79.9550  221.5670 C   0  0  0  0  0  0  0  0  0  0  0  0
  140.2150   79.8280  220.4650 F   0  0  0  0  0  0  0  0  0  0  0  0
  141.7700   81.1110  221.7270 C   0  0  0  0  0  0  0  0  0  0  0  0
  141.7583   81.8910  220.9514 H   0  0  0  0  0  0  0  0  0  0  0  0
  1  2  1  0
  2  3  2  0
  3  4  1  0
  3  5  1  0
  5  6  1  0
  5  7  2  0
  7  8  1  0
  8  9  2  0
  9 10  1  0
  9 11  1  0
 11 12  2  0
 12 13  1  0
 13 14  2  0
 14 15  1  0
 15 16  2  0
 15 17  1  0
 17 18  1  0
 17 19  1  0
 17 20  1  0
 14 21  1  0
 21 22  1  0
 21 23  1  0
 23 24  1  0
 23 25  1  0
 23 26  1  0
 26 27  1  0
 26 28  1  0
 26 29  1  0
 29 30  1  0
 29 31  1  0
 29 32  1  0
 32 33  1  0
 32 34  1  0
 32 35  1  0
 35 36  1  0
 35 37  1  0
 35 38  1  0
 38 39  1  0
 38 40  1  0
 13 41  1  0
 41 42  1  0
  7 43  1  0
 43 44  1  0
 43 45  2  0
 45 46  1  0
 45  2  1  0
 41  8  1  0
 38 21  1  0
M  CHG  1  14   1
M  END
>  <UniqueID>  (7) 
4

>  <SMILES>  (7) 
CC(=O)/[N+](=c1/nnc(Br)c(-c2c(F)cccc2F)[nH]1)C1CCCCCC1

>  <Energy>  (7) 
72.45715472952679

>  <Genealogy>  (7) 
CC(=O)[NH+](c1nnc(Br)c(-c2c(F)cccc2F)n1)C1CCCCCC1 (protonated)
CC(=O)[N+](=c1nnc(Br)c(-c2c(F)cccc2F)[nH]1)C1CCCCCC1 (tautomer)
CC(=O)/[N+](=c1/nnc(Br)c(-c2c(F)cccc2F)[nH]1)C1CCCCCC1 (cis-trans isomerization)
CC(=O)/[N+](=c1/nnc(Br)c(-c2c(F)cccc2F)[nH]1)C1CCCCCC1 (3D coordinates assigned)
CC(=O)/[N+](=c1/nnc(Br)c(-c2c(F)cccc2F)[nH]1)C1CCCCCC1 (nonaromatic ring conformer: 72.45715472952679 kcal/mol)

>  <smiles>  (7) 
CC(=O)N(c1nnc(Br)c(-c2c(F)cccc2F)n1)C1CCCCCC1

>  <score_type>  (7) 
oracle

>  <origin>  (7) 
autodockgpu

>  <m_score__min__energy>  (7) 
-5.2800000000000002

>  <m_primary>  (7) 
energy

>  <meeko>  (7) 
{"free_energy": -5.02, "intermolecular_energy": -7.71, "internal_energy": -1.13, "cluster_size": 5, "cluster_id": 1, "rank_in_cluster": 3}

>  <energy>  (7) 
-5.05

>  <cluster_rmsd>  (7) 
0.4

>  <rmsd>  (7) 
271.84

>  <cluster>  (7) 
2

$$$$
VCUSMEIKIQENRV-DOLDNGAINA-O
     RDKit          3D

 46 48  0  0  0  0  0  0  0  0999 V2000
  146.4394   73.0188  217.3650 H   0  0  0  0  0  0  0  0  0  0  0  0
  145.6130   73.3560  218.0080 C   0  0  0  0  0  0  0  0  0  0  0  0
  144.4260   73.8190  217.4340 C   0  0  0  0  0  0  0  0  0  0  0  0
  144.3171   73.8406  216.3396 H   0  0  0  0  0  0  0  0  0  0  0  0
  143.3760   74.2550  218.2490 C   0  0  0  0  0  0  0  0  0  0  0  0
  142.2310   74.7050  217.6750 F   0  0  0  0  0  0  0  0  0  0  0  0
  143.5140   74.2390  219.6480 C   0  0  0  0  0  0  0  0  0  0  0  0
  142.3920   74.6770  220.5060 C   0  0  0  0  0  0  0  0  0  0  0  0
  141.5880   73.7530  221.1870 C   0  0  0  0  0  0  0  0  0  0  0  0
  141.9130   71.8650  221.1420 Br  0  0  0  0  0  0  0  0  0  0  0  0
  140.5600   74.2160  221.9350 N   0  0  0  0  0  0  0  0  0  0  0  0
  140.3170   75.5200  222.0430 N   0  0  0  0  0  0  0  0  0  0  0  0
  141.0950   76.4530  221.4220 C   0  0  0  0  0  0  0  0  0  0  0  0
  140.8180   77.7410  221.5650 N   0  0  0  0  0  0  0  0  0  0  0  0
  140.9500   78.6040  220.4140 C   0  0  0  0  0  0  0  0  0  0  0  0
  141.8800   79.4520  220.3710 O   0  0  0  0  0  0  0  0  0  0  0  0
  139.9820   78.5150  219.2760 C   0  0  0  0  0  0  0  0  0  0  0  0
  138.9596   78.4210  219.6708 H   0  0  0  0  0  0  0  0  0  0  0  0
  140.0552   79.4237  218.6604 H   0  0  0  0  0  0  0  0  0  0  0  0
  140.2197   77.6349  218.6604 H   0  0  0  0  0  0  0  0  0  0  0  0
  140.5050   78.3660  222.8810 C   0  0  0  0  0  0  0  0  0  0  0  0
  139.8362   77.6879  223.4313 H   0  0  0  0  0  0  0  0  0  0  0  0
  139.7150   79.6980  222.7290 C   0  0  0  0  0  0  0  0  0  0  0  0
  139.7414   79.9836  221.6671 H   0  0  0  0  0  0  0  0  0  0  0  0
  138.7082   79.4870  223.1187 H   0  0  0  0  0  0  0  0  0  0  0  0
  140.2300   80.8980  223.5510 C   0  0  0  0  0  0  0  0  0  0  0  0
  139.4208   81.6410  223.6072 H   0  0  0  0  0  0  0  0  0  0  0  0
  140.5274   80.4867  224.5269 H   0  0  0  0  0  0  0  0  0  0  0  0
  141.4800   81.6020  222.9950 C   0  0  0  0  0  0  0  0  0  0  0  0
  141.4186   81.6175  221.8968 H   0  0  0  0  0  0  0  0  0  0  0  0
  141.5057   82.6206  223.4095 H   0  0  0  0  0  0  0  0  0  0  0  0
  142.7800   80.8920  223.4080 C   0  0  0  0  0  0  0  0  0  0  0  0
  143.6249   81.4150  222.9362 H   0  0  0  0  0  0  0  0  0  0  0  0
  142.8243   80.9219  224.5067 H   0  0  0  0  0  0  0  0  0  0  0  0
  142.8390   79.4150  223.0010 C   0  0  0  0  0  0  0  0  0  0  0  0
  142.6680   79.3466  221.9165 H   0  0  0  0  0  0  0  0  0  0  0  0
  143.8308   79.0404  223.2942 H   0  0  0  0  0  0  0  0  0  0  0  0
  141.7980   78.5350  223.7130 C   0  0  0  0  0  0  0  0  0  0  0  0
  142.2365   77.5420  223.8910 H   0  0  0  0  0  0  0  0  0  0  0  0
  141.5282   79.0301  224.6575 H   0  0  0  0  0  0  0  0  0  0  0  0
  142.1310   76.0080  220.6410 N   0  0  0  0  0  0  0  0  0  0  0  0
  142.7190   76.6570  220.0760 H   0  0  0  0  0  0  0  0  0  0  0  0
  144.7060   73.7550  220.2190 C   0  0  0  0  0  0  0  0  0  0  0  0
  144.8460   73.6810  221.5670 F   0  0  0  0  0  0  0  0  0  0  0  0
  145.7510   73.3210  219.3980 C   0  0  0  0  0  0  0  0  0  0  0  0
  146.6843   72.9510  219.8475 H   0  0  0  0  0  0  0  0  0  0  0  0
  1  2  1  0
  2  3  2  0
  3  4  1  0
  3  5  1  0
  5  6  1  0
  5  7  2  0
  7  8  1  0
  8  9  2  0
  9 10  1  0
  9 11  1  0
 11 12  2  0
 12 13  1  0
 13 14  2  0
 14 15  1  0
 15 16  2  0
 15 17  1  0
 17 18  1  0
 17 19  1  0
 17 20  1  0
 14 21  1  0
 21 22  1  0
 21 23  1  0
 23 24  1  0
 23 25  1  0
 23 26  1  0
 26 27  1  0
 26 28  1  0
 26 29  1  0
 29 30  1  0
 29 31  1  0
 29 32  1  0
 32 33  1  0
 32 34  1  0
 32 35  1  0
 35 36  1  0
 35 37  1  0
 35 38  1  0
 38 39  1  0
 38 40  1  0
 13 41  1  0
 41 42  1  0
  7 43  1  0
 43 44  1  0
 43 45  2  0
 45 46  1  0
 45  2  1  0
 41  8  1  0
 38 21  1  0
M  CHG  1  14   1
M  END
>  <UniqueID>  (8) 
4

>  <SMILES>  (8) 
CC(=O)/[N+](=c1/nnc(Br)c(-c2c(F)cccc2F)[nH]1)C1CCCCCC1

>  <Energy>  (8) 
72.45715472952679

>  <Genealogy>  (8) 
CC(=O)[NH+](c1nnc(Br)c(-c2c(F)cccc2F)n1)C1CCCCCC1 (protonated)
CC(=O)[N+](=c1nnc(Br)c(-c2c(F)cccc2F)[nH]1)C1CCCCCC1 (tautomer)
CC(=O)/[N+](=c1/nnc(Br)c(-c2c(F)cccc2F)[nH]1)C1CCCCCC1 (cis-trans isomerization)
CC(=O)/[N+](=c1/nnc(Br)c(-c2c(F)cccc2F)[nH]1)C1CCCCCC1 (3D coordinates assigned)
CC(=O)/[N+](=c1/nnc(Br)c(-c2c(F)cccc2F)[nH]1)C1CCCCCC1 (nonaromatic ring conformer: 72.45715472952679 kcal/mol)

>  <smiles>  (8) 
CC(=O)N(c1nnc(Br)c(-c2c(F)cccc2F)n1)C1CCCCCC1

>  <score_type>  (8) 
oracle

>  <origin>  (8) 
autodockgpu

>  <m_score__min__energy>  (8) 
-5.2800000000000002

>  <m_primary>  (8) 
energy

>  <meeko>  (8) 
{"free_energy": -4.99, "intermolecular_energy": -7.68, "internal_energy": -1.36, "cluster_size": 3, "cluster_id": 4, "rank_in_cluster": 1}

>  <energy>  (8) 
-4.97

>  <cluster_rmsd>  (8) 
0.54

>  <rmsd>  (8) 
271.68

>  <cluster>  (8) 
2

$$$$
VCUSMEIKIQENRV-DOLDNGAINA-O
     RDKit          3D

 46 48  0  0  0  0  0  0  0  0999 V2000
  146.0922   73.5538  217.3218 H   0  0  0  0  0  0  0  0  0  0  0  0
  145.2480   73.7470  218.0000 C   0  0  0  0  0  0  0  0  0  0  0  0
  145.3500   73.4170  219.3530 C   0  0  0  0  0  0  0  0  0  0  0  0
  146.2770   72.9685  219.7397 H   0  0  0  0  0  0  0  0  0  0  0  0
  144.2770   73.6550  220.2180 C   0  0  0  0  0  0  0  0  0  0  0  0
  144.3940   73.3260  221.5300 F   0  0  0  0  0  0  0  0  0  0  0  0
  143.0860   74.2180  219.7270 C   0  0  0  0  0  0  0  0  0  0  0  0
  141.9630   74.4920  220.6490 C   0  0  0  0  0  0  0  0  0  0  0  0
  141.1790   73.4550  221.1740 C   0  0  0  0  0  0  0  0  0  0  0  0
  141.5360   71.6050  220.8220 Br  0  0  0  0  0  0  0  0  0  0  0  0
  140.1500   73.7720  221.9920 N   0  0  0  0  0  0  0  0  0  0  0  0
  139.8850   75.0360  222.3120 N   0  0  0  0  0  0  0  0  0  0  0  0
  140.6430   76.0710  221.8480 C   0  0  0  0  0  0  0  0  0  0  0  0
  140.3460   77.3140  222.2000 N   0  0  0  0  0  0  0  0  0  0  0  0
  139.0080   77.7970  221.9490 C   0  0  0  0  0  0  0  0  0  0  0  0
  138.8130   78.6690  221.0610 O   0  0  0  0  0  0  0  0  0  0  0  0
  137.8480   77.2870  222.7460 C   0  0  0  0  0  0  0  0  0  0  0  0
  138.0693   77.3843  223.8191 H   0  0  0  0  0  0  0  0  0  0  0  0
  136.9497   77.8732  222.5023 H   0  0  0  0  0  0  0  0  0  0  0  0
  137.6726   76.2288  222.5023 H   0  0  0  0  0  0  0  0  0  0  0  0
  141.3560   78.2770  222.7200 C   0  0  0  0  0  0  0  0  0  0  0  0
  142.0326   77.7325  223.3951 H   0  0  0  0  0  0  0  0  0  0  0  0
  140.7130   79.3960  223.5900 C   0  0  0  0  0  0  0  0  0  0  0  0
  139.7763   79.7029  223.1018 H   0  0  0  0  0  0  0  0  0  0  0  0
  140.5822   78.9517  224.5877 H   0  0  0  0  0  0  0  0  0  0  0  0
  141.5630   80.6640  223.8140 C   0  0  0  0  0  0  0  0  0  0  0  0
  141.0152   81.3198  224.5067 H   0  0  0  0  0  0  0  0  0  0  0  0
  142.5297   80.3115  224.2029 H   0  0  0  0  0  0  0  0  0  0  0  0
  141.8920   81.4800  222.5510 C   0  0  0  0  0  0  0  0  0  0  0  0
  141.7557   82.5485  222.7740 H   0  0  0  0  0  0  0  0  0  0  0  0
  142.9319   81.2598  222.2678 H   0  0  0  0  0  0  0  0  0  0  0  0
  140.9880   81.1020  221.3630 C   0  0  0  0  0  0  0  0  0  0  0  0
  139.9588   80.9864  221.7336 H   0  0  0  0  0  0  0  0  0  0  0  0
  141.0805   81.9087  220.6210 H   0  0  0  0  0  0  0  0  0  0  0  0
  141.3980   79.8020  220.6620 C   0  0  0  0  0  0  0  0  0  0  0  0
  140.4859   79.2844  220.3300 H   0  0  0  0  0  0  0  0  0  0  0  0
  142.0516   80.0826  219.8229 H   0  0  0  0  0  0  0  0  0  0  0  0
  142.2020   78.8430  221.5550 C   0  0  0  0  0  0  0  0  0  0  0  0
  142.5622   78.0052  220.9399 H   0  0  0  0  0  0  0  0  0  0  0  0
  143.0378   79.4101  221.9907 H   0  0  0  0  0  0  0  0  0  0  0  0
  141.6810   75.7780  221.0000 N   0  0  0  0  0  0  0  0  0  0  0  0
  142.2540   76.5200  220.5460 H   0  0  0  0  0  0  0  0  0  0  0  0
  142.9960   74.5640  218.3660 C   0  0  0  0  0  0  0  0  0  0  0  0
  141.8770   75.1550  217.8760 F   0  0  0  0  0  0  0  0  0  0  0  0
  144.0730   74.3230  217.5070 C   0  0  0  0  0  0  0  0  0  0  0  0
  143.9957   74.5869  216.4419 H   0  0  0  0  0  0  0  0  0  0  0  0
  1  2  1  0
  2  3  2  0
  3  4  1  0
  3  5  1  0
  5  6  1  0
  5  7  2  0
  7  8  1  0
  8  9  2  0
  9 10  1  0
  9 11  1  0
 11 12  2  0
 12 13  1  0
 13 14  2  0
 14 15  1  0
 15 16  2  0
 15 17  1  0
 17 18  1  0
 17 19  1  0
 17 20  1  0
 14 21  1  0
 21 22  1  0
 21 23  1  0
 23 24  1  0
 23 25  1  0
 23 26  1  0
 26 27  1  0
 26 28  1  0
 26 29  1  0
 29 30  1  0
 29 31  1  0
 29 32  1  0
 32 33  1  0
 32 34  1  0
 32 35  1  0
 35 36  1  0
 35 37  1  0
 35 38  1  0
 38 39  1  0
 38 40  1  0
 13 41  1  0
 41 42  1  0
  7 43  1  0
 43 44  1  0
 43 45  2  0
 45 46  1  0
 45  2  1  0
 41  8  1  0
 38 21  1  0
M  CHG  1  14   1
M  END
>  <UniqueID>  (9) 
4

>  <SMILES>  (9) 
CC(=O)/[N+](=c1/nnc(Br)c(-c2c(F)cccc2F)[nH]1)C1CCCCCC1

>  <Energy>  (9) 
72.45715472952679

>  <Genealogy>  (9) 
CC(=O)[NH+](c1nnc(Br)c(-c2c(F)cccc2F)n1)C1CCCCCC1 (protonated)
CC(=O)[N+](=c1nnc(Br)c(-c2c(F)cccc2F)[nH]1)C1CCCCCC1 (tautomer)
CC(=O)/[N+](=c1/nnc(Br)c(-c2c(F)cccc2F)[nH]1)C1CCCCCC1 (cis-trans isomerization)
CC(=O)/[N+](=c1/nnc(Br)c(-c2c(F)cccc2F)[nH]1)C1CCCCCC1 (3D coordinates assigned)
CC(=O)/[N+](=c1/nnc(Br)c(-c2c(F)cccc2F)[nH]1)C1CCCCCC1 (nonaromatic ring conformer: 72.45715472952679 kcal/mol)

>  <smiles>  (9) 
CC(=O)N(c1nnc(Br)c(-c2c(F)cccc2F)n1)C1CCCCCC1

>  <score_type>  (9) 
oracle

>  <origin>  (9) 
autodockgpu

>  <m_score__min__energy>  (9) 
-5.2800000000000002

>  <m_primary>  (9) 
energy

>  <meeko>  (9) 
{"free_energy": -4.65, "intermolecular_energy": -7.34, "internal_energy": -1.24, "cluster_size": 3, "cluster_id": 4, "rank_in_cluster": 2}

>  <energy>  (9) 
-4.78

>  <cluster_rmsd>  (9) 
0.67

>  <rmsd>  (9) 
271.78

>  <cluster>  (9) 
2

$$$$
VCUSMEIKIQENRV-DOLDNGAINA-O
     RDKit          3D

 46 48  0  0  0  0  0  0  0  0999 V2000
  142.6636   82.3941  224.1606 H   0  0  0  0  0  0  0  0  0  0  0  0
  142.3430   81.4950  223.6140 C   0  0  0  0  0  0  0  0  0  0  0  0
  142.4610   80.2360  224.2100 C   0  0  0  0  0  0  0  0  0  0  0  0
  142.8715   80.1462  225.2266 H   0  0  0  0  0  0  0  0  0  0  0  0
  142.0580   79.0900  223.5160 C   0  0  0  0  0  0  0  0  0  0  0  0
  142.1820   77.8750  224.1090 F   0  0  0  0  0  0  0  0  0  0  0  0
  141.5450   79.1980  222.2110 C   0  0  0  0  0  0  0  0  0  0  0  0
  141.0980   77.9870  221.4910 C   0  0  0  0  0  0  0  0  0  0  0  0
  139.7970   77.4850  221.6400 C   0  0  0  0  0  0  0  0  0  0  0  0
  138.4660   78.3580  222.7070 Br  0  0  0  0  0  0  0  0  0  0  0  0
  139.4580   76.3580  220.9740 N   0  0  0  0  0  0  0  0  0  0  0  0
  140.3260   75.7370  220.1790 N   0  0  0  0  0  0  0  0  0  0  0  0
  141.5900   76.2100  219.9830 C   0  0  0  0  0  0  0  0  0  0  0  0
  142.4170   75.5610  219.1760 N   0  0  0  0  0  0  0  0  0  0  0  0
  142.5020   75.9810  217.7960 C   0  0  0  0  0  0  0  0  0  0  0  0
  142.0390   75.2430  216.8870 O   0  0  0  0  0  0  0  0  0  0  0  0
  143.1520   77.2790  217.4300 C   0  0  0  0  0  0  0  0  0  0  0  0
  143.4247   77.8236  218.3460 H   0  0  0  0  0  0  0  0  0  0  0  0
  144.0575   77.0814  216.8375 H   0  0  0  0  0  0  0  0  0  0  0  0
  142.4513   77.8857  216.8375 H   0  0  0  0  0  0  0  0  0  0  0  0
  143.1660   74.3400  219.5870 C   0  0  0  0  0  0  0  0  0  0  0  0
  143.5339   73.8418  218.6779 H   0  0  0  0  0  0  0  0  0  0  0  0
  142.2530   73.2960  220.2920 C   0  0  0  0  0  0  0  0  0  0  0  0
  142.1880   73.5718  221.3549 H   0  0  0  0  0  0  0  0  0  0  0  0
  141.2952   73.3336  219.7524 H   0  0  0  0  0  0  0  0  0  0  0  0
  142.7090   71.8240  220.2160 C   0  0  0  0  0  0  0  0  0  0  0  0
  142.0973   71.2442  220.9229 H   0  0  0  0  0  0  0  0  0  0  0  0
  142.5815   71.5254  219.1650 H   0  0  0  0  0  0  0  0  0  0  0  0
  144.1880   71.5640  220.5480 C   0  0  0  0  0  0  0  0  0  0  0  0
  144.3653   71.8241  221.6020 H   0  0  0  0  0  0  0  0  0  0  0  0
  144.3945   70.5005  220.3572 H   0  0  0  0  0  0  0  0  0  0  0  0
  145.1370   72.3940  219.6670 C   0  0  0  0  0  0  0  0  0  0  0  0
  146.0451   71.8015  219.4818 H   0  0  0  0  0  0  0  0  0  0  0  0
  144.5909   72.6289  218.7415 H   0  0  0  0  0  0  0  0  0  0  0  0
  145.5520   73.7320  220.2920 C   0  0  0  0  0  0  0  0  0  0  0  0
  145.9717   73.5340  221.2893 H   0  0  0  0  0  0  0  0  0  0  0  0
  146.2844   74.1909  219.6116 H   0  0  0  0  0  0  0  0  0  0  0  0
  144.3930   74.7300  220.4430 C   0  0  0  0  0  0  0  0  0  0  0  0
  144.0905   74.7632  221.5001 H   0  0  0  0  0  0  0  0  0  0  0  0
  144.7473   75.7115  220.0949 H   0  0  0  0  0  0  0  0  0  0  0  0
  141.9670   77.3410  220.6630 N   0  0  0  0  0  0  0  0  0  0  0  0
  142.9370   77.7160  220.6230 H   0  0  0  0  0  0  0  0  0  0  0  0
  141.4140   80.4710  221.6240 C   0  0  0  0  0  0  0  0  0  0  0  0
  140.8750   80.6080  220.3860 F   0  0  0  0  0  0  0  0  0  0  0  0
  141.8180   81.6120  222.3240 C   0  0  0  0  0  0  0  0  0  0  0  0
  141.7224   82.6040  221.8584 H   0  0  0  0  0  0  0  0  0  0  0  0
  1  2  1  0
  2  3  2  0
  3  4  1  0
  3  5  1  0
  5  6  1  0
  5  7  2  0
  7  8  1  0
  8  9  2  0
  9 10  1  0
  9 11  1  0
 11 12  2  0
 12 13  1  0
 13 14  2  0
 14 15  1  0
 15 16  2  0
 15 17  1  0
 17 18  1  0
 17 19  1  0
 17 20  1  0
 14 21  1  0
 21 22  1  0
 21 23  1  0
 23 24  1  0
 23 25  1  0
 23 26  1  0
 26 27  1  0
 26 28  1  0
 26 29  1  0
 29 30  1  0
 29 31  1  0
 29 32  1  0
 32 33  1  0
 32 34  1  0
 32 35  1  0
 35 36  1  0
 35 37  1  0
 35 38  1  0
 38 39  1  0
 38 40  1  0
 13 41  1  0
 41 42  1  0
  7 43  1  0
 43 44  1  0
 43 45  2  0
 45 46  1  0
 45  2  1  0
 41  8  1  0
 38 21  1  0
M  CHG  1  14   1
M  END
>  <UniqueID>  (10) 
4

>  <SMILES>  (10) 
CC(=O)/[N+](=c1/nnc(Br)c(-c2c(F)cccc2F)[nH]1)C1CCCCCC1

>  <Energy>  (10) 
72.45715472952679

>  <Genealogy>  (10) 
CC(=O)[NH+](c1nnc(Br)c(-c2c(F)cccc2F)n1)C1CCCCCC1 (protonated)
CC(=O)[N+](=c1nnc(Br)c(-c2c(F)cccc2F)[nH]1)C1CCCCCC1 (tautomer)
CC(=O)/[N+](=c1/nnc(Br)c(-c2c(F)cccc2F)[nH]1)C1CCCCCC1 (cis-trans isomerization)
CC(=O)/[N+](=c1/nnc(Br)c(-c2c(F)cccc2F)[nH]1)C1CCCCCC1 (3D coordinates assigned)
CC(=O)/[N+](=c1/nnc(Br)c(-c2c(F)cccc2F)[nH]1)C1CCCCCC1 (nonaromatic ring conformer: 72.45715472952679 kcal/mol)

>  <smiles>  (10) 
CC(=O)N(c1nnc(Br)c(-c2c(F)cccc2F)n1)C1CCCCCC1

>  <score_type>  (10) 
oracle

>  <origin>  (10) 
autodockgpu

>  <m_score__min__energy>  (10) 
-5.2800000000000002

>  <m_primary>  (10) 
energy

>  <meeko>  (10) 
{"free_energy": -4.85, "intermolecular_energy": -7.53, "internal_energy": -1.3, "cluster_size": 4, "cluster_id": 3, "rank_in_cluster": 3}

>  <energy>  (10) 
-4.4

>  <cluster_rmsd>  (10) 
0.63

>  <rmsd>  (10) 
271.55

>  <cluster>  (10) 
2

$$$$
VCUSMEIKIQENRV-DOLDNGAINA-O
     RDKit          3D

 46 48  0  0  0  0  0  0  0  0999 V2000
  142.5699   82.3077  224.0690 H   0  0  0  0  0  0  0  0  0  0  0  0
  142.2950   81.3920  223.5250 C   0  0  0  0  0  0  0  0  0  0  0  0
  142.4150   80.1480  224.1480 C   0  0  0  0  0  0  0  0  0  0  0  0
  142.7798   80.0858  225.1839 H   0  0  0  0  0  0  0  0  0  0  0  0
  142.0720   78.9800  223.4570 C   0  0  0  0  0  0  0  0  0  0  0  0
  142.1960   77.7790  224.0780 F   0  0  0  0  0  0  0  0  0  0  0  0
  141.6160   79.0540  222.1290 C   0  0  0  0  0  0  0  0  0  0  0  0
  141.2310   77.8200  221.4110 C   0  0  0  0  0  0  0  0  0  0  0  0
  139.9730   77.2290  221.5940 C   0  0  0  0  0  0  0  0  0  0  0  0
  138.6180   78.0000  222.7080 Br  0  0  0  0  0  0  0  0  0  0  0  0
  139.6910   76.0860  220.9280 N   0  0  0  0  0  0  0  0  0  0  0  0
  140.5750   75.5320  220.1020 N   0  0  0  0  0  0  0  0  0  0  0  0
  141.7980   76.0910  219.8730 C   0  0  0  0  0  0  0  0  0  0  0  0
  142.6430   75.5070  219.0360 N   0  0  0  0  0  0  0  0  0  0  0  0
  142.7060   75.9880  217.6750 C   0  0  0  0  0  0  0  0  0  0  0  0
  142.2630   75.2740  216.7370 O   0  0  0  0  0  0  0  0  0  0  0  0
  143.3090   77.3220  217.3620 C   0  0  0  0  0  0  0  0  0  0  0  0
  143.5460   77.8463  218.2995 H   0  0  0  0  0  0  0  0  0  0  0  0
  144.2305   77.1800  216.7783 H   0  0  0  0  0  0  0  0  0  0  0  0
  142.5936   77.9199  216.7783 H   0  0  0  0  0  0  0  0  0  0  0  0
  143.4350   74.2960  219.3910 C   0  0  0  0  0  0  0  0  0  0  0  0
  143.9697   73.9613  218.4899 H   0  0  0  0  0  0  0  0  0  0  0  0
  142.5320   73.0990  219.8070 C   0  0  0  0  0  0  0  0  0  0  0  0
  142.3134   73.2020  220.8801 H   0  0  0  0  0  0  0  0  0  0  0  0
  141.6489   73.1589  219.1539 H   0  0  0  0  0  0  0  0  0  0  0  0
  143.1140   71.6880  219.5800 C   0  0  0  0  0  0  0  0  0  0  0  0
  142.4644   70.9670  220.0979 H   0  0  0  0  0  0  0  0  0  0  0  0
  143.1516   71.5508  218.4892 H   0  0  0  0  0  0  0  0  0  0  0  0
  144.5530   71.4720  220.0800 C   0  0  0  0  0  0  0  0  0  0  0  0
  144.5622   71.5530  221.1770 H   0  0  0  0  0  0  0  0  0  0  0  0
  144.8785   70.4751  219.7480 H   0  0  0  0  0  0  0  0  0  0  0  0
  145.5330   72.5040  219.5000 C   0  0  0  0  0  0  0  0  0  0  0  0
  146.5097   72.0163  219.3649 H   0  0  0  0  0  0  0  0  0  0  0  0
  145.1018   72.8558  218.5512 H   0  0  0  0  0  0  0  0  0  0  0  0
  145.7290   73.7400  220.3850 C   0  0  0  0  0  0  0  0  0  0  0  0
  145.9806   73.4029  221.4014 H   0  0  0  0  0  0  0  0  0  0  0  0
  146.5328   74.3370  219.9295 H   0  0  0  0  0  0  0  0  0  0  0  0
  144.4890   74.6450  220.4670 C   0  0  0  0  0  0  0  0  0  0  0  0
  144.0317   74.5291  221.4607 H   0  0  0  0  0  0  0  0  0  0  0  0
  144.8165   75.6807  220.2935 H   0  0  0  0  0  0  0  0  0  0  0  0
  142.1160   77.2410  220.5520 N   0  0  0  0  0  0  0  0  0  0  0  0
  143.0570   77.6820  220.4860 H   0  0  0  0  0  0  0  0  0  0  0  0
  141.4820   80.3120  221.5140 C   0  0  0  0  0  0  0  0  0  0  0  0
  140.9970   80.4150  220.2510 F   0  0  0  0  0  0  0  0  0  0  0  0
  141.8260   81.4750  222.2110 C   0  0  0  0  0  0  0  0  0  0  0  0
  141.7273   82.4564  221.7242 H   0  0  0  0  0  0  0  0  0  0  0  0
  1  2  1  0
  2  3  2  0
  3  4  1  0
  3  5  1  0
  5  6  1  0
  5  7  2  0
  7  8  1  0
  8  9  2  0
  9 10  1  0
  9 11  1  0
 11 12  2  0
 12 13  1  0
 13 14  2  0
 14 15  1  0
 15 16  2  0
 15 17  1  0
 17 18  1  0
 17 19  1  0
 17 20  1  0
 14 21  1  0
 21 22  1  0
 21 23  1  0
 23 24  1  0
 23 25  1  0
 23 26  1  0
 26 27  1  0
 26 28  1  0
 26 29  1  0
 29 30  1  0
 29 31  1  0
 29 32  1  0
 32 33  1  0
 32 34  1  0
 32 35  1  0
 35 36  1  0
 35 37  1  0
 35 38  1  0
 38 39  1  0
 38 40  1  0
 13 41  1  0
 41 42  1  0
  7 43  1  0
 43 44  1  0
 43 45  2  0
 45 46  1  0
 45  2  1  0
 41  8  1  0
 38 21  1  0
M  CHG  1  14   1
M  END
>  <UniqueID>  (11) 
4

>  <SMILES>  (11) 
CC(=O)/[N+](=c1/nnc(Br)c(-c2c(F)cccc2F)[nH]1)C1CCCCCC1

>  <Energy>  (11) 
72.45715472952679

>  <Genealogy>  (11) 
CC(=O)[NH+](c1nnc(Br)c(-c2c(F)cccc2F)n1)C1CCCCCC1 (protonated)
CC(=O)[N+](=c1nnc(Br)c(-c2c(F)cccc2F)[nH]1)C1CCCCCC1 (tautomer)
CC(=O)/[N+](=c1/nnc(Br)c(-c2c(F)cccc2F)[nH]1)C1CCCCCC1 (cis-trans isomerization)
CC(=O)/[N+](=c1/nnc(Br)c(-c2c(F)cccc2F)[nH]1)C1CCCCCC1 (3D coordinates assigned)
CC(=O)/[N+](=c1/nnc(Br)c(-c2c(F)cccc2F)[nH]1)C1CCCCCC1 (nonaromatic ring conformer: 72.45715472952679 kcal/mol)

>  <smiles>  (11) 
CC(=O)N(c1nnc(Br)c(-c2c(F)cccc2F)n1)C1CCCCCC1

>  <score_type>  (11) 
oracle

>  <origin>  (11) 
autodockgpu

>  <m_score__min__energy>  (11) 
-5.2800000000000002

>  <m_primary>  (11) 
energy

>  <meeko>  (11) 
{"free_energy": -5.01, "intermolecular_energy": -7.7, "internal_energy": -1.3, "cluster_size": 4, "cluster_id": 3, "rank_in_cluster": 1}

>  <energy>  (11) 
-5.01

>  <cluster_rmsd>  (11) 
0.0

>  <rmsd>  (11) 
271.57

>  <cluster>  (11) 
3

$$$$
VCUSMEIKIQENRV-DOLDNGAINA-O
     RDKit          3D

 46 48  0  0  0  0  0  0  0  0999 V2000
  143.3350   81.7843  222.5847 H   0  0  0  0  0  0  0  0  0  0  0  0
  142.7330   80.8660  222.5190 C   0  0  0  0  0  0  0  0  0  0  0  0
  142.6920   79.9800  223.5980 C   0  0  0  0  0  0  0  0  0  0  0  0
  143.2587   80.2036  224.5139 H   0  0  0  0  0  0  0  0  0  0  0  0
  141.9310   78.8080  223.5160 C   0  0  0  0  0  0  0  0  0  0  0  0
  141.9040   77.9570  224.5740 F   0  0  0  0  0  0  0  0  0  0  0  0
  141.2150   78.5120  222.3440 C   0  0  0  0  0  0  0  0  0  0  0  0
  140.3930   77.2850  222.2700 C   0  0  0  0  0  0  0  0  0  0  0  0
  139.0190   77.3080  222.5430 C   0  0  0  0  0  0  0  0  0  0  0  0
  138.0690   78.9220  222.9460 Br  0  0  0  0  0  0  0  0  0  0  0  0
  138.3280   76.1470  222.4850 N   0  0  0  0  0  0  0  0  0  0  0  0
  138.9250   75.0020  222.1620 N   0  0  0  0  0  0  0  0  0  0  0  0
  140.2530   74.9430  221.8580 C   0  0  0  0  0  0  0  0  0  0  0  0
  140.8030   73.7810  221.5340 N   0  0  0  0  0  0  0  0  0  0  0  0
  140.0170   72.5800  221.6980 C   0  0  0  0  0  0  0  0  0  0  0  0
  140.3160   71.7550  222.6030 O   0  0  0  0  0  0  0  0  0  0  0  0
  138.8610   72.2920  220.7930 C   0  0  0  0  0  0  0  0  0  0  0  0
  137.9689   72.0698  221.3970 H   0  0  0  0  0  0  0  0  0  0  0  0
  138.6649   73.1687  220.1583 H   0  0  0  0  0  0  0  0  0  0  0  0
  139.0992   71.4257  220.1583 H   0  0  0  0  0  0  0  0  0  0  0  0
  142.2310   73.6390  221.1340 C   0  0  0  0  0  0  0  0  0  0  0  0
  142.8558   73.8566  222.0128 H   0  0  0  0  0  0  0  0  0  0  0  0
  142.6510   74.6810  220.0590 C   0  0  0  0  0  0  0  0  0  0  0  0
  142.4640   74.2359  219.0706 H   0  0  0  0  0  0  0  0  0  0  0  0
  142.0543   75.5796  220.2745 H   0  0  0  0  0  0  0  0  0  0  0  0
  144.1220   75.1480  220.0930 C   0  0  0  0  0  0  0  0  0  0  0  0
  144.4182   75.4069  219.0657 H   0  0  0  0  0  0  0  0  0  0  0  0
  144.1511   75.9961  220.7930 H   0  0  0  0  0  0  0  0  0  0  0  0
  145.1350   74.1240  220.6330 C   0  0  0  0  0  0  0  0  0  0  0  0
  146.1513   74.4745  220.4003 H   0  0  0  0  0  0  0  0  0  0  0  0
  144.9805   74.0363  221.7186 H   0  0  0  0  0  0  0  0  0  0  0  0
  144.9380   72.7300  220.0140 C   0  0  0  0  0  0  0  0  0  0  0  0
  144.5131   72.8549  219.0071 H   0  0  0  0  0  0  0  0  0  0  0  0
  145.9251   72.2449  219.9983 H   0  0  0  0  0  0  0  0  0  0  0  0
  144.0060   71.8180  220.8220 C   0  0  0  0  0  0  0  0  0  0  0  0
  144.1408   70.7846  220.4700 H   0  0  0  0  0  0  0  0  0  0  0  0
  144.2766   71.9398  221.8812 H   0  0  0  0  0  0  0  0  0  0  0  0
  142.5180   72.1840  220.6940 C   0  0  0  0  0  0  0  0  0  0  0  0
  142.2138   72.0656  219.6436 H   0  0  0  0  0  0  0  0  0  0  0  0
  141.9488   71.5141  221.3552 H   0  0  0  0  0  0  0  0  0  0  0  0
  140.9820   76.1040  221.9300 N   0  0  0  0  0  0  0  0  0  0  0  0
  142.0130   76.1220  221.7880 H   0  0  0  0  0  0  0  0  0  0  0  0
  141.2480   79.4180  221.2670 C   0  0  0  0  0  0  0  0  0  0  0  0
  140.5260   79.1810  220.1430 F   0  0  0  0  0  0  0  0  0  0  0  0
  142.0100   80.5870  221.3560 C   0  0  0  0  0  0  0  0  0  0  0  0
  142.0404   81.2883  220.5091 H   0  0  0  0  0  0  0  0  0  0  0  0
  1  2  1  0
  2  3  2  0
  3  4  1  0
  3  5  1  0
  5  6  1  0
  5  7  2  0
  7  8  1  0
  8  9  2  0
  9 10  1  0
  9 11  1  0
 11 12  2  0
 12 13  1  0
 13 14  2  0
 14 15  1  0
 15 16  2  0
 15 17  1  0
 17 18  1  0
 17 19  1  0
 17 20  1  0
 14 21  1  0
 21 22  1  0
 21 23  1  0
 23 24  1  0
 23 25  1  0
 23 26  1  0
 26 27  1  0
 26 28  1  0
 26 29  1  0
 29 30  1  0
 29 31  1  0
 29 32  1  0
 32 33  1  0
 32 34  1  0
 32 35  1  0
 35 36  1  0
 35 37  1  0
 35 38  1  0
 38 39  1  0
 38 40  1  0
 13 41  1  0
 41 42  1  0
  7 43  1  0
 43 44  1  0
 43 45  2  0
 45 46  1  0
 45  2  1  0
 41  8  1  0
 38 21  1  0
M  CHG  1  14   1
M  END
>  <UniqueID>  (12) 
4

>  <SMILES>  (12) 
CC(=O)/[N+](=c1/nnc(Br)c(-c2c(F)cccc2F)[nH]1)C1CCCCCC1

>  <Energy>  (12) 
72.45715472952679

>  <Genealogy>  (12) 
CC(=O)[NH+](c1nnc(Br)c(-c2c(F)cccc2F)n1)C1CCCCCC1 (protonated)
CC(=O)[N+](=c1nnc(Br)c(-c2c(F)cccc2F)[nH]1)C1CCCCCC1 (tautomer)
CC(=O)/[N+](=c1/nnc(Br)c(-c2c(F)cccc2F)[nH]1)C1CCCCCC1 (cis-trans isomerization)
CC(=O)/[N+](=c1/nnc(Br)c(-c2c(F)cccc2F)[nH]1)C1CCCCCC1 (3D coordinates assigned)
CC(=O)/[N+](=c1/nnc(Br)c(-c2c(F)cccc2F)[nH]1)C1CCCCCC1 (nonaromatic ring conformer: 72.45715472952679 kcal/mol)

>  <smiles>  (12) 
CC(=O)N(c1nnc(Br)c(-c2c(F)cccc2F)n1)C1CCCCCC1

>  <score_type>  (12) 
oracle

>  <origin>  (12) 
autodockgpu

>  <m_score__min__energy>  (12) 
-5.2800000000000002

>  <m_primary>  (12) 
energy

>  <meeko>  (12) 
{"free_energy": -5.28, "intermolecular_energy": -7.96, "internal_energy": -1.18, "cluster_size": 5, "cluster_id": 1, "rank_in_cluster": 1}

>  <energy>  (12) 
-5.01

>  <cluster_rmsd>  (12) 
0.1

>  <rmsd>  (12) 
271.56

>  <cluster>  (12) 
3

$$$$
VCUSMEIKIQENRV-DOLDNGAINA-O
     RDKit          3D

 46 48  0  0  0  0  0  0  0  0999 V2000
  143.2671   82.1238  223.1231 H   0  0  0  0  0  0  0  0  0  0  0  0
  142.6410   81.2340  222.9610 C   0  0  0  0  0  0  0  0  0  0  0  0
  142.6630   80.1880  223.8860 C   0  0  0  0  0  0  0  0  0  0  0  0
  143.3024   80.2578  224.7783 H   0  0  0  0  0  0  0  0  0  0  0  0
  141.8730   79.0510  223.6800 C   0  0  0  0  0  0  0  0  0  0  0  0
  141.9080   78.0430  224.5880 F   0  0  0  0  0  0  0  0  0  0  0  0
  141.0620   78.9530  222.5350 C   0  0  0  0  0  0  0  0  0  0  0  0
  140.2110   77.7610  222.3330 C   0  0  0  0  0  0  0  0  0  0  0  0
  138.8280   77.8050  222.5580 C   0  0  0  0  0  0  0  0  0  0  0  0
  137.9080   79.4100  223.0560 Br  0  0  0  0  0  0  0  0  0  0  0  0
  138.1080   76.6730  222.3810 N   0  0  0  0  0  0  0  0  0  0  0  0
  138.6850   75.5410  221.9870 N   0  0  0  0  0  0  0  0  0  0  0  0
  140.0220   75.4650  221.7280 C   0  0  0  0  0  0  0  0  0  0  0  0
  140.5510   74.3170  221.3310 N   0  0  0  0  0  0  0  0  0  0  0  0
  140.1970   73.1130  222.0460 C   0  0  0  0  0  0  0  0  0  0  0  0
  141.0540   72.5370  222.7670 O   0  0  0  0  0  0  0  0  0  0  0  0
  138.8240   72.5290  221.9280 C   0  0  0  0  0  0  0  0  0  0  0  0
  138.4124   72.3539  222.9329 H   0  0  0  0  0  0  0  0  0  0  0  0
  138.1737   73.2284  221.3822 H   0  0  0  0  0  0  0  0  0  0  0  0
  138.8768   71.5754  221.3822 H   0  0  0  0  0  0  0  0  0  0  0  0
  141.5920   74.2240  220.2690 C   0  0  0  0  0  0  0  0  0  0  0  0
  141.8060   73.1597  220.0918 H   0  0  0  0  0  0  0  0  0  0  0  0
  142.9450   74.8510  220.7110 C   0  0  0  0  0  0  0  0  0  0  0  0
  142.9600   75.8943  220.3627 H   0  0  0  0  0  0  0  0  0  0  0  0
  142.9773   74.7351  221.8044 H   0  0  0  0  0  0  0  0  0  0  0  0
  144.2240   74.1630  220.1880 C   0  0  0  0  0  0  0  0  0  0  0  0
  145.0884   74.7463  220.5380 H   0  0  0  0  0  0  0  0  0  0  0  0
  144.1914   73.1348  220.5777 H   0  0  0  0  0  0  0  0  0  0  0  0
  144.3330   74.0280  218.6600 C   0  0  0  0  0  0  0  0  0  0  0  0
  145.3731   74.2241  218.3606 H   0  0  0  0  0  0  0  0  0  0  0  0
  144.0232   73.0080  218.3887 H   0  0  0  0  0  0  0  0  0  0  0  0
  143.4120   75.0120  217.9220 C   0  0  0  0  0  0  0  0  0  0  0  0
  143.3847   75.9534  218.4903 H   0  0  0  0  0  0  0  0  0  0  0  0
  143.8267   75.1405  216.9113 H   0  0  0  0  0  0  0  0  0  0  0  0
  141.9740   74.5090  217.7520 C   0  0  0  0  0  0  0  0  0  0  0  0
  141.5461   74.9784  216.8539 H   0  0  0  0  0  0  0  0  0  0  0  0
  142.0251   73.4132  217.6701 H   0  0  0  0  0  0  0  0  0  0  0  0
  141.0610   74.8270  218.9470 C   0  0  0  0  0  0  0  0  0  0  0  0
  140.9924   75.9191  219.0589 H   0  0  0  0  0  0  0  0  0  0  0  0
  140.0759   74.3809  218.7457 H   0  0  0  0  0  0  0  0  0  0  0  0
  140.7790   76.5940  221.9190 N   0  0  0  0  0  0  0  0  0  0  0  0
  141.8150   76.5920  221.8160 H   0  0  0  0  0  0  0  0  0  0  0  0
  141.0330   80.0190  221.6160 C   0  0  0  0  0  0  0  0  0  0  0  0
  140.2220   79.9720  220.5290 F   0  0  0  0  0  0  0  0  0  0  0  0
  141.8250   81.1520  221.8300 C   0  0  0  0  0  0  0  0  0  0  0  0
  141.8052   81.9801  221.1063 H   0  0  0  0  0  0  0  0  0  0  0  0
  1  2  1  0
  2  3  2  0
  3  4  1  0
  3  5  1  0
  5  6  1  0
  5  7  2  0
  7  8  1  0
  8  9  2  0
  9 10  1  0
  9 11  1  0
 11 12  2  0
 12 13  1  0
 13 14  2  0
 14 15  1  0
 15 16  2  0
 15 17  1  0
 17 18  1  0
 17 19  1  0
 17 20  1  0
 14 21  1  0
 21 22  1  0
 21 23  1  0
 23 24  1  0
 23 25  1  0
 23 26  1  0
 26 27  1  0
 26 28  1  0
 26 29  1  0
 29 30  1  0
 29 31  1  0
 29 32  1  0
 32 33  1  0
 32 34  1  0
 32 35  1  0
 35 36  1  0
 35 37  1  0
 35 38  1  0
 38 39  1  0
 38 40  1  0
 13 41  1  0
 41 42  1  0
  7 43  1  0
 43 44  1  0
 43 45  2  0
 45 46  1  0
 45  2  1  0
 41  8  1  0
 38 21  1  0
M  CHG  1  14   1
M  END
>  <UniqueID>  (13) 
4

>  <SMILES>  (13) 
CC(=O)/[N+](=c1/nnc(Br)c(-c2c(F)cccc2F)[nH]1)C1CCCCCC1

>  <Energy>  (13) 
72.45715472952679

>  <Genealogy>  (13) 
CC(=O)[NH+](c1nnc(Br)c(-c2c(F)cccc2F)n1)C1CCCCCC1 (protonated)
CC(=O)[N+](=c1nnc(Br)c(-c2c(F)cccc2F)[nH]1)C1CCCCCC1 (tautomer)
CC(=O)/[N+](=c1/nnc(Br)c(-c2c(F)cccc2F)[nH]1)C1CCCCCC1 (cis-trans isomerization)
CC(=O)/[N+](=c1/nnc(Br)c(-c2c(F)cccc2F)[nH]1)C1CCCCCC1 (3D coordinates assigned)
CC(=O)/[N+](=c1/nnc(Br)c(-c2c(F)cccc2F)[nH]1)C1CCCCCC1 (nonaromatic ring conformer: 72.45715472952679 kcal/mol)

>  <smiles>  (13) 
CC(=O)N(c1nnc(Br)c(-c2c(F)cccc2F)n1)C1CCCCCC1

>  <score_type>  (13) 
oracle

>  <origin>  (13) 
autodockgpu

>  <m_score__min__energy>  (13) 
-5.2800000000000002

>  <m_primary>  (13) 
energy

>  <meeko>  (13) 
{"free_energy": -4.66, "intermolecular_energy": -7.35, "internal_energy": -1.23, "cluster_size": 5, "cluster_id": 1, "rank_in_cluster": 5}

>  <energy>  (13) 
-4.85

>  <cluster_rmsd>  (13) 
0.34

>  <rmsd>  (13) 
271.62

>  <cluster>  (13) 
3

$$$$
VCUSMEIKIQENRV-DOLDNGAINA-O
     RDKit          3D

 46 48  0  0  0  0  0  0  0  0999 V2000
  140.4763   81.8443  224.6340 H   0  0  0  0  0  0  0  0  0  0  0  0
  140.7300   81.1400  223.8280 C   0  0  0  0  0  0  0  0  0  0  0  0
  139.7700   80.7970  222.8720 C   0  0  0  0  0  0  0  0  0  0  0  0
  138.7628   81.2361  222.9237 H   0  0  0  0  0  0  0  0  0  0  0  0
  140.0870   79.8970  221.8500 C   0  0  0  0  0  0  0  0  0  0  0  0
  139.1400   79.5730  220.9310 F   0  0  0  0  0  0  0  0  0  0  0  0
  141.3690   79.3240  221.7850 C   0  0  0  0  0  0  0  0  0  0  0  0
  141.7070   78.3910  220.6880 C   0  0  0  0  0  0  0  0  0  0  0  0
  141.9910   78.8540  219.3960 C   0  0  0  0  0  0  0  0  0  0  0  0
  142.0550   80.7170  218.9530 Br  0  0  0  0  0  0  0  0  0  0  0  0
  142.2670   77.9480  218.4300 N   0  0  0  0  0  0  0  0  0  0  0  0
  142.2860   76.6440  218.6910 N   0  0  0  0  0  0  0  0  0  0  0  0
  142.0470   76.1550  219.9420 C   0  0  0  0  0  0  0  0  0  0  0  0
  142.0840   74.8470  220.1550 N   0  0  0  0  0  0  0  0  0  0  0  0
  140.9800   74.2340  220.8560 C   0  0  0  0  0  0  0  0  0  0  0  0
  141.1450   73.7950  222.0250 O   0  0  0  0  0  0  0  0  0  0  0  0
  139.6410   74.0950  220.2010 C   0  0  0  0  0  0  0  0  0  0  0  0
  138.8617   74.0141  220.9731 H   0  0  0  0  0  0  0  0  0  0  0  0
  139.4460   74.9777  219.5743 H   0  0  0  0  0  0  0  0  0  0  0  0
  139.6315   73.1910  219.5743 H   0  0  0  0  0  0  0  0  0  0  0  0
  143.2650   74.0010  219.8260 C   0  0  0  0  0  0  0  0  0  0  0  0
  143.6114   74.2739  218.8183 H   0  0  0  0  0  0  0  0  0  0  0  0
  142.9060   72.4900  219.7460 C   0  0  0  0  0  0  0  0  0  0  0  0
  143.1017   72.0468  220.7335 H   0  0  0  0  0  0  0  0  0  0  0  0
  141.8522   72.4562  219.4323 H   0  0  0  0  0  0  0  0  0  0  0  0
  143.6730   71.6570  218.6970 C   0  0  0  0  0  0  0  0  0  0  0  0
  143.4982   70.5934  218.9167 H   0  0  0  0  0  0  0  0  0  0  0  0
  143.2881   71.9800  217.7185 H   0  0  0  0  0  0  0  0  0  0  0  0
  145.1940   71.8850  218.6450 C   0  0  0  0  0  0  0  0  0  0  0  0
  145.6779   70.9623  218.2923 H   0  0  0  0  0  0  0  0  0  0  0  0
  145.3845   72.7258  217.9618 H   0  0  0  0  0  0  0  0  0  0  0  0
  145.7760   72.2540  220.0160 C   0  0  0  0  0  0  0  0  0  0  0  0
  145.1829   71.7478  220.7919 H   0  0  0  0  0  0  0  0  0  0  0  0
  146.8283   71.9336  220.0135 H   0  0  0  0  0  0  0  0  0  0  0  0
  145.7690   73.7600  220.3080 C   0  0  0  0  0  0  0  0  0  0  0  0
  146.5331   73.9690  221.0712 H   0  0  0  0  0  0  0  0  0  0  0  0
  145.9739   74.2721  219.3563 H   0  0  0  0  0  0  0  0  0  0  0  0
  144.4180   74.2860  220.8180 C   0  0  0  0  0  0  0  0  0  0  0  0
  144.1880   73.7991  221.7772 H   0  0  0  0  0  0  0  0  0  0  0  0
  144.5026   75.3769  220.9316 H   0  0  0  0  0  0  0  0  0  0  0  0
  141.7440   77.0510  220.9350 N   0  0  0  0  0  0  0  0  0  0  0  0
  141.4740   76.7470  221.8940 H   0  0  0  0  0  0  0  0  0  0  0  0
  142.3360   79.6860  222.7410 C   0  0  0  0  0  0  0  0  0  0  0  0
  143.5960   79.1870  222.6720 F   0  0  0  0  0  0  0  0  0  0  0  0
  142.0130   80.5880  223.7600 C   0  0  0  0  0  0  0  0  0  0  0  0
  142.7697   80.8637  224.5093 H   0  0  0  0  0  0  0  0  0  0  0  0
  1  2  1  0
  2  3  2  0
  3  4  1  0
  3  5  1  0
  5  6  1  0
  5  7  2  0
  7  8  1  0
  8  9  2  0
  9 10  1  0
  9 11  1  0
 11 12  2  0
 12 13  1  0
 13 14  2  0
 14 15  1  0
 15 16  2  0
 15 17  1  0
 17 18  1  0
 17 19  1  0
 17 20  1  0
 14 21  1  0
 21 22  1  0
 21 23  1  0
 23 24  1  0
 23 25  1  0
 23 26  1  0
 26 27  1  0
 26 28  1  0
 26 29  1  0
 29 30  1  0
 29 31  1  0
 29 32  1  0
 32 33  1  0
 32 34  1  0
 32 35  1  0
 35 36  1  0
 35 37  1  0
 35 38  1  0
 38 39  1  0
 38 40  1  0
 13 41  1  0
 41 42  1  0
  7 43  1  0
 43 44  1  0
 43 45  2  0
 45 46  1  0
 45  2  1  0
 41  8  1  0
 38 21  1  0
M  CHG  1  14   1
M  END
>  <UniqueID>  (14) 
4

>  <SMILES>  (14) 
CC(=O)/[N+](=c1/nnc(Br)c(-c2c(F)cccc2F)[nH]1)C1CCCCCC1

>  <Energy>  (14) 
72.45715472952679

>  <Genealogy>  (14) 
CC(=O)[NH+](c1nnc(Br)c(-c2c(F)cccc2F)n1)C1CCCCCC1 (protonated)
CC(=O)[N+](=c1nnc(Br)c(-c2c(F)cccc2F)[nH]1)C1CCCCCC1 (tautomer)
CC(=O)/[N+](=c1/nnc(Br)c(-c2c(F)cccc2F)[nH]1)C1CCCCCC1 (cis-trans isomerization)
CC(=O)/[N+](=c1/nnc(Br)c(-c2c(F)cccc2F)[nH]1)C1CCCCCC1 (3D coordinates assigned)
CC(=O)/[N+](=c1/nnc(Br)c(-c2c(F)cccc2F)[nH]1)C1CCCCCC1 (nonaromatic ring conformer: 72.45715472952679 kcal/mol)

>  <smiles>  (14) 
CC(=O)N(c1nnc(Br)c(-c2c(F)cccc2F)n1)C1CCCCCC1

>  <score_type>  (14) 
oracle

>  <origin>  (14) 
autodockgpu

>  <m_score__min__energy>  (14) 
-5.2800000000000002

>  <m_primary>  (14) 
energy

>  <meeko>  (14) 
{"free_energy": -4.4, "intermolecular_energy": -7.08, "internal_energy": -1.29, "cluster_size": 5, "cluster_id": 2, "rank_in_cluster": 5}

>  <energy>  (14) 
-4.49

>  <cluster_rmsd>  (14) 
0.48

>  <rmsd>  (14) 
271.65

>  <cluster>  (14) 
3

$$$$
VCUSMEIKIQENRV-DOLDNGAINA-O
     RDKit          3D

 46 48  0  0  0  0  0  0  0  0999 V2000
  145.0176   71.0856  220.8990 H   0  0  0  0  0  0  0  0  0  0  0  0
  144.4880   72.0300  220.7050 C   0  0  0  0  0  0  0  0  0  0  0  0
  143.1150   72.0200  220.4490 C   0  0  0  0  0  0  0  0  0  0  0  0
  142.5640   71.0679  220.4471 H   0  0  0  0  0  0  0  0  0  0  0  0
  142.4390   73.2180  220.1950 C   0  0  0  0  0  0  0  0  0  0  0  0
  141.1050   73.1900  219.9460 F   0  0  0  0  0  0  0  0  0  0  0  0
  143.1410   74.4360  220.1860 C   0  0  0  0  0  0  0  0  0  0  0  0
  142.4180   75.7030  219.9420 C   0  0  0  0  0  0  0  0  0  0  0  0
  142.4810   76.3530  218.7010 C   0  0  0  0  0  0  0  0  0  0  0  0
  143.4240   75.6300  217.1980 Br  0  0  0  0  0  0  0  0  0  0  0  0
  141.8180   77.5230  218.5490 N   0  0  0  0  0  0  0  0  0  0  0  0
  141.1060   78.0480  219.5430 N   0  0  0  0  0  0  0  0  0  0  0  0
  140.9930   77.4310  220.7550 C   0  0  0  0  0  0  0  0  0  0  0  0
  140.2670   77.9890  221.7120 N   0  0  0  0  0  0  0  0  0  0  0  0
  138.8850   77.5890  221.8470 C   0  0  0  0  0  0  0  0  0  0  0  0
  137.9670   78.3980  221.5450 O   0  0  0  0  0  0  0  0  0  0  0  0
  138.5280   76.2290  222.3590 C   0  0  0  0  0  0  0  0  0  0  0  0
  138.5306   76.2390  223.4589 H   0  0  0  0  0  0  0  0  0  0  0  0
  137.5268   75.9522  221.9972 H   0  0  0  0  0  0  0  0  0  0  0  0
  139.2642   75.4961  221.9972 H   0  0  0  0  0  0  0  0  0  0  0  0
  140.7650   79.0990  222.5710 C   0  0  0  0  0  0  0  0  0  0  0  0
  139.9953   79.3196  223.3252 H   0  0  0  0  0  0  0  0  0  0  0  0
  140.9580   80.4220  221.7750 C   0  0  0  0  0  0  0  0  0  0  0  0
  141.8494   80.3043  221.1413 H   0  0  0  0  0  0  0  0  0  0  0  0
  140.0200   80.5681  221.2193 H   0  0  0  0  0  0  0  0  0  0  0  0
  141.1430   81.7060  222.6120 C   0  0  0  0  0  0  0  0  0  0  0  0
  141.7433   82.4120  222.0194 H   0  0  0  0  0  0  0  0  0  0  0  0
  140.1281   82.0642  222.8393 H   0  0  0  0  0  0  0  0  0  0  0  0
  141.8370   81.5220  223.9730 C   0  0  0  0  0  0  0  0  0  0  0  0
  141.9431   82.5065  224.4521 H   0  0  0  0  0  0  0  0  0  0  0  0
  141.2162   80.8456  224.5788 H   0  0  0  0  0  0  0  0  0  0  0  0
  143.2280   80.8870  223.8360 C   0  0  0  0  0  0  0  0  0  0  0  0
  143.8929   81.6117  223.3434 H   0  0  0  0  0  0  0  0  0  0  0  0
  143.5636   80.6295  224.8514 H   0  0  0  0  0  0  0  0  0  0  0  0
  143.2390   79.5890  223.0200 C   0  0  0  0  0  0  0  0  0  0  0  0
  143.2181   79.8504  221.9517 H   0  0  0  0  0  0  0  0  0  0  0  0
  144.1505   79.0410  223.3007 H   0  0  0  0  0  0  0  0  0  0  0  0
  142.0490   78.6620  223.3160 C   0  0  0  0  0  0  0  0  0  0  0  0
  142.3097   77.6404  223.0023 H   0  0  0  0  0  0  0  0  0  0  0  0
  141.8448   78.7107  224.3958 H   0  0  0  0  0  0  0  0  0  0  0  0
  141.6730   76.2530  220.9420 N   0  0  0  0  0  0  0  0  0  0  0  0
  141.6970   75.7660  221.8620 H   0  0  0  0  0  0  0  0  0  0  0  0
  144.5210   74.4410  220.4620 C   0  0  0  0  0  0  0  0  0  0  0  0
  145.2120   75.6080  220.5090 F   0  0  0  0  0  0  0  0  0  0  0  0
  145.1900   73.2390  220.7150 C   0  0  0  0  0  0  0  0  0  0  0  0
  146.2703   73.2450  220.9222 H   0  0  0  0  0  0  0  0  0  0  0  0
  1  2  1  0
  2  3  2  0
  3  4  1  0
  3  5  1  0
  5  6  1  0
  5  7  2  0
  7  8  1  0
  8  9  2  0
  9 10  1  0
  9 11  1  0
 11 12  2  0
 12 13  1  0
 13 14  2  0
 14 15  1  0
 15 16  2  0
 15 17  1  0
 17 18  1  0
 17 19  1  0
 17 20  1  0
 14 21  1  0
 21 22  1  0
 21 23  1  0
 23 24  1  0
 23 25  1  0
 23 26  1  0
 26 27  1  0
 26 28  1  0
 26 29  1  0
 29 30  1  0
 29 31  1  0
 29 32  1  0
 32 33  1  0
 32 34  1  0
 32 35  1  0
 35 36  1  0
 35 37  1  0
 35 38  1  0
 38 39  1  0
 38 40  1  0
 13 41  1  0
 41 42  1  0
  7 43  1  0
 43 44  1  0
 43 45  2  0
 45 46  1  0
 45  2  1  0
 41  8  1  0
 38 21  1  0
M  CHG  1  14   1
M  END
>  <UniqueID>  (15) 
4

>  <SMILES>  (15) 
CC(=O)/[N+](=c1/nnc(Br)c(-c2c(F)cccc2F)[nH]1)C1CCCCCC1

>  <Energy>  (15) 
72.45715472952679

>  <Genealogy>  (15) 
CC(=O)[NH+](c1nnc(Br)c(-c2c(F)cccc2F)n1)C1CCCCCC1 (protonated)
CC(=O)[N+](=c1nnc(Br)c(-c2c(F)cccc2F)[nH]1)C1CCCCCC1 (tautomer)
CC(=O)/[N+](=c1/nnc(Br)c(-c2c(F)cccc2F)[nH]1)C1CCCCCC1 (cis-trans isomerization)
CC(=O)/[N+](=c1/nnc(Br)c(-c2c(F)cccc2F)[nH]1)C1CCCCCC1 (3D coordinates assigned)
CC(=O)/[N+](=c1/nnc(Br)c(-c2c(F)cccc2F)[nH]1)C1CCCCCC1 (nonaromatic ring conformer: 72.45715472952679 kcal/mol)

>  <smiles>  (15) 
CC(=O)N(c1nnc(Br)c(-c2c(F)cccc2F)n1)C1CCCCCC1

>  <score_type>  (15) 
oracle

>  <origin>  (15) 
autodockgpu

>  <m_score__min__energy>  (15) 
-5.2800000000000002

>  <m_primary>  (15) 
energy

>  <meeko>  (15) 
{"free_energy": -4.44, "intermolecular_energy": -7.13, "internal_energy": -1.36, "cluster_size": 2, "cluster_id": 5, "rank_in_cluster": 2}

>  <energy>  (15) 
-4.99

>  <cluster_rmsd>  (15) 
0.0

>  <rmsd>  (15) 
271.95

>  <cluster>  (15) 
4

$$$$
VCUSMEIKIQENRV-DOLDNGAINA-O
     RDKit          3D

 46 48  0  0  0  0  0  0  0  0999 V2000
  141.3886   82.3359  224.7668 H   0  0  0  0  0  0  0  0  0  0  0  0
  141.4400   81.5730  223.9760 C   0  0  0  0  0  0  0  0  0  0  0  0
  140.3740   81.4170  223.0860 C   0  0  0  0  0  0  0  0  0  0  0  0
  139.4867   82.0612  223.1740 H   0  0  0  0  0  0  0  0  0  0  0  0
  140.4330   80.4430  222.0830 C   0  0  0  0  0  0  0  0  0  0  0  0
  139.3870   80.3040  221.2290 F   0  0  0  0  0  0  0  0  0  0  0  0
  141.5610   79.6110  221.9730 C   0  0  0  0  0  0  0  0  0  0  0  0
  141.6290   78.6000  220.8960 C   0  0  0  0  0  0  0  0  0  0  0  0
  141.7410   78.9730  219.5490 C   0  0  0  0  0  0  0  0  0  0  0  0
  141.9010   80.7980  218.9880 Br  0  0  0  0  0  0  0  0  0  0  0  0
  141.7720   78.0000  218.6090 N   0  0  0  0  0  0  0  0  0  0  0  0
  141.7150   76.7140  218.9420 N   0  0  0  0  0  0  0  0  0  0  0  0
  141.6380   76.3090  220.2430 C   0  0  0  0  0  0  0  0  0  0  0  0
  141.5900   75.0150  220.5280 N   0  0  0  0  0  0  0  0  0  0  0  0
  140.3780   74.4830  221.1070 C   0  0  0  0  0  0  0  0  0  0  0  0
  140.3710   74.1070  222.3090 O   0  0  0  0  0  0  0  0  0  0  0  0
  139.1310   74.3560  220.2890 C   0  0  0  0  0  0  0  0  0  0  0  0
  138.2616   74.2675  220.9571 H   0  0  0  0  0  0  0  0  0  0  0  0
  139.0164   75.2471  219.6544 H   0  0  0  0  0  0  0  0  0  0  0  0
  139.1984   73.4601  219.6544 H   0  0  0  0  0  0  0  0  0  0  0  0
  142.7660   74.1090  220.4020 C   0  0  0  0  0  0  0  0  0  0  0  0
  142.9364   73.6323  221.3786 H   0  0  0  0  0  0  0  0  0  0  0  0
  144.0780   74.8830  220.0830 C   0  0  0  0  0  0  0  0  0  0  0  0
  144.1300   75.0183  218.9926 H   0  0  0  0  0  0  0  0  0  0  0  0
  144.0112   75.8198  220.6557 H   0  0  0  0  0  0  0  0  0  0  0  0
  145.3950   74.2180  220.5370 C   0  0  0  0  0  0  0  0  0  0  0  0
  146.2280   74.7665  220.0730 H   0  0  0  0  0  0  0  0  0  0  0  0
  145.3894   74.2615  221.6361 H   0  0  0  0  0  0  0  0  0  0  0  0
  145.5500   72.7300  220.1770 C   0  0  0  0  0  0  0  0  0  0  0  0
  145.6001   72.6336  219.0824 H   0  0  0  0  0  0  0  0  0  0  0  0
  146.4702   72.3610  220.6536 H   0  0  0  0  0  0  0  0  0  0  0  0
  144.3760   71.8820  220.6960 C   0  0  0  0  0  0  0  0  0  0  0  0
  144.7606   70.8882  220.9687 H   0  0  0  0  0  0  0  0  0  0  0  0
  143.9489   72.4199  221.5552 H   0  0  0  0  0  0  0  0  0  0  0  0
  143.2440   71.6990  219.6780 C   0  0  0  0  0  0  0  0  0  0  0  0
  143.6785   71.3248  218.7393 H   0  0  0  0  0  0  0  0  0  0  0  0
  142.5260   70.9924  220.1198 H   0  0  0  0  0  0  0  0  0  0  0  0
  142.4710   72.9920  219.3730 C   0  0  0  0  0  0  0  0  0  0  0  0
  142.7578   73.3480  218.3725 H   0  0  0  0  0  0  0  0  0  0  0  0
  141.3966   72.7619  219.4248 H   0  0  0  0  0  0  0  0  0  0  0  0
  141.5840   77.2760  221.2150 N   0  0  0  0  0  0  0  0  0  0  0  0
  141.4470   77.0440  222.2210 H   0  0  0  0  0  0  0  0  0  0  0  0
  142.6380   79.7850  222.8620 C   0  0  0  0  0  0  0  0  0  0  0  0
  143.7580   79.0280  222.7460 F   0  0  0  0  0  0  0  0  0  0  0  0
  142.5720   80.7600  223.8620 C   0  0  0  0  0  0  0  0  0  0  0  0
  143.4122   80.8878  224.5604 H   0  0  0  0  0  0  0  0  0  0  0  0
  1  2  1  0
  2  3  2  0
  3  4  1  0
  3  5  1  0
  5  6  1  0
  5  7  2  0
  7  8  1  0
  8  9  2  0
  9 10  1  0
  9 11  1  0
 11 12  2  0
 12 13  1  0
 13 14  2  0
 14 15  1  0
 15 16  2  0
 15 17  1  0
 17 18  1  0
 17 19  1  0
 17 20  1  0
 14 21  1  0
 21 22  1  0
 21 23  1  0
 23 24  1  0
 23 25  1  0
 23 26  1  0
 26 27  1  0
 26 28  1  0
 26 29  1  0
 29 30  1  0
 29 31  1  0
 29 32  1  0
 32 33  1  0
 32 34  1  0
 32 35  1  0
 35 36  1  0
 35 37  1  0
 35 38  1  0
 38 39  1  0
 38 40  1  0
 13 41  1  0
 41 42  1  0
  7 43  1  0
 43 44  1  0
 43 45  2  0
 45 46  1  0
 45  2  1  0
 41  8  1  0
 38 21  1  0
M  CHG  1  14   1
M  END
>  <UniqueID>  (16) 
4

>  <SMILES>  (16) 
CC(=O)/[N+](=c1/nnc(Br)c(-c2c(F)cccc2F)[nH]1)C1CCCCCC1

>  <Energy>  (16) 
72.45715472952679

>  <Genealogy>  (16) 
CC(=O)[NH+](c1nnc(Br)c(-c2c(F)cccc2F)n1)C1CCCCCC1 (protonated)
CC(=O)[N+](=c1nnc(Br)c(-c2c(F)cccc2F)[nH]1)C1CCCCCC1 (tautomer)
CC(=O)/[N+](=c1/nnc(Br)c(-c2c(F)cccc2F)[nH]1)C1CCCCCC1 (cis-trans isomerization)
CC(=O)/[N+](=c1/nnc(Br)c(-c2c(F)cccc2F)[nH]1)C1CCCCCC1 (3D coordinates assigned)
CC(=O)/[N+](=c1/nnc(Br)c(-c2c(F)cccc2F)[nH]1)C1CCCCCC1 (nonaromatic ring conformer: 72.45715472952679 kcal/mol)

>  <smiles>  (16) 
CC(=O)N(c1nnc(Br)c(-c2c(F)cccc2F)n1)C1CCCCCC1

>  <score_type>  (16) 
oracle

>  <origin>  (16) 
autodockgpu

>  <m_score__min__energy>  (16) 
-5.2800000000000002

>  <m_primary>  (16) 
energy

>  <meeko>  (16) 
{"free_energy": -4.78, "intermolecular_energy": -7.46, "internal_energy": -1.3, "cluster_size": 5, "cluster_id": 2, "rank_in_cluster": 4}

>  <energy>  (16) 
-4.65

>  <cluster_rmsd>  (16) 
1.23

>  <rmsd>  (16) 
271.64

>  <cluster>  (16) 
4

$$$$
VCUSMEIKIQENRV-DOLDNGAINA-O
     RDKit          3D

 46 48  0  0  0  0  0  0  0  0999 V2000
  144.8355   74.1585  216.6356 H   0  0  0  0  0  0  0  0  0  0  0  0
  144.0870   74.2950  217.4300 C   0  0  0  0  0  0  0  0  0  0  0  0
  142.7920   74.7050  217.1050 C   0  0  0  0  0  0  0  0  0  0  0  0
  142.5209   74.8859  216.0544 H   0  0  0  0  0  0  0  0  0  0  0  0
  141.8390   74.8860  218.1130 C   0  0  0  0  0  0  0  0  0  0  0  0
  140.5850   75.2870  217.7800 F   0  0  0  0  0  0  0  0  0  0  0  0
  142.1840   74.6660  219.4580 C   0  0  0  0  0  0  0  0  0  0  0  0
  141.1660   74.8350  220.5190 C   0  0  0  0  0  0  0  0  0  0  0  0
  140.7080   73.7450  221.2710 C   0  0  0  0  0  0  0  0  0  0  0  0
  141.4060   71.9730  221.0630 Br  0  0  0  0  0  0  0  0  0  0  0  0
  139.7560   73.9610  222.2090 N   0  0  0  0  0  0  0  0  0  0  0  0
  139.2700   75.1790  222.4320 N   0  0  0  0  0  0  0  0  0  0  0  0
  139.7120   76.2700  221.7430 C   0  0  0  0  0  0  0  0  0  0  0  0
  139.2030   77.4650  222.0060 N   0  0  0  0  0  0  0  0  0  0  0  0
  137.8010   77.6880  221.7380 C   0  0  0  0  0  0  0  0  0  0  0  0
  137.4560   78.4430  220.7900 O   0  0  0  0  0  0  0  0  0  0  0  0
  136.7480   77.0460  222.5860 C   0  0  0  0  0  0  0  0  0  0  0  0
  136.9917   77.1946  223.6483 H   0  0  0  0  0  0  0  0  0  0  0  0
  135.7716   77.5026  222.3665 H   0  0  0  0  0  0  0  0  0  0  0  0
  136.7067   75.9689  222.3665 H   0  0  0  0  0  0  0  0  0  0  0  0
  140.0300   78.6260  222.4390 C   0  0  0  0  0  0  0  0  0  0  0  0
  140.2280   79.2529  221.5571 H   0  0  0  0  0  0  0  0  0  0  0  0
  141.4290   78.1940  222.9620 C   0  0  0  0  0  0  0  0  0  0  0  0
  141.3104   77.8706  224.0067 H   0  0  0  0  0  0  0  0  0  0  0  0
  141.7659   77.4034  222.2754 H   0  0  0  0  0  0  0  0  0  0  0  0
  142.5370   79.2670  222.9260 C   0  0  0  0  0  0  0  0  0  0  0  0
  143.3830   78.8994  223.5253 H   0  0  0  0  0  0  0  0  0  0  0  0
  142.7751   79.4164  221.8625 H   0  0  0  0  0  0  0  0  0  0  0  0
  142.1420   80.6530  223.4660 C   0  0  0  0  0  0  0  0  0  0  0  0
  141.8710   80.5555  224.5276 H   0  0  0  0  0  0  0  0  0  0  0  0
  143.0024   81.3252  223.3326 H   0  0  0  0  0  0  0  0  0  0  0  0
  140.9500   81.2550  222.7040 C   0  0  0  0  0  0  0  0  0  0  0  0
  141.0899   82.3445  222.6463 H   0  0  0  0  0  0  0  0  0  0  0  0
  140.9310   80.7796  221.7122 H   0  0  0  0  0  0  0  0  0  0  0  0
  139.5910   80.9760  223.3590 C   0  0  0  0  0  0  0  0  0  0  0  0
  139.6002   81.4032  224.3726 H   0  0  0  0  0  0  0  0  0  0  0  0
  138.8251   81.4344  222.7161 H   0  0  0  0  0  0  0  0  0  0  0  0
  139.2500   79.4820  223.4660 C   0  0  0  0  0  0  0  0  0  0  0  0
  139.5000   79.1339  224.4791 H   0  0  0  0  0  0  0  0  0  0  0  0
  138.1768   79.3660  223.2545 H   0  0  0  0  0  0  0  0  0  0  0  0
  140.6620   76.0750  220.7720 N   0  0  0  0  0  0  0  0  0  0  0  0
  140.9910   76.8470  220.1550 H   0  0  0  0  0  0  0  0  0  0  0  0
  143.4860   74.2370  219.7770 C   0  0  0  0  0  0  0  0  0  0  0  0
  143.8300   73.9700  221.0620 F   0  0  0  0  0  0  0  0  0  0  0  0
  144.4330   74.0580  218.7630 C   0  0  0  0  0  0  0  0  0  0  0  0
  145.4521   73.7300  219.0155 H   0  0  0  0  0  0  0  0  0  0  0  0
  1  2  1  0
  2  3  2  0
  3  4  1  0
  3  5  1  0
  5  6  1  0
  5  7  2  0
  7  8  1  0
  8  9  2  0
  9 10  1  0
  9 11  1  0
 11 12  2  0
 12 13  1  0
 13 14  2  0
 14 15  1  0
 15 16  2  0
 15 17  1  0
 17 18  1  0
 17 19  1  0
 17 20  1  0
 14 21  1  0
 21 22  1  0
 21 23  1  0
 23 24  1  0
 23 25  1  0
 23 26  1  0
 26 27  1  0
 26 28  1  0
 26 29  1  0
 29 30  1  0
 29 31  1  0
 29 32  1  0
 32 33  1  0
 32 34  1  0
 32 35  1  0
 35 36  1  0
 35 37  1  0
 35 38  1  0
 38 39  1  0
 38 40  1  0
 13 41  1  0
 41 42  1  0
  7 43  1  0
 43 44  1  0
 43 45  2  0
 45 46  1  0
 45  2  1  0
 41  8  1  0
 38 21  1  0
M  CHG  1  14   1
M  END
>  <UniqueID>  (17) 
4

>  <SMILES>  (17) 
CC(=O)/[N+](=c1/nnc(Br)c(-c2c(F)cccc2F)[nH]1)C1CCCCCC1

>  <Energy>  (17) 
72.45715472952679

>  <Genealogy>  (17) 
CC(=O)[NH+](c1nnc(Br)c(-c2c(F)cccc2F)n1)C1CCCCCC1 (protonated)
CC(=O)[N+](=c1nnc(Br)c(-c2c(F)cccc2F)[nH]1)C1CCCCCC1 (tautomer)
CC(=O)/[N+](=c1/nnc(Br)c(-c2c(F)cccc2F)[nH]1)C1CCCCCC1 (cis-trans isomerization)
CC(=O)/[N+](=c1/nnc(Br)c(-c2c(F)cccc2F)[nH]1)C1CCCCCC1 (3D coordinates assigned)
CC(=O)/[N+](=c1/nnc(Br)c(-c2c(F)cccc2F)[nH]1)C1CCCCCC1 (nonaromatic ring conformer: 72.45715472952679 kcal/mol)

>  <smiles>  (17) 
CC(=O)N(c1nnc(Br)c(-c2c(F)cccc2F)n1)C1CCCCCC1

>  <score_type>  (17) 
oracle

>  <origin>  (17) 
autodockgpu

>  <m_score__min__energy>  (17) 
-5.2800000000000002

>  <m_primary>  (17) 
energy

>  <meeko>  (17) 
{"free_energy": -4.46, "intermolecular_energy": -7.15, "internal_energy": -1.2, "cluster_size": 3, "cluster_id": 4, "rank_in_cluster": 3}

>  <energy>  (17) 
-4.46

>  <cluster_rmsd>  (17) 
1.63

>  <rmsd>  (17) 
271.36

>  <cluster>  (17) 
4

$$$$
VCUSMEIKIQENRV-DOLDNGAINA-O
     RDKit          3D

 46 48  0  0  0  0  0  0  0  0999 V2000
  143.4588   81.6649  222.4154 H   0  0  0  0  0  0  0  0  0  0  0  0
  142.8300   80.7630  222.3810 C   0  0  0  0  0  0  0  0  0  0  0  0
  142.1450   80.4340  221.2090 C   0  0  0  0  0  0  0  0  0  0  0  0
  142.2394   81.0750  220.3200 H   0  0  0  0  0  0  0  0  0  0  0  0
  141.3390   79.2910  221.1630 C   0  0  0  0  0  0  0  0  0  0  0  0
  140.6790   78.9870  220.0160 F   0  0  0  0  0  0  0  0  0  0  0  0
  141.2070   78.4740  222.3000 C   0  0  0  0  0  0  0  0  0  0  0  0
  140.3740   77.2540  222.2400 C   0  0  0  0  0  0  0  0  0  0  0  0
  138.9880   77.3040  222.4420 C   0  0  0  0  0  0  0  0  0  0  0  0
  138.0400   78.9450  222.7270 Br  0  0  0  0  0  0  0  0  0  0  0  0
  138.2850   76.1490  222.4010 N   0  0  0  0  0  0  0  0  0  0  0  0
  138.8820   74.9850  222.1580 N   0  0  0  0  0  0  0  0  0  0  0  0
  140.2240   74.8980  221.9230 C   0  0  0  0  0  0  0  0  0  0  0  0
  140.7730   73.7170  221.6780 N   0  0  0  0  0  0  0  0  0  0  0  0
  140.0130   72.5280  221.9870 C   0  0  0  0  0  0  0  0  0  0  0  0
  140.3660   71.7910  222.9460 O   0  0  0  0  0  0  0  0  0  0  0  0
  138.8190   72.1490  221.1690 C   0  0  0  0  0  0  0  0  0  0  0  0
  137.9859   71.8846  221.8369 H   0  0  0  0  0  0  0  0  0  0  0  0
  138.5249   72.9979  220.5344 H   0  0  0  0  0  0  0  0  0  0  0  0
  139.0683   71.2858  220.5344 H   0  0  0  0  0  0  0  0  0  0  0  0
  142.1820   73.5530  221.2240 C   0  0  0  0  0  0  0  0  0  0  0  0
  142.8436   73.7952  222.0688 H   0  0  0  0  0  0  0  0  0  0  0  0
  142.5620   74.5570  220.0980 C   0  0  0  0  0  0  0  0  0  0  0  0
  142.4112   74.0506  219.1332 H   0  0  0  0  0  0  0  0  0  0  0  0
  141.9170   75.4335  220.2583 H   0  0  0  0  0  0  0  0  0  0  0  0
  144.0060   75.1010  220.1220 C   0  0  0  0  0  0  0  0  0  0  0  0
  144.1340   75.7578  219.2489 H   0  0  0  0  0  0  0  0  0  0  0  0
  144.1160   75.6155  221.0880 H   0  0  0  0  0  0  0  0  0  0  0  0
  145.1200   74.0410  220.0830 C   0  0  0  0  0  0  0  0  0  0  0  0
  145.1737   73.6208  219.0678 H   0  0  0  0  0  0  0  0  0  0  0  0
  146.0634   74.5322  220.3635 H   0  0  0  0  0  0  0  0  0  0  0  0
  144.8690   72.8980  221.0790 C   0  0  0  0  0  0  0  0  0  0  0  0
  145.8353   72.4337  221.3255 H   0  0  0  0  0  0  0  0  0  0  0  0
  144.3792   73.3402  221.9591 H   0  0  0  0  0  0  0  0  0  0  0  0
  143.9310   71.8090  220.5440 C   0  0  0  0  0  0  0  0  0  0  0  0
  144.0735   71.7321  219.4560 H   0  0  0  0  0  0  0  0  0  0  0  0
  144.1889   70.8773  221.0688 H   0  0  0  0  0  0  0  0  0  0  0  0
  142.4440   72.0820  220.8200 C   0  0  0  0  0  0  0  0  0  0  0  0
  141.8682   71.8571  219.9101 H   0  0  0  0  0  0  0  0  0  0  0  0
  142.1346   71.4422  221.6596 H   0  0  0  0  0  0  0  0  0  0  0  0
  140.9630   76.0530  221.9810 N   0  0  0  0  0  0  0  0  0  0  0  0
  142.0000   76.0530  221.8890 H   0  0  0  0  0  0  0  0  0  0  0  0
  141.9130   78.8030  223.4720 C   0  0  0  0  0  0  0  0  0  0  0  0
  141.8420   78.0050  224.5680 F   0  0  0  0  0  0  0  0  0  0  0  0
  142.7170   79.9470  223.5100 C   0  0  0  0  0  0  0  0  0  0  0  0
  143.2614   80.2049  224.4304 H   0  0  0  0  0  0  0  0  0  0  0  0
  1  2  1  0
  2  3  2  0
  3  4  1  0
  3  5  1  0
  5  6  1  0
  5  7  2  0
  7  8  1  0
  8  9  2  0
  9 10  1  0
  9 11  1  0
 11 12  2  0
 12 13  1  0
 13 14  2  0
 14 15  1  0
 15 16  2  0
 15 17  1  0
 17 18  1  0
 17 19  1  0
 17 20  1  0
 14 21  1  0
 21 22  1  0
 21 23  1  0
 23 24  1  0
 23 25  1  0
 23 26  1  0
 26 27  1  0
 26 28  1  0
 26 29  1  0
 29 30  1  0
 29 31  1  0
 29 32  1  0
 32 33  1  0
 32 34  1  0
 32 35  1  0
 35 36  1  0
 35 37  1  0
 35 38  1  0
 38 39  1  0
 38 40  1  0
 13 41  1  0
 41 42  1  0
  7 43  1  0
 43 44  1  0
 43 45  2  0
 45 46  1  0
 45  2  1  0
 41  8  1  0
 38 21  1  0
M  CHG  1  14   1
M  END
>  <UniqueID>  (18) 
4

>  <SMILES>  (18) 
CC(=O)/[N+](=c1/nnc(Br)c(-c2c(F)cccc2F)[nH]1)C1CCCCCC1

>  <Energy>  (18) 
72.45715472952679

>  <Genealogy>  (18) 
CC(=O)[NH+](c1nnc(Br)c(-c2c(F)cccc2F)n1)C1CCCCCC1 (protonated)
CC(=O)[N+](=c1nnc(Br)c(-c2c(F)cccc2F)[nH]1)C1CCCCCC1 (tautomer)
CC(=O)/[N+](=c1/nnc(Br)c(-c2c(F)cccc2F)[nH]1)C1CCCCCC1 (cis-trans isomerization)
CC(=O)/[N+](=c1/nnc(Br)c(-c2c(F)cccc2F)[nH]1)C1CCCCCC1 (3D coordinates assigned)
CC(=O)/[N+](=c1/nnc(Br)c(-c2c(F)cccc2F)[nH]1)C1CCCCCC1 (nonaromatic ring conformer: 72.45715472952679 kcal/mol)

>  <smiles>  (18) 
CC(=O)N(c1nnc(Br)c(-c2c(F)cccc2F)n1)C1CCCCCC1

>  <score_type>  (18) 
oracle

>  <origin>  (18) 
autodockgpu

>  <m_score__min__energy>  (18) 
-5.2800000000000002

>  <m_primary>  (18) 
energy

>  <meeko>  (18) 
{"free_energy": -5.27, "intermolecular_energy": -7.96, "internal_energy": -1.21, "cluster_size": 5, "cluster_id": 1, "rank_in_cluster": 2}

>  <energy>  (18) 
-4.45

>  <cluster_rmsd>  (18) 
0.0

>  <rmsd>  (18) 
271.9

>  <cluster>  (18) 
5

$$$$
VCUSMEIKIQENRV-DOLDNGAINA-O
     RDKit          3D

 46 48  0  0  0  0  0  0  0  0999 V2000
  139.6627   81.6636  224.6627 H   0  0  0  0  0  0  0  0  0  0  0  0
  140.0200   80.9310  223.9240 C   0  0  0  0  0  0  0  0  0  0  0  0
  139.1070   80.1120  223.2550 C   0  0  0  0  0  0  0  0  0  0  0  0
  138.0311   80.2041  223.4647 H   0  0  0  0  0  0  0  0  0  0  0  0
  139.5580   79.1750  222.3190 C   0  0  0  0  0  0  0  0  0  0  0  0
  138.6570   78.3860  221.6810 F   0  0  0  0  0  0  0  0  0  0  0  0
  140.9330   79.0450  222.0570 C   0  0  0  0  0  0  0  0  0  0  0  0
  141.4040   78.0700  221.0490 C   0  0  0  0  0  0  0  0  0  0  0  0
  141.8420   78.4810  219.7830 C   0  0  0  0  0  0  0  0  0  0  0  0
  141.9560   80.3250  219.2730 Br  0  0  0  0  0  0  0  0  0  0  0  0
  142.2350   77.5380  218.8960 N   0  0  0  0  0  0  0  0  0  0  0  0
  142.2250   76.2460  219.2120 N   0  0  0  0  0  0  0  0  0  0  0  0
  141.8350   75.8070  220.4440 C   0  0  0  0  0  0  0  0  0  0  0  0
  141.8490   74.5100  220.7150 N   0  0  0  0  0  0  0  0  0  0  0  0
  140.6280   73.8930  221.1810 C   0  0  0  0  0  0  0  0  0  0  0  0
  140.5400   73.5030  222.3750 O   0  0  0  0  0  0  0  0  0  0  0  0
  139.4690   73.6940  220.2550 C   0  0  0  0  0  0  0  0  0  0  0  0
  138.5527   73.5367  220.8430 H   0  0  0  0  0  0  0  0  0  0  0  0
  139.3493   74.5847  219.6208 H   0  0  0  0  0  0  0  0  0  0  0  0
  139.6532   72.8143  219.6208 H   0  0  0  0  0  0  0  0  0  0  0  0
  143.0880   73.6840  220.6880 C   0  0  0  0  0  0  0  0  0  0  0  0
  143.4066   73.5120  221.7267 H   0  0  0  0  0  0  0  0  0  0  0  0
  144.2760   74.4220  220.0050 C   0  0  0  0  0  0  0  0  0  0  0  0
  144.2720   74.1482  218.9396 H   0  0  0  0  0  0  0  0  0  0  0  0
  144.1074   75.4911  220.2013 H   0  0  0  0  0  0  0  0  0  0  0  0
  145.6830   74.1200  220.5620 C   0  0  0  0  0  0  0  0  0  0  0  0
  146.3934   74.8039  220.0745 H   0  0  0  0  0  0  0  0  0  0  0  0
  145.6095   74.2550  221.6512 H   0  0  0  0  0  0  0  0  0  0  0  0
  146.1900   72.6830  220.3510 C   0  0  0  0  0  0  0  0  0  0  0  0
  147.1887   72.7231  219.8916 H   0  0  0  0  0  0  0  0  0  0  0  0
  146.2217   72.1875  221.3326 H   0  0  0  0  0  0  0  0  0  0  0  0
  145.2580   71.8690  219.4400 C   0  0  0  0  0  0  0  0  0  0  0  0
  144.9474   72.5090  218.6010 H   0  0  0  0  0  0  0  0  0  0  0  0
  145.8246   70.9862  219.1091 H   0  0  0  0  0  0  0  0  0  0  0  0
  143.9980   71.3520  220.1460 C   0  0  0  0  0  0  0  0  0  0  0  0
  143.7152   70.3909  219.6919 H   0  0  0  0  0  0  0  0  0  0  0  0
  144.2446   71.2556  221.2136 H   0  0  0  0  0  0  0  0  0  0  0  0
  142.7980   72.3070  220.0470 C   0  0  0  0  0  0  0  0  0  0  0  0
  142.5515   72.4561  218.9854 H   0  0  0  0  0  0  0  0  0  0  0  0
  141.9598   71.8513  220.5945 H   0  0  0  0  0  0  0  0  0  0  0  0
  141.4120   76.7420  221.3550 N   0  0  0  0  0  0  0  0  0  0  0  0
  141.0290   76.4760  222.2850 H   0  0  0  0  0  0  0  0  0  0  0  0
  141.8460   79.8850  222.7210 C   0  0  0  0  0  0  0  0  0  0  0  0
  143.1740   79.8150  222.4490 F   0  0  0  0  0  0  0  0  0  0  0  0
  141.3880   80.8200  223.6550 C   0  0  0  0  0  0  0  0  0  0  0  0
  142.1050   81.4692  224.1789 H   0  0  0  0  0  0  0  0  0  0  0  0
  1  2  1  0
  2  3  2  0
  3  4  1  0
  3  5  1  0
  5  6  1  0
  5  7  2  0
  7  8  1  0
  8  9  2  0
  9 10  1  0
  9 11  1  0
 11 12  2  0
 12 13  1  0
 13 14  2  0
 14 15  1  0
 15 16  2  0
 15 17  1  0
 17 18  1  0
 17 19  1  0
 17 20  1  0
 14 21  1  0
 21 22  1  0
 21 23  1  0
 23 24  1  0
 23 25  1  0
 23 26  1  0
 26 27  1  0
 26 28  1  0
 26 29  1  0
 29 30  1  0
 29 31  1  0
 29 32  1  0
 32 33  1  0
 32 34  1  0
 32 35  1  0
 35 36  1  0
 35 37  1  0
 35 38  1  0
 38 39  1  0
 38 40  1  0
 13 41  1  0
 41 42  1  0
  7 43  1  0
 43 44  1  0
 43 45  2  0
 45 46  1  0
 45  2  1  0
 41  8  1  0
 38 21  1  0
M  CHG  1  14   1
M  END
>  <UniqueID>  (19) 
4

>  <SMILES>  (19) 
CC(=O)/[N+](=c1/nnc(Br)c(-c2c(F)cccc2F)[nH]1)C1CCCCCC1

>  <Energy>  (19) 
72.45715472952679

>  <Genealogy>  (19) 
CC(=O)[NH+](c1nnc(Br)c(-c2c(F)cccc2F)n1)C1CCCCCC1 (protonated)
CC(=O)[N+](=c1nnc(Br)c(-c2c(F)cccc2F)[nH]1)C1CCCCCC1 (tautomer)
CC(=O)/[N+](=c1/nnc(Br)c(-c2c(F)cccc2F)[nH]1)C1CCCCCC1 (cis-trans isomerization)
CC(=O)/[N+](=c1/nnc(Br)c(-c2c(F)cccc2F)[nH]1)C1CCCCCC1 (3D coordinates assigned)
CC(=O)/[N+](=c1/nnc(Br)c(-c2c(F)cccc2F)[nH]1)C1CCCCCC1 (nonaromatic ring conformer: 72.45715472952679 kcal/mol)

>  <smiles>  (19) 
CC(=O)N(c1nnc(Br)c(-c2c(F)cccc2F)n1)C1CCCCCC1

>  <score_type>  (19) 
oracle

>  <origin>  (19) 
autodockgpu

>  <m_score__min__energy>  (19) 
-5.2800000000000002

>  <m_primary>  (19) 
energy

>  <meeko>  (19) 
{"free_energy": -4.97, "intermolecular_energy": -7.66, "internal_energy": -1.19, "cluster_size": 5, "cluster_id": 2, "rank_in_cluster": 3}

>  <energy>  (19) 
-4.44

>  <cluster_rmsd>  (19) 
0.73

>  <rmsd>  (19) 
272.09

>  <cluster>  (19) 
5

$$$$
VCUSMEIKIQENRV-DOLDNGAINA-O
     RDKit          3D

 46 48  0  0  0  0  0  0  0  0999 V2000
  142.5321   82.3567  224.1594 H   0  0  0  0  0  0  0  0  0  0  0  0
  142.2530   81.4560  223.5930 C   0  0  0  0  0  0  0  0  0  0  0  0
  141.7970   81.5720  222.2780 C   0  0  0  0  0  0  0  0  0  0  0  0
  141.7222   82.5640  221.8087 H   0  0  0  0  0  0  0  0  0  0  0  0
  141.4350   80.4290  221.5560 C   0  0  0  0  0  0  0  0  0  0  0  0
  140.9910   80.5610  220.2800 F   0  0  0  0  0  0  0  0  0  0  0  0
  141.5190   79.1600  222.1550 C   0  0  0  0  0  0  0  0  0  0  0  0
  141.1580   77.9530  221.3800 C   0  0  0  0  0  0  0  0  0  0  0  0
  139.9210   77.3170  221.5510 C   0  0  0  0  0  0  0  0  0  0  0  0
  138.5620   77.9910  222.7220 Br  0  0  0  0  0  0  0  0  0  0  0  0
  139.6620   76.2010  220.8310 N   0  0  0  0  0  0  0  0  0  0  0  0
  140.5480   75.7160  219.9660 N   0  0  0  0  0  0  0  0  0  0  0  0
  141.7500   76.3220  219.7480 C   0  0  0  0  0  0  0  0  0  0  0  0
  142.5980   75.8060  218.8700 N   0  0  0  0  0  0  0  0  0  0  0  0
  142.6210   76.3520  217.5330 C   0  0  0  0  0  0  0  0  0  0  0  0
  142.1850   75.6680  216.5700 O   0  0  0  0  0  0  0  0  0  0  0  0
  143.1740   77.7190  217.2740 C   0  0  0  0  0  0  0  0  0  0  0  0
  143.3767   78.2201  218.2320 H   0  0  0  0  0  0  0  0  0  0  0  0
  144.1084   77.6338  216.6998 H   0  0  0  0  0  0  0  0  0  0  0  0
  142.4432   78.3074  216.6998 H   0  0  0  0  0  0  0  0  0  0  0  0
  143.4360   74.6070  219.1540 C   0  0  0  0  0  0  0  0  0  0  0  0
  144.1338   74.4706  218.3147 H   0  0  0  0  0  0  0  0  0  0  0  0
  142.5960   73.2990  219.2130 C   0  0  0  0  0  0  0  0  0  0  0  0
  141.5591   73.5778  219.4519 H   0  0  0  0  0  0  0  0  0  0  0  0
  142.7252   72.8243  218.2291 H   0  0  0  0  0  0  0  0  0  0  0  0
  143.0460   72.2400  220.2410 C   0  0  0  0  0  0  0  0  0  0  0  0
  142.9314   72.6738  221.2453 H   0  0  0  0  0  0  0  0  0  0  0  0
  142.4126   71.3589  220.0608 H   0  0  0  0  0  0  0  0  0  0  0  0
  144.4970   71.7490  220.1010 C   0  0  0  0  0  0  0  0  0  0  0  0
  144.5568   70.7111  220.4604 H   0  0  0  0  0  0  0  0  0  0  0  0
  144.7785   71.8200  219.0400 H   0  0  0  0  0  0  0  0  0  0  0  0
  145.4810   72.6140  220.9130 C   0  0  0  0  0  0  0  0  0  0  0  0
  145.1400   72.6376  221.9586 H   0  0  0  0  0  0  0  0  0  0  0  0
  146.4749   72.1555  220.8032 H   0  0  0  0  0  0  0  0  0  0  0  0
  145.5990   74.0580  220.4110 C   0  0  0  0  0  0  0  0  0  0  0  0
  146.3227   74.5885  221.0473 H   0  0  0  0  0  0  0  0  0  0  0  0
  145.9209   74.0070  219.3604 H   0  0  0  0  0  0  0  0  0  0  0  0
  144.2720   74.8330  220.4360 C   0  0  0  0  0  0  0  0  0  0  0  0
  143.6845   74.5007  221.3046 H   0  0  0  0  0  0  0  0  0  0  0  0
  144.5096   75.9052  220.4983 H   0  0  0  0  0  0  0  0  0  0  0  0
  142.0460   77.4450  220.4800 N   0  0  0  0  0  0  0  0  0  0  0  0
  142.9730   77.9160  220.4240 H   0  0  0  0  0  0  0  0  0  0  0  0
  141.9950   79.0490  223.4740 C   0  0  0  0  0  0  0  0  0  0  0  0
  142.1330   77.8320  224.0590 F   0  0  0  0  0  0  0  0  0  0  0  0
  142.3550   80.1960  224.1900 C   0  0  0  0  0  0  0  0  0  0  0  0
  142.7188   80.1062  225.2242 H   0  0  0  0  0  0  0  0  0  0  0  0
  1  2  1  0
  2  3  2  0
  3  4  1  0
  3  5  1  0
  5  6  1  0
  5  7  2  0
  7  8  1  0
  8  9  2  0
  9 10  1  0
  9 11  1  0
 11 12  2  0
 12 13  1  0
 13 14  2  0
 14 15  1  0
 15 16  2  0
 15 17  1  0
 17 18  1  0
 17 19  1  0
 17 20  1  0
 14 21  1  0
 21 22  1  0
 21 23  1  0
 23 24  1  0
 23 25  1  0
 23 26  1  0
 26 27  1  0
 26 28  1  0
 26 29  1  0
 29 30  1  0
 29 31  1  0
 29 32  1  0
 32 33  1  0
 32 34  1  0
 32 35  1  0
 35 36  1  0
 35 37  1  0
 35 38  1  0
 38 39  1  0
 38 40  1  0
 13 41  1  0
 41 42  1  0
  7 43  1  0
 43 44  1  0
 43 45  2  0
 45 46  1  0
 45  2  1  0
 41  8  1  0
 38 21  1  0
M  CHG  1  14   1
M  END
>  <UniqueID>  (20) 
4

>  <SMILES>  (20) 
CC(=O)/[N+](=c1/nnc(Br)c(-c2c(F)cccc2F)[nH]1)C1CCCCCC1

>  <Energy>  (20) 
72.45715472952679

>  <Genealogy>  (20) 
CC(=O)[NH+](c1nnc(Br)c(-c2c(F)cccc2F)n1)C1CCCCCC1 (protonated)
CC(=O)[N+](=c1nnc(Br)c(-c2c(F)cccc2F)[nH]1)C1CCCCCC1 (tautomer)
CC(=O)/[N+](=c1/nnc(Br)c(-c2c(F)cccc2F)[nH]1)C1CCCCCC1 (cis-trans isomerization)
CC(=O)/[N+](=c1/nnc(Br)c(-c2c(F)cccc2F)[nH]1)C1CCCCCC1 (3D coordinates assigned)
CC(=O)/[N+](=c1/nnc(Br)c(-c2c(F)cccc2F)[nH]1)C1CCCCCC1 (nonaromatic ring conformer: 72.45715472952679 kcal/mol)

>  <smiles>  (20) 
CC(=O)N(c1nnc(Br)c(-c2c(F)cccc2F)n1)C1CCCCCC1

>  <score_type>  (20) 
oracle

>  <origin>  (20) 
autodockgpu

>  <m_score__min__energy>  (20) 
-5.2800000000000002

>  <m_primary>  (20) 
energy

>  <meeko>  (20) 
{"free_energy": -4.49, "intermolecular_energy": -7.18, "internal_energy": -1.3, "cluster_size": 4, "cluster_id": 3, "rank_in_cluster": 4}

>  <energy>  (20) 
-4.11

>  <cluster_rmsd>  (20) 
0.0

>  <rmsd>  (20) 
270.99

>  <cluster>  (20) 
6

$$$$
VCUSMEIKIQENRV-DOLDNGAINA-O
     RDKit          3D

 46 48  0  0  0  0  0  0  0  0999 V2000
  145.4449   71.4334  220.4941 H   0  0  0  0  0  0  0  0  0  0  0  0
  144.7990   72.3190  220.4020 C   0  0  0  0  0  0  0  0  0  0  0  0
  143.4240   72.1630  220.2070 C   0  0  0  0  0  0  0  0  0  0  0  0
  142.9881   71.1546  220.1509 H   0  0  0  0  0  0  0  0  0  0  0  0
  142.6010   73.2880  220.0830 C   0  0  0  0  0  0  0  0  0  0  0  0
  141.2670   73.1180  219.8920 F   0  0  0  0  0  0  0  0  0  0  0  0
  143.1550   74.5780  220.1420 C   0  0  0  0  0  0  0  0  0  0  0  0
  142.2770   75.7640  220.0350 C   0  0  0  0  0  0  0  0  0  0  0  0
  142.2780   76.5720  218.8900 C   0  0  0  0  0  0  0  0  0  0  0  0
  143.3350   76.1760  217.3410 Br  0  0  0  0  0  0  0  0  0  0  0  0
  141.4710   77.6580  218.8630 N   0  0  0  0  0  0  0  0  0  0  0  0
  140.6780   77.9550  219.8900 N   0  0  0  0  0  0  0  0  0  0  0  0
  140.6250   77.1770  221.0090 C   0  0  0  0  0  0  0  0  0  0  0  0
  139.8140   77.5080  222.0030 N   0  0  0  0  0  0  0  0  0  0  0  0
  138.4930   76.9240  222.0360 C   0  0  0  0  0  0  0  0  0  0  0  0
  137.4840   77.6430  221.8070 O   0  0  0  0  0  0  0  0  0  0  0  0
  138.3050   75.4740  222.3580 C   0  0  0  0  0  0  0  0  0  0  0  0
  138.2876   75.3401  223.4497 H   0  0  0  0  0  0  0  0  0  0  0  0
  137.3539   75.1238  221.9305 H   0  0  0  0  0  0  0  0  0  0  0  0
  139.1353   74.8928  221.9305 H   0  0  0  0  0  0  0  0  0  0  0  0
  140.1470   78.5510  223.0140 C   0  0  0  0  0  0  0  0  0  0  0  0
  139.5064   78.3920  223.8940 H   0  0  0  0  0  0  0  0  0  0  0  0
  139.8160   79.9860  222.5150 C   0  0  0  0  0  0  0  0  0  0  0  0
  140.2594   80.1032  221.5152 H   0  0  0  0  0  0  0  0  0  0  0  0
  138.7186   80.0574  222.5379 H   0  0  0  0  0  0  0  0  0  0  0  0
  140.3210   81.1510  223.3920 C   0  0  0  0  0  0  0  0  0  0  0  0
  140.0617   82.0922  222.8852 H   0  0  0  0  0  0  0  0  0  0  0  0
  139.8349   81.0216  224.3703 H   0  0  0  0  0  0  0  0  0  0  0  0
  141.8330   81.1680  223.6750 C   0  0  0  0  0  0  0  0  0  0  0  0
  142.1532   82.2093  223.8276 H   0  0  0  0  0  0  0  0  0  0  0  0
  142.0156   80.5576  224.5717 H   0  0  0  0  0  0  0  0  0  0  0  0
  142.6470   80.5640  222.5190 C   0  0  0  0  0  0  0  0  0  0  0  0
  142.2489   80.9578  221.5722 H   0  0  0  0  0  0  0  0  0  0  0  0
  143.6969   80.8468  222.6855 H   0  0  0  0  0  0  0  0  0  0  0  0
  142.6020   79.0330  222.4620 C   0  0  0  0  0  0  0  0  0  0  0  0
  142.3024   78.7323  221.4472 H   0  0  0  0  0  0  0  0  0  0  0  0
  143.6066   78.6725  222.7282 H   0  0  0  0  0  0  0  0  0  0  0  0
  141.6200   78.4040  223.4640 C   0  0  0  0  0  0  0  0  0  0  0  0
  141.8541   77.3339  223.5644 H   0  0  0  0  0  0  0  0  0  0  0  0
  141.7332   78.9317  224.4225 H   0  0  0  0  0  0  0  0  0  0  0  0
  141.4480   76.0810  221.0690 N   0  0  0  0  0  0  0  0  0  0  0  0
  141.5190   75.4850  221.9210 H   0  0  0  0  0  0  0  0  0  0  0  0
  144.5380   74.7270  220.3560 C   0  0  0  0  0  0  0  0  0  0  0  0
  145.0900   75.9620  220.4670 F   0  0  0  0  0  0  0  0  0  0  0  0
  145.3540   73.5990  220.4800 C   0  0  0  0  0  0  0  0  0  0  0  0
  146.4357   73.7192  220.6394 H   0  0  0  0  0  0  0  0  0  0  0  0
  1  2  1  0
  2  3  2  0
  3  4  1  0
  3  5  1  0
  5  6  1  0
  5  7  2  0
  7  8  1  0
  8  9  2  0
  9 10  1  0
  9 11  1  0
 11 12  2  0
 12 13  1  0
 13 14  2  0
 14 15  1  0
 15 16  2  0
 15 17  1  0
 17 18  1  0
 17 19  1  0
 17 20  1  0
 14 21  1  0
 21 22  1  0
 21 23  1  0
 23 24  1  0
 23 25  1  0
 23 26  1  0
 26 27  1  0
 26 28  1  0
 26 29  1  0
 29 30  1  0
 29 31  1  0
 29 32  1  0
 32 33  1  0
 32 34  1  0
 32 35  1  0
 35 36  1  0
 35 37  1  0
 35 38  1  0
 38 39  1  0
 38 40  1  0
 13 41  1  0
 41 42  1  0
  7 43  1  0
 43 44  1  0
 43 45  2  0
 45 46  1  0
 45  2  1  0
 41  8  1  0
 38 21  1  0
M  CHG  1  14   1
M  END
>  <UniqueID>  (21) 
5

>  <SMILES>  (21) 
CC(=O)/[N+](=c1\nnc(Br)c(-c2c(F)cccc2F)[nH]1)C1CCCCCC1

>  <Energy>  (21) 
74.19761558228863

>  <Genealogy>  (21) 
CC(=O)[NH+](c1nnc(Br)c(-c2c(F)cccc2F)n1)C1CCCCCC1 (protonated)
CC(=O)[N+](=c1nnc(Br)c(-c2c(F)cccc2F)[nH]1)C1CCCCCC1 (tautomer)
CC(=O)/[N+](=c1\nnc(Br)c(-c2c(F)cccc2F)[nH]1)C1CCCCCC1 (cis-trans isomerization)
CC(=O)/[N+](=c1\nnc(Br)c(-c2c(F)cccc2F)[nH]1)C1CCCCCC1 (3D coordinates assigned)
CC(=O)/[N+](=c1\nnc(Br)c(-c2c(F)cccc2F)[nH]1)C1CCCCCC1 (nonaromatic ring conformer: 74.19761558228863 kcal/mol)

>  <smiles>  (21) 
CC(=O)N(c1nnc(Br)c(-c2c(F)cccc2F)n1)C1CCCCCC1

>  <score_type>  (21) 
oracle

>  <origin>  (21) 
autodockgpu

>  <m_score__min__energy>  (21) 
-5.2800000000000002

>  <m_primary>  (21) 
energy

>  <meeko>  (21) 
{"free_energy": -4.45, "intermolecular_energy": -7.13, "internal_energy": -1.45, "cluster_size": 2, "cluster_id": 5, "rank_in_cluster": 1}

>  <energy>  (21) 
-5.28

>  <cluster_rmsd>  (21) 
0.0

>  <rmsd>  (21) 
271.81

>  <cluster>  (21) 
1

$$$$
VCUSMEIKIQENRV-DOLDNGAINA-O
     RDKit          3D

 46 48  0  0  0  0  0  0  0  0999 V2000
  141.0916   82.3454  224.4741 H   0  0  0  0  0  0  0  0  0  0  0  0
  141.2160   81.5610  223.7130 C   0  0  0  0  0  0  0  0  0  0  0  0
  142.3830   80.7940  223.6860 C   0  0  0  0  0  0  0  0  0  0  0  0
  143.1744   80.9721  224.4290 H   0  0  0  0  0  0  0  0  0  0  0  0
  142.5470   79.8000  222.7160 C   0  0  0  0  0  0  0  0  0  0  0  0
  143.6890   79.0650  222.7030 F   0  0  0  0  0  0  0  0  0  0  0  0
  141.5440   79.5750  221.7570 C   0  0  0  0  0  0  0  0  0  0  0  0
  141.7110   78.5070  220.7490 C   0  0  0  0  0  0  0  0  0  0  0  0
  141.8910   78.8040  219.3910 C   0  0  0  0  0  0  0  0  0  0  0  0
  142.0220   80.5990  218.7310 Br  0  0  0  0  0  0  0  0  0  0  0  0
  142.0110   77.7810  218.5140 N   0  0  0  0  0  0  0  0  0  0  0  0
  141.9780   76.5150  218.9210 N   0  0  0  0  0  0  0  0  0  0  0  0
  141.8370   76.1830  220.2370 C   0  0  0  0  0  0  0  0  0  0  0  0
  141.8170   74.9080  220.5960 N   0  0  0  0  0  0  0  0  0  0  0  0
  140.5750   74.3500  221.0780 C   0  0  0  0  0  0  0  0  0  0  0  0
  140.4560   74.0440  222.2940 O   0  0  0  0  0  0  0  0  0  0  0  0
  139.4300   74.1120  220.1440 C   0  0  0  0  0  0  0  0  0  0  0  0
  138.5158   73.9220  220.7255 H   0  0  0  0  0  0  0  0  0  0  0  0
  139.2835   74.9989  219.5100 H   0  0  0  0  0  0  0  0  0  0  0  0
  139.6491   73.2402  219.5100 H   0  0  0  0  0  0  0  0  0  0  0  0
  143.0390   74.0570  220.6510 C   0  0  0  0  0  0  0  0  0  0  0  0
  143.2547   73.8355  221.7067 H   0  0  0  0  0  0  0  0  0  0  0  0
  144.2990   74.7960  220.1170 C   0  0  0  0  0  0  0  0  0  0  0  0
  144.4077   74.5447  219.0516 H   0  0  0  0  0  0  0  0  0  0  0  0
  144.1189   75.8624  220.3180 H   0  0  0  0  0  0  0  0  0  0  0  0
  145.6350   74.4680  220.8150 C   0  0  0  0  0  0  0  0  0  0  0  0
  146.4470   74.8929  220.2067 H   0  0  0  0  0  0  0  0  0  0  0  0
  145.5594   74.8998  221.8239 H   0  0  0  0  0  0  0  0  0  0  0  0
  145.9320   72.9730  221.0210 C   0  0  0  0  0  0  0  0  0  0  0  0
  147.0211   72.8213  220.9932 H   0  0  0  0  0  0  0  0  0  0  0  0
  145.5106   72.6762  221.9928 H   0  0  0  0  0  0  0  0  0  0  0  0
  145.2830   72.0970  219.9390 C   0  0  0  0  0  0  0  0  0  0  0  0
  145.2641   72.6668  218.9983 H   0  0  0  0  0  0  0  0  0  0  0  0
  145.8870   71.1804  219.8677 H   0  0  0  0  0  0  0  0  0  0  0  0
  143.8500   71.6590  220.2660 C   0  0  0  0  0  0  0  0  0  0  0  0
  143.6277   70.7456  219.6947 H   0  0  0  0  0  0  0  0  0  0  0  0
  143.8047   71.4973  221.3531 H   0  0  0  0  0  0  0  0  0  0  0  0
  142.7860   72.7140  219.9260 C   0  0  0  0  0  0  0  0  0  0  0  0
  142.7969   72.8904  218.8403 H   0  0  0  0  0  0  0  0  0  0  0  0
  141.8113   72.3292  220.2604 H   0  0  0  0  0  0  0  0  0  0  0  0
  141.6920   77.2030  221.1450 N   0  0  0  0  0  0  0  0  0  0  0  0
  141.5030   77.0250  222.1530 H   0  0  0  0  0  0  0  0  0  0  0  0
  140.3630   80.3400  221.8010 C   0  0  0  0  0  0  0  0  0  0  0  0
  139.3580   80.1100  220.9190 F   0  0  0  0  0  0  0  0  0  0  0  0
  140.2060   81.3330  222.7740 C   0  0  0  0  0  0  0  0  0  0  0  0
  139.2860   81.9354  222.8001 H   0  0  0  0  0  0  0  0  0  0  0  0
  1  2  1  0
  2  3  2  0
  3  4  1  0
  3  5  1  0
  5  6  1  0
  5  7  2  0
  7  8  1  0
  8  9  2  0
  9 10  1  0
  9 11  1  0
 11 12  2  0
 12 13  1  0
 13 14  2  0
 14 15  1  0
 15 16  2  0
 15 17  1  0
 17 18  1  0
 17 19  1  0
 17 20  1  0
 14 21  1  0
 21 22  1  0
 21 23  1  0
 23 24  1  0
 23 25  1  0
 23 26  1  0
 26 27  1  0
 26 28  1  0
 26 29  1  0
 29 30  1  0
 29 31  1  0
 29 32  1  0
 32 33  1  0
 32 34  1  0
 32 35  1  0
 35 36  1  0
 35 37  1  0
 35 38  1  0
 38 39  1  0
 38 40  1  0
 13 41  1  0
 41 42  1  0
  7 43  1  0
 43 44  1  0
 43 45  2  0
 45 46  1  0
 45  2  1  0
 41  8  1  0
 38 21  1  0
M  CHG  1  14   1
M  END
>  <UniqueID>  (22) 
5

>  <SMILES>  (22) 
CC(=O)/[N+](=c1\nnc(Br)c(-c2c(F)cccc2F)[nH]1)C1CCCCCC1

>  <Energy>  (22) 
74.19761558228863

>  <Genealogy>  (22) 
CC(=O)[NH+](c1nnc(Br)c(-c2c(F)cccc2F)n1)C1CCCCCC1 (protonated)
CC(=O)[N+](=c1nnc(Br)c(-c2c(F)cccc2F)[nH]1)C1CCCCCC1 (tautomer)
CC(=O)/[N+](=c1\nnc(Br)c(-c2c(F)cccc2F)[nH]1)C1CCCCCC1 (cis-trans isomerization)
CC(=O)/[N+](=c1\nnc(Br)c(-c2c(F)cccc2F)[nH]1)C1CCCCCC1 (3D coordinates assigned)
CC(=O)/[N+](=c1\nnc(Br)c(-c2c(F)cccc2F)[nH]1)C1CCCCCC1 (nonaromatic ring conformer: 74.19761558228863 kcal/mol)

>  <smiles>  (22) 
CC(=O)N(c1nnc(Br)c(-c2c(F)cccc2F)n1)C1CCCCCC1

>  <score_type>  (22) 
oracle

>  <origin>  (22) 
autodockgpu

>  <m_score__min__energy>  (22) 
-5.2800000000000002

>  <m_primary>  (22) 
energy

>  <meeko>  (22) 
{"free_energy": -5.05, "intermolecular_energy": -7.73, "internal_energy": -1.28, "cluster_size": 5, "cluster_id": 2, "rank_in_cluster": 2}

>  <energy>  (22) 
-5.27

>  <cluster_rmsd>  (22) 
0.36

>  <rmsd>  (22) 
271.82

>  <cluster>  (22) 
1

$$$$
VCUSMEIKIQENRV-DOLDNGAINA-O
     RDKit          3D

 46 48  0  0  0  0  0  0  0  0999 V2000
  142.4853   82.3658  223.9893 H   0  0  0  0  0  0  0  0  0  0  0  0
  142.2110   81.4390  223.4640 C   0  0  0  0  0  0  0  0  0  0  0  0
  141.8030   81.4880  222.1290 C   0  0  0  0  0  0  0  0  0  0  0  0
  141.7608   82.4534  221.6033 H   0  0  0  0  0  0  0  0  0  0  0  0
  141.4480   80.3130  221.4590 C   0  0  0  0  0  0  0  0  0  0  0  0
  141.0520   80.3790  220.1620 F   0  0  0  0  0  0  0  0  0  0  0  0
  141.4890   79.0780  222.1300 C   0  0  0  0  0  0  0  0  0  0  0  0
  141.1360   77.8350  221.4110 C   0  0  0  0  0  0  0  0  0  0  0  0
  139.8860   77.2220  221.5800 C   0  0  0  0  0  0  0  0  0  0  0  0
  138.5040   77.9710  222.6750 Br  0  0  0  0  0  0  0  0  0  0  0  0
  139.6340   76.0720  220.9140 N   0  0  0  0  0  0  0  0  0  0  0  0
  140.5380   75.5310  220.1010 N   0  0  0  0  0  0  0  0  0  0  0  0
  141.7530   76.1130  219.8850 C   0  0  0  0  0  0  0  0  0  0  0  0
  142.6180   75.5410  219.0600 N   0  0  0  0  0  0  0  0  0  0  0  0
  142.6790   76.0100  217.6950 C   0  0  0  0  0  0  0  0  0  0  0  0
  142.2610   75.2740  216.7610 O   0  0  0  0  0  0  0  0  0  0  0  0
  143.2500   77.3550  217.3720 C   0  0  0  0  0  0  0  0  0  0  0  0
  143.4774   77.8906  218.3055 H   0  0  0  0  0  0  0  0  0  0  0  0
  144.1729   77.2306  216.7865 H   0  0  0  0  0  0  0  0  0  0  0  0
  142.5194   77.9325  216.7865 H   0  0  0  0  0  0  0  0  0  0  0  0
  143.4380   74.3550  219.4340 C   0  0  0  0  0  0  0  0  0  0  0  0
  143.9479   73.9935  218.5289 H   0  0  0  0  0  0  0  0  0  0  0  0
  142.5660   73.1630  219.9240 C   0  0  0  0  0  0  0  0  0  0  0  0
  142.4368   73.2676  221.0114 H   0  0  0  0  0  0  0  0  0  0  0  0
  141.6323   73.2270  219.3460 H   0  0  0  0  0  0  0  0  0  0  0  0
  143.1210   71.7490  219.6510 C   0  0  0  0  0  0  0  0  0  0  0  0
  142.4872   71.0279  220.1879 H   0  0  0  0  0  0  0  0  0  0  0  0
  143.1076   71.6280  218.5578 H   0  0  0  0  0  0  0  0  0  0  0  0
  144.5780   71.5090  220.0810 C   0  0  0  0  0  0  0  0  0  0  0  0
  144.6290   71.5186  221.1798 H   0  0  0  0  0  0  0  0  0  0  0  0
  144.8942   70.5374  219.6735 H   0  0  0  0  0  0  0  0  0  0  0  0
  145.5310   72.5830  219.5320 C   0  0  0  0  0  0  0  0  0  0  0  0
  146.5154   72.1209  219.3660 H   0  0  0  0  0  0  0  0  0  0  0  0
  145.0824   72.9642  218.6028 H   0  0  0  0  0  0  0  0  0  0  0  0
  145.7130   73.7860  220.4660 C   0  0  0  0  0  0  0  0  0  0  0  0
  145.8516   73.4119  221.4911 H   0  0  0  0  0  0  0  0  0  0  0  0
  146.5868   74.3463  220.1019 H   0  0  0  0  0  0  0  0  0  0  0  0
  144.5220   74.7580  220.4610 C   0  0  0  0  0  0  0  0  0  0  0  0
  144.0713   74.7700  221.4644 H   0  0  0  0  0  0  0  0  0  0  0  0
  144.9003   75.7513  220.1778 H   0  0  0  0  0  0  0  0  0  0  0  0
  142.0420   77.2700  220.5640 N   0  0  0  0  0  0  0  0  0  0  0  0
  142.9750   77.7270  220.5090 H   0  0  0  0  0  0  0  0  0  0  0  0
  141.9170   79.0340  223.4700 C   0  0  0  0  0  0  0  0  0  0  0  0
  142.0130   77.8500  224.1250 F   0  0  0  0  0  0  0  0  0  0  0  0
  142.2710   80.2130  224.1330 C   0  0  0  0  0  0  0  0  0  0  0  0
  142.5973   80.1758  225.1828 H   0  0  0  0  0  0  0  0  0  0  0  0
  1  2  1  0
  2  3  2  0
  3  4  1  0
  3  5  1  0
  5  6  1  0
  5  7  2  0
  7  8  1  0
  8  9  2  0
  9 10  1  0
  9 11  1  0
 11 12  2  0
 12 13  1  0
 13 14  2  0
 14 15  1  0
 15 16  2  0
 15 17  1  0
 17 18  1  0
 17 19  1  0
 17 20  1  0
 14 21  1  0
 21 22  1  0
 21 23  1  0
 23 24  1  0
 23 25  1  0
 23 26  1  0
 26 27  1  0
 26 28  1  0
 26 29  1  0
 29 30  1  0
 29 31  1  0
 29 32  1  0
 32 33  1  0
 32 34  1  0
 32 35  1  0
 35 36  1  0
 35 37  1  0
 35 38  1  0
 38 39  1  0
 38 40  1  0
 13 41  1  0
 41 42  1  0
  7 43  1  0
 43 44  1  0
 43 45  2  0
 45 46  1  0
 45  2  1  0
 41  8  1  0
 38 21  1  0
M  CHG  1  14   1
M  END
>  <UniqueID>  (23) 
5

>  <SMILES>  (23) 
CC(=O)/[N+](=c1\nnc(Br)c(-c2c(F)cccc2F)[nH]1)C1CCCCCC1

>  <Energy>  (23) 
74.19761558228863

>  <Genealogy>  (23) 
CC(=O)[NH+](c1nnc(Br)c(-c2c(F)cccc2F)n1)C1CCCCCC1 (protonated)
CC(=O)[N+](=c1nnc(Br)c(-c2c(F)cccc2F)[nH]1)C1CCCCCC1 (tautomer)
CC(=O)/[N+](=c1\nnc(Br)c(-c2c(F)cccc2F)[nH]1)C1CCCCCC1 (cis-trans isomerization)
CC(=O)/[N+](=c1\nnc(Br)c(-c2c(F)cccc2F)[nH]1)C1CCCCCC1 (3D coordinates assigned)
CC(=O)/[N+](=c1\nnc(Br)c(-c2c(F)cccc2F)[nH]1)C1CCCCCC1 (nonaromatic ring conformer: 74.19761558228863 kcal/mol)

>  <smiles>  (23) 
CC(=O)N(c1nnc(Br)c(-c2c(F)cccc2F)n1)C1CCCCCC1

>  <score_type>  (23) 
oracle

>  <origin>  (23) 
autodockgpu

>  <m_score__min__energy>  (23) 
-5.2800000000000002

>  <m_primary>  (23) 
energy

>  <meeko>  (23) 
{"free_energy": -5.01, "intermolecular_energy": -7.69, "internal_energy": -1.3, "cluster_size": 4, "cluster_id": 3, "rank_in_cluster": 2}

>  <energy>  (23) 
-5.02

>  <cluster_rmsd>  (23) 
0.56

>  <rmsd>  (23) 
271.9

>  <cluster>  (23) 
1

$$$$
VCUSMEIKIQENRV-DOLDNGAINA-O
     RDKit          3D

 46 48  0  0  0  0  0  0  0  0999 V2000
  143.5023   81.7593  222.6216 H   0  0  0  0  0  0  0  0  0  0  0  0
  142.8720   80.8610  222.5460 C   0  0  0  0  0  0  0  0  0  0  0  0
  142.7640   79.9900  223.6330 C   0  0  0  0  0  0  0  0  0  0  0  0
  143.3065   80.2062  224.5652 H   0  0  0  0  0  0  0  0  0  0  0  0
  141.9680   78.8440  223.5390 C   0  0  0  0  0  0  0  0  0  0  0  0
  141.8760   78.0070  224.6040 F   0  0  0  0  0  0  0  0  0  0  0  0
  141.2810   78.5570  222.3460 C   0  0  0  0  0  0  0  0  0  0  0  0
  140.4210   77.3570  222.2580 C   0  0  0  0  0  0  0  0  0  0  0  0
  139.0580   77.4100  222.5820 C   0  0  0  0  0  0  0  0  0  0  0  0
  138.1720   79.0350  223.0760 Br  0  0  0  0  0  0  0  0  0  0  0  0
  138.3310   76.2720  222.5070 N   0  0  0  0  0  0  0  0  0  0  0  0
  138.8810   75.1240  222.1220 N   0  0  0  0  0  0  0  0  0  0  0  0
  140.1960   75.0370  221.7690 C   0  0  0  0  0  0  0  0  0  0  0  0
  140.6990   73.8730  221.3840 N   0  0  0  0  0  0  0  0  0  0  0  0
  140.2730   72.6780  222.0760 C   0  0  0  0  0  0  0  0  0  0  0  0
  141.0800   72.0670  222.8260 O   0  0  0  0  0  0  0  0  0  0  0  0
  138.8860   72.1450  221.8990 C   0  0  0  0  0  0  0  0  0  0  0  0
  138.4316   71.9704  222.8854 H   0  0  0  0  0  0  0  0  0  0  0  0
  138.2812   72.8748  221.3407 H   0  0  0  0  0  0  0  0  0  0  0  0
  138.9256   71.1980  221.3407 H   0  0  0  0  0  0  0  0  0  0  0  0
  141.7780   73.7480  220.3640 C   0  0  0  0  0  0  0  0  0  0  0  0
  141.9952   72.6787  220.2247 H   0  0  0  0  0  0  0  0  0  0  0  0
  143.1160   74.3840  220.8370 C   0  0  0  0  0  0  0  0  0  0  0  0
  143.1427   75.4201  220.4684 H   0  0  0  0  0  0  0  0  0  0  0  0
  143.1126   74.2901  221.9330 H   0  0  0  0  0  0  0  0  0  0  0  0
  144.4110   73.6860  220.3700 C   0  0  0  0  0  0  0  0  0  0  0  0
  145.2628   74.2234  220.8123 H   0  0  0  0  0  0  0  0  0  0  0  0
  144.3233   72.6402  220.6995 H   0  0  0  0  0  0  0  0  0  0  0  0
  144.6270   73.6290  218.8480 C   0  0  0  0  0  0  0  0  0  0  0  0
  145.6670   73.9113  218.6271 H   0  0  0  0  0  0  0  0  0  0  0  0
  144.4107   72.6032  218.5148 H   0  0  0  0  0  0  0  0  0  0  0  0
  143.6850   74.5790  218.0910 C   0  0  0  0  0  0  0  0  0  0  0  0
  143.5935   75.5100  218.6697 H   0  0  0  0  0  0  0  0  0  0  0  0
  144.1267   74.7418  217.0968 H   0  0  0  0  0  0  0  0  0  0  0  0
  142.2790   74.0100  217.8660 C   0  0  0  0  0  0  0  0  0  0  0  0
  141.8755   74.4392  216.9370 H   0  0  0  0  0  0  0  0  0  0  0  0
  142.3802   72.9159  217.8144 H   0  0  0  0  0  0  0  0  0  0  0  0
  141.2970   74.3160  219.0080 C   0  0  0  0  0  0  0  0  0  0  0  0
  141.1897   75.4069  219.0995 H   0  0  0  0  0  0  0  0  0  0  0  0
  140.3373   73.8370  218.7639 H   0  0  0  0  0  0  0  0  0  0  0  0
  140.9610   76.1730  221.8550 N   0  0  0  0  0  0  0  0  0  0  0  0
  141.9870   76.1660  221.6770 H   0  0  0  0  0  0  0  0  0  0  0  0
  141.3810   79.4470  221.2600 C   0  0  0  0  0  0  0  0  0  0  0  0
  140.6900   79.2210  220.1150 F   0  0  0  0  0  0  0  0  0  0  0  0
  142.1790   80.5910  221.3620 C   0  0  0  0  0  0  0  0  0  0  0  0
  142.2617   81.2801  220.5086 H   0  0  0  0  0  0  0  0  0  0  0  0
  1  2  1  0
  2  3  2  0
  3  4  1  0
  3  5  1  0
  5  6  1  0
  5  7  2  0
  7  8  1  0
  8  9  2  0
  9 10  1  0
  9 11  1  0
 11 12  2  0
 12 13  1  0
 13 14  2  0
 14 15  1  0
 15 16  2  0
 15 17  1  0
 17 18  1  0
 17 19  1  0
 17 20  1  0
 14 21  1  0
 21 22  1  0
 21 23  1  0
 23 24  1  0
 23 25  1  0
 23 26  1  0
 26 27  1  0
 26 28  1  0
 26 29  1  0
 29 30  1  0
 29 31  1  0
 29 32  1  0
 32 33  1  0
 32 34  1  0
 32 35  1  0
 35 36  1  0
 35 37  1  0
 35 38  1  0
 38 39  1  0
 38 40  1  0
 13 41  1  0
 41 42  1  0
  7 43  1  0
 43 44  1  0
 43 45  2  0
 45 46  1  0
 45  2  1  0
 41  8  1  0
 38 21  1  0
M  CHG  1  14   1
M  END
>  <UniqueID>  (24) 
5

>  <SMILES>  (24) 
CC(=O)/[N+](=c1\nnc(Br)c(-c2c(F)cccc2F)[nH]1)C1CCCCCC1

>  <Energy>  (24) 
74.19761558228863

>  <Genealogy>  (24) 
CC(=O)[NH+](c1nnc(Br)c(-c2c(F)cccc2F)n1)C1CCCCCC1 (protonated)
CC(=O)[N+](=c1nnc(Br)c(-c2c(F)cccc2F)[nH]1)C1CCCCCC1 (tautomer)
CC(=O)/[N+](=c1\nnc(Br)c(-c2c(F)cccc2F)[nH]1)C1CCCCCC1 (cis-trans isomerization)
CC(=O)/[N+](=c1\nnc(Br)c(-c2c(F)cccc2F)[nH]1)C1CCCCCC1 (3D coordinates assigned)
CC(=O)/[N+](=c1\nnc(Br)c(-c2c(F)cccc2F)[nH]1)C1CCCCCC1 (nonaromatic ring conformer: 74.19761558228863 kcal/mol)

>  <smiles>  (24) 
CC(=O)N(c1nnc(Br)c(-c2c(F)cccc2F)n1)C1CCCCCC1

>  <score_type>  (24) 
oracle

>  <origin>  (24) 
autodockgpu

>  <m_score__min__energy>  (24) 
-5.2800000000000002

>  <m_primary>  (24) 
energy

>  <meeko>  (24) 
{"free_energy": -4.73, "intermolecular_energy": -7.41, "internal_energy": -1.24, "cluster_size": 5, "cluster_id": 1, "rank_in_cluster": 4}

>  <energy>  (24) 
-4.73

>  <cluster_rmsd>  (24) 
1.13

>  <rmsd>  (24) 
271.51

>  <cluster>  (24) 
1

$$$$
VCUSMEIKIQENRV-DOLDNGAINA-O
     RDKit          3D

 46 48  0  0  0  0  0  0  0  0999 V2000
  141.9845   82.7131  223.3358 H   0  0  0  0  0  0  0  0  0  0  0  0
  141.8310   81.6900  222.9620 C   0  0  0  0  0  0  0  0  0  0  0  0
  141.9840   80.6020  223.8240 C   0  0  0  0  0  0  0  0  0  0  0  0
  142.2537   80.7699  224.8771 H   0  0  0  0  0  0  0  0  0  0  0  0
  141.7950   79.2990  223.3510 C   0  0  0  0  0  0  0  0  0  0  0  0
  141.9500   78.2530  224.2030 F   0  0  0  0  0  0  0  0  0  0  0  0
  141.4610   79.0780  222.0040 C   0  0  0  0  0  0  0  0  0  0  0  0
  141.2380   77.7010  221.5140 C   0  0  0  0  0  0  0  0  0  0  0  0
  140.0470   77.0130  221.7830 C   0  0  0  0  0  0  0  0  0  0  0  0
  138.5790   77.8100  222.7220 Br  0  0  0  0  0  0  0  0  0  0  0  0
  139.9150   75.7460  221.3300 N   0  0  0  0  0  0  0  0  0  0  0  0
  140.8810   75.1580  220.6290 N   0  0  0  0  0  0  0  0  0  0  0  0
  142.0420   75.8030  220.3190 C   0  0  0  0  0  0  0  0  0  0  0  0
  142.9730   75.1800  219.6120 N   0  0  0  0  0  0  0  0  0  0  0  0
  143.8650   74.2740  220.2980 C   0  0  0  0  0  0  0  0  0  0  0  0
  145.0770   74.5820  220.4500 O   0  0  0  0  0  0  0  0  0  0  0  0
  143.3700   72.9600  220.8170 C   0  0  0  0  0  0  0  0  0  0  0  0
  143.3755   72.9746  221.9169 H   0  0  0  0  0  0  0  0  0  0  0  0
  142.3449   72.7865  220.4577 H   0  0  0  0  0  0  0  0  0  0  0  0
  144.0259   72.1533  220.4577 H   0  0  0  0  0  0  0  0  0  0  0  0
  143.2310   75.4640  218.1720 C   0  0  0  0  0  0  0  0  0  0  0  0
  144.2998   75.2937  217.9755 H   0  0  0  0  0  0  0  0  0  0  0  0
  142.9740   76.9550  217.8080 C   0  0  0  0  0  0  0  0  0  0  0  0
  141.9055   77.1598  217.9704 H   0  0  0  0  0  0  0  0  0  0  0  0
  143.6518   77.5342  218.4523 H   0  0  0  0  0  0  0  0  0  0  0  0
  143.3190   77.3780  216.3650 C   0  0  0  0  0  0  0  0  0  0  0  0
  142.8705   78.3664  216.1865 H   0  0  0  0  0  0  0  0  0  0  0  0
  144.4173   77.3681  216.3049 H   0  0  0  0  0  0  0  0  0  0  0  0
  142.8310   76.4310  215.2560 C   0  0  0  0  0  0  0  0  0  0  0  0
  141.7930   76.1385  215.4730 H   0  0  0  0  0  0  0  0  0  0  0  0
  142.9074   76.9683  214.2992 H   0  0  0  0  0  0  0  0  0  0  0  0
  143.6890   75.1610  215.1490 C   0  0  0  0  0  0  0  0  0  0  0  0
  143.6590   74.8094  214.1071 H   0  0  0  0  0  0  0  0  0  0  0  0
  144.7042   75.4330  215.4736 H   0  0  0  0  0  0  0  0  0  0  0  0
  143.2220   74.0180  216.0580 C   0  0  0  0  0  0  0  0  0  0  0  0
  142.5854   73.3428  215.4673 H   0  0  0  0  0  0  0  0  0  0  0  0
  144.1263   73.5190  216.4365 H   0  0  0  0  0  0  0  0  0  0  0  0
  142.4230   74.4890  217.2840 C   0  0  0  0  0  0  0  0  0  0  0  0
  141.5116   74.9984  216.9379 H   0  0  0  0  0  0  0  0  0  0  0  0
  142.1825   73.6028  217.8897 H   0  0  0  0  0  0  0  0  0  0  0  0
  142.2100   77.0830  220.7840 N   0  0  0  0  0  0  0  0  0  0  0  0
  143.0990   77.6100  220.6540 H   0  0  0  0  0  0  0  0  0  0  0  0
  141.2920   80.1800  221.1450 C   0  0  0  0  0  0  0  0  0  0  0  0
  140.9210   79.9980  219.8520 F   0  0  0  0  0  0  0  0  0  0  0  0
  141.4830   81.4800  221.6250 C   0  0  0  0  0  0  0  0  0  0  0  0
  141.3590   82.3386  220.9487 H   0  0  0  0  0  0  0  0  0  0  0  0
  1  2  1  0
  2  3  2  0
  3  4  1  0
  3  5  1  0
  5  6  1  0
  5  7  2  0
  7  8  1  0
  8  9  2  0
  9 10  1  0
  9 11  1  0
 11 12  2  0
 12 13  1  0
 13 14  2  0
 14 15  1  0
 15 16  2  0
 15 17  1  0
 17 18  1  0
 17 19  1  0
 17 20  1  0
 14 21  1  0
 21 22  1  0
 21 23  1  0
 23 24  1  0
 23 25  1  0
 23 26  1  0
 26 27  1  0
 26 28  1  0
 26 29  1  0
 29 30  1  0
 29 31  1  0
 29 32  1  0
 32 33  1  0
 32 34  1  0
 32 35  1  0
 35 36  1  0
 35 37  1  0
 35 38  1  0
 38 39  1  0
 38 40  1  0
 13 41  1  0
 41 42  1  0
  7 43  1  0
 43 44  1  0
 43 45  2  0
 45 46  1  0
 45  2  1  0
 41  8  1  0
 38 21  1  0
M  CHG  1  14   1
M  END
>  <UniqueID>  (25) 
5

>  <SMILES>  (25) 
CC(=O)/[N+](=c1\nnc(Br)c(-c2c(F)cccc2F)[nH]1)C1CCCCCC1

>  <Energy>  (25) 
74.19761558228863

>  <Genealogy>  (25) 
CC(=O)[NH+](c1nnc(Br)c(-c2c(F)cccc2F)n1)C1CCCCCC1 (protonated)
CC(=O)[N+](=c1nnc(Br)c(-c2c(F)cccc2F)[nH]1)C1CCCCCC1 (tautomer)
CC(=O)/[N+](=c1\nnc(Br)c(-c2c(F)cccc2F)[nH]1)C1CCCCCC1 (cis-trans isomerization)
CC(=O)/[N+](=c1\nnc(Br)c(-c2c(F)cccc2F)[nH]1)C1CCCCCC1 (3D coordinates assigned)
CC(=O)/[N+](=c1\nnc(Br)c(-c2c(F)cccc2F)[nH]1)C1CCCCCC1 (nonaromatic ring conformer: 74.19761558228863 kcal/mol)

>  <smiles>  (25) 
CC(=O)N(c1nnc(Br)c(-c2c(F)cccc2F)n1)C1CCCCCC1

>  <score_type>  (25) 
oracle

>  <origin>  (25) 
autodockgpu

>  <m_score__min__energy>  (25) 
-5.2800000000000002

>  <m_primary>  (25) 
energy

>  <meeko>  (25) 
{"free_energy": -4.11, "intermolecular_energy": -6.8, "internal_energy": -1.31, "cluster_size": 1, "cluster_id": 6, "rank_in_cluster": 1}

>  <energy>  (25) 
-4.66

>  <cluster_rmsd>  (25) 
1.33

>  <rmsd>  (25) 
271.54

>  <cluster>  (25) 
1

$$$$
VCUSMEIKIQENRV-DOLDNGAINA-O
     RDKit          3D

 46 48  0  0  0  0  0  0  0  0999 V2000
  140.7010   82.0091  224.5676 H   0  0  0  0  0  0  0  0  0  0  0  0
  140.8930   81.2380  223.8070 C   0  0  0  0  0  0  0  0  0  0  0  0
  142.1500   80.6340  223.7280 C   0  0  0  0  0  0  0  0  0  0  0  0
  142.9454   80.9278  224.4288 H   0  0  0  0  0  0  0  0  0  0  0  0
  142.3990   79.6560  222.7590 C   0  0  0  0  0  0  0  0  0  0  0  0
  143.6270   79.0800  222.6950 F   0  0  0  0  0  0  0  0  0  0  0  0
  141.3900   79.2870  221.8530 C   0  0  0  0  0  0  0  0  0  0  0  0
  141.6500   78.2350  220.8460 C   0  0  0  0  0  0  0  0  0  0  0  0
  141.9390   78.5570  219.5120 C   0  0  0  0  0  0  0  0  0  0  0  0
  142.1070   80.3620  218.8930 Br  0  0  0  0  0  0  0  0  0  0  0  0
  142.1420   77.5490  218.6330 N   0  0  0  0  0  0  0  0  0  0  0  0
  142.0870   76.2760  219.0160 N   0  0  0  0  0  0  0  0  0  0  0  0
  141.8410   75.9220  220.3100 C   0  0  0  0  0  0  0  0  0  0  0  0
  141.8030   74.6410  220.6470 N   0  0  0  0  0  0  0  0  0  0  0  0
  140.5250   74.0560  220.9830 C   0  0  0  0  0  0  0  0  0  0  0  0
  140.2800   73.7290  222.1750 O   0  0  0  0  0  0  0  0  0  0  0  0
  139.4920   73.8170  219.9270 C   0  0  0  0  0  0  0  0  0  0  0  0
  138.5259   73.5935  220.4031 H   0  0  0  0  0  0  0  0  0  0  0  0
  139.3929   74.7160  219.3008 H   0  0  0  0  0  0  0  0  0  0  0  0
  139.7979   72.9659  219.3008 H   0  0  0  0  0  0  0  0  0  0  0  0
  143.0250   73.8080  220.8220 C   0  0  0  0  0  0  0  0  0  0  0  0
  143.2377   73.7362  221.8988 H   0  0  0  0  0  0  0  0  0  0  0  0
  144.2860   74.4670  220.1920 C   0  0  0  0  0  0  0  0  0  0  0  0
  144.3209   74.1766  219.1316 H   0  0  0  0  0  0  0  0  0  0  0  0
  144.1685   75.5469  220.3652 H   0  0  0  0  0  0  0  0  0  0  0  0
  145.6430   74.0960  220.8250 C   0  0  0  0  0  0  0  0  0  0  0  0
  146.3672   74.8785  220.5543 H   0  0  0  0  0  0  0  0  0  0  0  0
  145.4568   74.0145  221.9060 H   0  0  0  0  0  0  0  0  0  0  0  0
  146.2310   72.7400  220.3980 C   0  0  0  0  0  0  0  0  0  0  0  0
  147.0984   72.9201  219.7459 H   0  0  0  0  0  0  0  0  0  0  0  0
  146.5199   72.1963  221.3095 H   0  0  0  0  0  0  0  0  0  0  0  0
  145.2120   71.8760  219.6380 C   0  0  0  0  0  0  0  0  0  0  0  0
  144.8542   72.4471  218.7686 H   0  0  0  0  0  0  0  0  0  0  0  0
  145.7309   70.9495  219.3512 H   0  0  0  0  0  0  0  0  0  0  0  0
  143.9970   71.4630  220.4770 C   0  0  0  0  0  0  0  0  0  0  0  0
  143.7110   70.4395  220.1932 H   0  0  0  0  0  0  0  0  0  0  0  0
  144.2956   71.5385  221.5330 H   0  0  0  0  0  0  0  0  0  0  0  0
  142.7760   72.3770  220.2900 C   0  0  0  0  0  0  0  0  0  0  0  0
  142.5388   72.4349  219.2174 H   0  0  0  0  0  0  0  0  0  0  0  0
  141.9425   71.9456  220.8638 H   0  0  0  0  0  0  0  0  0  0  0  0
  141.6110   76.9250  221.2180 N   0  0  0  0  0  0  0  0  0  0  0  0
  141.3410   76.7300  222.2050 H   0  0  0  0  0  0  0  0  0  0  0  0
  140.1210   79.8880  221.9490 C   0  0  0  0  0  0  0  0  0  0  0  0
  139.1150   79.5140  221.1200 F   0  0  0  0  0  0  0  0  0  0  0  0
  139.8790   80.8640  222.9210 C   0  0  0  0  0  0  0  0  0  0  0  0
  138.8887   81.3381  222.9883 H   0  0  0  0  0  0  0  0  0  0  0  0
  1  2  1  0
  2  3  2  0
  3  4  1  0
  3  5  1  0
  5  6  1  0
  5  7  2  0
  7  8  1  0
  8  9  2  0
  9 10  1  0
  9 11  1  0
 11 12  2  0
 12 13  1  0
 13 14  2  0
 14 15  1  0
 15 16  2  0
 15 17  1  0
 17 18  1  0
 17 19  1  0
 17 20  1  0
 14 21  1  0
 21 22  1  0
 21 23  1  0
 23 24  1  0
 23 25  1  0
 23 26  1  0
 26 27  1  0
 26 28  1  0
 26 29  1  0
 29 30  1  0
 29 31  1  0
 29 32  1  0
 32 33  1  0
 32 34  1  0
 32 35  1  0
 35 36  1  0
 35 37  1  0
 35 38  1  0
 38 39  1  0
 38 40  1  0
 13 41  1  0
 41 42  1  0
  7 43  1  0
 43 44  1  0
 43 45  2  0
 45 46  1  0
 45  2  1  0
 41  8  1  0
 38 21  1  0
M  CHG  1  14   1
M  END
>  <UniqueID>  (26) 
5

>  <SMILES>  (26) 
CC(=O)/[N+](=c1\nnc(Br)c(-c2c(F)cccc2F)[nH]1)C1CCCCCC1

>  <Energy>  (26) 
74.19761558228863

>  <Genealogy>  (26) 
CC(=O)[NH+](c1nnc(Br)c(-c2c(F)cccc2F)n1)C1CCCCCC1 (protonated)
CC(=O)[N+](=c1nnc(Br)c(-c2c(F)cccc2F)[nH]1)C1CCCCCC1 (tautomer)
CC(=O)/[N+](=c1\nnc(Br)c(-c2c(F)cccc2F)[nH]1)C1CCCCCC1 (cis-trans isomerization)
CC(=O)/[N+](=c1\nnc(Br)c(-c2c(F)cccc2F)[nH]1)C1CCCCCC1 (3D coordinates assigned)
CC(=O)/[N+](=c1\nnc(Br)c(-c2c(F)cccc2F)[nH]1)C1CCCCCC1 (nonaromatic ring conformer: 74.19761558228863 kcal/mol)

>  <smiles>  (26) 
CC(=O)N(c1nnc(Br)c(-c2c(F)cccc2F)n1)C1CCCCCC1

>  <score_type>  (26) 
oracle

>  <origin>  (26) 
autodockgpu

>  <m_score__min__energy>  (26) 
-5.2800000000000002

>  <m_primary>  (26) 
energy

>  <meeko>  (26) 
{"free_energy": -5.14, "intermolecular_energy": -7.83, "internal_energy": -1.27, "cluster_size": 5, "cluster_id": 2, "rank_in_cluster": 1}

>  <energy>  (26) 
-5.14

>  <cluster_rmsd>  (26) 
0.0

>  <rmsd>  (26) 
271.75

>  <cluster>  (26) 
2

$$$$
VCUSMEIKIQENRV-DOLDNGAINA-O
     RDKit          3D

 46 48  0  0  0  0  0  0  0  0999 V2000
  143.1656   82.1835  222.9928 H   0  0  0  0  0  0  0  0  0  0  0  0
  142.5560   81.2760  222.8710 C   0  0  0  0  0  0  0  0  0  0  0  0
  142.5680   80.2890  223.8600 C   0  0  0  0  0  0  0  0  0  0  0  0
  143.1836   80.4231  224.7617 H   0  0  0  0  0  0  0  0  0  0  0  0
  141.7990   79.1310  223.7060 C   0  0  0  0  0  0  0  0  0  0  0  0
  141.8240   78.1820  224.6770 F   0  0  0  0  0  0  0  0  0  0  0  0
  141.0190   78.9500  222.5510 C   0  0  0  0  0  0  0  0  0  0  0  0
  140.1880   77.7350  222.4040 C   0  0  0  0  0  0  0  0  0  0  0  0
  138.7920   77.7840  222.5320 C   0  0  0  0  0  0  0  0  0  0  0  0
  137.8340   79.4180  222.8180 Br  0  0  0  0  0  0  0  0  0  0  0  0
  138.0910   76.6330  222.4130 N   0  0  0  0  0  0  0  0  0  0  0  0
  138.6990   75.4760  222.1650 N   0  0  0  0  0  0  0  0  0  0  0  0
  140.0500   75.3910  222.0020 C   0  0  0  0  0  0  0  0  0  0  0  0
  140.6100   74.2170  221.7490 N   0  0  0  0  0  0  0  0  0  0  0  0
  139.9160   73.0210  222.1650 C   0  0  0  0  0  0  0  0  0  0  0  0
  140.3730   72.3280  223.1130 O   0  0  0  0  0  0  0  0  0  0  0  0
  138.6650   72.5810  221.4700 C   0  0  0  0  0  0  0  0  0  0  0  0
  137.9045   72.3135  222.2184 H   0  0  0  0  0  0  0  0  0  0  0  0
  138.2877   73.4004  220.8405 H   0  0  0  0  0  0  0  0  0  0  0  0
  138.8837   71.7058  220.8405 H   0  0  0  0  0  0  0  0  0  0  0  0
  141.9780   74.0730  221.1760 C   0  0  0  0  0  0  0  0  0  0  0  0
  142.7066   74.2371  221.9835 H   0  0  0  0  0  0  0  0  0  0  0  0
  142.2890   75.1610  220.1080 C   0  0  0  0  0  0  0  0  0  0  0  0
  141.6629   74.9544  219.2275 H   0  0  0  0  0  0  0  0  0  0  0  0
  142.0796   76.1222  220.6002 H   0  0  0  0  0  0  0  0  0  0  0  0
  143.7540   75.2550  219.6310 C   0  0  0  0  0  0  0  0  0  0  0  0
  143.7872   74.9394  218.5778 H   0  0  0  0  0  0  0  0  0  0  0  0
  144.0553   76.3003  219.7938 H   0  0  0  0  0  0  0  0  0  0  0  0
  144.7670   74.4010  220.4120 C   0  0  0  0  0  0  0  0  0  0  0  0
  145.7824   74.7573  220.1838 H   0  0  0  0  0  0  0  0  0  0  0  0
  144.5413   74.5018  221.4839 H   0  0  0  0  0  0  0  0  0  0  0  0
  144.6690   72.9060  220.0430 C   0  0  0  0  0  0  0  0  0  0  0  0
  144.4124   72.8290  218.9761 H   0  0  0  0  0  0  0  0  0  0  0  0
  145.6448   72.4554  220.2771 H   0  0  0  0  0  0  0  0  0  0  0  0
  143.6180   72.1330  220.8490 C   0  0  0  0  0  0  0  0  0  0  0  0
  143.6615   71.0749  220.5515 H   0  0  0  0  0  0  0  0  0  0  0  0
  143.8566   72.2805  221.9126 H   0  0  0  0  0  0  0  0  0  0  0  0
  142.1810   72.6380  220.6370 C   0  0  0  0  0  0  0  0  0  0  0  0
  141.9585   72.6299  219.5598 H   0  0  0  0  0  0  0  0  0  0  0  0
  141.5046   71.9712  221.1918 H   0  0  0  0  0  0  0  0  0  0  0  0
  140.7880   76.5410  222.1390 N   0  0  0  0  0  0  0  0  0  0  0  0
  141.8280   76.5400  222.1050 H   0  0  0  0  0  0  0  0  0  0  0  0
  140.9980   79.9550  221.5670 C   0  0  0  0  0  0  0  0  0  0  0  0
  140.2150   79.8280  220.4650 F   0  0  0  0  0  0  0  0  0  0  0  0
  141.7700   81.1110  221.7270 C   0  0  0  0  0  0  0  0  0  0  0  0
  141.7583   81.8910  220.9514 H   0  0  0  0  0  0  0  0  0  0  0  0
  1  2  1  0
  2  3  2  0
  3  4  1  0
  3  5  1  0
  5  6  1  0
  5  7  2  0
  7  8  1  0
  8  9  2  0
  9 10  1  0
  9 11  1  0
 11 12  2  0
 12 13  1  0
 13 14  2  0
 14 15  1  0
 15 16  2  0
 15 17  1  0
 17 18  1  0
 17 19  1  0
 17 20  1  0
 14 21  1  0
 21 22  1  0
 21 23  1  0
 23 24  1  0
 23 25  1  0
 23 26  1  0
 26 27  1  0
 26 28  1  0
 26 29  1  0
 29 30  1  0
 29 31  1  0
 29 32  1  0
 32 33  1  0
 32 34  1  0
 32 35  1  0
 35 36  1  0
 35 37  1  0
 35 38  1  0
 38 39  1  0
 38 40  1  0
 13 41  1  0
 41 42  1  0
  7 43  1  0
 43 44  1  0
 43 45  2  0
 45 46  1  0
 45  2  1  0
 41  8  1  0
 38 21  1  0
M  CHG  1  14   1
M  END
>  <UniqueID>  (27) 
5

>  <SMILES>  (27) 
CC(=O)/[N+](=c1\nnc(Br)c(-c2c(F)cccc2F)[nH]1)C1CCCCCC1

>  <Energy>  (27) 
74.19761558228863

>  <Genealogy>  (27) 
CC(=O)[NH+](c1nnc(Br)c(-c2c(F)cccc2F)n1)C1CCCCCC1 (protonated)
CC(=O)[N+](=c1nnc(Br)c(-c2c(F)cccc2F)[nH]1)C1CCCCCC1 (tautomer)
CC(=O)/[N+](=c1\nnc(Br)c(-c2c(F)cccc2F)[nH]1)C1CCCCCC1 (cis-trans isomerization)
CC(=O)/[N+](=c1\nnc(Br)c(-c2c(F)cccc2F)[nH]1)C1CCCCCC1 (3D coordinates assigned)
CC(=O)/[N+](=c1\nnc(Br)c(-c2c(F)cccc2F)[nH]1)C1CCCCCC1 (nonaromatic ring conformer: 74.19761558228863 kcal/mol)

>  <smiles>  (27) 
CC(=O)N(c1nnc(Br)c(-c2c(F)cccc2F)n1)C1CCCCCC1

>  <score_type>  (27) 
oracle

>  <origin>  (27) 
autodockgpu

>  <m_score__min__energy>  (27) 
-5.2800000000000002

>  <m_primary>  (27) 
energy

>  <meeko>  (27) 
{"free_energy": -5.02, "intermolecular_energy": -7.71, "internal_energy": -1.13, "cluster_size": 5, "cluster_id": 1, "rank_in_cluster": 3}

>  <energy>  (27) 
-5.05

>  <cluster_rmsd>  (27) 
0.4

>  <rmsd>  (27) 
271.84

>  <cluster>  (27) 
2

$$$$
VCUSMEIKIQENRV-DOLDNGAINA-O
     RDKit          3D

 46 48  0  0  0  0  0  0  0  0999 V2000
  146.4394   73.0188  217.3650 H   0  0  0  0  0  0  0  0  0  0  0  0
  145.6130   73.3560  218.0080 C   0  0  0  0  0  0  0  0  0  0  0  0
  144.4260   73.8190  217.4340 C   0  0  0  0  0  0  0  0  0  0  0  0
  144.3171   73.8406  216.3396 H   0  0  0  0  0  0  0  0  0  0  0  0
  143.3760   74.2550  218.2490 C   0  0  0  0  0  0  0  0  0  0  0  0
  142.2310   74.7050  217.6750 F   0  0  0  0  0  0  0  0  0  0  0  0
  143.5140   74.2390  219.6480 C   0  0  0  0  0  0  0  0  0  0  0  0
  142.3920   74.6770  220.5060 C   0  0  0  0  0  0  0  0  0  0  0  0
  141.5880   73.7530  221.1870 C   0  0  0  0  0  0  0  0  0  0  0  0
  141.9130   71.8650  221.1420 Br  0  0  0  0  0  0  0  0  0  0  0  0
  140.5600   74.2160  221.9350 N   0  0  0  0  0  0  0  0  0  0  0  0
  140.3170   75.5200  222.0430 N   0  0  0  0  0  0  0  0  0  0  0  0
  141.0950   76.4530  221.4220 C   0  0  0  0  0  0  0  0  0  0  0  0
  140.8180   77.7410  221.5650 N   0  0  0  0  0  0  0  0  0  0  0  0
  140.9500   78.6040  220.4140 C   0  0  0  0  0  0  0  0  0  0  0  0
  141.8800   79.4520  220.3710 O   0  0  0  0  0  0  0  0  0  0  0  0
  139.9820   78.5150  219.2760 C   0  0  0  0  0  0  0  0  0  0  0  0
  138.9596   78.4210  219.6708 H   0  0  0  0  0  0  0  0  0  0  0  0
  140.0552   79.4237  218.6604 H   0  0  0  0  0  0  0  0  0  0  0  0
  140.2197   77.6349  218.6604 H   0  0  0  0  0  0  0  0  0  0  0  0
  140.5050   78.3660  222.8810 C   0  0  0  0  0  0  0  0  0  0  0  0
  139.8362   77.6879  223.4313 H   0  0  0  0  0  0  0  0  0  0  0  0
  139.7150   79.6980  222.7290 C   0  0  0  0  0  0  0  0  0  0  0  0
  139.7414   79.9836  221.6671 H   0  0  0  0  0  0  0  0  0  0  0  0
  138.7082   79.4870  223.1187 H   0  0  0  0  0  0  0  0  0  0  0  0
  140.2300   80.8980  223.5510 C   0  0  0  0  0  0  0  0  0  0  0  0
  139.4208   81.6410  223.6072 H   0  0  0  0  0  0  0  0  0  0  0  0
  140.5274   80.4867  224.5269 H   0  0  0  0  0  0  0  0  0  0  0  0
  141.4800   81.6020  222.9950 C   0  0  0  0  0  0  0  0  0  0  0  0
  141.4186   81.6175  221.8968 H   0  0  0  0  0  0  0  0  0  0  0  0
  141.5057   82.6206  223.4095 H   0  0  0  0  0  0  0  0  0  0  0  0
  142.7800   80.8920  223.4080 C   0  0  0  0  0  0  0  0  0  0  0  0
  143.6249   81.4150  222.9362 H   0  0  0  0  0  0  0  0  0  0  0  0
  142.8243   80.9219  224.5067 H   0  0  0  0  0  0  0  0  0  0  0  0
  142.8390   79.4150  223.0010 C   0  0  0  0  0  0  0  0  0  0  0  0
  142.6680   79.3466  221.9165 H   0  0  0  0  0  0  0  0  0  0  0  0
  143.8308   79.0404  223.2942 H   0  0  0  0  0  0  0  0  0  0  0  0
  141.7980   78.5350  223.7130 C   0  0  0  0  0  0  0  0  0  0  0  0
  142.2365   77.5420  223.8910 H   0  0  0  0  0  0  0  0  0  0  0  0
  141.5282   79.0301  224.6575 H   0  0  0  0  0  0  0  0  0  0  0  0
  142.1310   76.0080  220.6410 N   0  0  0  0  0  0  0  0  0  0  0  0
  142.7190   76.6570  220.0760 H   0  0  0  0  0  0  0  0  0  0  0  0
  144.7060   73.7550  220.2190 C   0  0  0  0  0  0  0  0  0  0  0  0
  144.8460   73.6810  221.5670 F   0  0  0  0  0  0  0  0  0  0  0  0
  145.7510   73.3210  219.3980 C   0  0  0  0  0  0  0  0  0  0  0  0
  146.6843   72.9510  219.8475 H   0  0  0  0  0  0  0  0  0  0  0  0
  1  2  1  0
  2  3  2  0
  3  4  1  0
  3  5  1  0
  5  6  1  0
  5  7  2  0
  7  8  1  0
  8  9  2  0
  9 10  1  0
  9 11  1  0
 11 12  2  0
 12 13  1  0
 13 14  2  0
 14 15  1  0
 15 16  2  0
 15 17  1  0
 17 18  1  0
 17 19  1  0
 17 20  1  0
 14 21  1  0
 21 22  1  0
 21 23  1  0
 23 24  1  0
 23 25  1  0
 23 26  1  0
 26 27  1  0
 26 28  1  0
 26 29  1  0
 29 30  1  0
 29 31  1  0
 29 32  1  0
 32 33  1  0
 32 34  1  0
 32 35  1  0
 35 36  1  0
 35 37  1  0
 35 38  1  0
 38 39  1  0
 38 40  1  0
 13 41  1  0
 41 42  1  0
  7 43  1  0
 43 44  1  0
 43 45  2  0
 45 46  1  0
 45  2  1  0
 41  8  1  0
 38 21  1  0
M  CHG  1  14   1
M  END
>  <UniqueID>  (28) 
5

>  <SMILES>  (28) 
CC(=O)/[N+](=c1\nnc(Br)c(-c2c(F)cccc2F)[nH]1)C1CCCCCC1

>  <Energy>  (28) 
74.19761558228863

>  <Genealogy>  (28) 
CC(=O)[NH+](c1nnc(Br)c(-c2c(F)cccc2F)n1)C1CCCCCC1 (protonated)
CC(=O)[N+](=c1nnc(Br)c(-c2c(F)cccc2F)[nH]1)C1CCCCCC1 (tautomer)
CC(=O)/[N+](=c1\nnc(Br)c(-c2c(F)cccc2F)[nH]1)C1CCCCCC1 (cis-trans isomerization)
CC(=O)/[N+](=c1\nnc(Br)c(-c2c(F)cccc2F)[nH]1)C1CCCCCC1 (3D coordinates assigned)
CC(=O)/[N+](=c1\nnc(Br)c(-c2c(F)cccc2F)[nH]1)C1CCCCCC1 (nonaromatic ring conformer: 74.19761558228863 kcal/mol)

>  <smiles>  (28) 
CC(=O)N(c1nnc(Br)c(-c2c(F)cccc2F)n1)C1CCCCCC1

>  <score_type>  (28) 
oracle

>  <origin>  (28) 
autodockgpu

>  <m_score__min__energy>  (28) 
-5.2800000000000002

>  <m_primary>  (28) 
energy

>  <meeko>  (28) 
{"free_energy": -4.99, "intermolecular_energy": -7.68, "internal_energy": -1.36, "cluster_size": 3, "cluster_id": 4, "rank_in_cluster": 1}

>  <energy>  (28) 
-4.97

>  <cluster_rmsd>  (28) 
0.54

>  <rmsd>  (28) 
271.68

>  <cluster>  (28) 
2

$$$$
VCUSMEIKIQENRV-DOLDNGAINA-O
     RDKit          3D

 46 48  0  0  0  0  0  0  0  0999 V2000
  146.0922   73.5538  217.3218 H   0  0  0  0  0  0  0  0  0  0  0  0
  145.2480   73.7470  218.0000 C   0  0  0  0  0  0  0  0  0  0  0  0
  145.3500   73.4170  219.3530 C   0  0  0  0  0  0  0  0  0  0  0  0
  146.2770   72.9685  219.7397 H   0  0  0  0  0  0  0  0  0  0  0  0
  144.2770   73.6550  220.2180 C   0  0  0  0  0  0  0  0  0  0  0  0
  144.3940   73.3260  221.5300 F   0  0  0  0  0  0  0  0  0  0  0  0
  143.0860   74.2180  219.7270 C   0  0  0  0  0  0  0  0  0  0  0  0
  141.9630   74.4920  220.6490 C   0  0  0  0  0  0  0  0  0  0  0  0
  141.1790   73.4550  221.1740 C   0  0  0  0  0  0  0  0  0  0  0  0
  141.5360   71.6050  220.8220 Br  0  0  0  0  0  0  0  0  0  0  0  0
  140.1500   73.7720  221.9920 N   0  0  0  0  0  0  0  0  0  0  0  0
  139.8850   75.0360  222.3120 N   0  0  0  0  0  0  0  0  0  0  0  0
  140.6430   76.0710  221.8480 C   0  0  0  0  0  0  0  0  0  0  0  0
  140.3460   77.3140  222.2000 N   0  0  0  0  0  0  0  0  0  0  0  0
  139.0080   77.7970  221.9490 C   0  0  0  0  0  0  0  0  0  0  0  0
  138.8130   78.6690  221.0610 O   0  0  0  0  0  0  0  0  0  0  0  0
  137.8480   77.2870  222.7460 C   0  0  0  0  0  0  0  0  0  0  0  0
  138.0693   77.3843  223.8191 H   0  0  0  0  0  0  0  0  0  0  0  0
  136.9497   77.8732  222.5023 H   0  0  0  0  0  0  0  0  0  0  0  0
  137.6726   76.2288  222.5023 H   0  0  0  0  0  0  0  0  0  0  0  0
  141.3560   78.2770  222.7200 C   0  0  0  0  0  0  0  0  0  0  0  0
  142.0326   77.7325  223.3951 H   0  0  0  0  0  0  0  0  0  0  0  0
  140.7130   79.3960  223.5900 C   0  0  0  0  0  0  0  0  0  0  0  0
  139.7763   79.7029  223.1018 H   0  0  0  0  0  0  0  0  0  0  0  0
  140.5822   78.9517  224.5877 H   0  0  0  0  0  0  0  0  0  0  0  0
  141.5630   80.6640  223.8140 C   0  0  0  0  0  0  0  0  0  0  0  0
  141.0152   81.3198  224.5067 H   0  0  0  0  0  0  0  0  0  0  0  0
  142.5297   80.3115  224.2029 H   0  0  0  0  0  0  0  0  0  0  0  0
  141.8920   81.4800  222.5510 C   0  0  0  0  0  0  0  0  0  0  0  0
  141.7557   82.5485  222.7740 H   0  0  0  0  0  0  0  0  0  0  0  0
  142.9319   81.2598  222.2678 H   0  0  0  0  0  0  0  0  0  0  0  0
  140.9880   81.1020  221.3630 C   0  0  0  0  0  0  0  0  0  0  0  0
  139.9588   80.9864  221.7336 H   0  0  0  0  0  0  0  0  0  0  0  0
  141.0805   81.9087  220.6210 H   0  0  0  0  0  0  0  0  0  0  0  0
  141.3980   79.8020  220.6620 C   0  0  0  0  0  0  0  0  0  0  0  0
  140.4859   79.2844  220.3300 H   0  0  0  0  0  0  0  0  0  0  0  0
  142.0516   80.0826  219.8229 H   0  0  0  0  0  0  0  0  0  0  0  0
  142.2020   78.8430  221.5550 C   0  0  0  0  0  0  0  0  0  0  0  0
  142.5622   78.0052  220.9399 H   0  0  0  0  0  0  0  0  0  0  0  0
  143.0378   79.4101  221.9907 H   0  0  0  0  0  0  0  0  0  0  0  0
  141.6810   75.7780  221.0000 N   0  0  0  0  0  0  0  0  0  0  0  0
  142.2540   76.5200  220.5460 H   0  0  0  0  0  0  0  0  0  0  0  0
  142.9960   74.5640  218.3660 C   0  0  0  0  0  0  0  0  0  0  0  0
  141.8770   75.1550  217.8760 F   0  0  0  0  0  0  0  0  0  0  0  0
  144.0730   74.3230  217.5070 C   0  0  0  0  0  0  0  0  0  0  0  0
  143.9957   74.5869  216.4419 H   0  0  0  0  0  0  0  0  0  0  0  0
  1  2  1  0
  2  3  2  0
  3  4  1  0
  3  5  1  0
  5  6  1  0
  5  7  2  0
  7  8  1  0
  8  9  2  0
  9 10  1  0
  9 11  1  0
 11 12  2  0
 12 13  1  0
 13 14  2  0
 14 15  1  0
 15 16  2  0
 15 17  1  0
 17 18  1  0
 17 19  1  0
 17 20  1  0
 14 21  1  0
 21 22  1  0
 21 23  1  0
 23 24  1  0
 23 25  1  0
 23 26  1  0
 26 27  1  0
 26 28  1  0
 26 29  1  0
 29 30  1  0
 29 31  1  0
 29 32  1  0
 32 33  1  0
 32 34  1  0
 32 35  1  0
 35 36  1  0
 35 37  1  0
 35 38  1  0
 38 39  1  0
 38 40  1  0
 13 41  1  0
 41 42  1  0
  7 43  1  0
 43 44  1  0
 43 45  2  0
 45 46  1  0
 45  2  1  0
 41  8  1  0
 38 21  1  0
M  CHG  1  14   1
M  END
>  <UniqueID>  (29) 
5

>  <SMILES>  (29) 
CC(=O)/[N+](=c1\nnc(Br)c(-c2c(F)cccc2F)[nH]1)C1CCCCCC1

>  <Energy>  (29) 
74.19761558228863

>  <Genealogy>  (29) 
CC(=O)[NH+](c1nnc(Br)c(-c2c(F)cccc2F)n1)C1CCCCCC1 (protonated)
CC(=O)[N+](=c1nnc(Br)c(-c2c(F)cccc2F)[nH]1)C1CCCCCC1 (tautomer)
CC(=O)/[N+](=c1\nnc(Br)c(-c2c(F)cccc2F)[nH]1)C1CCCCCC1 (cis-trans isomerization)
CC(=O)/[N+](=c1\nnc(Br)c(-c2c(F)cccc2F)[nH]1)C1CCCCCC1 (3D coordinates assigned)
CC(=O)/[N+](=c1\nnc(Br)c(-c2c(F)cccc2F)[nH]1)C1CCCCCC1 (nonaromatic ring conformer: 74.19761558228863 kcal/mol)

>  <smiles>  (29) 
CC(=O)N(c1nnc(Br)c(-c2c(F)cccc2F)n1)C1CCCCCC1

>  <score_type>  (29) 
oracle

>  <origin>  (29) 
autodockgpu

>  <m_score__min__energy>  (29) 
-5.2800000000000002

>  <m_primary>  (29) 
energy

>  <meeko>  (29) 
{"free_energy": -4.65, "intermolecular_energy": -7.34, "internal_energy": -1.24, "cluster_size": 3, "cluster_id": 4, "rank_in_cluster": 2}

>  <energy>  (29) 
-4.78

>  <cluster_rmsd>  (29) 
0.67

>  <rmsd>  (29) 
271.78

>  <cluster>  (29) 
2

$$$$
VCUSMEIKIQENRV-DOLDNGAINA-O
     RDKit          3D

 46 48  0  0  0  0  0  0  0  0999 V2000
  142.6636   82.3941  224.1606 H   0  0  0  0  0  0  0  0  0  0  0  0
  142.3430   81.4950  223.6140 C   0  0  0  0  0  0  0  0  0  0  0  0
  142.4610   80.2360  224.2100 C   0  0  0  0  0  0  0  0  0  0  0  0
  142.8715   80.1462  225.2266 H   0  0  0  0  0  0  0  0  0  0  0  0
  142.0580   79.0900  223.5160 C   0  0  0  0  0  0  0  0  0  0  0  0
  142.1820   77.8750  224.1090 F   0  0  0  0  0  0  0  0  0  0  0  0
  141.5450   79.1980  222.2110 C   0  0  0  0  0  0  0  0  0  0  0  0
  141.0980   77.9870  221.4910 C   0  0  0  0  0  0  0  0  0  0  0  0
  139.7970   77.4850  221.6400 C   0  0  0  0  0  0  0  0  0  0  0  0
  138.4660   78.3580  222.7070 Br  0  0  0  0  0  0  0  0  0  0  0  0
  139.4580   76.3580  220.9740 N   0  0  0  0  0  0  0  0  0  0  0  0
  140.3260   75.7370  220.1790 N   0  0  0  0  0  0  0  0  0  0  0  0
  141.5900   76.2100  219.9830 C   0  0  0  0  0  0  0  0  0  0  0  0
  142.4170   75.5610  219.1760 N   0  0  0  0  0  0  0  0  0  0  0  0
  142.5020   75.9810  217.7960 C   0  0  0  0  0  0  0  0  0  0  0  0
  142.0390   75.2430  216.8870 O   0  0  0  0  0  0  0  0  0  0  0  0
  143.1520   77.2790  217.4300 C   0  0  0  0  0  0  0  0  0  0  0  0
  143.4247   77.8236  218.3460 H   0  0  0  0  0  0  0  0  0  0  0  0
  144.0575   77.0814  216.8375 H   0  0  0  0  0  0  0  0  0  0  0  0
  142.4513   77.8857  216.8375 H   0  0  0  0  0  0  0  0  0  0  0  0
  143.1660   74.3400  219.5870 C   0  0  0  0  0  0  0  0  0  0  0  0
  143.5339   73.8418  218.6779 H   0  0  0  0  0  0  0  0  0  0  0  0
  142.2530   73.2960  220.2920 C   0  0  0  0  0  0  0  0  0  0  0  0
  142.1880   73.5718  221.3549 H   0  0  0  0  0  0  0  0  0  0  0  0
  141.2952   73.3336  219.7524 H   0  0  0  0  0  0  0  0  0  0  0  0
  142.7090   71.8240  220.2160 C   0  0  0  0  0  0  0  0  0  0  0  0
  142.0973   71.2442  220.9229 H   0  0  0  0  0  0  0  0  0  0  0  0
  142.5815   71.5254  219.1650 H   0  0  0  0  0  0  0  0  0  0  0  0
  144.1880   71.5640  220.5480 C   0  0  0  0  0  0  0  0  0  0  0  0
  144.3653   71.8241  221.6020 H   0  0  0  0  0  0  0  0  0  0  0  0
  144.3945   70.5005  220.3572 H   0  0  0  0  0  0  0  0  0  0  0  0
  145.1370   72.3940  219.6670 C   0  0  0  0  0  0  0  0  0  0  0  0
  146.0451   71.8015  219.4818 H   0  0  0  0  0  0  0  0  0  0  0  0
  144.5909   72.6289  218.7415 H   0  0  0  0  0  0  0  0  0  0  0  0
  145.5520   73.7320  220.2920 C   0  0  0  0  0  0  0  0  0  0  0  0
  145.9717   73.5340  221.2893 H   0  0  0  0  0  0  0  0  0  0  0  0
  146.2844   74.1909  219.6116 H   0  0  0  0  0  0  0  0  0  0  0  0
  144.3930   74.7300  220.4430 C   0  0  0  0  0  0  0  0  0  0  0  0
  144.0905   74.7632  221.5001 H   0  0  0  0  0  0  0  0  0  0  0  0
  144.7473   75.7115  220.0949 H   0  0  0  0  0  0  0  0  0  0  0  0
  141.9670   77.3410  220.6630 N   0  0  0  0  0  0  0  0  0  0  0  0
  142.9370   77.7160  220.6230 H   0  0  0  0  0  0  0  0  0  0  0  0
  141.4140   80.4710  221.6240 C   0  0  0  0  0  0  0  0  0  0  0  0
  140.8750   80.6080  220.3860 F   0  0  0  0  0  0  0  0  0  0  0  0
  141.8180   81.6120  222.3240 C   0  0  0  0  0  0  0  0  0  0  0  0
  141.7224   82.6040  221.8584 H   0  0  0  0  0  0  0  0  0  0  0  0
  1  2  1  0
  2  3  2  0
  3  4  1  0
  3  5  1  0
  5  6  1  0
  5  7  2  0
  7  8  1  0
  8  9  2  0
  9 10  1  0
  9 11  1  0
 11 12  2  0
 12 13  1  0
 13 14  2  0
 14 15  1  0
 15 16  2  0
 15 17  1  0
 17 18  1  0
 17 19  1  0
 17 20  1  0
 14 21  1  0
 21 22  1  0
 21 23  1  0
 23 24  1  0
 23 25  1  0
 23 26  1  0
 26 27  1  0
 26 28  1  0
 26 29  1  0
 29 30  1  0
 29 31  1  0
 29 32  1  0
 32 33  1  0
 32 34  1  0
 32 35  1  0
 35 36  1  0
 35 37  1  0
 35 38  1  0
 38 39  1  0
 38 40  1  0
 13 41  1  0
 41 42  1  0
  7 43  1  0
 43 44  1  0
 43 45  2  0
 45 46  1  0
 45  2  1  0
 41  8  1  0
 38 21  1  0
M  CHG  1  14   1
M  END
>  <UniqueID>  (30) 
5

>  <SMILES>  (30) 
CC(=O)/[N+](=c1\nnc(Br)c(-c2c(F)cccc2F)[nH]1)C1CCCCCC1

>  <Energy>  (30) 
74.19761558228863

>  <Genealogy>  (30) 
CC(=O)[NH+](c1nnc(Br)c(-c2c(F)cccc2F)n1)C1CCCCCC1 (protonated)
CC(=O)[N+](=c1nnc(Br)c(-c2c(F)cccc2F)[nH]1)C1CCCCCC1 (tautomer)
CC(=O)/[N+](=c1\nnc(Br)c(-c2c(F)cccc2F)[nH]1)C1CCCCCC1 (cis-trans isomerization)
CC(=O)/[N+](=c1\nnc(Br)c(-c2c(F)cccc2F)[nH]1)C1CCCCCC1 (3D coordinates assigned)
CC(=O)/[N+](=c1\nnc(Br)c(-c2c(F)cccc2F)[nH]1)C1CCCCCC1 (nonaromatic ring conformer: 74.19761558228863 kcal/mol)

>  <smiles>  (30) 
CC(=O)N(c1nnc(Br)c(-c2c(F)cccc2F)n1)C1CCCCCC1

>  <score_type>  (30) 
oracle

>  <origin>  (30) 
autodockgpu

>  <m_score__min__energy>  (30) 
-5.2800000000000002

>  <m_primary>  (30) 
energy

>  <meeko>  (30) 
{"free_energy": -4.85, "intermolecular_energy": -7.53, "internal_energy": -1.3, "cluster_size": 4, "cluster_id": 3, "rank_in_cluster": 3}

>  <energy>  (30) 
-4.4

>  <cluster_rmsd>  (30) 
0.63

>  <rmsd>  (30) 
271.55

>  <cluster>  (30) 
2

$$$$
VCUSMEIKIQENRV-DOLDNGAINA-O
     RDKit          3D

 46 48  0  0  0  0  0  0  0  0999 V2000
  142.5699   82.3077  224.0690 H   0  0  0  0  0  0  0  0  0  0  0  0
  142.2950   81.3920  223.5250 C   0  0  0  0  0  0  0  0  0  0  0  0
  142.4150   80.1480  224.1480 C   0  0  0  0  0  0  0  0  0  0  0  0
  142.7798   80.0858  225.1839 H   0  0  0  0  0  0  0  0  0  0  0  0
  142.0720   78.9800  223.4570 C   0  0  0  0  0  0  0  0  0  0  0  0
  142.1960   77.7790  224.0780 F   0  0  0  0  0  0  0  0  0  0  0  0
  141.6160   79.0540  222.1290 C   0  0  0  0  0  0  0  0  0  0  0  0
  141.2310   77.8200  221.4110 C   0  0  0  0  0  0  0  0  0  0  0  0
  139.9730   77.2290  221.5940 C   0  0  0  0  0  0  0  0  0  0  0  0
  138.6180   78.0000  222.7080 Br  0  0  0  0  0  0  0  0  0  0  0  0
  139.6910   76.0860  220.9280 N   0  0  0  0  0  0  0  0  0  0  0  0
  140.5750   75.5320  220.1020 N   0  0  0  0  0  0  0  0  0  0  0  0
  141.7980   76.0910  219.8730 C   0  0  0  0  0  0  0  0  0  0  0  0
  142.6430   75.5070  219.0360 N   0  0  0  0  0  0  0  0  0  0  0  0
  142.7060   75.9880  217.6750 C   0  0  0  0  0  0  0  0  0  0  0  0
  142.2630   75.2740  216.7370 O   0  0  0  0  0  0  0  0  0  0  0  0
  143.3090   77.3220  217.3620 C   0  0  0  0  0  0  0  0  0  0  0  0
  143.5460   77.8463  218.2995 H   0  0  0  0  0  0  0  0  0  0  0  0
  144.2305   77.1800  216.7783 H   0  0  0  0  0  0  0  0  0  0  0  0
  142.5936   77.9199  216.7783 H   0  0  0  0  0  0  0  0  0  0  0  0
  143.4350   74.2960  219.3910 C   0  0  0  0  0  0  0  0  0  0  0  0
  143.9697   73.9613  218.4899 H   0  0  0  0  0  0  0  0  0  0  0  0
  142.5320   73.0990  219.8070 C   0  0  0  0  0  0  0  0  0  0  0  0
  142.3134   73.2020  220.8801 H   0  0  0  0  0  0  0  0  0  0  0  0
  141.6489   73.1589  219.1539 H   0  0  0  0  0  0  0  0  0  0  0  0
  143.1140   71.6880  219.5800 C   0  0  0  0  0  0  0  0  0  0  0  0
  142.4644   70.9670  220.0979 H   0  0  0  0  0  0  0  0  0  0  0  0
  143.1516   71.5508  218.4892 H   0  0  0  0  0  0  0  0  0  0  0  0
  144.5530   71.4720  220.0800 C   0  0  0  0  0  0  0  0  0  0  0  0
  144.5622   71.5530  221.1770 H   0  0  0  0  0  0  0  0  0  0  0  0
  144.8785   70.4751  219.7480 H   0  0  0  0  0  0  0  0  0  0  0  0
  145.5330   72.5040  219.5000 C   0  0  0  0  0  0  0  0  0  0  0  0
  146.5097   72.0163  219.3649 H   0  0  0  0  0  0  0  0  0  0  0  0
  145.1018   72.8558  218.5512 H   0  0  0  0  0  0  0  0  0  0  0  0
  145.7290   73.7400  220.3850 C   0  0  0  0  0  0  0  0  0  0  0  0
  145.9806   73.4029  221.4014 H   0  0  0  0  0  0  0  0  0  0  0  0
  146.5328   74.3370  219.9295 H   0  0  0  0  0  0  0  0  0  0  0  0
  144.4890   74.6450  220.4670 C   0  0  0  0  0  0  0  0  0  0  0  0
  144.0317   74.5291  221.4607 H   0  0  0  0  0  0  0  0  0  0  0  0
  144.8165   75.6807  220.2935 H   0  0  0  0  0  0  0  0  0  0  0  0
  142.1160   77.2410  220.5520 N   0  0  0  0  0  0  0  0  0  0  0  0
  143.0570   77.6820  220.4860 H   0  0  0  0  0  0  0  0  0  0  0  0
  141.4820   80.3120  221.5140 C   0  0  0  0  0  0  0  0  0  0  0  0
  140.9970   80.4150  220.2510 F   0  0  0  0  0  0  0  0  0  0  0  0
  141.8260   81.4750  222.2110 C   0  0  0  0  0  0  0  0  0  0  0  0
  141.7273   82.4564  221.7242 H   0  0  0  0  0  0  0  0  0  0  0  0
  1  2  1  0
  2  3  2  0
  3  4  1  0
  3  5  1  0
  5  6  1  0
  5  7  2  0
  7  8  1  0
  8  9  2  0
  9 10  1  0
  9 11  1  0
 11 12  2  0
 12 13  1  0
 13 14  2  0
 14 15  1  0
 15 16  2  0
 15 17  1  0
 17 18  1  0
 17 19  1  0
 17 20  1  0
 14 21  1  0
 21 22  1  0
 21 23  1  0
 23 24  1  0
 23 25  1  0
 23 26  1  0
 26 27  1  0
 26 28  1  0
 26 29  1  0
 29 30  1  0
 29 31  1  0
 29 32  1  0
 32 33  1  0
 32 34  1  0
 32 35  1  0
 35 36  1  0
 35 37  1  0
 35 38  1  0
 38 39  1  0
 38 40  1  0
 13 41  1  0
 41 42  1  0
  7 43  1  0
 43 44  1  0
 43 45  2  0
 45 46  1  0
 45  2  1  0
 41  8  1  0
 38 21  1  0
M  CHG  1  14   1
M  END
>  <UniqueID>  (31) 
5

>  <SMILES>  (31) 
CC(=O)/[N+](=c1\nnc(Br)c(-c2c(F)cccc2F)[nH]1)C1CCCCCC1

>  <Energy>  (31) 
74.19761558228863

>  <Genealogy>  (31) 
CC(=O)[NH+](c1nnc(Br)c(-c2c(F)cccc2F)n1)C1CCCCCC1 (protonated)
CC(=O)[N+](=c1nnc(Br)c(-c2c(F)cccc2F)[nH]1)C1CCCCCC1 (tautomer)
CC(=O)/[N+](=c1\nnc(Br)c(-c2c(F)cccc2F)[nH]1)C1CCCCCC1 (cis-trans isomerization)
CC(=O)/[N+](=c1\nnc(Br)c(-c2c(F)cccc2F)[nH]1)C1CCCCCC1 (3D coordinates assigned)
CC(=O)/[N+](=c1\nnc(Br)c(-c2c(F)cccc2F)[nH]1)C1CCCCCC1 (nonaromatic ring conformer: 74.19761558228863 kcal/mol)

>  <smiles>  (31) 
CC(=O)N(c1nnc(Br)c(-c2c(F)cccc2F)n1)C1CCCCCC1

>  <score_type>  (31) 
oracle

>  <origin>  (31) 
autodockgpu

>  <m_score__min__energy>  (31) 
-5.2800000000000002

>  <m_primary>  (31) 
energy

>  <meeko>  (31) 
{"free_energy": -5.01, "intermolecular_energy": -7.7, "internal_energy": -1.3, "cluster_size": 4, "cluster_id": 3, "rank_in_cluster": 1}

>  <energy>  (31) 
-5.01

>  <cluster_rmsd>  (31) 
0.0

>  <rmsd>  (31) 
271.57

>  <cluster>  (31) 
3

$$$$
VCUSMEIKIQENRV-DOLDNGAINA-O
     RDKit          3D

 46 48  0  0  0  0  0  0  0  0999 V2000
  143.3350   81.7843  222.5847 H   0  0  0  0  0  0  0  0  0  0  0  0
  142.7330   80.8660  222.5190 C   0  0  0  0  0  0  0  0  0  0  0  0
  142.6920   79.9800  223.5980 C   0  0  0  0  0  0  0  0  0  0  0  0
  143.2587   80.2036  224.5139 H   0  0  0  0  0  0  0  0  0  0  0  0
  141.9310   78.8080  223.5160 C   0  0  0  0  0  0  0  0  0  0  0  0
  141.9040   77.9570  224.5740 F   0  0  0  0  0  0  0  0  0  0  0  0
  141.2150   78.5120  222.3440 C   0  0  0  0  0  0  0  0  0  0  0  0
  140.3930   77.2850  222.2700 C   0  0  0  0  0  0  0  0  0  0  0  0
  139.0190   77.3080  222.5430 C   0  0  0  0  0  0  0  0  0  0  0  0
  138.0690   78.9220  222.9460 Br  0  0  0  0  0  0  0  0  0  0  0  0
  138.3280   76.1470  222.4850 N   0  0  0  0  0  0  0  0  0  0  0  0
  138.9250   75.0020  222.1620 N   0  0  0  0  0  0  0  0  0  0  0  0
  140.2530   74.9430  221.8580 C   0  0  0  0  0  0  0  0  0  0  0  0
  140.8030   73.7810  221.5340 N   0  0  0  0  0  0  0  0  0  0  0  0
  140.0170   72.5800  221.6980 C   0  0  0  0  0  0  0  0  0  0  0  0
  140.3160   71.7550  222.6030 O   0  0  0  0  0  0  0  0  0  0  0  0
  138.8610   72.2920  220.7930 C   0  0  0  0  0  0  0  0  0  0  0  0
  137.9689   72.0698  221.3970 H   0  0  0  0  0  0  0  0  0  0  0  0
  138.6649   73.1687  220.1583 H   0  0  0  0  0  0  0  0  0  0  0  0
  139.0992   71.4257  220.1583 H   0  0  0  0  0  0  0  0  0  0  0  0
  142.2310   73.6390  221.1340 C   0  0  0  0  0  0  0  0  0  0  0  0
  142.8558   73.8566  222.0128 H   0  0  0  0  0  0  0  0  0  0  0  0
  142.6510   74.6810  220.0590 C   0  0  0  0  0  0  0  0  0  0  0  0
  142.4640   74.2359  219.0706 H   0  0  0  0  0  0  0  0  0  0  0  0
  142.0543   75.5796  220.2745 H   0  0  0  0  0  0  0  0  0  0  0  0
  144.1220   75.1480  220.0930 C   0  0  0  0  0  0  0  0  0  0  0  0
  144.4182   75.4069  219.0657 H   0  0  0  0  0  0  0  0  0  0  0  0
  144.1511   75.9961  220.7930 H   0  0  0  0  0  0  0  0  0  0  0  0
  145.1350   74.1240  220.6330 C   0  0  0  0  0  0  0  0  0  0  0  0
  146.1513   74.4745  220.4003 H   0  0  0  0  0  0  0  0  0  0  0  0
  144.9805   74.0363  221.7186 H   0  0  0  0  0  0  0  0  0  0  0  0
  144.9380   72.7300  220.0140 C   0  0  0  0  0  0  0  0  0  0  0  0
  144.5131   72.8549  219.0071 H   0  0  0  0  0  0  0  0  0  0  0  0
  145.9251   72.2449  219.9983 H   0  0  0  0  0  0  0  0  0  0  0  0
  144.0060   71.8180  220.8220 C   0  0  0  0  0  0  0  0  0  0  0  0
  144.1408   70.7846  220.4700 H   0  0  0  0  0  0  0  0  0  0  0  0
  144.2766   71.9398  221.8812 H   0  0  0  0  0  0  0  0  0  0  0  0
  142.5180   72.1840  220.6940 C   0  0  0  0  0  0  0  0  0  0  0  0
  142.2138   72.0656  219.6436 H   0  0  0  0  0  0  0  0  0  0  0  0
  141.9488   71.5141  221.3552 H   0  0  0  0  0  0  0  0  0  0  0  0
  140.9820   76.1040  221.9300 N   0  0  0  0  0  0  0  0  0  0  0  0
  142.0130   76.1220  221.7880 H   0  0  0  0  0  0  0  0  0  0  0  0
  141.2480   79.4180  221.2670 C   0  0  0  0  0  0  0  0  0  0  0  0
  140.5260   79.1810  220.1430 F   0  0  0  0  0  0  0  0  0  0  0  0
  142.0100   80.5870  221.3560 C   0  0  0  0  0  0  0  0  0  0  0  0
  142.0404   81.2883  220.5091 H   0  0  0  0  0  0  0  0  0  0  0  0
  1  2  1  0
  2  3  2  0
  3  4  1  0
  3  5  1  0
  5  6  1  0
  5  7  2  0
  7  8  1  0
  8  9  2  0
  9 10  1  0
  9 11  1  0
 11 12  2  0
 12 13  1  0
 13 14  2  0
 14 15  1  0
 15 16  2  0
 15 17  1  0
 17 18  1  0
 17 19  1  0
 17 20  1  0
 14 21  1  0
 21 22  1  0
 21 23  1  0
 23 24  1  0
 23 25  1  0
 23 26  1  0
 26 27  1  0
 26 28  1  0
 26 29  1  0
 29 30  1  0
 29 31  1  0
 29 32  1  0
 32 33  1  0
 32 34  1  0
 32 35  1  0
 35 36  1  0
 35 37  1  0
 35 38  1  0
 38 39  1  0
 38 40  1  0
 13 41  1  0
 41 42  1  0
  7 43  1  0
 43 44  1  0
 43 45  2  0
 45 46  1  0
 45  2  1  0
 41  8  1  0
 38 21  1  0
M  CHG  1  14   1
M  END
>  <UniqueID>  (32) 
5

>  <SMILES>  (32) 
CC(=O)/[N+](=c1\nnc(Br)c(-c2c(F)cccc2F)[nH]1)C1CCCCCC1

>  <Energy>  (32) 
74.19761558228863

>  <Genealogy>  (32) 
CC(=O)[NH+](c1nnc(Br)c(-c2c(F)cccc2F)n1)C1CCCCCC1 (protonated)
CC(=O)[N+](=c1nnc(Br)c(-c2c(F)cccc2F)[nH]1)C1CCCCCC1 (tautomer)
CC(=O)/[N+](=c1\nnc(Br)c(-c2c(F)cccc2F)[nH]1)C1CCCCCC1 (cis-trans isomerization)
CC(=O)/[N+](=c1\nnc(Br)c(-c2c(F)cccc2F)[nH]1)C1CCCCCC1 (3D coordinates assigned)
CC(=O)/[N+](=c1\nnc(Br)c(-c2c(F)cccc2F)[nH]1)C1CCCCCC1 (nonaromatic ring conformer: 74.19761558228863 kcal/mol)

>  <smiles>  (32) 
CC(=O)N(c1nnc(Br)c(-c2c(F)cccc2F)n1)C1CCCCCC1

>  <score_type>  (32) 
oracle

>  <origin>  (32) 
autodockgpu

>  <m_score__min__energy>  (32) 
-5.2800000000000002

>  <m_primary>  (32) 
energy

>  <meeko>  (32) 
{"free_energy": -5.28, "intermolecular_energy": -7.96, "internal_energy": -1.18, "cluster_size": 5, "cluster_id": 1, "rank_in_cluster": 1}

>  <energy>  (32) 
-5.01

>  <cluster_rmsd>  (32) 
0.1

>  <rmsd>  (32) 
271.56

>  <cluster>  (32) 
3

$$$$
VCUSMEIKIQENRV-DOLDNGAINA-O
     RDKit          3D

 46 48  0  0  0  0  0  0  0  0999 V2000
  143.2671   82.1238  223.1231 H   0  0  0  0  0  0  0  0  0  0  0  0
  142.6410   81.2340  222.9610 C   0  0  0  0  0  0  0  0  0  0  0  0
  142.6630   80.1880  223.8860 C   0  0  0  0  0  0  0  0  0  0  0  0
  143.3024   80.2578  224.7783 H   0  0  0  0  0  0  0  0  0  0  0  0
  141.8730   79.0510  223.6800 C   0  0  0  0  0  0  0  0  0  0  0  0
  141.9080   78.0430  224.5880 F   0  0  0  0  0  0  0  0  0  0  0  0
  141.0620   78.9530  222.5350 C   0  0  0  0  0  0  0  0  0  0  0  0
  140.2110   77.7610  222.3330 C   0  0  0  0  0  0  0  0  0  0  0  0
  138.8280   77.8050  222.5580 C   0  0  0  0  0  0  0  0  0  0  0  0
  137.9080   79.4100  223.0560 Br  0  0  0  0  0  0  0  0  0  0  0  0
  138.1080   76.6730  222.3810 N   0  0  0  0  0  0  0  0  0  0  0  0
  138.6850   75.5410  221.9870 N   0  0  0  0  0  0  0  0  0  0  0  0
  140.0220   75.4650  221.7280 C   0  0  0  0  0  0  0  0  0  0  0  0
  140.5510   74.3170  221.3310 N   0  0  0  0  0  0  0  0  0  0  0  0
  140.1970   73.1130  222.0460 C   0  0  0  0  0  0  0  0  0  0  0  0
  141.0540   72.5370  222.7670 O   0  0  0  0  0  0  0  0  0  0  0  0
  138.8240   72.5290  221.9280 C   0  0  0  0  0  0  0  0  0  0  0  0
  138.4124   72.3539  222.9329 H   0  0  0  0  0  0  0  0  0  0  0  0
  138.1737   73.2284  221.3822 H   0  0  0  0  0  0  0  0  0  0  0  0
  138.8768   71.5754  221.3822 H   0  0  0  0  0  0  0  0  0  0  0  0
  141.5920   74.2240  220.2690 C   0  0  0  0  0  0  0  0  0  0  0  0
  141.8060   73.1597  220.0918 H   0  0  0  0  0  0  0  0  0  0  0  0
  142.9450   74.8510  220.7110 C   0  0  0  0  0  0  0  0  0  0  0  0
  142.9600   75.8943  220.3627 H   0  0  0  0  0  0  0  0  0  0  0  0
  142.9773   74.7351  221.8044 H   0  0  0  0  0  0  0  0  0  0  0  0
  144.2240   74.1630  220.1880 C   0  0  0  0  0  0  0  0  0  0  0  0
  145.0884   74.7463  220.5380 H   0  0  0  0  0  0  0  0  0  0  0  0
  144.1914   73.1348  220.5777 H   0  0  0  0  0  0  0  0  0  0  0  0
  144.3330   74.0280  218.6600 C   0  0  0  0  0  0  0  0  0  0  0  0
  145.3731   74.2241  218.3606 H   0  0  0  0  0  0  0  0  0  0  0  0
  144.0232   73.0080  218.3887 H   0  0  0  0  0  0  0  0  0  0  0  0
  143.4120   75.0120  217.9220 C   0  0  0  0  0  0  0  0  0  0  0  0
  143.3847   75.9534  218.4903 H   0  0  0  0  0  0  0  0  0  0  0  0
  143.8267   75.1405  216.9113 H   0  0  0  0  0  0  0  0  0  0  0  0
  141.9740   74.5090  217.7520 C   0  0  0  0  0  0  0  0  0  0  0  0
  141.5461   74.9784  216.8539 H   0  0  0  0  0  0  0  0  0  0  0  0
  142.0251   73.4132  217.6701 H   0  0  0  0  0  0  0  0  0  0  0  0
  141.0610   74.8270  218.9470 C   0  0  0  0  0  0  0  0  0  0  0  0
  140.9924   75.9191  219.0589 H   0  0  0  0  0  0  0  0  0  0  0  0
  140.0759   74.3809  218.7457 H   0  0  0  0  0  0  0  0  0  0  0  0
  140.7790   76.5940  221.9190 N   0  0  0  0  0  0  0  0  0  0  0  0
  141.8150   76.5920  221.8160 H   0  0  0  0  0  0  0  0  0  0  0  0
  141.0330   80.0190  221.6160 C   0  0  0  0  0  0  0  0  0  0  0  0
  140.2220   79.9720  220.5290 F   0  0  0  0  0  0  0  0  0  0  0  0
  141.8250   81.1520  221.8300 C   0  0  0  0  0  0  0  0  0  0  0  0
  141.8052   81.9801  221.1063 H   0  0  0  0  0  0  0  0  0  0  0  0
  1  2  1  0
  2  3  2  0
  3  4  1  0
  3  5  1  0
  5  6  1  0
  5  7  2  0
  7  8  1  0
  8  9  2  0
  9 10  1  0
  9 11  1  0
 11 12  2  0
 12 13  1  0
 13 14  2  0
 14 15  1  0
 15 16  2  0
 15 17  1  0
 17 18  1  0
 17 19  1  0
 17 20  1  0
 14 21  1  0
 21 22  1  0
 21 23  1  0
 23 24  1  0
 23 25  1  0
 23 26  1  0
 26 27  1  0
 26 28  1  0
 26 29  1  0
 29 30  1  0
 29 31  1  0
 29 32  1  0
 32 33  1  0
 32 34  1  0
 32 35  1  0
 35 36  1  0
 35 37  1  0
 35 38  1  0
 38 39  1  0
 38 40  1  0
 13 41  1  0
 41 42  1  0
  7 43  1  0
 43 44  1  0
 43 45  2  0
 45 46  1  0
 45  2  1  0
 41  8  1  0
 38 21  1  0
M  CHG  1  14   1
M  END
>  <UniqueID>  (33) 
5

>  <SMILES>  (33) 
CC(=O)/[N+](=c1\nnc(Br)c(-c2c(F)cccc2F)[nH]1)C1CCCCCC1

>  <Energy>  (33) 
74.19761558228863

>  <Genealogy>  (33) 
CC(=O)[NH+](c1nnc(Br)c(-c2c(F)cccc2F)n1)C1CCCCCC1 (protonated)
CC(=O)[N+](=c1nnc(Br)c(-c2c(F)cccc2F)[nH]1)C1CCCCCC1 (tautomer)
CC(=O)/[N+](=c1\nnc(Br)c(-c2c(F)cccc2F)[nH]1)C1CCCCCC1 (cis-trans isomerization)
CC(=O)/[N+](=c1\nnc(Br)c(-c2c(F)cccc2F)[nH]1)C1CCCCCC1 (3D coordinates assigned)
CC(=O)/[N+](=c1\nnc(Br)c(-c2c(F)cccc2F)[nH]1)C1CCCCCC1 (nonaromatic ring conformer: 74.19761558228863 kcal/mol)

>  <smiles>  (33) 
CC(=O)N(c1nnc(Br)c(-c2c(F)cccc2F)n1)C1CCCCCC1

>  <score_type>  (33) 
oracle

>  <origin>  (33) 
autodockgpu

>  <m_score__min__energy>  (33) 
-5.2800000000000002

>  <m_primary>  (33) 
energy

>  <meeko>  (33) 
{"free_energy": -4.66, "intermolecular_energy": -7.35, "internal_energy": -1.23, "cluster_size": 5, "cluster_id": 1, "rank_in_cluster": 5}

>  <energy>  (33) 
-4.85

>  <cluster_rmsd>  (33) 
0.34

>  <rmsd>  (33) 
271.62

>  <cluster>  (33) 
3

$$$$
VCUSMEIKIQENRV-DOLDNGAINA-O
     RDKit          3D

 46 48  0  0  0  0  0  0  0  0999 V2000
  140.4763   81.8443  224.6340 H   0  0  0  0  0  0  0  0  0  0  0  0
  140.7300   81.1400  223.8280 C   0  0  0  0  0  0  0  0  0  0  0  0
  139.7700   80.7970  222.8720 C   0  0  0  0  0  0  0  0  0  0  0  0
  138.7628   81.2361  222.9237 H   0  0  0  0  0  0  0  0  0  0  0  0
  140.0870   79.8970  221.8500 C   0  0  0  0  0  0  0  0  0  0  0  0
  139.1400   79.5730  220.9310 F   0  0  0  0  0  0  0  0  0  0  0  0
  141.3690   79.3240  221.7850 C   0  0  0  0  0  0  0  0  0  0  0  0
  141.7070   78.3910  220.6880 C   0  0  0  0  0  0  0  0  0  0  0  0
  141.9910   78.8540  219.3960 C   0  0  0  0  0  0  0  0  0  0  0  0
  142.0550   80.7170  218.9530 Br  0  0  0  0  0  0  0  0  0  0  0  0
  142.2670   77.9480  218.4300 N   0  0  0  0  0  0  0  0  0  0  0  0
  142.2860   76.6440  218.6910 N   0  0  0  0  0  0  0  0  0  0  0  0
  142.0470   76.1550  219.9420 C   0  0  0  0  0  0  0  0  0  0  0  0
  142.0840   74.8470  220.1550 N   0  0  0  0  0  0  0  0  0  0  0  0
  140.9800   74.2340  220.8560 C   0  0  0  0  0  0  0  0  0  0  0  0
  141.1450   73.7950  222.0250 O   0  0  0  0  0  0  0  0  0  0  0  0
  139.6410   74.0950  220.2010 C   0  0  0  0  0  0  0  0  0  0  0  0
  138.8617   74.0141  220.9731 H   0  0  0  0  0  0  0  0  0  0  0  0
  139.4460   74.9777  219.5743 H   0  0  0  0  0  0  0  0  0  0  0  0
  139.6315   73.1910  219.5743 H   0  0  0  0  0  0  0  0  0  0  0  0
  143.2650   74.0010  219.8260 C   0  0  0  0  0  0  0  0  0  0  0  0
  143.6114   74.2739  218.8183 H   0  0  0  0  0  0  0  0  0  0  0  0
  142.9060   72.4900  219.7460 C   0  0  0  0  0  0  0  0  0  0  0  0
  143.1017   72.0468  220.7335 H   0  0  0  0  0  0  0  0  0  0  0  0
  141.8522   72.4562  219.4323 H   0  0  0  0  0  0  0  0  0  0  0  0
  143.6730   71.6570  218.6970 C   0  0  0  0  0  0  0  0  0  0  0  0
  143.4982   70.5934  218.9167 H   0  0  0  0  0  0  0  0  0  0  0  0
  143.2881   71.9800  217.7185 H   0  0  0  0  0  0  0  0  0  0  0  0
  145.1940   71.8850  218.6450 C   0  0  0  0  0  0  0  0  0  0  0  0
  145.6779   70.9623  218.2923 H   0  0  0  0  0  0  0  0  0  0  0  0
  145.3845   72.7258  217.9618 H   0  0  0  0  0  0  0  0  0  0  0  0
  145.7760   72.2540  220.0160 C   0  0  0  0  0  0  0  0  0  0  0  0
  145.1829   71.7478  220.7919 H   0  0  0  0  0  0  0  0  0  0  0  0
  146.8283   71.9336  220.0135 H   0  0  0  0  0  0  0  0  0  0  0  0
  145.7690   73.7600  220.3080 C   0  0  0  0  0  0  0  0  0  0  0  0
  146.5331   73.9690  221.0712 H   0  0  0  0  0  0  0  0  0  0  0  0
  145.9739   74.2721  219.3563 H   0  0  0  0  0  0  0  0  0  0  0  0
  144.4180   74.2860  220.8180 C   0  0  0  0  0  0  0  0  0  0  0  0
  144.1880   73.7991  221.7772 H   0  0  0  0  0  0  0  0  0  0  0  0
  144.5026   75.3769  220.9316 H   0  0  0  0  0  0  0  0  0  0  0  0
  141.7440   77.0510  220.9350 N   0  0  0  0  0  0  0  0  0  0  0  0
  141.4740   76.7470  221.8940 H   0  0  0  0  0  0  0  0  0  0  0  0
  142.3360   79.6860  222.7410 C   0  0  0  0  0  0  0  0  0  0  0  0
  143.5960   79.1870  222.6720 F   0  0  0  0  0  0  0  0  0  0  0  0
  142.0130   80.5880  223.7600 C   0  0  0  0  0  0  0  0  0  0  0  0
  142.7697   80.8637  224.5093 H   0  0  0  0  0  0  0  0  0  0  0  0
  1  2  1  0
  2  3  2  0
  3  4  1  0
  3  5  1  0
  5  6  1  0
  5  7  2  0
  7  8  1  0
  8  9  2  0
  9 10  1  0
  9 11  1  0
 11 12  2  0
 12 13  1  0
 13 14  2  0
 14 15  1  0
 15 16  2  0
 15 17  1  0
 17 18  1  0
 17 19  1  0
 17 20  1  0
 14 21  1  0
 21 22  1  0
 21 23  1  0
 23 24  1  0
 23 25  1  0
 23 26  1  0
 26 27  1  0
 26 28  1  0
 26 29  1  0
 29 30  1  0
 29 31  1  0
 29 32  1  0
 32 33  1  0
 32 34  1  0
 32 35  1  0
 35 36  1  0
 35 37  1  0
 35 38  1  0
 38 39  1  0
 38 40  1  0
 13 41  1  0
 41 42  1  0
  7 43  1  0
 43 44  1  0
 43 45  2  0
 45 46  1  0
 45  2  1  0
 41  8  1  0
 38 21  1  0
M  CHG  1  14   1
M  END
>  <UniqueID>  (34) 
5

>  <SMILES>  (34) 
CC(=O)/[N+](=c1\nnc(Br)c(-c2c(F)cccc2F)[nH]1)C1CCCCCC1

>  <Energy>  (34) 
74.19761558228863

>  <Genealogy>  (34) 
CC(=O)[NH+](c1nnc(Br)c(-c2c(F)cccc2F)n1)C1CCCCCC1 (protonated)
CC(=O)[N+](=c1nnc(Br)c(-c2c(F)cccc2F)[nH]1)C1CCCCCC1 (tautomer)
CC(=O)/[N+](=c1\nnc(Br)c(-c2c(F)cccc2F)[nH]1)C1CCCCCC1 (cis-trans isomerization)
CC(=O)/[N+](=c1\nnc(Br)c(-c2c(F)cccc2F)[nH]1)C1CCCCCC1 (3D coordinates assigned)
CC(=O)/[N+](=c1\nnc(Br)c(-c2c(F)cccc2F)[nH]1)C1CCCCCC1 (nonaromatic ring conformer: 74.19761558228863 kcal/mol)

>  <smiles>  (34) 
CC(=O)N(c1nnc(Br)c(-c2c(F)cccc2F)n1)C1CCCCCC1

>  <score_type>  (34) 
oracle

>  <origin>  (34) 
autodockgpu

>  <m_score__min__energy>  (34) 
-5.2800000000000002

>  <m_primary>  (34) 
energy

>  <meeko>  (34) 
{"free_energy": -4.4, "intermolecular_energy": -7.08, "internal_energy": -1.29, "cluster_size": 5, "cluster_id": 2, "rank_in_cluster": 5}

>  <energy>  (34) 
-4.49

>  <cluster_rmsd>  (34) 
0.48

>  <rmsd>  (34) 
271.65

>  <cluster>  (34) 
3

$$$$
VCUSMEIKIQENRV-DOLDNGAINA-O
     RDKit          3D

 46 48  0  0  0  0  0  0  0  0999 V2000
  145.0176   71.0856  220.8990 H   0  0  0  0  0  0  0  0  0  0  0  0
  144.4880   72.0300  220.7050 C   0  0  0  0  0  0  0  0  0  0  0  0
  143.1150   72.0200  220.4490 C   0  0  0  0  0  0  0  0  0  0  0  0
  142.5640   71.0679  220.4471 H   0  0  0  0  0  0  0  0  0  0  0  0
  142.4390   73.2180  220.1950 C   0  0  0  0  0  0  0  0  0  0  0  0
  141.1050   73.1900  219.9460 F   0  0  0  0  0  0  0  0  0  0  0  0
  143.1410   74.4360  220.1860 C   0  0  0  0  0  0  0  0  0  0  0  0
  142.4180   75.7030  219.9420 C   0  0  0  0  0  0  0  0  0  0  0  0
  142.4810   76.3530  218.7010 C   0  0  0  0  0  0  0  0  0  0  0  0
  143.4240   75.6300  217.1980 Br  0  0  0  0  0  0  0  0  0  0  0  0
  141.8180   77.5230  218.5490 N   0  0  0  0  0  0  0  0  0  0  0  0
  141.1060   78.0480  219.5430 N   0  0  0  0  0  0  0  0  0  0  0  0
  140.9930   77.4310  220.7550 C   0  0  0  0  0  0  0  0  0  0  0  0
  140.2670   77.9890  221.7120 N   0  0  0  0  0  0  0  0  0  0  0  0
  138.8850   77.5890  221.8470 C   0  0  0  0  0  0  0  0  0  0  0  0
  137.9670   78.3980  221.5450 O   0  0  0  0  0  0  0  0  0  0  0  0
  138.5280   76.2290  222.3590 C   0  0  0  0  0  0  0  0  0  0  0  0
  138.5306   76.2390  223.4589 H   0  0  0  0  0  0  0  0  0  0  0  0
  137.5268   75.9522  221.9972 H   0  0  0  0  0  0  0  0  0  0  0  0
  139.2642   75.4961  221.9972 H   0  0  0  0  0  0  0  0  0  0  0  0
  140.7650   79.0990  222.5710 C   0  0  0  0  0  0  0  0  0  0  0  0
  139.9953   79.3196  223.3252 H   0  0  0  0  0  0  0  0  0  0  0  0
  140.9580   80.4220  221.7750 C   0  0  0  0  0  0  0  0  0  0  0  0
  141.8494   80.3043  221.1413 H   0  0  0  0  0  0  0  0  0  0  0  0
  140.0200   80.5681  221.2193 H   0  0  0  0  0  0  0  0  0  0  0  0
  141.1430   81.7060  222.6120 C   0  0  0  0  0  0  0  0  0  0  0  0
  141.7433   82.4120  222.0194 H   0  0  0  0  0  0  0  0  0  0  0  0
  140.1281   82.0642  222.8393 H   0  0  0  0  0  0  0  0  0  0  0  0
  141.8370   81.5220  223.9730 C   0  0  0  0  0  0  0  0  0  0  0  0
  141.9431   82.5065  224.4521 H   0  0  0  0  0  0  0  0  0  0  0  0
  141.2162   80.8456  224.5788 H   0  0  0  0  0  0  0  0  0  0  0  0
  143.2280   80.8870  223.8360 C   0  0  0  0  0  0  0  0  0  0  0  0
  143.8929   81.6117  223.3434 H   0  0  0  0  0  0  0  0  0  0  0  0
  143.5636   80.6295  224.8514 H   0  0  0  0  0  0  0  0  0  0  0  0
  143.2390   79.5890  223.0200 C   0  0  0  0  0  0  0  0  0  0  0  0
  143.2181   79.8504  221.9517 H   0  0  0  0  0  0  0  0  0  0  0  0
  144.1505   79.0410  223.3007 H   0  0  0  0  0  0  0  0  0  0  0  0
  142.0490   78.6620  223.3160 C   0  0  0  0  0  0  0  0  0  0  0  0
  142.3097   77.6404  223.0023 H   0  0  0  0  0  0  0  0  0  0  0  0
  141.8448   78.7107  224.3958 H   0  0  0  0  0  0  0  0  0  0  0  0
  141.6730   76.2530  220.9420 N   0  0  0  0  0  0  0  0  0  0  0  0
  141.6970   75.7660  221.8620 H   0  0  0  0  0  0  0  0  0  0  0  0
  144.5210   74.4410  220.4620 C   0  0  0  0  0  0  0  0  0  0  0  0
  145.2120   75.6080  220.5090 F   0  0  0  0  0  0  0  0  0  0  0  0
  145.1900   73.2390  220.7150 C   0  0  0  0  0  0  0  0  0  0  0  0
  146.2703   73.2450  220.9222 H   0  0  0  0  0  0  0  0  0  0  0  0
  1  2  1  0
  2  3  2  0
  3  4  1  0
  3  5  1  0
  5  6  1  0
  5  7  2  0
  7  8  1  0
  8  9  2  0
  9 10  1  0
  9 11  1  0
 11 12  2  0
 12 13  1  0
 13 14  2  0
 14 15  1  0
 15 16  2  0
 15 17  1  0
 17 18  1  0
 17 19  1  0
 17 20  1  0
 14 21  1  0
 21 22  1  0
 21 23  1  0
 23 24  1  0
 23 25  1  0
 23 26  1  0
 26 27  1  0
 26 28  1  0
 26 29  1  0
 29 30  1  0
 29 31  1  0
 29 32  1  0
 32 33  1  0
 32 34  1  0
 32 35  1  0
 35 36  1  0
 35 37  1  0
 35 38  1  0
 38 39  1  0
 38 40  1  0
 13 41  1  0
 41 42  1  0
  7 43  1  0
 43 44  1  0
 43 45  2  0
 45 46  1  0
 45  2  1  0
 41  8  1  0
 38 21  1  0
M  CHG  1  14   1
M  END
>  <UniqueID>  (35) 
5

>  <SMILES>  (35) 
CC(=O)/[N+](=c1\nnc(Br)c(-c2c(F)cccc2F)[nH]1)C1CCCCCC1

>  <Energy>  (35) 
74.19761558228863

>  <Genealogy>  (35) 
CC(=O)[NH+](c1nnc(Br)c(-c2c(F)cccc2F)n1)C1CCCCCC1 (protonated)
CC(=O)[N+](=c1nnc(Br)c(-c2c(F)cccc2F)[nH]1)C1CCCCCC1 (tautomer)
CC(=O)/[N+](=c1\nnc(Br)c(-c2c(F)cccc2F)[nH]1)C1CCCCCC1 (cis-trans isomerization)
CC(=O)/[N+](=c1\nnc(Br)c(-c2c(F)cccc2F)[nH]1)C1CCCCCC1 (3D coordinates assigned)
CC(=O)/[N+](=c1\nnc(Br)c(-c2c(F)cccc2F)[nH]1)C1CCCCCC1 (nonaromatic ring conformer: 74.19761558228863 kcal/mol)

>  <smiles>  (35) 
CC(=O)N(c1nnc(Br)c(-c2c(F)cccc2F)n1)C1CCCCCC1

>  <score_type>  (35) 
oracle

>  <origin>  (35) 
autodockgpu

>  <m_score__min__energy>  (35) 
-5.2800000000000002

>  <m_primary>  (35) 
energy

>  <meeko>  (35) 
{"free_energy": -4.44, "intermolecular_energy": -7.13, "internal_energy": -1.36, "cluster_size": 2, "cluster_id": 5, "rank_in_cluster": 2}

>  <energy>  (35) 
-4.99

>  <cluster_rmsd>  (35) 
0.0

>  <rmsd>  (35) 
271.95

>  <cluster>  (35) 
4

$$$$
VCUSMEIKIQENRV-DOLDNGAINA-O
     RDKit          3D

 46 48  0  0  0  0  0  0  0  0999 V2000
  141.3886   82.3359  224.7668 H   0  0  0  0  0  0  0  0  0  0  0  0
  141.4400   81.5730  223.9760 C   0  0  0  0  0  0  0  0  0  0  0  0
  140.3740   81.4170  223.0860 C   0  0  0  0  0  0  0  0  0  0  0  0
  139.4867   82.0612  223.1740 H   0  0  0  0  0  0  0  0  0  0  0  0
  140.4330   80.4430  222.0830 C   0  0  0  0  0  0  0  0  0  0  0  0
  139.3870   80.3040  221.2290 F   0  0  0  0  0  0  0  0  0  0  0  0
  141.5610   79.6110  221.9730 C   0  0  0  0  0  0  0  0  0  0  0  0
  141.6290   78.6000  220.8960 C   0  0  0  0  0  0  0  0  0  0  0  0
  141.7410   78.9730  219.5490 C   0  0  0  0  0  0  0  0  0  0  0  0
  141.9010   80.7980  218.9880 Br  0  0  0  0  0  0  0  0  0  0  0  0
  141.7720   78.0000  218.6090 N   0  0  0  0  0  0  0  0  0  0  0  0
  141.7150   76.7140  218.9420 N   0  0  0  0  0  0  0  0  0  0  0  0
  141.6380   76.3090  220.2430 C   0  0  0  0  0  0  0  0  0  0  0  0
  141.5900   75.0150  220.5280 N   0  0  0  0  0  0  0  0  0  0  0  0
  140.3780   74.4830  221.1070 C   0  0  0  0  0  0  0  0  0  0  0  0
  140.3710   74.1070  222.3090 O   0  0  0  0  0  0  0  0  0  0  0  0
  139.1310   74.3560  220.2890 C   0  0  0  0  0  0  0  0  0  0  0  0
  138.2616   74.2675  220.9571 H   0  0  0  0  0  0  0  0  0  0  0  0
  139.0164   75.2471  219.6544 H   0  0  0  0  0  0  0  0  0  0  0  0
  139.1984   73.4601  219.6544 H   0  0  0  0  0  0  0  0  0  0  0  0
  142.7660   74.1090  220.4020 C   0  0  0  0  0  0  0  0  0  0  0  0
  142.9364   73.6323  221.3786 H   0  0  0  0  0  0  0  0  0  0  0  0
  144.0780   74.8830  220.0830 C   0  0  0  0  0  0  0  0  0  0  0  0
  144.1300   75.0183  218.9926 H   0  0  0  0  0  0  0  0  0  0  0  0
  144.0112   75.8198  220.6557 H   0  0  0  0  0  0  0  0  0  0  0  0
  145.3950   74.2180  220.5370 C   0  0  0  0  0  0  0  0  0  0  0  0
  146.2280   74.7665  220.0730 H   0  0  0  0  0  0  0  0  0  0  0  0
  145.3894   74.2615  221.6361 H   0  0  0  0  0  0  0  0  0  0  0  0
  145.5500   72.7300  220.1770 C   0  0  0  0  0  0  0  0  0  0  0  0
  145.6001   72.6336  219.0824 H   0  0  0  0  0  0  0  0  0  0  0  0
  146.4702   72.3610  220.6536 H   0  0  0  0  0  0  0  0  0  0  0  0
  144.3760   71.8820  220.6960 C   0  0  0  0  0  0  0  0  0  0  0  0
  144.7606   70.8882  220.9687 H   0  0  0  0  0  0  0  0  0  0  0  0
  143.9489   72.4199  221.5552 H   0  0  0  0  0  0  0  0  0  0  0  0
  143.2440   71.6990  219.6780 C   0  0  0  0  0  0  0  0  0  0  0  0
  143.6785   71.3248  218.7393 H   0  0  0  0  0  0  0  0  0  0  0  0
  142.5260   70.9924  220.1198 H   0  0  0  0  0  0  0  0  0  0  0  0
  142.4710   72.9920  219.3730 C   0  0  0  0  0  0  0  0  0  0  0  0
  142.7578   73.3480  218.3725 H   0  0  0  0  0  0  0  0  0  0  0  0
  141.3966   72.7619  219.4248 H   0  0  0  0  0  0  0  0  0  0  0  0
  141.5840   77.2760  221.2150 N   0  0  0  0  0  0  0  0  0  0  0  0
  141.4470   77.0440  222.2210 H   0  0  0  0  0  0  0  0  0  0  0  0
  142.6380   79.7850  222.8620 C   0  0  0  0  0  0  0  0  0  0  0  0
  143.7580   79.0280  222.7460 F   0  0  0  0  0  0  0  0  0  0  0  0
  142.5720   80.7600  223.8620 C   0  0  0  0  0  0  0  0  0  0  0  0
  143.4122   80.8878  224.5604 H   0  0  0  0  0  0  0  0  0  0  0  0
  1  2  1  0
  2  3  2  0
  3  4  1  0
  3  5  1  0
  5  6  1  0
  5  7  2  0
  7  8  1  0
  8  9  2  0
  9 10  1  0
  9 11  1  0
 11 12  2  0
 12 13  1  0
 13 14  2  0
 14 15  1  0
 15 16  2  0
 15 17  1  0
 17 18  1  0
 17 19  1  0
 17 20  1  0
 14 21  1  0
 21 22  1  0
 21 23  1  0
 23 24  1  0
 23 25  1  0
 23 26  1  0
 26 27  1  0
 26 28  1  0
 26 29  1  0
 29 30  1  0
 29 31  1  0
 29 32  1  0
 32 33  1  0
 32 34  1  0
 32 35  1  0
 35 36  1  0
 35 37  1  0
 35 38  1  0
 38 39  1  0
 38 40  1  0
 13 41  1  0
 41 42  1  0
  7 43  1  0
 43 44  1  0
 43 45  2  0
 45 46  1  0
 45  2  1  0
 41  8  1  0
 38 21  1  0
M  CHG  1  14   1
M  END
>  <UniqueID>  (36) 
5

>  <SMILES>  (36) 
CC(=O)/[N+](=c1\nnc(Br)c(-c2c(F)cccc2F)[nH]1)C1CCCCCC1

>  <Energy>  (36) 
74.19761558228863

>  <Genealogy>  (36) 
CC(=O)[NH+](c1nnc(Br)c(-c2c(F)cccc2F)n1)C1CCCCCC1 (protonated)
CC(=O)[N+](=c1nnc(Br)c(-c2c(F)cccc2F)[nH]1)C1CCCCCC1 (tautomer)
CC(=O)/[N+](=c1\nnc(Br)c(-c2c(F)cccc2F)[nH]1)C1CCCCCC1 (cis-trans isomerization)
CC(=O)/[N+](=c1\nnc(Br)c(-c2c(F)cccc2F)[nH]1)C1CCCCCC1 (3D coordinates assigned)
CC(=O)/[N+](=c1\nnc(Br)c(-c2c(F)cccc2F)[nH]1)C1CCCCCC1 (nonaromatic ring conformer: 74.19761558228863 kcal/mol)

>  <smiles>  (36) 
CC(=O)N(c1nnc(Br)c(-c2c(F)cccc2F)n1)C1CCCCCC1

>  <score_type>  (36) 
oracle

>  <origin>  (36) 
autodockgpu

>  <m_score__min__energy>  (36) 
-5.2800000000000002

>  <m_primary>  (36) 
energy

>  <meeko>  (36) 
{"free_energy": -4.78, "intermolecular_energy": -7.46, "internal_energy": -1.3, "cluster_size": 5, "cluster_id": 2, "rank_in_cluster": 4}

>  <energy>  (36) 
-4.65

>  <cluster_rmsd>  (36) 
1.23

>  <rmsd>  (36) 
271.64

>  <cluster>  (36) 
4

$$$$
VCUSMEIKIQENRV-DOLDNGAINA-O
     RDKit          3D

 46 48  0  0  0  0  0  0  0  0999 V2000
  144.8355   74.1585  216.6356 H   0  0  0  0  0  0  0  0  0  0  0  0
  144.0870   74.2950  217.4300 C   0  0  0  0  0  0  0  0  0  0  0  0
  142.7920   74.7050  217.1050 C   0  0  0  0  0  0  0  0  0  0  0  0
  142.5209   74.8859  216.0544 H   0  0  0  0  0  0  0  0  0  0  0  0
  141.8390   74.8860  218.1130 C   0  0  0  0  0  0  0  0  0  0  0  0
  140.5850   75.2870  217.7800 F   0  0  0  0  0  0  0  0  0  0  0  0
  142.1840   74.6660  219.4580 C   0  0  0  0  0  0  0  0  0  0  0  0
  141.1660   74.8350  220.5190 C   0  0  0  0  0  0  0  0  0  0  0  0
  140.7080   73.7450  221.2710 C   0  0  0  0  0  0  0  0  0  0  0  0
  141.4060   71.9730  221.0630 Br  0  0  0  0  0  0  0  0  0  0  0  0
  139.7560   73.9610  222.2090 N   0  0  0  0  0  0  0  0  0  0  0  0
  139.2700   75.1790  222.4320 N   0  0  0  0  0  0  0  0  0  0  0  0
  139.7120   76.2700  221.7430 C   0  0  0  0  0  0  0  0  0  0  0  0
  139.2030   77.4650  222.0060 N   0  0  0  0  0  0  0  0  0  0  0  0
  137.8010   77.6880  221.7380 C   0  0  0  0  0  0  0  0  0  0  0  0
  137.4560   78.4430  220.7900 O   0  0  0  0  0  0  0  0  0  0  0  0
  136.7480   77.0460  222.5860 C   0  0  0  0  0  0  0  0  0  0  0  0
  136.9917   77.1946  223.6483 H   0  0  0  0  0  0  0  0  0  0  0  0
  135.7716   77.5026  222.3665 H   0  0  0  0  0  0  0  0  0  0  0  0
  136.7067   75.9689  222.3665 H   0  0  0  0  0  0  0  0  0  0  0  0
  140.0300   78.6260  222.4390 C   0  0  0  0  0  0  0  0  0  0  0  0
  140.2280   79.2529  221.5571 H   0  0  0  0  0  0  0  0  0  0  0  0
  141.4290   78.1940  222.9620 C   0  0  0  0  0  0  0  0  0  0  0  0
  141.3104   77.8706  224.0067 H   0  0  0  0  0  0  0  0  0  0  0  0
  141.7659   77.4034  222.2754 H   0  0  0  0  0  0  0  0  0  0  0  0
  142.5370   79.2670  222.9260 C   0  0  0  0  0  0  0  0  0  0  0  0
  143.3830   78.8994  223.5253 H   0  0  0  0  0  0  0  0  0  0  0  0
  142.7751   79.4164  221.8625 H   0  0  0  0  0  0  0  0  0  0  0  0
  142.1420   80.6530  223.4660 C   0  0  0  0  0  0  0  0  0  0  0  0
  141.8710   80.5555  224.5276 H   0  0  0  0  0  0  0  0  0  0  0  0
  143.0024   81.3252  223.3326 H   0  0  0  0  0  0  0  0  0  0  0  0
  140.9500   81.2550  222.7040 C   0  0  0  0  0  0  0  0  0  0  0  0
  141.0899   82.3445  222.6463 H   0  0  0  0  0  0  0  0  0  0  0  0
  140.9310   80.7796  221.7122 H   0  0  0  0  0  0  0  0  0  0  0  0
  139.5910   80.9760  223.3590 C   0  0  0  0  0  0  0  0  0  0  0  0
  139.6002   81.4032  224.3726 H   0  0  0  0  0  0  0  0  0  0  0  0
  138.8251   81.4344  222.7161 H   0  0  0  0  0  0  0  0  0  0  0  0
  139.2500   79.4820  223.4660 C   0  0  0  0  0  0  0  0  0  0  0  0
  139.5000   79.1339  224.4791 H   0  0  0  0  0  0  0  0  0  0  0  0
  138.1768   79.3660  223.2545 H   0  0  0  0  0  0  0  0  0  0  0  0
  140.6620   76.0750  220.7720 N   0  0  0  0  0  0  0  0  0  0  0  0
  140.9910   76.8470  220.1550 H   0  0  0  0  0  0  0  0  0  0  0  0
  143.4860   74.2370  219.7770 C   0  0  0  0  0  0  0  0  0  0  0  0
  143.8300   73.9700  221.0620 F   0  0  0  0  0  0  0  0  0  0  0  0
  144.4330   74.0580  218.7630 C   0  0  0  0  0  0  0  0  0  0  0  0
  145.4521   73.7300  219.0155 H   0  0  0  0  0  0  0  0  0  0  0  0
  1  2  1  0
  2  3  2  0
  3  4  1  0
  3  5  1  0
  5  6  1  0
  5  7  2  0
  7  8  1  0
  8  9  2  0
  9 10  1  0
  9 11  1  0
 11 12  2  0
 12 13  1  0
 13 14  2  0
 14 15  1  0
 15 16  2  0
 15 17  1  0
 17 18  1  0
 17 19  1  0
 17 20  1  0
 14 21  1  0
 21 22  1  0
 21 23  1  0
 23 24  1  0
 23 25  1  0
 23 26  1  0
 26 27  1  0
 26 28  1  0
 26 29  1  0
 29 30  1  0
 29 31  1  0
 29 32  1  0
 32 33  1  0
 32 34  1  0
 32 35  1  0
 35 36  1  0
 35 37  1  0
 35 38  1  0
 38 39  1  0
 38 40  1  0
 13 41  1  0
 41 42  1  0
  7 43  1  0
 43 44  1  0
 43 45  2  0
 45 46  1  0
 45  2  1  0
 41  8  1  0
 38 21  1  0
M  CHG  1  14   1
M  END
>  <UniqueID>  (37) 
5

>  <SMILES>  (37) 
CC(=O)/[N+](=c1\nnc(Br)c(-c2c(F)cccc2F)[nH]1)C1CCCCCC1

>  <Energy>  (37) 
74.19761558228863

>  <Genealogy>  (37) 
CC(=O)[NH+](c1nnc(Br)c(-c2c(F)cccc2F)n1)C1CCCCCC1 (protonated)
CC(=O)[N+](=c1nnc(Br)c(-c2c(F)cccc2F)[nH]1)C1CCCCCC1 (tautomer)
CC(=O)/[N+](=c1\nnc(Br)c(-c2c(F)cccc2F)[nH]1)C1CCCCCC1 (cis-trans isomerization)
CC(=O)/[N+](=c1\nnc(Br)c(-c2c(F)cccc2F)[nH]1)C1CCCCCC1 (3D coordinates assigned)
CC(=O)/[N+](=c1\nnc(Br)c(-c2c(F)cccc2F)[nH]1)C1CCCCCC1 (nonaromatic ring conformer: 74.19761558228863 kcal/mol)

>  <smiles>  (37) 
CC(=O)N(c1nnc(Br)c(-c2c(F)cccc2F)n1)C1CCCCCC1

>  <score_type>  (37) 
oracle

>  <origin>  (37) 
autodockgpu

>  <m_score__min__energy>  (37) 
-5.2800000000000002

>  <m_primary>  (37) 
energy

>  <meeko>  (37) 
{"free_energy": -4.46, "intermolecular_energy": -7.15, "internal_energy": -1.2, "cluster_size": 3, "cluster_id": 4, "rank_in_cluster": 3}

>  <energy>  (37) 
-4.46

>  <cluster_rmsd>  (37) 
1.63

>  <rmsd>  (37) 
271.36

>  <cluster>  (37) 
4

$$$$
VCUSMEIKIQENRV-DOLDNGAINA-O
     RDKit          3D

 46 48  0  0  0  0  0  0  0  0999 V2000
  143.4588   81.6649  222.4154 H   0  0  0  0  0  0  0  0  0  0  0  0
  142.8300   80.7630  222.3810 C   0  0  0  0  0  0  0  0  0  0  0  0
  142.1450   80.4340  221.2090 C   0  0  0  0  0  0  0  0  0  0  0  0
  142.2394   81.0750  220.3200 H   0  0  0  0  0  0  0  0  0  0  0  0
  141.3390   79.2910  221.1630 C   0  0  0  0  0  0  0  0  0  0  0  0
  140.6790   78.9870  220.0160 F   0  0  0  0  0  0  0  0  0  0  0  0
  141.2070   78.4740  222.3000 C   0  0  0  0  0  0  0  0  0  0  0  0
  140.3740   77.2540  222.2400 C   0  0  0  0  0  0  0  0  0  0  0  0
  138.9880   77.3040  222.4420 C   0  0  0  0  0  0  0  0  0  0  0  0
  138.0400   78.9450  222.7270 Br  0  0  0  0  0  0  0  0  0  0  0  0
  138.2850   76.1490  222.4010 N   0  0  0  0  0  0  0  0  0  0  0  0
  138.8820   74.9850  222.1580 N   0  0  0  0  0  0  0  0  0  0  0  0
  140.2240   74.8980  221.9230 C   0  0  0  0  0  0  0  0  0  0  0  0
  140.7730   73.7170  221.6780 N   0  0  0  0  0  0  0  0  0  0  0  0
  140.0130   72.5280  221.9870 C   0  0  0  0  0  0  0  0  0  0  0  0
  140.3660   71.7910  222.9460 O   0  0  0  0  0  0  0  0  0  0  0  0
  138.8190   72.1490  221.1690 C   0  0  0  0  0  0  0  0  0  0  0  0
  137.9859   71.8846  221.8369 H   0  0  0  0  0  0  0  0  0  0  0  0
  138.5249   72.9979  220.5344 H   0  0  0  0  0  0  0  0  0  0  0  0
  139.0683   71.2858  220.5344 H   0  0  0  0  0  0  0  0  0  0  0  0
  142.1820   73.5530  221.2240 C   0  0  0  0  0  0  0  0  0  0  0  0
  142.8436   73.7952  222.0688 H   0  0  0  0  0  0  0  0  0  0  0  0
  142.5620   74.5570  220.0980 C   0  0  0  0  0  0  0  0  0  0  0  0
  142.4112   74.0506  219.1332 H   0  0  0  0  0  0  0  0  0  0  0  0
  141.9170   75.4335  220.2583 H   0  0  0  0  0  0  0  0  0  0  0  0
  144.0060   75.1010  220.1220 C   0  0  0  0  0  0  0  0  0  0  0  0
  144.1340   75.7578  219.2489 H   0  0  0  0  0  0  0  0  0  0  0  0
  144.1160   75.6155  221.0880 H   0  0  0  0  0  0  0  0  0  0  0  0
  145.1200   74.0410  220.0830 C   0  0  0  0  0  0  0  0  0  0  0  0
  145.1737   73.6208  219.0678 H   0  0  0  0  0  0  0  0  0  0  0  0
  146.0634   74.5322  220.3635 H   0  0  0  0  0  0  0  0  0  0  0  0
  144.8690   72.8980  221.0790 C   0  0  0  0  0  0  0  0  0  0  0  0
  145.8353   72.4337  221.3255 H   0  0  0  0  0  0  0  0  0  0  0  0
  144.3792   73.3402  221.9591 H   0  0  0  0  0  0  0  0  0  0  0  0
  143.9310   71.8090  220.5440 C   0  0  0  0  0  0  0  0  0  0  0  0
  144.0735   71.7321  219.4560 H   0  0  0  0  0  0  0  0  0  0  0  0
  144.1889   70.8773  221.0688 H   0  0  0  0  0  0  0  0  0  0  0  0
  142.4440   72.0820  220.8200 C   0  0  0  0  0  0  0  0  0  0  0  0
  141.8682   71.8571  219.9101 H   0  0  0  0  0  0  0  0  0  0  0  0
  142.1346   71.4422  221.6596 H   0  0  0  0  0  0  0  0  0  0  0  0
  140.9630   76.0530  221.9810 N   0  0  0  0  0  0  0  0  0  0  0  0
  142.0000   76.0530  221.8890 H   0  0  0  0  0  0  0  0  0  0  0  0
  141.9130   78.8030  223.4720 C   0  0  0  0  0  0  0  0  0  0  0  0
  141.8420   78.0050  224.5680 F   0  0  0  0  0  0  0  0  0  0  0  0
  142.7170   79.9470  223.5100 C   0  0  0  0  0  0  0  0  0  0  0  0
  143.2614   80.2049  224.4304 H   0  0  0  0  0  0  0  0  0  0  0  0
  1  2  1  0
  2  3  2  0
  3  4  1  0
  3  5  1  0
  5  6  1  0
  5  7  2  0
  7  8  1  0
  8  9  2  0
  9 10  1  0
  9 11  1  0
 11 12  2  0
 12 13  1  0
 13 14  2  0
 14 15  1  0
 15 16  2  0
 15 17  1  0
 17 18  1  0
 17 19  1  0
 17 20  1  0
 14 21  1  0
 21 22  1  0
 21 23  1  0
 23 24  1  0
 23 25  1  0
 23 26  1  0
 26 27  1  0
 26 28  1  0
 26 29  1  0
 29 30  1  0
 29 31  1  0
 29 32  1  0
 32 33  1  0
 32 34  1  0
 32 35  1  0
 35 36  1  0
 35 37  1  0
 35 38  1  0
 38 39  1  0
 38 40  1  0
 13 41  1  0
 41 42  1  0
  7 43  1  0
 43 44  1  0
 43 45  2  0
 45 46  1  0
 45  2  1  0
 41  8  1  0
 38 21  1  0
M  CHG  1  14   1
M  END
>  <UniqueID>  (38) 
5

>  <SMILES>  (38) 
CC(=O)/[N+](=c1\nnc(Br)c(-c2c(F)cccc2F)[nH]1)C1CCCCCC1

>  <Energy>  (38) 
74.19761558228863

>  <Genealogy>  (38) 
CC(=O)[NH+](c1nnc(Br)c(-c2c(F)cccc2F)n1)C1CCCCCC1 (protonated)
CC(=O)[N+](=c1nnc(Br)c(-c2c(F)cccc2F)[nH]1)C1CCCCCC1 (tautomer)
CC(=O)/[N+](=c1\nnc(Br)c(-c2c(F)cccc2F)[nH]1)C1CCCCCC1 (cis-trans isomerization)
CC(=O)/[N+](=c1\nnc(Br)c(-c2c(F)cccc2F)[nH]1)C1CCCCCC1 (3D coordinates assigned)
CC(=O)/[N+](=c1\nnc(Br)c(-c2c(F)cccc2F)[nH]1)C1CCCCCC1 (nonaromatic ring conformer: 74.19761558228863 kcal/mol)

>  <smiles>  (38) 
CC(=O)N(c1nnc(Br)c(-c2c(F)cccc2F)n1)C1CCCCCC1

>  <score_type>  (38) 
oracle

>  <origin>  (38) 
autodockgpu

>  <m_score__min__energy>  (38) 
-5.2800000000000002

>  <m_primary>  (38) 
energy

>  <meeko>  (38) 
{"free_energy": -5.27, "intermolecular_energy": -7.96, "internal_energy": -1.21, "cluster_size": 5, "cluster_id": 1, "rank_in_cluster": 2}

>  <energy>  (38) 
-4.45

>  <cluster_rmsd>  (38) 
0.0

>  <rmsd>  (38) 
271.9

>  <cluster>  (38) 
5

$$$$
VCUSMEIKIQENRV-DOLDNGAINA-O
     RDKit          3D

 46 48  0  0  0  0  0  0  0  0999 V2000
  139.6627   81.6636  224.6627 H   0  0  0  0  0  0  0  0  0  0  0  0
  140.0200   80.9310  223.9240 C   0  0  0  0  0  0  0  0  0  0  0  0
  139.1070   80.1120  223.2550 C   0  0  0  0  0  0  0  0  0  0  0  0
  138.0311   80.2041  223.4647 H   0  0  0  0  0  0  0  0  0  0  0  0
  139.5580   79.1750  222.3190 C   0  0  0  0  0  0  0  0  0  0  0  0
  138.6570   78.3860  221.6810 F   0  0  0  0  0  0  0  0  0  0  0  0
  140.9330   79.0450  222.0570 C   0  0  0  0  0  0  0  0  0  0  0  0
  141.4040   78.0700  221.0490 C   0  0  0  0  0  0  0  0  0  0  0  0
  141.8420   78.4810  219.7830 C   0  0  0  0  0  0  0  0  0  0  0  0
  141.9560   80.3250  219.2730 Br  0  0  0  0  0  0  0  0  0  0  0  0
  142.2350   77.5380  218.8960 N   0  0  0  0  0  0  0  0  0  0  0  0
  142.2250   76.2460  219.2120 N   0  0  0  0  0  0  0  0  0  0  0  0
  141.8350   75.8070  220.4440 C   0  0  0  0  0  0  0  0  0  0  0  0
  141.8490   74.5100  220.7150 N   0  0  0  0  0  0  0  0  0  0  0  0
  140.6280   73.8930  221.1810 C   0  0  0  0  0  0  0  0  0  0  0  0
  140.5400   73.5030  222.3750 O   0  0  0  0  0  0  0  0  0  0  0  0
  139.4690   73.6940  220.2550 C   0  0  0  0  0  0  0  0  0  0  0  0
  138.5527   73.5367  220.8430 H   0  0  0  0  0  0  0  0  0  0  0  0
  139.3493   74.5847  219.6208 H   0  0  0  0  0  0  0  0  0  0  0  0
  139.6532   72.8143  219.6208 H   0  0  0  0  0  0  0  0  0  0  0  0
  143.0880   73.6840  220.6880 C   0  0  0  0  0  0  0  0  0  0  0  0
  143.4066   73.5120  221.7267 H   0  0  0  0  0  0  0  0  0  0  0  0
  144.2760   74.4220  220.0050 C   0  0  0  0  0  0  0  0  0  0  0  0
  144.2720   74.1482  218.9396 H   0  0  0  0  0  0  0  0  0  0  0  0
  144.1074   75.4911  220.2013 H   0  0  0  0  0  0  0  0  0  0  0  0
  145.6830   74.1200  220.5620 C   0  0  0  0  0  0  0  0  0  0  0  0
  146.3934   74.8039  220.0745 H   0  0  0  0  0  0  0  0  0  0  0  0
  145.6095   74.2550  221.6512 H   0  0  0  0  0  0  0  0  0  0  0  0
  146.1900   72.6830  220.3510 C   0  0  0  0  0  0  0  0  0  0  0  0
  147.1887   72.7231  219.8916 H   0  0  0  0  0  0  0  0  0  0  0  0
  146.2217   72.1875  221.3326 H   0  0  0  0  0  0  0  0  0  0  0  0
  145.2580   71.8690  219.4400 C   0  0  0  0  0  0  0  0  0  0  0  0
  144.9474   72.5090  218.6010 H   0  0  0  0  0  0  0  0  0  0  0  0
  145.8246   70.9862  219.1091 H   0  0  0  0  0  0  0  0  0  0  0  0
  143.9980   71.3520  220.1460 C   0  0  0  0  0  0  0  0  0  0  0  0
  143.7152   70.3909  219.6919 H   0  0  0  0  0  0  0  0  0  0  0  0
  144.2446   71.2556  221.2136 H   0  0  0  0  0  0  0  0  0  0  0  0
  142.7980   72.3070  220.0470 C   0  0  0  0  0  0  0  0  0  0  0  0
  142.5515   72.4561  218.9854 H   0  0  0  0  0  0  0  0  0  0  0  0
  141.9598   71.8513  220.5945 H   0  0  0  0  0  0  0  0  0  0  0  0
  141.4120   76.7420  221.3550 N   0  0  0  0  0  0  0  0  0  0  0  0
  141.0290   76.4760  222.2850 H   0  0  0  0  0  0  0  0  0  0  0  0
  141.8460   79.8850  222.7210 C   0  0  0  0  0  0  0  0  0  0  0  0
  143.1740   79.8150  222.4490 F   0  0  0  0  0  0  0  0  0  0  0  0
  141.3880   80.8200  223.6550 C   0  0  0  0  0  0  0  0  0  0  0  0
  142.1050   81.4692  224.1789 H   0  0  0  0  0  0  0  0  0  0  0  0
  1  2  1  0
  2  3  2  0
  3  4  1  0
  3  5  1  0
  5  6  1  0
  5  7  2  0
  7  8  1  0
  8  9  2  0
  9 10  1  0
  9 11  1  0
 11 12  2  0
 12 13  1  0
 13 14  2  0
 14 15  1  0
 15 16  2  0
 15 17  1  0
 17 18  1  0
 17 19  1  0
 17 20  1  0
 14 21  1  0
 21 22  1  0
 21 23  1  0
 23 24  1  0
 23 25  1  0
 23 26  1  0
 26 27  1  0
 26 28  1  0
 26 29  1  0
 29 30  1  0
 29 31  1  0
 29 32  1  0
 32 33  1  0
 32 34  1  0
 32 35  1  0
 35 36  1  0
 35 37  1  0
 35 38  1  0
 38 39  1  0
 38 40  1  0
 13 41  1  0
 41 42  1  0
  7 43  1  0
 43 44  1  0
 43 45  2  0
 45 46  1  0
 45  2  1  0
 41  8  1  0
 38 21  1  0
M  CHG  1  14   1
M  END
>  <UniqueID>  (39) 
5

>  <SMILES>  (39) 
CC(=O)/[N+](=c1\nnc(Br)c(-c2c(F)cccc2F)[nH]1)C1CCCCCC1

>  <Energy>  (39) 
74.19761558228863

>  <Genealogy>  (39) 
CC(=O)[NH+](c1nnc(Br)c(-c2c(F)cccc2F)n1)C1CCCCCC1 (protonated)
CC(=O)[N+](=c1nnc(Br)c(-c2c(F)cccc2F)[nH]1)C1CCCCCC1 (tautomer)
CC(=O)/[N+](=c1\nnc(Br)c(-c2c(F)cccc2F)[nH]1)C1CCCCCC1 (cis-trans isomerization)
CC(=O)/[N+](=c1\nnc(Br)c(-c2c(F)cccc2F)[nH]1)C1CCCCCC1 (3D coordinates assigned)
CC(=O)/[N+](=c1\nnc(Br)c(-c2c(F)cccc2F)[nH]1)C1CCCCCC1 (nonaromatic ring conformer: 74.19761558228863 kcal/mol)

>  <smiles>  (39) 
CC(=O)N(c1nnc(Br)c(-c2c(F)cccc2F)n1)C1CCCCCC1

>  <score_type>  (39) 
oracle

>  <origin>  (39) 
autodockgpu

>  <m_score__min__energy>  (39) 
-5.2800000000000002

>  <m_primary>  (39) 
energy

>  <meeko>  (39) 
{"free_energy": -4.97, "intermolecular_energy": -7.66, "internal_energy": -1.19, "cluster_size": 5, "cluster_id": 2, "rank_in_cluster": 3}

>  <energy>  (39) 
-4.44

>  <cluster_rmsd>  (39) 
0.73

>  <rmsd>  (39) 
272.09

>  <cluster>  (39) 
5

$$$$
VCUSMEIKIQENRV-DOLDNGAINA-O
     RDKit          3D

 46 48  0  0  0  0  0  0  0  0999 V2000
  142.5321   82.3567  224.1594 H   0  0  0  0  0  0  0  0  0  0  0  0
  142.2530   81.4560  223.5930 C   0  0  0  0  0  0  0  0  0  0  0  0
  141.7970   81.5720  222.2780 C   0  0  0  0  0  0  0  0  0  0  0  0
  141.7222   82.5640  221.8087 H   0  0  0  0  0  0  0  0  0  0  0  0
  141.4350   80.4290  221.5560 C   0  0  0  0  0  0  0  0  0  0  0  0
  140.9910   80.5610  220.2800 F   0  0  0  0  0  0  0  0  0  0  0  0
  141.5190   79.1600  222.1550 C   0  0  0  0  0  0  0  0  0  0  0  0
  141.1580   77.9530  221.3800 C   0  0  0  0  0  0  0  0  0  0  0  0
  139.9210   77.3170  221.5510 C   0  0  0  0  0  0  0  0  0  0  0  0
  138.5620   77.9910  222.7220 Br  0  0  0  0  0  0  0  0  0  0  0  0
  139.6620   76.2010  220.8310 N   0  0  0  0  0  0  0  0  0  0  0  0
  140.5480   75.7160  219.9660 N   0  0  0  0  0  0  0  0  0  0  0  0
  141.7500   76.3220  219.7480 C   0  0  0  0  0  0  0  0  0  0  0  0
  142.5980   75.8060  218.8700 N   0  0  0  0  0  0  0  0  0  0  0  0
  142.6210   76.3520  217.5330 C   0  0  0  0  0  0  0  0  0  0  0  0
  142.1850   75.6680  216.5700 O   0  0  0  0  0  0  0  0  0  0  0  0
  143.1740   77.7190  217.2740 C   0  0  0  0  0  0  0  0  0  0  0  0
  143.3767   78.2201  218.2320 H   0  0  0  0  0  0  0  0  0  0  0  0
  144.1084   77.6338  216.6998 H   0  0  0  0  0  0  0  0  0  0  0  0
  142.4432   78.3074  216.6998 H   0  0  0  0  0  0  0  0  0  0  0  0
  143.4360   74.6070  219.1540 C   0  0  0  0  0  0  0  0  0  0  0  0
  144.1338   74.4706  218.3147 H   0  0  0  0  0  0  0  0  0  0  0  0
  142.5960   73.2990  219.2130 C   0  0  0  0  0  0  0  0  0  0  0  0
  141.5591   73.5778  219.4519 H   0  0  0  0  0  0  0  0  0  0  0  0
  142.7252   72.8243  218.2291 H   0  0  0  0  0  0  0  0  0  0  0  0
  143.0460   72.2400  220.2410 C   0  0  0  0  0  0  0  0  0  0  0  0
  142.9314   72.6738  221.2453 H   0  0  0  0  0  0  0  0  0  0  0  0
  142.4126   71.3589  220.0608 H   0  0  0  0  0  0  0  0  0  0  0  0
  144.4970   71.7490  220.1010 C   0  0  0  0  0  0  0  0  0  0  0  0
  144.5568   70.7111  220.4604 H   0  0  0  0  0  0  0  0  0  0  0  0
  144.7785   71.8200  219.0400 H   0  0  0  0  0  0  0  0  0  0  0  0
  145.4810   72.6140  220.9130 C   0  0  0  0  0  0  0  0  0  0  0  0
  145.1400   72.6376  221.9586 H   0  0  0  0  0  0  0  0  0  0  0  0
  146.4749   72.1555  220.8032 H   0  0  0  0  0  0  0  0  0  0  0  0
  145.5990   74.0580  220.4110 C   0  0  0  0  0  0  0  0  0  0  0  0
  146.3227   74.5885  221.0473 H   0  0  0  0  0  0  0  0  0  0  0  0
  145.9209   74.0070  219.3604 H   0  0  0  0  0  0  0  0  0  0  0  0
  144.2720   74.8330  220.4360 C   0  0  0  0  0  0  0  0  0  0  0  0
  143.6845   74.5007  221.3046 H   0  0  0  0  0  0  0  0  0  0  0  0
  144.5096   75.9052  220.4983 H   0  0  0  0  0  0  0  0  0  0  0  0
  142.0460   77.4450  220.4800 N   0  0  0  0  0  0  0  0  0  0  0  0
  142.9730   77.9160  220.4240 H   0  0  0  0  0  0  0  0  0  0  0  0
  141.9950   79.0490  223.4740 C   0  0  0  0  0  0  0  0  0  0  0  0
  142.1330   77.8320  224.0590 F   0  0  0  0  0  0  0  0  0  0  0  0
  142.3550   80.1960  224.1900 C   0  0  0  0  0  0  0  0  0  0  0  0
  142.7188   80.1062  225.2242 H   0  0  0  0  0  0  0  0  0  0  0  0
  1  2  1  0
  2  3  2  0
  3  4  1  0
  3  5  1  0
  5  6  1  0
  5  7  2  0
  7  8  1  0
  8  9  2  0
  9 10  1  0
  9 11  1  0
 11 12  2  0
 12 13  1  0
 13 14  2  0
 14 15  1  0
 15 16  2  0
 15 17  1  0
 17 18  1  0
 17 19  1  0
 17 20  1  0
 14 21  1  0
 21 22  1  0
 21 23  1  0
 23 24  1  0
 23 25  1  0
 23 26  1  0
 26 27  1  0
 26 28  1  0
 26 29  1  0
 29 30  1  0
 29 31  1  0
 29 32  1  0
 32 33  1  0
 32 34  1  0
 32 35  1  0
 35 36  1  0
 35 37  1  0
 35 38  1  0
 38 39  1  0
 38 40  1  0
 13 41  1  0
 41 42  1  0
  7 43  1  0
 43 44  1  0
 43 45  2  0
 45 46  1  0
 45  2  1  0
 41  8  1  0
 38 21  1  0
M  CHG  1  14   1
M  END
>  <UniqueID>  (40) 
5

>  <SMILES>  (40) 
CC(=O)/[N+](=c1\nnc(Br)c(-c2c(F)cccc2F)[nH]1)C1CCCCCC1

>  <Energy>  (40) 
74.19761558228863

>  <Genealogy>  (40) 
CC(=O)[NH+](c1nnc(Br)c(-c2c(F)cccc2F)n1)C1CCCCCC1 (protonated)
CC(=O)[N+](=c1nnc(Br)c(-c2c(F)cccc2F)[nH]1)C1CCCCCC1 (tautomer)
CC(=O)/[N+](=c1\nnc(Br)c(-c2c(F)cccc2F)[nH]1)C1CCCCCC1 (cis-trans isomerization)
CC(=O)/[N+](=c1\nnc(Br)c(-c2c(F)cccc2F)[nH]1)C1CCCCCC1 (3D coordinates assigned)
CC(=O)/[N+](=c1\nnc(Br)c(-c2c(F)cccc2F)[nH]1)C1CCCCCC1 (nonaromatic ring conformer: 74.19761558228863 kcal/mol)

>  <smiles>  (40) 
CC(=O)N(c1nnc(Br)c(-c2c(F)cccc2F)n1)C1CCCCCC1

>  <score_type>  (40) 
oracle

>  <origin>  (40) 
autodockgpu

>  <m_score__min__energy>  (40) 
-5.2800000000000002

>  <m_primary>  (40) 
energy

>  <meeko>  (40) 
{"free_energy": -4.49, "intermolecular_energy": -7.18, "internal_energy": -1.3, "cluster_size": 4, "cluster_id": 3, "rank_in_cluster": 4}

>  <energy>  (40) 
-4.11

>  <cluster_rmsd>  (40) 
0.0

>  <rmsd>  (40) 
270.99

>  <cluster>  (40) 
6

$$$$
VCUSMEIKIQENRV-OLELRBRINA-O
     RDKit          3D

 46 48  0  0  0  0  0  0  0  0999 V2000
  136.3210   84.3803  222.8046 H   0  0  0  0  0  0  0  0  0  0  0  0
  136.5480   83.3040  222.8140 C   0  0  0  0  0  0  0  0  0  0  0  0
  136.5060   82.5710  221.6250 C   0  0  0  0  0  0  0  0  0  0  0  0
  136.2434   83.0708  220.6810 H   0  0  0  0  0  0  0  0  0  0  0  0
  136.7970   81.2040  221.6330 C   0  0  0  0  0  0  0  0  0  0  0  0
  136.7520   80.5090  220.4680 F   0  0  0  0  0  0  0  0  0  0  0  0
  137.1490   80.5630  222.8340 C   0  0  0  0  0  0  0  0  0  0  0  0
  137.4180   79.1120  222.8420 C   0  0  0  0  0  0  0  0  0  0  0  0
  138.6680   78.6800  222.5460 N   0  0  0  0  0  0  0  0  0  0  0  0
  138.9940   77.3590  222.5240 C   0  0  0  0  0  0  0  0  0  0  0  0
  140.2230   76.9860  222.2100 N   0  0  0  0  0  0  0  0  0  0  0  0
  140.4840   75.6830  221.6510 C   0  0  0  0  0  0  0  0  0  0  0  0
  140.2370   74.6470  222.3270 O   0  0  0  0  0  0  0  0  0  0  0  0
  141.1170   75.5470  220.3040 C   0  0  0  0  0  0  0  0  0  0  0  0
  142.1862   75.3173  220.4228 H   0  0  0  0  0  0  0  0  0  0  0  0
  140.6267   74.7337  219.7489 H   0  0  0  0  0  0  0  0  0  0  0  0
  141.0040   76.4899  219.7489 H   0  0  0  0  0  0  0  0  0  0  0  0
  141.4070   77.8550  222.4440 C   0  0  0  0  0  0  0  0  0  0  0  0
  142.2960   77.2326  222.6236 H   0  0  0  0  0  0  0  0  0  0  0  0
  141.2320   78.6800  223.7480 C   0  0  0  0  0  0  0  0  0  0  0  0
  140.2014   79.0636  223.7771 H   0  0  0  0  0  0  0  0  0  0  0  0
  141.4596   78.0009  224.5829 H   0  0  0  0  0  0  0  0  0  0  0  0
  142.1950   79.8750  223.8770 C   0  0  0  0  0  0  0  0  0  0  0  0
  142.1545   80.2315  224.9168 H   0  0  0  0  0  0  0  0  0  0  0  0
  143.1833   79.4990  223.5738 H   0  0  0  0  0  0  0  0  0  0  0  0
  141.8990   81.0690  222.9560 C   0  0  0  0  0  0  0  0  0  0  0  0
  141.7161   81.9523  223.5856 H   0  0  0  0  0  0  0  0  0  0  0  0
  142.7743   81.1843  222.2999 H   0  0  0  0  0  0  0  0  0  0  0  0
  140.6820   80.8740  222.0350 C   0  0  0  0  0  0  0  0  0  0  0  0
  139.8484   80.5069  222.6517 H   0  0  0  0  0  0  0  0  0  0  0  0
  140.5002   81.8548  221.5713 H   0  0  0  0  0  0  0  0  0  0  0  0
  140.8730   79.8870  220.8620 C   0  0  0  0  0  0  0  0  0  0  0  0
  139.8820   79.5087  220.5709 H   0  0  0  0  0  0  0  0  0  0  0  0
  141.3787   80.4533  220.0660 H   0  0  0  0  0  0  0  0  0  0  0  0
  141.7760   78.6750  221.1640 C   0  0  0  0  0  0  0  0  0  0  0  0
  141.7275   77.9944  220.3012 H   0  0  0  0  0  0  0  0  0  0  0  0
  142.7782   79.0878  221.3515 H   0  0  0  0  0  0  0  0  0  0  0  0
  138.0070   76.4490  222.8020 N   0  0  0  0  0  0  0  0  0  0  0  0
  138.1750   75.4200  222.7680 H   0  0  0  0  0  0  0  0  0  0  0  0
  136.7740   76.8510  223.1150 N   0  0  0  0  0  0  0  0  0  0  0  0
  136.4370   78.1640  223.1510 C   0  0  0  0  0  0  0  0  0  0  0  0
  134.6620   78.6440  223.6890 Br  0  0  0  0  0  0  0  0  0  0  0  0
  137.1710   81.3030  224.0300 C   0  0  0  0  0  0  0  0  0  0  0  0
  137.4470   80.6980  225.2140 F   0  0  0  0  0  0  0  0  0  0  0  0
  136.8780   82.6710  224.0140 C   0  0  0  0  0  0  0  0  0  0  0  0
  136.9077   83.2493  224.9492 H   0  0  0  0  0  0  0  0  0  0  0  0
  1  2  1  0
  2  3  2  0
  3  4  1  0
  3  5  1  0
  5  6  1  0
  5  7  2  0
  7  8  1  0
  8  9  2  0
  9 10  1  0
 10 11  2  0
 11 12  1  0
 12 13  2  0
 12 14  1  0
 14 15  1  0
 14 16  1  0
 14 17  1  0
 11 18  1  0
 18 19  1  0
 18 20  1  0
 20 21  1  0
 20 22  1  0
 20 23  1  0
 23 24  1  0
 23 25  1  0
 23 26  1  0
 26 27  1  0
 26 28  1  0
 26 29  1  0
 29 30  1  0
 29 31  1  0
 29 32  1  0
 32 33  1  0
 32 34  1  0
 32 35  1  0
 35 36  1  0
 35 37  1  0
 10 38  1  0
 38 39  1  0
 38 40  1  0
 40 41  2  0
 41 42  1  0
  7 43  1  0
 43 44  1  0
 43 45  2  0
 45 46  1  0
 45  2  1  0
 41  8  1  0
 35 18  1  0
M  CHG  1  11   1
M  END
>  <UniqueID>  (41) 
6

>  <SMILES>  (41) 
CC(=O)/[N+](=c1/nc(-c2c(F)cccc2F)c(Br)n[nH]1)C1CCCCCC1

>  <Energy>  (41) 
75.59737830364624

>  <Genealogy>  (41) 
CC(=O)[NH+](c1nnc(Br)c(-c2c(F)cccc2F)n1)C1CCCCCC1 (protonated)
CC(=O)[N+](=c1nc(-c2c(F)cccc2F)c(Br)n[nH]1)C1CCCCCC1 (tautomer)
CC(=O)/[N+](=c1/nc(-c2c(F)cccc2F)c(Br)n[nH]1)C1CCCCCC1 (cis-trans isomerization)
CC(=O)/[N+](=c1/nc(-c2c(F)cccc2F)c(Br)n[nH]1)C1CCCCCC1 (3D coordinates assigned)
CC(=O)/[N+](=c1/nc(-c2c(F)cccc2F)c(Br)n[nH]1)C1CCCCCC1 (nonaromatic ring conformer: 75.59737830364624 kcal/mol)

>  <smiles>  (41) 
CC(=O)N(c1nnc(Br)c(-c2c(F)cccc2F)n1)C1CCCCCC1

>  <score_type>  (41) 
oracle

>  <origin>  (41) 
autodockgpu

>  <m_score__min__energy>  (41) 
-4.4000000000000004

>  <m_primary>  (41) 
energy

>  <meeko>  (41) 
{"free_energy": -3.88, "intermolecular_energy": -6.57, "internal_energy": -2.34, "cluster_size": 9, "cluster_id": 3, "rank_in_cluster": 5}

>  <energy>  (41) 
-4.4

>  <cluster_rmsd>  (41) 
0.0

>  <rmsd>  (41) 
272.42

>  <cluster>  (41) 
1

$$$$
VCUSMEIKIQENRV-OLELRBRINA-O
     RDKit          3D

 46 48  0  0  0  0  0  0  0  0999 V2000
  137.9289   71.2442  221.4013 H   0  0  0  0  0  0  0  0  0  0  0  0
  138.7190   71.9760  221.1770 C   0  0  0  0  0  0  0  0  0  0  0  0
  138.8440   73.1300  221.9550 C   0  0  0  0  0  0  0  0  0  0  0  0
  138.1487   73.3079  222.7886 H   0  0  0  0  0  0  0  0  0  0  0  0
  139.8510   74.0590  221.6760 C   0  0  0  0  0  0  0  0  0  0  0  0
  139.9570   75.1730  222.4450 F   0  0  0  0  0  0  0  0  0  0  0  0
  140.7500   73.8310  220.6200 C   0  0  0  0  0  0  0  0  0  0  0  0
  141.7860   74.8340  220.3070 C   0  0  0  0  0  0  0  0  0  0  0  0
  141.4120   76.1250  220.1380 N   0  0  0  0  0  0  0  0  0  0  0  0
  142.3050   77.1070  219.8390 C   0  0  0  0  0  0  0  0  0  0  0  0
  141.8890   78.3500  219.6640 N   0  0  0  0  0  0  0  0  0  0  0  0
  142.0680   79.0240  218.4020 C   0  0  0  0  0  0  0  0  0  0  0  0
  143.2310   79.2490  217.9690 O   0  0  0  0  0  0  0  0  0  0  0  0
  140.8870   79.5280  217.6360 C   0  0  0  0  0  0  0  0  0  0  0  0
  140.1087   79.8601  218.3388 H   0  0  0  0  0  0  0  0  0  0  0  0
  141.1942   80.3734  217.0028 H   0  0  0  0  0  0  0  0  0  0  0  0
  140.4892   78.7213  217.0028 H   0  0  0  0  0  0  0  0  0  0  0  0
  141.2520   79.1400  220.7520 C   0  0  0  0  0  0  0  0  0  0  0  0
  140.1862   79.2931  220.5268 H   0  0  0  0  0  0  0  0  0  0  0  0
  141.8520   80.5700  220.8130 C   0  0  0  0  0  0  0  0  0  0  0  0
  142.8838   80.4948  221.1868 H   0  0  0  0  0  0  0  0  0  0  0  0
  141.7948   80.9789  219.7934 H   0  0  0  0  0  0  0  0  0  0  0  0
  141.0790   81.5450  221.7230 C   0  0  0  0  0  0  0  0  0  0  0  0
  141.7007   82.4415  221.8637 H   0  0  0  0  0  0  0  0  0  0  0  0
  140.1248   81.7409  221.2120 H   0  0  0  0  0  0  0  0  0  0  0  0
  140.7080   81.0040  223.1130 C   0  0  0  0  0  0  0  0  0  0  0  0
  140.4338   81.8566  223.7517 H   0  0  0  0  0  0  0  0  0  0  0  0
  139.8798   80.2958  222.9626 H   0  0  0  0  0  0  0  0  0  0  0  0
  141.8320   80.2210  223.8130 C   0  0  0  0  0  0  0  0  0  0  0  0
  142.7332   80.8518  223.8093 H   0  0  0  0  0  0  0  0  0  0  0  0
  141.4473   79.9873  224.8167 H   0  0  0  0  0  0  0  0  0  0  0  0
  142.2070   78.8590  223.1860 C   0  0  0  0  0  0  0  0  0  0  0  0
  143.2050   78.9557  222.7336 H   0  0  0  0  0  0  0  0  0  0  0  0
  142.1649   78.1243  224.0036 H   0  0  0  0  0  0  0  0  0  0  0  0
  141.2390   78.3480  222.1010 C   0  0  0  0  0  0  0  0  0  0  0  0
  141.4995   77.3021  221.8813 H   0  0  0  0  0  0  0  0  0  0  0  0
  140.2285   78.4787  222.5154 H   0  0  0  0  0  0  0  0  0  0  0  0
  143.6230   76.7560  219.6960 N   0  0  0  0  0  0  0  0  0  0  0  0
  144.3560   77.4490  219.4330 H   0  0  0  0  0  0  0  0  0  0  0  0
  144.0180   75.4940  219.8770 N   0  0  0  0  0  0  0  0  0  0  0  0
  143.1410   74.5080  220.1850 C   0  0  0  0  0  0  0  0  0  0  0  0
  143.8160   72.7430  220.5030 Br  0  0  0  0  0  0  0  0  0  0  0  0
  140.6070   72.6770  219.8290 C   0  0  0  0  0  0  0  0  0  0  0  0
  141.4220   72.4600  218.7650 F   0  0  0  0  0  0  0  0  0  0  0  0
  139.5970   71.7520  220.1150 C   0  0  0  0  0  0  0  0  0  0  0  0
  139.4944   70.8451  219.5010 H   0  0  0  0  0  0  0  0  0  0  0  0
  1  2  1  0
  2  3  2  0
  3  4  1  0
  3  5  1  0
  5  6  1  0
  5  7  2  0
  7  8  1  0
  8  9  2  0
  9 10  1  0
 10 11  2  0
 11 12  1  0
 12 13  2  0
 12 14  1  0
 14 15  1  0
 14 16  1  0
 14 17  1  0
 11 18  1  0
 18 19  1  0
 18 20  1  0
 20 21  1  0
 20 22  1  0
 20 23  1  0
 23 24  1  0
 23 25  1  0
 23 26  1  0
 26 27  1  0
 26 28  1  0
 26 29  1  0
 29 30  1  0
 29 31  1  0
 29 32  1  0
 32 33  1  0
 32 34  1  0
 32 35  1  0
 35 36  1  0
 35 37  1  0
 10 38  1  0
 38 39  1  0
 38 40  1  0
 40 41  2  0
 41 42  1  0
  7 43  1  0
 43 44  1  0
 43 45  2  0
 45 46  1  0
 45  2  1  0
 41  8  1  0
 35 18  1  0
M  CHG  1  11   1
M  END
>  <UniqueID>  (42) 
6

>  <SMILES>  (42) 
CC(=O)/[N+](=c1/nc(-c2c(F)cccc2F)c(Br)n[nH]1)C1CCCCCC1

>  <Energy>  (42) 
75.59737830364624

>  <Genealogy>  (42) 
CC(=O)[NH+](c1nnc(Br)c(-c2c(F)cccc2F)n1)C1CCCCCC1 (protonated)
CC(=O)[N+](=c1nc(-c2c(F)cccc2F)c(Br)n[nH]1)C1CCCCCC1 (tautomer)
CC(=O)/[N+](=c1/nc(-c2c(F)cccc2F)c(Br)n[nH]1)C1CCCCCC1 (cis-trans isomerization)
CC(=O)/[N+](=c1/nc(-c2c(F)cccc2F)c(Br)n[nH]1)C1CCCCCC1 (3D coordinates assigned)
CC(=O)/[N+](=c1/nc(-c2c(F)cccc2F)c(Br)n[nH]1)C1CCCCCC1 (nonaromatic ring conformer: 75.59737830364624 kcal/mol)

>  <smiles>  (42) 
CC(=O)N(c1nnc(Br)c(-c2c(F)cccc2F)n1)C1CCCCCC1

>  <score_type>  (42) 
oracle

>  <origin>  (42) 
autodockgpu

>  <m_score__min__energy>  (42) 
-4.4000000000000004

>  <m_primary>  (42) 
energy

>  <meeko>  (42) 
{"free_energy": -4.4, "intermolecular_energy": -7.09, "internal_energy": -1.45, "cluster_size": 1, "cluster_id": 1, "rank_in_cluster": 1}

>  <energy>  (42) 
-4.37

>  <cluster_rmsd>  (42) 
0.0

>  <rmsd>  (42) 
272.47

>  <cluster>  (42) 
2

$$$$
VCUSMEIKIQENRV-OLELRBRINA-O
     RDKit          3D

 46 48  0  0  0  0  0  0  0  0999 V2000
  135.4933   83.4924  222.4938 H   0  0  0  0  0  0  0  0  0  0  0  0
  135.8360   82.4480  222.5350 C   0  0  0  0  0  0  0  0  0  0  0  0
  136.6800   82.0310  223.5670 C   0  0  0  0  0  0  0  0  0  0  0  0
  137.0045   82.7489  224.3347 H   0  0  0  0  0  0  0  0  0  0  0  0
  137.1130   80.7030  223.6260 C   0  0  0  0  0  0  0  0  0  0  0  0
  137.9310   80.3150  224.6370 F   0  0  0  0  0  0  0  0  0  0  0  0
  136.6900   79.7780  222.6550 C   0  0  0  0  0  0  0  0  0  0  0  0
  137.1810   78.3870  222.7000 C   0  0  0  0  0  0  0  0  0  0  0  0
  138.4520   78.1320  222.3050 N   0  0  0  0  0  0  0  0  0  0  0  0
  138.9760   76.8770  222.3090 C   0  0  0  0  0  0  0  0  0  0  0  0
  140.2160   76.6750  221.8960 N   0  0  0  0  0  0  0  0  0  0  0  0
  140.6420   75.3800  221.4260 C   0  0  0  0  0  0  0  0  0  0  0  0
  140.6400   74.3930  222.2130 O   0  0  0  0  0  0  0  0  0  0  0  0
  141.1580   75.2090  220.0340 C   0  0  0  0  0  0  0  0  0  0  0  0
  142.2016   74.8632  220.0697 H   0  0  0  0  0  0  0  0  0  0  0  0
  140.5436   74.4664  219.5038 H   0  0  0  0  0  0  0  0  0  0  0  0
  141.1086   76.1715  219.5038 H   0  0  0  0  0  0  0  0  0  0  0  0
  141.2510   77.7430  221.9210 C   0  0  0  0  0  0  0  0  0  0  0  0
  142.2124   77.3377  221.5726 H   0  0  0  0  0  0  0  0  0  0  0  0
  141.5210   78.2090  223.3770 C   0  0  0  0  0  0  0  0  0  0  0  0
  141.3651   77.3509  224.0474 H   0  0  0  0  0  0  0  0  0  0  0  0
  142.5533   78.5883  223.3990 H   0  0  0  0  0  0  0  0  0  0  0  0
  140.6190   79.3620  223.8530 C   0  0  0  0  0  0  0  0  0  0  0  0
  139.5767   79.0905  223.6295 H   0  0  0  0  0  0  0  0  0  0  0  0
  140.8273   79.4830  224.9263 H   0  0  0  0  0  0  0  0  0  0  0  0
  140.8980   80.7320  223.2140 C   0  0  0  0  0  0  0  0  0  0  0  0
  140.0063   81.0344  222.6453 H   0  0  0  0  0  0  0  0  0  0  0  0
  141.1347   81.4206  224.0385 H   0  0  0  0  0  0  0  0  0  0  0  0
  142.1040   80.7550  222.2640 C   0  0  0  0  0  0  0  0  0  0  0  0
  142.3695   81.8069  222.0822 H   0  0  0  0  0  0  0  0  0  0  0  0
  142.8901   80.1736  222.7679 H   0  0  0  0  0  0  0  0  0  0  0  0
  141.8970   80.0750  220.8910 C   0  0  0  0  0  0  0  0  0  0  0  0
  141.5045   80.8293  220.1932 H   0  0  0  0  0  0  0  0  0  0  0  0
  142.8783   79.6740  220.5973 H   0  0  0  0  0  0  0  0  0  0  0  0
  140.9280   78.8770  220.8930 C   0  0  0  0  0  0  0  0  0  0  0  0
  139.9205   79.2580  221.1160 H   0  0  0  0  0  0  0  0  0  0  0  0
  141.0212   78.4152  219.8990 H   0  0  0  0  0  0  0  0  0  0  0  0
  138.1710   75.8450  222.7210 N   0  0  0  0  0  0  0  0  0  0  0  0
  138.4940   74.8540  222.7170 H   0  0  0  0  0  0  0  0  0  0  0  0
  136.9230   76.0750  223.1340 N   0  0  0  0  0  0  0  0  0  0  0  0
  136.3910   77.3210  223.1440 C   0  0  0  0  0  0  0  0  0  0  0  0
  134.6180   77.5600  223.8290 Br  0  0  0  0  0  0  0  0  0  0  0  0
  135.8560   80.2100  221.6070 C   0  0  0  0  0  0  0  0  0  0  0  0
  135.4820   79.3540  220.6220 F   0  0  0  0  0  0  0  0  0  0  0  0
  135.4270   81.5410  221.5560 C   0  0  0  0  0  0  0  0  0  0  0  0
  134.7657   81.8734  220.7422 H   0  0  0  0  0  0  0  0  0  0  0  0
  1  2  1  0
  2  3  2  0
  3  4  1  0
  3  5  1  0
  5  6  1  0
  5  7  2  0
  7  8  1  0
  8  9  2  0
  9 10  1  0
 10 11  2  0
 11 12  1  0
 12 13  2  0
 12 14  1  0
 14 15  1  0
 14 16  1  0
 14 17  1  0
 11 18  1  0
 18 19  1  0
 18 20  1  0
 20 21  1  0
 20 22  1  0
 20 23  1  0
 23 24  1  0
 23 25  1  0
 23 26  1  0
 26 27  1  0
 26 28  1  0
 26 29  1  0
 29 30  1  0
 29 31  1  0
 29 32  1  0
 32 33  1  0
 32 34  1  0
 32 35  1  0
 35 36  1  0
 35 37  1  0
 10 38  1  0
 38 39  1  0
 38 40  1  0
 40 41  2  0
 41 42  1  0
  7 43  1  0
 43 44  1  0
 43 45  2  0
 45 46  1  0
 45  2  1  0
 41  8  1  0
 35 18  1  0
M  CHG  1  11   1
M  END
>  <UniqueID>  (43) 
6

>  <SMILES>  (43) 
CC(=O)/[N+](=c1/nc(-c2c(F)cccc2F)c(Br)n[nH]1)C1CCCCCC1

>  <Energy>  (43) 
75.59737830364624

>  <Genealogy>  (43) 
CC(=O)[NH+](c1nnc(Br)c(-c2c(F)cccc2F)n1)C1CCCCCC1 (protonated)
CC(=O)[N+](=c1nc(-c2c(F)cccc2F)c(Br)n[nH]1)C1CCCCCC1 (tautomer)
CC(=O)/[N+](=c1/nc(-c2c(F)cccc2F)c(Br)n[nH]1)C1CCCCCC1 (cis-trans isomerization)
CC(=O)/[N+](=c1/nc(-c2c(F)cccc2F)c(Br)n[nH]1)C1CCCCCC1 (3D coordinates assigned)
CC(=O)/[N+](=c1/nc(-c2c(F)cccc2F)c(Br)n[nH]1)C1CCCCCC1 (nonaromatic ring conformer: 75.59737830364624 kcal/mol)

>  <smiles>  (43) 
CC(=O)N(c1nnc(Br)c(-c2c(F)cccc2F)n1)C1CCCCCC1

>  <score_type>  (43) 
oracle

>  <origin>  (43) 
autodockgpu

>  <m_score__min__energy>  (43) 
-4.4000000000000004

>  <m_primary>  (43) 
energy

>  <meeko>  (43) 
{"free_energy": -4.08, "intermolecular_energy": -6.76, "internal_energy": -2.29, "cluster_size": 9, "cluster_id": 3, "rank_in_cluster": 1}

>  <energy>  (43) 
-4.3

>  <cluster_rmsd>  (43) 
1.23

>  <rmsd>  (43) 
272.32

>  <cluster>  (43) 
2

$$$$
VCUSMEIKIQENRV-OLELRBRINA-O
     RDKit          3D

 46 48  0  0  0  0  0  0  0  0999 V2000
  138.7592   84.7427  220.7081 H   0  0  0  0  0  0  0  0  0  0  0  0
  139.1400   83.7480  220.9830 C   0  0  0  0  0  0  0  0  0  0  0  0
  140.2620   83.2260  220.3340 C   0  0  0  0  0  0  0  0  0  0  0  0
  140.7609   83.8092  219.5460 H   0  0  0  0  0  0  0  0  0  0  0  0
  140.7520   81.9640  220.6840 C   0  0  0  0  0  0  0  0  0  0  0  0
  141.8430   81.4750  220.0430 F   0  0  0  0  0  0  0  0  0  0  0  0
  140.1260   81.2200  221.7000 C   0  0  0  0  0  0  0  0  0  0  0  0
  140.6230   79.8730  222.0380 C   0  0  0  0  0  0  0  0  0  0  0  0
  140.1130   78.8060  221.3770 N   0  0  0  0  0  0  0  0  0  0  0  0
  140.5130   77.5320  221.6370 C   0  0  0  0  0  0  0  0  0  0  0  0
  139.9720   76.5200  220.9790 N   0  0  0  0  0  0  0  0  0  0  0  0
  139.5240   75.3370  221.6710 C   0  0  0  0  0  0  0  0  0  0  0  0
  140.3560   74.6170  222.2890 O   0  0  0  0  0  0  0  0  0  0  0  0
  138.0930   74.9120  221.6010 C   0  0  0  0  0  0  0  0  0  0  0  0
  137.6953   74.7939  222.6198 H   0  0  0  0  0  0  0  0  0  0  0  0
  137.5095   75.6756  221.0658 H   0  0  0  0  0  0  0  0  0  0  0  0
  138.0209   73.9537  221.0658 H   0  0  0  0  0  0  0  0  0  0  0  0
  139.8230   76.5170  219.4990 C   0  0  0  0  0  0  0  0  0  0  0  0
  138.7561   76.4917  219.2324 H   0  0  0  0  0  0  0  0  0  0  0  0
  140.4150   75.2160  218.8920 C   0  0  0  0  0  0  0  0  0  0  0  0
  139.6796   74.4088  219.0244 H   0  0  0  0  0  0  0  0  0  0  0  0
  140.6289   75.4315  217.8347 H   0  0  0  0  0  0  0  0  0  0  0  0
  141.7440   74.7660  219.5270 C   0  0  0  0  0  0  0  0  0  0  0  0
  141.6103   74.7536  220.6188 H   0  0  0  0  0  0  0  0  0  0  0  0
  141.9650   73.7790  219.0947 H   0  0  0  0  0  0  0  0  0  0  0  0
  142.9630   75.6460  219.2100 C   0  0  0  0  0  0  0  0  0  0  0  0
  143.8103   75.2898  219.8143 H   0  0  0  0  0  0  0  0  0  0  0  0
  143.1393   75.5580  218.1278 H   0  0  0  0  0  0  0  0  0  0  0  0
  142.7620   77.1430  219.5000 C   0  0  0  0  0  0  0  0  0  0  0  0
  142.3343   77.2370  220.5091 H   0  0  0  0  0  0  0  0  0  0  0  0
  143.7543   77.6047  219.3902 H   0  0  0  0  0  0  0  0  0  0  0  0
  141.8360   77.8990  218.5200 C   0  0  0  0  0  0  0  0  0  0  0  0
  142.1500   78.9530  218.4994 H   0  0  0  0  0  0  0  0  0  0  0  0
  141.9384   77.3914  217.5495 H   0  0  0  0  0  0  0  0  0  0  0  0
  140.3360   77.8550  218.8700 C   0  0  0  0  0  0  0  0  0  0  0  0
  140.1326   78.6646  219.5863 H   0  0  0  0  0  0  0  0  0  0  0  0
  139.8026   77.9597  217.9137 H   0  0  0  0  0  0  0  0  0  0  0  0
  141.4580   77.3410  222.6120 N   0  0  0  0  0  0  0  0  0  0  0  0
  141.7860   76.3900  222.8880 H   0  0  0  0  0  0  0  0  0  0  0  0
  141.9900   78.3770  223.2620 N   0  0  0  0  0  0  0  0  0  0  0  0
  141.6080   79.6530  223.0070 C   0  0  0  0  0  0  0  0  0  0  0  0
  142.4860   81.0800  223.9370 Br  0  0  0  0  0  0  0  0  0  0  0  0
  138.9850   81.7440  222.3360 C   0  0  0  0  0  0  0  0  0  0  0  0
  138.3240   81.0230  223.2770 F   0  0  0  0  0  0  0  0  0  0  0  0
  138.5020   83.0080  221.9800 C   0  0  0  0  0  0  0  0  0  0  0  0
  137.6170   83.4198  222.4872 H   0  0  0  0  0  0  0  0  0  0  0  0
  1  2  1  0
  2  3  2  0
  3  4  1  0
  3  5  1  0
  5  6  1  0
  5  7  2  0
  7  8  1  0
  8  9  2  0
  9 10  1  0
 10 11  2  0
 11 12  1  0
 12 13  2  0
 12 14  1  0
 14 15  1  0
 14 16  1  0
 14 17  1  0
 11 18  1  0
 18 19  1  0
 18 20  1  0
 20 21  1  0
 20 22  1  0
 20 23  1  0
 23 24  1  0
 23 25  1  0
 23 26  1  0
 26 27  1  0
 26 28  1  0
 26 29  1  0
 29 30  1  0
 29 31  1  0
 29 32  1  0
 32 33  1  0
 32 34  1  0
 32 35  1  0
 35 36  1  0
 35 37  1  0
 10 38  1  0
 38 39  1  0
 38 40  1  0
 40 41  2  0
 41 42  1  0
  7 43  1  0
 43 44  1  0
 43 45  2  0
 45 46  1  0
 45  2  1  0
 41  8  1  0
 35 18  1  0
M  CHG  1  11   1
M  END
>  <UniqueID>  (44) 
6

>  <SMILES>  (44) 
CC(=O)/[N+](=c1/nc(-c2c(F)cccc2F)c(Br)n[nH]1)C1CCCCCC1

>  <Energy>  (44) 
75.59737830364624

>  <Genealogy>  (44) 
CC(=O)[NH+](c1nnc(Br)c(-c2c(F)cccc2F)n1)C1CCCCCC1 (protonated)
CC(=O)[N+](=c1nc(-c2c(F)cccc2F)c(Br)n[nH]1)C1CCCCCC1 (tautomer)
CC(=O)/[N+](=c1/nc(-c2c(F)cccc2F)c(Br)n[nH]1)C1CCCCCC1 (cis-trans isomerization)
CC(=O)/[N+](=c1/nc(-c2c(F)cccc2F)c(Br)n[nH]1)C1CCCCCC1 (3D coordinates assigned)
CC(=O)/[N+](=c1/nc(-c2c(F)cccc2F)c(Br)n[nH]1)C1CCCCCC1 (nonaromatic ring conformer: 75.59737830364624 kcal/mol)

>  <smiles>  (44) 
CC(=O)N(c1nnc(Br)c(-c2c(F)cccc2F)n1)C1CCCCCC1

>  <score_type>  (44) 
oracle

>  <origin>  (44) 
autodockgpu

>  <m_score__min__energy>  (44) 
-4.4000000000000004

>  <m_primary>  (44) 
energy

>  <meeko>  (44) 
{"free_energy": -3.71, "intermolecular_energy": -6.39, "internal_energy": -1.93, "cluster_size": 2, "cluster_id": 4, "rank_in_cluster": 2}

>  <energy>  (44) 
-4.24

>  <cluster_rmsd>  (44) 
0.45

>  <rmsd>  (44) 
272.39

>  <cluster>  (44) 
2

$$$$
VCUSMEIKIQENRV-OLELRBRINA-O
     RDKit          3D

 46 48  0  0  0  0  0  0  0  0999 V2000
  135.2236   83.4046  222.4529 H   0  0  0  0  0  0  0  0  0  0  0  0
  135.6190   82.3790  222.4950 C   0  0  0  0  0  0  0  0  0  0  0  0
  135.2550   81.4490  221.5180 C   0  0  0  0  0  0  0  0  0  0  0  0
  134.5693   81.7427  220.7096 H   0  0  0  0  0  0  0  0  0  0  0  0
  135.7600   80.1460  221.5650 C   0  0  0  0  0  0  0  0  0  0  0  0
  135.3950   79.2580  220.6050 F   0  0  0  0  0  0  0  0  0  0  0  0
  136.6480   79.7690  222.5880 C   0  0  0  0  0  0  0  0  0  0  0  0
  137.1470   78.3820  222.6540 C   0  0  0  0  0  0  0  0  0  0  0  0
  138.4220   78.1300  222.2700 N   0  0  0  0  0  0  0  0  0  0  0  0
  138.9530   76.8780  222.2930 C   0  0  0  0  0  0  0  0  0  0  0  0
  140.1960   76.6780  221.8890 N   0  0  0  0  0  0  0  0  0  0  0  0
  140.6280   75.3840  221.4220 C   0  0  0  0  0  0  0  0  0  0  0  0
  140.6210   74.3970  222.2070 O   0  0  0  0  0  0  0  0  0  0  0  0
  141.1560   75.2160  220.0340 C   0  0  0  0  0  0  0  0  0  0  0  0
  142.2034   74.8827  220.0780 H   0  0  0  0  0  0  0  0  0  0  0  0
  140.5543   74.4649  219.5012 H   0  0  0  0  0  0  0  0  0  0  0  0
  141.0989   76.1767  219.5012 H   0  0  0  0  0  0  0  0  0  0  0  0
  141.2300   77.7470  221.9250 C   0  0  0  0  0  0  0  0  0  0  0  0
  142.1986   77.3391  221.6003 H   0  0  0  0  0  0  0  0  0  0  0  0
  141.4710   78.2270  223.3810 C   0  0  0  0  0  0  0  0  0  0  0  0
  141.3731   77.3593  224.0500 H   0  0  0  0  0  0  0  0  0  0  0  0
  142.4761   78.6735  223.4021 H   0  0  0  0  0  0  0  0  0  0  0  0
  140.4950   79.3180  223.8610 C   0  0  0  0  0  0  0  0  0  0  0  0
  139.4710   78.9584  223.6820 H   0  0  0  0  0  0  0  0  0  0  0  0
  140.7290   79.4846  224.9228 H   0  0  0  0  0  0  0  0  0  0  0  0
  140.6410   80.6870  223.1790 C   0  0  0  0  0  0  0  0  0  0  0  0
  139.7561   80.8521  222.5468 H   0  0  0  0  0  0  0  0  0  0  0  0
  140.7382   81.4294  223.9849 H   0  0  0  0  0  0  0  0  0  0  0  0
  141.8920   80.8300  222.3000 C   0  0  0  0  0  0  0  0  0  0  0  0
  142.0470   81.9017  222.1067 H   0  0  0  0  0  0  0  0  0  0  0  0
  142.7070   80.3522  222.8635 H   0  0  0  0  0  0  0  0  0  0  0  0
  141.8470   80.1050  220.9360 C   0  0  0  0  0  0  0  0  0  0  0  0
  141.4993   80.8240  220.1796 H   0  0  0  0  0  0  0  0  0  0  0  0
  142.8663   79.7341  220.7532 H   0  0  0  0  0  0  0  0  0  0  0  0
  140.9260   78.8710  220.8800 C   0  0  0  0  0  0  0  0  0  0  0  0
  139.8932   79.2129  221.0428 H   0  0  0  0  0  0  0  0  0  0  0  0
  141.0960   78.4156  219.8932 H   0  0  0  0  0  0  0  0  0  0  0  0
  138.1510   75.8470  222.7120 N   0  0  0  0  0  0  0  0  0  0  0  0
  138.4800   74.8570  222.7230 H   0  0  0  0  0  0  0  0  0  0  0  0
  136.9000   76.0740  223.1150 N   0  0  0  0  0  0  0  0  0  0  0  0
  136.3600   77.3170  223.1060 C   0  0  0  0  0  0  0  0  0  0  0  0
  134.5810   77.5530  223.7770 Br  0  0  0  0  0  0  0  0  0  0  0  0
  136.9950   80.7050  223.5800 C   0  0  0  0  0  0  0  0  0  0  0  0
  137.8010   80.3510  224.6130 F   0  0  0  0  0  0  0  0  0  0  0  0
  136.4850   82.0060  223.5250 C   0  0  0  0  0  0  0  0  0  0  0  0
  136.7671   82.7382  224.2959 H   0  0  0  0  0  0  0  0  0  0  0  0
  1  2  1  0
  2  3  2  0
  3  4  1  0
  3  5  1  0
  5  6  1  0
  5  7  2  0
  7  8  1  0
  8  9  2  0
  9 10  1  0
 10 11  2  0
 11 12  1  0
 12 13  2  0
 12 14  1  0
 14 15  1  0
 14 16  1  0
 14 17  1  0
 11 18  1  0
 18 19  1  0
 18 20  1  0
 20 21  1  0
 20 22  1  0
 20 23  1  0
 23 24  1  0
 23 25  1  0
 23 26  1  0
 26 27  1  0
 26 28  1  0
 26 29  1  0
 29 30  1  0
 29 31  1  0
 29 32  1  0
 32 33  1  0
 32 34  1  0
 32 35  1  0
 35 36  1  0
 35 37  1  0
 10 38  1  0
 38 39  1  0
 38 40  1  0
 40 41  2  0
 41 42  1  0
  7 43  1  0
 43 44  1  0
 43 45  2  0
 45 46  1  0
 45  2  1  0
 41  8  1  0
 35 18  1  0
M  CHG  1  11   1
M  END
>  <UniqueID>  (45) 
6

>  <SMILES>  (45) 
CC(=O)/[N+](=c1/nc(-c2c(F)cccc2F)c(Br)n[nH]1)C1CCCCCC1

>  <Energy>  (45) 
75.59737830364624

>  <Genealogy>  (45) 
CC(=O)[NH+](c1nnc(Br)c(-c2c(F)cccc2F)n1)C1CCCCCC1 (protonated)
CC(=O)[N+](=c1nc(-c2c(F)cccc2F)c(Br)n[nH]1)C1CCCCCC1 (tautomer)
CC(=O)/[N+](=c1/nc(-c2c(F)cccc2F)c(Br)n[nH]1)C1CCCCCC1 (cis-trans isomerization)
CC(=O)/[N+](=c1/nc(-c2c(F)cccc2F)c(Br)n[nH]1)C1CCCCCC1 (3D coordinates assigned)
CC(=O)/[N+](=c1/nc(-c2c(F)cccc2F)c(Br)n[nH]1)C1CCCCCC1 (nonaromatic ring conformer: 75.59737830364624 kcal/mol)

>  <smiles>  (45) 
CC(=O)N(c1nnc(Br)c(-c2c(F)cccc2F)n1)C1CCCCCC1

>  <score_type>  (45) 
oracle

>  <origin>  (45) 
autodockgpu

>  <m_score__min__energy>  (45) 
-4.4000000000000004

>  <m_primary>  (45) 
energy

>  <meeko>  (45) 
{"free_energy": -4.03, "intermolecular_energy": -6.72, "internal_energy": -2.27, "cluster_size": 9, "cluster_id": 3, "rank_in_cluster": 2}

>  <energy>  (45) 
-4.2

>  <cluster_rmsd>  (45) 
0.48

>  <rmsd>  (45) 
272.36

>  <cluster>  (45) 
2

$$$$
VCUSMEIKIQENRV-OLELRBRINA-O
     RDKit          3D

 46 48  0  0  0  0  0  0  0  0999 V2000
  135.7728   83.9265  222.5401 H   0  0  0  0  0  0  0  0  0  0  0  0
  136.1070   82.8790  222.5730 C   0  0  0  0  0  0  0  0  0  0  0  0
  135.8910   82.0420  221.4750 C   0  0  0  0  0  0  0  0  0  0  0  0
  135.3820   82.4308  220.5807 H   0  0  0  0  0  0  0  0  0  0  0  0
  136.3200   80.7120  221.5100 C   0  0  0  0  0  0  0  0  0  0  0  0
  136.1030   79.9150  220.4330 F   0  0  0  0  0  0  0  0  0  0  0  0
  136.9830   80.2140  222.6460 C   0  0  0  0  0  0  0  0  0  0  0  0
  137.3980   78.7990  222.6930 C   0  0  0  0  0  0  0  0  0  0  0  0
  138.6660   78.4800  222.3330 N   0  0  0  0  0  0  0  0  0  0  0  0
  139.1220   77.1980  222.3410 C   0  0  0  0  0  0  0  0  0  0  0  0
  140.3610   76.9350  221.9630 N   0  0  0  0  0  0  0  0  0  0  0  0
  140.7370   75.6180  221.5110 C   0  0  0  0  0  0  0  0  0  0  0  0
  140.6660   74.6370  222.3020 O   0  0  0  0  0  0  0  0  0  0  0  0
  141.2830   75.4140  220.1340 C   0  0  0  0  0  0  0  0  0  0  0  0
  142.3115   75.0297  220.2006 H   0  0  0  0  0  0  0  0  0  0  0  0
  140.6552   74.6898  219.5942 H   0  0  0  0  0  0  0  0  0  0  0  0
  141.2839   76.3724  219.5942 H   0  0  0  0  0  0  0  0  0  0  0  0
  141.4460   77.9510  222.0120 C   0  0  0  0  0  0  0  0  0  0  0  0
  142.3801   77.5169  221.6259 H   0  0  0  0  0  0  0  0  0  0  0  0
  141.7670   78.3390  223.4800 C   0  0  0  0  0  0  0  0  0  0  0  0
  141.8038   77.4174  224.0794 H   0  0  0  0  0  0  0  0  0  0  0  0
  142.7268   78.8760  223.4603 H   0  0  0  0  0  0  0  0  0  0  0  0
  140.7430   79.2920  224.1240 C   0  0  0  0  0  0  0  0  0  0  0  0
  139.7651   78.7884  224.1230 H   0  0  0  0  0  0  0  0  0  0  0  0
  141.1293   79.5127  225.1300 H   0  0  0  0  0  0  0  0  0  0  0  0
  140.5740   80.6540  223.4310 C   0  0  0  0  0  0  0  0  0  0  0  0
  139.7150   80.5875  222.7472 H   0  0  0  0  0  0  0  0  0  0  0  0
  140.4306   81.3964  224.2300 H   0  0  0  0  0  0  0  0  0  0  0  0
  141.7990   81.1130  222.6210 C   0  0  0  0  0  0  0  0  0  0  0  0
  141.6927   82.1910  222.4299 H   0  0  0  0  0  0  0  0  0  0  0  0
  142.6760   80.8513  223.2312 H   0  0  0  0  0  0  0  0  0  0  0  0
  142.0080   80.4090  221.2620 C   0  0  0  0  0  0  0  0  0  0  0  0
  141.7639   81.1273  220.4655 H   0  0  0  0  0  0  0  0  0  0  0  0
  143.0567   80.0773  221.2479 H   0  0  0  0  0  0  0  0  0  0  0  0
  141.1560   79.1440  221.0410 C   0  0  0  0  0  0  0  0  0  0  0  0
  140.0987   79.4244  221.1568 H   0  0  0  0  0  0  0  0  0  0  0  0
  141.4142   78.7810  220.0352 H   0  0  0  0  0  0  0  0  0  0  0  0
  138.2520   76.2080  222.7180 N   0  0  0  0  0  0  0  0  0  0  0  0
  138.5220   75.2010  222.7140 H   0  0  0  0  0  0  0  0  0  0  0  0
  137.0060   76.5000  223.0950 N   0  0  0  0  0  0  0  0  0  0  0  0
  136.5400   77.7720  223.1020 C   0  0  0  0  0  0  0  0  0  0  0  0
  134.7610   78.0990  223.7360 Br  0  0  0  0  0  0  0  0  0  0  0  0
  137.1790   81.0560  223.7560 C   0  0  0  0  0  0  0  0  0  0  0  0
  137.7610   80.5850  224.8880 F   0  0  0  0  0  0  0  0  0  0  0  0
  136.7470   82.3860  223.7120 C   0  0  0  0  0  0  0  0  0  0  0  0
  136.9119   83.0452  224.5770 H   0  0  0  0  0  0  0  0  0  0  0  0
  1  2  1  0
  2  3  2  0
  3  4  1  0
  3  5  1  0
  5  6  1  0
  5  7  2  0
  7  8  1  0
  8  9  2  0
  9 10  1  0
 10 11  2  0
 11 12  1  0
 12 13  2  0
 12 14  1  0
 14 15  1  0
 14 16  1  0
 14 17  1  0
 11 18  1  0
 18 19  1  0
 18 20  1  0
 20 21  1  0
 20 22  1  0
 20 23  1  0
 23 24  1  0
 23 25  1  0
 23 26  1  0
 26 27  1  0
 26 28  1  0
 26 29  1  0
 29 30  1  0
 29 31  1  0
 29 32  1  0
 32 33  1  0
 32 34  1  0
 32 35  1  0
 35 36  1  0
 35 37  1  0
 10 38  1  0
 38 39  1  0
 38 40  1  0
 40 41  2  0
 41 42  1  0
  7 43  1  0
 43 44  1  0
 43 45  2  0
 45 46  1  0
 45  2  1  0
 41  8  1  0
 35 18  1  0
M  CHG  1  11   1
M  END
>  <UniqueID>  (46) 
6

>  <SMILES>  (46) 
CC(=O)/[N+](=c1/nc(-c2c(F)cccc2F)c(Br)n[nH]1)C1CCCCCC1

>  <Energy>  (46) 
75.59737830364624

>  <Genealogy>  (46) 
CC(=O)[NH+](c1nnc(Br)c(-c2c(F)cccc2F)n1)C1CCCCCC1 (protonated)
CC(=O)[N+](=c1nc(-c2c(F)cccc2F)c(Br)n[nH]1)C1CCCCCC1 (tautomer)
CC(=O)/[N+](=c1/nc(-c2c(F)cccc2F)c(Br)n[nH]1)C1CCCCCC1 (cis-trans isomerization)
CC(=O)/[N+](=c1/nc(-c2c(F)cccc2F)c(Br)n[nH]1)C1CCCCCC1 (3D coordinates assigned)
CC(=O)/[N+](=c1/nc(-c2c(F)cccc2F)c(Br)n[nH]1)C1CCCCCC1 (nonaromatic ring conformer: 75.59737830364624 kcal/mol)

>  <smiles>  (46) 
CC(=O)N(c1nnc(Br)c(-c2c(F)cccc2F)n1)C1CCCCCC1

>  <score_type>  (46) 
oracle

>  <origin>  (46) 
autodockgpu

>  <m_score__min__energy>  (46) 
-4.4000000000000004

>  <m_primary>  (46) 
energy

>  <meeko>  (46) 
{"free_energy": -3.67, "intermolecular_energy": -6.35, "internal_energy": -2.29, "cluster_size": 9, "cluster_id": 3, "rank_in_cluster": 7}

>  <energy>  (46) 
-4.19

>  <cluster_rmsd>  (46) 
0.67

>  <rmsd>  (46) 
272.47

>  <cluster>  (46) 
2

$$$$
VCUSMEIKIQENRV-OLELRBRINA-O
     RDKit          3D

 46 48  0  0  0  0  0  0  0  0999 V2000
  140.5223   72.6846  221.9950 H   0  0  0  0  0  0  0  0  0  0  0  0
  140.8480   73.5560  221.4080 C   0  0  0  0  0  0  0  0  0  0  0  0
  142.2100   73.7930  221.2070 C   0  0  0  0  0  0  0  0  0  0  0  0
  142.9555   73.1092  221.6392 H   0  0  0  0  0  0  0  0  0  0  0  0
  142.6280   74.8970  220.4580 C   0  0  0  0  0  0  0  0  0  0  0  0
  143.9560   75.1100  220.2730 F   0  0  0  0  0  0  0  0  0  0  0  0
  141.6790   75.7660  219.8910 C   0  0  0  0  0  0  0  0  0  0  0  0
  142.1270   76.9510  219.1340 C   0  0  0  0  0  0  0  0  0  0  0  0
  141.7890   78.1810  219.5900 N   0  0  0  0  0  0  0  0  0  0  0  0
  142.1560   79.3210  218.9440 C   0  0  0  0  0  0  0  0  0  0  0  0
  141.7850   80.4990  219.4180 N   0  0  0  0  0  0  0  0  0  0  0  0
  141.8030   81.6750  218.5840 C   0  0  0  0  0  0  0  0  0  0  0  0
  142.8950   82.0980  218.1150 O   0  0  0  0  0  0  0  0  0  0  0  0
  140.5470   82.4450  218.3290 C   0  0  0  0  0  0  0  0  0  0  0  0
  140.0882   82.7263  219.2884 H   0  0  0  0  0  0  0  0  0  0  0  0
  140.7838   83.3533  217.7555 H   0  0  0  0  0  0  0  0  0  0  0  0
  139.8450   81.8219  217.7555 H   0  0  0  0  0  0  0  0  0  0  0  0
  141.3680   80.6970  220.8320 C   0  0  0  0  0  0  0  0  0  0  0  0
  141.2269   81.7695  221.0316 H   0  0  0  0  0  0  0  0  0  0  0  0
  142.4970   80.2600  221.8030 C   0  0  0  0  0  0  0  0  0  0  0  0
  142.7011   79.1922  221.6353 H   0  0  0  0  0  0  0  0  0  0  0  0
  143.3641   80.9010  221.5857 H   0  0  0  0  0  0  0  0  0  0  0  0
  142.1650   80.4590  223.2940 C   0  0  0  0  0  0  0  0  0  0  0  0
  143.0232   80.1023  223.8824 H   0  0  0  0  0  0  0  0  0  0  0  0
  141.9579   81.5325  223.4155 H   0  0  0  0  0  0  0  0  0  0  0  0
  140.9100   79.7290  223.7980 C   0  0  0  0  0  0  0  0  0  0  0  0
  140.8077   78.7911  223.2324 H   0  0  0  0  0  0  0  0  0  0  0  0
  141.0540   79.5674  224.8765 H   0  0  0  0  0  0  0  0  0  0  0  0
  139.6050   80.5260  223.6460 C   0  0  0  0  0  0  0  0  0  0  0  0
  138.8131   79.9794  224.1790 H   0  0  0  0  0  0  0  0  0  0  0  0
  139.8183   81.5242  224.0561 H   0  0  0  0  0  0  0  0  0  0  0  0
  139.1210   80.7660  222.1980 C   0  0  0  0  0  0  0  0  0  0  0  0
  138.0874   80.3980  222.1192 H   0  0  0  0  0  0  0  0  0  0  0  0
  139.2171   81.8471  222.0190 H   0  0  0  0  0  0  0  0  0  0  0  0
  139.9580   80.0750  221.1040 C   0  0  0  0  0  0  0  0  0  0  0  0
  140.1034   79.0262  221.4020 H   0  0  0  0  0  0  0  0  0  0  0  0
  139.3907   80.1996  220.1698 H   0  0  0  0  0  0  0  0  0  0  0  0
  142.8830   79.2000  217.7880 N   0  0  0  0  0  0  0  0  0  0  0  0
  143.1680   80.0280  217.2220 H   0  0  0  0  0  0  0  0  0  0  0  0
  143.2440   78.0000  217.3300 N   0  0  0  0  0  0  0  0  0  0  0  0
  142.8950   76.8560  217.9680 C   0  0  0  0  0  0  0  0  0  0  0  0
  143.5280   75.1860  217.2760 Br  0  0  0  0  0  0  0  0  0  0  0  0
  140.3100   75.5320  220.1130 C   0  0  0  0  0  0  0  0  0  0  0  0
  139.3740   76.3890  219.6300 F   0  0  0  0  0  0  0  0  0  0  0  0
  139.9000   74.4250  220.8640 C   0  0  0  0  0  0  0  0  0  0  0  0
  138.8281   74.2388  221.0263 H   0  0  0  0  0  0  0  0  0  0  0  0
  1  2  1  0
  2  3  2  0
  3  4  1  0
  3  5  1  0
  5  6  1  0
  5  7  2  0
  7  8  1  0
  8  9  2  0
  9 10  1  0
 10 11  2  0
 11 12  1  0
 12 13  2  0
 12 14  1  0
 14 15  1  0
 14 16  1  0
 14 17  1  0
 11 18  1  0
 18 19  1  0
 18 20  1  0
 20 21  1  0
 20 22  1  0
 20 23  1  0
 23 24  1  0
 23 25  1  0
 23 26  1  0
 26 27  1  0
 26 28  1  0
 26 29  1  0
 29 30  1  0
 29 31  1  0
 29 32  1  0
 32 33  1  0
 32 34  1  0
 32 35  1  0
 35 36  1  0
 35 37  1  0
 10 38  1  0
 38 39  1  0
 38 40  1  0
 40 41  2  0
 41 42  1  0
  7 43  1  0
 43 44  1  0
 43 45  2  0
 45 46  1  0
 45  2  1  0
 41  8  1  0
 35 18  1  0
M  CHG  1  11   1
M  END
>  <UniqueID>  (47) 
6

>  <SMILES>  (47) 
CC(=O)/[N+](=c1/nc(-c2c(F)cccc2F)c(Br)n[nH]1)C1CCCCCC1

>  <Energy>  (47) 
75.59737830364624

>  <Genealogy>  (47) 
CC(=O)[NH+](c1nnc(Br)c(-c2c(F)cccc2F)n1)C1CCCCCC1 (protonated)
CC(=O)[N+](=c1nc(-c2c(F)cccc2F)c(Br)n[nH]1)C1CCCCCC1 (tautomer)
CC(=O)/[N+](=c1/nc(-c2c(F)cccc2F)c(Br)n[nH]1)C1CCCCCC1 (cis-trans isomerization)
CC(=O)/[N+](=c1/nc(-c2c(F)cccc2F)c(Br)n[nH]1)C1CCCCCC1 (3D coordinates assigned)
CC(=O)/[N+](=c1/nc(-c2c(F)cccc2F)c(Br)n[nH]1)C1CCCCCC1 (nonaromatic ring conformer: 75.59737830364624 kcal/mol)

>  <smiles>  (47) 
CC(=O)N(c1nnc(Br)c(-c2c(F)cccc2F)n1)C1CCCCCC1

>  <score_type>  (47) 
oracle

>  <origin>  (47) 
autodockgpu

>  <m_score__min__energy>  (47) 
-4.4000000000000004

>  <m_primary>  (47) 
energy

>  <meeko>  (47) 
{"free_energy": -4.37, "intermolecular_energy": -7.05, "internal_energy": -1.88, "cluster_size": 6, "cluster_id": 2, "rank_in_cluster": 1}

>  <energy>  (47) 
-4.09

>  <cluster_rmsd>  (47) 
0.38

>  <rmsd>  (47) 
272.4

>  <cluster>  (47) 
2

$$$$
VCUSMEIKIQENRV-OLELRBRINA-O
     RDKit          3D

 46 48  0  0  0  0  0  0  0  0999 V2000
  136.2896   84.3539  223.1423 H   0  0  0  0  0  0  0  0  0  0  0  0
  136.5230   83.2800  223.0950 C   0  0  0  0  0  0  0  0  0  0  0  0
  136.4310   82.5990  221.8790 C   0  0  0  0  0  0  0  0  0  0  0  0
  136.1205   83.1365  220.9709 H   0  0  0  0  0  0  0  0  0  0  0  0
  136.7330   81.2350  221.8140 C   0  0  0  0  0  0  0  0  0  0  0  0
  136.6390   80.5900  220.6240 F   0  0  0  0  0  0  0  0  0  0  0  0
  137.1430   80.5460  222.9700 C   0  0  0  0  0  0  0  0  0  0  0  0
  137.4230   79.0990  222.9020 C   0  0  0  0  0  0  0  0  0  0  0  0
  138.6740   78.6920  222.5780 N   0  0  0  0  0  0  0  0  0  0  0  0
  139.0090   77.3770  222.4870 C   0  0  0  0  0  0  0  0  0  0  0  0
  140.2390   77.0290  222.1480 N   0  0  0  0  0  0  0  0  0  0  0  0
  140.5190   75.7230  221.6040 C   0  0  0  0  0  0  0  0  0  0  0  0
  140.3160   74.6930  222.3030 O   0  0  0  0  0  0  0  0  0  0  0  0
  141.1210   75.5810  220.2430 C   0  0  0  0  0  0  0  0  0  0  0  0
  142.1876   75.3294  220.3383 H   0  0  0  0  0  0  0  0  0  0  0  0
  140.6030   74.7804  219.6946 H   0  0  0  0  0  0  0  0  0  0  0  0
  141.0154   76.5287  219.6946 H   0  0  0  0  0  0  0  0  0  0  0  0
  141.4060   77.9310  222.3370 C   0  0  0  0  0  0  0  0  0  0  0  0
  142.3328   77.3392  222.3663 H   0  0  0  0  0  0  0  0  0  0  0  0
  141.3390   78.6300  223.7210 C   0  0  0  0  0  0  0  0  0  0  0  0
  140.2883   78.8798  223.9300 H   0  0  0  0  0  0  0  0  0  0  0  0
  141.7649   77.9250  224.4501 H   0  0  0  0  0  0  0  0  0  0  0  0
  142.1710   79.9230  223.8210 C   0  0  0  0  0  0  0  0  0  0  0  0
  142.4668   80.0544  224.8723 H   0  0  0  0  0  0  0  0  0  0  0  0
  143.0190   79.7887  223.1333 H   0  0  0  0  0  0  0  0  0  0  0  0
  141.4610   81.2070  223.3660 C   0  0  0  0  0  0  0  0  0  0  0  0
  140.4510   81.2134  223.8018 H   0  0  0  0  0  0  0  0  0  0  0  0
  142.0842   82.0461  223.7089 H   0  0  0  0  0  0  0  0  0  0  0  0
  141.3270   81.3580  221.8460 C   0  0  0  0  0  0  0  0  0  0  0  0
  140.6798   82.2257  221.6505 H   0  0  0  0  0  0  0  0  0  0  0  0
  142.3546   81.4660  221.4688 H   0  0  0  0  0  0  0  0  0  0  0  0
  140.7340   80.1480  221.0910 C   0  0  0  0  0  0  0  0  0  0  0  0
  139.7644   79.9028  221.5490 H   0  0  0  0  0  0  0  0  0  0  0  0
  140.6568   80.4532  220.0370 H   0  0  0  0  0  0  0  0  0  0  0  0
  141.6040   78.8760  221.1060 C   0  0  0  0  0  0  0  0  0  0  0  0
  141.3750   78.2996  220.1976 H   0  0  0  0  0  0  0  0  0  0  0  0
  142.6452   79.2265  221.1624 H   0  0  0  0  0  0  0  0  0  0  0  0
  138.0300   76.4460  222.7240 N   0  0  0  0  0  0  0  0  0  0  0  0
  138.2060   75.4210  222.6370 H   0  0  0  0  0  0  0  0  0  0  0  0
  136.7970   76.8220  223.0640 N   0  0  0  0  0  0  0  0  0  0  0  0
  136.4510   78.1290  223.1690 C   0  0  0  0  0  0  0  0  0  0  0  0
  134.6760   78.5680  223.7400 Br  0  0  0  0  0  0  0  0  0  0  0  0
  137.2150   81.2340  224.1950 C   0  0  0  0  0  0  0  0  0  0  0  0
  137.5490   80.5820  225.3370 F   0  0  0  0  0  0  0  0  0  0  0  0
  136.9110   82.5990  224.2510 C   0  0  0  0  0  0  0  0  0  0  0  0
  136.9778   83.1370  225.2081 H   0  0  0  0  0  0  0  0  0  0  0  0
  1  2  1  0
  2  3  2  0
  3  4  1  0
  3  5  1  0
  5  6  1  0
  5  7  2  0
  7  8  1  0
  8  9  2  0
  9 10  1  0
 10 11  2  0
 11 12  1  0
 12 13  2  0
 12 14  1  0
 14 15  1  0
 14 16  1  0
 14 17  1  0
 11 18  1  0
 18 19  1  0
 18 20  1  0
 20 21  1  0
 20 22  1  0
 20 23  1  0
 23 24  1  0
 23 25  1  0
 23 26  1  0
 26 27  1  0
 26 28  1  0
 26 29  1  0
 29 30  1  0
 29 31  1  0
 29 32  1  0
 32 33  1  0
 32 34  1  0
 32 35  1  0
 35 36  1  0
 35 37  1  0
 10 38  1  0
 38 39  1  0
 38 40  1  0
 40 41  2  0
 41 42  1  0
  7 43  1  0
 43 44  1  0
 43 45  2  0
 45 46  1  0
 45  2  1  0
 41  8  1  0
 35 18  1  0
M  CHG  1  11   1
M  END
>  <UniqueID>  (48) 
6

>  <SMILES>  (48) 
CC(=O)/[N+](=c1/nc(-c2c(F)cccc2F)c(Br)n[nH]1)C1CCCCCC1

>  <Energy>  (48) 
75.59737830364624

>  <Genealogy>  (48) 
CC(=O)[NH+](c1nnc(Br)c(-c2c(F)cccc2F)n1)C1CCCCCC1 (protonated)
CC(=O)[N+](=c1nc(-c2c(F)cccc2F)c(Br)n[nH]1)C1CCCCCC1 (tautomer)
CC(=O)/[N+](=c1/nc(-c2c(F)cccc2F)c(Br)n[nH]1)C1CCCCCC1 (cis-trans isomerization)
CC(=O)/[N+](=c1/nc(-c2c(F)cccc2F)c(Br)n[nH]1)C1CCCCCC1 (3D coordinates assigned)
CC(=O)/[N+](=c1/nc(-c2c(F)cccc2F)c(Br)n[nH]1)C1CCCCCC1 (nonaromatic ring conformer: 75.59737830364624 kcal/mol)

>  <smiles>  (48) 
CC(=O)N(c1nnc(Br)c(-c2c(F)cccc2F)n1)C1CCCCCC1

>  <score_type>  (48) 
oracle

>  <origin>  (48) 
autodockgpu

>  <m_score__min__energy>  (48) 
-4.4000000000000004

>  <m_primary>  (48) 
energy

>  <meeko>  (48) 
{"free_energy": -3.56, "intermolecular_energy": -6.25, "internal_energy": -2.36, "cluster_size": 9, "cluster_id": 3, "rank_in_cluster": 9}

>  <energy>  (48) 
-4.08

>  <cluster_rmsd>  (48) 
0.0

>  <rmsd>  (48) 
272.93

>  <cluster>  (48) 
3

$$$$
VCUSMEIKIQENRV-OLELRBRINA-O
     RDKit          3D

 46 48  0  0  0  0  0  0  0  0999 V2000
  139.5921   72.9874  222.2885 H   0  0  0  0  0  0  0  0  0  0  0  0
  140.0580   73.7670  221.6680 C   0  0  0  0  0  0  0  0  0  0  0  0
  141.4500   73.8410  221.5670 C   0  0  0  0  0  0  0  0  0  0  0  0
  142.0784   73.1210  222.1118 H   0  0  0  0  0  0  0  0  0  0  0  0
  142.0460   74.8270  220.7760 C   0  0  0  0  0  0  0  0  0  0  0  0
  143.3990   74.8810  220.6890 F   0  0  0  0  0  0  0  0  0  0  0  0
  141.2470   75.7410  220.0660 C   0  0  0  0  0  0  0  0  0  0  0  0
  141.8820   76.8040  219.2630 C   0  0  0  0  0  0  0  0  0  0  0  0
  141.6530   78.0970  219.5970 N   0  0  0  0  0  0  0  0  0  0  0  0
  142.1950   79.1330  218.9010 C   0  0  0  0  0  0  0  0  0  0  0  0
  141.9270   80.3790  219.2540 N   0  0  0  0  0  0  0  0  0  0  0  0
  142.0960   81.4680  218.3240 C   0  0  0  0  0  0  0  0  0  0  0  0
  143.2430   81.7390  217.8730 O   0  0  0  0  0  0  0  0  0  0  0  0
  140.9350   82.3300  217.9440 C   0  0  0  0  0  0  0  0  0  0  0  0
  140.4386   82.6985  218.8538 H   0  0  0  0  0  0  0  0  0  0  0  0
  141.2915   83.1840  217.3493 H   0  0  0  0  0  0  0  0  0  0  0  0
  140.2207   81.7417  217.3493 H   0  0  0  0  0  0  0  0  0  0  0  0
  141.4760   80.7440  220.6230 C   0  0  0  0  0  0  0  0  0  0  0  0
  141.3578   81.8351  220.6969 H   0  0  0  0  0  0  0  0  0  0  0  0
  142.5660   80.3910  221.6710 C   0  0  0  0  0  0  0  0  0  0  0  0
  142.7916   79.3179  221.5846 H   0  0  0  0  0  0  0  0  0  0  0  0
  143.4331   81.0307  221.4498 H   0  0  0  0  0  0  0  0  0  0  0  0
  142.1650   80.6830  223.1290 C   0  0  0  0  0  0  0  0  0  0  0  0
  143.0375   80.4792  223.7671 H   0  0  0  0  0  0  0  0  0  0  0  0
  141.8366   81.7327  223.1459 H   0  0  0  0  0  0  0  0  0  0  0  0
  140.9820   79.8640  223.6700 C   0  0  0  0  0  0  0  0  0  0  0  0
  140.9768   78.8898  223.1592 H   0  0  0  0  0  0  0  0  0  0  0  0
  141.1313   79.7800  224.7566 H   0  0  0  0  0  0  0  0  0  0  0  0
  139.6060   80.5190  223.4680 C   0  0  0  0  0  0  0  0  0  0  0  0
  138.8411   79.8071  223.8116 H   0  0  0  0  0  0  0  0  0  0  0  0
  139.6384   81.4577  224.0406 H   0  0  0  0  0  0  0  0  0  0  0  0
  139.2540   80.9280  222.0190 C   0  0  0  0  0  0  0  0  0  0  0  0
  138.1835   80.7311  221.8601 H   0  0  0  0  0  0  0  0  0  0  0  0
  139.5231   81.9906  221.9273 H   0  0  0  0  0  0  0  0  0  0  0  0
  140.0430   80.1900  220.9200 C   0  0  0  0  0  0  0  0  0  0  0  0
  140.1443   79.1382  221.2256 H   0  0  0  0  0  0  0  0  0  0  0  0
  139.4690   80.3328  219.9926 H   0  0  0  0  0  0  0  0  0  0  0  0
  142.9870   78.8390  217.8210 N   0  0  0  0  0  0  0  0  0  0  0  0
  143.4060   79.5820  217.2220 H   0  0  0  0  0  0  0  0  0  0  0  0
  143.2430   77.5730  217.4860 N   0  0  0  0  0  0  0  0  0  0  0  0
  142.7180   76.5300  218.1750 C   0  0  0  0  0  0  0  0  0  0  0  0
  143.2070   74.7500  217.6640 Br  0  0  0  0  0  0  0  0  0  0  0  0
  139.8470   75.6740  220.1870 C   0  0  0  0  0  0  0  0  0  0  0  0
  139.0530   76.5800  219.5630 F   0  0  0  0  0  0  0  0  0  0  0  0
  139.2590   74.6830  220.9810 C   0  0  0  0  0  0  0  0  0  0  0  0
  138.1637   74.6255  221.0642 H   0  0  0  0  0  0  0  0  0  0  0  0
  1  2  1  0
  2  3  2  0
  3  4  1  0
  3  5  1  0
  5  6  1  0
  5  7  2  0
  7  8  1  0
  8  9  2  0
  9 10  1  0
 10 11  2  0
 11 12  1  0
 12 13  2  0
 12 14  1  0
 14 15  1  0
 14 16  1  0
 14 17  1  0
 11 18  1  0
 18 19  1  0
 18 20  1  0
 20 21  1  0
 20 22  1  0
 20 23  1  0
 23 24  1  0
 23 25  1  0
 23 26  1  0
 26 27  1  0
 26 28  1  0
 26 29  1  0
 29 30  1  0
 29 31  1  0
 29 32  1  0
 32 33  1  0
 32 34  1  0
 32 35  1  0
 35 36  1  0
 35 37  1  0
 10 38  1  0
 38 39  1  0
 38 40  1  0
 40 41  2  0
 41 42  1  0
  7 43  1  0
 43 44  1  0
 43 45  2  0
 45 46  1  0
 45  2  1  0
 41  8  1  0
 35 18  1  0
M  CHG  1  11   1
M  END
>  <UniqueID>  (49) 
6

>  <SMILES>  (49) 
CC(=O)/[N+](=c1/nc(-c2c(F)cccc2F)c(Br)n[nH]1)C1CCCCCC1

>  <Energy>  (49) 
75.59737830364624

>  <Genealogy>  (49) 
CC(=O)[NH+](c1nnc(Br)c(-c2c(F)cccc2F)n1)C1CCCCCC1 (protonated)
CC(=O)[N+](=c1nc(-c2c(F)cccc2F)c(Br)n[nH]1)C1CCCCCC1 (tautomer)
CC(=O)/[N+](=c1/nc(-c2c(F)cccc2F)c(Br)n[nH]1)C1CCCCCC1 (cis-trans isomerization)
CC(=O)/[N+](=c1/nc(-c2c(F)cccc2F)c(Br)n[nH]1)C1CCCCCC1 (3D coordinates assigned)
CC(=O)/[N+](=c1/nc(-c2c(F)cccc2F)c(Br)n[nH]1)C1CCCCCC1 (nonaromatic ring conformer: 75.59737830364624 kcal/mol)

>  <smiles>  (49) 
CC(=O)N(c1nnc(Br)c(-c2c(F)cccc2F)n1)C1CCCCCC1

>  <score_type>  (49) 
oracle

>  <origin>  (49) 
autodockgpu

>  <m_score__min__energy>  (49) 
-4.4000000000000004

>  <m_primary>  (49) 
energy

>  <meeko>  (49) 
{"free_energy": -4.24, "intermolecular_energy": -6.92, "internal_energy": -1.89, "cluster_size": 6, "cluster_id": 2, "rank_in_cluster": 3}

>  <energy>  (49) 
-4.03

>  <cluster_rmsd>  (49) 
0.13

>  <rmsd>  (49) 
272.87

>  <cluster>  (49) 
3

$$$$
VCUSMEIKIQENRV-OLELRBRINA-O
     RDKit          3D

 46 48  0  0  0  0  0  0  0  0999 V2000
  140.3297   72.5874  221.9004 H   0  0  0  0  0  0  0  0  0  0  0  0
  140.6960   73.4550  221.3320 C   0  0  0  0  0  0  0  0  0  0  0  0
  139.7880   74.3270  220.7260 C   0  0  0  0  0  0  0  0  0  0  0  0
  138.7073   74.1418  220.8142 H   0  0  0  0  0  0  0  0  0  0  0  0
  140.2490   75.4340  220.0080 C   0  0  0  0  0  0  0  0  0  0  0  0
  139.3500   76.2700  219.4280 F   0  0  0  0  0  0  0  0  0  0  0  0
  141.6290   75.6830  219.9030 C   0  0  0  0  0  0  0  0  0  0  0  0
  142.1100   76.8310  219.1110 C   0  0  0  0  0  0  0  0  0  0  0  0
  141.7910   78.0830  219.5190 N   0  0  0  0  0  0  0  0  0  0  0  0
  142.1890   79.1920  218.8390 C   0  0  0  0  0  0  0  0  0  0  0  0
  141.8350   80.3930  219.2660 N   0  0  0  0  0  0  0  0  0  0  0  0
  141.8580   81.5330  218.3830 C   0  0  0  0  0  0  0  0  0  0  0  0
  142.9510   81.9230  217.8870 O   0  0  0  0  0  0  0  0  0  0  0  0
  140.6080   82.3050  218.1070 C   0  0  0  0  0  0  0  0  0  0  0  0
  140.1385   82.5950  219.0586 H   0  0  0  0  0  0  0  0  0  0  0  0
  140.8548   83.2082  217.5297 H   0  0  0  0  0  0  0  0  0  0  0  0
  139.9109   81.6799  217.5297 H   0  0  0  0  0  0  0  0  0  0  0  0
  141.4330   80.6550  220.6730 C   0  0  0  0  0  0  0  0  0  0  0  0
  141.3534   81.7391  220.8412 H   0  0  0  0  0  0  0  0  0  0  0  0
  142.5380   80.1820  221.6560 C   0  0  0  0  0  0  0  0  0  0  0  0
  142.5782   79.0832  221.6257 H   0  0  0  0  0  0  0  0  0  0  0  0
  143.4751   80.6543  221.3262 H   0  0  0  0  0  0  0  0  0  0  0  0
  142.3170   80.6160  223.1170 C   0  0  0  0  0  0  0  0  0  0  0  0
  143.3043   80.7509  223.5828 H   0  0  0  0  0  0  0  0  0  0  0  0
  141.7175   81.5370  223.0695 H   0  0  0  0  0  0  0  0  0  0  0  0
  141.5140   79.6370  223.9870 C   0  0  0  0  0  0  0  0  0  0  0  0
  142.1061   78.7174  224.1044 H   0  0  0  0  0  0  0  0  0  0  0  0
  141.3227   80.1520  224.9400 H   0  0  0  0  0  0  0  0  0  0  0  0
  140.1380   79.2520  223.4160 C   0  0  0  0  0  0  0  0  0  0  0  0
  140.2473   78.2883  222.8970 H   0  0  0  0  0  0  0  0  0  0  0  0
  139.4569   79.2254  224.2794 H   0  0  0  0  0  0  0  0  0  0  0  0
  139.5090   80.2550  222.4220 C   0  0  0  0  0  0  0  0  0  0  0  0
  138.4189   80.1086  222.4347 H   0  0  0  0  0  0  0  0  0  0  0  0
  139.8218   81.2547  222.7578 H   0  0  0  0  0  0  0  0  0  0  0  0
  139.9910   80.1230  220.9640 C   0  0  0  0  0  0  0  0  0  0  0  0
  139.9639   79.0568  220.6948 H   0  0  0  0  0  0  0  0  0  0  0  0
  139.3143   80.7524  220.3674 H   0  0  0  0  0  0  0  0  0  0  0  0
  142.9280   79.0160  217.6980 N   0  0  0  0  0  0  0  0  0  0  0  0
  143.2380   79.8180  217.1080 H   0  0  0  0  0  0  0  0  0  0  0  0
  143.2720   77.7940  217.2870 N   0  0  0  0  0  0  0  0  0  0  0  0
  142.8910   76.6810  217.9600 C   0  0  0  0  0  0  0  0  0  0  0  0
  143.5010   74.9750  217.3360 Br  0  0  0  0  0  0  0  0  0  0  0  0
  142.5390   74.7910  220.4990 C   0  0  0  0  0  0  0  0  0  0  0  0
  143.8770   74.9720  220.3620 F   0  0  0  0  0  0  0  0  0  0  0  0
  142.0690   73.6850  221.2160 C   0  0  0  0  0  0  0  0  0  0  0  0
  142.7827   72.9948  221.6896 H   0  0  0  0  0  0  0  0  0  0  0  0
  1  2  1  0
  2  3  2  0
  3  4  1  0
  3  5  1  0
  5  6  1  0
  5  7  2  0
  7  8  1  0
  8  9  2  0
  9 10  1  0
 10 11  2  0
 11 12  1  0
 12 13  2  0
 12 14  1  0
 14 15  1  0
 14 16  1  0
 14 17  1  0
 11 18  1  0
 18 19  1  0
 18 20  1  0
 20 21  1  0
 20 22  1  0
 20 23  1  0
 23 24  1  0
 23 25  1  0
 23 26  1  0
 26 27  1  0
 26 28  1  0
 26 29  1  0
 29 30  1  0
 29 31  1  0
 29 32  1  0
 32 33  1  0
 32 34  1  0
 32 35  1  0
 35 36  1  0
 35 37  1  0
 10 38  1  0
 38 39  1  0
 38 40  1  0
 40 41  2  0
 41 42  1  0
  7 43  1  0
 43 44  1  0
 43 45  2  0
 45 46  1  0
 45  2  1  0
 41  8  1  0
 35 18  1  0
M  CHG  1  11   1
M  END
>  <UniqueID>  (50) 
6

>  <SMILES>  (50) 
CC(=O)/[N+](=c1/nc(-c2c(F)cccc2F)c(Br)n[nH]1)C1CCCCCC1

>  <Energy>  (50) 
75.59737830364624

>  <Genealogy>  (50) 
CC(=O)[NH+](c1nnc(Br)c(-c2c(F)cccc2F)n1)C1CCCCCC1 (protonated)
CC(=O)[N+](=c1nc(-c2c(F)cccc2F)c(Br)n[nH]1)C1CCCCCC1 (tautomer)
CC(=O)/[N+](=c1/nc(-c2c(F)cccc2F)c(Br)n[nH]1)C1CCCCCC1 (cis-trans isomerization)
CC(=O)/[N+](=c1/nc(-c2c(F)cccc2F)c(Br)n[nH]1)C1CCCCCC1 (3D coordinates assigned)
CC(=O)/[N+](=c1/nc(-c2c(F)cccc2F)c(Br)n[nH]1)C1CCCCCC1 (nonaromatic ring conformer: 75.59737830364624 kcal/mol)

>  <smiles>  (50) 
CC(=O)N(c1nnc(Br)c(-c2c(F)cccc2F)n1)C1CCCCCC1

>  <score_type>  (50) 
oracle

>  <origin>  (50) 
autodockgpu

>  <m_score__min__energy>  (50) 
-4.4000000000000004

>  <m_primary>  (50) 
energy

>  <meeko>  (50) 
{"free_energy": -4.09, "intermolecular_energy": -6.78, "internal_energy": -1.93, "cluster_size": 6, "cluster_id": 2, "rank_in_cluster": 6}

>  <energy>  (50) 
-3.98

>  <cluster_rmsd>  (50) 
0.09

>  <rmsd>  (50) 
272.91

>  <cluster>  (50) 
3

$$$$
VCUSMEIKIQENRV-OLELRBRINA-O
     RDKit          3D

 46 48  0  0  0  0  0  0  0  0999 V2000
  135.1266   75.0988  222.7322 H   0  0  0  0  0  0  0  0  0  0  0  0
  136.1210   75.4070  222.3770 C   0  0  0  0  0  0  0  0  0  0  0  0
  136.6460   74.8550  221.2060 C   0  0  0  0  0  0  0  0  0  0  0  0
  136.0657   74.1095  220.6425 H   0  0  0  0  0  0  0  0  0  0  0  0
  137.9070   75.2480  220.7490 C   0  0  0  0  0  0  0  0  0  0  0  0
  138.3990   74.7010  219.6080 F   0  0  0  0  0  0  0  0  0  0  0  0
  138.6470   76.2110  221.4570 C   0  0  0  0  0  0  0  0  0  0  0  0
  139.9930   76.5940  220.9900 C   0  0  0  0  0  0  0  0  0  0  0  0
  140.2040   77.8700  220.5850 N   0  0  0  0  0  0  0  0  0  0  0  0
  141.4130   78.2980  220.1320 C   0  0  0  0  0  0  0  0  0  0  0  0
  141.5650   79.5480  219.7300 N   0  0  0  0  0  0  0  0  0  0  0  0
  141.6970   79.8670  218.3300 C   0  0  0  0  0  0  0  0  0  0  0  0
  142.6850   79.4340  217.6760 O   0  0  0  0  0  0  0  0  0  0  0  0
  140.7120   80.7720  217.6600 C   0  0  0  0  0  0  0  0  0  0  0  0
  140.1286   81.3080  218.4231 H   0  0  0  0  0  0  0  0  0  0  0  0
  141.2493   81.4981  217.0322 H   0  0  0  0  0  0  0  0  0  0  0  0
  140.0339   80.1753  217.0322 H   0  0  0  0  0  0  0  0  0  0  0  0
  141.6470   80.6900  220.6790 C   0  0  0  0  0  0  0  0  0  0  0  0
  142.1291   81.5481  220.1879 H   0  0  0  0  0  0  0  0  0  0  0  0
  142.5760   80.3440  221.8730 C   0  0  0  0  0  0  0  0  0  0  0  0
  143.4578   79.8160  221.4810 H   0  0  0  0  0  0  0  0  0  0  0  0
  142.8283   81.2971  222.3607 H   0  0  0  0  0  0  0  0  0  0  0  0
  141.9240   79.4580  222.9510 C   0  0  0  0  0  0  0  0  0  0  0  0
  141.3409   78.6774  222.4403 H   0  0  0  0  0  0  0  0  0  0  0  0
  142.7520   79.0673  223.5607 H   0  0  0  0  0  0  0  0  0  0  0  0
  140.9870   80.1840  223.9300 C   0  0  0  0  0  0  0  0  0  0  0  0
  140.9506   79.6044  224.8642 H   0  0  0  0  0  0  0  0  0  0  0  0
  141.3996   81.1946  224.0658 H   0  0  0  0  0  0  0  0  0  0  0  0
  139.5470   80.3650  223.4210 C   0  0  0  0  0  0  0  0  0  0  0  0
  138.9243   79.5891  223.8903 H   0  0  0  0  0  0  0  0  0  0  0  0
  139.2646   81.3934  223.6905 H   0  0  0  0  0  0  0  0  0  0  0  0
  139.3510   80.2670  221.8910 C   0  0  0  0  0  0  0  0  0  0  0  0
  139.5834   79.2368  221.5832 H   0  0  0  0  0  0  0  0  0  0  0  0
  138.3081   80.5582  221.6971 H   0  0  0  0  0  0  0  0  0  0  0  0
  140.2250   81.2230  221.0560 C   0  0  0  0  0  0  0  0  0  0  0  0
  139.6878   81.4421  220.1214 H   0  0  0  0  0  0  0  0  0  0  0  0
  140.3948   82.1048  221.6912 H   0  0  0  0  0  0  0  0  0  0  0  0
  142.4390   77.3890  220.0820 N   0  0  0  0  0  0  0  0  0  0  0  0
  143.3830   77.6380  219.7140 H   0  0  0  0  0  0  0  0  0  0  0  0
  142.2610   76.1330  220.4940 N   0  0  0  0  0  0  0  0  0  0  0  0
  141.0650   75.6950  220.9570 C   0  0  0  0  0  0  0  0  0  0  0  0
  140.9290   73.8950  221.5990 Br  0  0  0  0  0  0  0  0  0  0  0  0
  138.1200   76.7490  222.6460 C   0  0  0  0  0  0  0  0  0  0  0  0
  138.8380   77.6340  223.3830 F   0  0  0  0  0  0  0  0  0  0  0  0
  136.8580   76.3500  223.0970 C   0  0  0  0  0  0  0  0  0  0  0  0
  136.4446   76.7799  224.0213 H   0  0  0  0  0  0  0  0  0  0  0  0
  1  2  1  0
  2  3  2  0
  3  4  1  0
  3  5  1  0
  5  6  1  0
  5  7  2  0
  7  8  1  0
  8  9  2  0
  9 10  1  0
 10 11  2  0
 11 12  1  0
 12 13  2  0
 12 14  1  0
 14 15  1  0
 14 16  1  0
 14 17  1  0
 11 18  1  0
 18 19  1  0
 18 20  1  0
 20 21  1  0
 20 22  1  0
 20 23  1  0
 23 24  1  0
 23 25  1  0
 23 26  1  0
 26 27  1  0
 26 28  1  0
 26 29  1  0
 29 30  1  0
 29 31  1  0
 29 32  1  0
 32 33  1  0
 32 34  1  0
 32 35  1  0
 35 36  1  0
 35 37  1  0
 10 38  1  0
 38 39  1  0
 38 40  1  0
 40 41  2  0
 41 42  1  0
  7 43  1  0
 43 44  1  0
 43 45  2  0
 45 46  1  0
 45  2  1  0
 41  8  1  0
 35 18  1  0
M  CHG  1  11   1
M  END
>  <UniqueID>  (51) 
6

>  <SMILES>  (51) 
CC(=O)/[N+](=c1/nc(-c2c(F)cccc2F)c(Br)n[nH]1)C1CCCCCC1

>  <Energy>  (51) 
75.59737830364624

>  <Genealogy>  (51) 
CC(=O)[NH+](c1nnc(Br)c(-c2c(F)cccc2F)n1)C1CCCCCC1 (protonated)
CC(=O)[N+](=c1nc(-c2c(F)cccc2F)c(Br)n[nH]1)C1CCCCCC1 (tautomer)
CC(=O)/[N+](=c1/nc(-c2c(F)cccc2F)c(Br)n[nH]1)C1CCCCCC1 (cis-trans isomerization)
CC(=O)/[N+](=c1/nc(-c2c(F)cccc2F)c(Br)n[nH]1)C1CCCCCC1 (3D coordinates assigned)
CC(=O)/[N+](=c1/nc(-c2c(F)cccc2F)c(Br)n[nH]1)C1CCCCCC1 (nonaromatic ring conformer: 75.59737830364624 kcal/mol)

>  <smiles>  (51) 
CC(=O)N(c1nnc(Br)c(-c2c(F)cccc2F)n1)C1CCCCCC1

>  <score_type>  (51) 
oracle

>  <origin>  (51) 
autodockgpu

>  <m_score__min__energy>  (51) 
-4.4000000000000004

>  <m_primary>  (51) 
energy

>  <meeko>  (51) 
{"free_energy": -3.53, "intermolecular_energy": -6.21, "internal_energy": -1.85, "cluster_size": 1, "cluster_id": 6, "rank_in_cluster": 1}

>  <energy>  (51) 
-3.93

>  <cluster_rmsd>  (51) 
0.74

>  <rmsd>  (51) 
273.16

>  <cluster>  (51) 
3

$$$$
VCUSMEIKIQENRV-OLELRBRINA-O
     RDKit          3D

 46 48  0  0  0  0  0  0  0  0999 V2000
  139.8622   84.7175  220.0049 H   0  0  0  0  0  0  0  0  0  0  0  0
  140.0820   83.7020  220.3660 C   0  0  0  0  0  0  0  0  0  0  0  0
  139.4370   83.2110  221.5040 C   0  0  0  0  0  0  0  0  0  0  0  0
  138.7124   83.8419  222.0397 H   0  0  0  0  0  0  0  0  0  0  0  0
  139.7110   81.9190  221.9630 C   0  0  0  0  0  0  0  0  0  0  0  0
  139.0730   81.4590  223.0690 F   0  0  0  0  0  0  0  0  0  0  0  0
  140.6250   81.1030  221.2730 C   0  0  0  0  0  0  0  0  0  0  0  0
  140.9380   79.7540  221.7850 C   0  0  0  0  0  0  0  0  0  0  0  0
  140.4280   78.6780  221.1380 N   0  0  0  0  0  0  0  0  0  0  0  0
  140.6620   77.4040  221.5520 C   0  0  0  0  0  0  0  0  0  0  0  0
  140.1260   76.3860  220.8990 N   0  0  0  0  0  0  0  0  0  0  0  0
  139.6200   75.2340  221.6030 C   0  0  0  0  0  0  0  0  0  0  0  0
  140.4050   74.5140  222.2790 O   0  0  0  0  0  0  0  0  0  0  0  0
  138.1830   74.8400  221.4810 C   0  0  0  0  0  0  0  0  0  0  0  0
  137.7490   74.7210  222.4847 H   0  0  0  0  0  0  0  0  0  0  0  0
  137.6339   75.6207  220.9343 H   0  0  0  0  0  0  0  0  0  0  0  0
  138.1089   73.8884  220.9343 H   0  0  0  0  0  0  0  0  0  0  0  0
  140.0450   76.3420  219.4150 C   0  0  0  0  0  0  0  0  0  0  0  0
  139.0027   76.4892  219.0959 H   0  0  0  0  0  0  0  0  0  0  0  0
  140.4250   74.9330  218.8860 C   0  0  0  0  0  0  0  0  0  0  0  0
  139.5492   74.2765  218.9951 H   0  0  0  0  0  0  0  0  0  0  0  0
  140.7345   75.0632  217.8385 H   0  0  0  0  0  0  0  0  0  0  0  0
  141.6120   74.2790  219.6180 C   0  0  0  0  0  0  0  0  0  0  0  0
  141.3688   74.2408  220.6901 H   0  0  0  0  0  0  0  0  0  0  0  0
  141.7421   73.2894  219.1556 H   0  0  0  0  0  0  0  0  0  0  0  0
  142.9630   74.9950  219.4650 C   0  0  0  0  0  0  0  0  0  0  0  0
  143.6955   74.4906  220.1123 H   0  0  0  0  0  0  0  0  0  0  0  0
  143.2279   74.9435  218.3986 H   0  0  0  0  0  0  0  0  0  0  0  0
  142.9350   76.4850  219.8400 C   0  0  0  0  0  0  0  0  0  0  0  0
  142.3343   76.5903  220.7555 H   0  0  0  0  0  0  0  0  0  0  0  0
  143.9880   76.7812  219.9556 H   0  0  0  0  0  0  0  0  0  0  0  0
  142.3480   77.4410  218.7770 C   0  0  0  0  0  0  0  0  0  0  0  0
  142.7537   78.4465  218.9624 H   0  0  0  0  0  0  0  0  0  0  0  0
  142.6352   77.0250  217.8000 H   0  0  0  0  0  0  0  0  0  0  0  0
  140.8100   77.5420  218.7640 C   0  0  0  0  0  0  0  0  0  0  0  0
  140.5269   78.4567  219.3054 H   0  0  0  0  0  0  0  0  0  0  0  0
  140.5188   77.5429  217.7033 H   0  0  0  0  0  0  0  0  0  0  0  0
  141.4350   77.2230  222.6700 N   0  0  0  0  0  0  0  0  0  0  0  0
  141.6270   76.2770  223.0650 H   0  0  0  0  0  0  0  0  0  0  0  0
  141.9640   78.2660  223.3120 N   0  0  0  0  0  0  0  0  0  0  0  0
  141.7470   79.5410  222.9050 C   0  0  0  0  0  0  0  0  0  0  0  0
  142.6150   80.9670  223.8450 Br  0  0  0  0  0  0  0  0  0  0  0  0
  141.2850   81.6110  220.1390 C   0  0  0  0  0  0  0  0  0  0  0  0
  142.2170   80.8680  219.4900 F   0  0  0  0  0  0  0  0  0  0  0  0
  141.0050   82.9050  219.6870 C   0  0  0  0  0  0  0  0  0  0  0  0
  141.5140   83.2956  218.7935 H   0  0  0  0  0  0  0  0  0  0  0  0
  1  2  1  0
  2  3  2  0
  3  4  1  0
  3  5  1  0
  5  6  1  0
  5  7  2  0
  7  8  1  0
  8  9  2  0
  9 10  1  0
 10 11  2  0
 11 12  1  0
 12 13  2  0
 12 14  1  0
 14 15  1  0
 14 16  1  0
 14 17  1  0
 11 18  1  0
 18 19  1  0
 18 20  1  0
 20 21  1  0
 20 22  1  0
 20 23  1  0
 23 24  1  0
 23 25  1  0
 23 26  1  0
 26 27  1  0
 26 28  1  0
 26 29  1  0
 29 30  1  0
 29 31  1  0
 29 32  1  0
 32 33  1  0
 32 34  1  0
 32 35  1  0
 35 36  1  0
 35 37  1  0
 10 38  1  0
 38 39  1  0
 38 40  1  0
 40 41  2  0
 41 42  1  0
  7 43  1  0
 43 44  1  0
 43 45  2  0
 45 46  1  0
 45  2  1  0
 41  8  1  0
 35 18  1  0
M  CHG  1  11   1
M  END
>  <UniqueID>  (52) 
6

>  <SMILES>  (52) 
CC(=O)/[N+](=c1/nc(-c2c(F)cccc2F)c(Br)n[nH]1)C1CCCCCC1

>  <Energy>  (52) 
75.59737830364624

>  <Genealogy>  (52) 
CC(=O)[NH+](c1nnc(Br)c(-c2c(F)cccc2F)n1)C1CCCCCC1 (protonated)
CC(=O)[N+](=c1nc(-c2c(F)cccc2F)c(Br)n[nH]1)C1CCCCCC1 (tautomer)
CC(=O)/[N+](=c1/nc(-c2c(F)cccc2F)c(Br)n[nH]1)C1CCCCCC1 (cis-trans isomerization)
CC(=O)/[N+](=c1/nc(-c2c(F)cccc2F)c(Br)n[nH]1)C1CCCCCC1 (3D coordinates assigned)
CC(=O)/[N+](=c1/nc(-c2c(F)cccc2F)c(Br)n[nH]1)C1CCCCCC1 (nonaromatic ring conformer: 75.59737830364624 kcal/mol)

>  <smiles>  (52) 
CC(=O)N(c1nnc(Br)c(-c2c(F)cccc2F)n1)C1CCCCCC1

>  <score_type>  (52) 
oracle

>  <origin>  (52) 
autodockgpu

>  <m_score__min__energy>  (52) 
-4.4000000000000004

>  <m_primary>  (52) 
energy

>  <meeko>  (52) 
{"free_energy": -4.05, "intermolecular_energy": -6.74, "internal_energy": -1.69, "cluster_size": 2, "cluster_id": 4, "rank_in_cluster": 1}

>  <energy>  (52) 
-3.88

>  <cluster_rmsd>  (52) 
0.93

>  <rmsd>  (52) 
273.24

>  <cluster>  (52) 
3

$$$$
VCUSMEIKIQENRV-OLELRBRINA-O
     RDKit          3D

 46 48  0  0  0  0  0  0  0  0999 V2000
  136.0826   84.0539  222.7275 H   0  0  0  0  0  0  0  0  0  0  0  0
  136.3370   82.9840  222.7510 C   0  0  0  0  0  0  0  0  0  0  0  0
  136.9510   82.4370  223.8800 C   0  0  0  0  0  0  0  0  0  0  0  0
  137.1826   83.0782  224.7432 H   0  0  0  0  0  0  0  0  0  0  0  0
  137.2720   81.0770  223.9160 C   0  0  0  0  0  0  0  0  0  0  0  0
  137.8670   80.5630  225.0220 F   0  0  0  0  0  0  0  0  0  0  0  0
  136.9650   80.2500  222.8200 C   0  0  0  0  0  0  0  0  0  0  0  0
  137.3410   78.8230  222.8480 C   0  0  0  0  0  0  0  0  0  0  0  0
  138.6190   78.4810  222.5540 N   0  0  0  0  0  0  0  0  0  0  0  0
  139.0410   77.1870  222.5490 C   0  0  0  0  0  0  0  0  0  0  0  0
  140.2940   76.9010  222.2360 N   0  0  0  0  0  0  0  0  0  0  0  0
  140.6440   75.6250  221.6630 C   0  0  0  0  0  0  0  0  0  0  0  0
  140.4650   74.5670  222.3270 O   0  0  0  0  0  0  0  0  0  0  0  0
  141.2880   75.5480  220.3160 C   0  0  0  0  0  0  0  0  0  0  0  0
  142.3737   75.4182  220.4356 H   0  0  0  0  0  0  0  0  0  0  0  0
  140.8754   74.6928  219.7607 H   0  0  0  0  0  0  0  0  0  0  0  0
  141.0887   76.4764  219.7607 H   0  0  0  0  0  0  0  0  0  0  0  0
  141.4160   77.8450  222.4840 C   0  0  0  0  0  0  0  0  0  0  0  0
  142.3389   77.2809  222.6841 H   0  0  0  0  0  0  0  0  0  0  0  0
  141.1660   78.6660  223.7770 C   0  0  0  0  0  0  0  0  0  0  0  0
  140.1030   78.9476  223.8057 H   0  0  0  0  0  0  0  0  0  0  0  0
  141.4620   78.0234  224.6193 H   0  0  0  0  0  0  0  0  0  0  0  0
  142.0080   79.9510  223.8870 C   0  0  0  0  0  0  0  0  0  0  0  0
  141.9508   80.3050  224.9269 H   0  0  0  0  0  0  0  0  0  0  0  0
  143.0231   79.6737  223.5664 H   0  0  0  0  0  0  0  0  0  0  0  0
  141.5790   81.1070  222.9700 C   0  0  0  0  0  0  0  0  0  0  0  0
  141.2658   81.9505  223.6028 H   0  0  0  0  0  0  0  0  0  0  0  0
  142.4468   81.3456  222.3376 H   0  0  0  0  0  0  0  0  0  0  0  0
  140.4210   80.7640  222.0170 C   0  0  0  0  0  0  0  0  0  0  0  0
  139.6208   80.3008  222.6129 H   0  0  0  0  0  0  0  0  0  0  0  0
  140.1364   81.7146  221.5423 H   0  0  0  0  0  0  0  0  0  0  0  0
  140.7610   79.8040  220.8550 C   0  0  0  0  0  0  0  0  0  0  0  0
  139.8251   79.3376  220.5137 H   0  0  0  0  0  0  0  0  0  0  0  0
  141.2518   80.4176  220.0852 H   0  0  0  0  0  0  0  0  0  0  0  0
  141.7550   78.6790  221.2040 C   0  0  0  0  0  0  0  0  0  0  0  0
  141.7945   77.9864  220.3503 H   0  0  0  0  0  0  0  0  0  0  0  0
  142.7108   79.1798  221.4176 H   0  0  0  0  0  0  0  0  0  0  0  0
  138.1250   76.2100  222.8450 N   0  0  0  0  0  0  0  0  0  0  0  0
  138.3690   75.1970  222.8260 H   0  0  0  0  0  0  0  0  0  0  0  0
  136.8670   76.5250  223.1570 N   0  0  0  0  0  0  0  0  0  0  0  0
  136.4340   77.8090  223.1760 C   0  0  0  0  0  0  0  0  0  0  0  0
  134.6300   78.1650  223.7140 Br  0  0  0  0  0  0  0  0  0  0  0  0
  136.3640   80.8110  221.6790 C   0  0  0  0  0  0  0  0  0  0  0  0
  136.1130   80.0500  220.5830 F   0  0  0  0  0  0  0  0  0  0  0  0
  136.0460   82.1730  221.6520 C   0  0  0  0  0  0  0  0  0  0  0  0
  135.5654   82.6064  220.7625 H   0  0  0  0  0  0  0  0  0  0  0  0
  1  2  1  0
  2  3  2  0
  3  4  1  0
  3  5  1  0
  5  6  1  0
  5  7  2  0
  7  8  1  0
  8  9  2  0
  9 10  1  0
 10 11  2  0
 11 12  1  0
 12 13  2  0
 12 14  1  0
 14 15  1  0
 14 16  1  0
 14 17  1  0
 11 18  1  0
 18 19  1  0
 18 20  1  0
 20 21  1  0
 20 22  1  0
 20 23  1  0
 23 24  1  0
 23 25  1  0
 23 26  1  0
 26 27  1  0
 26 28  1  0
 26 29  1  0
 29 30  1  0
 29 31  1  0
 29 32  1  0
 32 33  1  0
 32 34  1  0
 32 35  1  0
 35 36  1  0
 35 37  1  0
 10 38  1  0
 38 39  1  0
 38 40  1  0
 40 41  2  0
 41 42  1  0
  7 43  1  0
 43 44  1  0
 43 45  2  0
 45 46  1  0
 45  2  1  0
 41  8  1  0
 35 18  1  0
M  CHG  1  11   1
M  END
>  <UniqueID>  (53) 
6

>  <SMILES>  (53) 
CC(=O)/[N+](=c1/nc(-c2c(F)cccc2F)c(Br)n[nH]1)C1CCCCCC1

>  <Energy>  (53) 
75.59737830364624

>  <Genealogy>  (53) 
CC(=O)[NH+](c1nnc(Br)c(-c2c(F)cccc2F)n1)C1CCCCCC1 (protonated)
CC(=O)[N+](=c1nc(-c2c(F)cccc2F)c(Br)n[nH]1)C1CCCCCC1 (tautomer)
CC(=O)/[N+](=c1/nc(-c2c(F)cccc2F)c(Br)n[nH]1)C1CCCCCC1 (cis-trans isomerization)
CC(=O)/[N+](=c1/nc(-c2c(F)cccc2F)c(Br)n[nH]1)C1CCCCCC1 (3D coordinates assigned)
CC(=O)/[N+](=c1/nc(-c2c(F)cccc2F)c(Br)n[nH]1)C1CCCCCC1 (nonaromatic ring conformer: 75.59737830364624 kcal/mol)

>  <smiles>  (53) 
CC(=O)N(c1nnc(Br)c(-c2c(F)cccc2F)n1)C1CCCCCC1

>  <score_type>  (53) 
oracle

>  <origin>  (53) 
autodockgpu

>  <m_score__min__energy>  (53) 
-4.4000000000000004

>  <m_primary>  (53) 
energy

>  <meeko>  (53) 
{"free_energy": -3.93, "intermolecular_energy": -6.62, "internal_energy": -2.39, "cluster_size": 9, "cluster_id": 3, "rank_in_cluster": 4}

>  <energy>  (53) 
-3.88

>  <cluster_rmsd>  (53) 
0.57

>  <rmsd>  (53) 
273.1

>  <cluster>  (53) 
3

$$$$
VCUSMEIKIQENRV-OLELRBRINA-O
     RDKit          3D

 46 48  0  0  0  0  0  0  0  0999 V2000
  139.2310   73.1432  222.1973 H   0  0  0  0  0  0  0  0  0  0  0  0
  139.7510   73.9270  221.6270 C   0  0  0  0  0  0  0  0  0  0  0  0
  139.0150   74.9120  220.9630 C   0  0  0  0  0  0  0  0  0  0  0  0
  137.9160   74.9007  221.0091 H   0  0  0  0  0  0  0  0  0  0  0  0
  139.6730   75.9120  220.2400 C   0  0  0  0  0  0  0  0  0  0  0  0
  138.9410   76.8600  219.6020 F   0  0  0  0  0  0  0  0  0  0  0  0
  141.0780   75.9390  220.1900 C   0  0  0  0  0  0  0  0  0  0  0  0
  141.7650   76.9740  219.3940 C   0  0  0  0  0  0  0  0  0  0  0  0
  141.5940   78.2760  219.7320 N   0  0  0  0  0  0  0  0  0  0  0  0
  142.1860   79.2880  219.0420 C   0  0  0  0  0  0  0  0  0  0  0  0
  141.9730   80.5440  219.3980 N   0  0  0  0  0  0  0  0  0  0  0  0
  142.0370   81.6120  218.4310 C   0  0  0  0  0  0  0  0  0  0  0  0
  143.1230   81.8610  217.8390 O   0  0  0  0  0  0  0  0  0  0  0  0
  140.8460   82.4780  218.1750 C   0  0  0  0  0  0  0  0  0  0  0  0
  140.4102   82.7949  219.1340 H   0  0  0  0  0  0  0  0  0  0  0  0
  141.1538   83.3646  217.6013 H   0  0  0  0  0  0  0  0  0  0  0  0
  140.0975   81.9118  217.6013 H   0  0  0  0  0  0  0  0  0  0  0  0
  141.6940   80.9410  220.8040 C   0  0  0  0  0  0  0  0  0  0  0  0
  141.9870   81.9897  220.9600 H   0  0  0  0  0  0  0  0  0  0  0  0
  142.5810   80.1320  221.7870 C   0  0  0  0  0  0  0  0  0  0  0  0
  142.2834   79.0746  221.7285 H   0  0  0  0  0  0  0  0  0  0  0  0
  143.6239   80.3013  221.4811 H   0  0  0  0  0  0  0  0  0  0  0  0
  142.4750   80.5820  223.2570 C   0  0  0  0  0  0  0  0  0  0  0  0
  143.0446   79.8691  223.8712 H   0  0  0  0  0  0  0  0  0  0  0  0
  142.8693   81.6085  223.2871 H   0  0  0  0  0  0  0  0  0  0  0  0
  141.0490   80.6620  223.8250 C   0  0  0  0  0  0  0  0  0  0  0  0
  141.1117   80.5874  224.9207 H   0  0  0  0  0  0  0  0  0  0  0  0
  140.6300   81.6189  223.4802 H   0  0  0  0  0  0  0  0  0  0  0  0
  140.0970   79.5650  223.3240 C   0  0  0  0  0  0  0  0  0  0  0  0
  140.6106   78.5982  223.4317 H   0  0  0  0  0  0  0  0  0  0  0  0
  139.1864   79.6601  223.9338 H   0  0  0  0  0  0  0  0  0  0  0  0
  139.6320   79.6930  221.8560 C   0  0  0  0  0  0  0  0  0  0  0  0
  139.9693   78.7979  221.3128 H   0  0  0  0  0  0  0  0  0  0  0  0
  138.5377   79.7995  221.8904 H   0  0  0  0  0  0  0  0  0  0  0  0
  140.1590   80.9320  221.1070 C   0  0  0  0  0  0  0  0  0  0  0  0
  139.6250   80.9992  220.1477 H   0  0  0  0  0  0  0  0  0  0  0  0
  139.9813   81.7854  221.7779 H   0  0  0  0  0  0  0  0  0  0  0  0
  142.9700   78.9610  217.9660 N   0  0  0  0  0  0  0  0  0  0  0  0
  143.4260   79.6870  217.3710 H   0  0  0  0  0  0  0  0  0  0  0  0
  143.1690   77.6870  217.6270 N   0  0  0  0  0  0  0  0  0  0  0  0
  142.5950   76.6670  218.3100 C   0  0  0  0  0  0  0  0  0  0  0  0
  143.0040   74.8670  217.7960 Br  0  0  0  0  0  0  0  0  0  0  0  0
  141.8120   74.9340  220.8460 C   0  0  0  0  0  0  0  0  0  0  0  0
  143.1660   74.9000  220.7640 F   0  0  0  0  0  0  0  0  0  0  0  0
  141.1460   73.9370  221.5670 C   0  0  0  0  0  0  0  0  0  0  0  0
  141.7230   73.1588  222.0881 H   0  0  0  0  0  0  0  0  0  0  0  0
  1  2  1  0
  2  3  2  0
  3  4  1  0
  3  5  1  0
  5  6  1  0
  5  7  2  0
  7  8  1  0
  8  9  2  0
  9 10  1  0
 10 11  2  0
 11 12  1  0
 12 13  2  0
 12 14  1  0
 14 15  1  0
 14 16  1  0
 14 17  1  0
 11 18  1  0
 18 19  1  0
 18 20  1  0
 20 21  1  0
 20 22  1  0
 20 23  1  0
 23 24  1  0
 23 25  1  0
 23 26  1  0
 26 27  1  0
 26 28  1  0
 26 29  1  0
 29 30  1  0
 29 31  1  0
 29 32  1  0
 32 33  1  0
 32 34  1  0
 32 35  1  0
 35 36  1  0
 35 37  1  0
 10 38  1  0
 38 39  1  0
 38 40  1  0
 40 41  2  0
 41 42  1  0
  7 43  1  0
 43 44  1  0
 43 45  2  0
 45 46  1  0
 45  2  1  0
 41  8  1  0
 35 18  1  0
M  CHG  1  11   1
M  END
>  <UniqueID>  (54) 
6

>  <SMILES>  (54) 
CC(=O)/[N+](=c1/nc(-c2c(F)cccc2F)c(Br)n[nH]1)C1CCCCCC1

>  <Energy>  (54) 
75.59737830364624

>  <Genealogy>  (54) 
CC(=O)[NH+](c1nnc(Br)c(-c2c(F)cccc2F)n1)C1CCCCCC1 (protonated)
CC(=O)[N+](=c1nc(-c2c(F)cccc2F)c(Br)n[nH]1)C1CCCCCC1 (tautomer)
CC(=O)/[N+](=c1/nc(-c2c(F)cccc2F)c(Br)n[nH]1)C1CCCCCC1 (cis-trans isomerization)
CC(=O)/[N+](=c1/nc(-c2c(F)cccc2F)c(Br)n[nH]1)C1CCCCCC1 (3D coordinates assigned)
CC(=O)/[N+](=c1/nc(-c2c(F)cccc2F)c(Br)n[nH]1)C1CCCCCC1 (nonaromatic ring conformer: 75.59737830364624 kcal/mol)

>  <smiles>  (54) 
CC(=O)N(c1nnc(Br)c(-c2c(F)cccc2F)n1)C1CCCCCC1

>  <score_type>  (54) 
oracle

>  <origin>  (54) 
autodockgpu

>  <m_score__min__energy>  (54) 
-4.4000000000000004

>  <m_primary>  (54) 
energy

>  <meeko>  (54) 
{"free_energy": -4.19, "intermolecular_energy": -6.87, "internal_energy": -2.05, "cluster_size": 6, "cluster_id": 2, "rank_in_cluster": 5}

>  <energy>  (54) 
-3.67

>  <cluster_rmsd>  (54) 
0.46

>  <rmsd>  (54) 
273.14

>  <cluster>  (54) 
3

$$$$
VCUSMEIKIQENRV-OLELRBRINA-O
     RDKit          3D

 46 48  0  0  0  0  0  0  0  0999 V2000
  136.1741   84.3148  222.8200 H   0  0  0  0  0  0  0  0  0  0  0  0
  136.4260   83.2440  222.8260 C   0  0  0  0  0  0  0  0  0  0  0  0
  136.2430   82.4770  221.6730 C   0  0  0  0  0  0  0  0  0  0  0  0
  135.8429   82.9443  220.7611 H   0  0  0  0  0  0  0  0  0  0  0  0
  136.5670   81.1170  221.6750 C   0  0  0  0  0  0  0  0  0  0  0  0
  136.3830   80.3890  220.5440 F   0  0  0  0  0  0  0  0  0  0  0  0
  137.0920   80.5170  222.8340 C   0  0  0  0  0  0  0  0  0  0  0  0
  137.3950   79.0730  222.8410 C   0  0  0  0  0  0  0  0  0  0  0  0
  138.6600   78.6730  222.5660 N   0  0  0  0  0  0  0  0  0  0  0  0
  139.0170   77.3600  222.5440 C   0  0  0  0  0  0  0  0  0  0  0  0
  140.2600   77.0170  222.2500 N   0  0  0  0  0  0  0  0  0  0  0  0
  140.5570   75.7420  221.6450 C   0  0  0  0  0  0  0  0  0  0  0  0
  140.3060   74.6750  222.2700 O   0  0  0  0  0  0  0  0  0  0  0  0
  141.2290   75.6720  220.3110 C   0  0  0  0  0  0  0  0  0  0  0  0
  142.3140   75.5590  220.4525 H   0  0  0  0  0  0  0  0  0  0  0  0
  140.8406   74.8094  219.7496 H   0  0  0  0  0  0  0  0  0  0  0  0
  141.0267   76.5961  219.7496 H   0  0  0  0  0  0  0  0  0  0  0  0
  141.4240   77.8920  222.5530 C   0  0  0  0  0  0  0  0  0  0  0  0
  142.3025   77.2738  222.7897 H   0  0  0  0  0  0  0  0  0  0  0  0
  141.1660   78.7210  223.8400 C   0  0  0  0  0  0  0  0  0  0  0  0
  140.0988   78.6396  224.0937 H   0  0  0  0  0  0  0  0  0  0  0  0
  141.8241   78.3066  224.6179 H   0  0  0  0  0  0  0  0  0  0  0  0
  141.5190   80.2150  223.7150 C   0  0  0  0  0  0  0  0  0  0  0  0
  141.5806   80.6341  224.7302 H   0  0  0  0  0  0  0  0  0  0  0  0
  142.4672   80.2543  223.1589 H   0  0  0  0  0  0  0  0  0  0  0  0
  140.5250   81.0680  222.9110 C   0  0  0  0  0  0  0  0  0  0  0  0
  139.5118   80.6832  223.0993 H   0  0  0  0  0  0  0  0  0  0  0  0
  140.6613   82.1063  223.2476 H   0  0  0  0  0  0  0  0  0  0  0  0
  140.7640   81.0670  221.3920 C   0  0  0  0  0  0  0  0  0  0  0  0
  139.9499   81.6383  220.9221 H   0  0  0  0  0  0  0  0  0  0  0  0
  141.7617   81.5068  221.2468 H   0  0  0  0  0  0  0  0  0  0  0  0
  140.8170   79.6760  220.7190 C   0  0  0  0  0  0  0  0  0  0  0  0
  139.8277   79.2074  220.8277 H   0  0  0  0  0  0  0  0  0  0  0  0
  141.1063   79.8539  219.6727 H   0  0  0  0  0  0  0  0  0  0  0  0
  141.8690   78.7080  221.2950 C   0  0  0  0  0  0  0  0  0  0  0  0
  142.1371   77.9912  220.5048 H   0  0  0  0  0  0  0  0  0  0  0  0
  142.7062   79.3390  221.6280 H   0  0  0  0  0  0  0  0  0  0  0  0
  138.0480   76.4250  222.8020 N   0  0  0  0  0  0  0  0  0  0  0  0
  138.2420   75.4010  222.7680 H   0  0  0  0  0  0  0  0  0  0  0  0
  136.8010   76.7970  223.0960 N   0  0  0  0  0  0  0  0  0  0  0  0
  136.4320   78.1010  223.1310 C   0  0  0  0  0  0  0  0  0  0  0  0
  134.6380   78.5370  223.6400 Br  0  0  0  0  0  0  0  0  0  0  0  0
  137.2550   81.2910  223.9970 C   0  0  0  0  0  0  0  0  0  0  0  0
  137.7020   80.7250  225.1480 F   0  0  0  0  0  0  0  0  0  0  0  0
  136.9290   82.6510  223.9870 C   0  0  0  0  0  0  0  0  0  0  0  0
  137.0689   83.2554  224.8954 H   0  0  0  0  0  0  0  0  0  0  0  0
  1  2  1  0
  2  3  2  0
  3  4  1  0
  3  5  1  0
  5  6  1  0
  5  7  2  0
  7  8  1  0
  8  9  2  0
  9 10  1  0
 10 11  2  0
 11 12  1  0
 12 13  2  0
 12 14  1  0
 14 15  1  0
 14 16  1  0
 14 17  1  0
 11 18  1  0
 18 19  1  0
 18 20  1  0
 20 21  1  0
 20 22  1  0
 20 23  1  0
 23 24  1  0
 23 25  1  0
 23 26  1  0
 26 27  1  0
 26 28  1  0
 26 29  1  0
 29 30  1  0
 29 31  1  0
 29 32  1  0
 32 33  1  0
 32 34  1  0
 32 35  1  0
 35 36  1  0
 35 37  1  0
 10 38  1  0
 38 39  1  0
 38 40  1  0
 40 41  2  0
 41 42  1  0
  7 43  1  0
 43 44  1  0
 43 45  2  0
 45 46  1  0
 45  2  1  0
 41  8  1  0
 35 18  1  0
M  CHG  1  11   1
M  END
>  <UniqueID>  (55) 
6

>  <SMILES>  (55) 
CC(=O)/[N+](=c1/nc(-c2c(F)cccc2F)c(Br)n[nH]1)C1CCCCCC1

>  <Energy>  (55) 
75.59737830364624

>  <Genealogy>  (55) 
CC(=O)[NH+](c1nnc(Br)c(-c2c(F)cccc2F)n1)C1CCCCCC1 (protonated)
CC(=O)[N+](=c1nc(-c2c(F)cccc2F)c(Br)n[nH]1)C1CCCCCC1 (tautomer)
CC(=O)/[N+](=c1/nc(-c2c(F)cccc2F)c(Br)n[nH]1)C1CCCCCC1 (cis-trans isomerization)
CC(=O)/[N+](=c1/nc(-c2c(F)cccc2F)c(Br)n[nH]1)C1CCCCCC1 (3D coordinates assigned)
CC(=O)/[N+](=c1/nc(-c2c(F)cccc2F)c(Br)n[nH]1)C1CCCCCC1 (nonaromatic ring conformer: 75.59737830364624 kcal/mol)

>  <smiles>  (55) 
CC(=O)N(c1nnc(Br)c(-c2c(F)cccc2F)n1)C1CCCCCC1

>  <score_type>  (55) 
oracle

>  <origin>  (55) 
autodockgpu

>  <m_score__min__energy>  (55) 
-4.4000000000000004

>  <m_primary>  (55) 
energy

>  <meeko>  (55) 
{"free_energy": -3.64, "intermolecular_energy": -6.32, "internal_energy": -2.49, "cluster_size": 9, "cluster_id": 3, "rank_in_cluster": 8}

>  <energy>  (55) 
-3.64

>  <cluster_rmsd>  (55) 
0.89

>  <rmsd>  (55) 
273.14

>  <cluster>  (55) 
3

$$$$
VCUSMEIKIQENRV-OLELRBRINA-O
     RDKit          3D

 46 48  0  0  0  0  0  0  0  0999 V2000
  145.0686   73.6362  216.6341 H   0  0  0  0  0  0  0  0  0  0  0  0
  144.4510   74.0920  217.4220 C   0  0  0  0  0  0  0  0  0  0  0  0
  143.5050   75.0650  217.0910 C   0  0  0  0  0  0  0  0  0  0  0  0
  143.3820   75.3778  216.0436 H   0  0  0  0  0  0  0  0  0  0  0  0
  142.7140   75.6420  218.0900 C   0  0  0  0  0  0  0  0  0  0  0  0
  141.7990   76.5850  217.7490 F   0  0  0  0  0  0  0  0  0  0  0  0
  142.8580   75.2360  219.4280 C   0  0  0  0  0  0  0  0  0  0  0  0
  142.0480   75.8770  220.4820 C   0  0  0  0  0  0  0  0  0  0  0  0
  142.1800   77.2110  220.6840 N   0  0  0  0  0  0  0  0  0  0  0  0
  141.4750   77.8730  221.6410 C   0  0  0  0  0  0  0  0  0  0  0  0
  141.6530   79.1720  221.8140 N   0  0  0  0  0  0  0  0  0  0  0  0
  141.6830   79.7490  223.1350 C   0  0  0  0  0  0  0  0  0  0  0  0
  140.6610   79.6920  223.8710 O   0  0  0  0  0  0  0  0  0  0  0  0
  142.8940   80.4830  223.6150 C   0  0  0  0  0  0  0  0  0  0  0  0
  142.9062   80.4904  224.7149 H   0  0  0  0  0  0  0  0  0  0  0  0
  143.7989   79.9812  223.2416 H   0  0  0  0  0  0  0  0  0  0  0  0
  142.8678   81.5174  223.2416 H   0  0  0  0  0  0  0  0  0  0  0  0
  141.7920   80.1190  220.6750 C   0  0  0  0  0  0  0  0  0  0  0  0
  142.8529   80.2199  220.4022 H   0  0  0  0  0  0  0  0  0  0  0  0
  141.3540   81.5480  221.0940 C   0  0  0  0  0  0  0  0  0  0  0  0
  140.4963   81.4588  221.7769 H   0  0  0  0  0  0  0  0  0  0  0  0
  142.2291   82.0197  221.5649 H   0  0  0  0  0  0  0  0  0  0  0  0
  140.9430   82.4560  219.9200 C   0  0  0  0  0  0  0  0  0  0  0  0
  139.9636   82.1137  219.5544 H   0  0  0  0  0  0  0  0  0  0  0  0
  140.9354   83.4804  220.3207 H   0  0  0  0  0  0  0  0  0  0  0  0
  141.9110   82.4790  218.7270 C   0  0  0  0  0  0  0  0  0  0  0  0
  141.8656   83.4770  218.2667 H   0  0  0  0  0  0  0  0  0  0  0  0
  142.9064   82.2350  219.1265 H   0  0  0  0  0  0  0  0  0  0  0  0
  141.6070   81.4340  217.6400 C   0  0  0  0  0  0  0  0  0  0  0  0
  140.5604   81.5670  217.3286 H   0  0  0  0  0  0  0  0  0  0  0  0
  142.3409   81.6152  216.8409 H   0  0  0  0  0  0  0  0  0  0  0  0
  141.7940   79.9560  218.0500 C   0  0  0  0  0  0  0  0  0  0  0  0
  141.3742   79.3256  217.2523 H   0  0  0  0  0  0  0  0  0  0  0  0
  142.8747   79.8141  218.1983 H   0  0  0  0  0  0  0  0  0  0  0  0
  141.1230   79.5550  219.3780 C   0  0  0  0  0  0  0  0  0  0  0  0
  140.0828   79.9117  219.3520 H   0  0  0  0  0  0  0  0  0  0  0  0
  141.2186   78.4611  219.4433 H   0  0  0  0  0  0  0  0  0  0  0  0
  140.6150   77.1470  222.4250 N   0  0  0  0  0  0  0  0  0  0  0  0
  140.0700   77.5820  223.2000 H   0  0  0  0  0  0  0  0  0  0  0  0
  140.4540   75.8370  222.2310 N   0  0  0  0  0  0  0  0  0  0  0  0
  141.1410   75.1660  221.2750 C   0  0  0  0  0  0  0  0  0  0  0  0
  140.7820   73.3010  221.0220 Br  0  0  0  0  0  0  0  0  0  0  0  0
  143.8260   74.2700  219.7560 C   0  0  0  0  0  0  0  0  0  0  0  0
  144.0300   73.9040  221.0470 F   0  0  0  0  0  0  0  0  0  0  0  0
  144.6140   73.6970  218.7510 C   0  0  0  0  0  0  0  0  0  0  0  0
  145.3632   72.9340  219.0089 H   0  0  0  0  0  0  0  0  0  0  0  0
  1  2  1  0
  2  3  2  0
  3  4  1  0
  3  5  1  0
  5  6  1  0
  5  7  2  0
  7  8  1  0
  8  9  2  0
  9 10  1  0
 10 11  2  0
 11 12  1  0
 12 13  2  0
 12 14  1  0
 14 15  1  0
 14 16  1  0
 14 17  1  0
 11 18  1  0
 18 19  1  0
 18 20  1  0
 20 21  1  0
 20 22  1  0
 20 23  1  0
 23 24  1  0
 23 25  1  0
 23 26  1  0
 26 27  1  0
 26 28  1  0
 26 29  1  0
 29 30  1  0
 29 31  1  0
 29 32  1  0
 32 33  1  0
 32 34  1  0
 32 35  1  0
 35 36  1  0
 35 37  1  0
 10 38  1  0
 38 39  1  0
 38 40  1  0
 40 41  2  0
 41 42  1  0
  7 43  1  0
 43 44  1  0
 43 45  2  0
 45 46  1  0
 45  2  1  0
 41  8  1  0
 35 18  1  0
M  CHG  1  11   1
M  END
>  <UniqueID>  (56) 
6

>  <SMILES>  (56) 
CC(=O)/[N+](=c1/nc(-c2c(F)cccc2F)c(Br)n[nH]1)C1CCCCCC1

>  <Energy>  (56) 
75.59737830364624

>  <Genealogy>  (56) 
CC(=O)[NH+](c1nnc(Br)c(-c2c(F)cccc2F)n1)C1CCCCCC1 (protonated)
CC(=O)[N+](=c1nc(-c2c(F)cccc2F)c(Br)n[nH]1)C1CCCCCC1 (tautomer)
CC(=O)/[N+](=c1/nc(-c2c(F)cccc2F)c(Br)n[nH]1)C1CCCCCC1 (cis-trans isomerization)
CC(=O)/[N+](=c1/nc(-c2c(F)cccc2F)c(Br)n[nH]1)C1CCCCCC1 (3D coordinates assigned)
CC(=O)/[N+](=c1/nc(-c2c(F)cccc2F)c(Br)n[nH]1)C1CCCCCC1 (nonaromatic ring conformer: 75.59737830364624 kcal/mol)

>  <smiles>  (56) 
CC(=O)N(c1nnc(Br)c(-c2c(F)cccc2F)n1)C1CCCCCC1

>  <score_type>  (56) 
oracle

>  <origin>  (56) 
autodockgpu

>  <m_score__min__energy>  (56) 
-4.4000000000000004

>  <m_primary>  (56) 
energy

>  <meeko>  (56) 
{"free_energy": -3.94, "intermolecular_energy": -6.62, "internal_energy": -1.79, "cluster_size": 1, "cluster_id": 5, "rank_in_cluster": 1}

>  <energy>  (56) 
-3.56

>  <cluster_rmsd>  (56) 
0.9

>  <rmsd>  (56) 
273.31

>  <cluster>  (56) 
3

$$$$
VCUSMEIKIQENRV-OLELRBRINA-O
     RDKit          3D

 46 48  0  0  0  0  0  0  0  0999 V2000
  140.4428   72.3853  221.8390 H   0  0  0  0  0  0  0  0  0  0  0  0
  140.7910   73.2600  221.2700 C   0  0  0  0  0  0  0  0  0  0  0  0
  142.1560   73.5490  221.2000 C   0  0  0  0  0  0  0  0  0  0  0  0
  142.8811   72.9034  221.7172 H   0  0  0  0  0  0  0  0  0  0  0  0
  142.6020   74.6570  220.4740 C   0  0  0  0  0  0  0  0  0  0  0  0
  143.9320   74.9210  220.4160 F   0  0  0  0  0  0  0  0  0  0  0  0
  141.6810   75.4770  219.7990 C   0  0  0  0  0  0  0  0  0  0  0  0
  142.1550   76.6670  219.0660 C   0  0  0  0  0  0  0  0  0  0  0  0
  141.7790   77.8940  219.5030 N   0  0  0  0  0  0  0  0  0  0  0  0
  142.1670   79.0380  218.8770 C   0  0  0  0  0  0  0  0  0  0  0  0
  141.7580   80.2110  219.3300 N   0  0  0  0  0  0  0  0  0  0  0  0
  141.7910   81.3840  218.4920 C   0  0  0  0  0  0  0  0  0  0  0  0
  142.8950   81.8230  218.0660 O   0  0  0  0  0  0  0  0  0  0  0  0
  140.5340   82.1320  218.1820 C   0  0  0  0  0  0  0  0  0  0  0  0
  140.0410   82.4254  219.1205 H   0  0  0  0  0  0  0  0  0  0  0  0
  140.7774   83.0323  217.5987 H   0  0  0  0  0  0  0  0  0  0  0  0
  139.8588   81.4886  217.5987 H   0  0  0  0  0  0  0  0  0  0  0  0
  141.2790   80.4080  220.7240 C   0  0  0  0  0  0  0  0  0  0  0  0
  141.2646   81.4812  220.9647 H   0  0  0  0  0  0  0  0  0  0  0  0
  142.2770   79.7880  221.7380 C   0  0  0  0  0  0  0  0  0  0  0  0
  141.9225   78.7794  221.9972 H   0  0  0  0  0  0  0  0  0  0  0  0
  143.2615   79.7828  221.2473 H   0  0  0  0  0  0  0  0  0  0  0  0
  142.4390   80.5920  223.0420 C   0  0  0  0  0  0  0  0  0  0  0  0
  143.1133   80.0297  223.7046 H   0  0  0  0  0  0  0  0  0  0  0  0
  142.8283   81.5761  222.7420 H   0  0  0  0  0  0  0  0  0  0  0  0
  141.1410   80.8720  223.8160 C   0  0  0  0  0  0  0  0  0  0  0  0
  141.3566   80.7855  224.8912 H   0  0  0  0  0  0  0  0  0  0  0  0
  140.8132   81.8803  223.5229 H   0  0  0  0  0  0  0  0  0  0  0  0
  139.9820   79.9210  223.4810 C   0  0  0  0  0  0  0  0  0  0  0  0
  140.4066   78.9205  223.3118 H   0  0  0  0  0  0  0  0  0  0  0  0
  139.2941   79.9811  224.3373 H   0  0  0  0  0  0  0  0  0  0  0  0
  139.1350   80.2900  222.2420 C   0  0  0  0  0  0  0  0  0  0  0  0
  138.1847   79.7394  222.3031 H   0  0  0  0  0  0  0  0  0  0  0  0
  139.0122   81.3828  222.2705 H   0  0  0  0  0  0  0  0  0  0  0  0
  139.7860   79.9680  220.8830 C   0  0  0  0  0  0  0  0  0  0  0  0
  139.7370   78.8792  220.7344 H   0  0  0  0  0  0  0  0  0  0  0  0
  139.2221   80.5462  220.1362 H   0  0  0  0  0  0  0  0  0  0  0  0
  142.9560   78.9250  217.7610 N   0  0  0  0  0  0  0  0  0  0  0  0
  143.2610   79.7560  217.2110 H   0  0  0  0  0  0  0  0  0  0  0  0
  143.3550   77.7290  217.3240 N   0  0  0  0  0  0  0  0  0  0  0  0
  142.9850   76.5810  217.9430 C   0  0  0  0  0  0  0  0  0  0  0  0
  143.6730   74.9180  217.2860 Br  0  0  0  0  0  0  0  0  0  0  0  0
  140.3060   75.1910  219.8890 C   0  0  0  0  0  0  0  0  0  0  0  0
  139.3900   76.0000  219.2990 F   0  0  0  0  0  0  0  0  0  0  0  0
  139.8680   74.0810  220.6180 C   0  0  0  0  0  0  0  0  0  0  0  0
  138.7934   73.8537  220.6782 H   0  0  0  0  0  0  0  0  0  0  0  0
  1  2  1  0
  2  3  2  0
  3  4  1  0
  3  5  1  0
  5  6  1  0
  5  7  2  0
  7  8  1  0
  8  9  2  0
  9 10  1  0
 10 11  2  0
 11 12  1  0
 12 13  2  0
 12 14  1  0
 14 15  1  0
 14 16  1  0
 14 17  1  0
 11 18  1  0
 18 19  1  0
 18 20  1  0
 20 21  1  0
 20 22  1  0
 20 23  1  0
 23 24  1  0
 23 25  1  0
 23 26  1  0
 26 27  1  0
 26 28  1  0
 26 29  1  0
 29 30  1  0
 29 31  1  0
 29 32  1  0
 32 33  1  0
 32 34  1  0
 32 35  1  0
 35 36  1  0
 35 37  1  0
 10 38  1  0
 38 39  1  0
 38 40  1  0
 40 41  2  0
 41 42  1  0
  7 43  1  0
 43 44  1  0
 43 45  2  0
 45 46  1  0
 45  2  1  0
 41  8  1  0
 35 18  1  0
M  CHG  1  11   1
M  END
>  <UniqueID>  (57) 
6

>  <SMILES>  (57) 
CC(=O)/[N+](=c1/nc(-c2c(F)cccc2F)c(Br)n[nH]1)C1CCCCCC1

>  <Energy>  (57) 
75.59737830364624

>  <Genealogy>  (57) 
CC(=O)[NH+](c1nnc(Br)c(-c2c(F)cccc2F)n1)C1CCCCCC1 (protonated)
CC(=O)[N+](=c1nc(-c2c(F)cccc2F)c(Br)n[nH]1)C1CCCCCC1 (tautomer)
CC(=O)/[N+](=c1/nc(-c2c(F)cccc2F)c(Br)n[nH]1)C1CCCCCC1 (cis-trans isomerization)
CC(=O)/[N+](=c1/nc(-c2c(F)cccc2F)c(Br)n[nH]1)C1CCCCCC1 (3D coordinates assigned)
CC(=O)/[N+](=c1/nc(-c2c(F)cccc2F)c(Br)n[nH]1)C1CCCCCC1 (nonaromatic ring conformer: 75.59737830364624 kcal/mol)

>  <smiles>  (57) 
CC(=O)N(c1nnc(Br)c(-c2c(F)cccc2F)n1)C1CCCCCC1

>  <score_type>  (57) 
oracle

>  <origin>  (57) 
autodockgpu

>  <m_score__min__energy>  (57) 
-4.4000000000000004

>  <m_primary>  (57) 
energy

>  <meeko>  (57) 
{"free_energy": -4.2, "intermolecular_energy": -6.88, "internal_energy": -1.87, "cluster_size": 6, "cluster_id": 2, "rank_in_cluster": 4}

>  <energy>  (57) 
-4.05

>  <cluster_rmsd>  (57) 
0.0

>  <rmsd>  (57) 
272.76

>  <cluster>  (57) 
4

$$$$
VCUSMEIKIQENRV-OLELRBRINA-O
     RDKit          3D

 46 48  0  0  0  0  0  0  0  0999 V2000
  142.2262   71.6229  221.2230 H   0  0  0  0  0  0  0  0  0  0  0  0
  142.3430   72.5780  220.6900 C   0  0  0  0  0  0  0  0  0  0  0  0
  141.2720   73.1100  219.9670 C   0  0  0  0  0  0  0  0  0  0  0  0
  140.3143   72.5703  219.9279 H   0  0  0  0  0  0  0  0  0  0  0  0
  141.4150   74.3270  219.2930 C   0  0  0  0  0  0  0  0  0  0  0  0
  140.3620   74.8280  218.5980 F   0  0  0  0  0  0  0  0  0  0  0  0
  142.6320   75.0280  219.3510 C   0  0  0  0  0  0  0  0  0  0  0  0
  142.7890   76.2920  218.6060 C   0  0  0  0  0  0  0  0  0  0  0  0
  142.3790   77.4460  219.1880 N   0  0  0  0  0  0  0  0  0  0  0  0
  142.4800   78.6500  218.5630 C   0  0  0  0  0  0  0  0  0  0  0  0
  142.0480   79.7460  219.1640 N   0  0  0  0  0  0  0  0  0  0  0  0
  141.6100   80.8890  218.4010 C   0  0  0  0  0  0  0  0  0  0  0  0
  142.4260   81.5000  217.6590 O   0  0  0  0  0  0  0  0  0  0  0  0
  140.2130   81.4040  218.5390 C   0  0  0  0  0  0  0  0  0  0  0  0
  139.9602   81.4972  219.6055 H   0  0  0  0  0  0  0  0  0  0  0  0
  140.1362   82.3895  218.0565 H   0  0  0  0  0  0  0  0  0  0  0  0
  139.5149   80.7041  218.0565 H   0  0  0  0  0  0  0  0  0  0  0  0
  142.0200   79.8880  220.6440 C   0  0  0  0  0  0  0  0  0  0  0  0
  143.0023   79.6217  221.0613 H   0  0  0  0  0  0  0  0  0  0  0  0
  141.0340   78.8690  221.2750 C   0  0  0  0  0  0  0  0  0  0  0  0
  140.0419   79.3407  221.3326 H   0  0  0  0  0  0  0  0  0  0  0  0
  141.0484   77.9779  220.6303 H   0  0  0  0  0  0  0  0  0  0  0  0
  141.4250   78.3960  222.6870 C   0  0  0  0  0  0  0  0  0  0  0  0
  140.8714   77.4693  222.8988 H   0  0  0  0  0  0  0  0  0  0  0  0
  142.5174   78.2677  222.6694 H   0  0  0  0  0  0  0  0  0  0  0  0
  141.1370   79.3890  223.8240 C   0  0  0  0  0  0  0  0  0  0  0  0
  140.0461   79.4826  223.9299 H   0  0  0  0  0  0  0  0  0  0  0  0
  141.6241   78.9838  224.7232 H   0  0  0  0  0  0  0  0  0  0  0  0
  141.7200   80.7940  223.6080 C   0  0  0  0  0  0  0  0  0  0  0  0
  141.5537   81.3721  224.5290 H   0  0  0  0  0  0  0  0  0  0  0  0
  142.7798   80.6388  223.3575 H   0  0  0  0  0  0  0  0  0  0  0  0
  141.1290   81.6020  222.4300 C   0  0  0  0  0  0  0  0  0  0  0  0
  140.0706   81.3224  222.3225 H   0  0  0  0  0  0  0  0  0  0  0  0
  141.2798   82.6624  222.6807 H   0  0  0  0  0  0  0  0  0  0  0  0
  141.8210   81.3810  221.0710 C   0  0  0  0  0  0  0  0  0  0  0  0
  141.2136   81.8752  220.2984 H   0  0  0  0  0  0  0  0  0  0  0  0
  142.8328   81.7989  221.1789 H   0  0  0  0  0  0  0  0  0  0  0  0
  143.0090   78.6760  217.2980 N   0  0  0  0  0  0  0  0  0  0  0  0
  143.0840   79.5570  216.7470 H   0  0  0  0  0  0  0  0  0  0  0  0
  143.4380   77.5560  216.7130 N   0  0  0  0  0  0  0  0  0  0  0  0
  143.3520   76.3500  217.3270 C   0  0  0  0  0  0  0  0  0  0  0  0
  144.0670   74.8120  216.4380 Br  0  0  0  0  0  0  0  0  0  0  0  0
  143.7130   74.4780  220.0650 C   0  0  0  0  0  0  0  0  0  0  0  0
  144.9180   75.1010  220.0870 F   0  0  0  0  0  0  0  0  0  0  0  0
  143.5620   73.2590  220.7360 C   0  0  0  0  0  0  0  0  0  0  0  0
  144.4055   72.8359  221.3012 H   0  0  0  0  0  0  0  0  0  0  0  0
  1  2  1  0
  2  3  2  0
  3  4  1  0
  3  5  1  0
  5  6  1  0
  5  7  2  0
  7  8  1  0
  8  9  2  0
  9 10  1  0
 10 11  2  0
 11 12  1  0
 12 13  2  0
 12 14  1  0
 14 15  1  0
 14 16  1  0
 14 17  1  0
 11 18  1  0
 18 19  1  0
 18 20  1  0
 20 21  1  0
 20 22  1  0
 20 23  1  0
 23 24  1  0
 23 25  1  0
 23 26  1  0
 26 27  1  0
 26 28  1  0
 26 29  1  0
 29 30  1  0
 29 31  1  0
 29 32  1  0
 32 33  1  0
 32 34  1  0
 32 35  1  0
 35 36  1  0
 35 37  1  0
 10 38  1  0
 38 39  1  0
 38 40  1  0
 40 41  2  0
 41 42  1  0
  7 43  1  0
 43 44  1  0
 43 45  2  0
 45 46  1  0
 45  2  1  0
 41  8  1  0
 35 18  1  0
M  CHG  1  11   1
M  END
>  <UniqueID>  (58) 
6

>  <SMILES>  (58) 
CC(=O)/[N+](=c1/nc(-c2c(F)cccc2F)c(Br)n[nH]1)C1CCCCCC1

>  <Energy>  (58) 
75.59737830364624

>  <Genealogy>  (58) 
CC(=O)[NH+](c1nnc(Br)c(-c2c(F)cccc2F)n1)C1CCCCCC1 (protonated)
CC(=O)[N+](=c1nc(-c2c(F)cccc2F)c(Br)n[nH]1)C1CCCCCC1 (tautomer)
CC(=O)/[N+](=c1/nc(-c2c(F)cccc2F)c(Br)n[nH]1)C1CCCCCC1 (cis-trans isomerization)
CC(=O)/[N+](=c1/nc(-c2c(F)cccc2F)c(Br)n[nH]1)C1CCCCCC1 (3D coordinates assigned)
CC(=O)/[N+](=c1/nc(-c2c(F)cccc2F)c(Br)n[nH]1)C1CCCCCC1 (nonaromatic ring conformer: 75.59737830364624 kcal/mol)

>  <smiles>  (58) 
CC(=O)N(c1nnc(Br)c(-c2c(F)cccc2F)n1)C1CCCCCC1

>  <score_type>  (58) 
oracle

>  <origin>  (58) 
autodockgpu

>  <m_score__min__energy>  (58) 
-4.4000000000000004

>  <m_primary>  (58) 
energy

>  <meeko>  (58) 
{"free_energy": -4.3, "intermolecular_energy": -6.98, "internal_energy": -1.73, "cluster_size": 6, "cluster_id": 2, "rank_in_cluster": 2}

>  <energy>  (58) 
-3.71

>  <cluster_rmsd>  (58) 
0.58

>  <rmsd>  (58) 
272.77

>  <cluster>  (58) 
4

$$$$
VCUSMEIKIQENRV-OLELRBRINA-O
     RDKit          3D

 46 48  0  0  0  0  0  0  0  0999 V2000
  135.5619   83.6169  222.7228 H   0  0  0  0  0  0  0  0  0  0  0  0
  135.9260   82.5790  222.7350 C   0  0  0  0  0  0  0  0  0  0  0  0
  135.4920   81.6750  221.7620 C   0  0  0  0  0  0  0  0  0  0  0  0
  134.7819   82.0012  220.9878 H   0  0  0  0  0  0  0  0  0  0  0  0
  135.9580   80.3570  221.7700 C   0  0  0  0  0  0  0  0  0  0  0  0
  135.5260   79.4950  220.8150 F   0  0  0  0  0  0  0  0  0  0  0  0
  136.8750   79.9380  222.7500 C   0  0  0  0  0  0  0  0  0  0  0  0
  137.3330   78.5350  222.7760 C   0  0  0  0  0  0  0  0  0  0  0  0
  138.6240   78.2660  222.4640 N   0  0  0  0  0  0  0  0  0  0  0  0
  139.1200   76.9990  222.4560 C   0  0  0  0  0  0  0  0  0  0  0  0
  140.3830   76.7840  222.1260 N   0  0  0  0  0  0  0  0  0  0  0  0
  140.8070   75.5110  221.5980 C   0  0  0  0  0  0  0  0  0  0  0  0
  140.7140   74.4730  222.3080 O   0  0  0  0  0  0  0  0  0  0  0  0
  141.4270   75.4210  220.2410 C   0  0  0  0  0  0  0  0  0  0  0  0
  142.5109   75.2636  220.3428 H   0  0  0  0  0  0  0  0  0  0  0  0
  140.9842   74.5777  219.6907 H   0  0  0  0  0  0  0  0  0  0  0  0
  141.2422   76.3554  219.6907 H   0  0  0  0  0  0  0  0  0  0  0  0
  141.4430   77.8110  222.3090 C   0  0  0  0  0  0  0  0  0  0  0  0
  142.4177   77.3195  222.4447 H   0  0  0  0  0  0  0  0  0  0  0  0
  141.2150   78.6060  223.6230 C   0  0  0  0  0  0  0  0  0  0  0  0
  140.2281   79.0886  223.5664 H   0  0  0  0  0  0  0  0  0  0  0  0
  141.2906   77.8805  224.4464 H   0  0  0  0  0  0  0  0  0  0  0  0
  142.2690   79.6950  223.8980 C   0  0  0  0  0  0  0  0  0  0  0  0
  142.0111   80.1829  224.8495 H   0  0  0  0  0  0  0  0  0  0  0  0
  143.2396   79.1775  223.9121 H   0  0  0  0  0  0  0  0  0  0  0  0
  142.3910   80.7880  222.8240 C   0  0  0  0  0  0  0  0  0  0  0  0
  142.6599   81.7311  223.3223 H   0  0  0  0  0  0  0  0  0  0  0  0
  143.1567   80.4445  222.1129 H   0  0  0  0  0  0  0  0  0  0  0  0
  141.1100   81.0240  222.0080 C   0  0  0  0  0  0  0  0  0  0  0  0
  140.2648   81.0631  222.7109 H   0  0  0  0  0  0  0  0  0  0  0  0
  141.2769   81.9602  221.4552 H   0  0  0  0  0  0  0  0  0  0  0  0
  140.7870   79.9580  220.9380 C   0  0  0  0  0  0  0  0  0  0  0  0
  139.7293   79.6762  221.0466 H   0  0  0  0  0  0  0  0  0  0  0  0
  141.0210   80.4189  219.9670 H   0  0  0  0  0  0  0  0  0  0  0  0
  141.6340   78.6720  221.0170 C   0  0  0  0  0  0  0  0  0  0  0  0
  141.3762   78.0440  220.1514 H   0  0  0  0  0  0  0  0  0  0  0  0
  142.6825   79.0045  221.0311 H   0  0  0  0  0  0  0  0  0  0  0  0
  138.2660   75.9720  222.7680 N   0  0  0  0  0  0  0  0  0  0  0  0
  138.5680   74.9740  222.7480 H   0  0  0  0  0  0  0  0  0  0  0  0
  136.9970   76.2150  223.0980 N   0  0  0  0  0  0  0  0  0  0  0  0
  136.4910   77.4720  223.1190 C   0  0  0  0  0  0  0  0  0  0  0  0
  134.6770   77.7260  223.6820 Br  0  0  0  0  0  0  0  0  0  0  0  0
  137.2930   80.8470  223.7380 C   0  0  0  0  0  0  0  0  0  0  0  0
  138.1300   80.4540  224.7320 F   0  0  0  0  0  0  0  0  0  0  0  0
  136.8220   82.1650  223.7230 C   0  0  0  0  0  0  0  0  0  0  0  0
  137.1585   82.8766  224.4914 H   0  0  0  0  0  0  0  0  0  0  0  0
  1  2  1  0
  2  3  2  0
  3  4  1  0
  3  5  1  0
  5  6  1  0
  5  7  2  0
  7  8  1  0
  8  9  2  0
  9 10  1  0
 10 11  2  0
 11 12  1  0
 12 13  2  0
 12 14  1  0
 14 15  1  0
 14 16  1  0
 14 17  1  0
 11 18  1  0
 18 19  1  0
 18 20  1  0
 20 21  1  0
 20 22  1  0
 20 23  1  0
 23 24  1  0
 23 25  1  0
 23 26  1  0
 26 27  1  0
 26 28  1  0
 26 29  1  0
 29 30  1  0
 29 31  1  0
 29 32  1  0
 32 33  1  0
 32 34  1  0
 32 35  1  0
 35 36  1  0
 35 37  1  0
 10 38  1  0
 38 39  1  0
 38 40  1  0
 40 41  2  0
 41 42  1  0
  7 43  1  0
 43 44  1  0
 43 45  2  0
 45 46  1  0
 45  2  1  0
 41  8  1  0
 35 18  1  0
M  CHG  1  11   1
M  END
>  <UniqueID>  (59) 
6

>  <SMILES>  (59) 
CC(=O)/[N+](=c1/nc(-c2c(F)cccc2F)c(Br)n[nH]1)C1CCCCCC1

>  <Energy>  (59) 
75.59737830364624

>  <Genealogy>  (59) 
CC(=O)[NH+](c1nnc(Br)c(-c2c(F)cccc2F)n1)C1CCCCCC1 (protonated)
CC(=O)[N+](=c1nc(-c2c(F)cccc2F)c(Br)n[nH]1)C1CCCCCC1 (tautomer)
CC(=O)/[N+](=c1/nc(-c2c(F)cccc2F)c(Br)n[nH]1)C1CCCCCC1 (cis-trans isomerization)
CC(=O)/[N+](=c1/nc(-c2c(F)cccc2F)c(Br)n[nH]1)C1CCCCCC1 (3D coordinates assigned)
CC(=O)/[N+](=c1/nc(-c2c(F)cccc2F)c(Br)n[nH]1)C1CCCCCC1 (nonaromatic ring conformer: 75.59737830364624 kcal/mol)

>  <smiles>  (59) 
CC(=O)N(c1nnc(Br)c(-c2c(F)cccc2F)n1)C1CCCCCC1

>  <score_type>  (59) 
oracle

>  <origin>  (59) 
autodockgpu

>  <m_score__min__energy>  (59) 
-4.4000000000000004

>  <m_primary>  (59) 
energy

>  <meeko>  (59) 
{"free_energy": -3.88, "intermolecular_energy": -6.57, "internal_energy": -2.25, "cluster_size": 9, "cluster_id": 3, "rank_in_cluster": 6}

>  <energy>  (59) 
-3.94

>  <cluster_rmsd>  (59) 
0.0

>  <rmsd>  (59) 
272.52

>  <cluster>  (59) 
5

$$$$
VCUSMEIKIQENRV-OLELRBRINA-O
     RDKit          3D

 46 48  0  0  0  0  0  0  0  0999 V2000
  135.3725   83.4706  222.5605 H   0  0  0  0  0  0  0  0  0  0  0  0
  135.7250   82.4290  222.5890 C   0  0  0  0  0  0  0  0  0  0  0  0
  136.6090   82.0180  223.5900 C   0  0  0  0  0  0  0  0  0  0  0  0
  136.9546   82.7379  224.3465 H   0  0  0  0  0  0  0  0  0  0  0  0
  137.0550   80.6940  223.6320 C   0  0  0  0  0  0  0  0  0  0  0  0
  137.9130   80.3130  224.6130 F   0  0  0  0  0  0  0  0  0  0  0  0
  136.6050   79.7660  222.6760 C   0  0  0  0  0  0  0  0  0  0  0  0
  137.1100   78.3790  222.7040 C   0  0  0  0  0  0  0  0  0  0  0  0
  138.3860   78.1430  222.3140 N   0  0  0  0  0  0  0  0  0  0  0  0
  138.9210   76.8920  222.3020 C   0  0  0  0  0  0  0  0  0  0  0  0
  140.1660   76.7090  221.8940 N   0  0  0  0  0  0  0  0  0  0  0  0
  140.6100   75.4230  221.4180 C   0  0  0  0  0  0  0  0  0  0  0  0
  140.6160   74.4310  222.1970 O   0  0  0  0  0  0  0  0  0  0  0  0
  141.1370   75.2680  220.0270 C   0  0  0  0  0  0  0  0  0  0  0  0
  142.1916   74.9578  220.0669 H   0  0  0  0  0  0  0  0  0  0  0  0
  140.5501   74.5044  219.4955 H   0  0  0  0  0  0  0  0  0  0  0  0
  141.0569   76.2277  219.4955 H   0  0  0  0  0  0  0  0  0  0  0  0
  141.1880   77.7890  221.9340 C   0  0  0  0  0  0  0  0  0  0  0  0
  142.1544   77.4002  221.5806 H   0  0  0  0  0  0  0  0  0  0  0  0
  141.4540   78.2380  223.3950 C   0  0  0  0  0  0  0  0  0  0  0  0
  141.2348   77.3903  224.0608 H   0  0  0  0  0  0  0  0  0  0  0  0
  142.5059   78.5568  223.4390 H   0  0  0  0  0  0  0  0  0  0  0  0
  140.6100   79.4420  223.8540 C   0  0  0  0  0  0  0  0  0  0  0  0
  139.5644   79.2494  223.5719 H   0  0  0  0  0  0  0  0  0  0  0  0
  140.7701   79.5252  224.9391 H   0  0  0  0  0  0  0  0  0  0  0  0
  141.0160   80.8020  223.2640 C   0  0  0  0  0  0  0  0  0  0  0  0
  140.1413   81.2306  222.7529 H   0  0  0  0  0  0  0  0  0  0  0  0
  141.3645   81.4187  224.1056 H   0  0  0  0  0  0  0  0  0  0  0  0
  142.1750   80.7350  222.2590 C   0  0  0  0  0  0  0  0  0  0  0  0
  142.5299   81.7616  222.0855 H   0  0  0  0  0  0  0  0  0  0  0  0
  142.9245   80.0708  222.7142 H   0  0  0  0  0  0  0  0  0  0  0  0
  141.8440   80.1100  220.8840 C   0  0  0  0  0  0  0  0  0  0  0  0
  141.4156   80.8974  220.2464 H   0  0  0  0  0  0  0  0  0  0  0  0
  142.7893   79.6995  220.4995 H   0  0  0  0  0  0  0  0  0  0  0  0
  140.8500   78.9330  220.9210 C   0  0  0  0  0  0  0  0  0  0  0  0
  139.8603   79.3350  221.1835 H   0  0  0  0  0  0  0  0  0  0  0  0
  140.8949   78.4720  219.9233 H   0  0  0  0  0  0  0  0  0  0  0  0
  138.1230   75.8470  222.6910 N   0  0  0  0  0  0  0  0  0  0  0  0
  138.4560   74.8590  222.6740 H   0  0  0  0  0  0  0  0  0  0  0  0
  136.8710   76.0580  223.0980 N   0  0  0  0  0  0  0  0  0  0  0  0
  136.3270   77.2990  223.1250 C   0  0  0  0  0  0  0  0  0  0  0  0
  134.5460   77.5100  223.8000 Br  0  0  0  0  0  0  0  0  0  0  0  0
  135.7300   80.1910  221.6600 C   0  0  0  0  0  0  0  0  0  0  0  0
  135.3280   79.3330  220.6890 F   0  0  0  0  0  0  0  0  0  0  0  0
  135.2890   81.5180  221.6250 C   0  0  0  0  0  0  0  0  0  0  0  0
  134.5964   81.8449  220.8354 H   0  0  0  0  0  0  0  0  0  0  0  0
  1  2  1  0
  2  3  2  0
  3  4  1  0
  3  5  1  0
  5  6  1  0
  5  7  2  0
  7  8  1  0
  8  9  2  0
  9 10  1  0
 10 11  2  0
 11 12  1  0
 12 13  2  0
 12 14  1  0
 14 15  1  0
 14 16  1  0
 14 17  1  0
 11 18  1  0
 18 19  1  0
 18 20  1  0
 20 21  1  0
 20 22  1  0
 20 23  1  0
 23 24  1  0
 23 25  1  0
 23 26  1  0
 26 27  1  0
 26 28  1  0
 26 29  1  0
 29 30  1  0
 29 31  1  0
 29 32  1  0
 32 33  1  0
 32 34  1  0
 32 35  1  0
 35 36  1  0
 35 37  1  0
 10 38  1  0
 38 39  1  0
 38 40  1  0
 40 41  2  0
 41 42  1  0
  7 43  1  0
 43 44  1  0
 43 45  2  0
 45 46  1  0
 45  2  1  0
 41  8  1  0
 35 18  1  0
M  CHG  1  11   1
M  END
>  <UniqueID>  (60) 
6

>  <SMILES>  (60) 
CC(=O)/[N+](=c1/nc(-c2c(F)cccc2F)c(Br)n[nH]1)C1CCCCCC1

>  <Energy>  (60) 
75.59737830364624

>  <Genealogy>  (60) 
CC(=O)[NH+](c1nnc(Br)c(-c2c(F)cccc2F)n1)C1CCCCCC1 (protonated)
CC(=O)[N+](=c1nc(-c2c(F)cccc2F)c(Br)n[nH]1)C1CCCCCC1 (tautomer)
CC(=O)/[N+](=c1/nc(-c2c(F)cccc2F)c(Br)n[nH]1)C1CCCCCC1 (cis-trans isomerization)
CC(=O)/[N+](=c1/nc(-c2c(F)cccc2F)c(Br)n[nH]1)C1CCCCCC1 (3D coordinates assigned)
CC(=O)/[N+](=c1/nc(-c2c(F)cccc2F)c(Br)n[nH]1)C1CCCCCC1 (nonaromatic ring conformer: 75.59737830364624 kcal/mol)

>  <smiles>  (60) 
CC(=O)N(c1nnc(Br)c(-c2c(F)cccc2F)n1)C1CCCCCC1

>  <score_type>  (60) 
oracle

>  <origin>  (60) 
autodockgpu

>  <m_score__min__energy>  (60) 
-4.4000000000000004

>  <m_primary>  (60) 
energy

>  <meeko>  (60) 
{"free_energy": -3.98, "intermolecular_energy": -6.66, "internal_energy": -2.27, "cluster_size": 9, "cluster_id": 3, "rank_in_cluster": 3}

>  <energy>  (60) 
-3.53

>  <cluster_rmsd>  (60) 
0.0

>  <rmsd>  (60) 
272.47

>  <cluster>  (60) 
6

$$$$
VCUSMEIKIQENRV-OLELRBRINA-O
     RDKit          3D

 46 48  0  0  0  0  0  0  0  0999 V2000
  136.3210   84.3803  222.8046 H   0  0  0  0  0  0  0  0  0  0  0  0
  136.5480   83.3040  222.8140 C   0  0  0  0  0  0  0  0  0  0  0  0
  136.5060   82.5710  221.6250 C   0  0  0  0  0  0  0  0  0  0  0  0
  136.2434   83.0708  220.6810 H   0  0  0  0  0  0  0  0  0  0  0  0
  136.7970   81.2040  221.6330 C   0  0  0  0  0  0  0  0  0  0  0  0
  136.7520   80.5090  220.4680 F   0  0  0  0  0  0  0  0  0  0  0  0
  137.1490   80.5630  222.8340 C   0  0  0  0  0  0  0  0  0  0  0  0
  137.4180   79.1120  222.8420 C   0  0  0  0  0  0  0  0  0  0  0  0
  138.6680   78.6800  222.5460 N   0  0  0  0  0  0  0  0  0  0  0  0
  138.9940   77.3590  222.5240 C   0  0  0  0  0  0  0  0  0  0  0  0
  140.2230   76.9860  222.2100 N   0  0  0  0  0  0  0  0  0  0  0  0
  140.4840   75.6830  221.6510 C   0  0  0  0  0  0  0  0  0  0  0  0
  140.2370   74.6470  222.3270 O   0  0  0  0  0  0  0  0  0  0  0  0
  141.1170   75.5470  220.3040 C   0  0  0  0  0  0  0  0  0  0  0  0
  142.1862   75.3173  220.4228 H   0  0  0  0  0  0  0  0  0  0  0  0
  140.6267   74.7337  219.7489 H   0  0  0  0  0  0  0  0  0  0  0  0
  141.0040   76.4899  219.7489 H   0  0  0  0  0  0  0  0  0  0  0  0
  141.4070   77.8550  222.4440 C   0  0  0  0  0  0  0  0  0  0  0  0
  142.2960   77.2326  222.6236 H   0  0  0  0  0  0  0  0  0  0  0  0
  141.2320   78.6800  223.7480 C   0  0  0  0  0  0  0  0  0  0  0  0
  140.2014   79.0636  223.7771 H   0  0  0  0  0  0  0  0  0  0  0  0
  141.4596   78.0009  224.5829 H   0  0  0  0  0  0  0  0  0  0  0  0
  142.1950   79.8750  223.8770 C   0  0  0  0  0  0  0  0  0  0  0  0
  142.1545   80.2315  224.9168 H   0  0  0  0  0  0  0  0  0  0  0  0
  143.1833   79.4990  223.5738 H   0  0  0  0  0  0  0  0  0  0  0  0
  141.8990   81.0690  222.9560 C   0  0  0  0  0  0  0  0  0  0  0  0
  141.7161   81.9523  223.5856 H   0  0  0  0  0  0  0  0  0  0  0  0
  142.7743   81.1843  222.2999 H   0  0  0  0  0  0  0  0  0  0  0  0
  140.6820   80.8740  222.0350 C   0  0  0  0  0  0  0  0  0  0  0  0
  139.8484   80.5069  222.6517 H   0  0  0  0  0  0  0  0  0  0  0  0
  140.5002   81.8548  221.5713 H   0  0  0  0  0  0  0  0  0  0  0  0
  140.8730   79.8870  220.8620 C   0  0  0  0  0  0  0  0  0  0  0  0
  139.8820   79.5087  220.5709 H   0  0  0  0  0  0  0  0  0  0  0  0
  141.3787   80.4533  220.0660 H   0  0  0  0  0  0  0  0  0  0  0  0
  141.7760   78.6750  221.1640 C   0  0  0  0  0  0  0  0  0  0  0  0
  141.7275   77.9944  220.3012 H   0  0  0  0  0  0  0  0  0  0  0  0
  142.7782   79.0878  221.3515 H   0  0  0  0  0  0  0  0  0  0  0  0
  138.0070   76.4490  222.8020 N   0  0  0  0  0  0  0  0  0  0  0  0
  138.1750   75.4200  222.7680 H   0  0  0  0  0  0  0  0  0  0  0  0
  136.7740   76.8510  223.1150 N   0  0  0  0  0  0  0  0  0  0  0  0
  136.4370   78.1640  223.1510 C   0  0  0  0  0  0  0  0  0  0  0  0
  134.6620   78.6440  223.6890 Br  0  0  0  0  0  0  0  0  0  0  0  0
  137.1710   81.3030  224.0300 C   0  0  0  0  0  0  0  0  0  0  0  0
  137.4470   80.6980  225.2140 F   0  0  0  0  0  0  0  0  0  0  0  0
  136.8780   82.6710  224.0140 C   0  0  0  0  0  0  0  0  0  0  0  0
  136.9077   83.2493  224.9492 H   0  0  0  0  0  0  0  0  0  0  0  0
  1  2  1  0
  2  3  2  0
  3  4  1  0
  3  5  1  0
  5  6  1  0
  5  7  2  0
  7  8  1  0
  8  9  2  0
  9 10  1  0
 10 11  2  0
 11 12  1  0
 12 13  2  0
 12 14  1  0
 14 15  1  0
 14 16  1  0
 14 17  1  0
 11 18  1  0
 18 19  1  0
 18 20  1  0
 20 21  1  0
 20 22  1  0
 20 23  1  0
 23 24  1  0
 23 25  1  0
 23 26  1  0
 26 27  1  0
 26 28  1  0
 26 29  1  0
 29 30  1  0
 29 31  1  0
 29 32  1  0
 32 33  1  0
 32 34  1  0
 32 35  1  0
 35 36  1  0
 35 37  1  0
 10 38  1  0
 38 39  1  0
 38 40  1  0
 40 41  2  0
 41 42  1  0
  7 43  1  0
 43 44  1  0
 43 45  2  0
 45 46  1  0
 45  2  1  0
 41  8  1  0
 35 18  1  0
M  CHG  1  11   1
M  END
>  <UniqueID>  (61) 
7

>  <SMILES>  (61) 
CC(=O)/[N+](=c1/nc(-c2c(F)cccc2F)c(Br)n[nH]1)C1CCCCCC1

>  <Energy>  (61) 
75.71102792824183

>  <Genealogy>  (61) 
CC(=O)[NH+](c1nnc(Br)c(-c2c(F)cccc2F)n1)C1CCCCCC1 (protonated)
CC(=O)[N+](=c1nc(-c2c(F)cccc2F)c(Br)n[nH]1)C1CCCCCC1 (tautomer)
CC(=O)/[N+](=c1/nc(-c2c(F)cccc2F)c(Br)n[nH]1)C1CCCCCC1 (cis-trans isomerization)
CC(=O)/[N+](=c1/nc(-c2c(F)cccc2F)c(Br)n[nH]1)C1CCCCCC1 (3D coordinates assigned)
CC(=O)/[N+](=c1/nc(-c2c(F)cccc2F)c(Br)n[nH]1)C1CCCCCC1 (nonaromatic ring conformer: 75.71102792824183 kcal/mol)

>  <smiles>  (61) 
CC(=O)N(c1nnc(Br)c(-c2c(F)cccc2F)n1)C1CCCCCC1

>  <score_type>  (61) 
oracle

>  <origin>  (61) 
autodockgpu

>  <m_score__min__energy>  (61) 
-4.4000000000000004

>  <m_primary>  (61) 
energy

>  <meeko>  (61) 
{"free_energy": -3.88, "intermolecular_energy": -6.57, "internal_energy": -2.34, "cluster_size": 9, "cluster_id": 3, "rank_in_cluster": 5}

>  <energy>  (61) 
-4.4

>  <cluster_rmsd>  (61) 
0.0

>  <rmsd>  (61) 
272.42

>  <cluster>  (61) 
1

$$$$
VCUSMEIKIQENRV-OLELRBRINA-O
     RDKit          3D

 46 48  0  0  0  0  0  0  0  0999 V2000
  137.9289   71.2442  221.4013 H   0  0  0  0  0  0  0  0  0  0  0  0
  138.7190   71.9760  221.1770 C   0  0  0  0  0  0  0  0  0  0  0  0
  138.8440   73.1300  221.9550 C   0  0  0  0  0  0  0  0  0  0  0  0
  138.1487   73.3079  222.7886 H   0  0  0  0  0  0  0  0  0  0  0  0
  139.8510   74.0590  221.6760 C   0  0  0  0  0  0  0  0  0  0  0  0
  139.9570   75.1730  222.4450 F   0  0  0  0  0  0  0  0  0  0  0  0
  140.7500   73.8310  220.6200 C   0  0  0  0  0  0  0  0  0  0  0  0
  141.7860   74.8340  220.3070 C   0  0  0  0  0  0  0  0  0  0  0  0
  141.4120   76.1250  220.1380 N   0  0  0  0  0  0  0  0  0  0  0  0
  142.3050   77.1070  219.8390 C   0  0  0  0  0  0  0  0  0  0  0  0
  141.8890   78.3500  219.6640 N   0  0  0  0  0  0  0  0  0  0  0  0
  142.0680   79.0240  218.4020 C   0  0  0  0  0  0  0  0  0  0  0  0
  143.2310   79.2490  217.9690 O   0  0  0  0  0  0  0  0  0  0  0  0
  140.8870   79.5280  217.6360 C   0  0  0  0  0  0  0  0  0  0  0  0
  140.1087   79.8601  218.3388 H   0  0  0  0  0  0  0  0  0  0  0  0
  141.1942   80.3734  217.0028 H   0  0  0  0  0  0  0  0  0  0  0  0
  140.4892   78.7213  217.0028 H   0  0  0  0  0  0  0  0  0  0  0  0
  141.2520   79.1400  220.7520 C   0  0  0  0  0  0  0  0  0  0  0  0
  140.1862   79.2931  220.5268 H   0  0  0  0  0  0  0  0  0  0  0  0
  141.8520   80.5700  220.8130 C   0  0  0  0  0  0  0  0  0  0  0  0
  142.8838   80.4948  221.1868 H   0  0  0  0  0  0  0  0  0  0  0  0
  141.7948   80.9789  219.7934 H   0  0  0  0  0  0  0  0  0  0  0  0
  141.0790   81.5450  221.7230 C   0  0  0  0  0  0  0  0  0  0  0  0
  141.7007   82.4415  221.8637 H   0  0  0  0  0  0  0  0  0  0  0  0
  140.1248   81.7409  221.2120 H   0  0  0  0  0  0  0  0  0  0  0  0
  140.7080   81.0040  223.1130 C   0  0  0  0  0  0  0  0  0  0  0  0
  140.4338   81.8566  223.7517 H   0  0  0  0  0  0  0  0  0  0  0  0
  139.8798   80.2958  222.9626 H   0  0  0  0  0  0  0  0  0  0  0  0
  141.8320   80.2210  223.8130 C   0  0  0  0  0  0  0  0  0  0  0  0
  142.7332   80.8518  223.8093 H   0  0  0  0  0  0  0  0  0  0  0  0
  141.4473   79.9873  224.8167 H   0  0  0  0  0  0  0  0  0  0  0  0
  142.2070   78.8590  223.1860 C   0  0  0  0  0  0  0  0  0  0  0  0
  143.2050   78.9557  222.7336 H   0  0  0  0  0  0  0  0  0  0  0  0
  142.1649   78.1243  224.0036 H   0  0  0  0  0  0  0  0  0  0  0  0
  141.2390   78.3480  222.1010 C   0  0  0  0  0  0  0  0  0  0  0  0
  141.4995   77.3021  221.8813 H   0  0  0  0  0  0  0  0  0  0  0  0
  140.2285   78.4787  222.5154 H   0  0  0  0  0  0  0  0  0  0  0  0
  143.6230   76.7560  219.6960 N   0  0  0  0  0  0  0  0  0  0  0  0
  144.3560   77.4490  219.4330 H   0  0  0  0  0  0  0  0  0  0  0  0
  144.0180   75.4940  219.8770 N   0  0  0  0  0  0  0  0  0  0  0  0
  143.1410   74.5080  220.1850 C   0  0  0  0  0  0  0  0  0  0  0  0
  143.8160   72.7430  220.5030 Br  0  0  0  0  0  0  0  0  0  0  0  0
  140.6070   72.6770  219.8290 C   0  0  0  0  0  0  0  0  0  0  0  0
  141.4220   72.4600  218.7650 F   0  0  0  0  0  0  0  0  0  0  0  0
  139.5970   71.7520  220.1150 C   0  0  0  0  0  0  0  0  0  0  0  0
  139.4944   70.8451  219.5010 H   0  0  0  0  0  0  0  0  0  0  0  0
  1  2  1  0
  2  3  2  0
  3  4  1  0
  3  5  1  0
  5  6  1  0
  5  7  2  0
  7  8  1  0
  8  9  2  0
  9 10  1  0
 10 11  2  0
 11 12  1  0
 12 13  2  0
 12 14  1  0
 14 15  1  0
 14 16  1  0
 14 17  1  0
 11 18  1  0
 18 19  1  0
 18 20  1  0
 20 21  1  0
 20 22  1  0
 20 23  1  0
 23 24  1  0
 23 25  1  0
 23 26  1  0
 26 27  1  0
 26 28  1  0
 26 29  1  0
 29 30  1  0
 29 31  1  0
 29 32  1  0
 32 33  1  0
 32 34  1  0
 32 35  1  0
 35 36  1  0
 35 37  1  0
 10 38  1  0
 38 39  1  0
 38 40  1  0
 40 41  2  0
 41 42  1  0
  7 43  1  0
 43 44  1  0
 43 45  2  0
 45 46  1  0
 45  2  1  0
 41  8  1  0
 35 18  1  0
M  CHG  1  11   1
M  END
>  <UniqueID>  (62) 
7

>  <SMILES>  (62) 
CC(=O)/[N+](=c1/nc(-c2c(F)cccc2F)c(Br)n[nH]1)C1CCCCCC1

>  <Energy>  (62) 
75.71102792824183

>  <Genealogy>  (62) 
CC(=O)[NH+](c1nnc(Br)c(-c2c(F)cccc2F)n1)C1CCCCCC1 (protonated)
CC(=O)[N+](=c1nc(-c2c(F)cccc2F)c(Br)n[nH]1)C1CCCCCC1 (tautomer)
CC(=O)/[N+](=c1/nc(-c2c(F)cccc2F)c(Br)n[nH]1)C1CCCCCC1 (cis-trans isomerization)
CC(=O)/[N+](=c1/nc(-c2c(F)cccc2F)c(Br)n[nH]1)C1CCCCCC1 (3D coordinates assigned)
CC(=O)/[N+](=c1/nc(-c2c(F)cccc2F)c(Br)n[nH]1)C1CCCCCC1 (nonaromatic ring conformer: 75.71102792824183 kcal/mol)

>  <smiles>  (62) 
CC(=O)N(c1nnc(Br)c(-c2c(F)cccc2F)n1)C1CCCCCC1

>  <score_type>  (62) 
oracle

>  <origin>  (62) 
autodockgpu

>  <m_score__min__energy>  (62) 
-4.4000000000000004

>  <m_primary>  (62) 
energy

>  <meeko>  (62) 
{"free_energy": -4.4, "intermolecular_energy": -7.09, "internal_energy": -1.45, "cluster_size": 1, "cluster_id": 1, "rank_in_cluster": 1}

>  <energy>  (62) 
-4.37

>  <cluster_rmsd>  (62) 
0.0

>  <rmsd>  (62) 
272.47

>  <cluster>  (62) 
2

$$$$
VCUSMEIKIQENRV-OLELRBRINA-O
     RDKit          3D

 46 48  0  0  0  0  0  0  0  0999 V2000
  135.4933   83.4924  222.4938 H   0  0  0  0  0  0  0  0  0  0  0  0
  135.8360   82.4480  222.5350 C   0  0  0  0  0  0  0  0  0  0  0  0
  136.6800   82.0310  223.5670 C   0  0  0  0  0  0  0  0  0  0  0  0
  137.0045   82.7489  224.3347 H   0  0  0  0  0  0  0  0  0  0  0  0
  137.1130   80.7030  223.6260 C   0  0  0  0  0  0  0  0  0  0  0  0
  137.9310   80.3150  224.6370 F   0  0  0  0  0  0  0  0  0  0  0  0
  136.6900   79.7780  222.6550 C   0  0  0  0  0  0  0  0  0  0  0  0
  137.1810   78.3870  222.7000 C   0  0  0  0  0  0  0  0  0  0  0  0
  138.4520   78.1320  222.3050 N   0  0  0  0  0  0  0  0  0  0  0  0
  138.9760   76.8770  222.3090 C   0  0  0  0  0  0  0  0  0  0  0  0
  140.2160   76.6750  221.8960 N   0  0  0  0  0  0  0  0  0  0  0  0
  140.6420   75.3800  221.4260 C   0  0  0  0  0  0  0  0  0  0  0  0
  140.6400   74.3930  222.2130 O   0  0  0  0  0  0  0  0  0  0  0  0
  141.1580   75.2090  220.0340 C   0  0  0  0  0  0  0  0  0  0  0  0
  142.2016   74.8632  220.0697 H   0  0  0  0  0  0  0  0  0  0  0  0
  140.5436   74.4664  219.5038 H   0  0  0  0  0  0  0  0  0  0  0  0
  141.1086   76.1715  219.5038 H   0  0  0  0  0  0  0  0  0  0  0  0
  141.2510   77.7430  221.9210 C   0  0  0  0  0  0  0  0  0  0  0  0
  142.2124   77.3377  221.5726 H   0  0  0  0  0  0  0  0  0  0  0  0
  141.5210   78.2090  223.3770 C   0  0  0  0  0  0  0  0  0  0  0  0
  141.3651   77.3509  224.0474 H   0  0  0  0  0  0  0  0  0  0  0  0
  142.5533   78.5883  223.3990 H   0  0  0  0  0  0  0  0  0  0  0  0
  140.6190   79.3620  223.8530 C   0  0  0  0  0  0  0  0  0  0  0  0
  139.5767   79.0905  223.6295 H   0  0  0  0  0  0  0  0  0  0  0  0
  140.8273   79.4830  224.9263 H   0  0  0  0  0  0  0  0  0  0  0  0
  140.8980   80.7320  223.2140 C   0  0  0  0  0  0  0  0  0  0  0  0
  140.0063   81.0344  222.6453 H   0  0  0  0  0  0  0  0  0  0  0  0
  141.1347   81.4206  224.0385 H   0  0  0  0  0  0  0  0  0  0  0  0
  142.1040   80.7550  222.2640 C   0  0  0  0  0  0  0  0  0  0  0  0
  142.3695   81.8069  222.0822 H   0  0  0  0  0  0  0  0  0  0  0  0
  142.8901   80.1736  222.7679 H   0  0  0  0  0  0  0  0  0  0  0  0
  141.8970   80.0750  220.8910 C   0  0  0  0  0  0  0  0  0  0  0  0
  141.5045   80.8293  220.1932 H   0  0  0  0  0  0  0  0  0  0  0  0
  142.8783   79.6740  220.5973 H   0  0  0  0  0  0  0  0  0  0  0  0
  140.9280   78.8770  220.8930 C   0  0  0  0  0  0  0  0  0  0  0  0
  139.9205   79.2580  221.1160 H   0  0  0  0  0  0  0  0  0  0  0  0
  141.0212   78.4152  219.8990 H   0  0  0  0  0  0  0  0  0  0  0  0
  138.1710   75.8450  222.7210 N   0  0  0  0  0  0  0  0  0  0  0  0
  138.4940   74.8540  222.7170 H   0  0  0  0  0  0  0  0  0  0  0  0
  136.9230   76.0750  223.1340 N   0  0  0  0  0  0  0  0  0  0  0  0
  136.3910   77.3210  223.1440 C   0  0  0  0  0  0  0  0  0  0  0  0
  134.6180   77.5600  223.8290 Br  0  0  0  0  0  0  0  0  0  0  0  0
  135.8560   80.2100  221.6070 C   0  0  0  0  0  0  0  0  0  0  0  0
  135.4820   79.3540  220.6220 F   0  0  0  0  0  0  0  0  0  0  0  0
  135.4270   81.5410  221.5560 C   0  0  0  0  0  0  0  0  0  0  0  0
  134.7657   81.8734  220.7422 H   0  0  0  0  0  0  0  0  0  0  0  0
  1  2  1  0
  2  3  2  0
  3  4  1  0
  3  5  1  0
  5  6  1  0
  5  7  2  0
  7  8  1  0
  8  9  2  0
  9 10  1  0
 10 11  2  0
 11 12  1  0
 12 13  2  0
 12 14  1  0
 14 15  1  0
 14 16  1  0
 14 17  1  0
 11 18  1  0
 18 19  1  0
 18 20  1  0
 20 21  1  0
 20 22  1  0
 20 23  1  0
 23 24  1  0
 23 25  1  0
 23 26  1  0
 26 27  1  0
 26 28  1  0
 26 29  1  0
 29 30  1  0
 29 31  1  0
 29 32  1  0
 32 33  1  0
 32 34  1  0
 32 35  1  0
 35 36  1  0
 35 37  1  0
 10 38  1  0
 38 39  1  0
 38 40  1  0
 40 41  2  0
 41 42  1  0
  7 43  1  0
 43 44  1  0
 43 45  2  0
 45 46  1  0
 45  2  1  0
 41  8  1  0
 35 18  1  0
M  CHG  1  11   1
M  END
>  <UniqueID>  (63) 
7

>  <SMILES>  (63) 
CC(=O)/[N+](=c1/nc(-c2c(F)cccc2F)c(Br)n[nH]1)C1CCCCCC1

>  <Energy>  (63) 
75.71102792824183

>  <Genealogy>  (63) 
CC(=O)[NH+](c1nnc(Br)c(-c2c(F)cccc2F)n1)C1CCCCCC1 (protonated)
CC(=O)[N+](=c1nc(-c2c(F)cccc2F)c(Br)n[nH]1)C1CCCCCC1 (tautomer)
CC(=O)/[N+](=c1/nc(-c2c(F)cccc2F)c(Br)n[nH]1)C1CCCCCC1 (cis-trans isomerization)
CC(=O)/[N+](=c1/nc(-c2c(F)cccc2F)c(Br)n[nH]1)C1CCCCCC1 (3D coordinates assigned)
CC(=O)/[N+](=c1/nc(-c2c(F)cccc2F)c(Br)n[nH]1)C1CCCCCC1 (nonaromatic ring conformer: 75.71102792824183 kcal/mol)

>  <smiles>  (63) 
CC(=O)N(c1nnc(Br)c(-c2c(F)cccc2F)n1)C1CCCCCC1

>  <score_type>  (63) 
oracle

>  <origin>  (63) 
autodockgpu

>  <m_score__min__energy>  (63) 
-4.4000000000000004

>  <m_primary>  (63) 
energy

>  <meeko>  (63) 
{"free_energy": -4.08, "intermolecular_energy": -6.76, "internal_energy": -2.29, "cluster_size": 9, "cluster_id": 3, "rank_in_cluster": 1}

>  <energy>  (63) 
-4.3

>  <cluster_rmsd>  (63) 
1.23

>  <rmsd>  (63) 
272.32

>  <cluster>  (63) 
2

$$$$
VCUSMEIKIQENRV-OLELRBRINA-O
     RDKit          3D

 46 48  0  0  0  0  0  0  0  0999 V2000
  138.7592   84.7427  220.7081 H   0  0  0  0  0  0  0  0  0  0  0  0
  139.1400   83.7480  220.9830 C   0  0  0  0  0  0  0  0  0  0  0  0
  140.2620   83.2260  220.3340 C   0  0  0  0  0  0  0  0  0  0  0  0
  140.7609   83.8092  219.5460 H   0  0  0  0  0  0  0  0  0  0  0  0
  140.7520   81.9640  220.6840 C   0  0  0  0  0  0  0  0  0  0  0  0
  141.8430   81.4750  220.0430 F   0  0  0  0  0  0  0  0  0  0  0  0
  140.1260   81.2200  221.7000 C   0  0  0  0  0  0  0  0  0  0  0  0
  140.6230   79.8730  222.0380 C   0  0  0  0  0  0  0  0  0  0  0  0
  140.1130   78.8060  221.3770 N   0  0  0  0  0  0  0  0  0  0  0  0
  140.5130   77.5320  221.6370 C   0  0  0  0  0  0  0  0  0  0  0  0
  139.9720   76.5200  220.9790 N   0  0  0  0  0  0  0  0  0  0  0  0
  139.5240   75.3370  221.6710 C   0  0  0  0  0  0  0  0  0  0  0  0
  140.3560   74.6170  222.2890 O   0  0  0  0  0  0  0  0  0  0  0  0
  138.0930   74.9120  221.6010 C   0  0  0  0  0  0  0  0  0  0  0  0
  137.6953   74.7939  222.6198 H   0  0  0  0  0  0  0  0  0  0  0  0
  137.5095   75.6756  221.0658 H   0  0  0  0  0  0  0  0  0  0  0  0
  138.0209   73.9537  221.0658 H   0  0  0  0  0  0  0  0  0  0  0  0
  139.8230   76.5170  219.4990 C   0  0  0  0  0  0  0  0  0  0  0  0
  138.7561   76.4917  219.2324 H   0  0  0  0  0  0  0  0  0  0  0  0
  140.4150   75.2160  218.8920 C   0  0  0  0  0  0  0  0  0  0  0  0
  139.6796   74.4088  219.0244 H   0  0  0  0  0  0  0  0  0  0  0  0
  140.6289   75.4315  217.8347 H   0  0  0  0  0  0  0  0  0  0  0  0
  141.7440   74.7660  219.5270 C   0  0  0  0  0  0  0  0  0  0  0  0
  141.6103   74.7536  220.6188 H   0  0  0  0  0  0  0  0  0  0  0  0
  141.9650   73.7790  219.0947 H   0  0  0  0  0  0  0  0  0  0  0  0
  142.9630   75.6460  219.2100 C   0  0  0  0  0  0  0  0  0  0  0  0
  143.8103   75.2898  219.8143 H   0  0  0  0  0  0  0  0  0  0  0  0
  143.1393   75.5580  218.1278 H   0  0  0  0  0  0  0  0  0  0  0  0
  142.7620   77.1430  219.5000 C   0  0  0  0  0  0  0  0  0  0  0  0
  142.3343   77.2370  220.5091 H   0  0  0  0  0  0  0  0  0  0  0  0
  143.7543   77.6047  219.3902 H   0  0  0  0  0  0  0  0  0  0  0  0
  141.8360   77.8990  218.5200 C   0  0  0  0  0  0  0  0  0  0  0  0
  142.1500   78.9530  218.4994 H   0  0  0  0  0  0  0  0  0  0  0  0
  141.9384   77.3914  217.5495 H   0  0  0  0  0  0  0  0  0  0  0  0
  140.3360   77.8550  218.8700 C   0  0  0  0  0  0  0  0  0  0  0  0
  140.1326   78.6646  219.5863 H   0  0  0  0  0  0  0  0  0  0  0  0
  139.8026   77.9597  217.9137 H   0  0  0  0  0  0  0  0  0  0  0  0
  141.4580   77.3410  222.6120 N   0  0  0  0  0  0  0  0  0  0  0  0
  141.7860   76.3900  222.8880 H   0  0  0  0  0  0  0  0  0  0  0  0
  141.9900   78.3770  223.2620 N   0  0  0  0  0  0  0  0  0  0  0  0
  141.6080   79.6530  223.0070 C   0  0  0  0  0  0  0  0  0  0  0  0
  142.4860   81.0800  223.9370 Br  0  0  0  0  0  0  0  0  0  0  0  0
  138.9850   81.7440  222.3360 C   0  0  0  0  0  0  0  0  0  0  0  0
  138.3240   81.0230  223.2770 F   0  0  0  0  0  0  0  0  0  0  0  0
  138.5020   83.0080  221.9800 C   0  0  0  0  0  0  0  0  0  0  0  0
  137.6170   83.4198  222.4872 H   0  0  0  0  0  0  0  0  0  0  0  0
  1  2  1  0
  2  3  2  0
  3  4  1  0
  3  5  1  0
  5  6  1  0
  5  7  2  0
  7  8  1  0
  8  9  2  0
  9 10  1  0
 10 11  2  0
 11 12  1  0
 12 13  2  0
 12 14  1  0
 14 15  1  0
 14 16  1  0
 14 17  1  0
 11 18  1  0
 18 19  1  0
 18 20  1  0
 20 21  1  0
 20 22  1  0
 20 23  1  0
 23 24  1  0
 23 25  1  0
 23 26  1  0
 26 27  1  0
 26 28  1  0
 26 29  1  0
 29 30  1  0
 29 31  1  0
 29 32  1  0
 32 33  1  0
 32 34  1  0
 32 35  1  0
 35 36  1  0
 35 37  1  0
 10 38  1  0
 38 39  1  0
 38 40  1  0
 40 41  2  0
 41 42  1  0
  7 43  1  0
 43 44  1  0
 43 45  2  0
 45 46  1  0
 45  2  1  0
 41  8  1  0
 35 18  1  0
M  CHG  1  11   1
M  END
>  <UniqueID>  (64) 
7

>  <SMILES>  (64) 
CC(=O)/[N+](=c1/nc(-c2c(F)cccc2F)c(Br)n[nH]1)C1CCCCCC1

>  <Energy>  (64) 
75.71102792824183

>  <Genealogy>  (64) 
CC(=O)[NH+](c1nnc(Br)c(-c2c(F)cccc2F)n1)C1CCCCCC1 (protonated)
CC(=O)[N+](=c1nc(-c2c(F)cccc2F)c(Br)n[nH]1)C1CCCCCC1 (tautomer)
CC(=O)/[N+](=c1/nc(-c2c(F)cccc2F)c(Br)n[nH]1)C1CCCCCC1 (cis-trans isomerization)
CC(=O)/[N+](=c1/nc(-c2c(F)cccc2F)c(Br)n[nH]1)C1CCCCCC1 (3D coordinates assigned)
CC(=O)/[N+](=c1/nc(-c2c(F)cccc2F)c(Br)n[nH]1)C1CCCCCC1 (nonaromatic ring conformer: 75.71102792824183 kcal/mol)

>  <smiles>  (64) 
CC(=O)N(c1nnc(Br)c(-c2c(F)cccc2F)n1)C1CCCCCC1

>  <score_type>  (64) 
oracle

>  <origin>  (64) 
autodockgpu

>  <m_score__min__energy>  (64) 
-4.4000000000000004

>  <m_primary>  (64) 
energy

>  <meeko>  (64) 
{"free_energy": -3.71, "intermolecular_energy": -6.39, "internal_energy": -1.93, "cluster_size": 2, "cluster_id": 4, "rank_in_cluster": 2}

>  <energy>  (64) 
-4.24

>  <cluster_rmsd>  (64) 
0.45

>  <rmsd>  (64) 
272.39

>  <cluster>  (64) 
2

$$$$
VCUSMEIKIQENRV-OLELRBRINA-O
     RDKit          3D

 46 48  0  0  0  0  0  0  0  0999 V2000
  135.2236   83.4046  222.4529 H   0  0  0  0  0  0  0  0  0  0  0  0
  135.6190   82.3790  222.4950 C   0  0  0  0  0  0  0  0  0  0  0  0
  135.2550   81.4490  221.5180 C   0  0  0  0  0  0  0  0  0  0  0  0
  134.5693   81.7427  220.7096 H   0  0  0  0  0  0  0  0  0  0  0  0
  135.7600   80.1460  221.5650 C   0  0  0  0  0  0  0  0  0  0  0  0
  135.3950   79.2580  220.6050 F   0  0  0  0  0  0  0  0  0  0  0  0
  136.6480   79.7690  222.5880 C   0  0  0  0  0  0  0  0  0  0  0  0
  137.1470   78.3820  222.6540 C   0  0  0  0  0  0  0  0  0  0  0  0
  138.4220   78.1300  222.2700 N   0  0  0  0  0  0  0  0  0  0  0  0
  138.9530   76.8780  222.2930 C   0  0  0  0  0  0  0  0  0  0  0  0
  140.1960   76.6780  221.8890 N   0  0  0  0  0  0  0  0  0  0  0  0
  140.6280   75.3840  221.4220 C   0  0  0  0  0  0  0  0  0  0  0  0
  140.6210   74.3970  222.2070 O   0  0  0  0  0  0  0  0  0  0  0  0
  141.1560   75.2160  220.0340 C   0  0  0  0  0  0  0  0  0  0  0  0
  142.2034   74.8827  220.0780 H   0  0  0  0  0  0  0  0  0  0  0  0
  140.5543   74.4649  219.5012 H   0  0  0  0  0  0  0  0  0  0  0  0
  141.0989   76.1767  219.5012 H   0  0  0  0  0  0  0  0  0  0  0  0
  141.2300   77.7470  221.9250 C   0  0  0  0  0  0  0  0  0  0  0  0
  142.1986   77.3391  221.6003 H   0  0  0  0  0  0  0  0  0  0  0  0
  141.4710   78.2270  223.3810 C   0  0  0  0  0  0  0  0  0  0  0  0
  141.3731   77.3593  224.0500 H   0  0  0  0  0  0  0  0  0  0  0  0
  142.4761   78.6735  223.4021 H   0  0  0  0  0  0  0  0  0  0  0  0
  140.4950   79.3180  223.8610 C   0  0  0  0  0  0  0  0  0  0  0  0
  139.4710   78.9584  223.6820 H   0  0  0  0  0  0  0  0  0  0  0  0
  140.7290   79.4846  224.9228 H   0  0  0  0  0  0  0  0  0  0  0  0
  140.6410   80.6870  223.1790 C   0  0  0  0  0  0  0  0  0  0  0  0
  139.7561   80.8521  222.5468 H   0  0  0  0  0  0  0  0  0  0  0  0
  140.7382   81.4294  223.9849 H   0  0  0  0  0  0  0  0  0  0  0  0
  141.8920   80.8300  222.3000 C   0  0  0  0  0  0  0  0  0  0  0  0
  142.0470   81.9017  222.1067 H   0  0  0  0  0  0  0  0  0  0  0  0
  142.7070   80.3522  222.8635 H   0  0  0  0  0  0  0  0  0  0  0  0
  141.8470   80.1050  220.9360 C   0  0  0  0  0  0  0  0  0  0  0  0
  141.4993   80.8240  220.1796 H   0  0  0  0  0  0  0  0  0  0  0  0
  142.8663   79.7341  220.7532 H   0  0  0  0  0  0  0  0  0  0  0  0
  140.9260   78.8710  220.8800 C   0  0  0  0  0  0  0  0  0  0  0  0
  139.8932   79.2129  221.0428 H   0  0  0  0  0  0  0  0  0  0  0  0
  141.0960   78.4156  219.8932 H   0  0  0  0  0  0  0  0  0  0  0  0
  138.1510   75.8470  222.7120 N   0  0  0  0  0  0  0  0  0  0  0  0
  138.4800   74.8570  222.7230 H   0  0  0  0  0  0  0  0  0  0  0  0
  136.9000   76.0740  223.1150 N   0  0  0  0  0  0  0  0  0  0  0  0
  136.3600   77.3170  223.1060 C   0  0  0  0  0  0  0  0  0  0  0  0
  134.5810   77.5530  223.7770 Br  0  0  0  0  0  0  0  0  0  0  0  0
  136.9950   80.7050  223.5800 C   0  0  0  0  0  0  0  0  0  0  0  0
  137.8010   80.3510  224.6130 F   0  0  0  0  0  0  0  0  0  0  0  0
  136.4850   82.0060  223.5250 C   0  0  0  0  0  0  0  0  0  0  0  0
  136.7671   82.7382  224.2959 H   0  0  0  0  0  0  0  0  0  0  0  0
  1  2  1  0
  2  3  2  0
  3  4  1  0
  3  5  1  0
  5  6  1  0
  5  7  2  0
  7  8  1  0
  8  9  2  0
  9 10  1  0
 10 11  2  0
 11 12  1  0
 12 13  2  0
 12 14  1  0
 14 15  1  0
 14 16  1  0
 14 17  1  0
 11 18  1  0
 18 19  1  0
 18 20  1  0
 20 21  1  0
 20 22  1  0
 20 23  1  0
 23 24  1  0
 23 25  1  0
 23 26  1  0
 26 27  1  0
 26 28  1  0
 26 29  1  0
 29 30  1  0
 29 31  1  0
 29 32  1  0
 32 33  1  0
 32 34  1  0
 32 35  1  0
 35 36  1  0
 35 37  1  0
 10 38  1  0
 38 39  1  0
 38 40  1  0
 40 41  2  0
 41 42  1  0
  7 43  1  0
 43 44  1  0
 43 45  2  0
 45 46  1  0
 45  2  1  0
 41  8  1  0
 35 18  1  0
M  CHG  1  11   1
M  END
>  <UniqueID>  (65) 
7

>  <SMILES>  (65) 
CC(=O)/[N+](=c1/nc(-c2c(F)cccc2F)c(Br)n[nH]1)C1CCCCCC1

>  <Energy>  (65) 
75.71102792824183

>  <Genealogy>  (65) 
CC(=O)[NH+](c1nnc(Br)c(-c2c(F)cccc2F)n1)C1CCCCCC1 (protonated)
CC(=O)[N+](=c1nc(-c2c(F)cccc2F)c(Br)n[nH]1)C1CCCCCC1 (tautomer)
CC(=O)/[N+](=c1/nc(-c2c(F)cccc2F)c(Br)n[nH]1)C1CCCCCC1 (cis-trans isomerization)
CC(=O)/[N+](=c1/nc(-c2c(F)cccc2F)c(Br)n[nH]1)C1CCCCCC1 (3D coordinates assigned)
CC(=O)/[N+](=c1/nc(-c2c(F)cccc2F)c(Br)n[nH]1)C1CCCCCC1 (nonaromatic ring conformer: 75.71102792824183 kcal/mol)

>  <smiles>  (65) 
CC(=O)N(c1nnc(Br)c(-c2c(F)cccc2F)n1)C1CCCCCC1

>  <score_type>  (65) 
oracle

>  <origin>  (65) 
autodockgpu

>  <m_score__min__energy>  (65) 
-4.4000000000000004

>  <m_primary>  (65) 
energy

>  <meeko>  (65) 
{"free_energy": -4.03, "intermolecular_energy": -6.72, "internal_energy": -2.27, "cluster_size": 9, "cluster_id": 3, "rank_in_cluster": 2}

>  <energy>  (65) 
-4.2

>  <cluster_rmsd>  (65) 
0.48

>  <rmsd>  (65) 
272.36

>  <cluster>  (65) 
2

$$$$
VCUSMEIKIQENRV-OLELRBRINA-O
     RDKit          3D

 46 48  0  0  0  0  0  0  0  0999 V2000
  135.7728   83.9265  222.5401 H   0  0  0  0  0  0  0  0  0  0  0  0
  136.1070   82.8790  222.5730 C   0  0  0  0  0  0  0  0  0  0  0  0
  135.8910   82.0420  221.4750 C   0  0  0  0  0  0  0  0  0  0  0  0
  135.3820   82.4308  220.5807 H   0  0  0  0  0  0  0  0  0  0  0  0
  136.3200   80.7120  221.5100 C   0  0  0  0  0  0  0  0  0  0  0  0
  136.1030   79.9150  220.4330 F   0  0  0  0  0  0  0  0  0  0  0  0
  136.9830   80.2140  222.6460 C   0  0  0  0  0  0  0  0  0  0  0  0
  137.3980   78.7990  222.6930 C   0  0  0  0  0  0  0  0  0  0  0  0
  138.6660   78.4800  222.3330 N   0  0  0  0  0  0  0  0  0  0  0  0
  139.1220   77.1980  222.3410 C   0  0  0  0  0  0  0  0  0  0  0  0
  140.3610   76.9350  221.9630 N   0  0  0  0  0  0  0  0  0  0  0  0
  140.7370   75.6180  221.5110 C   0  0  0  0  0  0  0  0  0  0  0  0
  140.6660   74.6370  222.3020 O   0  0  0  0  0  0  0  0  0  0  0  0
  141.2830   75.4140  220.1340 C   0  0  0  0  0  0  0  0  0  0  0  0
  142.3115   75.0297  220.2006 H   0  0  0  0  0  0  0  0  0  0  0  0
  140.6552   74.6898  219.5942 H   0  0  0  0  0  0  0  0  0  0  0  0
  141.2839   76.3724  219.5942 H   0  0  0  0  0  0  0  0  0  0  0  0
  141.4460   77.9510  222.0120 C   0  0  0  0  0  0  0  0  0  0  0  0
  142.3801   77.5169  221.6259 H   0  0  0  0  0  0  0  0  0  0  0  0
  141.7670   78.3390  223.4800 C   0  0  0  0  0  0  0  0  0  0  0  0
  141.8038   77.4174  224.0794 H   0  0  0  0  0  0  0  0  0  0  0  0
  142.7268   78.8760  223.4603 H   0  0  0  0  0  0  0  0  0  0  0  0
  140.7430   79.2920  224.1240 C   0  0  0  0  0  0  0  0  0  0  0  0
  139.7651   78.7884  224.1230 H   0  0  0  0  0  0  0  0  0  0  0  0
  141.1293   79.5127  225.1300 H   0  0  0  0  0  0  0  0  0  0  0  0
  140.5740   80.6540  223.4310 C   0  0  0  0  0  0  0  0  0  0  0  0
  139.7150   80.5875  222.7472 H   0  0  0  0  0  0  0  0  0  0  0  0
  140.4306   81.3964  224.2300 H   0  0  0  0  0  0  0  0  0  0  0  0
  141.7990   81.1130  222.6210 C   0  0  0  0  0  0  0  0  0  0  0  0
  141.6927   82.1910  222.4299 H   0  0  0  0  0  0  0  0  0  0  0  0
  142.6760   80.8513  223.2312 H   0  0  0  0  0  0  0  0  0  0  0  0
  142.0080   80.4090  221.2620 C   0  0  0  0  0  0  0  0  0  0  0  0
  141.7639   81.1273  220.4655 H   0  0  0  0  0  0  0  0  0  0  0  0
  143.0567   80.0773  221.2479 H   0  0  0  0  0  0  0  0  0  0  0  0
  141.1560   79.1440  221.0410 C   0  0  0  0  0  0  0  0  0  0  0  0
  140.0987   79.4244  221.1568 H   0  0  0  0  0  0  0  0  0  0  0  0
  141.4142   78.7810  220.0352 H   0  0  0  0  0  0  0  0  0  0  0  0
  138.2520   76.2080  222.7180 N   0  0  0  0  0  0  0  0  0  0  0  0
  138.5220   75.2010  222.7140 H   0  0  0  0  0  0  0  0  0  0  0  0
  137.0060   76.5000  223.0950 N   0  0  0  0  0  0  0  0  0  0  0  0
  136.5400   77.7720  223.1020 C   0  0  0  0  0  0  0  0  0  0  0  0
  134.7610   78.0990  223.7360 Br  0  0  0  0  0  0  0  0  0  0  0  0
  137.1790   81.0560  223.7560 C   0  0  0  0  0  0  0  0  0  0  0  0
  137.7610   80.5850  224.8880 F   0  0  0  0  0  0  0  0  0  0  0  0
  136.7470   82.3860  223.7120 C   0  0  0  0  0  0  0  0  0  0  0  0
  136.9119   83.0452  224.5770 H   0  0  0  0  0  0  0  0  0  0  0  0
  1  2  1  0
  2  3  2  0
  3  4  1  0
  3  5  1  0
  5  6  1  0
  5  7  2  0
  7  8  1  0
  8  9  2  0
  9 10  1  0
 10 11  2  0
 11 12  1  0
 12 13  2  0
 12 14  1  0
 14 15  1  0
 14 16  1  0
 14 17  1  0
 11 18  1  0
 18 19  1  0
 18 20  1  0
 20 21  1  0
 20 22  1  0
 20 23  1  0
 23 24  1  0
 23 25  1  0
 23 26  1  0
 26 27  1  0
 26 28  1  0
 26 29  1  0
 29 30  1  0
 29 31  1  0
 29 32  1  0
 32 33  1  0
 32 34  1  0
 32 35  1  0
 35 36  1  0
 35 37  1  0
 10 38  1  0
 38 39  1  0
 38 40  1  0
 40 41  2  0
 41 42  1  0
  7 43  1  0
 43 44  1  0
 43 45  2  0
 45 46  1  0
 45  2  1  0
 41  8  1  0
 35 18  1  0
M  CHG  1  11   1
M  END
>  <UniqueID>  (66) 
7

>  <SMILES>  (66) 
CC(=O)/[N+](=c1/nc(-c2c(F)cccc2F)c(Br)n[nH]1)C1CCCCCC1

>  <Energy>  (66) 
75.71102792824183

>  <Genealogy>  (66) 
CC(=O)[NH+](c1nnc(Br)c(-c2c(F)cccc2F)n1)C1CCCCCC1 (protonated)
CC(=O)[N+](=c1nc(-c2c(F)cccc2F)c(Br)n[nH]1)C1CCCCCC1 (tautomer)
CC(=O)/[N+](=c1/nc(-c2c(F)cccc2F)c(Br)n[nH]1)C1CCCCCC1 (cis-trans isomerization)
CC(=O)/[N+](=c1/nc(-c2c(F)cccc2F)c(Br)n[nH]1)C1CCCCCC1 (3D coordinates assigned)
CC(=O)/[N+](=c1/nc(-c2c(F)cccc2F)c(Br)n[nH]1)C1CCCCCC1 (nonaromatic ring conformer: 75.71102792824183 kcal/mol)

>  <smiles>  (66) 
CC(=O)N(c1nnc(Br)c(-c2c(F)cccc2F)n1)C1CCCCCC1

>  <score_type>  (66) 
oracle

>  <origin>  (66) 
autodockgpu

>  <m_score__min__energy>  (66) 
-4.4000000000000004

>  <m_primary>  (66) 
energy

>  <meeko>  (66) 
{"free_energy": -3.67, "intermolecular_energy": -6.35, "internal_energy": -2.29, "cluster_size": 9, "cluster_id": 3, "rank_in_cluster": 7}

>  <energy>  (66) 
-4.19

>  <cluster_rmsd>  (66) 
0.67

>  <rmsd>  (66) 
272.47

>  <cluster>  (66) 
2

$$$$
VCUSMEIKIQENRV-OLELRBRINA-O
     RDKit          3D

 46 48  0  0  0  0  0  0  0  0999 V2000
  140.5223   72.6846  221.9950 H   0  0  0  0  0  0  0  0  0  0  0  0
  140.8480   73.5560  221.4080 C   0  0  0  0  0  0  0  0  0  0  0  0
  142.2100   73.7930  221.2070 C   0  0  0  0  0  0  0  0  0  0  0  0
  142.9555   73.1092  221.6392 H   0  0  0  0  0  0  0  0  0  0  0  0
  142.6280   74.8970  220.4580 C   0  0  0  0  0  0  0  0  0  0  0  0
  143.9560   75.1100  220.2730 F   0  0  0  0  0  0  0  0  0  0  0  0
  141.6790   75.7660  219.8910 C   0  0  0  0  0  0  0  0  0  0  0  0
  142.1270   76.9510  219.1340 C   0  0  0  0  0  0  0  0  0  0  0  0
  141.7890   78.1810  219.5900 N   0  0  0  0  0  0  0  0  0  0  0  0
  142.1560   79.3210  218.9440 C   0  0  0  0  0  0  0  0  0  0  0  0
  141.7850   80.4990  219.4180 N   0  0  0  0  0  0  0  0  0  0  0  0
  141.8030   81.6750  218.5840 C   0  0  0  0  0  0  0  0  0  0  0  0
  142.8950   82.0980  218.1150 O   0  0  0  0  0  0  0  0  0  0  0  0
  140.5470   82.4450  218.3290 C   0  0  0  0  0  0  0  0  0  0  0  0
  140.0882   82.7263  219.2884 H   0  0  0  0  0  0  0  0  0  0  0  0
  140.7838   83.3533  217.7555 H   0  0  0  0  0  0  0  0  0  0  0  0
  139.8450   81.8219  217.7555 H   0  0  0  0  0  0  0  0  0  0  0  0
  141.3680   80.6970  220.8320 C   0  0  0  0  0  0  0  0  0  0  0  0
  141.2269   81.7695  221.0316 H   0  0  0  0  0  0  0  0  0  0  0  0
  142.4970   80.2600  221.8030 C   0  0  0  0  0  0  0  0  0  0  0  0
  142.7011   79.1922  221.6353 H   0  0  0  0  0  0  0  0  0  0  0  0
  143.3641   80.9010  221.5857 H   0  0  0  0  0  0  0  0  0  0  0  0
  142.1650   80.4590  223.2940 C   0  0  0  0  0  0  0  0  0  0  0  0
  143.0232   80.1023  223.8824 H   0  0  0  0  0  0  0  0  0  0  0  0
  141.9579   81.5325  223.4155 H   0  0  0  0  0  0  0  0  0  0  0  0
  140.9100   79.7290  223.7980 C   0  0  0  0  0  0  0  0  0  0  0  0
  140.8077   78.7911  223.2324 H   0  0  0  0  0  0  0  0  0  0  0  0
  141.0540   79.5674  224.8765 H   0  0  0  0  0  0  0  0  0  0  0  0
  139.6050   80.5260  223.6460 C   0  0  0  0  0  0  0  0  0  0  0  0
  138.8131   79.9794  224.1790 H   0  0  0  0  0  0  0  0  0  0  0  0
  139.8183   81.5242  224.0561 H   0  0  0  0  0  0  0  0  0  0  0  0
  139.1210   80.7660  222.1980 C   0  0  0  0  0  0  0  0  0  0  0  0
  138.0874   80.3980  222.1192 H   0  0  0  0  0  0  0  0  0  0  0  0
  139.2171   81.8471  222.0190 H   0  0  0  0  0  0  0  0  0  0  0  0
  139.9580   80.0750  221.1040 C   0  0  0  0  0  0  0  0  0  0  0  0
  140.1034   79.0262  221.4020 H   0  0  0  0  0  0  0  0  0  0  0  0
  139.3907   80.1996  220.1698 H   0  0  0  0  0  0  0  0  0  0  0  0
  142.8830   79.2000  217.7880 N   0  0  0  0  0  0  0  0  0  0  0  0
  143.1680   80.0280  217.2220 H   0  0  0  0  0  0  0  0  0  0  0  0
  143.2440   78.0000  217.3300 N   0  0  0  0  0  0  0  0  0  0  0  0
  142.8950   76.8560  217.9680 C   0  0  0  0  0  0  0  0  0  0  0  0
  143.5280   75.1860  217.2760 Br  0  0  0  0  0  0  0  0  0  0  0  0
  140.3100   75.5320  220.1130 C   0  0  0  0  0  0  0  0  0  0  0  0
  139.3740   76.3890  219.6300 F   0  0  0  0  0  0  0  0  0  0  0  0
  139.9000   74.4250  220.8640 C   0  0  0  0  0  0  0  0  0  0  0  0
  138.8281   74.2388  221.0263 H   0  0  0  0  0  0  0  0  0  0  0  0
  1  2  1  0
  2  3  2  0
  3  4  1  0
  3  5  1  0
  5  6  1  0
  5  7  2  0
  7  8  1  0
  8  9  2  0
  9 10  1  0
 10 11  2  0
 11 12  1  0
 12 13  2  0
 12 14  1  0
 14 15  1  0
 14 16  1  0
 14 17  1  0
 11 18  1  0
 18 19  1  0
 18 20  1  0
 20 21  1  0
 20 22  1  0
 20 23  1  0
 23 24  1  0
 23 25  1  0
 23 26  1  0
 26 27  1  0
 26 28  1  0
 26 29  1  0
 29 30  1  0
 29 31  1  0
 29 32  1  0
 32 33  1  0
 32 34  1  0
 32 35  1  0
 35 36  1  0
 35 37  1  0
 10 38  1  0
 38 39  1  0
 38 40  1  0
 40 41  2  0
 41 42  1  0
  7 43  1  0
 43 44  1  0
 43 45  2  0
 45 46  1  0
 45  2  1  0
 41  8  1  0
 35 18  1  0
M  CHG  1  11   1
M  END
>  <UniqueID>  (67) 
7

>  <SMILES>  (67) 
CC(=O)/[N+](=c1/nc(-c2c(F)cccc2F)c(Br)n[nH]1)C1CCCCCC1

>  <Energy>  (67) 
75.71102792824183

>  <Genealogy>  (67) 
CC(=O)[NH+](c1nnc(Br)c(-c2c(F)cccc2F)n1)C1CCCCCC1 (protonated)
CC(=O)[N+](=c1nc(-c2c(F)cccc2F)c(Br)n[nH]1)C1CCCCCC1 (tautomer)
CC(=O)/[N+](=c1/nc(-c2c(F)cccc2F)c(Br)n[nH]1)C1CCCCCC1 (cis-trans isomerization)
CC(=O)/[N+](=c1/nc(-c2c(F)cccc2F)c(Br)n[nH]1)C1CCCCCC1 (3D coordinates assigned)
CC(=O)/[N+](=c1/nc(-c2c(F)cccc2F)c(Br)n[nH]1)C1CCCCCC1 (nonaromatic ring conformer: 75.71102792824183 kcal/mol)

>  <smiles>  (67) 
CC(=O)N(c1nnc(Br)c(-c2c(F)cccc2F)n1)C1CCCCCC1

>  <score_type>  (67) 
oracle

>  <origin>  (67) 
autodockgpu

>  <m_score__min__energy>  (67) 
-4.4000000000000004

>  <m_primary>  (67) 
energy

>  <meeko>  (67) 
{"free_energy": -4.37, "intermolecular_energy": -7.05, "internal_energy": -1.88, "cluster_size": 6, "cluster_id": 2, "rank_in_cluster": 1}

>  <energy>  (67) 
-4.09

>  <cluster_rmsd>  (67) 
0.38

>  <rmsd>  (67) 
272.4

>  <cluster>  (67) 
2

$$$$
VCUSMEIKIQENRV-OLELRBRINA-O
     RDKit          3D

 46 48  0  0  0  0  0  0  0  0999 V2000
  136.2896   84.3539  223.1423 H   0  0  0  0  0  0  0  0  0  0  0  0
  136.5230   83.2800  223.0950 C   0  0  0  0  0  0  0  0  0  0  0  0
  136.4310   82.5990  221.8790 C   0  0  0  0  0  0  0  0  0  0  0  0
  136.1205   83.1365  220.9709 H   0  0  0  0  0  0  0  0  0  0  0  0
  136.7330   81.2350  221.8140 C   0  0  0  0  0  0  0  0  0  0  0  0
  136.6390   80.5900  220.6240 F   0  0  0  0  0  0  0  0  0  0  0  0
  137.1430   80.5460  222.9700 C   0  0  0  0  0  0  0  0  0  0  0  0
  137.4230   79.0990  222.9020 C   0  0  0  0  0  0  0  0  0  0  0  0
  138.6740   78.6920  222.5780 N   0  0  0  0  0  0  0  0  0  0  0  0
  139.0090   77.3770  222.4870 C   0  0  0  0  0  0  0  0  0  0  0  0
  140.2390   77.0290  222.1480 N   0  0  0  0  0  0  0  0  0  0  0  0
  140.5190   75.7230  221.6040 C   0  0  0  0  0  0  0  0  0  0  0  0
  140.3160   74.6930  222.3030 O   0  0  0  0  0  0  0  0  0  0  0  0
  141.1210   75.5810  220.2430 C   0  0  0  0  0  0  0  0  0  0  0  0
  142.1876   75.3294  220.3383 H   0  0  0  0  0  0  0  0  0  0  0  0
  140.6030   74.7804  219.6946 H   0  0  0  0  0  0  0  0  0  0  0  0
  141.0154   76.5287  219.6946 H   0  0  0  0  0  0  0  0  0  0  0  0
  141.4060   77.9310  222.3370 C   0  0  0  0  0  0  0  0  0  0  0  0
  142.3328   77.3392  222.3663 H   0  0  0  0  0  0  0  0  0  0  0  0
  141.3390   78.6300  223.7210 C   0  0  0  0  0  0  0  0  0  0  0  0
  140.2883   78.8798  223.9300 H   0  0  0  0  0  0  0  0  0  0  0  0
  141.7649   77.9250  224.4501 H   0  0  0  0  0  0  0  0  0  0  0  0
  142.1710   79.9230  223.8210 C   0  0  0  0  0  0  0  0  0  0  0  0
  142.4668   80.0544  224.8723 H   0  0  0  0  0  0  0  0  0  0  0  0
  143.0190   79.7887  223.1333 H   0  0  0  0  0  0  0  0  0  0  0  0
  141.4610   81.2070  223.3660 C   0  0  0  0  0  0  0  0  0  0  0  0
  140.4510   81.2134  223.8018 H   0  0  0  0  0  0  0  0  0  0  0  0
  142.0842   82.0461  223.7089 H   0  0  0  0  0  0  0  0  0  0  0  0
  141.3270   81.3580  221.8460 C   0  0  0  0  0  0  0  0  0  0  0  0
  140.6798   82.2257  221.6505 H   0  0  0  0  0  0  0  0  0  0  0  0
  142.3546   81.4660  221.4688 H   0  0  0  0  0  0  0  0  0  0  0  0
  140.7340   80.1480  221.0910 C   0  0  0  0  0  0  0  0  0  0  0  0
  139.7644   79.9028  221.5490 H   0  0  0  0  0  0  0  0  0  0  0  0
  140.6568   80.4532  220.0370 H   0  0  0  0  0  0  0  0  0  0  0  0
  141.6040   78.8760  221.1060 C   0  0  0  0  0  0  0  0  0  0  0  0
  141.3750   78.2996  220.1976 H   0  0  0  0  0  0  0  0  0  0  0  0
  142.6452   79.2265  221.1624 H   0  0  0  0  0  0  0  0  0  0  0  0
  138.0300   76.4460  222.7240 N   0  0  0  0  0  0  0  0  0  0  0  0
  138.2060   75.4210  222.6370 H   0  0  0  0  0  0  0  0  0  0  0  0
  136.7970   76.8220  223.0640 N   0  0  0  0  0  0  0  0  0  0  0  0
  136.4510   78.1290  223.1690 C   0  0  0  0  0  0  0  0  0  0  0  0
  134.6760   78.5680  223.7400 Br  0  0  0  0  0  0  0  0  0  0  0  0
  137.2150   81.2340  224.1950 C   0  0  0  0  0  0  0  0  0  0  0  0
  137.5490   80.5820  225.3370 F   0  0  0  0  0  0  0  0  0  0  0  0
  136.9110   82.5990  224.2510 C   0  0  0  0  0  0  0  0  0  0  0  0
  136.9778   83.1370  225.2081 H   0  0  0  0  0  0  0  0  0  0  0  0
  1  2  1  0
  2  3  2  0
  3  4  1  0
  3  5  1  0
  5  6  1  0
  5  7  2  0
  7  8  1  0
  8  9  2  0
  9 10  1  0
 10 11  2  0
 11 12  1  0
 12 13  2  0
 12 14  1  0
 14 15  1  0
 14 16  1  0
 14 17  1  0
 11 18  1  0
 18 19  1  0
 18 20  1  0
 20 21  1  0
 20 22  1  0
 20 23  1  0
 23 24  1  0
 23 25  1  0
 23 26  1  0
 26 27  1  0
 26 28  1  0
 26 29  1  0
 29 30  1  0
 29 31  1  0
 29 32  1  0
 32 33  1  0
 32 34  1  0
 32 35  1  0
 35 36  1  0
 35 37  1  0
 10 38  1  0
 38 39  1  0
 38 40  1  0
 40 41  2  0
 41 42  1  0
  7 43  1  0
 43 44  1  0
 43 45  2  0
 45 46  1  0
 45  2  1  0
 41  8  1  0
 35 18  1  0
M  CHG  1  11   1
M  END
>  <UniqueID>  (68) 
7

>  <SMILES>  (68) 
CC(=O)/[N+](=c1/nc(-c2c(F)cccc2F)c(Br)n[nH]1)C1CCCCCC1

>  <Energy>  (68) 
75.71102792824183

>  <Genealogy>  (68) 
CC(=O)[NH+](c1nnc(Br)c(-c2c(F)cccc2F)n1)C1CCCCCC1 (protonated)
CC(=O)[N+](=c1nc(-c2c(F)cccc2F)c(Br)n[nH]1)C1CCCCCC1 (tautomer)
CC(=O)/[N+](=c1/nc(-c2c(F)cccc2F)c(Br)n[nH]1)C1CCCCCC1 (cis-trans isomerization)
CC(=O)/[N+](=c1/nc(-c2c(F)cccc2F)c(Br)n[nH]1)C1CCCCCC1 (3D coordinates assigned)
CC(=O)/[N+](=c1/nc(-c2c(F)cccc2F)c(Br)n[nH]1)C1CCCCCC1 (nonaromatic ring conformer: 75.71102792824183 kcal/mol)

>  <smiles>  (68) 
CC(=O)N(c1nnc(Br)c(-c2c(F)cccc2F)n1)C1CCCCCC1

>  <score_type>  (68) 
oracle

>  <origin>  (68) 
autodockgpu

>  <m_score__min__energy>  (68) 
-4.4000000000000004

>  <m_primary>  (68) 
energy

>  <meeko>  (68) 
{"free_energy": -3.56, "intermolecular_energy": -6.25, "internal_energy": -2.36, "cluster_size": 9, "cluster_id": 3, "rank_in_cluster": 9}

>  <energy>  (68) 
-4.08

>  <cluster_rmsd>  (68) 
0.0

>  <rmsd>  (68) 
272.93

>  <cluster>  (68) 
3

$$$$
VCUSMEIKIQENRV-OLELRBRINA-O
     RDKit          3D

 46 48  0  0  0  0  0  0  0  0999 V2000
  139.5921   72.9874  222.2885 H   0  0  0  0  0  0  0  0  0  0  0  0
  140.0580   73.7670  221.6680 C   0  0  0  0  0  0  0  0  0  0  0  0
  141.4500   73.8410  221.5670 C   0  0  0  0  0  0  0  0  0  0  0  0
  142.0784   73.1210  222.1118 H   0  0  0  0  0  0  0  0  0  0  0  0
  142.0460   74.8270  220.7760 C   0  0  0  0  0  0  0  0  0  0  0  0
  143.3990   74.8810  220.6890 F   0  0  0  0  0  0  0  0  0  0  0  0
  141.2470   75.7410  220.0660 C   0  0  0  0  0  0  0  0  0  0  0  0
  141.8820   76.8040  219.2630 C   0  0  0  0  0  0  0  0  0  0  0  0
  141.6530   78.0970  219.5970 N   0  0  0  0  0  0  0  0  0  0  0  0
  142.1950   79.1330  218.9010 C   0  0  0  0  0  0  0  0  0  0  0  0
  141.9270   80.3790  219.2540 N   0  0  0  0  0  0  0  0  0  0  0  0
  142.0960   81.4680  218.3240 C   0  0  0  0  0  0  0  0  0  0  0  0
  143.2430   81.7390  217.8730 O   0  0  0  0  0  0  0  0  0  0  0  0
  140.9350   82.3300  217.9440 C   0  0  0  0  0  0  0  0  0  0  0  0
  140.4386   82.6985  218.8538 H   0  0  0  0  0  0  0  0  0  0  0  0
  141.2915   83.1840  217.3493 H   0  0  0  0  0  0  0  0  0  0  0  0
  140.2207   81.7417  217.3493 H   0  0  0  0  0  0  0  0  0  0  0  0
  141.4760   80.7440  220.6230 C   0  0  0  0  0  0  0  0  0  0  0  0
  141.3578   81.8351  220.6969 H   0  0  0  0  0  0  0  0  0  0  0  0
  142.5660   80.3910  221.6710 C   0  0  0  0  0  0  0  0  0  0  0  0
  142.7916   79.3179  221.5846 H   0  0  0  0  0  0  0  0  0  0  0  0
  143.4331   81.0307  221.4498 H   0  0  0  0  0  0  0  0  0  0  0  0
  142.1650   80.6830  223.1290 C   0  0  0  0  0  0  0  0  0  0  0  0
  143.0375   80.4792  223.7671 H   0  0  0  0  0  0  0  0  0  0  0  0
  141.8366   81.7327  223.1459 H   0  0  0  0  0  0  0  0  0  0  0  0
  140.9820   79.8640  223.6700 C   0  0  0  0  0  0  0  0  0  0  0  0
  140.9768   78.8898  223.1592 H   0  0  0  0  0  0  0  0  0  0  0  0
  141.1313   79.7800  224.7566 H   0  0  0  0  0  0  0  0  0  0  0  0
  139.6060   80.5190  223.4680 C   0  0  0  0  0  0  0  0  0  0  0  0
  138.8411   79.8071  223.8116 H   0  0  0  0  0  0  0  0  0  0  0  0
  139.6384   81.4577  224.0406 H   0  0  0  0  0  0  0  0  0  0  0  0
  139.2540   80.9280  222.0190 C   0  0  0  0  0  0  0  0  0  0  0  0
  138.1835   80.7311  221.8601 H   0  0  0  0  0  0  0  0  0  0  0  0
  139.5231   81.9906  221.9273 H   0  0  0  0  0  0  0  0  0  0  0  0
  140.0430   80.1900  220.9200 C   0  0  0  0  0  0  0  0  0  0  0  0
  140.1443   79.1382  221.2256 H   0  0  0  0  0  0  0  0  0  0  0  0
  139.4690   80.3328  219.9926 H   0  0  0  0  0  0  0  0  0  0  0  0
  142.9870   78.8390  217.8210 N   0  0  0  0  0  0  0  0  0  0  0  0
  143.4060   79.5820  217.2220 H   0  0  0  0  0  0  0  0  0  0  0  0
  143.2430   77.5730  217.4860 N   0  0  0  0  0  0  0  0  0  0  0  0
  142.7180   76.5300  218.1750 C   0  0  0  0  0  0  0  0  0  0  0  0
  143.2070   74.7500  217.6640 Br  0  0  0  0  0  0  0  0  0  0  0  0
  139.8470   75.6740  220.1870 C   0  0  0  0  0  0  0  0  0  0  0  0
  139.0530   76.5800  219.5630 F   0  0  0  0  0  0  0  0  0  0  0  0
  139.2590   74.6830  220.9810 C   0  0  0  0  0  0  0  0  0  0  0  0
  138.1637   74.6255  221.0642 H   0  0  0  0  0  0  0  0  0  0  0  0
  1  2  1  0
  2  3  2  0
  3  4  1  0
  3  5  1  0
  5  6  1  0
  5  7  2  0
  7  8  1  0
  8  9  2  0
  9 10  1  0
 10 11  2  0
 11 12  1  0
 12 13  2  0
 12 14  1  0
 14 15  1  0
 14 16  1  0
 14 17  1  0
 11 18  1  0
 18 19  1  0
 18 20  1  0
 20 21  1  0
 20 22  1  0
 20 23  1  0
 23 24  1  0
 23 25  1  0
 23 26  1  0
 26 27  1  0
 26 28  1  0
 26 29  1  0
 29 30  1  0
 29 31  1  0
 29 32  1  0
 32 33  1  0
 32 34  1  0
 32 35  1  0
 35 36  1  0
 35 37  1  0
 10 38  1  0
 38 39  1  0
 38 40  1  0
 40 41  2  0
 41 42  1  0
  7 43  1  0
 43 44  1  0
 43 45  2  0
 45 46  1  0
 45  2  1  0
 41  8  1  0
 35 18  1  0
M  CHG  1  11   1
M  END
>  <UniqueID>  (69) 
7

>  <SMILES>  (69) 
CC(=O)/[N+](=c1/nc(-c2c(F)cccc2F)c(Br)n[nH]1)C1CCCCCC1

>  <Energy>  (69) 
75.71102792824183

>  <Genealogy>  (69) 
CC(=O)[NH+](c1nnc(Br)c(-c2c(F)cccc2F)n1)C1CCCCCC1 (protonated)
CC(=O)[N+](=c1nc(-c2c(F)cccc2F)c(Br)n[nH]1)C1CCCCCC1 (tautomer)
CC(=O)/[N+](=c1/nc(-c2c(F)cccc2F)c(Br)n[nH]1)C1CCCCCC1 (cis-trans isomerization)
CC(=O)/[N+](=c1/nc(-c2c(F)cccc2F)c(Br)n[nH]1)C1CCCCCC1 (3D coordinates assigned)
CC(=O)/[N+](=c1/nc(-c2c(F)cccc2F)c(Br)n[nH]1)C1CCCCCC1 (nonaromatic ring conformer: 75.71102792824183 kcal/mol)

>  <smiles>  (69) 
CC(=O)N(c1nnc(Br)c(-c2c(F)cccc2F)n1)C1CCCCCC1

>  <score_type>  (69) 
oracle

>  <origin>  (69) 
autodockgpu

>  <m_score__min__energy>  (69) 
-4.4000000000000004

>  <m_primary>  (69) 
energy

>  <meeko>  (69) 
{"free_energy": -4.24, "intermolecular_energy": -6.92, "internal_energy": -1.89, "cluster_size": 6, "cluster_id": 2, "rank_in_cluster": 3}

>  <energy>  (69) 
-4.03

>  <cluster_rmsd>  (69) 
0.13

>  <rmsd>  (69) 
272.87

>  <cluster>  (69) 
3

$$$$
VCUSMEIKIQENRV-OLELRBRINA-O
     RDKit          3D

 46 48  0  0  0  0  0  0  0  0999 V2000
  140.3297   72.5874  221.9004 H   0  0  0  0  0  0  0  0  0  0  0  0
  140.6960   73.4550  221.3320 C   0  0  0  0  0  0  0  0  0  0  0  0
  139.7880   74.3270  220.7260 C   0  0  0  0  0  0  0  0  0  0  0  0
  138.7073   74.1418  220.8142 H   0  0  0  0  0  0  0  0  0  0  0  0
  140.2490   75.4340  220.0080 C   0  0  0  0  0  0  0  0  0  0  0  0
  139.3500   76.2700  219.4280 F   0  0  0  0  0  0  0  0  0  0  0  0
  141.6290   75.6830  219.9030 C   0  0  0  0  0  0  0  0  0  0  0  0
  142.1100   76.8310  219.1110 C   0  0  0  0  0  0  0  0  0  0  0  0
  141.7910   78.0830  219.5190 N   0  0  0  0  0  0  0  0  0  0  0  0
  142.1890   79.1920  218.8390 C   0  0  0  0  0  0  0  0  0  0  0  0
  141.8350   80.3930  219.2660 N   0  0  0  0  0  0  0  0  0  0  0  0
  141.8580   81.5330  218.3830 C   0  0  0  0  0  0  0  0  0  0  0  0
  142.9510   81.9230  217.8870 O   0  0  0  0  0  0  0  0  0  0  0  0
  140.6080   82.3050  218.1070 C   0  0  0  0  0  0  0  0  0  0  0  0
  140.1385   82.5950  219.0586 H   0  0  0  0  0  0  0  0  0  0  0  0
  140.8548   83.2082  217.5297 H   0  0  0  0  0  0  0  0  0  0  0  0
  139.9109   81.6799  217.5297 H   0  0  0  0  0  0  0  0  0  0  0  0
  141.4330   80.6550  220.6730 C   0  0  0  0  0  0  0  0  0  0  0  0
  141.3534   81.7391  220.8412 H   0  0  0  0  0  0  0  0  0  0  0  0
  142.5380   80.1820  221.6560 C   0  0  0  0  0  0  0  0  0  0  0  0
  142.5782   79.0832  221.6257 H   0  0  0  0  0  0  0  0  0  0  0  0
  143.4751   80.6543  221.3262 H   0  0  0  0  0  0  0  0  0  0  0  0
  142.3170   80.6160  223.1170 C   0  0  0  0  0  0  0  0  0  0  0  0
  143.3043   80.7509  223.5828 H   0  0  0  0  0  0  0  0  0  0  0  0
  141.7175   81.5370  223.0695 H   0  0  0  0  0  0  0  0  0  0  0  0
  141.5140   79.6370  223.9870 C   0  0  0  0  0  0  0  0  0  0  0  0
  142.1061   78.7174  224.1044 H   0  0  0  0  0  0  0  0  0  0  0  0
  141.3227   80.1520  224.9400 H   0  0  0  0  0  0  0  0  0  0  0  0
  140.1380   79.2520  223.4160 C   0  0  0  0  0  0  0  0  0  0  0  0
  140.2473   78.2883  222.8970 H   0  0  0  0  0  0  0  0  0  0  0  0
  139.4569   79.2254  224.2794 H   0  0  0  0  0  0  0  0  0  0  0  0
  139.5090   80.2550  222.4220 C   0  0  0  0  0  0  0  0  0  0  0  0
  138.4189   80.1086  222.4347 H   0  0  0  0  0  0  0  0  0  0  0  0
  139.8218   81.2547  222.7578 H   0  0  0  0  0  0  0  0  0  0  0  0
  139.9910   80.1230  220.9640 C   0  0  0  0  0  0  0  0  0  0  0  0
  139.9639   79.0568  220.6948 H   0  0  0  0  0  0  0  0  0  0  0  0
  139.3143   80.7524  220.3674 H   0  0  0  0  0  0  0  0  0  0  0  0
  142.9280   79.0160  217.6980 N   0  0  0  0  0  0  0  0  0  0  0  0
  143.2380   79.8180  217.1080 H   0  0  0  0  0  0  0  0  0  0  0  0
  143.2720   77.7940  217.2870 N   0  0  0  0  0  0  0  0  0  0  0  0
  142.8910   76.6810  217.9600 C   0  0  0  0  0  0  0  0  0  0  0  0
  143.5010   74.9750  217.3360 Br  0  0  0  0  0  0  0  0  0  0  0  0
  142.5390   74.7910  220.4990 C   0  0  0  0  0  0  0  0  0  0  0  0
  143.8770   74.9720  220.3620 F   0  0  0  0  0  0  0  0  0  0  0  0
  142.0690   73.6850  221.2160 C   0  0  0  0  0  0  0  0  0  0  0  0
  142.7827   72.9948  221.6896 H   0  0  0  0  0  0  0  0  0  0  0  0
  1  2  1  0
  2  3  2  0
  3  4  1  0
  3  5  1  0
  5  6  1  0
  5  7  2  0
  7  8  1  0
  8  9  2  0
  9 10  1  0
 10 11  2  0
 11 12  1  0
 12 13  2  0
 12 14  1  0
 14 15  1  0
 14 16  1  0
 14 17  1  0
 11 18  1  0
 18 19  1  0
 18 20  1  0
 20 21  1  0
 20 22  1  0
 20 23  1  0
 23 24  1  0
 23 25  1  0
 23 26  1  0
 26 27  1  0
 26 28  1  0
 26 29  1  0
 29 30  1  0
 29 31  1  0
 29 32  1  0
 32 33  1  0
 32 34  1  0
 32 35  1  0
 35 36  1  0
 35 37  1  0
 10 38  1  0
 38 39  1  0
 38 40  1  0
 40 41  2  0
 41 42  1  0
  7 43  1  0
 43 44  1  0
 43 45  2  0
 45 46  1  0
 45  2  1  0
 41  8  1  0
 35 18  1  0
M  CHG  1  11   1
M  END
>  <UniqueID>  (70) 
7

>  <SMILES>  (70) 
CC(=O)/[N+](=c1/nc(-c2c(F)cccc2F)c(Br)n[nH]1)C1CCCCCC1

>  <Energy>  (70) 
75.71102792824183

>  <Genealogy>  (70) 
CC(=O)[NH+](c1nnc(Br)c(-c2c(F)cccc2F)n1)C1CCCCCC1 (protonated)
CC(=O)[N+](=c1nc(-c2c(F)cccc2F)c(Br)n[nH]1)C1CCCCCC1 (tautomer)
CC(=O)/[N+](=c1/nc(-c2c(F)cccc2F)c(Br)n[nH]1)C1CCCCCC1 (cis-trans isomerization)
CC(=O)/[N+](=c1/nc(-c2c(F)cccc2F)c(Br)n[nH]1)C1CCCCCC1 (3D coordinates assigned)
CC(=O)/[N+](=c1/nc(-c2c(F)cccc2F)c(Br)n[nH]1)C1CCCCCC1 (nonaromatic ring conformer: 75.71102792824183 kcal/mol)

>  <smiles>  (70) 
CC(=O)N(c1nnc(Br)c(-c2c(F)cccc2F)n1)C1CCCCCC1

>  <score_type>  (70) 
oracle

>  <origin>  (70) 
autodockgpu

>  <m_score__min__energy>  (70) 
-4.4000000000000004

>  <m_primary>  (70) 
energy

>  <meeko>  (70) 
{"free_energy": -4.09, "intermolecular_energy": -6.78, "internal_energy": -1.93, "cluster_size": 6, "cluster_id": 2, "rank_in_cluster": 6}

>  <energy>  (70) 
-3.98

>  <cluster_rmsd>  (70) 
0.09

>  <rmsd>  (70) 
272.91

>  <cluster>  (70) 
3

$$$$
VCUSMEIKIQENRV-OLELRBRINA-O
     RDKit          3D

 46 48  0  0  0  0  0  0  0  0999 V2000
  135.1266   75.0988  222.7322 H   0  0  0  0  0  0  0  0  0  0  0  0
  136.1210   75.4070  222.3770 C   0  0  0  0  0  0  0  0  0  0  0  0
  136.6460   74.8550  221.2060 C   0  0  0  0  0  0  0  0  0  0  0  0
  136.0657   74.1095  220.6425 H   0  0  0  0  0  0  0  0  0  0  0  0
  137.9070   75.2480  220.7490 C   0  0  0  0  0  0  0  0  0  0  0  0
  138.3990   74.7010  219.6080 F   0  0  0  0  0  0  0  0  0  0  0  0
  138.6470   76.2110  221.4570 C   0  0  0  0  0  0  0  0  0  0  0  0
  139.9930   76.5940  220.9900 C   0  0  0  0  0  0  0  0  0  0  0  0
  140.2040   77.8700  220.5850 N   0  0  0  0  0  0  0  0  0  0  0  0
  141.4130   78.2980  220.1320 C   0  0  0  0  0  0  0  0  0  0  0  0
  141.5650   79.5480  219.7300 N   0  0  0  0  0  0  0  0  0  0  0  0
  141.6970   79.8670  218.3300 C   0  0  0  0  0  0  0  0  0  0  0  0
  142.6850   79.4340  217.6760 O   0  0  0  0  0  0  0  0  0  0  0  0
  140.7120   80.7720  217.6600 C   0  0  0  0  0  0  0  0  0  0  0  0
  140.1286   81.3080  218.4231 H   0  0  0  0  0  0  0  0  0  0  0  0
  141.2493   81.4981  217.0322 H   0  0  0  0  0  0  0  0  0  0  0  0
  140.0339   80.1753  217.0322 H   0  0  0  0  0  0  0  0  0  0  0  0
  141.6470   80.6900  220.6790 C   0  0  0  0  0  0  0  0  0  0  0  0
  142.1291   81.5481  220.1879 H   0  0  0  0  0  0  0  0  0  0  0  0
  142.5760   80.3440  221.8730 C   0  0  0  0  0  0  0  0  0  0  0  0
  143.4578   79.8160  221.4810 H   0  0  0  0  0  0  0  0  0  0  0  0
  142.8283   81.2971  222.3607 H   0  0  0  0  0  0  0  0  0  0  0  0
  141.9240   79.4580  222.9510 C   0  0  0  0  0  0  0  0  0  0  0  0
  141.3409   78.6774  222.4403 H   0  0  0  0  0  0  0  0  0  0  0  0
  142.7520   79.0673  223.5607 H   0  0  0  0  0  0  0  0  0  0  0  0
  140.9870   80.1840  223.9300 C   0  0  0  0  0  0  0  0  0  0  0  0
  140.9506   79.6044  224.8642 H   0  0  0  0  0  0  0  0  0  0  0  0
  141.3996   81.1946  224.0658 H   0  0  0  0  0  0  0  0  0  0  0  0
  139.5470   80.3650  223.4210 C   0  0  0  0  0  0  0  0  0  0  0  0
  138.9243   79.5891  223.8903 H   0  0  0  0  0  0  0  0  0  0  0  0
  139.2646   81.3934  223.6905 H   0  0  0  0  0  0  0  0  0  0  0  0
  139.3510   80.2670  221.8910 C   0  0  0  0  0  0  0  0  0  0  0  0
  139.5834   79.2368  221.5832 H   0  0  0  0  0  0  0  0  0  0  0  0
  138.3081   80.5582  221.6971 H   0  0  0  0  0  0  0  0  0  0  0  0
  140.2250   81.2230  221.0560 C   0  0  0  0  0  0  0  0  0  0  0  0
  139.6878   81.4421  220.1214 H   0  0  0  0  0  0  0  0  0  0  0  0
  140.3948   82.1048  221.6912 H   0  0  0  0  0  0  0  0  0  0  0  0
  142.4390   77.3890  220.0820 N   0  0  0  0  0  0  0  0  0  0  0  0
  143.3830   77.6380  219.7140 H   0  0  0  0  0  0  0  0  0  0  0  0
  142.2610   76.1330  220.4940 N   0  0  0  0  0  0  0  0  0  0  0  0
  141.0650   75.6950  220.9570 C   0  0  0  0  0  0  0  0  0  0  0  0
  140.9290   73.8950  221.5990 Br  0  0  0  0  0  0  0  0  0  0  0  0
  138.1200   76.7490  222.6460 C   0  0  0  0  0  0  0  0  0  0  0  0
  138.8380   77.6340  223.3830 F   0  0  0  0  0  0  0  0  0  0  0  0
  136.8580   76.3500  223.0970 C   0  0  0  0  0  0  0  0  0  0  0  0
  136.4446   76.7799  224.0213 H   0  0  0  0  0  0  0  0  0  0  0  0
  1  2  1  0
  2  3  2  0
  3  4  1  0
  3  5  1  0
  5  6  1  0
  5  7  2  0
  7  8  1  0
  8  9  2  0
  9 10  1  0
 10 11  2  0
 11 12  1  0
 12 13  2  0
 12 14  1  0
 14 15  1  0
 14 16  1  0
 14 17  1  0
 11 18  1  0
 18 19  1  0
 18 20  1  0
 20 21  1  0
 20 22  1  0
 20 23  1  0
 23 24  1  0
 23 25  1  0
 23 26  1  0
 26 27  1  0
 26 28  1  0
 26 29  1  0
 29 30  1  0
 29 31  1  0
 29 32  1  0
 32 33  1  0
 32 34  1  0
 32 35  1  0
 35 36  1  0
 35 37  1  0
 10 38  1  0
 38 39  1  0
 38 40  1  0
 40 41  2  0
 41 42  1  0
  7 43  1  0
 43 44  1  0
 43 45  2  0
 45 46  1  0
 45  2  1  0
 41  8  1  0
 35 18  1  0
M  CHG  1  11   1
M  END
>  <UniqueID>  (71) 
7

>  <SMILES>  (71) 
CC(=O)/[N+](=c1/nc(-c2c(F)cccc2F)c(Br)n[nH]1)C1CCCCCC1

>  <Energy>  (71) 
75.71102792824183

>  <Genealogy>  (71) 
CC(=O)[NH+](c1nnc(Br)c(-c2c(F)cccc2F)n1)C1CCCCCC1 (protonated)
CC(=O)[N+](=c1nc(-c2c(F)cccc2F)c(Br)n[nH]1)C1CCCCCC1 (tautomer)
CC(=O)/[N+](=c1/nc(-c2c(F)cccc2F)c(Br)n[nH]1)C1CCCCCC1 (cis-trans isomerization)
CC(=O)/[N+](=c1/nc(-c2c(F)cccc2F)c(Br)n[nH]1)C1CCCCCC1 (3D coordinates assigned)
CC(=O)/[N+](=c1/nc(-c2c(F)cccc2F)c(Br)n[nH]1)C1CCCCCC1 (nonaromatic ring conformer: 75.71102792824183 kcal/mol)

>  <smiles>  (71) 
CC(=O)N(c1nnc(Br)c(-c2c(F)cccc2F)n1)C1CCCCCC1

>  <score_type>  (71) 
oracle

>  <origin>  (71) 
autodockgpu

>  <m_score__min__energy>  (71) 
-4.4000000000000004

>  <m_primary>  (71) 
energy

>  <meeko>  (71) 
{"free_energy": -3.53, "intermolecular_energy": -6.21, "internal_energy": -1.85, "cluster_size": 1, "cluster_id": 6, "rank_in_cluster": 1}

>  <energy>  (71) 
-3.93

>  <cluster_rmsd>  (71) 
0.74

>  <rmsd>  (71) 
273.16

>  <cluster>  (71) 
3

$$$$
VCUSMEIKIQENRV-OLELRBRINA-O
     RDKit          3D

 46 48  0  0  0  0  0  0  0  0999 V2000
  139.8622   84.7175  220.0049 H   0  0  0  0  0  0  0  0  0  0  0  0
  140.0820   83.7020  220.3660 C   0  0  0  0  0  0  0  0  0  0  0  0
  139.4370   83.2110  221.5040 C   0  0  0  0  0  0  0  0  0  0  0  0
  138.7124   83.8419  222.0397 H   0  0  0  0  0  0  0  0  0  0  0  0
  139.7110   81.9190  221.9630 C   0  0  0  0  0  0  0  0  0  0  0  0
  139.0730   81.4590  223.0690 F   0  0  0  0  0  0  0  0  0  0  0  0
  140.6250   81.1030  221.2730 C   0  0  0  0  0  0  0  0  0  0  0  0
  140.9380   79.7540  221.7850 C   0  0  0  0  0  0  0  0  0  0  0  0
  140.4280   78.6780  221.1380 N   0  0  0  0  0  0  0  0  0  0  0  0
  140.6620   77.4040  221.5520 C   0  0  0  0  0  0  0  0  0  0  0  0
  140.1260   76.3860  220.8990 N   0  0  0  0  0  0  0  0  0  0  0  0
  139.6200   75.2340  221.6030 C   0  0  0  0  0  0  0  0  0  0  0  0
  140.4050   74.5140  222.2790 O   0  0  0  0  0  0  0  0  0  0  0  0
  138.1830   74.8400  221.4810 C   0  0  0  0  0  0  0  0  0  0  0  0
  137.7490   74.7210  222.4847 H   0  0  0  0  0  0  0  0  0  0  0  0
  137.6339   75.6207  220.9343 H   0  0  0  0  0  0  0  0  0  0  0  0
  138.1089   73.8884  220.9343 H   0  0  0  0  0  0  0  0  0  0  0  0
  140.0450   76.3420  219.4150 C   0  0  0  0  0  0  0  0  0  0  0  0
  139.0027   76.4892  219.0959 H   0  0  0  0  0  0  0  0  0  0  0  0
  140.4250   74.9330  218.8860 C   0  0  0  0  0  0  0  0  0  0  0  0
  139.5492   74.2765  218.9951 H   0  0  0  0  0  0  0  0  0  0  0  0
  140.7345   75.0632  217.8385 H   0  0  0  0  0  0  0  0  0  0  0  0
  141.6120   74.2790  219.6180 C   0  0  0  0  0  0  0  0  0  0  0  0
  141.3688   74.2408  220.6901 H   0  0  0  0  0  0  0  0  0  0  0  0
  141.7421   73.2894  219.1556 H   0  0  0  0  0  0  0  0  0  0  0  0
  142.9630   74.9950  219.4650 C   0  0  0  0  0  0  0  0  0  0  0  0
  143.6955   74.4906  220.1123 H   0  0  0  0  0  0  0  0  0  0  0  0
  143.2279   74.9435  218.3986 H   0  0  0  0  0  0  0  0  0  0  0  0
  142.9350   76.4850  219.8400 C   0  0  0  0  0  0  0  0  0  0  0  0
  142.3343   76.5903  220.7555 H   0  0  0  0  0  0  0  0  0  0  0  0
  143.9880   76.7812  219.9556 H   0  0  0  0  0  0  0  0  0  0  0  0
  142.3480   77.4410  218.7770 C   0  0  0  0  0  0  0  0  0  0  0  0
  142.7537   78.4465  218.9624 H   0  0  0  0  0  0  0  0  0  0  0  0
  142.6352   77.0250  217.8000 H   0  0  0  0  0  0  0  0  0  0  0  0
  140.8100   77.5420  218.7640 C   0  0  0  0  0  0  0  0  0  0  0  0
  140.5269   78.4567  219.3054 H   0  0  0  0  0  0  0  0  0  0  0  0
  140.5188   77.5429  217.7033 H   0  0  0  0  0  0  0  0  0  0  0  0
  141.4350   77.2230  222.6700 N   0  0  0  0  0  0  0  0  0  0  0  0
  141.6270   76.2770  223.0650 H   0  0  0  0  0  0  0  0  0  0  0  0
  141.9640   78.2660  223.3120 N   0  0  0  0  0  0  0  0  0  0  0  0
  141.7470   79.5410  222.9050 C   0  0  0  0  0  0  0  0  0  0  0  0
  142.6150   80.9670  223.8450 Br  0  0  0  0  0  0  0  0  0  0  0  0
  141.2850   81.6110  220.1390 C   0  0  0  0  0  0  0  0  0  0  0  0
  142.2170   80.8680  219.4900 F   0  0  0  0  0  0  0  0  0  0  0  0
  141.0050   82.9050  219.6870 C   0  0  0  0  0  0  0  0  0  0  0  0
  141.5140   83.2956  218.7935 H   0  0  0  0  0  0  0  0  0  0  0  0
  1  2  1  0
  2  3  2  0
  3  4  1  0
  3  5  1  0
  5  6  1  0
  5  7  2  0
  7  8  1  0
  8  9  2  0
  9 10  1  0
 10 11  2  0
 11 12  1  0
 12 13  2  0
 12 14  1  0
 14 15  1  0
 14 16  1  0
 14 17  1  0
 11 18  1  0
 18 19  1  0
 18 20  1  0
 20 21  1  0
 20 22  1  0
 20 23  1  0
 23 24  1  0
 23 25  1  0
 23 26  1  0
 26 27  1  0
 26 28  1  0
 26 29  1  0
 29 30  1  0
 29 31  1  0
 29 32  1  0
 32 33  1  0
 32 34  1  0
 32 35  1  0
 35 36  1  0
 35 37  1  0
 10 38  1  0
 38 39  1  0
 38 40  1  0
 40 41  2  0
 41 42  1  0
  7 43  1  0
 43 44  1  0
 43 45  2  0
 45 46  1  0
 45  2  1  0
 41  8  1  0
 35 18  1  0
M  CHG  1  11   1
M  END
>  <UniqueID>  (72) 
7

>  <SMILES>  (72) 
CC(=O)/[N+](=c1/nc(-c2c(F)cccc2F)c(Br)n[nH]1)C1CCCCCC1

>  <Energy>  (72) 
75.71102792824183

>  <Genealogy>  (72) 
CC(=O)[NH+](c1nnc(Br)c(-c2c(F)cccc2F)n1)C1CCCCCC1 (protonated)
CC(=O)[N+](=c1nc(-c2c(F)cccc2F)c(Br)n[nH]1)C1CCCCCC1 (tautomer)
CC(=O)/[N+](=c1/nc(-c2c(F)cccc2F)c(Br)n[nH]1)C1CCCCCC1 (cis-trans isomerization)
CC(=O)/[N+](=c1/nc(-c2c(F)cccc2F)c(Br)n[nH]1)C1CCCCCC1 (3D coordinates assigned)
CC(=O)/[N+](=c1/nc(-c2c(F)cccc2F)c(Br)n[nH]1)C1CCCCCC1 (nonaromatic ring conformer: 75.71102792824183 kcal/mol)

>  <smiles>  (72) 
CC(=O)N(c1nnc(Br)c(-c2c(F)cccc2F)n1)C1CCCCCC1

>  <score_type>  (72) 
oracle

>  <origin>  (72) 
autodockgpu

>  <m_score__min__energy>  (72) 
-4.4000000000000004

>  <m_primary>  (72) 
energy

>  <meeko>  (72) 
{"free_energy": -4.05, "intermolecular_energy": -6.74, "internal_energy": -1.69, "cluster_size": 2, "cluster_id": 4, "rank_in_cluster": 1}

>  <energy>  (72) 
-3.88

>  <cluster_rmsd>  (72) 
0.93

>  <rmsd>  (72) 
273.24

>  <cluster>  (72) 
3

$$$$
VCUSMEIKIQENRV-OLELRBRINA-O
     RDKit          3D

 46 48  0  0  0  0  0  0  0  0999 V2000
  136.0826   84.0539  222.7275 H   0  0  0  0  0  0  0  0  0  0  0  0
  136.3370   82.9840  222.7510 C   0  0  0  0  0  0  0  0  0  0  0  0
  136.9510   82.4370  223.8800 C   0  0  0  0  0  0  0  0  0  0  0  0
  137.1826   83.0782  224.7432 H   0  0  0  0  0  0  0  0  0  0  0  0
  137.2720   81.0770  223.9160 C   0  0  0  0  0  0  0  0  0  0  0  0
  137.8670   80.5630  225.0220 F   0  0  0  0  0  0  0  0  0  0  0  0
  136.9650   80.2500  222.8200 C   0  0  0  0  0  0  0  0  0  0  0  0
  137.3410   78.8230  222.8480 C   0  0  0  0  0  0  0  0  0  0  0  0
  138.6190   78.4810  222.5540 N   0  0  0  0  0  0  0  0  0  0  0  0
  139.0410   77.1870  222.5490 C   0  0  0  0  0  0  0  0  0  0  0  0
  140.2940   76.9010  222.2360 N   0  0  0  0  0  0  0  0  0  0  0  0
  140.6440   75.6250  221.6630 C   0  0  0  0  0  0  0  0  0  0  0  0
  140.4650   74.5670  222.3270 O   0  0  0  0  0  0  0  0  0  0  0  0
  141.2880   75.5480  220.3160 C   0  0  0  0  0  0  0  0  0  0  0  0
  142.3737   75.4182  220.4356 H   0  0  0  0  0  0  0  0  0  0  0  0
  140.8754   74.6928  219.7607 H   0  0  0  0  0  0  0  0  0  0  0  0
  141.0887   76.4764  219.7607 H   0  0  0  0  0  0  0  0  0  0  0  0
  141.4160   77.8450  222.4840 C   0  0  0  0  0  0  0  0  0  0  0  0
  142.3389   77.2809  222.6841 H   0  0  0  0  0  0  0  0  0  0  0  0
  141.1660   78.6660  223.7770 C   0  0  0  0  0  0  0  0  0  0  0  0
  140.1030   78.9476  223.8057 H   0  0  0  0  0  0  0  0  0  0  0  0
  141.4620   78.0234  224.6193 H   0  0  0  0  0  0  0  0  0  0  0  0
  142.0080   79.9510  223.8870 C   0  0  0  0  0  0  0  0  0  0  0  0
  141.9508   80.3050  224.9269 H   0  0  0  0  0  0  0  0  0  0  0  0
  143.0231   79.6737  223.5664 H   0  0  0  0  0  0  0  0  0  0  0  0
  141.5790   81.1070  222.9700 C   0  0  0  0  0  0  0  0  0  0  0  0
  141.2658   81.9505  223.6028 H   0  0  0  0  0  0  0  0  0  0  0  0
  142.4468   81.3456  222.3376 H   0  0  0  0  0  0  0  0  0  0  0  0
  140.4210   80.7640  222.0170 C   0  0  0  0  0  0  0  0  0  0  0  0
  139.6208   80.3008  222.6129 H   0  0  0  0  0  0  0  0  0  0  0  0
  140.1364   81.7146  221.5423 H   0  0  0  0  0  0  0  0  0  0  0  0
  140.7610   79.8040  220.8550 C   0  0  0  0  0  0  0  0  0  0  0  0
  139.8251   79.3376  220.5137 H   0  0  0  0  0  0  0  0  0  0  0  0
  141.2518   80.4176  220.0852 H   0  0  0  0  0  0  0  0  0  0  0  0
  141.7550   78.6790  221.2040 C   0  0  0  0  0  0  0  0  0  0  0  0
  141.7945   77.9864  220.3503 H   0  0  0  0  0  0  0  0  0  0  0  0
  142.7108   79.1798  221.4176 H   0  0  0  0  0  0  0  0  0  0  0  0
  138.1250   76.2100  222.8450 N   0  0  0  0  0  0  0  0  0  0  0  0
  138.3690   75.1970  222.8260 H   0  0  0  0  0  0  0  0  0  0  0  0
  136.8670   76.5250  223.1570 N   0  0  0  0  0  0  0  0  0  0  0  0
  136.4340   77.8090  223.1760 C   0  0  0  0  0  0  0  0  0  0  0  0
  134.6300   78.1650  223.7140 Br  0  0  0  0  0  0  0  0  0  0  0  0
  136.3640   80.8110  221.6790 C   0  0  0  0  0  0  0  0  0  0  0  0
  136.1130   80.0500  220.5830 F   0  0  0  0  0  0  0  0  0  0  0  0
  136.0460   82.1730  221.6520 C   0  0  0  0  0  0  0  0  0  0  0  0
  135.5654   82.6064  220.7625 H   0  0  0  0  0  0  0  0  0  0  0  0
  1  2  1  0
  2  3  2  0
  3  4  1  0
  3  5  1  0
  5  6  1  0
  5  7  2  0
  7  8  1  0
  8  9  2  0
  9 10  1  0
 10 11  2  0
 11 12  1  0
 12 13  2  0
 12 14  1  0
 14 15  1  0
 14 16  1  0
 14 17  1  0
 11 18  1  0
 18 19  1  0
 18 20  1  0
 20 21  1  0
 20 22  1  0
 20 23  1  0
 23 24  1  0
 23 25  1  0
 23 26  1  0
 26 27  1  0
 26 28  1  0
 26 29  1  0
 29 30  1  0
 29 31  1  0
 29 32  1  0
 32 33  1  0
 32 34  1  0
 32 35  1  0
 35 36  1  0
 35 37  1  0
 10 38  1  0
 38 39  1  0
 38 40  1  0
 40 41  2  0
 41 42  1  0
  7 43  1  0
 43 44  1  0
 43 45  2  0
 45 46  1  0
 45  2  1  0
 41  8  1  0
 35 18  1  0
M  CHG  1  11   1
M  END
>  <UniqueID>  (73) 
7

>  <SMILES>  (73) 
CC(=O)/[N+](=c1/nc(-c2c(F)cccc2F)c(Br)n[nH]1)C1CCCCCC1

>  <Energy>  (73) 
75.71102792824183

>  <Genealogy>  (73) 
CC(=O)[NH+](c1nnc(Br)c(-c2c(F)cccc2F)n1)C1CCCCCC1 (protonated)
CC(=O)[N+](=c1nc(-c2c(F)cccc2F)c(Br)n[nH]1)C1CCCCCC1 (tautomer)
CC(=O)/[N+](=c1/nc(-c2c(F)cccc2F)c(Br)n[nH]1)C1CCCCCC1 (cis-trans isomerization)
CC(=O)/[N+](=c1/nc(-c2c(F)cccc2F)c(Br)n[nH]1)C1CCCCCC1 (3D coordinates assigned)
CC(=O)/[N+](=c1/nc(-c2c(F)cccc2F)c(Br)n[nH]1)C1CCCCCC1 (nonaromatic ring conformer: 75.71102792824183 kcal/mol)

>  <smiles>  (73) 
CC(=O)N(c1nnc(Br)c(-c2c(F)cccc2F)n1)C1CCCCCC1

>  <score_type>  (73) 
oracle

>  <origin>  (73) 
autodockgpu

>  <m_score__min__energy>  (73) 
-4.4000000000000004

>  <m_primary>  (73) 
energy

>  <meeko>  (73) 
{"free_energy": -3.93, "intermolecular_energy": -6.62, "internal_energy": -2.39, "cluster_size": 9, "cluster_id": 3, "rank_in_cluster": 4}

>  <energy>  (73) 
-3.88

>  <cluster_rmsd>  (73) 
0.57

>  <rmsd>  (73) 
273.1

>  <cluster>  (73) 
3

$$$$
VCUSMEIKIQENRV-OLELRBRINA-O
     RDKit          3D

 46 48  0  0  0  0  0  0  0  0999 V2000
  139.2310   73.1432  222.1973 H   0  0  0  0  0  0  0  0  0  0  0  0
  139.7510   73.9270  221.6270 C   0  0  0  0  0  0  0  0  0  0  0  0
  139.0150   74.9120  220.9630 C   0  0  0  0  0  0  0  0  0  0  0  0
  137.9160   74.9007  221.0091 H   0  0  0  0  0  0  0  0  0  0  0  0
  139.6730   75.9120  220.2400 C   0  0  0  0  0  0  0  0  0  0  0  0
  138.9410   76.8600  219.6020 F   0  0  0  0  0  0  0  0  0  0  0  0
  141.0780   75.9390  220.1900 C   0  0  0  0  0  0  0  0  0  0  0  0
  141.7650   76.9740  219.3940 C   0  0  0  0  0  0  0  0  0  0  0  0
  141.5940   78.2760  219.7320 N   0  0  0  0  0  0  0  0  0  0  0  0
  142.1860   79.2880  219.0420 C   0  0  0  0  0  0  0  0  0  0  0  0
  141.9730   80.5440  219.3980 N   0  0  0  0  0  0  0  0  0  0  0  0
  142.0370   81.6120  218.4310 C   0  0  0  0  0  0  0  0  0  0  0  0
  143.1230   81.8610  217.8390 O   0  0  0  0  0  0  0  0  0  0  0  0
  140.8460   82.4780  218.1750 C   0  0  0  0  0  0  0  0  0  0  0  0
  140.4102   82.7949  219.1340 H   0  0  0  0  0  0  0  0  0  0  0  0
  141.1538   83.3646  217.6013 H   0  0  0  0  0  0  0  0  0  0  0  0
  140.0975   81.9118  217.6013 H   0  0  0  0  0  0  0  0  0  0  0  0
  141.6940   80.9410  220.8040 C   0  0  0  0  0  0  0  0  0  0  0  0
  141.9870   81.9897  220.9600 H   0  0  0  0  0  0  0  0  0  0  0  0
  142.5810   80.1320  221.7870 C   0  0  0  0  0  0  0  0  0  0  0  0
  142.2834   79.0746  221.7285 H   0  0  0  0  0  0  0  0  0  0  0  0
  143.6239   80.3013  221.4811 H   0  0  0  0  0  0  0  0  0  0  0  0
  142.4750   80.5820  223.2570 C   0  0  0  0  0  0  0  0  0  0  0  0
  143.0446   79.8691  223.8712 H   0  0  0  0  0  0  0  0  0  0  0  0
  142.8693   81.6085  223.2871 H   0  0  0  0  0  0  0  0  0  0  0  0
  141.0490   80.6620  223.8250 C   0  0  0  0  0  0  0  0  0  0  0  0
  141.1117   80.5874  224.9207 H   0  0  0  0  0  0  0  0  0  0  0  0
  140.6300   81.6189  223.4802 H   0  0  0  0  0  0  0  0  0  0  0  0
  140.0970   79.5650  223.3240 C   0  0  0  0  0  0  0  0  0  0  0  0
  140.6106   78.5982  223.4317 H   0  0  0  0  0  0  0  0  0  0  0  0
  139.1864   79.6601  223.9338 H   0  0  0  0  0  0  0  0  0  0  0  0
  139.6320   79.6930  221.8560 C   0  0  0  0  0  0  0  0  0  0  0  0
  139.9693   78.7979  221.3128 H   0  0  0  0  0  0  0  0  0  0  0  0
  138.5377   79.7995  221.8904 H   0  0  0  0  0  0  0  0  0  0  0  0
  140.1590   80.9320  221.1070 C   0  0  0  0  0  0  0  0  0  0  0  0
  139.6250   80.9992  220.1477 H   0  0  0  0  0  0  0  0  0  0  0  0
  139.9813   81.7854  221.7779 H   0  0  0  0  0  0  0  0  0  0  0  0
  142.9700   78.9610  217.9660 N   0  0  0  0  0  0  0  0  0  0  0  0
  143.4260   79.6870  217.3710 H   0  0  0  0  0  0  0  0  0  0  0  0
  143.1690   77.6870  217.6270 N   0  0  0  0  0  0  0  0  0  0  0  0
  142.5950   76.6670  218.3100 C   0  0  0  0  0  0  0  0  0  0  0  0
  143.0040   74.8670  217.7960 Br  0  0  0  0  0  0  0  0  0  0  0  0
  141.8120   74.9340  220.8460 C   0  0  0  0  0  0  0  0  0  0  0  0
  143.1660   74.9000  220.7640 F   0  0  0  0  0  0  0  0  0  0  0  0
  141.1460   73.9370  221.5670 C   0  0  0  0  0  0  0  0  0  0  0  0
  141.7230   73.1588  222.0881 H   0  0  0  0  0  0  0  0  0  0  0  0
  1  2  1  0
  2  3  2  0
  3  4  1  0
  3  5  1  0
  5  6  1  0
  5  7  2  0
  7  8  1  0
  8  9  2  0
  9 10  1  0
 10 11  2  0
 11 12  1  0
 12 13  2  0
 12 14  1  0
 14 15  1  0
 14 16  1  0
 14 17  1  0
 11 18  1  0
 18 19  1  0
 18 20  1  0
 20 21  1  0
 20 22  1  0
 20 23  1  0
 23 24  1  0
 23 25  1  0
 23 26  1  0
 26 27  1  0
 26 28  1  0
 26 29  1  0
 29 30  1  0
 29 31  1  0
 29 32  1  0
 32 33  1  0
 32 34  1  0
 32 35  1  0
 35 36  1  0
 35 37  1  0
 10 38  1  0
 38 39  1  0
 38 40  1  0
 40 41  2  0
 41 42  1  0
  7 43  1  0
 43 44  1  0
 43 45  2  0
 45 46  1  0
 45  2  1  0
 41  8  1  0
 35 18  1  0
M  CHG  1  11   1
M  END
>  <UniqueID>  (74) 
7

>  <SMILES>  (74) 
CC(=O)/[N+](=c1/nc(-c2c(F)cccc2F)c(Br)n[nH]1)C1CCCCCC1

>  <Energy>  (74) 
75.71102792824183

>  <Genealogy>  (74) 
CC(=O)[NH+](c1nnc(Br)c(-c2c(F)cccc2F)n1)C1CCCCCC1 (protonated)
CC(=O)[N+](=c1nc(-c2c(F)cccc2F)c(Br)n[nH]1)C1CCCCCC1 (tautomer)
CC(=O)/[N+](=c1/nc(-c2c(F)cccc2F)c(Br)n[nH]1)C1CCCCCC1 (cis-trans isomerization)
CC(=O)/[N+](=c1/nc(-c2c(F)cccc2F)c(Br)n[nH]1)C1CCCCCC1 (3D coordinates assigned)
CC(=O)/[N+](=c1/nc(-c2c(F)cccc2F)c(Br)n[nH]1)C1CCCCCC1 (nonaromatic ring conformer: 75.71102792824183 kcal/mol)

>  <smiles>  (74) 
CC(=O)N(c1nnc(Br)c(-c2c(F)cccc2F)n1)C1CCCCCC1

>  <score_type>  (74) 
oracle

>  <origin>  (74) 
autodockgpu

>  <m_score__min__energy>  (74) 
-4.4000000000000004

>  <m_primary>  (74) 
energy

>  <meeko>  (74) 
{"free_energy": -4.19, "intermolecular_energy": -6.87, "internal_energy": -2.05, "cluster_size": 6, "cluster_id": 2, "rank_in_cluster": 5}

>  <energy>  (74) 
-3.67

>  <cluster_rmsd>  (74) 
0.46

>  <rmsd>  (74) 
273.14

>  <cluster>  (74) 
3

$$$$
VCUSMEIKIQENRV-OLELRBRINA-O
     RDKit          3D

 46 48  0  0  0  0  0  0  0  0999 V2000
  136.1741   84.3148  222.8200 H   0  0  0  0  0  0  0  0  0  0  0  0
  136.4260   83.2440  222.8260 C   0  0  0  0  0  0  0  0  0  0  0  0
  136.2430   82.4770  221.6730 C   0  0  0  0  0  0  0  0  0  0  0  0
  135.8429   82.9443  220.7611 H   0  0  0  0  0  0  0  0  0  0  0  0
  136.5670   81.1170  221.6750 C   0  0  0  0  0  0  0  0  0  0  0  0
  136.3830   80.3890  220.5440 F   0  0  0  0  0  0  0  0  0  0  0  0
  137.0920   80.5170  222.8340 C   0  0  0  0  0  0  0  0  0  0  0  0
  137.3950   79.0730  222.8410 C   0  0  0  0  0  0  0  0  0  0  0  0
  138.6600   78.6730  222.5660 N   0  0  0  0  0  0  0  0  0  0  0  0
  139.0170   77.3600  222.5440 C   0  0  0  0  0  0  0  0  0  0  0  0
  140.2600   77.0170  222.2500 N   0  0  0  0  0  0  0  0  0  0  0  0
  140.5570   75.7420  221.6450 C   0  0  0  0  0  0  0  0  0  0  0  0
  140.3060   74.6750  222.2700 O   0  0  0  0  0  0  0  0  0  0  0  0
  141.2290   75.6720  220.3110 C   0  0  0  0  0  0  0  0  0  0  0  0
  142.3140   75.5590  220.4525 H   0  0  0  0  0  0  0  0  0  0  0  0
  140.8406   74.8094  219.7496 H   0  0  0  0  0  0  0  0  0  0  0  0
  141.0267   76.5961  219.7496 H   0  0  0  0  0  0  0  0  0  0  0  0
  141.4240   77.8920  222.5530 C   0  0  0  0  0  0  0  0  0  0  0  0
  142.3025   77.2738  222.7897 H   0  0  0  0  0  0  0  0  0  0  0  0
  141.1660   78.7210  223.8400 C   0  0  0  0  0  0  0  0  0  0  0  0
  140.0988   78.6396  224.0937 H   0  0  0  0  0  0  0  0  0  0  0  0
  141.8241   78.3066  224.6179 H   0  0  0  0  0  0  0  0  0  0  0  0
  141.5190   80.2150  223.7150 C   0  0  0  0  0  0  0  0  0  0  0  0
  141.5806   80.6341  224.7302 H   0  0  0  0  0  0  0  0  0  0  0  0
  142.4672   80.2543  223.1589 H   0  0  0  0  0  0  0  0  0  0  0  0
  140.5250   81.0680  222.9110 C   0  0  0  0  0  0  0  0  0  0  0  0
  139.5118   80.6832  223.0993 H   0  0  0  0  0  0  0  0  0  0  0  0
  140.6613   82.1063  223.2476 H   0  0  0  0  0  0  0  0  0  0  0  0
  140.7640   81.0670  221.3920 C   0  0  0  0  0  0  0  0  0  0  0  0
  139.9499   81.6383  220.9221 H   0  0  0  0  0  0  0  0  0  0  0  0
  141.7617   81.5068  221.2468 H   0  0  0  0  0  0  0  0  0  0  0  0
  140.8170   79.6760  220.7190 C   0  0  0  0  0  0  0  0  0  0  0  0
  139.8277   79.2074  220.8277 H   0  0  0  0  0  0  0  0  0  0  0  0
  141.1063   79.8539  219.6727 H   0  0  0  0  0  0  0  0  0  0  0  0
  141.8690   78.7080  221.2950 C   0  0  0  0  0  0  0  0  0  0  0  0
  142.1371   77.9912  220.5048 H   0  0  0  0  0  0  0  0  0  0  0  0
  142.7062   79.3390  221.6280 H   0  0  0  0  0  0  0  0  0  0  0  0
  138.0480   76.4250  222.8020 N   0  0  0  0  0  0  0  0  0  0  0  0
  138.2420   75.4010  222.7680 H   0  0  0  0  0  0  0  0  0  0  0  0
  136.8010   76.7970  223.0960 N   0  0  0  0  0  0  0  0  0  0  0  0
  136.4320   78.1010  223.1310 C   0  0  0  0  0  0  0  0  0  0  0  0
  134.6380   78.5370  223.6400 Br  0  0  0  0  0  0  0  0  0  0  0  0
  137.2550   81.2910  223.9970 C   0  0  0  0  0  0  0  0  0  0  0  0
  137.7020   80.7250  225.1480 F   0  0  0  0  0  0  0  0  0  0  0  0
  136.9290   82.6510  223.9870 C   0  0  0  0  0  0  0  0  0  0  0  0
  137.0689   83.2554  224.8954 H   0  0  0  0  0  0  0  0  0  0  0  0
  1  2  1  0
  2  3  2  0
  3  4  1  0
  3  5  1  0
  5  6  1  0
  5  7  2  0
  7  8  1  0
  8  9  2  0
  9 10  1  0
 10 11  2  0
 11 12  1  0
 12 13  2  0
 12 14  1  0
 14 15  1  0
 14 16  1  0
 14 17  1  0
 11 18  1  0
 18 19  1  0
 18 20  1  0
 20 21  1  0
 20 22  1  0
 20 23  1  0
 23 24  1  0
 23 25  1  0
 23 26  1  0
 26 27  1  0
 26 28  1  0
 26 29  1  0
 29 30  1  0
 29 31  1  0
 29 32  1  0
 32 33  1  0
 32 34  1  0
 32 35  1  0
 35 36  1  0
 35 37  1  0
 10 38  1  0
 38 39  1  0
 38 40  1  0
 40 41  2  0
 41 42  1  0
  7 43  1  0
 43 44  1  0
 43 45  2  0
 45 46  1  0
 45  2  1  0
 41  8  1  0
 35 18  1  0
M  CHG  1  11   1
M  END
>  <UniqueID>  (75) 
7

>  <SMILES>  (75) 
CC(=O)/[N+](=c1/nc(-c2c(F)cccc2F)c(Br)n[nH]1)C1CCCCCC1

>  <Energy>  (75) 
75.71102792824183

>  <Genealogy>  (75) 
CC(=O)[NH+](c1nnc(Br)c(-c2c(F)cccc2F)n1)C1CCCCCC1 (protonated)
CC(=O)[N+](=c1nc(-c2c(F)cccc2F)c(Br)n[nH]1)C1CCCCCC1 (tautomer)
CC(=O)/[N+](=c1/nc(-c2c(F)cccc2F)c(Br)n[nH]1)C1CCCCCC1 (cis-trans isomerization)
CC(=O)/[N+](=c1/nc(-c2c(F)cccc2F)c(Br)n[nH]1)C1CCCCCC1 (3D coordinates assigned)
CC(=O)/[N+](=c1/nc(-c2c(F)cccc2F)c(Br)n[nH]1)C1CCCCCC1 (nonaromatic ring conformer: 75.71102792824183 kcal/mol)

>  <smiles>  (75) 
CC(=O)N(c1nnc(Br)c(-c2c(F)cccc2F)n1)C1CCCCCC1

>  <score_type>  (75) 
oracle

>  <origin>  (75) 
autodockgpu

>  <m_score__min__energy>  (75) 
-4.4000000000000004

>  <m_primary>  (75) 
energy

>  <meeko>  (75) 
{"free_energy": -3.64, "intermolecular_energy": -6.32, "internal_energy": -2.49, "cluster_size": 9, "cluster_id": 3, "rank_in_cluster": 8}

>  <energy>  (75) 
-3.64

>  <cluster_rmsd>  (75) 
0.89

>  <rmsd>  (75) 
273.14

>  <cluster>  (75) 
3

$$$$
VCUSMEIKIQENRV-OLELRBRINA-O
     RDKit          3D

 46 48  0  0  0  0  0  0  0  0999 V2000
  145.0686   73.6362  216.6341 H   0  0  0  0  0  0  0  0  0  0  0  0
  144.4510   74.0920  217.4220 C   0  0  0  0  0  0  0  0  0  0  0  0
  143.5050   75.0650  217.0910 C   0  0  0  0  0  0  0  0  0  0  0  0
  143.3820   75.3778  216.0436 H   0  0  0  0  0  0  0  0  0  0  0  0
  142.7140   75.6420  218.0900 C   0  0  0  0  0  0  0  0  0  0  0  0
  141.7990   76.5850  217.7490 F   0  0  0  0  0  0  0  0  0  0  0  0
  142.8580   75.2360  219.4280 C   0  0  0  0  0  0  0  0  0  0  0  0
  142.0480   75.8770  220.4820 C   0  0  0  0  0  0  0  0  0  0  0  0
  142.1800   77.2110  220.6840 N   0  0  0  0  0  0  0  0  0  0  0  0
  141.4750   77.8730  221.6410 C   0  0  0  0  0  0  0  0  0  0  0  0
  141.6530   79.1720  221.8140 N   0  0  0  0  0  0  0  0  0  0  0  0
  141.6830   79.7490  223.1350 C   0  0  0  0  0  0  0  0  0  0  0  0
  140.6610   79.6920  223.8710 O   0  0  0  0  0  0  0  0  0  0  0  0
  142.8940   80.4830  223.6150 C   0  0  0  0  0  0  0  0  0  0  0  0
  142.9062   80.4904  224.7149 H   0  0  0  0  0  0  0  0  0  0  0  0
  143.7989   79.9812  223.2416 H   0  0  0  0  0  0  0  0  0  0  0  0
  142.8678   81.5174  223.2416 H   0  0  0  0  0  0  0  0  0  0  0  0
  141.7920   80.1190  220.6750 C   0  0  0  0  0  0  0  0  0  0  0  0
  142.8529   80.2199  220.4022 H   0  0  0  0  0  0  0  0  0  0  0  0
  141.3540   81.5480  221.0940 C   0  0  0  0  0  0  0  0  0  0  0  0
  140.4963   81.4588  221.7769 H   0  0  0  0  0  0  0  0  0  0  0  0
  142.2291   82.0197  221.5649 H   0  0  0  0  0  0  0  0  0  0  0  0
  140.9430   82.4560  219.9200 C   0  0  0  0  0  0  0  0  0  0  0  0
  139.9636   82.1137  219.5544 H   0  0  0  0  0  0  0  0  0  0  0  0
  140.9354   83.4804  220.3207 H   0  0  0  0  0  0  0  0  0  0  0  0
  141.9110   82.4790  218.7270 C   0  0  0  0  0  0  0  0  0  0  0  0
  141.8656   83.4770  218.2667 H   0  0  0  0  0  0  0  0  0  0  0  0
  142.9064   82.2350  219.1265 H   0  0  0  0  0  0  0  0  0  0  0  0
  141.6070   81.4340  217.6400 C   0  0  0  0  0  0  0  0  0  0  0  0
  140.5604   81.5670  217.3286 H   0  0  0  0  0  0  0  0  0  0  0  0
  142.3409   81.6152  216.8409 H   0  0  0  0  0  0  0  0  0  0  0  0
  141.7940   79.9560  218.0500 C   0  0  0  0  0  0  0  0  0  0  0  0
  141.3742   79.3256  217.2523 H   0  0  0  0  0  0  0  0  0  0  0  0
  142.8747   79.8141  218.1983 H   0  0  0  0  0  0  0  0  0  0  0  0
  141.1230   79.5550  219.3780 C   0  0  0  0  0  0  0  0  0  0  0  0
  140.0828   79.9117  219.3520 H   0  0  0  0  0  0  0  0  0  0  0  0
  141.2186   78.4611  219.4433 H   0  0  0  0  0  0  0  0  0  0  0  0
  140.6150   77.1470  222.4250 N   0  0  0  0  0  0  0  0  0  0  0  0
  140.0700   77.5820  223.2000 H   0  0  0  0  0  0  0  0  0  0  0  0
  140.4540   75.8370  222.2310 N   0  0  0  0  0  0  0  0  0  0  0  0
  141.1410   75.1660  221.2750 C   0  0  0  0  0  0  0  0  0  0  0  0
  140.7820   73.3010  221.0220 Br  0  0  0  0  0  0  0  0  0  0  0  0
  143.8260   74.2700  219.7560 C   0  0  0  0  0  0  0  0  0  0  0  0
  144.0300   73.9040  221.0470 F   0  0  0  0  0  0  0  0  0  0  0  0
  144.6140   73.6970  218.7510 C   0  0  0  0  0  0  0  0  0  0  0  0
  145.3632   72.9340  219.0089 H   0  0  0  0  0  0  0  0  0  0  0  0
  1  2  1  0
  2  3  2  0
  3  4  1  0
  3  5  1  0
  5  6  1  0
  5  7  2  0
  7  8  1  0
  8  9  2  0
  9 10  1  0
 10 11  2  0
 11 12  1  0
 12 13  2  0
 12 14  1  0
 14 15  1  0
 14 16  1  0
 14 17  1  0
 11 18  1  0
 18 19  1  0
 18 20  1  0
 20 21  1  0
 20 22  1  0
 20 23  1  0
 23 24  1  0
 23 25  1  0
 23 26  1  0
 26 27  1  0
 26 28  1  0
 26 29  1  0
 29 30  1  0
 29 31  1  0
 29 32  1  0
 32 33  1  0
 32 34  1  0
 32 35  1  0
 35 36  1  0
 35 37  1  0
 10 38  1  0
 38 39  1  0
 38 40  1  0
 40 41  2  0
 41 42  1  0
  7 43  1  0
 43 44  1  0
 43 45  2  0
 45 46  1  0
 45  2  1  0
 41  8  1  0
 35 18  1  0
M  CHG  1  11   1
M  END
>  <UniqueID>  (76) 
7

>  <SMILES>  (76) 
CC(=O)/[N+](=c1/nc(-c2c(F)cccc2F)c(Br)n[nH]1)C1CCCCCC1

>  <Energy>  (76) 
75.71102792824183

>  <Genealogy>  (76) 
CC(=O)[NH+](c1nnc(Br)c(-c2c(F)cccc2F)n1)C1CCCCCC1 (protonated)
CC(=O)[N+](=c1nc(-c2c(F)cccc2F)c(Br)n[nH]1)C1CCCCCC1 (tautomer)
CC(=O)/[N+](=c1/nc(-c2c(F)cccc2F)c(Br)n[nH]1)C1CCCCCC1 (cis-trans isomerization)
CC(=O)/[N+](=c1/nc(-c2c(F)cccc2F)c(Br)n[nH]1)C1CCCCCC1 (3D coordinates assigned)
CC(=O)/[N+](=c1/nc(-c2c(F)cccc2F)c(Br)n[nH]1)C1CCCCCC1 (nonaromatic ring conformer: 75.71102792824183 kcal/mol)

>  <smiles>  (76) 
CC(=O)N(c1nnc(Br)c(-c2c(F)cccc2F)n1)C1CCCCCC1

>  <score_type>  (76) 
oracle

>  <origin>  (76) 
autodockgpu

>  <m_score__min__energy>  (76) 
-4.4000000000000004

>  <m_primary>  (76) 
energy

>  <meeko>  (76) 
{"free_energy": -3.94, "intermolecular_energy": -6.62, "internal_energy": -1.79, "cluster_size": 1, "cluster_id": 5, "rank_in_cluster": 1}

>  <energy>  (76) 
-3.56

>  <cluster_rmsd>  (76) 
0.9

>  <rmsd>  (76) 
273.31

>  <cluster>  (76) 
3

$$$$
VCUSMEIKIQENRV-OLELRBRINA-O
     RDKit          3D

 46 48  0  0  0  0  0  0  0  0999 V2000
  140.4428   72.3853  221.8390 H   0  0  0  0  0  0  0  0  0  0  0  0
  140.7910   73.2600  221.2700 C   0  0  0  0  0  0  0  0  0  0  0  0
  142.1560   73.5490  221.2000 C   0  0  0  0  0  0  0  0  0  0  0  0
  142.8811   72.9034  221.7172 H   0  0  0  0  0  0  0  0  0  0  0  0
  142.6020   74.6570  220.4740 C   0  0  0  0  0  0  0  0  0  0  0  0
  143.9320   74.9210  220.4160 F   0  0  0  0  0  0  0  0  0  0  0  0
  141.6810   75.4770  219.7990 C   0  0  0  0  0  0  0  0  0  0  0  0
  142.1550   76.6670  219.0660 C   0  0  0  0  0  0  0  0  0  0  0  0
  141.7790   77.8940  219.5030 N   0  0  0  0  0  0  0  0  0  0  0  0
  142.1670   79.0380  218.8770 C   0  0  0  0  0  0  0  0  0  0  0  0
  141.7580   80.2110  219.3300 N   0  0  0  0  0  0  0  0  0  0  0  0
  141.7910   81.3840  218.4920 C   0  0  0  0  0  0  0  0  0  0  0  0
  142.8950   81.8230  218.0660 O   0  0  0  0  0  0  0  0  0  0  0  0
  140.5340   82.1320  218.1820 C   0  0  0  0  0  0  0  0  0  0  0  0
  140.0410   82.4254  219.1205 H   0  0  0  0  0  0  0  0  0  0  0  0
  140.7774   83.0323  217.5987 H   0  0  0  0  0  0  0  0  0  0  0  0
  139.8588   81.4886  217.5987 H   0  0  0  0  0  0  0  0  0  0  0  0
  141.2790   80.4080  220.7240 C   0  0  0  0  0  0  0  0  0  0  0  0
  141.2646   81.4812  220.9647 H   0  0  0  0  0  0  0  0  0  0  0  0
  142.2770   79.7880  221.7380 C   0  0  0  0  0  0  0  0  0  0  0  0
  141.9225   78.7794  221.9972 H   0  0  0  0  0  0  0  0  0  0  0  0
  143.2615   79.7828  221.2473 H   0  0  0  0  0  0  0  0  0  0  0  0
  142.4390   80.5920  223.0420 C   0  0  0  0  0  0  0  0  0  0  0  0
  143.1133   80.0297  223.7046 H   0  0  0  0  0  0  0  0  0  0  0  0
  142.8283   81.5761  222.7420 H   0  0  0  0  0  0  0  0  0  0  0  0
  141.1410   80.8720  223.8160 C   0  0  0  0  0  0  0  0  0  0  0  0
  141.3566   80.7855  224.8912 H   0  0  0  0  0  0  0  0  0  0  0  0
  140.8132   81.8803  223.5229 H   0  0  0  0  0  0  0  0  0  0  0  0
  139.9820   79.9210  223.4810 C   0  0  0  0  0  0  0  0  0  0  0  0
  140.4066   78.9205  223.3118 H   0  0  0  0  0  0  0  0  0  0  0  0
  139.2941   79.9811  224.3373 H   0  0  0  0  0  0  0  0  0  0  0  0
  139.1350   80.2900  222.2420 C   0  0  0  0  0  0  0  0  0  0  0  0
  138.1847   79.7394  222.3031 H   0  0  0  0  0  0  0  0  0  0  0  0
  139.0122   81.3828  222.2705 H   0  0  0  0  0  0  0  0  0  0  0  0
  139.7860   79.9680  220.8830 C   0  0  0  0  0  0  0  0  0  0  0  0
  139.7370   78.8792  220.7344 H   0  0  0  0  0  0  0  0  0  0  0  0
  139.2221   80.5462  220.1362 H   0  0  0  0  0  0  0  0  0  0  0  0
  142.9560   78.9250  217.7610 N   0  0  0  0  0  0  0  0  0  0  0  0
  143.2610   79.7560  217.2110 H   0  0  0  0  0  0  0  0  0  0  0  0
  143.3550   77.7290  217.3240 N   0  0  0  0  0  0  0  0  0  0  0  0
  142.9850   76.5810  217.9430 C   0  0  0  0  0  0  0  0  0  0  0  0
  143.6730   74.9180  217.2860 Br  0  0  0  0  0  0  0  0  0  0  0  0
  140.3060   75.1910  219.8890 C   0  0  0  0  0  0  0  0  0  0  0  0
  139.3900   76.0000  219.2990 F   0  0  0  0  0  0  0  0  0  0  0  0
  139.8680   74.0810  220.6180 C   0  0  0  0  0  0  0  0  0  0  0  0
  138.7934   73.8537  220.6782 H   0  0  0  0  0  0  0  0  0  0  0  0
  1  2  1  0
  2  3  2  0
  3  4  1  0
  3  5  1  0
  5  6  1  0
  5  7  2  0
  7  8  1  0
  8  9  2  0
  9 10  1  0
 10 11  2  0
 11 12  1  0
 12 13  2  0
 12 14  1  0
 14 15  1  0
 14 16  1  0
 14 17  1  0
 11 18  1  0
 18 19  1  0
 18 20  1  0
 20 21  1  0
 20 22  1  0
 20 23  1  0
 23 24  1  0
 23 25  1  0
 23 26  1  0
 26 27  1  0
 26 28  1  0
 26 29  1  0
 29 30  1  0
 29 31  1  0
 29 32  1  0
 32 33  1  0
 32 34  1  0
 32 35  1  0
 35 36  1  0
 35 37  1  0
 10 38  1  0
 38 39  1  0
 38 40  1  0
 40 41  2  0
 41 42  1  0
  7 43  1  0
 43 44  1  0
 43 45  2  0
 45 46  1  0
 45  2  1  0
 41  8  1  0
 35 18  1  0
M  CHG  1  11   1
M  END
>  <UniqueID>  (77) 
7

>  <SMILES>  (77) 
CC(=O)/[N+](=c1/nc(-c2c(F)cccc2F)c(Br)n[nH]1)C1CCCCCC1

>  <Energy>  (77) 
75.71102792824183

>  <Genealogy>  (77) 
CC(=O)[NH+](c1nnc(Br)c(-c2c(F)cccc2F)n1)C1CCCCCC1 (protonated)
CC(=O)[N+](=c1nc(-c2c(F)cccc2F)c(Br)n[nH]1)C1CCCCCC1 (tautomer)
CC(=O)/[N+](=c1/nc(-c2c(F)cccc2F)c(Br)n[nH]1)C1CCCCCC1 (cis-trans isomerization)
CC(=O)/[N+](=c1/nc(-c2c(F)cccc2F)c(Br)n[nH]1)C1CCCCCC1 (3D coordinates assigned)
CC(=O)/[N+](=c1/nc(-c2c(F)cccc2F)c(Br)n[nH]1)C1CCCCCC1 (nonaromatic ring conformer: 75.71102792824183 kcal/mol)

>  <smiles>  (77) 
CC(=O)N(c1nnc(Br)c(-c2c(F)cccc2F)n1)C1CCCCCC1

>  <score_type>  (77) 
oracle

>  <origin>  (77) 
autodockgpu

>  <m_score__min__energy>  (77) 
-4.4000000000000004

>  <m_primary>  (77) 
energy

>  <meeko>  (77) 
{"free_energy": -4.2, "intermolecular_energy": -6.88, "internal_energy": -1.87, "cluster_size": 6, "cluster_id": 2, "rank_in_cluster": 4}

>  <energy>  (77) 
-4.05

>  <cluster_rmsd>  (77) 
0.0

>  <rmsd>  (77) 
272.76

>  <cluster>  (77) 
4

$$$$
VCUSMEIKIQENRV-OLELRBRINA-O
     RDKit          3D

 46 48  0  0  0  0  0  0  0  0999 V2000
  142.2262   71.6229  221.2230 H   0  0  0  0  0  0  0  0  0  0  0  0
  142.3430   72.5780  220.6900 C   0  0  0  0  0  0  0  0  0  0  0  0
  141.2720   73.1100  219.9670 C   0  0  0  0  0  0  0  0  0  0  0  0
  140.3143   72.5703  219.9279 H   0  0  0  0  0  0  0  0  0  0  0  0
  141.4150   74.3270  219.2930 C   0  0  0  0  0  0  0  0  0  0  0  0
  140.3620   74.8280  218.5980 F   0  0  0  0  0  0  0  0  0  0  0  0
  142.6320   75.0280  219.3510 C   0  0  0  0  0  0  0  0  0  0  0  0
  142.7890   76.2920  218.6060 C   0  0  0  0  0  0  0  0  0  0  0  0
  142.3790   77.4460  219.1880 N   0  0  0  0  0  0  0  0  0  0  0  0
  142.4800   78.6500  218.5630 C   0  0  0  0  0  0  0  0  0  0  0  0
  142.0480   79.7460  219.1640 N   0  0  0  0  0  0  0  0  0  0  0  0
  141.6100   80.8890  218.4010 C   0  0  0  0  0  0  0  0  0  0  0  0
  142.4260   81.5000  217.6590 O   0  0  0  0  0  0  0  0  0  0  0  0
  140.2130   81.4040  218.5390 C   0  0  0  0  0  0  0  0  0  0  0  0
  139.9602   81.4972  219.6055 H   0  0  0  0  0  0  0  0  0  0  0  0
  140.1362   82.3895  218.0565 H   0  0  0  0  0  0  0  0  0  0  0  0
  139.5149   80.7041  218.0565 H   0  0  0  0  0  0  0  0  0  0  0  0
  142.0200   79.8880  220.6440 C   0  0  0  0  0  0  0  0  0  0  0  0
  143.0023   79.6217  221.0613 H   0  0  0  0  0  0  0  0  0  0  0  0
  141.0340   78.8690  221.2750 C   0  0  0  0  0  0  0  0  0  0  0  0
  140.0419   79.3407  221.3326 H   0  0  0  0  0  0  0  0  0  0  0  0
  141.0484   77.9779  220.6303 H   0  0  0  0  0  0  0  0  0  0  0  0
  141.4250   78.3960  222.6870 C   0  0  0  0  0  0  0  0  0  0  0  0
  140.8714   77.4693  222.8988 H   0  0  0  0  0  0  0  0  0  0  0  0
  142.5174   78.2677  222.6694 H   0  0  0  0  0  0  0  0  0  0  0  0
  141.1370   79.3890  223.8240 C   0  0  0  0  0  0  0  0  0  0  0  0
  140.0461   79.4826  223.9299 H   0  0  0  0  0  0  0  0  0  0  0  0
  141.6241   78.9838  224.7232 H   0  0  0  0  0  0  0  0  0  0  0  0
  141.7200   80.7940  223.6080 C   0  0  0  0  0  0  0  0  0  0  0  0
  141.5537   81.3721  224.5290 H   0  0  0  0  0  0  0  0  0  0  0  0
  142.7798   80.6388  223.3575 H   0  0  0  0  0  0  0  0  0  0  0  0
  141.1290   81.6020  222.4300 C   0  0  0  0  0  0  0  0  0  0  0  0
  140.0706   81.3224  222.3225 H   0  0  0  0  0  0  0  0  0  0  0  0
  141.2798   82.6624  222.6807 H   0  0  0  0  0  0  0  0  0  0  0  0
  141.8210   81.3810  221.0710 C   0  0  0  0  0  0  0  0  0  0  0  0
  141.2136   81.8752  220.2984 H   0  0  0  0  0  0  0  0  0  0  0  0
  142.8328   81.7989  221.1789 H   0  0  0  0  0  0  0  0  0  0  0  0
  143.0090   78.6760  217.2980 N   0  0  0  0  0  0  0  0  0  0  0  0
  143.0840   79.5570  216.7470 H   0  0  0  0  0  0  0  0  0  0  0  0
  143.4380   77.5560  216.7130 N   0  0  0  0  0  0  0  0  0  0  0  0
  143.3520   76.3500  217.3270 C   0  0  0  0  0  0  0  0  0  0  0  0
  144.0670   74.8120  216.4380 Br  0  0  0  0  0  0  0  0  0  0  0  0
  143.7130   74.4780  220.0650 C   0  0  0  0  0  0  0  0  0  0  0  0
  144.9180   75.1010  220.0870 F   0  0  0  0  0  0  0  0  0  0  0  0
  143.5620   73.2590  220.7360 C   0  0  0  0  0  0  0  0  0  0  0  0
  144.4055   72.8359  221.3012 H   0  0  0  0  0  0  0  0  0  0  0  0
  1  2  1  0
  2  3  2  0
  3  4  1  0
  3  5  1  0
  5  6  1  0
  5  7  2  0
  7  8  1  0
  8  9  2  0
  9 10  1  0
 10 11  2  0
 11 12  1  0
 12 13  2  0
 12 14  1  0
 14 15  1  0
 14 16  1  0
 14 17  1  0
 11 18  1  0
 18 19  1  0
 18 20  1  0
 20 21  1  0
 20 22  1  0
 20 23  1  0
 23 24  1  0
 23 25  1  0
 23 26  1  0
 26 27  1  0
 26 28  1  0
 26 29  1  0
 29 30  1  0
 29 31  1  0
 29 32  1  0
 32 33  1  0
 32 34  1  0
 32 35  1  0
 35 36  1  0
 35 37  1  0
 10 38  1  0
 38 39  1  0
 38 40  1  0
 40 41  2  0
 41 42  1  0
  7 43  1  0
 43 44  1  0
 43 45  2  0
 45 46  1  0
 45  2  1  0
 41  8  1  0
 35 18  1  0
M  CHG  1  11   1
M  END
>  <UniqueID>  (78) 
7

>  <SMILES>  (78) 
CC(=O)/[N+](=c1/nc(-c2c(F)cccc2F)c(Br)n[nH]1)C1CCCCCC1

>  <Energy>  (78) 
75.71102792824183

>  <Genealogy>  (78) 
CC(=O)[NH+](c1nnc(Br)c(-c2c(F)cccc2F)n1)C1CCCCCC1 (protonated)
CC(=O)[N+](=c1nc(-c2c(F)cccc2F)c(Br)n[nH]1)C1CCCCCC1 (tautomer)
CC(=O)/[N+](=c1/nc(-c2c(F)cccc2F)c(Br)n[nH]1)C1CCCCCC1 (cis-trans isomerization)
CC(=O)/[N+](=c1/nc(-c2c(F)cccc2F)c(Br)n[nH]1)C1CCCCCC1 (3D coordinates assigned)
CC(=O)/[N+](=c1/nc(-c2c(F)cccc2F)c(Br)n[nH]1)C1CCCCCC1 (nonaromatic ring conformer: 75.71102792824183 kcal/mol)

>  <smiles>  (78) 
CC(=O)N(c1nnc(Br)c(-c2c(F)cccc2F)n1)C1CCCCCC1

>  <score_type>  (78) 
oracle

>  <origin>  (78) 
autodockgpu

>  <m_score__min__energy>  (78) 
-4.4000000000000004

>  <m_primary>  (78) 
energy

>  <meeko>  (78) 
{"free_energy": -4.3, "intermolecular_energy": -6.98, "internal_energy": -1.73, "cluster_size": 6, "cluster_id": 2, "rank_in_cluster": 2}

>  <energy>  (78) 
-3.71

>  <cluster_rmsd>  (78) 
0.58

>  <rmsd>  (78) 
272.77

>  <cluster>  (78) 
4

$$$$
VCUSMEIKIQENRV-OLELRBRINA-O
     RDKit          3D

 46 48  0  0  0  0  0  0  0  0999 V2000
  135.5619   83.6169  222.7228 H   0  0  0  0  0  0  0  0  0  0  0  0
  135.9260   82.5790  222.7350 C   0  0  0  0  0  0  0  0  0  0  0  0
  135.4920   81.6750  221.7620 C   0  0  0  0  0  0  0  0  0  0  0  0
  134.7819   82.0012  220.9878 H   0  0  0  0  0  0  0  0  0  0  0  0
  135.9580   80.3570  221.7700 C   0  0  0  0  0  0  0  0  0  0  0  0
  135.5260   79.4950  220.8150 F   0  0  0  0  0  0  0  0  0  0  0  0
  136.8750   79.9380  222.7500 C   0  0  0  0  0  0  0  0  0  0  0  0
  137.3330   78.5350  222.7760 C   0  0  0  0  0  0  0  0  0  0  0  0
  138.6240   78.2660  222.4640 N   0  0  0  0  0  0  0  0  0  0  0  0
  139.1200   76.9990  222.4560 C   0  0  0  0  0  0  0  0  0  0  0  0
  140.3830   76.7840  222.1260 N   0  0  0  0  0  0  0  0  0  0  0  0
  140.8070   75.5110  221.5980 C   0  0  0  0  0  0  0  0  0  0  0  0
  140.7140   74.4730  222.3080 O   0  0  0  0  0  0  0  0  0  0  0  0
  141.4270   75.4210  220.2410 C   0  0  0  0  0  0  0  0  0  0  0  0
  142.5109   75.2636  220.3428 H   0  0  0  0  0  0  0  0  0  0  0  0
  140.9842   74.5777  219.6907 H   0  0  0  0  0  0  0  0  0  0  0  0
  141.2422   76.3554  219.6907 H   0  0  0  0  0  0  0  0  0  0  0  0
  141.4430   77.8110  222.3090 C   0  0  0  0  0  0  0  0  0  0  0  0
  142.4177   77.3195  222.4447 H   0  0  0  0  0  0  0  0  0  0  0  0
  141.2150   78.6060  223.6230 C   0  0  0  0  0  0  0  0  0  0  0  0
  140.2281   79.0886  223.5664 H   0  0  0  0  0  0  0  0  0  0  0  0
  141.2906   77.8805  224.4464 H   0  0  0  0  0  0  0  0  0  0  0  0
  142.2690   79.6950  223.8980 C   0  0  0  0  0  0  0  0  0  0  0  0
  142.0111   80.1829  224.8495 H   0  0  0  0  0  0  0  0  0  0  0  0
  143.2396   79.1775  223.9121 H   0  0  0  0  0  0  0  0  0  0  0  0
  142.3910   80.7880  222.8240 C   0  0  0  0  0  0  0  0  0  0  0  0
  142.6599   81.7311  223.3223 H   0  0  0  0  0  0  0  0  0  0  0  0
  143.1567   80.4445  222.1129 H   0  0  0  0  0  0  0  0  0  0  0  0
  141.1100   81.0240  222.0080 C   0  0  0  0  0  0  0  0  0  0  0  0
  140.2648   81.0631  222.7109 H   0  0  0  0  0  0  0  0  0  0  0  0
  141.2769   81.9602  221.4552 H   0  0  0  0  0  0  0  0  0  0  0  0
  140.7870   79.9580  220.9380 C   0  0  0  0  0  0  0  0  0  0  0  0
  139.7293   79.6762  221.0466 H   0  0  0  0  0  0  0  0  0  0  0  0
  141.0210   80.4189  219.9670 H   0  0  0  0  0  0  0  0  0  0  0  0
  141.6340   78.6720  221.0170 C   0  0  0  0  0  0  0  0  0  0  0  0
  141.3762   78.0440  220.1514 H   0  0  0  0  0  0  0  0  0  0  0  0
  142.6825   79.0045  221.0311 H   0  0  0  0  0  0  0  0  0  0  0  0
  138.2660   75.9720  222.7680 N   0  0  0  0  0  0  0  0  0  0  0  0
  138.5680   74.9740  222.7480 H   0  0  0  0  0  0  0  0  0  0  0  0
  136.9970   76.2150  223.0980 N   0  0  0  0  0  0  0  0  0  0  0  0
  136.4910   77.4720  223.1190 C   0  0  0  0  0  0  0  0  0  0  0  0
  134.6770   77.7260  223.6820 Br  0  0  0  0  0  0  0  0  0  0  0  0
  137.2930   80.8470  223.7380 C   0  0  0  0  0  0  0  0  0  0  0  0
  138.1300   80.4540  224.7320 F   0  0  0  0  0  0  0  0  0  0  0  0
  136.8220   82.1650  223.7230 C   0  0  0  0  0  0  0  0  0  0  0  0
  137.1585   82.8766  224.4914 H   0  0  0  0  0  0  0  0  0  0  0  0
  1  2  1  0
  2  3  2  0
  3  4  1  0
  3  5  1  0
  5  6  1  0
  5  7  2  0
  7  8  1  0
  8  9  2  0
  9 10  1  0
 10 11  2  0
 11 12  1  0
 12 13  2  0
 12 14  1  0
 14 15  1  0
 14 16  1  0
 14 17  1  0
 11 18  1  0
 18 19  1  0
 18 20  1  0
 20 21  1  0
 20 22  1  0
 20 23  1  0
 23 24  1  0
 23 25  1  0
 23 26  1  0
 26 27  1  0
 26 28  1  0
 26 29  1  0
 29 30  1  0
 29 31  1  0
 29 32  1  0
 32 33  1  0
 32 34  1  0
 32 35  1  0
 35 36  1  0
 35 37  1  0
 10 38  1  0
 38 39  1  0
 38 40  1  0
 40 41  2  0
 41 42  1  0
  7 43  1  0
 43 44  1  0
 43 45  2  0
 45 46  1  0
 45  2  1  0
 41  8  1  0
 35 18  1  0
M  CHG  1  11   1
M  END
>  <UniqueID>  (79) 
7

>  <SMILES>  (79) 
CC(=O)/[N+](=c1/nc(-c2c(F)cccc2F)c(Br)n[nH]1)C1CCCCCC1

>  <Energy>  (79) 
75.71102792824183

>  <Genealogy>  (79) 
CC(=O)[NH+](c1nnc(Br)c(-c2c(F)cccc2F)n1)C1CCCCCC1 (protonated)
CC(=O)[N+](=c1nc(-c2c(F)cccc2F)c(Br)n[nH]1)C1CCCCCC1 (tautomer)
CC(=O)/[N+](=c1/nc(-c2c(F)cccc2F)c(Br)n[nH]1)C1CCCCCC1 (cis-trans isomerization)
CC(=O)/[N+](=c1/nc(-c2c(F)cccc2F)c(Br)n[nH]1)C1CCCCCC1 (3D coordinates assigned)
CC(=O)/[N+](=c1/nc(-c2c(F)cccc2F)c(Br)n[nH]1)C1CCCCCC1 (nonaromatic ring conformer: 75.71102792824183 kcal/mol)

>  <smiles>  (79) 
CC(=O)N(c1nnc(Br)c(-c2c(F)cccc2F)n1)C1CCCCCC1

>  <score_type>  (79) 
oracle

>  <origin>  (79) 
autodockgpu

>  <m_score__min__energy>  (79) 
-4.4000000000000004

>  <m_primary>  (79) 
energy

>  <meeko>  (79) 
{"free_energy": -3.88, "intermolecular_energy": -6.57, "internal_energy": -2.25, "cluster_size": 9, "cluster_id": 3, "rank_in_cluster": 6}

>  <energy>  (79) 
-3.94

>  <cluster_rmsd>  (79) 
0.0

>  <rmsd>  (79) 
272.52

>  <cluster>  (79) 
5

$$$$
VCUSMEIKIQENRV-OLELRBRINA-O
     RDKit          3D

 46 48  0  0  0  0  0  0  0  0999 V2000
  135.3725   83.4706  222.5605 H   0  0  0  0  0  0  0  0  0  0  0  0
  135.7250   82.4290  222.5890 C   0  0  0  0  0  0  0  0  0  0  0  0
  136.6090   82.0180  223.5900 C   0  0  0  0  0  0  0  0  0  0  0  0
  136.9546   82.7379  224.3465 H   0  0  0  0  0  0  0  0  0  0  0  0
  137.0550   80.6940  223.6320 C   0  0  0  0  0  0  0  0  0  0  0  0
  137.9130   80.3130  224.6130 F   0  0  0  0  0  0  0  0  0  0  0  0
  136.6050   79.7660  222.6760 C   0  0  0  0  0  0  0  0  0  0  0  0
  137.1100   78.3790  222.7040 C   0  0  0  0  0  0  0  0  0  0  0  0
  138.3860   78.1430  222.3140 N   0  0  0  0  0  0  0  0  0  0  0  0
  138.9210   76.8920  222.3020 C   0  0  0  0  0  0  0  0  0  0  0  0
  140.1660   76.7090  221.8940 N   0  0  0  0  0  0  0  0  0  0  0  0
  140.6100   75.4230  221.4180 C   0  0  0  0  0  0  0  0  0  0  0  0
  140.6160   74.4310  222.1970 O   0  0  0  0  0  0  0  0  0  0  0  0
  141.1370   75.2680  220.0270 C   0  0  0  0  0  0  0  0  0  0  0  0
  142.1916   74.9578  220.0669 H   0  0  0  0  0  0  0  0  0  0  0  0
  140.5501   74.5044  219.4955 H   0  0  0  0  0  0  0  0  0  0  0  0
  141.0569   76.2277  219.4955 H   0  0  0  0  0  0  0  0  0  0  0  0
  141.1880   77.7890  221.9340 C   0  0  0  0  0  0  0  0  0  0  0  0
  142.1544   77.4002  221.5806 H   0  0  0  0  0  0  0  0  0  0  0  0
  141.4540   78.2380  223.3950 C   0  0  0  0  0  0  0  0  0  0  0  0
  141.2348   77.3903  224.0608 H   0  0  0  0  0  0  0  0  0  0  0  0
  142.5059   78.5568  223.4390 H   0  0  0  0  0  0  0  0  0  0  0  0
  140.6100   79.4420  223.8540 C   0  0  0  0  0  0  0  0  0  0  0  0
  139.5644   79.2494  223.5719 H   0  0  0  0  0  0  0  0  0  0  0  0
  140.7701   79.5252  224.9391 H   0  0  0  0  0  0  0  0  0  0  0  0
  141.0160   80.8020  223.2640 C   0  0  0  0  0  0  0  0  0  0  0  0
  140.1413   81.2306  222.7529 H   0  0  0  0  0  0  0  0  0  0  0  0
  141.3645   81.4187  224.1056 H   0  0  0  0  0  0  0  0  0  0  0  0
  142.1750   80.7350  222.2590 C   0  0  0  0  0  0  0  0  0  0  0  0
  142.5299   81.7616  222.0855 H   0  0  0  0  0  0  0  0  0  0  0  0
  142.9245   80.0708  222.7142 H   0  0  0  0  0  0  0  0  0  0  0  0
  141.8440   80.1100  220.8840 C   0  0  0  0  0  0  0  0  0  0  0  0
  141.4156   80.8974  220.2464 H   0  0  0  0  0  0  0  0  0  0  0  0
  142.7893   79.6995  220.4995 H   0  0  0  0  0  0  0  0  0  0  0  0
  140.8500   78.9330  220.9210 C   0  0  0  0  0  0  0  0  0  0  0  0
  139.8603   79.3350  221.1835 H   0  0  0  0  0  0  0  0  0  0  0  0
  140.8949   78.4720  219.9233 H   0  0  0  0  0  0  0  0  0  0  0  0
  138.1230   75.8470  222.6910 N   0  0  0  0  0  0  0  0  0  0  0  0
  138.4560   74.8590  222.6740 H   0  0  0  0  0  0  0  0  0  0  0  0
  136.8710   76.0580  223.0980 N   0  0  0  0  0  0  0  0  0  0  0  0
  136.3270   77.2990  223.1250 C   0  0  0  0  0  0  0  0  0  0  0  0
  134.5460   77.5100  223.8000 Br  0  0  0  0  0  0  0  0  0  0  0  0
  135.7300   80.1910  221.6600 C   0  0  0  0  0  0  0  0  0  0  0  0
  135.3280   79.3330  220.6890 F   0  0  0  0  0  0  0  0  0  0  0  0
  135.2890   81.5180  221.6250 C   0  0  0  0  0  0  0  0  0  0  0  0
  134.5964   81.8449  220.8354 H   0  0  0  0  0  0  0  0  0  0  0  0
  1  2  1  0
  2  3  2  0
  3  4  1  0
  3  5  1  0
  5  6  1  0
  5  7  2  0
  7  8  1  0
  8  9  2  0
  9 10  1  0
 10 11  2  0
 11 12  1  0
 12 13  2  0
 12 14  1  0
 14 15  1  0
 14 16  1  0
 14 17  1  0
 11 18  1  0
 18 19  1  0
 18 20  1  0
 20 21  1  0
 20 22  1  0
 20 23  1  0
 23 24  1  0
 23 25  1  0
 23 26  1  0
 26 27  1  0
 26 28  1  0
 26 29  1  0
 29 30  1  0
 29 31  1  0
 29 32  1  0
 32 33  1  0
 32 34  1  0
 32 35  1  0
 35 36  1  0
 35 37  1  0
 10 38  1  0
 38 39  1  0
 38 40  1  0
 40 41  2  0
 41 42  1  0
  7 43  1  0
 43 44  1  0
 43 45  2  0
 45 46  1  0
 45  2  1  0
 41  8  1  0
 35 18  1  0
M  CHG  1  11   1
M  END
>  <UniqueID>  (80) 
7

>  <SMILES>  (80) 
CC(=O)/[N+](=c1/nc(-c2c(F)cccc2F)c(Br)n[nH]1)C1CCCCCC1

>  <Energy>  (80) 
75.71102792824183

>  <Genealogy>  (80) 
CC(=O)[NH+](c1nnc(Br)c(-c2c(F)cccc2F)n1)C1CCCCCC1 (protonated)
CC(=O)[N+](=c1nc(-c2c(F)cccc2F)c(Br)n[nH]1)C1CCCCCC1 (tautomer)
CC(=O)/[N+](=c1/nc(-c2c(F)cccc2F)c(Br)n[nH]1)C1CCCCCC1 (cis-trans isomerization)
CC(=O)/[N+](=c1/nc(-c2c(F)cccc2F)c(Br)n[nH]1)C1CCCCCC1 (3D coordinates assigned)
CC(=O)/[N+](=c1/nc(-c2c(F)cccc2F)c(Br)n[nH]1)C1CCCCCC1 (nonaromatic ring conformer: 75.71102792824183 kcal/mol)

>  <smiles>  (80) 
CC(=O)N(c1nnc(Br)c(-c2c(F)cccc2F)n1)C1CCCCCC1

>  <score_type>  (80) 
oracle

>  <origin>  (80) 
autodockgpu

>  <m_score__min__energy>  (80) 
-4.4000000000000004

>  <m_primary>  (80) 
energy

>  <meeko>  (80) 
{"free_energy": -3.98, "intermolecular_energy": -6.66, "internal_energy": -2.27, "cluster_size": 9, "cluster_id": 3, "rank_in_cluster": 3}

>  <energy>  (80) 
-3.53

>  <cluster_rmsd>  (80) 
0.0

>  <rmsd>  (80) 
272.47

>  <cluster>  (80) 
6

$$$$
