XSFBOMDNDOCRMT-UHFFFAOYNA-N
     RDKit          3D

 64 69  0  0  0  0  0  0  0  0999 V2000
  142.4260   81.4170  223.9320 C   0  0  0  0  0  0  0  0  0  0  0  0
  143.2710   80.4680  223.3570 C   0  0  0  0  0  0  0  0  0  0  0  0
  142.7300   79.3690  222.6860 C   0  0  0  0  0  0  0  0  0  0  0  0
  141.3280   79.2210  222.5990 C   0  0  0  0  0  0  0  0  0  0  0  0
  140.7230   78.1020  221.8990 N   0  0  0  0  0  0  0  0  0  0  0  0
  139.4150   77.5610  222.3210 C   0  0  0  0  0  0  0  0  0  0  0  0
  138.9750   76.3590  221.4770 C   0  0  0  0  0  0  0  0  0  0  0  0
  140.1010   75.4350  221.2640 N   0  0  0  0  0  0  0  0  0  0  0  0
  139.9020   74.0090  221.2600 C   0  0  0  0  0  0  0  0  0  0  0  0
  139.6920   73.3520  220.0880 N   0  0  0  0  0  0  0  0  0  0  0  0
  139.5100   72.0070  220.0660 C   0  0  0  0  0  0  0  0  0  0  0  0
  139.2680   71.3280  218.8190 N   0  0  0  0  0  0  0  0  0  0  0  0
  139.1620   69.8640  218.8150 C   0  0  0  0  0  0  0  0  0  0  0  0
  139.0870   69.3430  217.3820 C   0  0  0  0  0  0  0  0  0  0  0  0
  138.0950   70.0600  216.6830 O   0  0  0  0  0  0  0  0  0  0  0  0
  138.5120   71.3970  216.4290 C   0  0  0  0  0  0  0  0  0  0  0  0
  139.3620   72.0590  217.5450 C   0  0  0  0  0  0  0  0  0  0  0  0
  139.5370   71.3140  221.2340 N   0  0  0  0  0  0  0  0  0  0  0  0
  139.7410   71.9520  222.4180 C   0  0  0  0  0  0  0  0  0  0  0  0
  139.7500   71.2030  223.6520 N   0  0  0  0  0  0  0  0  0  0  0  0
  138.7650   70.1300  223.8760 C   0  0  0  0  0  0  0  0  0  0  0  0
  139.3730   69.0010  224.7080 C   0  0  0  0  0  0  0  0  0  0  0  0
  139.9330   69.5510  225.9840 C   0  0  0  0  0  0  0  0  0  0  0  0
  139.9050   68.7860  227.1600 C   0  0  0  0  0  0  0  0  0  0  0  0
  140.4570   69.2890  228.3400 C   0  0  0  0  0  0  0  0  0  0  0  0
  141.0530   70.5510  228.3520 C   0  0  0  0  0  0  0  0  0  0  0  0
  141.1030   71.3120  227.1810 C   0  0  0  0  0  0  0  0  0  0  0  0
  140.5410   70.8200  225.9920 C   0  0  0  0  0  0  0  0  0  0  0  0
  140.6790   71.6200  224.7180 C   0  0  0  0  0  0  0  0  0  0  0  0
  139.9240   73.2990  222.4210 N   0  0  0  0  0  0  0  0  0  0  0  0
  141.4260   75.9680  220.9100 C   0  0  0  0  0  0  0  0  0  0  0  0
  141.4010   77.4860  220.7490 C   0  0  0  0  0  0  0  0  0  0  0  0
  140.5360   80.1700  223.1780 N   0  0  0  0  0  0  0  0  0  0  0  0
  141.0440   81.2510  223.8300 C   0  0  0  0  0  0  0  0  0  0  0  0
  142.8442   82.2867  224.4601 H   0  0  0  0  0  0  0  0  0  0  0  0
  144.3622   80.5850  223.4319 H   0  0  0  0  0  0  0  0  0  0  0  0
  143.3935   78.6213  222.2269 H   0  0  0  0  0  0  0  0  0  0  0  0
  139.4865   77.2461  223.3725 H   0  0  0  0  0  0  0  0  0  0  0  0
  138.6662   78.3554  222.1859 H   0  0  0  0  0  0  0  0  0  0  0  0
  138.1654   75.8279  221.9989 H   0  0  0  0  0  0  0  0  0  0  0  0
  138.6243   76.7216  220.4995 H   0  0  0  0  0  0  0  0  0  0  0  0
  140.0447   69.4347  219.3116 H   0  0  0  0  0  0  0  0  0  0  0  0
  138.2479   69.5696  219.3515 H   0  0  0  0  0  0  0  0  0  0  0  0
  140.0598   69.4825  216.8878 H   0  0  0  0  0  0  0  0  0  0  0  0
  138.8352   68.2722  217.3892 H   0  0  0  0  0  0  0  0  0  0  0  0
  139.1092   71.3952  215.5052 H   0  0  0  0  0  0  0  0  0  0  0  0
  137.5891   71.9917  216.3618 H   0  0  0  0  0  0  0  0  0  0  0  0
  140.4141   72.0796  217.2246 H   0  0  0  0  0  0  0  0  0  0  0  0
  138.9747   73.0756  217.7081 H   0  0  0  0  0  0  0  0  0  0  0  0
  137.8962   70.5434  224.4091 H   0  0  0  0  0  0  0  0  0  0  0  0
  138.4578   69.7238  222.9010 H   0  0  0  0  0  0  0  0  0  0  0  0
  138.5942   68.2600  224.9412 H   0  0  0  0  0  0  0  0  0  0  0  0
  140.1813   68.5239  224.1343 H   0  0  0  0  0  0  0  0  0  0  0  0
  139.4464   67.7862  227.1524 H   0  0  0  0  0  0  0  0  0  0  0  0
  140.4220   68.6895  229.2616 H   0  0  0  0  0  0  0  0  0  0  0  0
  141.4836   70.9468  229.2837 H   0  0  0  0  0  0  0  0  0  0  0  0
  141.5848   72.3008  227.1907 H   0  0  0  0  0  0  0  0  0  0  0  0
  140.4884   72.6782  224.9502 H   0  0  0  0  0  0  0  0  0  0  0  0
  141.6981   71.4497  224.3406 H   0  0  0  0  0  0  0  0  0  0  0  0
  142.1395   75.7058  221.7051 H   0  0  0  0  0  0  0  0  0  0  0  0
  141.7267   75.5267  219.9483 H   0  0  0  0  0  0  0  0  0  0  0  0
  142.4326   77.8631  220.6893 H   0  0  0  0  0  0  0  0  0  0  0  0
  140.8564   77.7428  219.8284 H   0  0  0  0  0  0  0  0  0  0  0  0
  140.3660   81.9934  224.2763 H   0  0  0  0  0  0  0  0  0  0  0  0
  1  2  2  0
  2  3  1  0
  3  4  2  0
  4  5  1  0
  5  6  1  0
  6  7  1  0
  7  8  1  0
  8  9  1  0
  9 10  2  0
 10 11  1  0
 11 12  1  0
 12 13  1  0
 13 14  1  0
 14 15  1  0
 15 16  1  0
 16 17  1  0
 11 18  2  0
 18 19  1  0
 19 20  1  0
 20 21  1  0
 21 22  1  0
 22 23  1  0
 23 24  2  0
 24 25  1  0
 25 26  2  0
 26 27  1  0
 27 28  2  0
 28 29  1  0
 19 30  2  0
  8 31  1  0
 31 32  1  0
  4 33  1  0
 33 34  2  0
 34  1  1  0
 32  5  1  0
 30  9  1  0
 17 12  1  0
 29 20  1  0
 28 23  1  0
  1 35  1  0
  2 36  1  0
  3 37  1  0
  6 38  1  0
  6 39  1  0
  7 40  1  0
  7 41  1  0
 13 42  1  0
 13 43  1  0
 14 44  1  0
 14 45  1  0
 16 46  1  0
 16 47  1  0
 17 48  1  0
 17 49  1  0
 21 50  1  0
 21 51  1  0
 22 52  1  0
 22 53  1  0
 24 54  1  0
 25 55  1  0
 26 56  1  0
 27 57  1  0
 29 58  1  0
 29 59  1  0
 31 60  1  0
 31 61  1  0
 32 62  1  0
 32 63  1  0
 34 64  1  0
M  END
>  <UniqueID>  (1) 
274

>  <SMILES>  (1) 
c1ccc(N2CCN(c3nc(N4CCOCC4)nc(N4CCc5ccccc5C4)n3)CC2)nc1

>  <Energy>  (1) 
78.41600375727215

>  <Genealogy>  (1) 
c1ccc(N2CCN(c3nc(N4CCOCC4)nc(N4CCc5ccccc5C4)n3)CC2)nc1 (3D coordinates assigned)
c1ccc(N2CCN(c3nc(N4CCOCC4)nc(N4CCc5ccccc5C4)n3)CC2)nc1 (nonaromatic ring conformer: 78.41600375727215 kcal/mol)

>  <smiles>  (1) 
c1ccc(N2CCN(c3nc(N4CCOCC4)nc(N4CCc5ccccc5C4)n3)CC2)nc1

>  <score_type>  (1) 
oracle

>  <origin>  (1) 
autodockgpu

>  <m_score__min__energy>  (1) 
-8.9399999999999995

>  <m_primary>  (1) 
energy

>  <meeko>  (1) 
{"free_energy": -8.72, "intermolecular_energy": -9.92, "internal_energy": -0.9, "cluster_size": 2, "cluster_id": 2, "rank_in_cluster": 1}

>  <energy>  (1) 
-8.94

>  <cluster_rmsd>  (1) 
0.0

>  <rmsd>  (1) 
270.57

>  <cluster>  (1) 
1

$$$$
XSFBOMDNDOCRMT-UHFFFAOYNA-N
     RDKit          3D

 64 69  0  0  0  0  0  0  0  0999 V2000
  136.9420   82.0090  224.7430 C   0  0  0  0  0  0  0  0  0  0  0  0
  136.6960   82.0510  223.3700 C   0  0  0  0  0  0  0  0  0  0  0  0
  137.2370   81.0710  222.5360 C   0  0  0  0  0  0  0  0  0  0  0  0
  138.0370   80.0450  223.0840 C   0  0  0  0  0  0  0  0  0  0  0  0
  138.6070   78.9980  222.2550 N   0  0  0  0  0  0  0  0  0  0  0  0
  137.8150   77.8080  221.8830 C   0  0  0  0  0  0  0  0  0  0  0  0
  138.6150   76.8080  221.0410 C   0  0  0  0  0  0  0  0  0  0  0  0
  139.9680   76.6290  221.5940 N   0  0  0  0  0  0  0  0  0  0  0  0
  140.6080   75.3390  221.5900 C   0  0  0  0  0  0  0  0  0  0  0  0
  141.7610   75.1510  220.8930 N   0  0  0  0  0  0  0  0  0  0  0  0
  142.3810   73.9430  220.8850 C   0  0  0  0  0  0  0  0  0  0  0  0
  143.5910   73.7540  220.1260 N   0  0  0  0  0  0  0  0  0  0  0  0
  144.8090   73.3250  220.8240 C   0  0  0  0  0  0  0  0  0  0  0  0
  146.0040   73.3610  219.8750 C   0  0  0  0  0  0  0  0  0  0  0  0
  145.6680   72.6760  218.6880 O   0  0  0  0  0  0  0  0  0  0  0  0
  144.7290   73.4160  217.9170 C   0  0  0  0  0  0  0  0  0  0  0  0
  143.6690   74.2080  218.7290 C   0  0  0  0  0  0  0  0  0  0  0  0
  141.8360   72.9120  221.5810 N   0  0  0  0  0  0  0  0  0  0  0  0
  140.6810   73.0770  222.2800 C   0  0  0  0  0  0  0  0  0  0  0  0
  140.1050   71.9660  223.0010 N   0  0  0  0  0  0  0  0  0  0  0  0
  138.7720   71.4570  222.6380 C   0  0  0  0  0  0  0  0  0  0  0  0
  138.6920   69.9460  222.8490 C   0  0  0  0  0  0  0  0  0  0  0  0
  139.0800   69.6050  224.2550 C   0  0  0  0  0  0  0  0  0  0  0  0
  138.4800   68.5210  224.9150 C   0  0  0  0  0  0  0  0  0  0  0  0
  138.8680   68.1870  226.2140 C   0  0  0  0  0  0  0  0  0  0  0  0
  139.8660   68.9200  226.8580 C   0  0  0  0  0  0  0  0  0  0  0  0
  140.4820   69.9880  226.2010 C   0  0  0  0  0  0  0  0  0  0  0  0
  140.0920   70.3400  224.8990 C   0  0  0  0  0  0  0  0  0  0  0  0
  140.8280   71.4430  224.1750 C   0  0  0  0  0  0  0  0  0  0  0  0
  140.0750   74.2940  222.2800 N   0  0  0  0  0  0  0  0  0  0  0  0
  140.7400   77.8020  222.0310 C   0  0  0  0  0  0  0  0  0  0  0  0
  139.9890   79.1050  221.7640 C   0  0  0  0  0  0  0  0  0  0  0  0
  138.2570   80.0410  224.4320 N   0  0  0  0  0  0  0  0  0  0  0  0
  137.7330   80.9830  225.2620 C   0  0  0  0  0  0  0  0  0  0  0  0
  136.5176   82.7754  225.4082 H   0  0  0  0  0  0  0  0  0  0  0  0
  136.0768   82.8550  222.9456 H   0  0  0  0  0  0  0  0  0  0  0  0
  137.0404   81.0981  221.4541 H   0  0  0  0  0  0  0  0  0  0  0  0
  137.4802   77.3059  222.8027 H   0  0  0  0  0  0  0  0  0  0  0  0
  136.9644   78.1502  221.2753 H   0  0  0  0  0  0  0  0  0  0  0  0
  138.0943   75.8391  221.0393 H   0  0  0  0  0  0  0  0  0  0  0  0
  138.7001   77.1967  220.0155 H   0  0  0  0  0  0  0  0  0  0  0  0
  144.9983   74.0000  221.6717 H   0  0  0  0  0  0  0  0  0  0  0  0
  144.6703   72.2955  221.1858 H   0  0  0  0  0  0  0  0  0  0  0  0
  146.2566   74.4053  219.6394 H   0  0  0  0  0  0  0  0  0  0  0  0
  146.8709   72.8786  220.3501 H   0  0  0  0  0  0  0  0  0  0  0  0
  145.2890   74.1345  217.3005 H   0  0  0  0  0  0  0  0  0  0  0  0
  144.1665   72.6722  217.3336 H   0  0  0  0  0  0  0  0  0  0  0  0
  143.9371   75.2748  218.7170 H   0  0  0  0  0  0  0  0  0  0  0  0
  142.6877   74.0383  218.2619 H   0  0  0  0  0  0  0  0  0  0  0  0
  138.0148   71.9493  223.2658 H   0  0  0  0  0  0  0  0  0  0  0  0
  138.5889   71.6747  221.5754 H   0  0  0  0  0  0  0  0  0  0  0  0
  137.6627   69.6059  222.6622 H   0  0  0  0  0  0  0  0  0  0  0  0
  139.3815   69.4466  222.1524 H   0  0  0  0  0  0  0  0  0  0  0  0
  137.7016   67.9328  224.4071 H   0  0  0  0  0  0  0  0  0  0  0  0
  138.3860   67.3442  226.7311 H   0  0  0  0  0  0  0  0  0  0  0  0
  140.1675   68.6568  227.8826 H   0  0  0  0  0  0  0  0  0  0  0  0
  141.2768   70.5562  226.7065 H   0  0  0  0  0  0  0  0  0  0  0  0
  140.9921   72.2717  224.8795 H   0  0  0  0  0  0  0  0  0  0  0  0
  141.7710   71.0127  223.8067 H   0  0  0  0  0  0  0  0  0  0  0  0
  140.9354   77.7181  223.1102 H   0  0  0  0  0  0  0  0  0  0  0  0
  141.6801   77.8254  221.4604 H   0  0  0  0  0  0  0  0  0  0  0  0
  140.4971   79.9313  222.2828 H   0  0  0  0  0  0  0  0  0  0  0  0
  139.9738   79.2979  220.6812 H   0  0  0  0  0  0  0  0  0  0  0  0
  137.9329   80.9360  226.3427 H   0  0  0  0  0  0  0  0  0  0  0  0
  1  2  2  0
  2  3  1  0
  3  4  2  0
  4  5  1  0
  5  6  1  0
  6  7  1  0
  7  8  1  0
  8  9  1  0
  9 10  2  0
 10 11  1  0
 11 12  1  0
 12 13  1  0
 13 14  1  0
 14 15  1  0
 15 16  1  0
 16 17  1  0
 11 18  2  0
 18 19  1  0
 19 20  1  0
 20 21  1  0
 21 22  1  0
 22 23  1  0
 23 24  2  0
 24 25  1  0
 25 26  2  0
 26 27  1  0
 27 28  2  0
 28 29  1  0
 19 30  2  0
  8 31  1  0
 31 32  1  0
  4 33  1  0
 33 34  2  0
 34  1  1  0
 32  5  1  0
 30  9  1  0
 17 12  1  0
 29 20  1  0
 28 23  1  0
  1 35  1  0
  2 36  1  0
  3 37  1  0
  6 38  1  0
  6 39  1  0
  7 40  1  0
  7 41  1  0
 13 42  1  0
 13 43  1  0
 14 44  1  0
 14 45  1  0
 16 46  1  0
 16 47  1  0
 17 48  1  0
 17 49  1  0
 21 50  1  0
 21 51  1  0
 22 52  1  0
 22 53  1  0
 24 54  1  0
 25 55  1  0
 26 56  1  0
 27 57  1  0
 29 58  1  0
 29 59  1  0
 31 60  1  0
 31 61  1  0
 32 62  1  0
 32 63  1  0
 34 64  1  0
M  END
>  <UniqueID>  (2) 
274

>  <SMILES>  (2) 
c1ccc(N2CCN(c3nc(N4CCOCC4)nc(N4CCc5ccccc5C4)n3)CC2)nc1

>  <Energy>  (2) 
78.41600375727215

>  <Genealogy>  (2) 
c1ccc(N2CCN(c3nc(N4CCOCC4)nc(N4CCc5ccccc5C4)n3)CC2)nc1 (3D coordinates assigned)
c1ccc(N2CCN(c3nc(N4CCOCC4)nc(N4CCc5ccccc5C4)n3)CC2)nc1 (nonaromatic ring conformer: 78.41600375727215 kcal/mol)

>  <smiles>  (2) 
c1ccc(N2CCN(c3nc(N4CCOCC4)nc(N4CCc5ccccc5C4)n3)CC2)nc1

>  <score_type>  (2) 
oracle

>  <origin>  (2) 
autodockgpu

>  <m_score__min__energy>  (2) 
-8.9399999999999995

>  <m_primary>  (2) 
energy

>  <meeko>  (2) 
{"free_energy": -8.37, "intermolecular_energy": -9.57, "internal_energy": -0.88, "cluster_size": 18, "cluster_id": 1, "rank_in_cluster": 18}

>  <energy>  (2) 
-8.93

>  <cluster_rmsd>  (2) 
0.03

>  <rmsd>  (2) 
270.56

>  <cluster>  (2) 
1

$$$$
XSFBOMDNDOCRMT-UHFFFAOYNA-N
     RDKit          3D

 64 69  0  0  0  0  0  0  0  0999 V2000
  136.9070   81.2980  224.6130 C   0  0  0  0  0  0  0  0  0  0  0  0
  138.2850   81.0840  224.5720 C   0  0  0  0  0  0  0  0  0  0  0  0
  138.8030   80.0150  223.8390 C   0  0  0  0  0  0  0  0  0  0  0  0
  137.9280   79.1490  223.1470 C   0  0  0  0  0  0  0  0  0  0  0  0
  138.4240   78.0340  222.3610 N   0  0  0  0  0  0  0  0  0  0  0  0
  137.6290   76.7970  222.2120 C   0  0  0  0  0  0  0  0  0  0  0  0
  138.3490   75.7320  221.3790 C   0  0  0  0  0  0  0  0  0  0  0  0
  139.7640   75.6340  221.7710 N   0  0  0  0  0  0  0  0  0  0  0  0
  140.4390   74.3630  221.8140 C   0  0  0  0  0  0  0  0  0  0  0  0
  141.4690   74.1070  220.9640 N   0  0  0  0  0  0  0  0  0  0  0  0
  142.1190   72.9160  220.9970 C   0  0  0  0  0  0  0  0  0  0  0  0
  143.1960   72.6510  220.0770 N   0  0  0  0  0  0  0  0  0  0  0  0
  143.8460   73.7800  219.3990 C   0  0  0  0  0  0  0  0  0  0  0  0
  144.8250   73.2700  218.3440 C   0  0  0  0  0  0  0  0  0  0  0  0
  145.6660   72.3000  218.9270 O   0  0  0  0  0  0  0  0  0  0  0  0
  144.9540   71.0970  219.1920 C   0  0  0  0  0  0  0  0  0  0  0  0
  143.4790   71.2740  219.6420 C   0  0  0  0  0  0  0  0  0  0  0  0
  141.7300   71.9700  221.8910 N   0  0  0  0  0  0  0  0  0  0  0  0
  140.6990   72.2040  222.7470 C   0  0  0  0  0  0  0  0  0  0  0  0
  140.2860   71.1820  223.6790 N   0  0  0  0  0  0  0  0  0  0  0  0
  139.0500   70.4160  223.4430 C   0  0  0  0  0  0  0  0  0  0  0  0
  139.1960   68.9810  223.9470 C   0  0  0  0  0  0  0  0  0  0  0  0
  139.6090   68.9850  225.3870 C   0  0  0  0  0  0  0  0  0  0  0  0
  139.1680   67.9740  226.2550 C   0  0  0  0  0  0  0  0  0  0  0  0
  139.5810   67.9630  227.5890 C   0  0  0  0  0  0  0  0  0  0  0  0
  140.4470   68.9510  228.0620 C   0  0  0  0  0  0  0  0  0  0  0  0
  140.9050   69.9500  227.2000 C   0  0  0  0  0  0  0  0  0  0  0  0
  140.4880   69.9760  225.8600 C   0  0  0  0  0  0  0  0  0  0  0  0
  141.0600   71.0140  224.9230 C   0  0  0  0  0  0  0  0  0  0  0  0
  140.0600   73.4030  222.7030 N   0  0  0  0  0  0  0  0  0  0  0  0
  140.5480   76.8600  221.9880 C   0  0  0  0  0  0  0  0  0  0  0  0
  139.7300   78.1140  221.6900 C   0  0  0  0  0  0  0  0  0  0  0  0
  136.5860   79.3900  223.2150 N   0  0  0  0  0  0  0  0  0  0  0  0
  136.0630   80.4300  223.9190 C   0  0  0  0  0  0  0  0  0  0  0  0
  136.4910   82.1403  225.1852 H   0  0  0  0  0  0  0  0  0  0  0  0
  138.9629   81.7573  225.1170 H   0  0  0  0  0  0  0  0  0  0  0  0
  139.8895   79.8476  223.8005 H   0  0  0  0  0  0  0  0  0  0  0  0
  137.4269   76.3853  223.2118 H   0  0  0  0  0  0  0  0  0  0  0  0
  136.6991   77.0594  221.6863 H   0  0  0  0  0  0  0  0  0  0  0  0
  137.8619   74.7587  221.5383 H   0  0  0  0  0  0  0  0  0  0  0  0
  138.2949   76.0167  220.3178 H   0  0  0  0  0  0  0  0  0  0  0  0
  143.0797   74.4017  218.9130 H   0  0  0  0  0  0  0  0  0  0  0  0
  144.3974   74.3750  220.1419 H   0  0  0  0  0  0  0  0  0  0  0  0
  144.2666   72.8202  217.5098 H   0  0  0  0  0  0  0  0  0  0  0  0
  145.4305   74.1063  217.9646 H   0  0  0  0  0  0  0  0  0  0  0  0
  144.9569   70.4929  218.2727 H   0  0  0  0  0  0  0  0  0  0  0  0
  145.4713   70.6223  220.0388 H   0  0  0  0  0  0  0  0  0  0  0  0
  142.8182   71.0253  218.7985 H   0  0  0  0  0  0  0  0  0  0  0  0
  143.3024   70.6049  220.4970 H   0  0  0  0  0  0  0  0  0  0  0  0
  138.2179   70.9017  223.9738 H   0  0  0  0  0  0  0  0  0  0  0  0
  138.8519   70.3912  222.3613 H   0  0  0  0  0  0  0  0  0  0  0  0
  138.2330   68.4591  223.8454 H   0  0  0  0  0  0  0  0  0  0  0  0
  139.9637   68.4649  223.3519 H   0  0  0  0  0  0  0  0  0  0  0  0
  138.4947   67.1876  225.8832 H   0  0  0  0  0  0  0  0  0  0  0  0
  139.2236   67.1749  228.2681 H   0  0  0  0  0  0  0  0  0  0  0  0
  140.7686   68.9425  229.1139 H   0  0  0  0  0  0  0  0  0  0  0  0
  141.5960   70.7203  227.5731 H   0  0  0  0  0  0  0  0  0  0  0  0
  141.0856   71.9798  225.4489 H   0  0  0  0  0  0  0  0  0  0  0  0
  142.0626   70.6667  224.6328 H   0  0  0  0  0  0  0  0  0  0  0  0
  140.8783   76.8908  223.0368 H   0  0  0  0  0  0  0  0  0  0  0  0
  141.4090   76.8418  221.3037 H   0  0  0  0  0  0  0  0  0  0  0  0
  140.2732   78.9984  222.0545 H   0  0  0  0  0  0  0  0  0  0  0  0
  139.5737   78.1934  220.6041 H   0  0  0  0  0  0  0  0  0  0  0  0
  134.9745   80.5868  223.9412 H   0  0  0  0  0  0  0  0  0  0  0  0
  1  2  2  0
  2  3  1  0
  3  4  2  0
  4  5  1  0
  5  6  1  0
  6  7  1  0
  7  8  1  0
  8  9  1  0
  9 10  2  0
 10 11  1  0
 11 12  1  0
 12 13  1  0
 13 14  1  0
 14 15  1  0
 15 16  1  0
 16 17  1  0
 11 18  2  0
 18 19  1  0
 19 20  1  0
 20 21  1  0
 21 22  1  0
 22 23  1  0
 23 24  2  0
 24 25  1  0
 25 26  2  0
 26 27  1  0
 27 28  2  0
 28 29  1  0
 19 30  2  0
  8 31  1  0
 31 32  1  0
  4 33  1  0
 33 34  2  0
 34  1  1  0
 32  5  1  0
 30  9  1  0
 17 12  1  0
 29 20  1  0
 28 23  1  0
  1 35  1  0
  2 36  1  0
  3 37  1  0
  6 38  1  0
  6 39  1  0
  7 40  1  0
  7 41  1  0
 13 42  1  0
 13 43  1  0
 14 44  1  0
 14 45  1  0
 16 46  1  0
 16 47  1  0
 17 48  1  0
 17 49  1  0
 21 50  1  0
 21 51  1  0
 22 52  1  0
 22 53  1  0
 24 54  1  0
 25 55  1  0
 26 56  1  0
 27 57  1  0
 29 58  1  0
 29 59  1  0
 31 60  1  0
 31 61  1  0
 32 62  1  0
 32 63  1  0
 34 64  1  0
M  END
>  <UniqueID>  (3) 
274

>  <SMILES>  (3) 
c1ccc(N2CCN(c3nc(N4CCOCC4)nc(N4CCc5ccccc5C4)n3)CC2)nc1

>  <Energy>  (3) 
78.41600375727215

>  <Genealogy>  (3) 
c1ccc(N2CCN(c3nc(N4CCOCC4)nc(N4CCc5ccccc5C4)n3)CC2)nc1 (3D coordinates assigned)
c1ccc(N2CCN(c3nc(N4CCOCC4)nc(N4CCc5ccccc5C4)n3)CC2)nc1 (nonaromatic ring conformer: 78.41600375727215 kcal/mol)

>  <smiles>  (3) 
c1ccc(N2CCN(c3nc(N4CCOCC4)nc(N4CCc5ccccc5C4)n3)CC2)nc1

>  <score_type>  (3) 
oracle

>  <origin>  (3) 
autodockgpu

>  <m_score__min__energy>  (3) 
-8.9399999999999995

>  <m_primary>  (3) 
energy

>  <meeko>  (3) 
{"free_energy": -8.93, "intermolecular_energy": -10.12, "internal_energy": -0.89, "cluster_size": 18, "cluster_id": 1, "rank_in_cluster": 4}

>  <energy>  (3) 
-8.93

>  <cluster_rmsd>  (3) 
0.05

>  <rmsd>  (3) 
270.55

>  <cluster>  (3) 
1

$$$$
XSFBOMDNDOCRMT-UHFFFAOYNA-N
     RDKit          3D

 64 69  0  0  0  0  0  0  0  0999 V2000
  142.5740   81.3300  223.8790 C   0  0  0  0  0  0  0  0  0  0  0  0
  141.1830   81.2700  223.8000 C   0  0  0  0  0  0  0  0  0  0  0  0
  140.5680   80.1930  223.1580 C   0  0  0  0  0  0  0  0  0  0  0  0
  141.3580   79.1730  222.5860 C   0  0  0  0  0  0  0  0  0  0  0  0
  140.7600   78.0280  221.9210 N   0  0  0  0  0  0  0  0  0  0  0  0
  139.5580   77.3720  222.4740 C   0  0  0  0  0  0  0  0  0  0  0  0
  139.1130   76.1620  221.6450 C   0  0  0  0  0  0  0  0  0  0  0  0
  140.2730   75.3390  221.2660 N   0  0  0  0  0  0  0  0  0  0  0  0
  140.1860   73.9010  221.2330 C   0  0  0  0  0  0  0  0  0  0  0  0
  140.2130   73.2430  220.0430 N   0  0  0  0  0  0  0  0  0  0  0  0
  140.1390   71.8890  219.9960 C   0  0  0  0  0  0  0  0  0  0  0  0
  140.1480   71.2060  218.7270 N   0  0  0  0  0  0  0  0  0  0  0  0
  141.0370   70.0520  218.5460 C   0  0  0  0  0  0  0  0  0  0  0  0
  141.0240   69.5970  217.0890 C   0  0  0  0  0  0  0  0  0  0  0  0
  139.6870   69.4500  216.6660 O   0  0  0  0  0  0  0  0  0  0  0  0
  139.0510   70.7150  216.5250 C   0  0  0  0  0  0  0  0  0  0  0  0
  139.4640   71.7930  217.5630 C   0  0  0  0  0  0  0  0  0  0  0  0
  140.0330   71.1870  221.1540 N   0  0  0  0  0  0  0  0  0  0  0  0
  139.9990   71.8260  222.3540 C   0  0  0  0  0  0  0  0  0  0  0  0
  139.8690   71.0670  223.5750 N   0  0  0  0  0  0  0  0  0  0  0  0
  138.7760   70.0920  223.7300 C   0  0  0  0  0  0  0  0  0  0  0  0
  139.2270   68.9020  224.5750 C   0  0  0  0  0  0  0  0  0  0  0  0
  139.7670   69.3810  225.8880 C   0  0  0  0  0  0  0  0  0  0  0  0
  139.6020   68.6100  227.0490 C   0  0  0  0  0  0  0  0  0  0  0  0
  140.1350   69.0450  228.2640 C   0  0  0  0  0  0  0  0  0  0  0  0
  140.8470   70.2440  228.3270 C   0  0  0  0  0  0  0  0  0  0  0  0
  141.0330   71.0080  227.1720 C   0  0  0  0  0  0  0  0  0  0  0  0
  140.4920   70.5850  225.9470 C   0  0  0  0  0  0  0  0  0  0  0  0
  140.7750   71.3810  224.6950 C   0  0  0  0  0  0  0  0  0  0  0  0
  140.0770   73.1830  222.3840 N   0  0  0  0  0  0  0  0  0  0  0  0
  141.5000   75.9860  220.7780 C   0  0  0  0  0  0  0  0  0  0  0  0
  141.3390   77.5010  220.6770 C   0  0  0  0  0  0  0  0  0  0  0  0
  142.7160   79.2710  222.6810 N   0  0  0  0  0  0  0  0  0  0  0  0
  143.3340   80.3080  223.3080 C   0  0  0  0  0  0  0  0  0  0  0  0
  143.0666   82.1731  224.3855 H   0  0  0  0  0  0  0  0  0  0  0  0
  140.5711   82.0698  224.2427 H   0  0  0  0  0  0  0  0  0  0  0  0
  139.4709   80.1399  223.0983 H   0  0  0  0  0  0  0  0  0  0  0  0
  139.7796   77.0355  223.4976 H   0  0  0  0  0  0  0  0  0  0  0  0
  138.7396   78.1068  222.4568 H   0  0  0  0  0  0  0  0  0  0  0  0
  138.4163   75.5528  222.2396 H   0  0  0  0  0  0  0  0  0  0  0  0
  138.6189   76.5212  220.7302 H   0  0  0  0  0  0  0  0  0  0  0  0
  142.0616   70.3354  218.8286 H   0  0  0  0  0  0  0  0  0  0  0  0
  140.6856   69.2262  219.1820 H   0  0  0  0  0  0  0  0  0  0  0  0
  141.5283   70.3483  216.4635 H   0  0  0  0  0  0  0  0  0  0  0  0
  141.5514   68.6363  216.9949 H   0  0  0  0  0  0  0  0  0  0  0  0
  139.2866   71.1024  215.5228 H   0  0  0  0  0  0  0  0  0  0  0  0
  137.9789   70.5329  216.6908 H   0  0  0  0  0  0  0  0  0  0  0  0
  140.1415   72.5113  217.0782 H   0  0  0  0  0  0  0  0  0  0  0  0
  138.5489   72.2874  217.9210 H   0  0  0  0  0  0  0  0  0  0  0  0
  137.9230   70.5816  224.2227 H   0  0  0  0  0  0  0  0  0  0  0  0
  138.4848   69.7272  222.7339 H   0  0  0  0  0  0  0  0  0  0  0  0
  138.3694   68.2370  224.7546 H   0  0  0  0  0  0  0  0  0  0  0  0
  140.0164   68.3561  224.0375 H   0  0  0  0  0  0  0  0  0  0  0  0
  139.0507   67.6593  227.0016 H   0  0  0  0  0  0  0  0  0  0  0  0
  139.9936   68.4419  229.1730 H   0  0  0  0  0  0  0  0  0  0  0  0
  141.2618   70.5875  229.2862 H   0  0  0  0  0  0  0  0  0  0  0  0
  141.6061   71.9456  227.2225 H   0  0  0  0  0  0  0  0  0  0  0  0
  140.6748   72.4502  224.9333 H   0  0  0  0  0  0  0  0  0  0  0  0
  141.7919   71.1168  224.3694 H   0  0  0  0  0  0  0  0  0  0  0  0
  142.3223   75.7606  221.4731 H   0  0  0  0  0  0  0  0  0  0  0  0
  141.7156   75.5967  219.7720 H   0  0  0  0  0  0  0  0  0  0  0  0
  142.3237   77.9618  220.5095 H   0  0  0  0  0  0  0  0  0  0  0  0
  140.6690   77.7382  219.8375 H   0  0  0  0  0  0  0  0  0  0  0  0
  144.4320   80.3411  223.3650 H   0  0  0  0  0  0  0  0  0  0  0  0
  1  2  2  0
  2  3  1  0
  3  4  2  0
  4  5  1  0
  5  6  1  0
  6  7  1  0
  7  8  1  0
  8  9  1  0
  9 10  2  0
 10 11  1  0
 11 12  1  0
 12 13  1  0
 13 14  1  0
 14 15  1  0
 15 16  1  0
 16 17  1  0
 11 18  2  0
 18 19  1  0
 19 20  1  0
 20 21  1  0
 21 22  1  0
 22 23  1  0
 23 24  2  0
 24 25  1  0
 25 26  2  0
 26 27  1  0
 27 28  2  0
 28 29  1  0
 19 30  2  0
  8 31  1  0
 31 32  1  0
  4 33  1  0
 33 34  2  0
 34  1  1  0
 32  5  1  0
 30  9  1  0
 17 12  1  0
 29 20  1  0
 28 23  1  0
  1 35  1  0
  2 36  1  0
  3 37  1  0
  6 38  1  0
  6 39  1  0
  7 40  1  0
  7 41  1  0
 13 42  1  0
 13 43  1  0
 14 44  1  0
 14 45  1  0
 16 46  1  0
 16 47  1  0
 17 48  1  0
 17 49  1  0
 21 50  1  0
 21 51  1  0
 22 52  1  0
 22 53  1  0
 24 54  1  0
 25 55  1  0
 26 56  1  0
 27 57  1  0
 29 58  1  0
 29 59  1  0
 31 60  1  0
 31 61  1  0
 32 62  1  0
 32 63  1  0
 34 64  1  0
M  END
>  <UniqueID>  (4) 
274

>  <SMILES>  (4) 
c1ccc(N2CCN(c3nc(N4CCOCC4)nc(N4CCc5ccccc5C4)n3)CC2)nc1

>  <Energy>  (4) 
78.41600375727215

>  <Genealogy>  (4) 
c1ccc(N2CCN(c3nc(N4CCOCC4)nc(N4CCc5ccccc5C4)n3)CC2)nc1 (3D coordinates assigned)
c1ccc(N2CCN(c3nc(N4CCOCC4)nc(N4CCc5ccccc5C4)n3)CC2)nc1 (nonaromatic ring conformer: 78.41600375727215 kcal/mol)

>  <smiles>  (4) 
c1ccc(N2CCN(c3nc(N4CCOCC4)nc(N4CCc5ccccc5C4)n3)CC2)nc1

>  <score_type>  (4) 
oracle

>  <origin>  (4) 
autodockgpu

>  <m_score__min__energy>  (4) 
-8.9399999999999995

>  <m_primary>  (4) 
energy

>  <meeko>  (4) 
{"free_energy": -8.6, "intermolecular_energy": -9.79, "internal_energy": -0.89, "cluster_size": 2, "cluster_id": 2, "rank_in_cluster": 2}

>  <energy>  (4) 
-8.93

>  <cluster_rmsd>  (4) 
0.07

>  <rmsd>  (4) 
270.55

>  <cluster>  (4) 
1

$$$$
XSFBOMDNDOCRMT-UHFFFAOYNA-N
     RDKit          3D

 64 69  0  0  0  0  0  0  0  0999 V2000
  137.1100   81.3530  224.6260 C   0  0  0  0  0  0  0  0  0  0  0  0
  136.1700   80.6520  223.8710 C   0  0  0  0  0  0  0  0  0  0  0  0
  136.5680   79.5520  223.1090 C   0  0  0  0  0  0  0  0  0  0  0  0
  137.9240   79.1580  223.0990 C   0  0  0  0  0  0  0  0  0  0  0  0
  138.3800   78.0130  222.3320 N   0  0  0  0  0  0  0  0  0  0  0  0
  137.5980   76.7610  222.3000 C   0  0  0  0  0  0  0  0  0  0  0  0
  138.2730   75.6660  221.4670 C   0  0  0  0  0  0  0  0  0  0  0  0
  139.7150   75.6070  221.7580 N   0  0  0  0  0  0  0  0  0  0  0  0
  140.4120   74.3480  221.8110 C   0  0  0  0  0  0  0  0  0  0  0  0
  141.4550   74.1090  220.9710 N   0  0  0  0  0  0  0  0  0  0  0  0
  142.1270   72.9310  221.0140 C   0  0  0  0  0  0  0  0  0  0  0  0
  143.2160   72.6840  220.1040 N   0  0  0  0  0  0  0  0  0  0  0  0
  143.8740   73.8240  219.4540 C   0  0  0  0  0  0  0  0  0  0  0  0
  144.8680   73.3350  218.4040 C   0  0  0  0  0  0  0  0  0  0  0  0
  145.7030   72.3570  218.9840 O   0  0  0  0  0  0  0  0  0  0  0  0
  144.9900   71.1480  219.2180 C   0  0  0  0  0  0  0  0  0  0  0  0
  143.5090   71.3150  219.6500 C   0  0  0  0  0  0  0  0  0  0  0  0
  141.7460   71.9800  221.9060 N   0  0  0  0  0  0  0  0  0  0  0  0
  140.7030   72.1970  222.7520 C   0  0  0  0  0  0  0  0  0  0  0  0
  140.3000   71.1700  223.6830 N   0  0  0  0  0  0  0  0  0  0  0  0
  139.0710   70.3930  223.4460 C   0  0  0  0  0  0  0  0  0  0  0  0
  139.2300   68.9590  223.9470 C   0  0  0  0  0  0  0  0  0  0  0  0
  139.6450   68.9640  225.3880 C   0  0  0  0  0  0  0  0  0  0  0  0
  139.2140   67.9480  226.2540 C   0  0  0  0  0  0  0  0  0  0  0  0
  139.6280   67.9380  227.5880 C   0  0  0  0  0  0  0  0  0  0  0  0
  140.4850   68.9330  228.0620 C   0  0  0  0  0  0  0  0  0  0  0  0
  140.9340   69.9380  227.2010 C   0  0  0  0  0  0  0  0  0  0  0  0
  140.5150   69.9620  225.8610 C   0  0  0  0  0  0  0  0  0  0  0  0
  141.0770   71.0070  224.9260 C   0  0  0  0  0  0  0  0  0  0  0  0
  140.0430   73.3840  222.6980 N   0  0  0  0  0  0  0  0  0  0  0  0
  140.4910   76.8520  221.8600 C   0  0  0  0  0  0  0  0  0  0  0  0
  139.6330   78.0800  221.5650 C   0  0  0  0  0  0  0  0  0  0  0  0
  138.8140   79.8730  223.8490 N   0  0  0  0  0  0  0  0  0  0  0  0
  138.4440   80.9430  224.6040 C   0  0  0  0  0  0  0  0  0  0  0  0
  136.8037   82.2187  225.2316 H   0  0  0  0  0  0  0  0  0  0  0  0
  135.1157   80.9656  223.8759 H   0  0  0  0  0  0  0  0  0  0  0  0
  135.8272   78.9936  222.5179 H   0  0  0  0  0  0  0  0  0  0  0  0
  137.4761   76.3953  223.3302 H   0  0  0  0  0  0  0  0  0  0  0  0
  136.6282   76.9857  221.8320 H   0  0  0  0  0  0  0  0  0  0  0  0
  137.8157   74.6950  221.7081 H   0  0  0  0  0  0  0  0  0  0  0  0
  138.1361   75.8973  220.4003 H   0  0  0  0  0  0  0  0  0  0  0  0
  143.1135   74.4531  218.9683 H   0  0  0  0  0  0  0  0  0  0  0  0
  144.4151   74.4057  220.2148 H   0  0  0  0  0  0  0  0  0  0  0  0
  144.3225   72.8979  217.5547 H   0  0  0  0  0  0  0  0  0  0  0  0
  145.4762   74.1787  218.0459 H   0  0  0  0  0  0  0  0  0  0  0  0
  145.0070   70.5599  218.2886 H   0  0  0  0  0  0  0  0  0  0  0  0
  145.4964   70.6592  220.0634 H   0  0  0  0  0  0  0  0  0  0  0  0
  142.8608   71.0790  218.7932 H   0  0  0  0  0  0  0  0  0  0  0  0
  143.3224   70.6317  220.4916 H   0  0  0  0  0  0  0  0  0  0  0  0
  138.2347   70.8701  223.9779 H   0  0  0  0  0  0  0  0  0  0  0  0
  138.8730   70.3683  222.3643 H   0  0  0  0  0  0  0  0  0  0  0  0
  138.2715   68.4290  223.8455 H   0  0  0  0  0  0  0  0  0  0  0  0
  140.0015   68.4507  223.3501 H   0  0  0  0  0  0  0  0  0  0  0  0
  138.5476   67.1563  225.8811 H   0  0  0  0  0  0  0  0  0  0  0  0
  139.2784   67.1453  228.2658 H   0  0  0  0  0  0  0  0  0  0  0  0
  140.8070   68.9259  229.1138 H   0  0  0  0  0  0  0  0  0  0  0  0
  141.6187   70.7137  227.5746 H   0  0  0  0  0  0  0  0  0  0  0  0
  141.0942   71.9720  225.4538 H   0  0  0  0  0  0  0  0  0  0  0  0
  142.0827   70.6700  224.6345 H   0  0  0  0  0  0  0  0  0  0  0  0
  140.8958   76.9369  222.8793 H   0  0  0  0  0  0  0  0  0  0  0  0
  141.2999   76.8129  221.1156 H   0  0  0  0  0  0  0  0  0  0  0  0
  140.1859   78.9876  221.8488 H   0  0  0  0  0  0  0  0  0  0  0  0
  139.3982   78.1073  220.4907 H   0  0  0  0  0  0  0  0  0  0  0  0
  139.1959   81.4846  225.1967 H   0  0  0  0  0  0  0  0  0  0  0  0
  1  2  2  0
  2  3  1  0
  3  4  2  0
  4  5  1  0
  5  6  1  0
  6  7  1  0
  7  8  1  0
  8  9  1  0
  9 10  2  0
 10 11  1  0
 11 12  1  0
 12 13  1  0
 13 14  1  0
 14 15  1  0
 15 16  1  0
 16 17  1  0
 11 18  2  0
 18 19  1  0
 19 20  1  0
 20 21  1  0
 21 22  1  0
 22 23  1  0
 23 24  2  0
 24 25  1  0
 25 26  2  0
 26 27  1  0
 27 28  2  0
 28 29  1  0
 19 30  2  0
  8 31  1  0
 31 32  1  0
  4 33  1  0
 33 34  2  0
 34  1  1  0
 32  5  1  0
 30  9  1  0
 17 12  1  0
 29 20  1  0
 28 23  1  0
  1 35  1  0
  2 36  1  0
  3 37  1  0
  6 38  1  0
  6 39  1  0
  7 40  1  0
  7 41  1  0
 13 42  1  0
 13 43  1  0
 14 44  1  0
 14 45  1  0
 16 46  1  0
 16 47  1  0
 17 48  1  0
 17 49  1  0
 21 50  1  0
 21 51  1  0
 22 52  1  0
 22 53  1  0
 24 54  1  0
 25 55  1  0
 26 56  1  0
 27 57  1  0
 29 58  1  0
 29 59  1  0
 31 60  1  0
 31 61  1  0
 32 62  1  0
 32 63  1  0
 34 64  1  0
M  END
>  <UniqueID>  (5) 
274

>  <SMILES>  (5) 
c1ccc(N2CCN(c3nc(N4CCOCC4)nc(N4CCc5ccccc5C4)n3)CC2)nc1

>  <Energy>  (5) 
78.41600375727215

>  <Genealogy>  (5) 
c1ccc(N2CCN(c3nc(N4CCOCC4)nc(N4CCc5ccccc5C4)n3)CC2)nc1 (3D coordinates assigned)
c1ccc(N2CCN(c3nc(N4CCOCC4)nc(N4CCc5ccccc5C4)n3)CC2)nc1 (nonaromatic ring conformer: 78.41600375727215 kcal/mol)

>  <smiles>  (5) 
c1ccc(N2CCN(c3nc(N4CCOCC4)nc(N4CCc5ccccc5C4)n3)CC2)nc1

>  <score_type>  (5) 
oracle

>  <origin>  (5) 
autodockgpu

>  <m_score__min__energy>  (5) 
-8.9399999999999995

>  <m_primary>  (5) 
energy

>  <meeko>  (5) 
{"free_energy": -8.86, "intermolecular_energy": -10.05, "internal_energy": -0.9, "cluster_size": 18, "cluster_id": 1, "rank_in_cluster": 16}

>  <energy>  (5) 
-8.92

>  <cluster_rmsd>  (5) 
0.04

>  <rmsd>  (5) 
270.55

>  <cluster>  (5) 
1

$$$$
XSFBOMDNDOCRMT-UHFFFAOYNA-N
     RDKit          3D

 64 69  0  0  0  0  0  0  0  0999 V2000
  136.9570   81.3650  224.6490 C   0  0  0  0  0  0  0  0  0  0  0  0
  138.3290   81.1180  224.6010 C   0  0  0  0  0  0  0  0  0  0  0  0
  138.8170   80.0330  223.8700 C   0  0  0  0  0  0  0  0  0  0  0  0
  137.9180   79.1860  223.1860 C   0  0  0  0  0  0  0  0  0  0  0  0
  138.3820   78.0550  222.4030 N   0  0  0  0  0  0  0  0  0  0  0  0
  137.5930   76.8090  222.3280 C   0  0  0  0  0  0  0  0  0  0  0  0
  138.2780   75.7290  221.4830 C   0  0  0  0  0  0  0  0  0  0  0  0
  139.7130   75.6540  221.8010 N   0  0  0  0  0  0  0  0  0  0  0  0
  140.4020   74.3900  221.8390 C   0  0  0  0  0  0  0  0  0  0  0  0
  141.4380   74.1510  220.9910 N   0  0  0  0  0  0  0  0  0  0  0  0
  142.1020   72.9680  221.0200 C   0  0  0  0  0  0  0  0  0  0  0  0
  143.1850   72.7210  220.1010 N   0  0  0  0  0  0  0  0  0  0  0  0
  143.8410   73.8620  219.4520 C   0  0  0  0  0  0  0  0  0  0  0  0
  144.8270   73.3740  218.3930 C   0  0  0  0  0  0  0  0  0  0  0  0
  145.6630   72.3920  218.9630 O   0  0  0  0  0  0  0  0  0  0  0  0
  144.9490   71.1840  219.1980 C   0  0  0  0  0  0  0  0  0  0  0  0
  143.4710   71.3530  219.6410 C   0  0  0  0  0  0  0  0  0  0  0  0
  141.7210   72.0120  221.9070 N   0  0  0  0  0  0  0  0  0  0  0  0
  140.6840   72.2290  222.7600 C   0  0  0  0  0  0  0  0  0  0  0  0
  140.2800   71.1970  223.6850 N   0  0  0  0  0  0  0  0  0  0  0  0
  139.0520   70.4200  223.4400 C   0  0  0  0  0  0  0  0  0  0  0  0
  139.2110   68.9840  223.9350 C   0  0  0  0  0  0  0  0  0  0  0  0
  139.6210   68.9820  225.3770 C   0  0  0  0  0  0  0  0  0  0  0  0
  139.1890   67.9610  226.2370 C   0  0  0  0  0  0  0  0  0  0  0  0
  139.5990   67.9450  227.5720 C   0  0  0  0  0  0  0  0  0  0  0  0
  140.4540   68.9380  228.0530 C   0  0  0  0  0  0  0  0  0  0  0  0
  140.9040   69.9480  227.1990 C   0  0  0  0  0  0  0  0  0  0  0  0
  140.4890   69.9790  225.8580 C   0  0  0  0  0  0  0  0  0  0  0  0
  141.0530   71.0290  224.9290 C   0  0  0  0  0  0  0  0  0  0  0  0
  140.0320   73.4210  222.7200 N   0  0  0  0  0  0  0  0  0  0  0  0
  140.4950   76.8920  221.9450 C   0  0  0  0  0  0  0  0  0  0  0  0
  139.6490   78.1310  221.6610 C   0  0  0  0  0  0  0  0  0  0  0  0
  136.5820   79.4590  223.2610 N   0  0  0  0  0  0  0  0  0  0  0  0
  136.0880   80.5150  223.9630 C   0  0  0  0  0  0  0  0  0  0  0  0
  136.5647   82.2191  225.2205 H   0  0  0  0  0  0  0  0  0  0  0  0
  139.0261   81.7775  225.1387 H   0  0  0  0  0  0  0  0  0  0  0  0
  139.8989   79.8387  223.8271 H   0  0  0  0  0  0  0  0  0  0  0  0
  137.4493   76.4208  223.3472 H   0  0  0  0  0  0  0  0  0  0  0  0
  136.6334   77.0501  221.8473 H   0  0  0  0  0  0  0  0  0  0  0  0
  137.8102   74.7557  221.6922 H   0  0  0  0  0  0  0  0  0  0  0  0
  138.1638   75.9858  220.4195 H   0  0  0  0  0  0  0  0  0  0  0  0
  143.0789   74.4951  218.9740 H   0  0  0  0  0  0  0  0  0  0  0  0
  144.3883   74.4397  220.2115 H   0  0  0  0  0  0  0  0  0  0  0  0
  144.2745   72.9416  217.5458 H   0  0  0  0  0  0  0  0  0  0  0  0
  145.4351   74.2175  218.0342 H   0  0  0  0  0  0  0  0  0  0  0  0
  144.9582   70.5989  218.2665 H   0  0  0  0  0  0  0  0  0  0  0  0
  145.4602   70.6913  220.0382 H   0  0  0  0  0  0  0  0  0  0  0  0
  142.8162   71.1212  218.7881 H   0  0  0  0  0  0  0  0  0  0  0  0
  143.2884   70.6674  220.4816 H   0  0  0  0  0  0  0  0  0  0  0  0
  138.2134   70.8938  223.9713 H   0  0  0  0  0  0  0  0  0  0  0  0
  138.8573   70.4003  222.3575 H   0  0  0  0  0  0  0  0  0  0  0  0
  138.2534   68.4534  223.8277 H   0  0  0  0  0  0  0  0  0  0  0  0
  139.9854   68.4797  223.3384 H   0  0  0  0  0  0  0  0  0  0  0  0
  138.5248   67.1701  225.8583 H   0  0  0  0  0  0  0  0  0  0  0  0
  139.2478   67.1490  228.2451 H   0  0  0  0  0  0  0  0  0  0  0  0
  140.7738   68.9253  229.1054 H   0  0  0  0  0  0  0  0  0  0  0  0
  141.5866   70.7225  227.5789 H   0  0  0  0  0  0  0  0  0  0  0  0
  141.0679   71.9916  225.4612 H   0  0  0  0  0  0  0  0  0  0  0  0
  142.0598   70.6940  224.6389 H   0  0  0  0  0  0  0  0  0  0  0  0
  140.8811   76.9521  222.9733 H   0  0  0  0  0  0  0  0  0  0  0  0
  141.3180   76.8644  221.2157 H   0  0  0  0  0  0  0  0  0  0  0  0
  140.2015   79.0291  221.9743 H   0  0  0  0  0  0  0  0  0  0  0  0
  139.4341   78.1825  220.5834 H   0  0  0  0  0  0  0  0  0  0  0  0
  135.0038   80.6987  223.9898 H   0  0  0  0  0  0  0  0  0  0  0  0
  1  2  2  0
  2  3  1  0
  3  4  2  0
  4  5  1  0
  5  6  1  0
  6  7  1  0
  7  8  1  0
  8  9  1  0
  9 10  2  0
 10 11  1  0
 11 12  1  0
 12 13  1  0
 13 14  1  0
 14 15  1  0
 15 16  1  0
 16 17  1  0
 11 18  2  0
 18 19  1  0
 19 20  1  0
 20 21  1  0
 21 22  1  0
 22 23  1  0
 23 24  2  0
 24 25  1  0
 25 26  2  0
 26 27  1  0
 27 28  2  0
 28 29  1  0
 19 30  2  0
  8 31  1  0
 31 32  1  0
  4 33  1  0
 33 34  2  0
 34  1  1  0
 32  5  1  0
 30  9  1  0
 17 12  1  0
 29 20  1  0
 28 23  1  0
  1 35  1  0
  2 36  1  0
  3 37  1  0
  6 38  1  0
  6 39  1  0
  7 40  1  0
  7 41  1  0
 13 42  1  0
 13 43  1  0
 14 44  1  0
 14 45  1  0
 16 46  1  0
 16 47  1  0
 17 48  1  0
 17 49  1  0
 21 50  1  0
 21 51  1  0
 22 52  1  0
 22 53  1  0
 24 54  1  0
 25 55  1  0
 26 56  1  0
 27 57  1  0
 29 58  1  0
 29 59  1  0
 31 60  1  0
 31 61  1  0
 32 62  1  0
 32 63  1  0
 34 64  1  0
M  END
>  <UniqueID>  (6) 
274

>  <SMILES>  (6) 
c1ccc(N2CCN(c3nc(N4CCOCC4)nc(N4CCc5ccccc5C4)n3)CC2)nc1

>  <Energy>  (6) 
78.41600375727215

>  <Genealogy>  (6) 
c1ccc(N2CCN(c3nc(N4CCOCC4)nc(N4CCc5ccccc5C4)n3)CC2)nc1 (3D coordinates assigned)
c1ccc(N2CCN(c3nc(N4CCOCC4)nc(N4CCc5ccccc5C4)n3)CC2)nc1 (nonaromatic ring conformer: 78.41600375727215 kcal/mol)

>  <smiles>  (6) 
c1ccc(N2CCN(c3nc(N4CCOCC4)nc(N4CCc5ccccc5C4)n3)CC2)nc1

>  <score_type>  (6) 
oracle

>  <origin>  (6) 
autodockgpu

>  <m_score__min__energy>  (6) 
-8.9399999999999995

>  <m_primary>  (6) 
energy

>  <meeko>  (6) 
{"free_energy": -8.92, "intermolecular_energy": -10.12, "internal_energy": -0.89, "cluster_size": 18, "cluster_id": 1, "rank_in_cluster": 7}

>  <energy>  (6) 
-8.92

>  <cluster_rmsd>  (6) 
0.05

>  <rmsd>  (6) 
270.56

>  <cluster>  (6) 
1

$$$$
XSFBOMDNDOCRMT-UHFFFAOYNA-N
     RDKit          3D

 64 69  0  0  0  0  0  0  0  0999 V2000
  136.9990   81.3540  224.5840 C   0  0  0  0  0  0  0  0  0  0  0  0
  138.3650   81.0710  224.5790 C   0  0  0  0  0  0  0  0  0  0  0  0
  138.8480   79.9810  223.8540 C   0  0  0  0  0  0  0  0  0  0  0  0
  137.9500   79.1640  223.1330 C   0  0  0  0  0  0  0  0  0  0  0  0
  138.4110   78.0280  222.3540 N   0  0  0  0  0  0  0  0  0  0  0  0
  137.6200   76.7820  222.2890 C   0  0  0  0  0  0  0  0  0  0  0  0
  138.3010   75.6960  221.4480 C   0  0  0  0  0  0  0  0  0  0  0  0
  139.7380   75.6220  221.7620 N   0  0  0  0  0  0  0  0  0  0  0  0
  140.4250   74.3570  221.8060 C   0  0  0  0  0  0  0  0  0  0  0  0
  141.4580   74.1120  220.9560 N   0  0  0  0  0  0  0  0  0  0  0  0
  142.1210   72.9280  220.9890 C   0  0  0  0  0  0  0  0  0  0  0  0
  143.2010   72.6750  220.0690 N   0  0  0  0  0  0  0  0  0  0  0  0
  143.8950   73.8140  219.4550 C   0  0  0  0  0  0  0  0  0  0  0  0
  144.8710   73.3260  218.3880 C   0  0  0  0  0  0  0  0  0  0  0  0
  145.6740   72.3030  218.9330 O   0  0  0  0  0  0  0  0  0  0  0  0
  144.9220   71.1110  219.1310 C   0  0  0  0  0  0  0  0  0  0  0  0
  143.4480   71.3120  219.5720 C   0  0  0  0  0  0  0  0  0  0  0  0
  141.7410   71.9770  221.8830 N   0  0  0  0  0  0  0  0  0  0  0  0
  140.7070   72.2000  222.7380 C   0  0  0  0  0  0  0  0  0  0  0  0
  140.3040   71.1740  223.6690 N   0  0  0  0  0  0  0  0  0  0  0  0
  139.0840   70.3860  223.4240 C   0  0  0  0  0  0  0  0  0  0  0  0
  139.2500   68.9550  223.9330 C   0  0  0  0  0  0  0  0  0  0  0  0
  139.6500   68.9700  225.3780 C   0  0  0  0  0  0  0  0  0  0  0  0
  139.2200   67.9540  226.2440 C   0  0  0  0  0  0  0  0  0  0  0  0
  139.6210   67.9540  227.5820 C   0  0  0  0  0  0  0  0  0  0  0  0
  140.4640   68.9590  228.0600 C   0  0  0  0  0  0  0  0  0  0  0  0
  140.9130   69.9630  227.1990 C   0  0  0  0  0  0  0  0  0  0  0  0
  140.5070   69.9790  225.8550 C   0  0  0  0  0  0  0  0  0  0  0  0
  141.0690   71.0240  224.9200 C   0  0  0  0  0  0  0  0  0  0  0  0
  140.0560   73.3940  222.6930 N   0  0  0  0  0  0  0  0  0  0  0  0
  140.5210   76.8590  221.8970 C   0  0  0  0  0  0  0  0  0  0  0  0
  139.6760   78.0980  221.6080 C   0  0  0  0  0  0  0  0  0  0  0  0
  136.6200   79.4710  223.1660 N   0  0  0  0  0  0  0  0  0  0  0  0
  136.1310   80.5330  223.8610 C   0  0  0  0  0  0  0  0  0  0  0  0
  136.6104   82.2132  225.1504 H   0  0  0  0  0  0  0  0  0  0  0  0
  139.0609   81.7067  225.1462 H   0  0  0  0  0  0  0  0  0  0  0  0
  139.9253   79.7588  223.8442 H   0  0  0  0  0  0  0  0  0  0  0  0
  137.4793   76.4000  223.3109 H   0  0  0  0  0  0  0  0  0  0  0  0
  136.6591   77.0214  221.8101 H   0  0  0  0  0  0  0  0  0  0  0  0
  137.8331   74.7244  221.6648 H   0  0  0  0  0  0  0  0  0  0  0  0
  138.1831   75.9460  220.3833 H   0  0  0  0  0  0  0  0  0  0  0  0
  143.1550   74.4829  218.9914 H   0  0  0  0  0  0  0  0  0  0  0  0
  144.4552   74.3537  220.2328 H   0  0  0  0  0  0  0  0  0  0  0  0
  144.3100   72.9349  217.5264 H   0  0  0  0  0  0  0  0  0  0  0  0
  145.5067   74.1603  218.0566 H   0  0  0  0  0  0  0  0  0  0  0  0
  144.9183   70.5522  218.1835 H   0  0  0  0  0  0  0  0  0  0  0  0
  145.4136   70.5800  219.9595 H   0  0  0  0  0  0  0  0  0  0  0  0
  142.7909   71.1240  218.7101 H   0  0  0  0  0  0  0  0  0  0  0  0
  143.2404   70.6090  220.3922 H   0  0  0  0  0  0  0  0  0  0  0  0
  138.2388   70.8585  223.9459 H   0  0  0  0  0  0  0  0  0  0  0  0
  138.8964   70.3549  222.3405 H   0  0  0  0  0  0  0  0  0  0  0  0
  138.2971   68.4164  223.8240 H   0  0  0  0  0  0  0  0  0  0  0  0
  140.0318   68.4505  223.3462 H   0  0  0  0  0  0  0  0  0  0  0  0
  138.5647   67.1544  225.8682 H   0  0  0  0  0  0  0  0  0  0  0  0
  139.2721   67.1611  228.2600 H   0  0  0  0  0  0  0  0  0  0  0  0
  140.7748   68.9601  229.1152 H   0  0  0  0  0  0  0  0  0  0  0  0
  141.5882   70.7453  227.5759 H   0  0  0  0  0  0  0  0  0  0  0  0
  141.0725   71.9918  225.4429 H   0  0  0  0  0  0  0  0  0  0  0  0
  142.0803   70.6939  224.6403 H   0  0  0  0  0  0  0  0  0  0  0  0
  140.9096   76.9244  222.9240 H   0  0  0  0  0  0  0  0  0  0  0  0
  141.3420   76.8262  221.1656 H   0  0  0  0  0  0  0  0  0  0  0  0
  140.2307   78.9971  221.9147 H   0  0  0  0  0  0  0  0  0  0  0  0
  139.4583   78.1438  220.5307 H   0  0  0  0  0  0  0  0  0  0  0  0
  135.0517   80.7452  223.8536 H   0  0  0  0  0  0  0  0  0  0  0  0
  1  2  2  0
  2  3  1  0
  3  4  2  0
  4  5  1  0
  5  6  1  0
  6  7  1  0
  7  8  1  0
  8  9  1  0
  9 10  2  0
 10 11  1  0
 11 12  1  0
 12 13  1  0
 13 14  1  0
 14 15  1  0
 15 16  1  0
 16 17  1  0
 11 18  2  0
 18 19  1  0
 19 20  1  0
 20 21  1  0
 21 22  1  0
 22 23  1  0
 23 24  2  0
 24 25  1  0
 25 26  2  0
 26 27  1  0
 27 28  2  0
 28 29  1  0
 19 30  2  0
  8 31  1  0
 31 32  1  0
  4 33  1  0
 33 34  2  0
 34  1  1  0
 32  5  1  0
 30  9  1  0
 17 12  1  0
 29 20  1  0
 28 23  1  0
  1 35  1  0
  2 36  1  0
  3 37  1  0
  6 38  1  0
  6 39  1  0
  7 40  1  0
  7 41  1  0
 13 42  1  0
 13 43  1  0
 14 44  1  0
 14 45  1  0
 16 46  1  0
 16 47  1  0
 17 48  1  0
 17 49  1  0
 21 50  1  0
 21 51  1  0
 22 52  1  0
 22 53  1  0
 24 54  1  0
 25 55  1  0
 26 56  1  0
 27 57  1  0
 29 58  1  0
 29 59  1  0
 31 60  1  0
 31 61  1  0
 32 62  1  0
 32 63  1  0
 34 64  1  0
M  END
>  <UniqueID>  (7) 
274

>  <SMILES>  (7) 
c1ccc(N2CCN(c3nc(N4CCOCC4)nc(N4CCc5ccccc5C4)n3)CC2)nc1

>  <Energy>  (7) 
78.41600375727215

>  <Genealogy>  (7) 
c1ccc(N2CCN(c3nc(N4CCOCC4)nc(N4CCc5ccccc5C4)n3)CC2)nc1 (3D coordinates assigned)
c1ccc(N2CCN(c3nc(N4CCOCC4)nc(N4CCc5ccccc5C4)n3)CC2)nc1 (nonaromatic ring conformer: 78.41600375727215 kcal/mol)

>  <smiles>  (7) 
c1ccc(N2CCN(c3nc(N4CCOCC4)nc(N4CCc5ccccc5C4)n3)CC2)nc1

>  <score_type>  (7) 
oracle

>  <origin>  (7) 
autodockgpu

>  <m_score__min__energy>  (7) 
-8.9399999999999995

>  <m_primary>  (7) 
energy

>  <meeko>  (7) 
{"free_energy": -8.92, "intermolecular_energy": -10.12, "internal_energy": -0.89, "cluster_size": 18, "cluster_id": 1, "rank_in_cluster": 5}

>  <energy>  (7) 
-8.92

>  <cluster_rmsd>  (7) 
0.04

>  <rmsd>  (7) 
270.57

>  <cluster>  (7) 
1

$$$$
XSFBOMDNDOCRMT-UHFFFAOYNA-N
     RDKit          3D

 64 69  0  0  0  0  0  0  0  0999 V2000
  136.9910   81.3200  224.5660 C   0  0  0  0  0  0  0  0  0  0  0  0
  138.3540   81.0230  224.5870 C   0  0  0  0  0  0  0  0  0  0  0  0
  138.8420   79.9380  223.8570 C   0  0  0  0  0  0  0  0  0  0  0  0
  137.9520   79.1400  223.1050 C   0  0  0  0  0  0  0  0  0  0  0  0
  138.4190   78.0120  222.3200 N   0  0  0  0  0  0  0  0  0  0  0  0
  137.6180   76.7740  222.2190 C   0  0  0  0  0  0  0  0  0  0  0  0
  138.3070   75.6940  221.3780 C   0  0  0  0  0  0  0  0  0  0  0  0
  139.7350   75.6010  221.7230 N   0  0  0  0  0  0  0  0  0  0  0  0
  140.4090   74.3290  221.7620 C   0  0  0  0  0  0  0  0  0  0  0  0
  141.4290   74.0690  220.9010 N   0  0  0  0  0  0  0  0  0  0  0  0
  142.0790   72.8780  220.9310 C   0  0  0  0  0  0  0  0  0  0  0  0
  143.1450   72.6090  219.9990 N   0  0  0  0  0  0  0  0  0  0  0  0
  143.5610   73.6670  219.0700 C   0  0  0  0  0  0  0  0  0  0  0  0
  144.5670   73.1190  218.0610 C   0  0  0  0  0  0  0  0  0  0  0  0
  145.5870   72.4350  218.7540 O   0  0  0  0  0  0  0  0  0  0  0  0
  145.1050   71.2110  219.2980 C   0  0  0  0  0  0  0  0  0  0  0  0
  143.6420   71.2360  219.8170 C   0  0  0  0  0  0  0  0  0  0  0  0
  141.6990   71.9350  221.8330 N   0  0  0  0  0  0  0  0  0  0  0  0
  140.6790   72.1730  222.7000 C   0  0  0  0  0  0  0  0  0  0  0  0
  140.2760   71.1550  223.6410 N   0  0  0  0  0  0  0  0  0  0  0  0
  139.0670   70.3500  223.3920 C   0  0  0  0  0  0  0  0  0  0  0  0
  139.2430   68.9280  223.9220 C   0  0  0  0  0  0  0  0  0  0  0  0
  139.6260   68.9670  225.3710 C   0  0  0  0  0  0  0  0  0  0  0  0
  139.1970   67.9580  226.2460 C   0  0  0  0  0  0  0  0  0  0  0  0
  139.5820   67.9800  227.5890 C   0  0  0  0  0  0  0  0  0  0  0  0
  140.4100   69.0000  228.0620 C   0  0  0  0  0  0  0  0  0  0  0  0
  140.8570   69.9980  227.1930 C   0  0  0  0  0  0  0  0  0  0  0  0
  140.4670   69.9910  225.8440 C   0  0  0  0  0  0  0  0  0  0  0  0
  141.0280   71.0300  224.9020 C   0  0  0  0  0  0  0  0  0  0  0  0
  140.0400   73.3730  222.6580 N   0  0  0  0  0  0  0  0  0  0  0  0
  140.5270   76.8280  221.8920 C   0  0  0  0  0  0  0  0  0  0  0  0
  139.7010   78.0790  221.6030 C   0  0  0  0  0  0  0  0  0  0  0  0
  136.6250   79.4610  223.1130 N   0  0  0  0  0  0  0  0  0  0  0  0
  136.1310   80.5180  223.8130 C   0  0  0  0  0  0  0  0  0  0  0  0
  136.5987   82.1754  225.1356 H   0  0  0  0  0  0  0  0  0  0  0  0
  139.0435   81.6434  225.1784 H   0  0  0  0  0  0  0  0  0  0  0  0
  139.9170   79.7051  223.8674 H   0  0  0  0  0  0  0  0  0  0  0  0
  137.4509   76.3788  223.2318 H   0  0  0  0  0  0  0  0  0  0  0  0
  136.6705   77.0295  221.7221 H   0  0  0  0  0  0  0  0  0  0  0  0
  137.8249   74.7241  221.5699 H   0  0  0  0  0  0  0  0  0  0  0  0
  138.2158   75.9607  220.3147 H   0  0  0  0  0  0  0  0  0  0  0  0
  142.6789   74.0467  218.5336 H   0  0  0  0  0  0  0  0  0  0  0  0
  144.0330   74.4801  219.6411 H   0  0  0  0  0  0  0  0  0  0  0  0
  144.0596   72.4261  217.3737 H   0  0  0  0  0  0  0  0  0  0  0  0
  145.0020   73.9476  217.4828 H   0  0  0  0  0  0  0  0  0  0  0  0
  145.1725   70.4426  218.5138 H   0  0  0  0  0  0  0  0  0  0  0  0
  145.7323   71.0058  220.1780 H   0  0  0  0  0  0  0  0  0  0  0  0
  142.9984   70.7188  219.0901 H   0  0  0  0  0  0  0  0  0  0  0  0
  143.6201   70.7342  220.7956 H   0  0  0  0  0  0  0  0  0  0  0  0
  138.2105   70.8198  223.8976 H   0  0  0  0  0  0  0  0  0  0  0  0
  138.8924   70.3026  222.3070 H   0  0  0  0  0  0  0  0  0  0  0  0
  138.2975   68.3772  223.8094 H   0  0  0  0  0  0  0  0  0  0  0  0
  140.0370   68.4245  223.3510 H   0  0  0  0  0  0  0  0  0  0  0  0
  138.5550   67.1462  225.8734 H   0  0  0  0  0  0  0  0  0  0  0  0
  139.2326   67.1934  228.2740 H   0  0  0  0  0  0  0  0  0  0  0  0
  140.7106   69.0176  229.1200 H   0  0  0  0  0  0  0  0  0  0  0  0
  141.5180   70.7936  227.5673 H   0  0  0  0  0  0  0  0  0  0  0  0
  141.0146   72.0044  225.4122 H   0  0  0  0  0  0  0  0  0  0  0  0
  142.0461   70.7079  224.6381 H   0  0  0  0  0  0  0  0  0  0  0  0
  140.8944   76.8751  222.9278 H   0  0  0  0  0  0  0  0  0  0  0  0
  141.3629   76.7971  221.1776 H   0  0  0  0  0  0  0  0  0  0  0  0
  140.2578   78.9678  221.9346 H   0  0  0  0  0  0  0  0  0  0  0  0
  139.5072   78.1420  220.5220 H   0  0  0  0  0  0  0  0  0  0  0  0
  135.0541   80.7407  223.7857 H   0  0  0  0  0  0  0  0  0  0  0  0
  1  2  2  0
  2  3  1  0
  3  4  2  0
  4  5  1  0
  5  6  1  0
  6  7  1  0
  7  8  1  0
  8  9  1  0
  9 10  2  0
 10 11  1  0
 11 12  1  0
 12 13  1  0
 13 14  1  0
 14 15  1  0
 15 16  1  0
 16 17  1  0
 11 18  2  0
 18 19  1  0
 19 20  1  0
 20 21  1  0
 21 22  1  0
 22 23  1  0
 23 24  2  0
 24 25  1  0
 25 26  2  0
 26 27  1  0
 27 28  2  0
 28 29  1  0
 19 30  2  0
  8 31  1  0
 31 32  1  0
  4 33  1  0
 33 34  2  0
 34  1  1  0
 32  5  1  0
 30  9  1  0
 17 12  1  0
 29 20  1  0
 28 23  1  0
  1 35  1  0
  2 36  1  0
  3 37  1  0
  6 38  1  0
  6 39  1  0
  7 40  1  0
  7 41  1  0
 13 42  1  0
 13 43  1  0
 14 44  1  0
 14 45  1  0
 16 46  1  0
 16 47  1  0
 17 48  1  0
 17 49  1  0
 21 50  1  0
 21 51  1  0
 22 52  1  0
 22 53  1  0
 24 54  1  0
 25 55  1  0
 26 56  1  0
 27 57  1  0
 29 58  1  0
 29 59  1  0
 31 60  1  0
 31 61  1  0
 32 62  1  0
 32 63  1  0
 34 64  1  0
M  END
>  <UniqueID>  (8) 
274

>  <SMILES>  (8) 
c1ccc(N2CCN(c3nc(N4CCOCC4)nc(N4CCc5ccccc5C4)n3)CC2)nc1

>  <Energy>  (8) 
78.41600375727215

>  <Genealogy>  (8) 
c1ccc(N2CCN(c3nc(N4CCOCC4)nc(N4CCc5ccccc5C4)n3)CC2)nc1 (3D coordinates assigned)
c1ccc(N2CCN(c3nc(N4CCOCC4)nc(N4CCc5ccccc5C4)n3)CC2)nc1 (nonaromatic ring conformer: 78.41600375727215 kcal/mol)

>  <smiles>  (8) 
c1ccc(N2CCN(c3nc(N4CCOCC4)nc(N4CCc5ccccc5C4)n3)CC2)nc1

>  <score_type>  (8) 
oracle

>  <origin>  (8) 
autodockgpu

>  <m_score__min__energy>  (8) 
-8.9399999999999995

>  <m_primary>  (8) 
energy

>  <meeko>  (8) 
{"free_energy": -8.86, "intermolecular_energy": -10.05, "internal_energy": -0.89, "cluster_size": 18, "cluster_id": 1, "rank_in_cluster": 15}

>  <energy>  (8) 
-8.92

>  <cluster_rmsd>  (8) 
0.05

>  <rmsd>  (8) 
270.55

>  <cluster>  (8) 
1

$$$$
XSFBOMDNDOCRMT-UHFFFAOYNA-N
     RDKit          3D

 64 69  0  0  0  0  0  0  0  0999 V2000
  137.0060   81.3630  224.6200 C   0  0  0  0  0  0  0  0  0  0  0  0
  138.3740   81.0950  224.5790 C   0  0  0  0  0  0  0  0  0  0  0  0
  138.8480   80.0010  223.8530 C   0  0  0  0  0  0  0  0  0  0  0  0
  137.9390   79.1650  223.1690 C   0  0  0  0  0  0  0  0  0  0  0  0
  138.3880   78.0240  222.3910 N   0  0  0  0  0  0  0  0  0  0  0  0
  137.6000   76.7760  222.3470 C   0  0  0  0  0  0  0  0  0  0  0  0
  138.2690   75.6860  221.5030 C   0  0  0  0  0  0  0  0  0  0  0  0
  139.7110   75.6170  221.7940 N   0  0  0  0  0  0  0  0  0  0  0  0
  140.4020   74.3540  221.8350 C   0  0  0  0  0  0  0  0  0  0  0  0
  141.4390   74.1150  220.9880 N   0  0  0  0  0  0  0  0  0  0  0  0
  142.1050   72.9330  221.0190 C   0  0  0  0  0  0  0  0  0  0  0  0
  143.1890   72.6870  220.1020 N   0  0  0  0  0  0  0  0  0  0  0  0
  143.8830   73.8300  219.4970 C   0  0  0  0  0  0  0  0  0  0  0  0
  144.8640   73.3490  218.4310 C   0  0  0  0  0  0  0  0  0  0  0  0
  145.6670   72.3250  218.9740 O   0  0  0  0  0  0  0  0  0  0  0  0
  144.9170   71.1300  219.1630 C   0  0  0  0  0  0  0  0  0  0  0  0
  143.4400   71.3270  219.5990 C   0  0  0  0  0  0  0  0  0  0  0  0
  141.7240   71.9780  221.9070 N   0  0  0  0  0  0  0  0  0  0  0  0
  140.6860   72.1950  222.7600 C   0  0  0  0  0  0  0  0  0  0  0  0
  140.2830   71.1640  223.6860 N   0  0  0  0  0  0  0  0  0  0  0  0
  139.0590   70.3820  223.4390 C   0  0  0  0  0  0  0  0  0  0  0  0
  139.2210   68.9470  223.9390 C   0  0  0  0  0  0  0  0  0  0  0  0
  139.6270   68.9510  225.3810 C   0  0  0  0  0  0  0  0  0  0  0  0
  139.1960   67.9300  226.2430 C   0  0  0  0  0  0  0  0  0  0  0  0
  139.6020   67.9200  227.5790 C   0  0  0  0  0  0  0  0  0  0  0  0
  140.4510   68.9170  228.0600 C   0  0  0  0  0  0  0  0  0  0  0  0
  140.9010   69.9260  227.2050 C   0  0  0  0  0  0  0  0  0  0  0  0
  140.4900   69.9520  225.8620 C   0  0  0  0  0  0  0  0  0  0  0  0
  141.0520   71.0010  224.9330 C   0  0  0  0  0  0  0  0  0  0  0  0
  140.0320   73.3860  222.7170 N   0  0  0  0  0  0  0  0  0  0  0  0
  140.4930   76.8570  221.9070 C   0  0  0  0  0  0  0  0  0  0  0  0
  139.6410   78.0920  221.6230 C   0  0  0  0  0  0  0  0  0  0  0  0
  136.6070   79.4580  223.2370 N   0  0  0  0  0  0  0  0  0  0  0  0
  136.1260   80.5240  223.9340 C   0  0  0  0  0  0  0  0  0  0  0  0
  136.6248   82.2255  225.1863 H   0  0  0  0  0  0  0  0  0  0  0  0
  139.0788   81.7450  225.1182 H   0  0  0  0  0  0  0  0  0  0  0  0
  139.9270   79.7908  223.8140 H   0  0  0  0  0  0  0  0  0  0  0  0
  137.4769   76.4007  223.3737 H   0  0  0  0  0  0  0  0  0  0  0  0
  136.6312   77.0100  221.8816 H   0  0  0  0  0  0  0  0  0  0  0  0
  137.8067   74.7150  221.7342 H   0  0  0  0  0  0  0  0  0  0  0  0
  138.1332   75.9283  220.4386 H   0  0  0  0  0  0  0  0  0  0  0  0
  143.1436   74.5001  219.0341 H   0  0  0  0  0  0  0  0  0  0  0  0
  144.4392   74.3667  220.2797 H   0  0  0  0  0  0  0  0  0  0  0  0
  144.3069   72.9609  217.5655 H   0  0  0  0  0  0  0  0  0  0  0  0
  145.4992   74.1862  218.1059 H   0  0  0  0  0  0  0  0  0  0  0  0
  144.9184   70.5757  218.2128 H   0  0  0  0  0  0  0  0  0  0  0  0
  145.4063   70.5953  219.9904 H   0  0  0  0  0  0  0  0  0  0  0  0
  142.7868   71.1426  218.7333 H   0  0  0  0  0  0  0  0  0  0  0  0
  143.2299   70.6195  220.4147 H   0  0  0  0  0  0  0  0  0  0  0  0
  138.2169   70.8545  223.9659 H   0  0  0  0  0  0  0  0  0  0  0  0
  138.8686   70.3583  222.3559 H   0  0  0  0  0  0  0  0  0  0  0  0
  138.2653   68.4133  223.8309 H   0  0  0  0  0  0  0  0  0  0  0  0
  139.9982   68.4429  223.3459 H   0  0  0  0  0  0  0  0  0  0  0  0
  138.5363   67.1353  225.8646 H   0  0  0  0  0  0  0  0  0  0  0  0
  139.2518   67.1246  228.2533 H   0  0  0  0  0  0  0  0  0  0  0  0
  140.7665   68.9086  229.1138 H   0  0  0  0  0  0  0  0  0  0  0  0
  141.5801   70.7034  227.5851 H   0  0  0  0  0  0  0  0  0  0  0  0
  141.0615   71.9647  225.4632 H   0  0  0  0  0  0  0  0  0  0  0  0
  142.0606   70.6684  224.6466 H   0  0  0  0  0  0  0  0  0  0  0  0
  140.8983   76.9308  222.9270 H   0  0  0  0  0  0  0  0  0  0  0  0
  141.3017   76.8206  221.1622 H   0  0  0  0  0  0  0  0  0  0  0  0
  140.1986   78.9944  221.9141 H   0  0  0  0  0  0  0  0  0  0  0  0
  139.4057   78.1302  220.5491 H   0  0  0  0  0  0  0  0  0  0  0  0
  135.0446   80.7241  223.9566 H   0  0  0  0  0  0  0  0  0  0  0  0
  1  2  2  0
  2  3  1  0
  3  4  2  0
  4  5  1  0
  5  6  1  0
  6  7  1  0
  7  8  1  0
  8  9  1  0
  9 10  2  0
 10 11  1  0
 11 12  1  0
 12 13  1  0
 13 14  1  0
 14 15  1  0
 15 16  1  0
 16 17  1  0
 11 18  2  0
 18 19  1  0
 19 20  1  0
 20 21  1  0
 21 22  1  0
 22 23  1  0
 23 24  2  0
 24 25  1  0
 25 26  2  0
 26 27  1  0
 27 28  2  0
 28 29  1  0
 19 30  2  0
  8 31  1  0
 31 32  1  0
  4 33  1  0
 33 34  2  0
 34  1  1  0
 32  5  1  0
 30  9  1  0
 17 12  1  0
 29 20  1  0
 28 23  1  0
  1 35  1  0
  2 36  1  0
  3 37  1  0
  6 38  1  0
  6 39  1  0
  7 40  1  0
  7 41  1  0
 13 42  1  0
 13 43  1  0
 14 44  1  0
 14 45  1  0
 16 46  1  0
 16 47  1  0
 17 48  1  0
 17 49  1  0
 21 50  1  0
 21 51  1  0
 22 52  1  0
 22 53  1  0
 24 54  1  0
 25 55  1  0
 26 56  1  0
 27 57  1  0
 29 58  1  0
 29 59  1  0
 31 60  1  0
 31 61  1  0
 32 62  1  0
 32 63  1  0
 34 64  1  0
M  END
>  <UniqueID>  (9) 
274

>  <SMILES>  (9) 
c1ccc(N2CCN(c3nc(N4CCOCC4)nc(N4CCc5ccccc5C4)n3)CC2)nc1

>  <Energy>  (9) 
78.41600375727215

>  <Genealogy>  (9) 
c1ccc(N2CCN(c3nc(N4CCOCC4)nc(N4CCc5ccccc5C4)n3)CC2)nc1 (3D coordinates assigned)
c1ccc(N2CCN(c3nc(N4CCOCC4)nc(N4CCc5ccccc5C4)n3)CC2)nc1 (nonaromatic ring conformer: 78.41600375727215 kcal/mol)

>  <smiles>  (9) 
c1ccc(N2CCN(c3nc(N4CCOCC4)nc(N4CCc5ccccc5C4)n3)CC2)nc1

>  <score_type>  (9) 
oracle

>  <origin>  (9) 
autodockgpu

>  <m_score__min__energy>  (9) 
-8.9399999999999995

>  <m_primary>  (9) 
energy

>  <meeko>  (9) 
{"free_energy": -8.94, "intermolecular_energy": -10.13, "internal_energy": -0.89, "cluster_size": 18, "cluster_id": 1, "rank_in_cluster": 1}

>  <energy>  (9) 
-8.91

>  <cluster_rmsd>  (9) 
0.08

>  <rmsd>  (9) 
270.53

>  <cluster>  (9) 
1

$$$$
XSFBOMDNDOCRMT-UHFFFAOYNA-N
     RDKit          3D

 64 69  0  0  0  0  0  0  0  0999 V2000
  137.3480   81.6440  224.2810 C   0  0  0  0  0  0  0  0  0  0  0  0
  136.5050   81.2000  223.2620 C   0  0  0  0  0  0  0  0  0  0  0  0
  136.8110   80.0290  222.5650 C   0  0  0  0  0  0  0  0  0  0  0  0
  137.9770   79.3030  222.8910 C   0  0  0  0  0  0  0  0  0  0  0  0
  138.3260   78.0730  222.2020 N   0  0  0  0  0  0  0  0  0  0  0  0
  137.5790   76.8240  222.4530 C   0  0  0  0  0  0  0  0  0  0  0  0
  138.1330   75.6370  221.6560 C   0  0  0  0  0  0  0  0  0  0  0  0
  139.6040   75.6190  221.7080 N   0  0  0  0  0  0  0  0  0  0  0  0
  140.3290   74.3780  221.7950 C   0  0  0  0  0  0  0  0  0  0  0  0
  141.3740   74.1380  220.9580 N   0  0  0  0  0  0  0  0  0  0  0  0
  142.0720   72.9760  221.0330 C   0  0  0  0  0  0  0  0  0  0  0  0
  143.1640   72.7270  220.1260 N   0  0  0  0  0  0  0  0  0  0  0  0
  143.8320   73.8660  219.4850 C   0  0  0  0  0  0  0  0  0  0  0  0
  144.8270   73.3760  218.4370 C   0  0  0  0  0  0  0  0  0  0  0  0
  145.6530   72.3880  219.0140 O   0  0  0  0  0  0  0  0  0  0  0  0
  144.9300   71.1830  219.2380 C   0  0  0  0  0  0  0  0  0  0  0  0
  143.4490   71.3580  219.6660 C   0  0  0  0  0  0  0  0  0  0  0  0
  141.7170   72.0440  221.9550 N   0  0  0  0  0  0  0  0  0  0  0  0
  140.6720   72.2620  222.7980 C   0  0  0  0  0  0  0  0  0  0  0  0
  140.2960   71.2550  223.7610 N   0  0  0  0  0  0  0  0  0  0  0  0
  139.0820   70.4470  223.5540 C   0  0  0  0  0  0  0  0  0  0  0  0
  139.2730   69.0310  224.0960 C   0  0  0  0  0  0  0  0  0  0  0  0
  139.6960   69.0870  225.5330 C   0  0  0  0  0  0  0  0  0  0  0  0
  139.2910   68.0870  226.4310 C   0  0  0  0  0  0  0  0  0  0  0  0
  139.7140   68.1250  227.7620 C   0  0  0  0  0  0  0  0  0  0  0  0
  140.5530   69.1500  228.2010 C   0  0  0  0  0  0  0  0  0  0  0  0
  140.9760   70.1380  227.3090 C   0  0  0  0  0  0  0  0  0  0  0  0
  140.5480   70.1160  225.9720 C   0  0  0  0  0  0  0  0  0  0  0  0
  141.0830   71.1440  225.0030 C   0  0  0  0  0  0  0  0  0  0  0  0
  139.9850   73.4330  222.7120 N   0  0  0  0  0  0  0  0  0  0  0  0
  140.3570   76.8690  221.5270 C   0  0  0  0  0  0  0  0  0  0  0  0
  139.4330   78.0490  221.2340 C   0  0  0  0  0  0  0  0  0  0  0  0
  138.7780   79.7730  223.8920 N   0  0  0  0  0  0  0  0  0  0  0  0
  138.4930   80.9070  224.5870 C   0  0  0  0  0  0  0  0  0  0  0  0
  137.1131   82.5639  224.8366 H   0  0  0  0  0  0  0  0  0  0  0  0
  135.6002   81.7716  223.0077 H   0  0  0  0  0  0  0  0  0  0  0  0
  136.1455   79.6735  221.7645 H   0  0  0  0  0  0  0  0  0  0  0  0
  137.6385   76.5871  223.5255 H   0  0  0  0  0  0  0  0  0  0  0  0
  136.5397   76.9862  222.1312 H   0  0  0  0  0  0  0  0  0  0  0  0
  137.7447   74.7012  222.0844 H   0  0  0  0  0  0  0  0  0  0  0  0
  137.8165   75.7356  220.6071 H   0  0  0  0  0  0  0  0  0  0  0  0
  143.0777   74.5026  218.9994 H   0  0  0  0  0  0  0  0  0  0  0  0
  144.3735   74.4403  220.2511 H   0  0  0  0  0  0  0  0  0  0  0  0
  144.2820   72.9481  217.5827 H   0  0  0  0  0  0  0  0  0  0  0  0
  145.4431   74.2176  218.0874 H   0  0  0  0  0  0  0  0  0  0  0  0
  144.9458   70.6007  218.3049 H   0  0  0  0  0  0  0  0  0  0  0  0
  145.4298   70.6854  220.0822 H   0  0  0  0  0  0  0  0  0  0  0  0
  142.8020   71.1308  218.8059 H   0  0  0  0  0  0  0  0  0  0  0  0
  143.2549   70.6718  220.5035 H   0  0  0  0  0  0  0  0  0  0  0  0
  138.2390   70.9225  224.0767 H   0  0  0  0  0  0  0  0  0  0  0  0
  138.8787   70.3867  222.4746 H   0  0  0  0  0  0  0  0  0  0  0  0
  138.3249   68.4790  224.0162 H   0  0  0  0  0  0  0  0  0  0  0  0
  140.0511   68.5207  223.5093 H   0  0  0  0  0  0  0  0  0  0  0  0
  138.6388   67.2712  226.0858 H   0  0  0  0  0  0  0  0  0  0  0  0
  139.3851   67.3456  228.4651 H   0  0  0  0  0  0  0  0  0  0  0  0
  140.8815   69.1799  229.2504 H   0  0  0  0  0  0  0  0  0  0  0  0
  141.6477   70.9372  227.6556 H   0  0  0  0  0  0  0  0  0  0  0  0
  141.0838   72.1242  225.5022 H   0  0  0  0  0  0  0  0  0  0  0  0
  142.0934   70.8184  224.7149 H   0  0  0  0  0  0  0  0  0  0  0  0
  140.9236   77.0798  222.4459 H   0  0  0  0  0  0  0  0  0  0  0  0
  141.0317   76.7409  220.6677 H   0  0  0  0  0  0  0  0  0  0  0  0
  140.0037   78.9863  221.3099 H   0  0  0  0  0  0  0  0  0  0  0  0
  139.0229   77.9433  220.2188 H   0  0  0  0  0  0  0  0  0  0  0  0
  139.1650   81.2432  225.3903 H   0  0  0  0  0  0  0  0  0  0  0  0
  1  2  2  0
  2  3  1  0
  3  4  2  0
  4  5  1  0
  5  6  1  0
  6  7  1  0
  7  8  1  0
  8  9  1  0
  9 10  2  0
 10 11  1  0
 11 12  1  0
 12 13  1  0
 13 14  1  0
 14 15  1  0
 15 16  1  0
 16 17  1  0
 11 18  2  0
 18 19  1  0
 19 20  1  0
 20 21  1  0
 21 22  1  0
 22 23  1  0
 23 24  2  0
 24 25  1  0
 25 26  2  0
 26 27  1  0
 27 28  2  0
 28 29  1  0
 19 30  2  0
  8 31  1  0
 31 32  1  0
  4 33  1  0
 33 34  2  0
 34  1  1  0
 32  5  1  0
 30  9  1  0
 17 12  1  0
 29 20  1  0
 28 23  1  0
  1 35  1  0
  2 36  1  0
  3 37  1  0
  6 38  1  0
  6 39  1  0
  7 40  1  0
  7 41  1  0
 13 42  1  0
 13 43  1  0
 14 44  1  0
 14 45  1  0
 16 46  1  0
 16 47  1  0
 17 48  1  0
 17 49  1  0
 21 50  1  0
 21 51  1  0
 22 52  1  0
 22 53  1  0
 24 54  1  0
 25 55  1  0
 26 56  1  0
 27 57  1  0
 29 58  1  0
 29 59  1  0
 31 60  1  0
 31 61  1  0
 32 62  1  0
 32 63  1  0
 34 64  1  0
M  END
>  <UniqueID>  (10) 
274

>  <SMILES>  (10) 
c1ccc(N2CCN(c3nc(N4CCOCC4)nc(N4CCc5ccccc5C4)n3)CC2)nc1

>  <Energy>  (10) 
78.41600375727215

>  <Genealogy>  (10) 
c1ccc(N2CCN(c3nc(N4CCOCC4)nc(N4CCc5ccccc5C4)n3)CC2)nc1 (3D coordinates assigned)
c1ccc(N2CCN(c3nc(N4CCOCC4)nc(N4CCc5ccccc5C4)n3)CC2)nc1 (nonaromatic ring conformer: 78.41600375727215 kcal/mol)

>  <smiles>  (10) 
c1ccc(N2CCN(c3nc(N4CCOCC4)nc(N4CCc5ccccc5C4)n3)CC2)nc1

>  <score_type>  (10) 
oracle

>  <origin>  (10) 
autodockgpu

>  <m_score__min__energy>  (10) 
-8.9399999999999995

>  <m_primary>  (10) 
energy

>  <meeko>  (10) 
{"free_energy": -8.73, "intermolecular_energy": -9.92, "internal_energy": -0.9, "cluster_size": 18, "cluster_id": 1, "rank_in_cluster": 17}

>  <energy>  (10) 
-8.91

>  <cluster_rmsd>  (10) 
0.12

>  <rmsd>  (10) 
270.54

>  <cluster>  (10) 
1

$$$$
XSFBOMDNDOCRMT-UHFFFAOYNA-N
     RDKit          3D

 64 69  0  0  0  0  0  0  0  0999 V2000
  136.8030   81.3120  224.5760 C   0  0  0  0  0  0  0  0  0  0  0  0
  138.1810   81.0960  224.5760 C   0  0  0  0  0  0  0  0  0  0  0  0
  138.7200   80.0360  223.8440 C   0  0  0  0  0  0  0  0  0  0  0  0
  137.8660   79.1820  223.1120 C   0  0  0  0  0  0  0  0  0  0  0  0
  138.3840   78.0770  222.3270 N   0  0  0  0  0  0  0  0  0  0  0  0
  137.5980   76.8390  222.1470 C   0  0  0  0  0  0  0  0  0  0  0  0
  138.3420   75.7850  221.3190 C   0  0  0  0  0  0  0  0  0  0  0  0
  139.7480   75.6890  221.7440 N   0  0  0  0  0  0  0  0  0  0  0  0
  140.4270   74.4190  221.7900 C   0  0  0  0  0  0  0  0  0  0  0  0
  141.4560   74.1640  220.9380 N   0  0  0  0  0  0  0  0  0  0  0  0
  142.1100   72.9760  220.9740 C   0  0  0  0  0  0  0  0  0  0  0  0
  143.1860   72.7120  220.0510 N   0  0  0  0  0  0  0  0  0  0  0  0
  143.8590   73.8420  219.4000 C   0  0  0  0  0  0  0  0  0  0  0  0
  144.8320   73.3380  218.3380 C   0  0  0  0  0  0  0  0  0  0  0  0
  145.6540   72.3410  218.9040 O   0  0  0  0  0  0  0  0  0  0  0  0
  144.9200   71.1450  219.1410 C   0  0  0  0  0  0  0  0  0  0  0  0
  143.4460   71.3390  219.5890 C   0  0  0  0  0  0  0  0  0  0  0  0
  141.7260   72.0310  221.8710 N   0  0  0  0  0  0  0  0  0  0  0  0
  140.6960   72.2640  222.7290 C   0  0  0  0  0  0  0  0  0  0  0  0
  140.2880   71.2440  223.6650 N   0  0  0  0  0  0  0  0  0  0  0  0
  139.0710   70.4520  223.4170 C   0  0  0  0  0  0  0  0  0  0  0  0
  139.2360   69.0260  223.9380 C   0  0  0  0  0  0  0  0  0  0  0  0
  139.6270   69.0520  225.3850 C   0  0  0  0  0  0  0  0  0  0  0  0
  139.1920   68.0410  226.2560 C   0  0  0  0  0  0  0  0  0  0  0  0
  139.5840   68.0520  227.5970 C   0  0  0  0  0  0  0  0  0  0  0  0
  140.4230   69.0610  228.0730 C   0  0  0  0  0  0  0  0  0  0  0  0
  140.8760   70.0600  227.2070 C   0  0  0  0  0  0  0  0  0  0  0  0
  140.4790   70.0650  225.8610 C   0  0  0  0  0  0  0  0  0  0  0  0
  141.0460   71.1040  224.9220 C   0  0  0  0  0  0  0  0  0  0  0  0
  140.0530   73.4620  222.6820 N   0  0  0  0  0  0  0  0  0  0  0  0
  140.5210   76.9160  221.9920 C   0  0  0  0  0  0  0  0  0  0  0  0
  139.7050   78.1700  221.6880 C   0  0  0  0  0  0  0  0  0  0  0  0
  136.5220   79.4240  223.1420 N   0  0  0  0  0  0  0  0  0  0  0  0
  135.9790   80.4560  223.8430 C   0  0  0  0  0  0  0  0  0  0  0  0
  136.3706   82.1470  225.1468 H   0  0  0  0  0  0  0  0  0  0  0  0
  138.8424   81.7599  225.1520 H   0  0  0  0  0  0  0  0  0  0  0  0
  139.8069   79.8666  223.8375 H   0  0  0  0  0  0  0  0  0  0  0  0
  137.3748   76.4160  223.1376 H   0  0  0  0  0  0  0  0  0  0  0  0
  136.6792   77.1032  221.6030 H   0  0  0  0  0  0  0  0  0  0  0  0
  137.8554   74.8081  221.4564 H   0  0  0  0  0  0  0  0  0  0  0  0
  138.3114   76.0802  220.2598 H   0  0  0  0  0  0  0  0  0  0  0  0
  143.1061   74.4881  218.9250 H   0  0  0  0  0  0  0  0  0  0  0  0
  144.4187   74.4100  220.1576 H   0  0  0  0  0  0  0  0  0  0  0  0
  144.2689   72.9156  217.4927 H   0  0  0  0  0  0  0  0  0  0  0  0
  145.4531   74.1713  217.9778 H   0  0  0  0  0  0  0  0  0  0  0  0
  144.9162   70.5602  218.2093 H   0  0  0  0  0  0  0  0  0  0  0  0
  145.4254   70.6434  219.9795 H   0  0  0  0  0  0  0  0  0  0  0  0
  142.7844   71.1194  218.7381 H   0  0  0  0  0  0  0  0  0  0  0  0
  143.2537   70.6558  220.4294 H   0  0  0  0  0  0  0  0  0  0  0  0
  138.2212   70.9269  223.9291 H   0  0  0  0  0  0  0  0  0  0  0  0
  138.8912   70.4124  222.3325 H   0  0  0  0  0  0  0  0  0  0  0  0
  138.2846   68.4851  223.8272 H   0  0  0  0  0  0  0  0  0  0  0  0
  140.0225   68.5186  223.3600 H   0  0  0  0  0  0  0  0  0  0  0  0
  138.5405   67.2376  225.8817 H   0  0  0  0  0  0  0  0  0  0  0  0
  139.2309   67.2643  228.2788 H   0  0  0  0  0  0  0  0  0  0  0  0
  140.7277   69.0698  229.1299 H   0  0  0  0  0  0  0  0  0  0  0  0
  141.5472   70.8465  227.5824 H   0  0  0  0  0  0  0  0  0  0  0  0
  141.0454   72.0755  225.4379 H   0  0  0  0  0  0  0  0  0  0  0  0
  142.0595   70.7732  224.6509 H   0  0  0  0  0  0  0  0  0  0  0  0
  140.8265   76.9372  223.0485 H   0  0  0  0  0  0  0  0  0  0  0  0
  141.3977   76.9085  221.3276 H   0  0  0  0  0  0  0  0  0  0  0  0
  140.2355   79.0526  222.0748 H   0  0  0  0  0  0  0  0  0  0  0  0
  139.5742   78.2609  220.5996 H   0  0  0  0  0  0  0  0  0  0  0  0
  134.8907   80.6159  223.8322 H   0  0  0  0  0  0  0  0  0  0  0  0
  1  2  2  0
  2  3  1  0
  3  4  2  0
  4  5  1  0
  5  6  1  0
  6  7  1  0
  7  8  1  0
  8  9  1  0
  9 10  2  0
 10 11  1  0
 11 12  1  0
 12 13  1  0
 13 14  1  0
 14 15  1  0
 15 16  1  0
 16 17  1  0
 11 18  2  0
 18 19  1  0
 19 20  1  0
 20 21  1  0
 21 22  1  0
 22 23  1  0
 23 24  2  0
 24 25  1  0
 25 26  2  0
 26 27  1  0
 27 28  2  0
 28 29  1  0
 19 30  2  0
  8 31  1  0
 31 32  1  0
  4 33  1  0
 33 34  2  0
 34  1  1  0
 32  5  1  0
 30  9  1  0
 17 12  1  0
 29 20  1  0
 28 23  1  0
  1 35  1  0
  2 36  1  0
  3 37  1  0
  6 38  1  0
  6 39  1  0
  7 40  1  0
  7 41  1  0
 13 42  1  0
 13 43  1  0
 14 44  1  0
 14 45  1  0
 16 46  1  0
 16 47  1  0
 17 48  1  0
 17 49  1  0
 21 50  1  0
 21 51  1  0
 22 52  1  0
 22 53  1  0
 24 54  1  0
 25 55  1  0
 26 56  1  0
 27 57  1  0
 29 58  1  0
 29 59  1  0
 31 60  1  0
 31 61  1  0
 32 62  1  0
 32 63  1  0
 34 64  1  0
M  END
>  <UniqueID>  (11) 
274

>  <SMILES>  (11) 
c1ccc(N2CCN(c3nc(N4CCOCC4)nc(N4CCc5ccccc5C4)n3)CC2)nc1

>  <Energy>  (11) 
78.41600375727215

>  <Genealogy>  (11) 
c1ccc(N2CCN(c3nc(N4CCOCC4)nc(N4CCc5ccccc5C4)n3)CC2)nc1 (3D coordinates assigned)
c1ccc(N2CCN(c3nc(N4CCOCC4)nc(N4CCc5ccccc5C4)n3)CC2)nc1 (nonaromatic ring conformer: 78.41600375727215 kcal/mol)

>  <smiles>  (11) 
c1ccc(N2CCN(c3nc(N4CCOCC4)nc(N4CCc5ccccc5C4)n3)CC2)nc1

>  <score_type>  (11) 
oracle

>  <origin>  (11) 
autodockgpu

>  <m_score__min__energy>  (11) 
-8.9399999999999995

>  <m_primary>  (11) 
energy

>  <meeko>  (11) 
{"free_energy": -8.91, "intermolecular_energy": -10.1, "internal_energy": -0.89, "cluster_size": 18, "cluster_id": 1, "rank_in_cluster": 10}

>  <energy>  (11) 
-8.91

>  <cluster_rmsd>  (11) 
0.07

>  <rmsd>  (11) 
270.56

>  <cluster>  (11) 
1

$$$$
XSFBOMDNDOCRMT-UHFFFAOYNA-N
     RDKit          3D

 64 69  0  0  0  0  0  0  0  0999 V2000
  136.9410   81.3490  224.5480 C   0  0  0  0  0  0  0  0  0  0  0  0
  138.3080   81.0720  224.5640 C   0  0  0  0  0  0  0  0  0  0  0  0
  138.8080   79.9890  223.8390 C   0  0  0  0  0  0  0  0  0  0  0  0
  137.9260   79.1740  223.0970 C   0  0  0  0  0  0  0  0  0  0  0  0
  138.4040   78.0460  222.3180 N   0  0  0  0  0  0  0  0  0  0  0  0
  137.6110   76.8040  222.2150 C   0  0  0  0  0  0  0  0  0  0  0  0
  138.3120   75.7260  221.3810 C   0  0  0  0  0  0  0  0  0  0  0  0
  139.7380   75.6420  221.7340 N   0  0  0  0  0  0  0  0  0  0  0  0
  140.4200   74.3740  221.7810 C   0  0  0  0  0  0  0  0  0  0  0  0
  141.4510   74.1210  220.9310 N   0  0  0  0  0  0  0  0  0  0  0  0
  142.1080   72.9340  220.9670 C   0  0  0  0  0  0  0  0  0  0  0  0
  143.1850   72.6720  220.0460 N   0  0  0  0  0  0  0  0  0  0  0  0
  143.8450   73.8030  219.3830 C   0  0  0  0  0  0  0  0  0  0  0  0
  144.8230   73.2990  218.3250 C   0  0  0  0  0  0  0  0  0  0  0  0
  145.6550   72.3160  218.9000 O   0  0  0  0  0  0  0  0  0  0  0  0
  144.9340   71.1150  219.1490 C   0  0  0  0  0  0  0  0  0  0  0  0
  143.4590   71.2980  219.5970 C   0  0  0  0  0  0  0  0  0  0  0  0
  141.7240   71.9880  221.8650 N   0  0  0  0  0  0  0  0  0  0  0  0
  140.6930   72.2200  222.7210 C   0  0  0  0  0  0  0  0  0  0  0  0
  140.2870   71.1990  223.6570 N   0  0  0  0  0  0  0  0  0  0  0  0
  139.0750   70.4000  223.4050 C   0  0  0  0  0  0  0  0  0  0  0  0
  139.2450   68.9750  223.9290 C   0  0  0  0  0  0  0  0  0  0  0  0
  139.6290   69.0060  225.3780 C   0  0  0  0  0  0  0  0  0  0  0  0
  139.1960   67.9950  226.2490 C   0  0  0  0  0  0  0  0  0  0  0  0
  139.5820   68.0090  227.5910 C   0  0  0  0  0  0  0  0  0  0  0  0
  140.4130   69.0240  228.0690 C   0  0  0  0  0  0  0  0  0  0  0  0
  140.8650   70.0240  227.2040 C   0  0  0  0  0  0  0  0  0  0  0  0
  140.4740   70.0240  225.8560 C   0  0  0  0  0  0  0  0  0  0  0  0
  141.0390   71.0650  224.9180 C   0  0  0  0  0  0  0  0  0  0  0  0
  140.0470   73.4160  222.6730 N   0  0  0  0  0  0  0  0  0  0  0  0
  140.5220   76.8750  221.9060 C   0  0  0  0  0  0  0  0  0  0  0  0
  139.6900   78.1200  221.6080 C   0  0  0  0  0  0  0  0  0  0  0  0
  136.5940   79.4760  223.1100 N   0  0  0  0  0  0  0  0  0  0  0  0
  136.0890   80.5310  223.8040 C   0  0  0  0  0  0  0  0  0  0  0  0
  136.5392   82.2018  225.1149 H   0  0  0  0  0  0  0  0  0  0  0  0
  138.9914   81.7065  225.1474 H   0  0  0  0  0  0  0  0  0  0  0  0
  139.8862   79.7713  223.8459 H   0  0  0  0  0  0  0  0  0  0  0  0
  137.4395   76.4102  223.2277 H   0  0  0  0  0  0  0  0  0  0  0  0
  136.6651   77.0528  221.7116 H   0  0  0  0  0  0  0  0  0  0  0  0
  137.8345   74.7537  221.5725 H   0  0  0  0  0  0  0  0  0  0  0  0
  138.2257   75.9900  220.3166 H   0  0  0  0  0  0  0  0  0  0  0  0
  143.0846   74.4359  218.9022 H   0  0  0  0  0  0  0  0  0  0  0  0
  144.3990   74.3848  220.1344 H   0  0  0  0  0  0  0  0  0  0  0  0
  144.2640   72.8630  217.4839 H   0  0  0  0  0  0  0  0  0  0  0  0
  145.4355   74.1352  217.9566 H   0  0  0  0  0  0  0  0  0  0  0  0
  144.9351   70.5215  218.2228 H   0  0  0  0  0  0  0  0  0  0  0  0
  145.4456   70.6264  219.9913 H   0  0  0  0  0  0  0  0  0  0  0  0
  142.7987   71.0633  218.7491 H   0  0  0  0  0  0  0  0  0  0  0  0
  143.2751   70.6210  220.4443 H   0  0  0  0  0  0  0  0  0  0  0  0
  138.2205   70.8713  223.9127 H   0  0  0  0  0  0  0  0  0  0  0  0
  138.9003   70.3578  222.3198 H   0  0  0  0  0  0  0  0  0  0  0  0
  138.2970   68.4289  223.8146 H   0  0  0  0  0  0  0  0  0  0  0  0
  140.0366   68.4705  223.3555 H   0  0  0  0  0  0  0  0  0  0  0  0
  138.5498   67.1880  225.8733 H   0  0  0  0  0  0  0  0  0  0  0  0
  139.2310   67.2197  228.2720 H   0  0  0  0  0  0  0  0  0  0  0  0
  140.7121   69.0365  229.1275 H   0  0  0  0  0  0  0  0  0  0  0  0
  141.5302   70.8147  227.5812 H   0  0  0  0  0  0  0  0  0  0  0  0
  141.0298   72.0372  225.4325 H   0  0  0  0  0  0  0  0  0  0  0  0
  142.0556   70.7395  224.6523 H   0  0  0  0  0  0  0  0  0  0  0  0
  140.8816   76.9268  222.9443 H   0  0  0  0  0  0  0  0  0  0  0  0
  141.3635   76.8476  221.1981 H   0  0  0  0  0  0  0  0  0  0  0  0
  140.2390   79.0134  221.9404 H   0  0  0  0  0  0  0  0  0  0  0  0
  139.5026   78.1792  220.5257 H   0  0  0  0  0  0  0  0  0  0  0  0
  135.0093   80.7397  223.7790 H   0  0  0  0  0  0  0  0  0  0  0  0
  1  2  2  0
  2  3  1  0
  3  4  2  0
  4  5  1  0
  5  6  1  0
  6  7  1  0
  7  8  1  0
  8  9  1  0
  9 10  2  0
 10 11  1  0
 11 12  1  0
 12 13  1  0
 13 14  1  0
 14 15  1  0
 15 16  1  0
 16 17  1  0
 11 18  2  0
 18 19  1  0
 19 20  1  0
 20 21  1  0
 21 22  1  0
 22 23  1  0
 23 24  2  0
 24 25  1  0
 25 26  2  0
 26 27  1  0
 27 28  2  0
 28 29  1  0
 19 30  2  0
  8 31  1  0
 31 32  1  0
  4 33  1  0
 33 34  2  0
 34  1  1  0
 32  5  1  0
 30  9  1  0
 17 12  1  0
 29 20  1  0
 28 23  1  0
  1 35  1  0
  2 36  1  0
  3 37  1  0
  6 38  1  0
  6 39  1  0
  7 40  1  0
  7 41  1  0
 13 42  1  0
 13 43  1  0
 14 44  1  0
 14 45  1  0
 16 46  1  0
 16 47  1  0
 17 48  1  0
 17 49  1  0
 21 50  1  0
 21 51  1  0
 22 52  1  0
 22 53  1  0
 24 54  1  0
 25 55  1  0
 26 56  1  0
 27 57  1  0
 29 58  1  0
 29 59  1  0
 31 60  1  0
 31 61  1  0
 32 62  1  0
 32 63  1  0
 34 64  1  0
M  END
>  <UniqueID>  (12) 
274

>  <SMILES>  (12) 
c1ccc(N2CCN(c3nc(N4CCOCC4)nc(N4CCc5ccccc5C4)n3)CC2)nc1

>  <Energy>  (12) 
78.41600375727215

>  <Genealogy>  (12) 
c1ccc(N2CCN(c3nc(N4CCOCC4)nc(N4CCc5ccccc5C4)n3)CC2)nc1 (3D coordinates assigned)
c1ccc(N2CCN(c3nc(N4CCOCC4)nc(N4CCc5ccccc5C4)n3)CC2)nc1 (nonaromatic ring conformer: 78.41600375727215 kcal/mol)

>  <smiles>  (12) 
c1ccc(N2CCN(c3nc(N4CCOCC4)nc(N4CCc5ccccc5C4)n3)CC2)nc1

>  <score_type>  (12) 
oracle

>  <origin>  (12) 
autodockgpu

>  <m_score__min__energy>  (12) 
-8.9399999999999995

>  <m_primary>  (12) 
energy

>  <meeko>  (12) 
{"free_energy": -8.91, "intermolecular_energy": -10.11, "internal_energy": -0.89, "cluster_size": 18, "cluster_id": 1, "rank_in_cluster": 9}

>  <energy>  (12) 
-8.9

>  <cluster_rmsd>  (12) 
0.13

>  <rmsd>  (12) 
270.53

>  <cluster>  (12) 
1

$$$$
XSFBOMDNDOCRMT-UHFFFAOYNA-N
     RDKit          3D

 64 69  0  0  0  0  0  0  0  0999 V2000
  136.9960   81.3350  224.6340 C   0  0  0  0  0  0  0  0  0  0  0  0
  138.3670   81.0830  224.5880 C   0  0  0  0  0  0  0  0  0  0  0  0
  138.8520   79.9970  223.8570 C   0  0  0  0  0  0  0  0  0  0  0  0
  137.9510   79.1530  223.1720 C   0  0  0  0  0  0  0  0  0  0  0  0
  138.4120   78.0220  222.3890 N   0  0  0  0  0  0  0  0  0  0  0  0
  137.6210   76.7760  222.3160 C   0  0  0  0  0  0  0  0  0  0  0  0
  138.3030   75.6940  221.4710 C   0  0  0  0  0  0  0  0  0  0  0  0
  139.7390   75.6180  221.7870 N   0  0  0  0  0  0  0  0  0  0  0  0
  140.4260   74.3520  221.8250 C   0  0  0  0  0  0  0  0  0  0  0  0
  141.4610   74.1120  220.9770 N   0  0  0  0  0  0  0  0  0  0  0  0
  142.1230   72.9270  221.0050 C   0  0  0  0  0  0  0  0  0  0  0  0
  143.2050   72.6790  220.0870 N   0  0  0  0  0  0  0  0  0  0  0  0
  143.8740   73.8200  219.4490 C   0  0  0  0  0  0  0  0  0  0  0  0
  144.8570   73.3320  218.3880 C   0  0  0  0  0  0  0  0  0  0  0  0
  145.6820   72.3360  218.9500 O   0  0  0  0  0  0  0  0  0  0  0  0
  144.9550   71.1330  219.1720 C   0  0  0  0  0  0  0  0  0  0  0  0
  143.4780   71.3120  219.6140 C   0  0  0  0  0  0  0  0  0  0  0  0
  141.7400   71.9720  221.8920 N   0  0  0  0  0  0  0  0  0  0  0  0
  140.7040   72.1910  222.7460 C   0  0  0  0  0  0  0  0  0  0  0  0
  140.2980   71.1600  223.6710 N   0  0  0  0  0  0  0  0  0  0  0  0
  139.0730   70.3800  223.4230 C   0  0  0  0  0  0  0  0  0  0  0  0
  139.2330   68.9450  223.9210 C   0  0  0  0  0  0  0  0  0  0  0  0
  139.6380   68.9460  225.3640 C   0  0  0  0  0  0  0  0  0  0  0  0
  139.2050   67.9260  226.2250 C   0  0  0  0  0  0  0  0  0  0  0  0
  139.6100   67.9140  227.5610 C   0  0  0  0  0  0  0  0  0  0  0  0
  140.4610   68.9090  228.0440 C   0  0  0  0  0  0  0  0  0  0  0  0
  140.9130   69.9180  227.1890 C   0  0  0  0  0  0  0  0  0  0  0  0
  140.5020   69.9460  225.8470 C   0  0  0  0  0  0  0  0  0  0  0  0
  141.0670   70.9950  224.9180 C   0  0  0  0  0  0  0  0  0  0  0  0
  140.0540   73.3850  222.7060 N   0  0  0  0  0  0  0  0  0  0  0  0
  140.5220   76.8540  221.9290 C   0  0  0  0  0  0  0  0  0  0  0  0
  139.6780   78.0950  221.6450 C   0  0  0  0  0  0  0  0  0  0  0  0
  136.6160   79.4320  223.2450 N   0  0  0  0  0  0  0  0  0  0  0  0
  136.1250   80.4890  223.9470 C   0  0  0  0  0  0  0  0  0  0  0  0
  136.6062   82.1905  225.2051 H   0  0  0  0  0  0  0  0  0  0  0  0
  139.0657   81.7395  225.1273 H   0  0  0  0  0  0  0  0  0  0  0  0
  139.9333   79.7994  223.8148 H   0  0  0  0  0  0  0  0  0  0  0  0
  137.4783   76.3889  223.3357 H   0  0  0  0  0  0  0  0  0  0  0  0
  136.6612   77.0181  221.8362 H   0  0  0  0  0  0  0  0  0  0  0  0
  137.8344   74.7215  221.6823 H   0  0  0  0  0  0  0  0  0  0  0  0
  138.1870   75.9493  220.4073 H   0  0  0  0  0  0  0  0  0  0  0  0
  143.1191   74.4647  218.9752 H   0  0  0  0  0  0  0  0  0  0  0  0
  144.4254   74.3854  220.2147 H   0  0  0  0  0  0  0  0  0  0  0  0
  144.3019   72.9134  217.5356 H   0  0  0  0  0  0  0  0  0  0  0  0
  145.4745   74.1727  218.0388 H   0  0  0  0  0  0  0  0  0  0  0  0
  144.9601   70.5570  218.2349 H   0  0  0  0  0  0  0  0  0  0  0  0
  145.4595   70.6274  220.0085 H   0  0  0  0  0  0  0  0  0  0  0  0
  142.8224   71.0951  218.7577 H   0  0  0  0  0  0  0  0  0  0  0  0
  143.2868   70.6199  220.4473 H   0  0  0  0  0  0  0  0  0  0  0  0
  138.2315   70.8529  223.9504 H   0  0  0  0  0  0  0  0  0  0  0  0
  138.8826   70.3579  222.3398 H   0  0  0  0  0  0  0  0  0  0  0  0
  138.2768   68.4125  223.8113 H   0  0  0  0  0  0  0  0  0  0  0  0
  140.0104   68.4412  223.3279 H   0  0  0  0  0  0  0  0  0  0  0  0
  138.5439   67.1328  225.8458 H   0  0  0  0  0  0  0  0  0  0  0  0
  139.2576   67.1187  228.2343 H   0  0  0  0  0  0  0  0  0  0  0  0
  140.7761   68.8992  229.0979 H   0  0  0  0  0  0  0  0  0  0  0  0
  141.5939   70.6937  227.5694 H   0  0  0  0  0  0  0  0  0  0  0  0
  141.0787   71.9585  225.4486 H   0  0  0  0  0  0  0  0  0  0  0  0
  142.0751   70.6607  224.6316 H   0  0  0  0  0  0  0  0  0  0  0  0
  140.9093   76.9142  222.9568 H   0  0  0  0  0  0  0  0  0  0  0  0
  141.3438   76.8244  221.1983 H   0  0  0  0  0  0  0  0  0  0  0  0
  140.2328   78.9922  221.9568 H   0  0  0  0  0  0  0  0  0  0  0  0
  139.4617   78.1463  220.5677 H   0  0  0  0  0  0  0  0  0  0  0  0
  135.0414   80.6765  223.9729 H   0  0  0  0  0  0  0  0  0  0  0  0
  1  2  2  0
  2  3  1  0
  3  4  2  0
  4  5  1  0
  5  6  1  0
  6  7  1  0
  7  8  1  0
  8  9  1  0
  9 10  2  0
 10 11  1  0
 11 12  1  0
 12 13  1  0
 13 14  1  0
 14 15  1  0
 15 16  1  0
 16 17  1  0
 11 18  2  0
 18 19  1  0
 19 20  1  0
 20 21  1  0
 21 22  1  0
 22 23  1  0
 23 24  2  0
 24 25  1  0
 25 26  2  0
 26 27  1  0
 27 28  2  0
 28 29  1  0
 19 30  2  0
  8 31  1  0
 31 32  1  0
  4 33  1  0
 33 34  2  0
 34  1  1  0
 32  5  1  0
 30  9  1  0
 17 12  1  0
 29 20  1  0
 28 23  1  0
  1 35  1  0
  2 36  1  0
  3 37  1  0
  6 38  1  0
  6 39  1  0
  7 40  1  0
  7 41  1  0
 13 42  1  0
 13 43  1  0
 14 44  1  0
 14 45  1  0
 16 46  1  0
 16 47  1  0
 17 48  1  0
 17 49  1  0
 21 50  1  0
 21 51  1  0
 22 52  1  0
 22 53  1  0
 24 54  1  0
 25 55  1  0
 26 56  1  0
 27 57  1  0
 29 58  1  0
 29 59  1  0
 31 60  1  0
 31 61  1  0
 32 62  1  0
 32 63  1  0
 34 64  1  0
M  END
>  <UniqueID>  (13) 
274

>  <SMILES>  (13) 
c1ccc(N2CCN(c3nc(N4CCOCC4)nc(N4CCc5ccccc5C4)n3)CC2)nc1

>  <Energy>  (13) 
78.41600375727215

>  <Genealogy>  (13) 
c1ccc(N2CCN(c3nc(N4CCOCC4)nc(N4CCc5ccccc5C4)n3)CC2)nc1 (3D coordinates assigned)
c1ccc(N2CCN(c3nc(N4CCOCC4)nc(N4CCc5ccccc5C4)n3)CC2)nc1 (nonaromatic ring conformer: 78.41600375727215 kcal/mol)

>  <smiles>  (13) 
c1ccc(N2CCN(c3nc(N4CCOCC4)nc(N4CCc5ccccc5C4)n3)CC2)nc1

>  <score_type>  (13) 
oracle

>  <origin>  (13) 
autodockgpu

>  <m_score__min__energy>  (13) 
-8.9399999999999995

>  <m_primary>  (13) 
energy

>  <meeko>  (13) 
{"free_energy": -8.93, "intermolecular_energy": -10.13, "internal_energy": -0.89, "cluster_size": 18, "cluster_id": 1, "rank_in_cluster": 2}

>  <energy>  (13) 
-8.89

>  <cluster_rmsd>  (13) 
0.16

>  <rmsd>  (13) 
270.51

>  <cluster>  (13) 
1

$$$$
XSFBOMDNDOCRMT-UHFFFAOYNA-N
     RDKit          3D

 64 69  0  0  0  0  0  0  0  0999 V2000
  136.7020   81.1730  224.6010 C   0  0  0  0  0  0  0  0  0  0  0  0
  138.0880   81.0110  224.5880 C   0  0  0  0  0  0  0  0  0  0  0  0
  138.6620   79.9760  223.8480 C   0  0  0  0  0  0  0  0  0  0  0  0
  137.8360   79.0910  223.1210 C   0  0  0  0  0  0  0  0  0  0  0  0
  138.3910   78.0090  222.3280 N   0  0  0  0  0  0  0  0  0  0  0  0
  137.6090   76.7840  222.0610 C   0  0  0  0  0  0  0  0  0  0  0  0
  138.3910   75.7530  221.2410 C   0  0  0  0  0  0  0  0  0  0  0  0
  139.7710   75.6320  221.7400 N   0  0  0  0  0  0  0  0  0  0  0  0
  140.4380   74.3560  221.7790 C   0  0  0  0  0  0  0  0  0  0  0  0
  141.4560   74.0910  220.9180 N   0  0  0  0  0  0  0  0  0  0  0  0
  142.1000   72.8960  220.9470 C   0  0  0  0  0  0  0  0  0  0  0  0
  143.1640   72.6220  220.0150 N   0  0  0  0  0  0  0  0  0  0  0  0
  143.8110   73.7440  219.3230 C   0  0  0  0  0  0  0  0  0  0  0  0
  144.7740   73.2250  218.2590 C   0  0  0  0  0  0  0  0  0  0  0  0
  145.6180   72.2540  218.8370 O   0  0  0  0  0  0  0  0  0  0  0  0
  144.9040   71.0550  219.1170 C   0  0  0  0  0  0  0  0  0  0  0  0
  143.4360   71.2410  219.5840 C   0  0  0  0  0  0  0  0  0  0  0  0
  141.7150   71.9550  221.8490 N   0  0  0  0  0  0  0  0  0  0  0  0
  140.6960   72.1980  222.7160 C   0  0  0  0  0  0  0  0  0  0  0  0
  140.2880   71.1820  223.6560 N   0  0  0  0  0  0  0  0  0  0  0  0
  139.0690   70.3920  223.4130 C   0  0  0  0  0  0  0  0  0  0  0  0
  139.2320   68.9670  223.9390 C   0  0  0  0  0  0  0  0  0  0  0  0
  139.6250   68.9970  225.3850 C   0  0  0  0  0  0  0  0  0  0  0  0
  139.1900   67.9900  226.2600 C   0  0  0  0  0  0  0  0  0  0  0  0
  139.5840   68.0050  227.6000 C   0  0  0  0  0  0  0  0  0  0  0  0
  140.4250   69.0140  228.0710 C   0  0  0  0  0  0  0  0  0  0  0  0
  140.8790   70.0090  227.2020 C   0  0  0  0  0  0  0  0  0  0  0  0
  140.4800   70.0100  225.8560 C   0  0  0  0  0  0  0  0  0  0  0  0
  141.0470   71.0450  224.9130 C   0  0  0  0  0  0  0  0  0  0  0  0
  140.0640   73.4020  222.6750 N   0  0  0  0  0  0  0  0  0  0  0  0
  140.5360   76.8420  222.0730 C   0  0  0  0  0  0  0  0  0  0  0  0
  139.7460   78.1130  221.7680 C   0  0  0  0  0  0  0  0  0  0  0  0
  136.4840   79.2800  223.1630 N   0  0  0  0  0  0  0  0  0  0  0  0
  135.9070   80.2870  223.8720 C   0  0  0  0  0  0  0  0  0  0  0  0
  136.2419   81.9884  225.1783 H   0  0  0  0  0  0  0  0  0  0  0  0
  138.7278   81.6986  225.1606 H   0  0  0  0  0  0  0  0  0  0  0  0
  139.7546   79.8501  223.8312 H   0  0  0  0  0  0  0  0  0  0  0  0
  137.3273   76.3293  223.0222 H   0  0  0  0  0  0  0  0  0  0  0  0
  136.7246   77.0744  221.4749 H   0  0  0  0  0  0  0  0  0  0  0  0
  137.8918   74.7759  221.3183 H   0  0  0  0  0  0  0  0  0  0  0  0
  138.4211   76.0834  220.1922 H   0  0  0  0  0  0  0  0  0  0  0  0
  143.0416   74.3669  218.8434 H   0  0  0  0  0  0  0  0  0  0  0  0
  144.3747   74.3397  220.0561 H   0  0  0  0  0  0  0  0  0  0  0  0
  144.2034   72.7735  217.4340 H   0  0  0  0  0  0  0  0  0  0  0  0
  145.3783   74.0567  217.8676 H   0  0  0  0  0  0  0  0  0  0  0  0
  144.8929   70.4462  218.2009 H   0  0  0  0  0  0  0  0  0  0  0  0
  145.4297   70.5822  219.9597 H   0  0  0  0  0  0  0  0  0  0  0  0
  142.7638   70.9906  218.7500 H   0  0  0  0  0  0  0  0  0  0  0  0
  143.2672   70.5774  220.4449 H   0  0  0  0  0  0  0  0  0  0  0  0
  138.2211   70.8706  223.9249 H   0  0  0  0  0  0  0  0  0  0  0  0
  138.8871   70.3490  222.3290 H   0  0  0  0  0  0  0  0  0  0  0  0
  138.2794   68.4276  223.8314 H   0  0  0  0  0  0  0  0  0  0  0  0
  140.0167   68.4562  223.3617 H   0  0  0  0  0  0  0  0  0  0  0  0
  138.5367   67.1863  225.8895 H   0  0  0  0  0  0  0  0  0  0  0  0
  139.2308   67.2202  228.2851 H   0  0  0  0  0  0  0  0  0  0  0  0
  140.7307   69.0259  229.1276 H   0  0  0  0  0  0  0  0  0  0  0  0
  141.5522   70.7954  227.5740 H   0  0  0  0  0  0  0  0  0  0  0  0
  141.0480   72.0182  225.4257 H   0  0  0  0  0  0  0  0  0  0  0  0
  142.0597   70.7119  224.6419 H   0  0  0  0  0  0  0  0  0  0  0  0
  140.7821   76.8241  223.1450 H   0  0  0  0  0  0  0  0  0  0  0  0
  141.4483   76.8502  221.4585 H   0  0  0  0  0  0  0  0  0  0  0  0
  140.2595   78.9771  222.2148 H   0  0  0  0  0  0  0  0  0  0  0  0
  139.6773   78.2427  220.6778 H   0  0  0  0  0  0  0  0  0  0  0  0
  134.8132   80.4033  223.8710 H   0  0  0  0  0  0  0  0  0  0  0  0
  1  2  2  0
  2  3  1  0
  3  4  2  0
  4  5  1  0
  5  6  1  0
  6  7  1  0
  7  8  1  0
  8  9  1  0
  9 10  2  0
 10 11  1  0
 11 12  1  0
 12 13  1  0
 13 14  1  0
 14 15  1  0
 15 16  1  0
 16 17  1  0
 11 18  2  0
 18 19  1  0
 19 20  1  0
 20 21  1  0
 21 22  1  0
 22 23  1  0
 23 24  2  0
 24 25  1  0
 25 26  2  0
 26 27  1  0
 27 28  2  0
 28 29  1  0
 19 30  2  0
  8 31  1  0
 31 32  1  0
  4 33  1  0
 33 34  2  0
 34  1  1  0
 32  5  1  0
 30  9  1  0
 17 12  1  0
 29 20  1  0
 28 23  1  0
  1 35  1  0
  2 36  1  0
  3 37  1  0
  6 38  1  0
  6 39  1  0
  7 40  1  0
  7 41  1  0
 13 42  1  0
 13 43  1  0
 14 44  1  0
 14 45  1  0
 16 46  1  0
 16 47  1  0
 17 48  1  0
 17 49  1  0
 21 50  1  0
 21 51  1  0
 22 52  1  0
 22 53  1  0
 24 54  1  0
 25 55  1  0
 26 56  1  0
 27 57  1  0
 29 58  1  0
 29 59  1  0
 31 60  1  0
 31 61  1  0
 32 62  1  0
 32 63  1  0
 34 64  1  0
M  END
>  <UniqueID>  (14) 
274

>  <SMILES>  (14) 
c1ccc(N2CCN(c3nc(N4CCOCC4)nc(N4CCc5ccccc5C4)n3)CC2)nc1

>  <Energy>  (14) 
78.41600375727215

>  <Genealogy>  (14) 
c1ccc(N2CCN(c3nc(N4CCOCC4)nc(N4CCc5ccccc5C4)n3)CC2)nc1 (3D coordinates assigned)
c1ccc(N2CCN(c3nc(N4CCOCC4)nc(N4CCc5ccccc5C4)n3)CC2)nc1 (nonaromatic ring conformer: 78.41600375727215 kcal/mol)

>  <smiles>  (14) 
c1ccc(N2CCN(c3nc(N4CCOCC4)nc(N4CCc5ccccc5C4)n3)CC2)nc1

>  <score_type>  (14) 
oracle

>  <origin>  (14) 
autodockgpu

>  <m_score__min__energy>  (14) 
-8.9399999999999995

>  <m_primary>  (14) 
energy

>  <meeko>  (14) 
{"free_energy": -8.89, "intermolecular_energy": -10.08, "internal_energy": -0.89, "cluster_size": 18, "cluster_id": 1, "rank_in_cluster": 13}

>  <energy>  (14) 
-8.87

>  <cluster_rmsd>  (14) 
0.16

>  <rmsd>  (14) 
270.55

>  <cluster>  (14) 
1

$$$$
XSFBOMDNDOCRMT-UHFFFAOYNA-N
     RDKit          3D

 64 69  0  0  0  0  0  0  0  0999 V2000
  136.8520   81.2280  224.6100 C   0  0  0  0  0  0  0  0  0  0  0  0
  138.2320   81.0280  224.5910 C   0  0  0  0  0  0  0  0  0  0  0  0
  138.7730   79.9740  223.8530 C   0  0  0  0  0  0  0  0  0  0  0  0
  137.9190   79.1090  223.1350 C   0  0  0  0  0  0  0  0  0  0  0  0
  138.4400   78.0090  222.3430 N   0  0  0  0  0  0  0  0  0  0  0  0
  137.6440   76.7820  222.1320 C   0  0  0  0  0  0  0  0  0  0  0  0
  138.3910   75.7310  221.3040 C   0  0  0  0  0  0  0  0  0  0  0  0
  139.7880   75.6140  221.7520 N   0  0  0  0  0  0  0  0  0  0  0  0
  140.4520   74.3370  221.7920 C   0  0  0  0  0  0  0  0  0  0  0  0
  141.4710   74.0690  220.9320 N   0  0  0  0  0  0  0  0  0  0  0  0
  142.1110   72.8730  220.9620 C   0  0  0  0  0  0  0  0  0  0  0  0
  143.1750   72.5960  220.0300 N   0  0  0  0  0  0  0  0  0  0  0  0
  143.7790   73.7090  219.2880 C   0  0  0  0  0  0  0  0  0  0  0  0
  144.7490   73.1790  218.2350 C   0  0  0  0  0  0  0  0  0  0  0  0
  145.6290   72.2590  218.8430 O   0  0  0  0  0  0  0  0  0  0  0  0
  144.9570   71.0500  219.1780 C   0  0  0  0  0  0  0  0  0  0  0  0
  143.4870   71.2080  219.6530 C   0  0  0  0  0  0  0  0  0  0  0  0
  141.7240   71.9330  221.8640 N   0  0  0  0  0  0  0  0  0  0  0  0
  140.7050   72.1790  222.7300 C   0  0  0  0  0  0  0  0  0  0  0  0
  140.2930   71.1650  223.6710 N   0  0  0  0  0  0  0  0  0  0  0  0
  139.0710   70.3790  223.4290 C   0  0  0  0  0  0  0  0  0  0  0  0
  139.2290   68.9530  223.9540 C   0  0  0  0  0  0  0  0  0  0  0  0
  139.6240   68.9820  225.4000 C   0  0  0  0  0  0  0  0  0  0  0  0
  139.1850   67.9770  226.2760 C   0  0  0  0  0  0  0  0  0  0  0  0
  139.5810   67.9890  227.6150 C   0  0  0  0  0  0  0  0  0  0  0  0
  140.4280   68.9940  228.0850 C   0  0  0  0  0  0  0  0  0  0  0  0
  140.8840   69.9880  227.2160 C   0  0  0  0  0  0  0  0  0  0  0  0
  140.4830   69.9910  225.8700 C   0  0  0  0  0  0  0  0  0  0  0  0
  141.0530   71.0240  224.9270 C   0  0  0  0  0  0  0  0  0  0  0  0
  140.0750   73.3840  222.6890 N   0  0  0  0  0  0  0  0  0  0  0  0
  140.5700   76.8290  222.0310 C   0  0  0  0  0  0  0  0  0  0  0  0
  139.7730   78.0960  221.7290 C   0  0  0  0  0  0  0  0  0  0  0  0
  136.5740   79.3360  223.1820 N   0  0  0  0  0  0  0  0  0  0  0  0
  136.0280   80.3620  223.8900 C   0  0  0  0  0  0  0  0  0  0  0  0
  136.4181   82.0587  225.1858 H   0  0  0  0  0  0  0  0  0  0  0  0
  138.8935   81.7002  225.1571 H   0  0  0  0  0  0  0  0  0  0  0  0
  139.8616   79.8178  223.8309 H   0  0  0  0  0  0  0  0  0  0  0  0
  137.3980   76.3485  223.1126 H   0  0  0  0  0  0  0  0  0  0  0  0
  136.7384   77.0637  221.5747 H   0  0  0  0  0  0  0  0  0  0  0  0
  137.8916   74.7578  221.4202 H   0  0  0  0  0  0  0  0  0  0  0  0
  138.3824   76.0402  220.2484 H   0  0  0  0  0  0  0  0  0  0  0  0
  142.9856   74.2875  218.7921 H   0  0  0  0  0  0  0  0  0  0  0  0
  144.3299   74.3509  219.9912 H   0  0  0  0  0  0  0  0  0  0  0  0
  144.1860   72.6770  217.4344 H   0  0  0  0  0  0  0  0  0  0  0  0
  145.3225   74.0131  217.8046 H   0  0  0  0  0  0  0  0  0  0  0  0
  144.9571   70.4048  218.2871 H   0  0  0  0  0  0  0  0  0  0  0  0
  145.5055   70.6282  220.0331 H   0  0  0  0  0  0  0  0  0  0  0  0
  142.8155   70.9022  218.8372 H   0  0  0  0  0  0  0  0  0  0  0  0
  143.3476   70.5752  220.5419 H   0  0  0  0  0  0  0  0  0  0  0  0
  138.2253   70.8603  223.9420 H   0  0  0  0  0  0  0  0  0  0  0  0
  138.8883   70.3369  222.3451 H   0  0  0  0  0  0  0  0  0  0  0  0
  138.2742   68.4173  223.8475 H   0  0  0  0  0  0  0  0  0  0  0  0
  140.0106   68.4388  223.3755 H   0  0  0  0  0  0  0  0  0  0  0  0
  138.5266   67.1770  225.9064 H   0  0  0  0  0  0  0  0  0  0  0  0
  139.2250   67.2055  228.3002 H   0  0  0  0  0  0  0  0  0  0  0  0
  140.7367   69.0032  229.1408 H   0  0  0  0  0  0  0  0  0  0  0  0
  141.5603   70.7720  227.5876 H   0  0  0  0  0  0  0  0  0  0  0  0
  141.0587   71.9969  225.4403 H   0  0  0  0  0  0  0  0  0  0  0  0
  142.0639   70.6867  224.6544 H   0  0  0  0  0  0  0  0  0  0  0  0
  140.8561   76.8326  223.0931 H   0  0  0  0  0  0  0  0  0  0  0  0
  141.4589   76.8207  221.3831 H   0  0  0  0  0  0  0  0  0  0  0  0
  140.3059   78.9676  222.1369 H   0  0  0  0  0  0  0  0  0  0  0  0
  139.6629   78.2026  220.6397 H   0  0  0  0  0  0  0  0  0  0  0  0
  134.9378   80.5086  223.8947 H   0  0  0  0  0  0  0  0  0  0  0  0
  1  2  2  0
  2  3  1  0
  3  4  2  0
  4  5  1  0
  5  6  1  0
  6  7  1  0
  7  8  1  0
  8  9  1  0
  9 10  2  0
 10 11  1  0
 11 12  1  0
 12 13  1  0
 13 14  1  0
 14 15  1  0
 15 16  1  0
 16 17  1  0
 11 18  2  0
 18 19  1  0
 19 20  1  0
 20 21  1  0
 21 22  1  0
 22 23  1  0
 23 24  2  0
 24 25  1  0
 25 26  2  0
 26 27  1  0
 27 28  2  0
 28 29  1  0
 19 30  2  0
  8 31  1  0
 31 32  1  0
  4 33  1  0
 33 34  2  0
 34  1  1  0
 32  5  1  0
 30  9  1  0
 17 12  1  0
 29 20  1  0
 28 23  1  0
  1 35  1  0
  2 36  1  0
  3 37  1  0
  6 38  1  0
  6 39  1  0
  7 40  1  0
  7 41  1  0
 13 42  1  0
 13 43  1  0
 14 44  1  0
 14 45  1  0
 16 46  1  0
 16 47  1  0
 17 48  1  0
 17 49  1  0
 21 50  1  0
 21 51  1  0
 22 52  1  0
 22 53  1  0
 24 54  1  0
 25 55  1  0
 26 56  1  0
 27 57  1  0
 29 58  1  0
 29 59  1  0
 31 60  1  0
 31 61  1  0
 32 62  1  0
 32 63  1  0
 34 64  1  0
M  END
>  <UniqueID>  (15) 
274

>  <SMILES>  (15) 
c1ccc(N2CCN(c3nc(N4CCOCC4)nc(N4CCc5ccccc5C4)n3)CC2)nc1

>  <Energy>  (15) 
78.41600375727215

>  <Genealogy>  (15) 
c1ccc(N2CCN(c3nc(N4CCOCC4)nc(N4CCc5ccccc5C4)n3)CC2)nc1 (3D coordinates assigned)
c1ccc(N2CCN(c3nc(N4CCOCC4)nc(N4CCc5ccccc5C4)n3)CC2)nc1 (nonaromatic ring conformer: 78.41600375727215 kcal/mol)

>  <smiles>  (15) 
c1ccc(N2CCN(c3nc(N4CCOCC4)nc(N4CCc5ccccc5C4)n3)CC2)nc1

>  <score_type>  (15) 
oracle

>  <origin>  (15) 
autodockgpu

>  <m_score__min__energy>  (15) 
-8.9399999999999995

>  <m_primary>  (15) 
energy

>  <meeko>  (15) 
{"free_energy": -8.9, "intermolecular_energy": -10.09, "internal_energy": -0.89, "cluster_size": 18, "cluster_id": 1, "rank_in_cluster": 12}

>  <energy>  (15) 
-8.86

>  <cluster_rmsd>  (15) 
0.17

>  <rmsd>  (15) 
270.5

>  <cluster>  (15) 
1

$$$$
XSFBOMDNDOCRMT-UHFFFAOYNA-N
     RDKit          3D

 64 69  0  0  0  0  0  0  0  0999 V2000
  137.1410   81.5360  224.4610 C   0  0  0  0  0  0  0  0  0  0  0  0
  138.4600   81.0920  224.5650 C   0  0  0  0  0  0  0  0  0  0  0  0
  138.8650   79.9460  223.8780 C   0  0  0  0  0  0  0  0  0  0  0  0
  137.9360   79.2370  223.0870 C   0  0  0  0  0  0  0  0  0  0  0  0
  138.3180   78.0480  222.3450 N   0  0  0  0  0  0  0  0  0  0  0  0
  137.5520   76.7920  222.4770 C   0  0  0  0  0  0  0  0  0  0  0  0
  138.1430   75.6510  221.6420 C   0  0  0  0  0  0  0  0  0  0  0  0
  139.6090   75.6180  221.7740 N   0  0  0  0  0  0  0  0  0  0  0  0
  140.3230   74.3680  221.8260 C   0  0  0  0  0  0  0  0  0  0  0  0
  141.3730   74.1470  220.9910 N   0  0  0  0  0  0  0  0  0  0  0  0
  142.0610   72.9770  221.0320 C   0  0  0  0  0  0  0  0  0  0  0  0
  143.1580   72.7480  220.1270 N   0  0  0  0  0  0  0  0  0  0  0  0
  143.7230   73.8860  219.3910 C   0  0  0  0  0  0  0  0  0  0  0  0
  144.7430   73.3990  218.3650 C   0  0  0  0  0  0  0  0  0  0  0  0
  145.6540   72.5290  218.9990 O   0  0  0  0  0  0  0  0  0  0  0  0
  145.0360   71.2900  219.3270 C   0  0  0  0  0  0  0  0  0  0  0  0
  143.5490   71.3760  219.7660 C   0  0  0  0  0  0  0  0  0  0  0  0
  141.6880   72.0170  221.9190 N   0  0  0  0  0  0  0  0  0  0  0  0
  140.6380   72.2170  222.7600 C   0  0  0  0  0  0  0  0  0  0  0  0
  140.2440   71.1810  223.6840 N   0  0  0  0  0  0  0  0  0  0  0  0
  139.0260   70.3910  223.4390 C   0  0  0  0  0  0  0  0  0  0  0  0
  139.2000   68.9560  223.9350 C   0  0  0  0  0  0  0  0  0  0  0  0
  139.6090   68.9600  225.3770 C   0  0  0  0  0  0  0  0  0  0  0  0
  139.1870   67.9350  226.2370 C   0  0  0  0  0  0  0  0  0  0  0  0
  139.5960   67.9250  227.5730 C   0  0  0  0  0  0  0  0  0  0  0  0
  140.4380   68.9270  228.0540 C   0  0  0  0  0  0  0  0  0  0  0  0
  140.8790   69.9410  227.2000 C   0  0  0  0  0  0  0  0  0  0  0  0
  140.4650   69.9670  225.8580 C   0  0  0  0  0  0  0  0  0  0  0  0
  141.0170   71.0220  224.9300 C   0  0  0  0  0  0  0  0  0  0  0  0
  139.9620   73.3960  222.7070 N   0  0  0  0  0  0  0  0  0  0  0  0
  140.3770   76.8710  221.7120 C   0  0  0  0  0  0  0  0  0  0  0  0
  139.4760   78.0730  221.4400 C   0  0  0  0  0  0  0  0  0  0  0  0
  136.6540   79.7010  223.0150 N   0  0  0  0  0  0  0  0  0  0  0  0
  136.2420   80.8190  223.6710 C   0  0  0  0  0  0  0  0  0  0  0  0
  136.8142   82.4402  224.9954 H   0  0  0  0  0  0  0  0  0  0  0  0
  139.1796   81.6442  225.1874 H   0  0  0  0  0  0  0  0  0  0  0  0
  139.9054   79.5967  223.9531 H   0  0  0  0  0  0  0  0  0  0  0  0
  137.5500   76.4901  223.5348 H   0  0  0  0  0  0  0  0  0  0  0  0
  136.5335   76.9824  222.1076 H   0  0  0  0  0  0  0  0  0  0  0  0
  137.7269   74.6944  221.9911 H   0  0  0  0  0  0  0  0  0  0  0  0
  137.8856   75.8147  220.5851 H   0  0  0  0  0  0  0  0  0  0  0  0
  142.9136   74.4208  218.8725 H   0  0  0  0  0  0  0  0  0  0  0  0
  144.2240   74.5592  220.1022 H   0  0  0  0  0  0  0  0  0  0  0  0
  144.2249   72.8640  217.5555 H   0  0  0  0  0  0  0  0  0  0  0  0
  145.2836   74.2586  217.9422 H   0  0  0  0  0  0  0  0  0  0  0  0
  145.0900   70.6401  218.4411 H   0  0  0  0  0  0  0  0  0  0  0  0
  145.5844   70.9021  220.1981 H   0  0  0  0  0  0  0  0  0  0  0  0
  142.9136   71.0325  218.9364 H   0  0  0  0  0  0  0  0  0  0  0  0
  143.4206   70.7416  220.6554 H   0  0  0  0  0  0  0  0  0  0  0  0
  138.1820   70.8559  223.9695 H   0  0  0  0  0  0  0  0  0  0  0  0
  138.8326   70.3685  222.3564 H   0  0  0  0  0  0  0  0  0  0  0  0
  138.2482   68.4151  223.8275 H   0  0  0  0  0  0  0  0  0  0  0  0
  139.9798   68.4592  223.3391 H   0  0  0  0  0  0  0  0  0  0  0  0
  138.5320   67.1366  225.8582 H   0  0  0  0  0  0  0  0  0  0  0  0
  139.2532   67.1255  228.2463 H   0  0  0  0  0  0  0  0  0  0  0  0
  140.7554   68.9191  229.1072 H   0  0  0  0  0  0  0  0  0  0  0  0
  141.5534   70.7224  227.5802 H   0  0  0  0  0  0  0  0  0  0  0  0
  141.0198   71.9849  225.4619 H   0  0  0  0  0  0  0  0  0  0  0  0
  142.0278   70.6981  224.6413 H   0  0  0  0  0  0  0  0  0  0  0  0
  140.8917   77.0215  222.6724 H   0  0  0  0  0  0  0  0  0  0  0  0
  141.0990   76.7900  220.8861 H   0  0  0  0  0  0  0  0  0  0  0  0
  140.0458   78.9997  221.6030 H   0  0  0  0  0  0  0  0  0  0  0  0
  139.1221   78.0309  220.3993 H   0  0  0  0  0  0  0  0  0  0  0  0
  135.1996   81.1580  223.5786 H   0  0  0  0  0  0  0  0  0  0  0  0
  1  2  2  0
  2  3  1  0
  3  4  2  0
  4  5  1  0
  5  6  1  0
  6  7  1  0
  7  8  1  0
  8  9  1  0
  9 10  2  0
 10 11  1  0
 11 12  1  0
 12 13  1  0
 13 14  1  0
 14 15  1  0
 15 16  1  0
 16 17  1  0
 11 18  2  0
 18 19  1  0
 19 20  1  0
 20 21  1  0
 21 22  1  0
 22 23  1  0
 23 24  2  0
 24 25  1  0
 25 26  2  0
 26 27  1  0
 27 28  2  0
 28 29  1  0
 19 30  2  0
  8 31  1  0
 31 32  1  0
  4 33  1  0
 33 34  2  0
 34  1  1  0
 32  5  1  0
 30  9  1  0
 17 12  1  0
 29 20  1  0
 28 23  1  0
  1 35  1  0
  2 36  1  0
  3 37  1  0
  6 38  1  0
  6 39  1  0
  7 40  1  0
  7 41  1  0
 13 42  1  0
 13 43  1  0
 14 44  1  0
 14 45  1  0
 16 46  1  0
 16 47  1  0
 17 48  1  0
 17 49  1  0
 21 50  1  0
 21 51  1  0
 22 52  1  0
 22 53  1  0
 24 54  1  0
 25 55  1  0
 26 56  1  0
 27 57  1  0
 29 58  1  0
 29 59  1  0
 31 60  1  0
 31 61  1  0
 32 62  1  0
 32 63  1  0
 34 64  1  0
M  END
>  <UniqueID>  (16) 
274

>  <SMILES>  (16) 
c1ccc(N2CCN(c3nc(N4CCOCC4)nc(N4CCc5ccccc5C4)n3)CC2)nc1

>  <Energy>  (16) 
78.41600375727215

>  <Genealogy>  (16) 
c1ccc(N2CCN(c3nc(N4CCOCC4)nc(N4CCc5ccccc5C4)n3)CC2)nc1 (3D coordinates assigned)
c1ccc(N2CCN(c3nc(N4CCOCC4)nc(N4CCc5ccccc5C4)n3)CC2)nc1 (nonaromatic ring conformer: 78.41600375727215 kcal/mol)

>  <smiles>  (16) 
c1ccc(N2CCN(c3nc(N4CCOCC4)nc(N4CCc5ccccc5C4)n3)CC2)nc1

>  <score_type>  (16) 
oracle

>  <origin>  (16) 
autodockgpu

>  <m_score__min__energy>  (16) 
-8.9399999999999995

>  <m_primary>  (16) 
energy

>  <meeko>  (16) 
{"free_energy": -8.87, "intermolecular_energy": -10.06, "internal_energy": -0.89, "cluster_size": 18, "cluster_id": 1, "rank_in_cluster": 14}

>  <energy>  (16) 
-8.86

>  <cluster_rmsd>  (16) 
0.47

>  <rmsd>  (16) 
270.56

>  <cluster>  (16) 
1

$$$$
XSFBOMDNDOCRMT-UHFFFAOYNA-N
     RDKit          3D

 64 69  0  0  0  0  0  0  0  0999 V2000
  137.0570   81.4210  224.5490 C   0  0  0  0  0  0  0  0  0  0  0  0
  138.4120   81.0870  224.5670 C   0  0  0  0  0  0  0  0  0  0  0  0
  138.8640   79.9750  223.8550 C   0  0  0  0  0  0  0  0  0  0  0  0
  137.9480   79.1880  223.1240 C   0  0  0  0  0  0  0  0  0  0  0  0
  138.3770   78.0320  222.3590 N   0  0  0  0  0  0  0  0  0  0  0  0
  137.5930   76.7800  222.3710 C   0  0  0  0  0  0  0  0  0  0  0  0
  138.2390   75.6730  221.5310 C   0  0  0  0  0  0  0  0  0  0  0  0
  139.6900   75.6160  221.7750 N   0  0  0  0  0  0  0  0  0  0  0  0
  140.3890   74.3580  221.8220 C   0  0  0  0  0  0  0  0  0  0  0  0
  141.4290   74.1220  220.9790 N   0  0  0  0  0  0  0  0  0  0  0  0
  142.1010   72.9430  221.0160 C   0  0  0  0  0  0  0  0  0  0  0  0
  143.1890   72.7000  220.1020 N   0  0  0  0  0  0  0  0  0  0  0  0
  143.8570   73.8430  219.4690 C   0  0  0  0  0  0  0  0  0  0  0  0
  144.8460   73.3600  218.4120 C   0  0  0  0  0  0  0  0  0  0  0  0
  145.6720   72.3660  218.9760 O   0  0  0  0  0  0  0  0  0  0  0  0
  144.9480   71.1600  219.1930 C   0  0  0  0  0  0  0  0  0  0  0  0
  143.4680   71.3350  219.6280 C   0  0  0  0  0  0  0  0  0  0  0  0
  141.7240   71.9900  221.9070 N   0  0  0  0  0  0  0  0  0  0  0  0
  140.6840   72.2040  222.7560 C   0  0  0  0  0  0  0  0  0  0  0  0
  140.2840   71.1740  223.6860 N   0  0  0  0  0  0  0  0  0  0  0  0
  139.0620   70.3890  223.4440 C   0  0  0  0  0  0  0  0  0  0  0  0
  139.2290   68.9560  223.9460 C   0  0  0  0  0  0  0  0  0  0  0  0
  139.6370   68.9640  225.3880 C   0  0  0  0  0  0  0  0  0  0  0  0
  139.2100   67.9450  226.2530 C   0  0  0  0  0  0  0  0  0  0  0  0
  139.6190   67.9390  227.5890 C   0  0  0  0  0  0  0  0  0  0  0  0
  140.4670   68.9390  228.0660 C   0  0  0  0  0  0  0  0  0  0  0  0
  140.9120   69.9470  227.2070 C   0  0  0  0  0  0  0  0  0  0  0  0
  140.4980   69.9690  225.8650 C   0  0  0  0  0  0  0  0  0  0  0  0
  141.0570   71.0170  224.9320 C   0  0  0  0  0  0  0  0  0  0  0  0
  140.0230   73.3910  222.7080 N   0  0  0  0  0  0  0  0  0  0  0  0
  140.4700   76.8620  221.8320 C   0  0  0  0  0  0  0  0  0  0  0  0
  139.6020   78.0860  221.5480 C   0  0  0  0  0  0  0  0  0  0  0  0
  136.6300   79.5460  223.1350 N   0  0  0  0  0  0  0  0  0  0  0  0
  136.1710   80.6300  223.8170 C   0  0  0  0  0  0  0  0  0  0  0  0
  136.6921   82.2971  225.1051 H   0  0  0  0  0  0  0  0  0  0  0  0
  139.1226   81.6993  225.1415 H   0  0  0  0  0  0  0  0  0  0  0  0
  139.9321   79.7123  223.8634 H   0  0  0  0  0  0  0  0  0  0  0  0
  137.5057   76.4288  223.4098 H   0  0  0  0  0  0  0  0  0  0  0  0
  136.6080   76.9991  221.9331 H   0  0  0  0  0  0  0  0  0  0  0  0
  137.7891   74.7060  221.8002 H   0  0  0  0  0  0  0  0  0  0  0  0
  138.0670   75.8901  220.4664 H   0  0  0  0  0  0  0  0  0  0  0  0
  143.1023   74.4861  218.9927 H   0  0  0  0  0  0  0  0  0  0  0  0
  144.4033   74.4088  220.2380 H   0  0  0  0  0  0  0  0  0  0  0  0
  144.2960   72.9407  217.5566 H   0  0  0  0  0  0  0  0  0  0  0  0
  145.4622   74.2033  218.0668 H   0  0  0  0  0  0  0  0  0  0  0  0
  144.9594   70.5851  218.2553 H   0  0  0  0  0  0  0  0  0  0  0  0
  145.4501   70.6543  220.0309 H   0  0  0  0  0  0  0  0  0  0  0  0
  142.8173   71.1180  218.7680 H   0  0  0  0  0  0  0  0  0  0  0  0
  143.2745   70.6411  220.4593 H   0  0  0  0  0  0  0  0  0  0  0  0
  138.2201   70.8603  223.9724 H   0  0  0  0  0  0  0  0  0  0  0  0
  138.8685   70.3629  222.3615 H   0  0  0  0  0  0  0  0  0  0  0  0
  138.2748   68.4191  223.8401 H   0  0  0  0  0  0  0  0  0  0  0  0
  140.0070   68.4532  223.3527 H   0  0  0  0  0  0  0  0  0  0  0  0
  138.5510   67.1481  225.8780 H   0  0  0  0  0  0  0  0  0  0  0  0
  139.2718   67.1445  228.2659 H   0  0  0  0  0  0  0  0  0  0  0  0
  140.7854   68.9338  229.1189 H   0  0  0  0  0  0  0  0  0  0  0  0
  141.5899   70.7272  227.5835 H   0  0  0  0  0  0  0  0  0  0  0  0
  141.0658   71.9823  225.4593 H   0  0  0  0  0  0  0  0  0  0  0  0
  142.0662   70.6866  224.6449 H   0  0  0  0  0  0  0  0  0  0  0  0
  140.9094   76.9618  222.8355 H   0  0  0  0  0  0  0  0  0  0  0  0
  141.2535   76.8113  221.0615 H   0  0  0  0  0  0  0  0  0  0  0  0
  140.1646   78.9976  221.7979 H   0  0  0  0  0  0  0  0  0  0  0  0
  139.3297   78.0965  220.4823 H   0  0  0  0  0  0  0  0  0  0  0  0
  135.1008   80.8829  223.7913 H   0  0  0  0  0  0  0  0  0  0  0  0
  1  2  2  0
  2  3  1  0
  3  4  2  0
  4  5  1  0
  5  6  1  0
  6  7  1  0
  7  8  1  0
  8  9  1  0
  9 10  2  0
 10 11  1  0
 11 12  1  0
 12 13  1  0
 13 14  1  0
 14 15  1  0
 15 16  1  0
 16 17  1  0
 11 18  2  0
 18 19  1  0
 19 20  1  0
 20 21  1  0
 21 22  1  0
 22 23  1  0
 23 24  2  0
 24 25  1  0
 25 26  2  0
 26 27  1  0
 27 28  2  0
 28 29  1  0
 19 30  2  0
  8 31  1  0
 31 32  1  0
  4 33  1  0
 33 34  2  0
 34  1  1  0
 32  5  1  0
 30  9  1  0
 17 12  1  0
 29 20  1  0
 28 23  1  0
  1 35  1  0
  2 36  1  0
  3 37  1  0
  6 38  1  0
  6 39  1  0
  7 40  1  0
  7 41  1  0
 13 42  1  0
 13 43  1  0
 14 44  1  0
 14 45  1  0
 16 46  1  0
 16 47  1  0
 17 48  1  0
 17 49  1  0
 21 50  1  0
 21 51  1  0
 22 52  1  0
 22 53  1  0
 24 54  1  0
 25 55  1  0
 26 56  1  0
 27 57  1  0
 29 58  1  0
 29 59  1  0
 31 60  1  0
 31 61  1  0
 32 62  1  0
 32 63  1  0
 34 64  1  0
M  END
>  <UniqueID>  (17) 
274

>  <SMILES>  (17) 
c1ccc(N2CCN(c3nc(N4CCOCC4)nc(N4CCc5ccccc5C4)n3)CC2)nc1

>  <Energy>  (17) 
78.41600375727215

>  <Genealogy>  (17) 
c1ccc(N2CCN(c3nc(N4CCOCC4)nc(N4CCc5ccccc5C4)n3)CC2)nc1 (3D coordinates assigned)
c1ccc(N2CCN(c3nc(N4CCOCC4)nc(N4CCc5ccccc5C4)n3)CC2)nc1 (nonaromatic ring conformer: 78.41600375727215 kcal/mol)

>  <smiles>  (17) 
c1ccc(N2CCN(c3nc(N4CCOCC4)nc(N4CCc5ccccc5C4)n3)CC2)nc1

>  <score_type>  (17) 
oracle

>  <origin>  (17) 
autodockgpu

>  <m_score__min__energy>  (17) 
-8.9399999999999995

>  <m_primary>  (17) 
energy

>  <meeko>  (17) 
{"free_energy": -8.92, "intermolecular_energy": -10.12, "internal_energy": -0.89, "cluster_size": 18, "cluster_id": 1, "rank_in_cluster": 6}

>  <energy>  (17) 
-8.73

>  <cluster_rmsd>  (17) 
0.55

>  <rmsd>  (17) 
270.57

>  <cluster>  (17) 
1

$$$$
XSFBOMDNDOCRMT-UHFFFAOYNA-N
     RDKit          3D

 64 69  0  0  0  0  0  0  0  0999 V2000
  137.0580   81.4210  224.6000 C   0  0  0  0  0  0  0  0  0  0  0  0
  138.4240   81.1520  224.5110 C   0  0  0  0  0  0  0  0  0  0  0  0
  138.8710   80.0430  223.7900 C   0  0  0  0  0  0  0  0  0  0  0  0
  137.9360   79.1930  223.1600 C   0  0  0  0  0  0  0  0  0  0  0  0
  138.3570   78.0370  222.3890 N   0  0  0  0  0  0  0  0  0  0  0  0
  137.5730   76.7850  222.4090 C   0  0  0  0  0  0  0  0  0  0  0  0
  138.2100   75.6780  221.5610 C   0  0  0  0  0  0  0  0  0  0  0  0
  139.6630   75.6220  221.7890 N   0  0  0  0  0  0  0  0  0  0  0  0
  140.3610   74.3620  221.8280 C   0  0  0  0  0  0  0  0  0  0  0  0
  141.4000   74.1310  220.9820 N   0  0  0  0  0  0  0  0  0  0  0  0
  142.0730   72.9530  221.0110 C   0  0  0  0  0  0  0  0  0  0  0  0
  143.1580   72.7140  220.0940 N   0  0  0  0  0  0  0  0  0  0  0  0
  143.8880   73.8610  219.5410 C   0  0  0  0  0  0  0  0  0  0  0  0
  144.8660   73.3970  218.4640 C   0  0  0  0  0  0  0  0  0  0  0  0
  145.6360   72.3310  218.9720 O   0  0  0  0  0  0  0  0  0  0  0  0
  144.8520   71.1500  219.1060 C   0  0  0  0  0  0  0  0  0  0  0  0
  143.3780   71.3690  219.5370 C   0  0  0  0  0  0  0  0  0  0  0  0
  141.6970   71.9940  221.8970 N   0  0  0  0  0  0  0  0  0  0  0  0
  140.6580   72.2030  222.7500 C   0  0  0  0  0  0  0  0  0  0  0  0
  140.2600   71.1690  223.6740 N   0  0  0  0  0  0  0  0  0  0  0  0
  139.0390   70.3830  223.4290 C   0  0  0  0  0  0  0  0  0  0  0  0
  139.2080   68.9480  223.9240 C   0  0  0  0  0  0  0  0  0  0  0  0
  139.6170   68.9490  225.3660 C   0  0  0  0  0  0  0  0  0  0  0  0
  139.1910   67.9250  226.2250 C   0  0  0  0  0  0  0  0  0  0  0  0
  139.6000   67.9130  227.5610 C   0  0  0  0  0  0  0  0  0  0  0  0
  140.4470   68.9120  228.0430 C   0  0  0  0  0  0  0  0  0  0  0  0
  140.8910   69.9240  227.1890 C   0  0  0  0  0  0  0  0  0  0  0  0
  140.4770   69.9520  225.8470 C   0  0  0  0  0  0  0  0  0  0  0  0
  141.0340   71.0060  224.9190 C   0  0  0  0  0  0  0  0  0  0  0  0
  139.9970   73.3910  222.7090 N   0  0  0  0  0  0  0  0  0  0  0  0
  140.4440   76.8670  221.8390 C   0  0  0  0  0  0  0  0  0  0  0  0
  139.5740   78.0910  221.5660 C   0  0  0  0  0  0  0  0  0  0  0  0
  136.6080   79.4880  223.2740 N   0  0  0  0  0  0  0  0  0  0  0  0
  136.1540   80.5670  223.9660 C   0  0  0  0  0  0  0  0  0  0  0  0
  136.6979   82.2949  225.1626 H   0  0  0  0  0  0  0  0  0  0  0  0
  139.1486   81.8133  225.0086 H   0  0  0  0  0  0  0  0  0  0  0  0
  139.9479   79.8322  223.7130 H   0  0  0  0  0  0  0  0  0  0  0  0
  137.4971   76.4332  223.4485 H   0  0  0  0  0  0  0  0  0  0  0  0
  136.5832   77.0044  221.9821 H   0  0  0  0  0  0  0  0  0  0  0  0
  137.7636   74.7107  221.8348 H   0  0  0  0  0  0  0  0  0  0  0  0
  138.0259   75.8949  220.4984 H   0  0  0  0  0  0  0  0  0  0  0  0
  143.1711   74.5689  219.0996 H   0  0  0  0  0  0  0  0  0  0  0  0
  144.4513   74.3503  220.3493 H   0  0  0  0  0  0  0  0  0  0  0  0
  144.3069   73.0592  217.5789 H   0  0  0  0  0  0  0  0  0  0  0  0
  145.5261   74.2291  218.1780 H   0  0  0  0  0  0  0  0  0  0  0  0
  144.8474   70.6348  218.1341 H   0  0  0  0  0  0  0  0  0  0  0  0
  145.3189   70.5692  219.9152 H   0  0  0  0  0  0  0  0  0  0  0  0
  142.7285   71.2381  218.6589 H   0  0  0  0  0  0  0  0  0  0  0  0
  143.1417   70.6347  220.3212 H   0  0  0  0  0  0  0  0  0  0  0  0
  138.1967   70.8506  223.9600 H   0  0  0  0  0  0  0  0  0  0  0  0
  138.8454   70.3615  222.3464 H   0  0  0  0  0  0  0  0  0  0  0  0
  138.2543   68.4105  223.8160 H   0  0  0  0  0  0  0  0  0  0  0  0
  139.9863   68.4492  223.3278 H   0  0  0  0  0  0  0  0  0  0  0  0
  138.5331   67.1292  225.8457 H   0  0  0  0  0  0  0  0  0  0  0  0
  139.2538   67.1148  228.2340 H   0  0  0  0  0  0  0  0  0  0  0  0
  140.7650   68.9023  229.0960 H   0  0  0  0  0  0  0  0  0  0  0  0
  141.5683   70.7030  227.5692 H   0  0  0  0  0  0  0  0  0  0  0  0
  141.0418   71.9685  225.4515 H   0  0  0  0  0  0  0  0  0  0  0  0
  142.0433   70.6783  224.6294 H   0  0  0  0  0  0  0  0  0  0  0  0
  140.8943   76.9654  222.8378 H   0  0  0  0  0  0  0  0  0  0  0  0
  141.2191   76.8168  221.0601 H   0  0  0  0  0  0  0  0  0  0  0  0
  140.1396   79.0019  221.8115 H   0  0  0  0  0  0  0  0  0  0  0  0
  139.2907   78.1027  220.5032 H   0  0  0  0  0  0  0  0  0  0  0  0
  135.0740   80.7669  224.0262 H   0  0  0  0  0  0  0  0  0  0  0  0
  1  2  2  0
  2  3  1  0
  3  4  2  0
  4  5  1  0
  5  6  1  0
  6  7  1  0
  7  8  1  0
  8  9  1  0
  9 10  2  0
 10 11  1  0
 11 12  1  0
 12 13  1  0
 13 14  1  0
 14 15  1  0
 15 16  1  0
 16 17  1  0
 11 18  2  0
 18 19  1  0
 19 20  1  0
 20 21  1  0
 21 22  1  0
 22 23  1  0
 23 24  2  0
 24 25  1  0
 25 26  2  0
 26 27  1  0
 27 28  2  0
 28 29  1  0
 19 30  2  0
  8 31  1  0
 31 32  1  0
  4 33  1  0
 33 34  2  0
 34  1  1  0
 32  5  1  0
 30  9  1  0
 17 12  1  0
 29 20  1  0
 28 23  1  0
  1 35  1  0
  2 36  1  0
  3 37  1  0
  6 38  1  0
  6 39  1  0
  7 40  1  0
  7 41  1  0
 13 42  1  0
 13 43  1  0
 14 44  1  0
 14 45  1  0
 16 46  1  0
 16 47  1  0
 17 48  1  0
 17 49  1  0
 21 50  1  0
 21 51  1  0
 22 52  1  0
 22 53  1  0
 24 54  1  0
 25 55  1  0
 26 56  1  0
 27 57  1  0
 29 58  1  0
 29 59  1  0
 31 60  1  0
 31 61  1  0
 32 62  1  0
 32 63  1  0
 34 64  1  0
M  END
>  <UniqueID>  (18) 
274

>  <SMILES>  (18) 
c1ccc(N2CCN(c3nc(N4CCOCC4)nc(N4CCc5ccccc5C4)n3)CC2)nc1

>  <Energy>  (18) 
78.41600375727215

>  <Genealogy>  (18) 
c1ccc(N2CCN(c3nc(N4CCOCC4)nc(N4CCc5ccccc5C4)n3)CC2)nc1 (3D coordinates assigned)
c1ccc(N2CCN(c3nc(N4CCOCC4)nc(N4CCc5ccccc5C4)n3)CC2)nc1 (nonaromatic ring conformer: 78.41600375727215 kcal/mol)

>  <smiles>  (18) 
c1ccc(N2CCN(c3nc(N4CCOCC4)nc(N4CCc5ccccc5C4)n3)CC2)nc1

>  <score_type>  (18) 
oracle

>  <origin>  (18) 
autodockgpu

>  <m_score__min__energy>  (18) 
-8.9399999999999995

>  <m_primary>  (18) 
energy

>  <meeko>  (18) 
{"free_energy": -8.92, "intermolecular_energy": -10.11, "internal_energy": -0.89, "cluster_size": 18, "cluster_id": 1, "rank_in_cluster": 8}

>  <energy>  (18) 
-8.37

>  <cluster_rmsd>  (18) 
1.16

>  <rmsd>  (18) 
270.49

>  <cluster>  (18) 
1

$$$$
XSFBOMDNDOCRMT-UHFFFAOYNA-N
     RDKit          3D

 64 69  0  0  0  0  0  0  0  0999 V2000
  137.0840   81.4300  224.5280 C   0  0  0  0  0  0  0  0  0  0  0  0
  138.4350   81.0830  224.5420 C   0  0  0  0  0  0  0  0  0  0  0  0
  138.8740   79.9610  223.8360 C   0  0  0  0  0  0  0  0  0  0  0  0
  137.9460   79.1780  223.1160 C   0  0  0  0  0  0  0  0  0  0  0  0
  138.3600   78.0110  222.3560 N   0  0  0  0  0  0  0  0  0  0  0  0
  137.5820   76.7570  222.4070 C   0  0  0  0  0  0  0  0  0  0  0  0
  138.2100   75.6400  221.5680 C   0  0  0  0  0  0  0  0  0  0  0  0
  139.6670   75.5920  221.7750 N   0  0  0  0  0  0  0  0  0  0  0  0
  140.3710   74.3360  221.8230 C   0  0  0  0  0  0  0  0  0  0  0  0
  141.4090   74.1030  220.9770 N   0  0  0  0  0  0  0  0  0  0  0  0
  142.0870   72.9280  221.0150 C   0  0  0  0  0  0  0  0  0  0  0  0
  143.1720   72.6860  220.0980 N   0  0  0  0  0  0  0  0  0  0  0  0
  143.8320   73.8310  219.4580 C   0  0  0  0  0  0  0  0  0  0  0  0
  144.8200   73.3490  218.3990 C   0  0  0  0  0  0  0  0  0  0  0  0
  145.6530   72.3610  218.9640 O   0  0  0  0  0  0  0  0  0  0  0  0
  144.9360   71.1520  219.1880 C   0  0  0  0  0  0  0  0  0  0  0  0
  143.4570   71.3210  219.6280 C   0  0  0  0  0  0  0  0  0  0  0  0
  141.7170   71.9750  221.9100 N   0  0  0  0  0  0  0  0  0  0  0  0
  140.6790   72.1860  222.7620 C   0  0  0  0  0  0  0  0  0  0  0  0
  140.2870   71.1570  223.6950 N   0  0  0  0  0  0  0  0  0  0  0  0
  139.0630   70.3720  223.4640 C   0  0  0  0  0  0  0  0  0  0  0  0
  139.2340   68.9390  223.9660 C   0  0  0  0  0  0  0  0  0  0  0  0
  139.6540   68.9490  225.4050 C   0  0  0  0  0  0  0  0  0  0  0  0
  139.2340   67.9300  226.2740 C   0  0  0  0  0  0  0  0  0  0  0  0
  139.6530   67.9250  227.6060 C   0  0  0  0  0  0  0  0  0  0  0  0
  140.5040   68.9260  228.0760 C   0  0  0  0  0  0  0  0  0  0  0  0
  140.9430   69.9340  227.2120 C   0  0  0  0  0  0  0  0  0  0  0  0
  140.5190   69.9540  225.8740 C   0  0  0  0  0  0  0  0  0  0  0  0
  141.0690   71.0020  224.9350 C   0  0  0  0  0  0  0  0  0  0  0  0
  140.0120   73.3710  222.7130 N   0  0  0  0  0  0  0  0  0  0  0  0
  140.4430   76.8410  221.7940 C   0  0  0  0  0  0  0  0  0  0  0  0
  139.5640   78.0580  221.5150 C   0  0  0  0  0  0  0  0  0  0  0  0
  136.6310   79.5480  223.1310 N   0  0  0  0  0  0  0  0  0  0  0  0
  136.1860   80.6410  223.8070 C   0  0  0  0  0  0  0  0  0  0  0  0
  136.7306   82.3145  225.0783 H   0  0  0  0  0  0  0  0  0  0  0  0
  139.1540   81.6927  225.1088 H   0  0  0  0  0  0  0  0  0  0  0  0
  139.9396   79.6882  223.8409 H   0  0  0  0  0  0  0  0  0  0  0  0
  137.5228   76.4213  223.4529 H   0  0  0  0  0  0  0  0  0  0  0  0
  136.5853   76.9660  221.9911 H   0  0  0  0  0  0  0  0  0  0  0  0
  137.7711   74.6757  221.8636 H   0  0  0  0  0  0  0  0  0  0  0  0
  138.0096   75.8399  220.5050 H   0  0  0  0  0  0  0  0  0  0  0  0
  143.0722   74.4683  218.9821 H   0  0  0  0  0  0  0  0  0  0  0  0
  144.3780   74.4027  220.2229 H   0  0  0  0  0  0  0  0  0  0  0  0
  144.2692   72.9239  217.5470 H   0  0  0  0  0  0  0  0  0  0  0  0
  145.4308   74.1941  218.0485 H   0  0  0  0  0  0  0  0  0  0  0  0
  144.9468   70.5738  218.2523 H   0  0  0  0  0  0  0  0  0  0  0  0
  145.4439   70.6518  220.0258 H   0  0  0  0  0  0  0  0  0  0  0  0
  142.8043   71.0973  218.7713 H   0  0  0  0  0  0  0  0  0  0  0  0
  143.2708   70.6294  220.4629 H   0  0  0  0  0  0  0  0  0  0  0  0
  138.2257   70.8439  223.9990 H   0  0  0  0  0  0  0  0  0  0  0  0
  138.8605   70.3449  222.3831 H   0  0  0  0  0  0  0  0  0  0  0  0
  138.2789   68.4020  223.8686 H   0  0  0  0  0  0  0  0  0  0  0  0
  140.0067   68.4352  223.3668 H   0  0  0  0  0  0  0  0  0  0  0  0
  138.5725   67.1326  225.9045 H   0  0  0  0  0  0  0  0  0  0  0  0
  139.3116   67.1306  228.2860 H   0  0  0  0  0  0  0  0  0  0  0  0
  140.8297   68.9221  229.1267 H   0  0  0  0  0  0  0  0  0  0  0  0
  141.6236   70.7147  227.5825 H   0  0  0  0  0  0  0  0  0  0  0  0
  141.0803   71.9679  225.4612 H   0  0  0  0  0  0  0  0  0  0  0  0
  142.0761   70.6722  224.6403 H   0  0  0  0  0  0  0  0  0  0  0  0
  140.9076   76.9567  222.7843 H   0  0  0  0  0  0  0  0  0  0  0  0
  141.2063   76.7818  221.0042 H   0  0  0  0  0  0  0  0  0  0  0  0
  140.1292   78.9747  221.7388 H   0  0  0  0  0  0  0  0  0  0  0  0
  139.2656   78.0531  220.4563 H   0  0  0  0  0  0  0  0  0  0  0  0
  135.1180   80.9034  223.7856 H   0  0  0  0  0  0  0  0  0  0  0  0
  1  2  2  0
  2  3  1  0
  3  4  2  0
  4  5  1  0
  5  6  1  0
  6  7  1  0
  7  8  1  0
  8  9  1  0
  9 10  2  0
 10 11  1  0
 11 12  1  0
 12 13  1  0
 13 14  1  0
 14 15  1  0
 15 16  1  0
 16 17  1  0
 11 18  2  0
 18 19  1  0
 19 20  1  0
 20 21  1  0
 21 22  1  0
 22 23  1  0
 23 24  2  0
 24 25  1  0
 25 26  2  0
 26 27  1  0
 27 28  2  0
 28 29  1  0
 19 30  2  0
  8 31  1  0
 31 32  1  0
  4 33  1  0
 33 34  2  0
 34  1  1  0
 32  5  1  0
 30  9  1  0
 17 12  1  0
 29 20  1  0
 28 23  1  0
  1 35  1  0
  2 36  1  0
  3 37  1  0
  6 38  1  0
  6 39  1  0
  7 40  1  0
  7 41  1  0
 13 42  1  0
 13 43  1  0
 14 44  1  0
 14 45  1  0
 16 46  1  0
 16 47  1  0
 17 48  1  0
 17 49  1  0
 21 50  1  0
 21 51  1  0
 22 52  1  0
 22 53  1  0
 24 54  1  0
 25 55  1  0
 26 56  1  0
 27 57  1  0
 29 58  1  0
 29 59  1  0
 31 60  1  0
 31 61  1  0
 32 62  1  0
 32 63  1  0
 34 64  1  0
M  END
>  <UniqueID>  (19) 
274

>  <SMILES>  (19) 
c1ccc(N2CCN(c3nc(N4CCOCC4)nc(N4CCc5ccccc5C4)n3)CC2)nc1

>  <Energy>  (19) 
78.41600375727215

>  <Genealogy>  (19) 
c1ccc(N2CCN(c3nc(N4CCOCC4)nc(N4CCc5ccccc5C4)n3)CC2)nc1 (3D coordinates assigned)
c1ccc(N2CCN(c3nc(N4CCOCC4)nc(N4CCc5ccccc5C4)n3)CC2)nc1 (nonaromatic ring conformer: 78.41600375727215 kcal/mol)

>  <smiles>  (19) 
c1ccc(N2CCN(c3nc(N4CCOCC4)nc(N4CCc5ccccc5C4)n3)CC2)nc1

>  <score_type>  (19) 
oracle

>  <origin>  (19) 
autodockgpu

>  <m_score__min__energy>  (19) 
-8.9399999999999995

>  <m_primary>  (19) 
energy

>  <meeko>  (19) 
{"free_energy": -8.91, "intermolecular_energy": -10.1, "internal_energy": -0.89, "cluster_size": 18, "cluster_id": 1, "rank_in_cluster": 11}

>  <energy>  (19) 
-8.72

>  <cluster_rmsd>  (19) 
0.0

>  <rmsd>  (19) 
270.03

>  <cluster>  (19) 
2

$$$$
XSFBOMDNDOCRMT-UHFFFAOYNA-N
     RDKit          3D

 64 69  0  0  0  0  0  0  0  0999 V2000
  137.0360   81.4080  224.5570 C   0  0  0  0  0  0  0  0  0  0  0  0
  138.3940   81.0900  224.5690 C   0  0  0  0  0  0  0  0  0  0  0  0
  138.8570   79.9860  223.8510 C   0  0  0  0  0  0  0  0  0  0  0  0
  137.9470   79.1900  223.1220 C   0  0  0  0  0  0  0  0  0  0  0  0
  138.3870   78.0420  222.3500 N   0  0  0  0  0  0  0  0  0  0  0  0
  137.6000   76.7910  222.3350 C   0  0  0  0  0  0  0  0  0  0  0  0
  138.2580   75.6920  221.4940 C   0  0  0  0  0  0  0  0  0  0  0  0
  139.7040   75.6290  221.7620 N   0  0  0  0  0  0  0  0  0  0  0  0
  140.3990   74.3680  221.8080 C   0  0  0  0  0  0  0  0  0  0  0  0
  141.4400   74.1320  220.9660 N   0  0  0  0  0  0  0  0  0  0  0  0
  142.1090   72.9510  221.0010 C   0  0  0  0  0  0  0  0  0  0  0  0
  143.1970   72.7060  220.0880 N   0  0  0  0  0  0  0  0  0  0  0  0
  143.8650   73.8500  219.4550 C   0  0  0  0  0  0  0  0  0  0  0  0
  144.8560   73.3650  218.3990 C   0  0  0  0  0  0  0  0  0  0  0  0
  145.6820   72.3720  218.9660 O   0  0  0  0  0  0  0  0  0  0  0  0
  144.9580   71.1660  219.1840 C   0  0  0  0  0  0  0  0  0  0  0  0
  143.4770   71.3410  219.6170 C   0  0  0  0  0  0  0  0  0  0  0  0
  141.7270   71.9960  221.8890 N   0  0  0  0  0  0  0  0  0  0  0  0
  140.6850   72.2110  222.7360 C   0  0  0  0  0  0  0  0  0  0  0  0
  140.2810   71.1800  223.6620 N   0  0  0  0  0  0  0  0  0  0  0  0
  139.0470   70.4110  223.4240 C   0  0  0  0  0  0  0  0  0  0  0  0
  139.2010   68.9730  223.9160 C   0  0  0  0  0  0  0  0  0  0  0  0
  139.6200   68.9670  225.3550 C   0  0  0  0  0  0  0  0  0  0  0  0
  139.1880   67.9470  226.2170 C   0  0  0  0  0  0  0  0  0  0  0  0
  139.6070   67.9270  227.5490 C   0  0  0  0  0  0  0  0  0  0  0  0
  140.4700   68.9140  228.0260 C   0  0  0  0  0  0  0  0  0  0  0  0
  140.9210   69.9220  227.1700 C   0  0  0  0  0  0  0  0  0  0  0  0
  140.4970   69.9580  225.8320 C   0  0  0  0  0  0  0  0  0  0  0  0
  141.0610   71.0060  224.9010 C   0  0  0  0  0  0  0  0  0  0  0  0
  140.0280   73.4010  222.6900 N   0  0  0  0  0  0  0  0  0  0  0  0
  140.4860   76.8720  221.8470 C   0  0  0  0  0  0  0  0  0  0  0  0
  139.6270   78.1020  221.5620 C   0  0  0  0  0  0  0  0  0  0  0  0
  136.6250   79.5330  223.1390 N   0  0  0  0  0  0  0  0  0  0  0  0
  136.1560   80.6090  223.8260 C   0  0  0  0  0  0  0  0  0  0  0  0
  136.6632   82.2782  225.1171 H   0  0  0  0  0  0  0  0  0  0  0  0
  139.0993   81.7084  225.1436 H   0  0  0  0  0  0  0  0  0  0  0  0
  139.9284   79.7368  223.8532 H   0  0  0  0  0  0  0  0  0  0  0  0
  137.4944   76.4286  223.3682 H   0  0  0  0  0  0  0  0  0  0  0  0
  136.6230   77.0170  221.8830 H   0  0  0  0  0  0  0  0  0  0  0  0
  137.8015   74.7231  221.7446 H   0  0  0  0  0  0  0  0  0  0  0  0
  138.1048   75.9213  220.4291 H   0  0  0  0  0  0  0  0  0  0  0  0
  143.1106   74.4923  218.9773 H   0  0  0  0  0  0  0  0  0  0  0  0
  144.4096   74.4177  220.2239 H   0  0  0  0  0  0  0  0  0  0  0  0
  144.3070   72.9439  217.5438 H   0  0  0  0  0  0  0  0  0  0  0  0
  145.4723   74.2078  218.0528 H   0  0  0  0  0  0  0  0  0  0  0  0
  144.9708   70.5896  218.2472 H   0  0  0  0  0  0  0  0  0  0  0  0
  145.4592   70.6619  220.0234 H   0  0  0  0  0  0  0  0  0  0  0  0
  142.8275   71.1222  218.7566 H   0  0  0  0  0  0  0  0  0  0  0  0
  143.2828   70.6485  220.4493 H   0  0  0  0  0  0  0  0  0  0  0  0
  138.2148   70.8890  223.9616 H   0  0  0  0  0  0  0  0  0  0  0  0
  138.8448   70.3942  222.3429 H   0  0  0  0  0  0  0  0  0  0  0  0
  138.2398   68.4480  223.8140 H   0  0  0  0  0  0  0  0  0  0  0  0
  139.9686   68.4650  223.3137 H   0  0  0  0  0  0  0  0  0  0  0  0
  138.5168   67.1603  225.8419 H   0  0  0  0  0  0  0  0  0  0  0  0
  139.2561   67.1318  228.2232 H   0  0  0  0  0  0  0  0  0  0  0  0
  140.7955   68.8986  229.0766 H   0  0  0  0  0  0  0  0  0  0  0  0
  141.6116   70.6911  227.5462 H   0  0  0  0  0  0  0  0  0  0  0  0
  141.0846   71.9677  225.4344 H   0  0  0  0  0  0  0  0  0  0  0  0
  142.0641   70.6658  224.6041 H   0  0  0  0  0  0  0  0  0  0  0  0
  140.9079   76.9589  222.8592 H   0  0  0  0  0  0  0  0  0  0  0  0
  141.2825   76.8278  221.0896 H   0  0  0  0  0  0  0  0  0  0  0  0
  140.1876   79.0088  221.8331 H   0  0  0  0  0  0  0  0  0  0  0  0
  139.3743   78.1262  220.4917 H   0  0  0  0  0  0  0  0  0  0  0  0
  135.0828   80.8495  223.8054 H   0  0  0  0  0  0  0  0  0  0  0  0
  1  2  2  0
  2  3  1  0
  3  4  2  0
  4  5  1  0
  5  6  1  0
  6  7  1  0
  7  8  1  0
  8  9  1  0
  9 10  2  0
 10 11  1  0
 11 12  1  0
 12 13  1  0
 13 14  1  0
 14 15  1  0
 15 16  1  0
 16 17  1  0
 11 18  2  0
 18 19  1  0
 19 20  1  0
 20 21  1  0
 21 22  1  0
 22 23  1  0
 23 24  2  0
 24 25  1  0
 25 26  2  0
 26 27  1  0
 27 28  2  0
 28 29  1  0
 19 30  2  0
  8 31  1  0
 31 32  1  0
  4 33  1  0
 33 34  2  0
 34  1  1  0
 32  5  1  0
 30  9  1  0
 17 12  1  0
 29 20  1  0
 28 23  1  0
  1 35  1  0
  2 36  1  0
  3 37  1  0
  6 38  1  0
  6 39  1  0
  7 40  1  0
  7 41  1  0
 13 42  1  0
 13 43  1  0
 14 44  1  0
 14 45  1  0
 16 46  1  0
 16 47  1  0
 17 48  1  0
 17 49  1  0
 21 50  1  0
 21 51  1  0
 22 52  1  0
 22 53  1  0
 24 54  1  0
 25 55  1  0
 26 56  1  0
 27 57  1  0
 29 58  1  0
 29 59  1  0
 31 60  1  0
 31 61  1  0
 32 62  1  0
 32 63  1  0
 34 64  1  0
M  END
>  <UniqueID>  (20) 
274

>  <SMILES>  (20) 
c1ccc(N2CCN(c3nc(N4CCOCC4)nc(N4CCc5ccccc5C4)n3)CC2)nc1

>  <Energy>  (20) 
78.41600375727215

>  <Genealogy>  (20) 
c1ccc(N2CCN(c3nc(N4CCOCC4)nc(N4CCc5ccccc5C4)n3)CC2)nc1 (3D coordinates assigned)
c1ccc(N2CCN(c3nc(N4CCOCC4)nc(N4CCc5ccccc5C4)n3)CC2)nc1 (nonaromatic ring conformer: 78.41600375727215 kcal/mol)

>  <smiles>  (20) 
c1ccc(N2CCN(c3nc(N4CCOCC4)nc(N4CCc5ccccc5C4)n3)CC2)nc1

>  <score_type>  (20) 
oracle

>  <origin>  (20) 
autodockgpu

>  <m_score__min__energy>  (20) 
-8.9399999999999995

>  <m_primary>  (20) 
energy

>  <meeko>  (20) 
{"free_energy": -8.93, "intermolecular_energy": -10.12, "internal_energy": -0.89, "cluster_size": 18, "cluster_id": 1, "rank_in_cluster": 3}

>  <energy>  (20) 
-8.6

>  <cluster_rmsd>  (20) 
0.81

>  <rmsd>  (20) 
270.08

>  <cluster>  (20) 
2

$$$$
XSFBOMDNDOCRMT-UHFFFAOYNA-N
     RDKit          3D

 64 69  0  0  0  0  0  0  0  0999 V2000
  142.4260   81.4170  223.9320 C   0  0  0  0  0  0  0  0  0  0  0  0
  143.2710   80.4680  223.3570 C   0  0  0  0  0  0  0  0  0  0  0  0
  142.7300   79.3690  222.6860 C   0  0  0  0  0  0  0  0  0  0  0  0
  141.3280   79.2210  222.5990 C   0  0  0  0  0  0  0  0  0  0  0  0
  140.7230   78.1020  221.8990 N   0  0  0  0  0  0  0  0  0  0  0  0
  139.4150   77.5610  222.3210 C   0  0  0  0  0  0  0  0  0  0  0  0
  138.9750   76.3590  221.4770 C   0  0  0  0  0  0  0  0  0  0  0  0
  140.1010   75.4350  221.2640 N   0  0  0  0  0  0  0  0  0  0  0  0
  139.9020   74.0090  221.2600 C   0  0  0  0  0  0  0  0  0  0  0  0
  139.6920   73.3520  220.0880 N   0  0  0  0  0  0  0  0  0  0  0  0
  139.5100   72.0070  220.0660 C   0  0  0  0  0  0  0  0  0  0  0  0
  139.2680   71.3280  218.8190 N   0  0  0  0  0  0  0  0  0  0  0  0
  139.1620   69.8640  218.8150 C   0  0  0  0  0  0  0  0  0  0  0  0
  139.0870   69.3430  217.3820 C   0  0  0  0  0  0  0  0  0  0  0  0
  138.0950   70.0600  216.6830 O   0  0  0  0  0  0  0  0  0  0  0  0
  138.5120   71.3970  216.4290 C   0  0  0  0  0  0  0  0  0  0  0  0
  139.3620   72.0590  217.5450 C   0  0  0  0  0  0  0  0  0  0  0  0
  139.5370   71.3140  221.2340 N   0  0  0  0  0  0  0  0  0  0  0  0
  139.7410   71.9520  222.4180 C   0  0  0  0  0  0  0  0  0  0  0  0
  139.7500   71.2030  223.6520 N   0  0  0  0  0  0  0  0  0  0  0  0
  138.7650   70.1300  223.8760 C   0  0  0  0  0  0  0  0  0  0  0  0
  139.3730   69.0010  224.7080 C   0  0  0  0  0  0  0  0  0  0  0  0
  139.9330   69.5510  225.9840 C   0  0  0  0  0  0  0  0  0  0  0  0
  139.9050   68.7860  227.1600 C   0  0  0  0  0  0  0  0  0  0  0  0
  140.4570   69.2890  228.3400 C   0  0  0  0  0  0  0  0  0  0  0  0
  141.0530   70.5510  228.3520 C   0  0  0  0  0  0  0  0  0  0  0  0
  141.1030   71.3120  227.1810 C   0  0  0  0  0  0  0  0  0  0  0  0
  140.5410   70.8200  225.9920 C   0  0  0  0  0  0  0  0  0  0  0  0
  140.6790   71.6200  224.7180 C   0  0  0  0  0  0  0  0  0  0  0  0
  139.9240   73.2990  222.4210 N   0  0  0  0  0  0  0  0  0  0  0  0
  141.4260   75.9680  220.9100 C   0  0  0  0  0  0  0  0  0  0  0  0
  141.4010   77.4860  220.7490 C   0  0  0  0  0  0  0  0  0  0  0  0
  140.5360   80.1700  223.1780 N   0  0  0  0  0  0  0  0  0  0  0  0
  141.0440   81.2510  223.8300 C   0  0  0  0  0  0  0  0  0  0  0  0
  142.8442   82.2867  224.4601 H   0  0  0  0  0  0  0  0  0  0  0  0
  144.3622   80.5850  223.4319 H   0  0  0  0  0  0  0  0  0  0  0  0
  143.3935   78.6213  222.2269 H   0  0  0  0  0  0  0  0  0  0  0  0
  139.4865   77.2461  223.3725 H   0  0  0  0  0  0  0  0  0  0  0  0
  138.6662   78.3554  222.1859 H   0  0  0  0  0  0  0  0  0  0  0  0
  138.1654   75.8279  221.9989 H   0  0  0  0  0  0  0  0  0  0  0  0
  138.6243   76.7216  220.4995 H   0  0  0  0  0  0  0  0  0  0  0  0
  140.0447   69.4347  219.3116 H   0  0  0  0  0  0  0  0  0  0  0  0
  138.2479   69.5696  219.3515 H   0  0  0  0  0  0  0  0  0  0  0  0
  140.0598   69.4825  216.8878 H   0  0  0  0  0  0  0  0  0  0  0  0
  138.8352   68.2722  217.3892 H   0  0  0  0  0  0  0  0  0  0  0  0
  139.1092   71.3952  215.5052 H   0  0  0  0  0  0  0  0  0  0  0  0
  137.5891   71.9917  216.3618 H   0  0  0  0  0  0  0  0  0  0  0  0
  140.4141   72.0796  217.2246 H   0  0  0  0  0  0  0  0  0  0  0  0
  138.9747   73.0756  217.7081 H   0  0  0  0  0  0  0  0  0  0  0  0
  137.8962   70.5434  224.4091 H   0  0  0  0  0  0  0  0  0  0  0  0
  138.4578   69.7238  222.9010 H   0  0  0  0  0  0  0  0  0  0  0  0
  138.5942   68.2600  224.9412 H   0  0  0  0  0  0  0  0  0  0  0  0
  140.1813   68.5239  224.1343 H   0  0  0  0  0  0  0  0  0  0  0  0
  139.4464   67.7862  227.1524 H   0  0  0  0  0  0  0  0  0  0  0  0
  140.4220   68.6895  229.2616 H   0  0  0  0  0  0  0  0  0  0  0  0
  141.4836   70.9468  229.2837 H   0  0  0  0  0  0  0  0  0  0  0  0
  141.5848   72.3008  227.1907 H   0  0  0  0  0  0  0  0  0  0  0  0
  140.4884   72.6782  224.9502 H   0  0  0  0  0  0  0  0  0  0  0  0
  141.6981   71.4497  224.3406 H   0  0  0  0  0  0  0  0  0  0  0  0
  142.1395   75.7058  221.7051 H   0  0  0  0  0  0  0  0  0  0  0  0
  141.7267   75.5267  219.9483 H   0  0  0  0  0  0  0  0  0  0  0  0
  142.4326   77.8631  220.6893 H   0  0  0  0  0  0  0  0  0  0  0  0
  140.8564   77.7428  219.8284 H   0  0  0  0  0  0  0  0  0  0  0  0
  140.3660   81.9934  224.2763 H   0  0  0  0  0  0  0  0  0  0  0  0
  1  2  2  0
  2  3  1  0
  3  4  2  0
  4  5  1  0
  5  6  1  0
  6  7  1  0
  7  8  1  0
  8  9  1  0
  9 10  2  0
 10 11  1  0
 11 12  1  0
 12 13  1  0
 13 14  1  0
 14 15  1  0
 15 16  1  0
 16 17  1  0
 11 18  2  0
 18 19  1  0
 19 20  1  0
 20 21  1  0
 21 22  1  0
 22 23  1  0
 23 24  2  0
 24 25  1  0
 25 26  2  0
 26 27  1  0
 27 28  2  0
 28 29  1  0
 19 30  2  0
  8 31  1  0
 31 32  1  0
  4 33  1  0
 33 34  2  0
 34  1  1  0
 32  5  1  0
 30  9  1  0
 17 12  1  0
 29 20  1  0
 28 23  1  0
  1 35  1  0
  2 36  1  0
  3 37  1  0
  6 38  1  0
  6 39  1  0
  7 40  1  0
  7 41  1  0
 13 42  1  0
 13 43  1  0
 14 44  1  0
 14 45  1  0
 16 46  1  0
 16 47  1  0
 17 48  1  0
 17 49  1  0
 21 50  1  0
 21 51  1  0
 22 52  1  0
 22 53  1  0
 24 54  1  0
 25 55  1  0
 26 56  1  0
 27 57  1  0
 29 58  1  0
 29 59  1  0
 31 60  1  0
 31 61  1  0
 32 62  1  0
 32 63  1  0
 34 64  1  0
M  END
>  <UniqueID>  (21) 
275

>  <SMILES>  (21) 
c1ccc(N2CCN(c3nc(N4CCOCC4)nc(N4CCc5ccccc5C4)n3)CC2)nc1

>  <Energy>  (21) 
78.71001359451697

>  <Genealogy>  (21) 
c1ccc(N2CCN(c3nc(N4CCOCC4)nc(N4CCc5ccccc5C4)n3)CC2)nc1 (3D coordinates assigned)
c1ccc(N2CCN(c3nc(N4CCOCC4)nc(N4CCc5ccccc5C4)n3)CC2)nc1 (nonaromatic ring conformer: 78.71001359451697 kcal/mol)

>  <smiles>  (21) 
c1ccc(N2CCN(c3nc(N4CCOCC4)nc(N4CCc5ccccc5C4)n3)CC2)nc1

>  <score_type>  (21) 
oracle

>  <origin>  (21) 
autodockgpu

>  <m_score__min__energy>  (21) 
-8.9399999999999995

>  <m_primary>  (21) 
energy

>  <meeko>  (21) 
{"free_energy": -8.72, "intermolecular_energy": -9.92, "internal_energy": -0.9, "cluster_size": 2, "cluster_id": 2, "rank_in_cluster": 1}

>  <energy>  (21) 
-8.94

>  <cluster_rmsd>  (21) 
0.0

>  <rmsd>  (21) 
270.57

>  <cluster>  (21) 
1

$$$$
XSFBOMDNDOCRMT-UHFFFAOYNA-N
     RDKit          3D

 64 69  0  0  0  0  0  0  0  0999 V2000
  136.9420   82.0090  224.7430 C   0  0  0  0  0  0  0  0  0  0  0  0
  136.6960   82.0510  223.3700 C   0  0  0  0  0  0  0  0  0  0  0  0
  137.2370   81.0710  222.5360 C   0  0  0  0  0  0  0  0  0  0  0  0
  138.0370   80.0450  223.0840 C   0  0  0  0  0  0  0  0  0  0  0  0
  138.6070   78.9980  222.2550 N   0  0  0  0  0  0  0  0  0  0  0  0
  137.8150   77.8080  221.8830 C   0  0  0  0  0  0  0  0  0  0  0  0
  138.6150   76.8080  221.0410 C   0  0  0  0  0  0  0  0  0  0  0  0
  139.9680   76.6290  221.5940 N   0  0  0  0  0  0  0  0  0  0  0  0
  140.6080   75.3390  221.5900 C   0  0  0  0  0  0  0  0  0  0  0  0
  141.7610   75.1510  220.8930 N   0  0  0  0  0  0  0  0  0  0  0  0
  142.3810   73.9430  220.8850 C   0  0  0  0  0  0  0  0  0  0  0  0
  143.5910   73.7540  220.1260 N   0  0  0  0  0  0  0  0  0  0  0  0
  144.8090   73.3250  220.8240 C   0  0  0  0  0  0  0  0  0  0  0  0
  146.0040   73.3610  219.8750 C   0  0  0  0  0  0  0  0  0  0  0  0
  145.6680   72.6760  218.6880 O   0  0  0  0  0  0  0  0  0  0  0  0
  144.7290   73.4160  217.9170 C   0  0  0  0  0  0  0  0  0  0  0  0
  143.6690   74.2080  218.7290 C   0  0  0  0  0  0  0  0  0  0  0  0
  141.8360   72.9120  221.5810 N   0  0  0  0  0  0  0  0  0  0  0  0
  140.6810   73.0770  222.2800 C   0  0  0  0  0  0  0  0  0  0  0  0
  140.1050   71.9660  223.0010 N   0  0  0  0  0  0  0  0  0  0  0  0
  138.7720   71.4570  222.6380 C   0  0  0  0  0  0  0  0  0  0  0  0
  138.6920   69.9460  222.8490 C   0  0  0  0  0  0  0  0  0  0  0  0
  139.0800   69.6050  224.2550 C   0  0  0  0  0  0  0  0  0  0  0  0
  138.4800   68.5210  224.9150 C   0  0  0  0  0  0  0  0  0  0  0  0
  138.8680   68.1870  226.2140 C   0  0  0  0  0  0  0  0  0  0  0  0
  139.8660   68.9200  226.8580 C   0  0  0  0  0  0  0  0  0  0  0  0
  140.4820   69.9880  226.2010 C   0  0  0  0  0  0  0  0  0  0  0  0
  140.0920   70.3400  224.8990 C   0  0  0  0  0  0  0  0  0  0  0  0
  140.8280   71.4430  224.1750 C   0  0  0  0  0  0  0  0  0  0  0  0
  140.0750   74.2940  222.2800 N   0  0  0  0  0  0  0  0  0  0  0  0
  140.7400   77.8020  222.0310 C   0  0  0  0  0  0  0  0  0  0  0  0
  139.9890   79.1050  221.7640 C   0  0  0  0  0  0  0  0  0  0  0  0
  138.2570   80.0410  224.4320 N   0  0  0  0  0  0  0  0  0  0  0  0
  137.7330   80.9830  225.2620 C   0  0  0  0  0  0  0  0  0  0  0  0
  136.5176   82.7754  225.4082 H   0  0  0  0  0  0  0  0  0  0  0  0
  136.0768   82.8550  222.9456 H   0  0  0  0  0  0  0  0  0  0  0  0
  137.0404   81.0981  221.4541 H   0  0  0  0  0  0  0  0  0  0  0  0
  137.4802   77.3059  222.8027 H   0  0  0  0  0  0  0  0  0  0  0  0
  136.9644   78.1502  221.2753 H   0  0  0  0  0  0  0  0  0  0  0  0
  138.0943   75.8391  221.0393 H   0  0  0  0  0  0  0  0  0  0  0  0
  138.7001   77.1967  220.0155 H   0  0  0  0  0  0  0  0  0  0  0  0
  144.9983   74.0000  221.6717 H   0  0  0  0  0  0  0  0  0  0  0  0
  144.6703   72.2955  221.1858 H   0  0  0  0  0  0  0  0  0  0  0  0
  146.2566   74.4053  219.6394 H   0  0  0  0  0  0  0  0  0  0  0  0
  146.8709   72.8786  220.3501 H   0  0  0  0  0  0  0  0  0  0  0  0
  145.2890   74.1345  217.3005 H   0  0  0  0  0  0  0  0  0  0  0  0
  144.1665   72.6722  217.3336 H   0  0  0  0  0  0  0  0  0  0  0  0
  143.9371   75.2748  218.7170 H   0  0  0  0  0  0  0  0  0  0  0  0
  142.6877   74.0383  218.2619 H   0  0  0  0  0  0  0  0  0  0  0  0
  138.0148   71.9493  223.2658 H   0  0  0  0  0  0  0  0  0  0  0  0
  138.5889   71.6747  221.5754 H   0  0  0  0  0  0  0  0  0  0  0  0
  137.6627   69.6059  222.6622 H   0  0  0  0  0  0  0  0  0  0  0  0
  139.3815   69.4466  222.1524 H   0  0  0  0  0  0  0  0  0  0  0  0
  137.7016   67.9328  224.4071 H   0  0  0  0  0  0  0  0  0  0  0  0
  138.3860   67.3442  226.7311 H   0  0  0  0  0  0  0  0  0  0  0  0
  140.1675   68.6568  227.8826 H   0  0  0  0  0  0  0  0  0  0  0  0
  141.2768   70.5562  226.7065 H   0  0  0  0  0  0  0  0  0  0  0  0
  140.9921   72.2717  224.8795 H   0  0  0  0  0  0  0  0  0  0  0  0
  141.7710   71.0127  223.8067 H   0  0  0  0  0  0  0  0  0  0  0  0
  140.9354   77.7181  223.1102 H   0  0  0  0  0  0  0  0  0  0  0  0
  141.6801   77.8254  221.4604 H   0  0  0  0  0  0  0  0  0  0  0  0
  140.4971   79.9313  222.2828 H   0  0  0  0  0  0  0  0  0  0  0  0
  139.9738   79.2979  220.6812 H   0  0  0  0  0  0  0  0  0  0  0  0
  137.9329   80.9360  226.3427 H   0  0  0  0  0  0  0  0  0  0  0  0
  1  2  2  0
  2  3  1  0
  3  4  2  0
  4  5  1  0
  5  6  1  0
  6  7  1  0
  7  8  1  0
  8  9  1  0
  9 10  2  0
 10 11  1  0
 11 12  1  0
 12 13  1  0
 13 14  1  0
 14 15  1  0
 15 16  1  0
 16 17  1  0
 11 18  2  0
 18 19  1  0
 19 20  1  0
 20 21  1  0
 21 22  1  0
 22 23  1  0
 23 24  2  0
 24 25  1  0
 25 26  2  0
 26 27  1  0
 27 28  2  0
 28 29  1  0
 19 30  2  0
  8 31  1  0
 31 32  1  0
  4 33  1  0
 33 34  2  0
 34  1  1  0
 32  5  1  0
 30  9  1  0
 17 12  1  0
 29 20  1  0
 28 23  1  0
  1 35  1  0
  2 36  1  0
  3 37  1  0
  6 38  1  0
  6 39  1  0
  7 40  1  0
  7 41  1  0
 13 42  1  0
 13 43  1  0
 14 44  1  0
 14 45  1  0
 16 46  1  0
 16 47  1  0
 17 48  1  0
 17 49  1  0
 21 50  1  0
 21 51  1  0
 22 52  1  0
 22 53  1  0
 24 54  1  0
 25 55  1  0
 26 56  1  0
 27 57  1  0
 29 58  1  0
 29 59  1  0
 31 60  1  0
 31 61  1  0
 32 62  1  0
 32 63  1  0
 34 64  1  0
M  END
>  <UniqueID>  (22) 
275

>  <SMILES>  (22) 
c1ccc(N2CCN(c3nc(N4CCOCC4)nc(N4CCc5ccccc5C4)n3)CC2)nc1

>  <Energy>  (22) 
78.71001359451697

>  <Genealogy>  (22) 
c1ccc(N2CCN(c3nc(N4CCOCC4)nc(N4CCc5ccccc5C4)n3)CC2)nc1 (3D coordinates assigned)
c1ccc(N2CCN(c3nc(N4CCOCC4)nc(N4CCc5ccccc5C4)n3)CC2)nc1 (nonaromatic ring conformer: 78.71001359451697 kcal/mol)

>  <smiles>  (22) 
c1ccc(N2CCN(c3nc(N4CCOCC4)nc(N4CCc5ccccc5C4)n3)CC2)nc1

>  <score_type>  (22) 
oracle

>  <origin>  (22) 
autodockgpu

>  <m_score__min__energy>  (22) 
-8.9399999999999995

>  <m_primary>  (22) 
energy

>  <meeko>  (22) 
{"free_energy": -8.37, "intermolecular_energy": -9.57, "internal_energy": -0.88, "cluster_size": 18, "cluster_id": 1, "rank_in_cluster": 18}

>  <energy>  (22) 
-8.93

>  <cluster_rmsd>  (22) 
0.03

>  <rmsd>  (22) 
270.56

>  <cluster>  (22) 
1

$$$$
XSFBOMDNDOCRMT-UHFFFAOYNA-N
     RDKit          3D

 64 69  0  0  0  0  0  0  0  0999 V2000
  136.9070   81.2980  224.6130 C   0  0  0  0  0  0  0  0  0  0  0  0
  138.2850   81.0840  224.5720 C   0  0  0  0  0  0  0  0  0  0  0  0
  138.8030   80.0150  223.8390 C   0  0  0  0  0  0  0  0  0  0  0  0
  137.9280   79.1490  223.1470 C   0  0  0  0  0  0  0  0  0  0  0  0
  138.4240   78.0340  222.3610 N   0  0  0  0  0  0  0  0  0  0  0  0
  137.6290   76.7970  222.2120 C   0  0  0  0  0  0  0  0  0  0  0  0
  138.3490   75.7320  221.3790 C   0  0  0  0  0  0  0  0  0  0  0  0
  139.7640   75.6340  221.7710 N   0  0  0  0  0  0  0  0  0  0  0  0
  140.4390   74.3630  221.8140 C   0  0  0  0  0  0  0  0  0  0  0  0
  141.4690   74.1070  220.9640 N   0  0  0  0  0  0  0  0  0  0  0  0
  142.1190   72.9160  220.9970 C   0  0  0  0  0  0  0  0  0  0  0  0
  143.1960   72.6510  220.0770 N   0  0  0  0  0  0  0  0  0  0  0  0
  143.8460   73.7800  219.3990 C   0  0  0  0  0  0  0  0  0  0  0  0
  144.8250   73.2700  218.3440 C   0  0  0  0  0  0  0  0  0  0  0  0
  145.6660   72.3000  218.9270 O   0  0  0  0  0  0  0  0  0  0  0  0
  144.9540   71.0970  219.1920 C   0  0  0  0  0  0  0  0  0  0  0  0
  143.4790   71.2740  219.6420 C   0  0  0  0  0  0  0  0  0  0  0  0
  141.7300   71.9700  221.8910 N   0  0  0  0  0  0  0  0  0  0  0  0
  140.6990   72.2040  222.7470 C   0  0  0  0  0  0  0  0  0  0  0  0
  140.2860   71.1820  223.6790 N   0  0  0  0  0  0  0  0  0  0  0  0
  139.0500   70.4160  223.4430 C   0  0  0  0  0  0  0  0  0  0  0  0
  139.1960   68.9810  223.9470 C   0  0  0  0  0  0  0  0  0  0  0  0
  139.6090   68.9850  225.3870 C   0  0  0  0  0  0  0  0  0  0  0  0
  139.1680   67.9740  226.2550 C   0  0  0  0  0  0  0  0  0  0  0  0
  139.5810   67.9630  227.5890 C   0  0  0  0  0  0  0  0  0  0  0  0
  140.4470   68.9510  228.0620 C   0  0  0  0  0  0  0  0  0  0  0  0
  140.9050   69.9500  227.2000 C   0  0  0  0  0  0  0  0  0  0  0  0
  140.4880   69.9760  225.8600 C   0  0  0  0  0  0  0  0  0  0  0  0
  141.0600   71.0140  224.9230 C   0  0  0  0  0  0  0  0  0  0  0  0
  140.0600   73.4030  222.7030 N   0  0  0  0  0  0  0  0  0  0  0  0
  140.5480   76.8600  221.9880 C   0  0  0  0  0  0  0  0  0  0  0  0
  139.7300   78.1140  221.6900 C   0  0  0  0  0  0  0  0  0  0  0  0
  136.5860   79.3900  223.2150 N   0  0  0  0  0  0  0  0  0  0  0  0
  136.0630   80.4300  223.9190 C   0  0  0  0  0  0  0  0  0  0  0  0
  136.4910   82.1403  225.1852 H   0  0  0  0  0  0  0  0  0  0  0  0
  138.9629   81.7573  225.1170 H   0  0  0  0  0  0  0  0  0  0  0  0
  139.8895   79.8476  223.8005 H   0  0  0  0  0  0  0  0  0  0  0  0
  137.4269   76.3853  223.2118 H   0  0  0  0  0  0  0  0  0  0  0  0
  136.6991   77.0594  221.6863 H   0  0  0  0  0  0  0  0  0  0  0  0
  137.8619   74.7587  221.5383 H   0  0  0  0  0  0  0  0  0  0  0  0
  138.2949   76.0167  220.3178 H   0  0  0  0  0  0  0  0  0  0  0  0
  143.0797   74.4017  218.9130 H   0  0  0  0  0  0  0  0  0  0  0  0
  144.3974   74.3750  220.1419 H   0  0  0  0  0  0  0  0  0  0  0  0
  144.2666   72.8202  217.5098 H   0  0  0  0  0  0  0  0  0  0  0  0
  145.4305   74.1063  217.9646 H   0  0  0  0  0  0  0  0  0  0  0  0
  144.9569   70.4929  218.2727 H   0  0  0  0  0  0  0  0  0  0  0  0
  145.4713   70.6223  220.0388 H   0  0  0  0  0  0  0  0  0  0  0  0
  142.8182   71.0253  218.7985 H   0  0  0  0  0  0  0  0  0  0  0  0
  143.3024   70.6049  220.4970 H   0  0  0  0  0  0  0  0  0  0  0  0
  138.2179   70.9017  223.9738 H   0  0  0  0  0  0  0  0  0  0  0  0
  138.8519   70.3912  222.3613 H   0  0  0  0  0  0  0  0  0  0  0  0
  138.2330   68.4591  223.8454 H   0  0  0  0  0  0  0  0  0  0  0  0
  139.9637   68.4649  223.3519 H   0  0  0  0  0  0  0  0  0  0  0  0
  138.4947   67.1876  225.8832 H   0  0  0  0  0  0  0  0  0  0  0  0
  139.2236   67.1749  228.2681 H   0  0  0  0  0  0  0  0  0  0  0  0
  140.7686   68.9425  229.1139 H   0  0  0  0  0  0  0  0  0  0  0  0
  141.5960   70.7203  227.5731 H   0  0  0  0  0  0  0  0  0  0  0  0
  141.0856   71.9798  225.4489 H   0  0  0  0  0  0  0  0  0  0  0  0
  142.0626   70.6667  224.6328 H   0  0  0  0  0  0  0  0  0  0  0  0
  140.8783   76.8908  223.0368 H   0  0  0  0  0  0  0  0  0  0  0  0
  141.4090   76.8418  221.3037 H   0  0  0  0  0  0  0  0  0  0  0  0
  140.2732   78.9984  222.0545 H   0  0  0  0  0  0  0  0  0  0  0  0
  139.5737   78.1934  220.6041 H   0  0  0  0  0  0  0  0  0  0  0  0
  134.9745   80.5868  223.9412 H   0  0  0  0  0  0  0  0  0  0  0  0
  1  2  2  0
  2  3  1  0
  3  4  2  0
  4  5  1  0
  5  6  1  0
  6  7  1  0
  7  8  1  0
  8  9  1  0
  9 10  2  0
 10 11  1  0
 11 12  1  0
 12 13  1  0
 13 14  1  0
 14 15  1  0
 15 16  1  0
 16 17  1  0
 11 18  2  0
 18 19  1  0
 19 20  1  0
 20 21  1  0
 21 22  1  0
 22 23  1  0
 23 24  2  0
 24 25  1  0
 25 26  2  0
 26 27  1  0
 27 28  2  0
 28 29  1  0
 19 30  2  0
  8 31  1  0
 31 32  1  0
  4 33  1  0
 33 34  2  0
 34  1  1  0
 32  5  1  0
 30  9  1  0
 17 12  1  0
 29 20  1  0
 28 23  1  0
  1 35  1  0
  2 36  1  0
  3 37  1  0
  6 38  1  0
  6 39  1  0
  7 40  1  0
  7 41  1  0
 13 42  1  0
 13 43  1  0
 14 44  1  0
 14 45  1  0
 16 46  1  0
 16 47  1  0
 17 48  1  0
 17 49  1  0
 21 50  1  0
 21 51  1  0
 22 52  1  0
 22 53  1  0
 24 54  1  0
 25 55  1  0
 26 56  1  0
 27 57  1  0
 29 58  1  0
 29 59  1  0
 31 60  1  0
 31 61  1  0
 32 62  1  0
 32 63  1  0
 34 64  1  0
M  END
>  <UniqueID>  (23) 
275

>  <SMILES>  (23) 
c1ccc(N2CCN(c3nc(N4CCOCC4)nc(N4CCc5ccccc5C4)n3)CC2)nc1

>  <Energy>  (23) 
78.71001359451697

>  <Genealogy>  (23) 
c1ccc(N2CCN(c3nc(N4CCOCC4)nc(N4CCc5ccccc5C4)n3)CC2)nc1 (3D coordinates assigned)
c1ccc(N2CCN(c3nc(N4CCOCC4)nc(N4CCc5ccccc5C4)n3)CC2)nc1 (nonaromatic ring conformer: 78.71001359451697 kcal/mol)

>  <smiles>  (23) 
c1ccc(N2CCN(c3nc(N4CCOCC4)nc(N4CCc5ccccc5C4)n3)CC2)nc1

>  <score_type>  (23) 
oracle

>  <origin>  (23) 
autodockgpu

>  <m_score__min__energy>  (23) 
-8.9399999999999995

>  <m_primary>  (23) 
energy

>  <meeko>  (23) 
{"free_energy": -8.93, "intermolecular_energy": -10.12, "internal_energy": -0.89, "cluster_size": 18, "cluster_id": 1, "rank_in_cluster": 4}

>  <energy>  (23) 
-8.93

>  <cluster_rmsd>  (23) 
0.05

>  <rmsd>  (23) 
270.55

>  <cluster>  (23) 
1

$$$$
XSFBOMDNDOCRMT-UHFFFAOYNA-N
     RDKit          3D

 64 69  0  0  0  0  0  0  0  0999 V2000
  142.5740   81.3300  223.8790 C   0  0  0  0  0  0  0  0  0  0  0  0
  141.1830   81.2700  223.8000 C   0  0  0  0  0  0  0  0  0  0  0  0
  140.5680   80.1930  223.1580 C   0  0  0  0  0  0  0  0  0  0  0  0
  141.3580   79.1730  222.5860 C   0  0  0  0  0  0  0  0  0  0  0  0
  140.7600   78.0280  221.9210 N   0  0  0  0  0  0  0  0  0  0  0  0
  139.5580   77.3720  222.4740 C   0  0  0  0  0  0  0  0  0  0  0  0
  139.1130   76.1620  221.6450 C   0  0  0  0  0  0  0  0  0  0  0  0
  140.2730   75.3390  221.2660 N   0  0  0  0  0  0  0  0  0  0  0  0
  140.1860   73.9010  221.2330 C   0  0  0  0  0  0  0  0  0  0  0  0
  140.2130   73.2430  220.0430 N   0  0  0  0  0  0  0  0  0  0  0  0
  140.1390   71.8890  219.9960 C   0  0  0  0  0  0  0  0  0  0  0  0
  140.1480   71.2060  218.7270 N   0  0  0  0  0  0  0  0  0  0  0  0
  141.0370   70.0520  218.5460 C   0  0  0  0  0  0  0  0  0  0  0  0
  141.0240   69.5970  217.0890 C   0  0  0  0  0  0  0  0  0  0  0  0
  139.6870   69.4500  216.6660 O   0  0  0  0  0  0  0  0  0  0  0  0
  139.0510   70.7150  216.5250 C   0  0  0  0  0  0  0  0  0  0  0  0
  139.4640   71.7930  217.5630 C   0  0  0  0  0  0  0  0  0  0  0  0
  140.0330   71.1870  221.1540 N   0  0  0  0  0  0  0  0  0  0  0  0
  139.9990   71.8260  222.3540 C   0  0  0  0  0  0  0  0  0  0  0  0
  139.8690   71.0670  223.5750 N   0  0  0  0  0  0  0  0  0  0  0  0
  138.7760   70.0920  223.7300 C   0  0  0  0  0  0  0  0  0  0  0  0
  139.2270   68.9020  224.5750 C   0  0  0  0  0  0  0  0  0  0  0  0
  139.7670   69.3810  225.8880 C   0  0  0  0  0  0  0  0  0  0  0  0
  139.6020   68.6100  227.0490 C   0  0  0  0  0  0  0  0  0  0  0  0
  140.1350   69.0450  228.2640 C   0  0  0  0  0  0  0  0  0  0  0  0
  140.8470   70.2440  228.3270 C   0  0  0  0  0  0  0  0  0  0  0  0
  141.0330   71.0080  227.1720 C   0  0  0  0  0  0  0  0  0  0  0  0
  140.4920   70.5850  225.9470 C   0  0  0  0  0  0  0  0  0  0  0  0
  140.7750   71.3810  224.6950 C   0  0  0  0  0  0  0  0  0  0  0  0
  140.0770   73.1830  222.3840 N   0  0  0  0  0  0  0  0  0  0  0  0
  141.5000   75.9860  220.7780 C   0  0  0  0  0  0  0  0  0  0  0  0
  141.3390   77.5010  220.6770 C   0  0  0  0  0  0  0  0  0  0  0  0
  142.7160   79.2710  222.6810 N   0  0  0  0  0  0  0  0  0  0  0  0
  143.3340   80.3080  223.3080 C   0  0  0  0  0  0  0  0  0  0  0  0
  143.0666   82.1731  224.3855 H   0  0  0  0  0  0  0  0  0  0  0  0
  140.5711   82.0698  224.2427 H   0  0  0  0  0  0  0  0  0  0  0  0
  139.4709   80.1399  223.0983 H   0  0  0  0  0  0  0  0  0  0  0  0
  139.7796   77.0355  223.4976 H   0  0  0  0  0  0  0  0  0  0  0  0
  138.7396   78.1068  222.4568 H   0  0  0  0  0  0  0  0  0  0  0  0
  138.4163   75.5528  222.2396 H   0  0  0  0  0  0  0  0  0  0  0  0
  138.6189   76.5212  220.7302 H   0  0  0  0  0  0  0  0  0  0  0  0
  142.0616   70.3354  218.8286 H   0  0  0  0  0  0  0  0  0  0  0  0
  140.6856   69.2262  219.1820 H   0  0  0  0  0  0  0  0  0  0  0  0
  141.5283   70.3483  216.4635 H   0  0  0  0  0  0  0  0  0  0  0  0
  141.5514   68.6363  216.9949 H   0  0  0  0  0  0  0  0  0  0  0  0
  139.2866   71.1024  215.5228 H   0  0  0  0  0  0  0  0  0  0  0  0
  137.9789   70.5329  216.6908 H   0  0  0  0  0  0  0  0  0  0  0  0
  140.1415   72.5113  217.0782 H   0  0  0  0  0  0  0  0  0  0  0  0
  138.5489   72.2874  217.9210 H   0  0  0  0  0  0  0  0  0  0  0  0
  137.9230   70.5816  224.2227 H   0  0  0  0  0  0  0  0  0  0  0  0
  138.4848   69.7272  222.7339 H   0  0  0  0  0  0  0  0  0  0  0  0
  138.3694   68.2370  224.7546 H   0  0  0  0  0  0  0  0  0  0  0  0
  140.0164   68.3561  224.0375 H   0  0  0  0  0  0  0  0  0  0  0  0
  139.0507   67.6593  227.0016 H   0  0  0  0  0  0  0  0  0  0  0  0
  139.9936   68.4419  229.1730 H   0  0  0  0  0  0  0  0  0  0  0  0
  141.2618   70.5875  229.2862 H   0  0  0  0  0  0  0  0  0  0  0  0
  141.6061   71.9456  227.2225 H   0  0  0  0  0  0  0  0  0  0  0  0
  140.6748   72.4502  224.9333 H   0  0  0  0  0  0  0  0  0  0  0  0
  141.7919   71.1168  224.3694 H   0  0  0  0  0  0  0  0  0  0  0  0
  142.3223   75.7606  221.4731 H   0  0  0  0  0  0  0  0  0  0  0  0
  141.7156   75.5967  219.7720 H   0  0  0  0  0  0  0  0  0  0  0  0
  142.3237   77.9618  220.5095 H   0  0  0  0  0  0  0  0  0  0  0  0
  140.6690   77.7382  219.8375 H   0  0  0  0  0  0  0  0  0  0  0  0
  144.4320   80.3411  223.3650 H   0  0  0  0  0  0  0  0  0  0  0  0
  1  2  2  0
  2  3  1  0
  3  4  2  0
  4  5  1  0
  5  6  1  0
  6  7  1  0
  7  8  1  0
  8  9  1  0
  9 10  2  0
 10 11  1  0
 11 12  1  0
 12 13  1  0
 13 14  1  0
 14 15  1  0
 15 16  1  0
 16 17  1  0
 11 18  2  0
 18 19  1  0
 19 20  1  0
 20 21  1  0
 21 22  1  0
 22 23  1  0
 23 24  2  0
 24 25  1  0
 25 26  2  0
 26 27  1  0
 27 28  2  0
 28 29  1  0
 19 30  2  0
  8 31  1  0
 31 32  1  0
  4 33  1  0
 33 34  2  0
 34  1  1  0
 32  5  1  0
 30  9  1  0
 17 12  1  0
 29 20  1  0
 28 23  1  0
  1 35  1  0
  2 36  1  0
  3 37  1  0
  6 38  1  0
  6 39  1  0
  7 40  1  0
  7 41  1  0
 13 42  1  0
 13 43  1  0
 14 44  1  0
 14 45  1  0
 16 46  1  0
 16 47  1  0
 17 48  1  0
 17 49  1  0
 21 50  1  0
 21 51  1  0
 22 52  1  0
 22 53  1  0
 24 54  1  0
 25 55  1  0
 26 56  1  0
 27 57  1  0
 29 58  1  0
 29 59  1  0
 31 60  1  0
 31 61  1  0
 32 62  1  0
 32 63  1  0
 34 64  1  0
M  END
>  <UniqueID>  (24) 
275

>  <SMILES>  (24) 
c1ccc(N2CCN(c3nc(N4CCOCC4)nc(N4CCc5ccccc5C4)n3)CC2)nc1

>  <Energy>  (24) 
78.71001359451697

>  <Genealogy>  (24) 
c1ccc(N2CCN(c3nc(N4CCOCC4)nc(N4CCc5ccccc5C4)n3)CC2)nc1 (3D coordinates assigned)
c1ccc(N2CCN(c3nc(N4CCOCC4)nc(N4CCc5ccccc5C4)n3)CC2)nc1 (nonaromatic ring conformer: 78.71001359451697 kcal/mol)

>  <smiles>  (24) 
c1ccc(N2CCN(c3nc(N4CCOCC4)nc(N4CCc5ccccc5C4)n3)CC2)nc1

>  <score_type>  (24) 
oracle

>  <origin>  (24) 
autodockgpu

>  <m_score__min__energy>  (24) 
-8.9399999999999995

>  <m_primary>  (24) 
energy

>  <meeko>  (24) 
{"free_energy": -8.6, "intermolecular_energy": -9.79, "internal_energy": -0.89, "cluster_size": 2, "cluster_id": 2, "rank_in_cluster": 2}

>  <energy>  (24) 
-8.93

>  <cluster_rmsd>  (24) 
0.07

>  <rmsd>  (24) 
270.55

>  <cluster>  (24) 
1

$$$$
XSFBOMDNDOCRMT-UHFFFAOYNA-N
     RDKit          3D

 64 69  0  0  0  0  0  0  0  0999 V2000
  137.1100   81.3530  224.6260 C   0  0  0  0  0  0  0  0  0  0  0  0
  136.1700   80.6520  223.8710 C   0  0  0  0  0  0  0  0  0  0  0  0
  136.5680   79.5520  223.1090 C   0  0  0  0  0  0  0  0  0  0  0  0
  137.9240   79.1580  223.0990 C   0  0  0  0  0  0  0  0  0  0  0  0
  138.3800   78.0130  222.3320 N   0  0  0  0  0  0  0  0  0  0  0  0
  137.5980   76.7610  222.3000 C   0  0  0  0  0  0  0  0  0  0  0  0
  138.2730   75.6660  221.4670 C   0  0  0  0  0  0  0  0  0  0  0  0
  139.7150   75.6070  221.7580 N   0  0  0  0  0  0  0  0  0  0  0  0
  140.4120   74.3480  221.8110 C   0  0  0  0  0  0  0  0  0  0  0  0
  141.4550   74.1090  220.9710 N   0  0  0  0  0  0  0  0  0  0  0  0
  142.1270   72.9310  221.0140 C   0  0  0  0  0  0  0  0  0  0  0  0
  143.2160   72.6840  220.1040 N   0  0  0  0  0  0  0  0  0  0  0  0
  143.8740   73.8240  219.4540 C   0  0  0  0  0  0  0  0  0  0  0  0
  144.8680   73.3350  218.4040 C   0  0  0  0  0  0  0  0  0  0  0  0
  145.7030   72.3570  218.9840 O   0  0  0  0  0  0  0  0  0  0  0  0
  144.9900   71.1480  219.2180 C   0  0  0  0  0  0  0  0  0  0  0  0
  143.5090   71.3150  219.6500 C   0  0  0  0  0  0  0  0  0  0  0  0
  141.7460   71.9800  221.9060 N   0  0  0  0  0  0  0  0  0  0  0  0
  140.7030   72.1970  222.7520 C   0  0  0  0  0  0  0  0  0  0  0  0
  140.3000   71.1700  223.6830 N   0  0  0  0  0  0  0  0  0  0  0  0
  139.0710   70.3930  223.4460 C   0  0  0  0  0  0  0  0  0  0  0  0
  139.2300   68.9590  223.9470 C   0  0  0  0  0  0  0  0  0  0  0  0
  139.6450   68.9640  225.3880 C   0  0  0  0  0  0  0  0  0  0  0  0
  139.2140   67.9480  226.2540 C   0  0  0  0  0  0  0  0  0  0  0  0
  139.6280   67.9380  227.5880 C   0  0  0  0  0  0  0  0  0  0  0  0
  140.4850   68.9330  228.0620 C   0  0  0  0  0  0  0  0  0  0  0  0
  140.9340   69.9380  227.2010 C   0  0  0  0  0  0  0  0  0  0  0  0
  140.5150   69.9620  225.8610 C   0  0  0  0  0  0  0  0  0  0  0  0
  141.0770   71.0070  224.9260 C   0  0  0  0  0  0  0  0  0  0  0  0
  140.0430   73.3840  222.6980 N   0  0  0  0  0  0  0  0  0  0  0  0
  140.4910   76.8520  221.8600 C   0  0  0  0  0  0  0  0  0  0  0  0
  139.6330   78.0800  221.5650 C   0  0  0  0  0  0  0  0  0  0  0  0
  138.8140   79.8730  223.8490 N   0  0  0  0  0  0  0  0  0  0  0  0
  138.4440   80.9430  224.6040 C   0  0  0  0  0  0  0  0  0  0  0  0
  136.8037   82.2187  225.2316 H   0  0  0  0  0  0  0  0  0  0  0  0
  135.1157   80.9656  223.8759 H   0  0  0  0  0  0  0  0  0  0  0  0
  135.8272   78.9936  222.5179 H   0  0  0  0  0  0  0  0  0  0  0  0
  137.4761   76.3953  223.3302 H   0  0  0  0  0  0  0  0  0  0  0  0
  136.6282   76.9857  221.8320 H   0  0  0  0  0  0  0  0  0  0  0  0
  137.8157   74.6950  221.7081 H   0  0  0  0  0  0  0  0  0  0  0  0
  138.1361   75.8973  220.4003 H   0  0  0  0  0  0  0  0  0  0  0  0
  143.1135   74.4531  218.9683 H   0  0  0  0  0  0  0  0  0  0  0  0
  144.4151   74.4057  220.2148 H   0  0  0  0  0  0  0  0  0  0  0  0
  144.3225   72.8979  217.5547 H   0  0  0  0  0  0  0  0  0  0  0  0
  145.4762   74.1787  218.0459 H   0  0  0  0  0  0  0  0  0  0  0  0
  145.0070   70.5599  218.2886 H   0  0  0  0  0  0  0  0  0  0  0  0
  145.4964   70.6592  220.0634 H   0  0  0  0  0  0  0  0  0  0  0  0
  142.8608   71.0790  218.7932 H   0  0  0  0  0  0  0  0  0  0  0  0
  143.3224   70.6317  220.4916 H   0  0  0  0  0  0  0  0  0  0  0  0
  138.2347   70.8701  223.9779 H   0  0  0  0  0  0  0  0  0  0  0  0
  138.8730   70.3683  222.3643 H   0  0  0  0  0  0  0  0  0  0  0  0
  138.2715   68.4290  223.8455 H   0  0  0  0  0  0  0  0  0  0  0  0
  140.0015   68.4507  223.3501 H   0  0  0  0  0  0  0  0  0  0  0  0
  138.5476   67.1563  225.8811 H   0  0  0  0  0  0  0  0  0  0  0  0
  139.2784   67.1453  228.2658 H   0  0  0  0  0  0  0  0  0  0  0  0
  140.8070   68.9259  229.1138 H   0  0  0  0  0  0  0  0  0  0  0  0
  141.6187   70.7137  227.5746 H   0  0  0  0  0  0  0  0  0  0  0  0
  141.0942   71.9720  225.4538 H   0  0  0  0  0  0  0  0  0  0  0  0
  142.0827   70.6700  224.6345 H   0  0  0  0  0  0  0  0  0  0  0  0
  140.8958   76.9369  222.8793 H   0  0  0  0  0  0  0  0  0  0  0  0
  141.2999   76.8129  221.1156 H   0  0  0  0  0  0  0  0  0  0  0  0
  140.1859   78.9876  221.8488 H   0  0  0  0  0  0  0  0  0  0  0  0
  139.3982   78.1073  220.4907 H   0  0  0  0  0  0  0  0  0  0  0  0
  139.1959   81.4846  225.1967 H   0  0  0  0  0  0  0  0  0  0  0  0
  1  2  2  0
  2  3  1  0
  3  4  2  0
  4  5  1  0
  5  6  1  0
  6  7  1  0
  7  8  1  0
  8  9  1  0
  9 10  2  0
 10 11  1  0
 11 12  1  0
 12 13  1  0
 13 14  1  0
 14 15  1  0
 15 16  1  0
 16 17  1  0
 11 18  2  0
 18 19  1  0
 19 20  1  0
 20 21  1  0
 21 22  1  0
 22 23  1  0
 23 24  2  0
 24 25  1  0
 25 26  2  0
 26 27  1  0
 27 28  2  0
 28 29  1  0
 19 30  2  0
  8 31  1  0
 31 32  1  0
  4 33  1  0
 33 34  2  0
 34  1  1  0
 32  5  1  0
 30  9  1  0
 17 12  1  0
 29 20  1  0
 28 23  1  0
  1 35  1  0
  2 36  1  0
  3 37  1  0
  6 38  1  0
  6 39  1  0
  7 40  1  0
  7 41  1  0
 13 42  1  0
 13 43  1  0
 14 44  1  0
 14 45  1  0
 16 46  1  0
 16 47  1  0
 17 48  1  0
 17 49  1  0
 21 50  1  0
 21 51  1  0
 22 52  1  0
 22 53  1  0
 24 54  1  0
 25 55  1  0
 26 56  1  0
 27 57  1  0
 29 58  1  0
 29 59  1  0
 31 60  1  0
 31 61  1  0
 32 62  1  0
 32 63  1  0
 34 64  1  0
M  END
>  <UniqueID>  (25) 
275

>  <SMILES>  (25) 
c1ccc(N2CCN(c3nc(N4CCOCC4)nc(N4CCc5ccccc5C4)n3)CC2)nc1

>  <Energy>  (25) 
78.71001359451697

>  <Genealogy>  (25) 
c1ccc(N2CCN(c3nc(N4CCOCC4)nc(N4CCc5ccccc5C4)n3)CC2)nc1 (3D coordinates assigned)
c1ccc(N2CCN(c3nc(N4CCOCC4)nc(N4CCc5ccccc5C4)n3)CC2)nc1 (nonaromatic ring conformer: 78.71001359451697 kcal/mol)

>  <smiles>  (25) 
c1ccc(N2CCN(c3nc(N4CCOCC4)nc(N4CCc5ccccc5C4)n3)CC2)nc1

>  <score_type>  (25) 
oracle

>  <origin>  (25) 
autodockgpu

>  <m_score__min__energy>  (25) 
-8.9399999999999995

>  <m_primary>  (25) 
energy

>  <meeko>  (25) 
{"free_energy": -8.86, "intermolecular_energy": -10.05, "internal_energy": -0.9, "cluster_size": 18, "cluster_id": 1, "rank_in_cluster": 16}

>  <energy>  (25) 
-8.92

>  <cluster_rmsd>  (25) 
0.04

>  <rmsd>  (25) 
270.55

>  <cluster>  (25) 
1

$$$$
XSFBOMDNDOCRMT-UHFFFAOYNA-N
     RDKit          3D

 64 69  0  0  0  0  0  0  0  0999 V2000
  136.9570   81.3650  224.6490 C   0  0  0  0  0  0  0  0  0  0  0  0
  138.3290   81.1180  224.6010 C   0  0  0  0  0  0  0  0  0  0  0  0
  138.8170   80.0330  223.8700 C   0  0  0  0  0  0  0  0  0  0  0  0
  137.9180   79.1860  223.1860 C   0  0  0  0  0  0  0  0  0  0  0  0
  138.3820   78.0550  222.4030 N   0  0  0  0  0  0  0  0  0  0  0  0
  137.5930   76.8090  222.3280 C   0  0  0  0  0  0  0  0  0  0  0  0
  138.2780   75.7290  221.4830 C   0  0  0  0  0  0  0  0  0  0  0  0
  139.7130   75.6540  221.8010 N   0  0  0  0  0  0  0  0  0  0  0  0
  140.4020   74.3900  221.8390 C   0  0  0  0  0  0  0  0  0  0  0  0
  141.4380   74.1510  220.9910 N   0  0  0  0  0  0  0  0  0  0  0  0
  142.1020   72.9680  221.0200 C   0  0  0  0  0  0  0  0  0  0  0  0
  143.1850   72.7210  220.1010 N   0  0  0  0  0  0  0  0  0  0  0  0
  143.8410   73.8620  219.4520 C   0  0  0  0  0  0  0  0  0  0  0  0
  144.8270   73.3740  218.3930 C   0  0  0  0  0  0  0  0  0  0  0  0
  145.6630   72.3920  218.9630 O   0  0  0  0  0  0  0  0  0  0  0  0
  144.9490   71.1840  219.1980 C   0  0  0  0  0  0  0  0  0  0  0  0
  143.4710   71.3530  219.6410 C   0  0  0  0  0  0  0  0  0  0  0  0
  141.7210   72.0120  221.9070 N   0  0  0  0  0  0  0  0  0  0  0  0
  140.6840   72.2290  222.7600 C   0  0  0  0  0  0  0  0  0  0  0  0
  140.2800   71.1970  223.6850 N   0  0  0  0  0  0  0  0  0  0  0  0
  139.0520   70.4200  223.4400 C   0  0  0  0  0  0  0  0  0  0  0  0
  139.2110   68.9840  223.9350 C   0  0  0  0  0  0  0  0  0  0  0  0
  139.6210   68.9820  225.3770 C   0  0  0  0  0  0  0  0  0  0  0  0
  139.1890   67.9610  226.2370 C   0  0  0  0  0  0  0  0  0  0  0  0
  139.5990   67.9450  227.5720 C   0  0  0  0  0  0  0  0  0  0  0  0
  140.4540   68.9380  228.0530 C   0  0  0  0  0  0  0  0  0  0  0  0
  140.9040   69.9480  227.1990 C   0  0  0  0  0  0  0  0  0  0  0  0
  140.4890   69.9790  225.8580 C   0  0  0  0  0  0  0  0  0  0  0  0
  141.0530   71.0290  224.9290 C   0  0  0  0  0  0  0  0  0  0  0  0
  140.0320   73.4210  222.7200 N   0  0  0  0  0  0  0  0  0  0  0  0
  140.4950   76.8920  221.9450 C   0  0  0  0  0  0  0  0  0  0  0  0
  139.6490   78.1310  221.6610 C   0  0  0  0  0  0  0  0  0  0  0  0
  136.5820   79.4590  223.2610 N   0  0  0  0  0  0  0  0  0  0  0  0
  136.0880   80.5150  223.9630 C   0  0  0  0  0  0  0  0  0  0  0  0
  136.5647   82.2191  225.2205 H   0  0  0  0  0  0  0  0  0  0  0  0
  139.0261   81.7775  225.1387 H   0  0  0  0  0  0  0  0  0  0  0  0
  139.8989   79.8387  223.8271 H   0  0  0  0  0  0  0  0  0  0  0  0
  137.4493   76.4208  223.3472 H   0  0  0  0  0  0  0  0  0  0  0  0
  136.6334   77.0501  221.8473 H   0  0  0  0  0  0  0  0  0  0  0  0
  137.8102   74.7557  221.6922 H   0  0  0  0  0  0  0  0  0  0  0  0
  138.1638   75.9858  220.4195 H   0  0  0  0  0  0  0  0  0  0  0  0
  143.0789   74.4951  218.9740 H   0  0  0  0  0  0  0  0  0  0  0  0
  144.3883   74.4397  220.2115 H   0  0  0  0  0  0  0  0  0  0  0  0
  144.2745   72.9416  217.5458 H   0  0  0  0  0  0  0  0  0  0  0  0
  145.4351   74.2175  218.0342 H   0  0  0  0  0  0  0  0  0  0  0  0
  144.9582   70.5989  218.2665 H   0  0  0  0  0  0  0  0  0  0  0  0
  145.4602   70.6913  220.0382 H   0  0  0  0  0  0  0  0  0  0  0  0
  142.8162   71.1212  218.7881 H   0  0  0  0  0  0  0  0  0  0  0  0
  143.2884   70.6674  220.4816 H   0  0  0  0  0  0  0  0  0  0  0  0
  138.2134   70.8938  223.9713 H   0  0  0  0  0  0  0  0  0  0  0  0
  138.8573   70.4003  222.3575 H   0  0  0  0  0  0  0  0  0  0  0  0
  138.2534   68.4534  223.8277 H   0  0  0  0  0  0  0  0  0  0  0  0
  139.9854   68.4797  223.3384 H   0  0  0  0  0  0  0  0  0  0  0  0
  138.5248   67.1701  225.8583 H   0  0  0  0  0  0  0  0  0  0  0  0
  139.2478   67.1490  228.2451 H   0  0  0  0  0  0  0  0  0  0  0  0
  140.7738   68.9253  229.1054 H   0  0  0  0  0  0  0  0  0  0  0  0
  141.5866   70.7225  227.5789 H   0  0  0  0  0  0  0  0  0  0  0  0
  141.0679   71.9916  225.4612 H   0  0  0  0  0  0  0  0  0  0  0  0
  142.0598   70.6940  224.6389 H   0  0  0  0  0  0  0  0  0  0  0  0
  140.8811   76.9521  222.9733 H   0  0  0  0  0  0  0  0  0  0  0  0
  141.3180   76.8644  221.2157 H   0  0  0  0  0  0  0  0  0  0  0  0
  140.2015   79.0291  221.9743 H   0  0  0  0  0  0  0  0  0  0  0  0
  139.4341   78.1825  220.5834 H   0  0  0  0  0  0  0  0  0  0  0  0
  135.0038   80.6987  223.9898 H   0  0  0  0  0  0  0  0  0  0  0  0
  1  2  2  0
  2  3  1  0
  3  4  2  0
  4  5  1  0
  5  6  1  0
  6  7  1  0
  7  8  1  0
  8  9  1  0
  9 10  2  0
 10 11  1  0
 11 12  1  0
 12 13  1  0
 13 14  1  0
 14 15  1  0
 15 16  1  0
 16 17  1  0
 11 18  2  0
 18 19  1  0
 19 20  1  0
 20 21  1  0
 21 22  1  0
 22 23  1  0
 23 24  2  0
 24 25  1  0
 25 26  2  0
 26 27  1  0
 27 28  2  0
 28 29  1  0
 19 30  2  0
  8 31  1  0
 31 32  1  0
  4 33  1  0
 33 34  2  0
 34  1  1  0
 32  5  1  0
 30  9  1  0
 17 12  1  0
 29 20  1  0
 28 23  1  0
  1 35  1  0
  2 36  1  0
  3 37  1  0
  6 38  1  0
  6 39  1  0
  7 40  1  0
  7 41  1  0
 13 42  1  0
 13 43  1  0
 14 44  1  0
 14 45  1  0
 16 46  1  0
 16 47  1  0
 17 48  1  0
 17 49  1  0
 21 50  1  0
 21 51  1  0
 22 52  1  0
 22 53  1  0
 24 54  1  0
 25 55  1  0
 26 56  1  0
 27 57  1  0
 29 58  1  0
 29 59  1  0
 31 60  1  0
 31 61  1  0
 32 62  1  0
 32 63  1  0
 34 64  1  0
M  END
>  <UniqueID>  (26) 
275

>  <SMILES>  (26) 
c1ccc(N2CCN(c3nc(N4CCOCC4)nc(N4CCc5ccccc5C4)n3)CC2)nc1

>  <Energy>  (26) 
78.71001359451697

>  <Genealogy>  (26) 
c1ccc(N2CCN(c3nc(N4CCOCC4)nc(N4CCc5ccccc5C4)n3)CC2)nc1 (3D coordinates assigned)
c1ccc(N2CCN(c3nc(N4CCOCC4)nc(N4CCc5ccccc5C4)n3)CC2)nc1 (nonaromatic ring conformer: 78.71001359451697 kcal/mol)

>  <smiles>  (26) 
c1ccc(N2CCN(c3nc(N4CCOCC4)nc(N4CCc5ccccc5C4)n3)CC2)nc1

>  <score_type>  (26) 
oracle

>  <origin>  (26) 
autodockgpu

>  <m_score__min__energy>  (26) 
-8.9399999999999995

>  <m_primary>  (26) 
energy

>  <meeko>  (26) 
{"free_energy": -8.92, "intermolecular_energy": -10.12, "internal_energy": -0.89, "cluster_size": 18, "cluster_id": 1, "rank_in_cluster": 7}

>  <energy>  (26) 
-8.92

>  <cluster_rmsd>  (26) 
0.05

>  <rmsd>  (26) 
270.56

>  <cluster>  (26) 
1

$$$$
XSFBOMDNDOCRMT-UHFFFAOYNA-N
     RDKit          3D

 64 69  0  0  0  0  0  0  0  0999 V2000
  136.9990   81.3540  224.5840 C   0  0  0  0  0  0  0  0  0  0  0  0
  138.3650   81.0710  224.5790 C   0  0  0  0  0  0  0  0  0  0  0  0
  138.8480   79.9810  223.8540 C   0  0  0  0  0  0  0  0  0  0  0  0
  137.9500   79.1640  223.1330 C   0  0  0  0  0  0  0  0  0  0  0  0
  138.4110   78.0280  222.3540 N   0  0  0  0  0  0  0  0  0  0  0  0
  137.6200   76.7820  222.2890 C   0  0  0  0  0  0  0  0  0  0  0  0
  138.3010   75.6960  221.4480 C   0  0  0  0  0  0  0  0  0  0  0  0
  139.7380   75.6220  221.7620 N   0  0  0  0  0  0  0  0  0  0  0  0
  140.4250   74.3570  221.8060 C   0  0  0  0  0  0  0  0  0  0  0  0
  141.4580   74.1120  220.9560 N   0  0  0  0  0  0  0  0  0  0  0  0
  142.1210   72.9280  220.9890 C   0  0  0  0  0  0  0  0  0  0  0  0
  143.2010   72.6750  220.0690 N   0  0  0  0  0  0  0  0  0  0  0  0
  143.8950   73.8140  219.4550 C   0  0  0  0  0  0  0  0  0  0  0  0
  144.8710   73.3260  218.3880 C   0  0  0  0  0  0  0  0  0  0  0  0
  145.6740   72.3030  218.9330 O   0  0  0  0  0  0  0  0  0  0  0  0
  144.9220   71.1110  219.1310 C   0  0  0  0  0  0  0  0  0  0  0  0
  143.4480   71.3120  219.5720 C   0  0  0  0  0  0  0  0  0  0  0  0
  141.7410   71.9770  221.8830 N   0  0  0  0  0  0  0  0  0  0  0  0
  140.7070   72.2000  222.7380 C   0  0  0  0  0  0  0  0  0  0  0  0
  140.3040   71.1740  223.6690 N   0  0  0  0  0  0  0  0  0  0  0  0
  139.0840   70.3860  223.4240 C   0  0  0  0  0  0  0  0  0  0  0  0
  139.2500   68.9550  223.9330 C   0  0  0  0  0  0  0  0  0  0  0  0
  139.6500   68.9700  225.3780 C   0  0  0  0  0  0  0  0  0  0  0  0
  139.2200   67.9540  226.2440 C   0  0  0  0  0  0  0  0  0  0  0  0
  139.6210   67.9540  227.5820 C   0  0  0  0  0  0  0  0  0  0  0  0
  140.4640   68.9590  228.0600 C   0  0  0  0  0  0  0  0  0  0  0  0
  140.9130   69.9630  227.1990 C   0  0  0  0  0  0  0  0  0  0  0  0
  140.5070   69.9790  225.8550 C   0  0  0  0  0  0  0  0  0  0  0  0
  141.0690   71.0240  224.9200 C   0  0  0  0  0  0  0  0  0  0  0  0
  140.0560   73.3940  222.6930 N   0  0  0  0  0  0  0  0  0  0  0  0
  140.5210   76.8590  221.8970 C   0  0  0  0  0  0  0  0  0  0  0  0
  139.6760   78.0980  221.6080 C   0  0  0  0  0  0  0  0  0  0  0  0
  136.6200   79.4710  223.1660 N   0  0  0  0  0  0  0  0  0  0  0  0
  136.1310   80.5330  223.8610 C   0  0  0  0  0  0  0  0  0  0  0  0
  136.6104   82.2132  225.1504 H   0  0  0  0  0  0  0  0  0  0  0  0
  139.0609   81.7067  225.1462 H   0  0  0  0  0  0  0  0  0  0  0  0
  139.9253   79.7588  223.8442 H   0  0  0  0  0  0  0  0  0  0  0  0
  137.4793   76.4000  223.3109 H   0  0  0  0  0  0  0  0  0  0  0  0
  136.6591   77.0214  221.8101 H   0  0  0  0  0  0  0  0  0  0  0  0
  137.8331   74.7244  221.6648 H   0  0  0  0  0  0  0  0  0  0  0  0
  138.1831   75.9460  220.3833 H   0  0  0  0  0  0  0  0  0  0  0  0
  143.1550   74.4829  218.9914 H   0  0  0  0  0  0  0  0  0  0  0  0
  144.4552   74.3537  220.2328 H   0  0  0  0  0  0  0  0  0  0  0  0
  144.3100   72.9349  217.5264 H   0  0  0  0  0  0  0  0  0  0  0  0
  145.5067   74.1603  218.0566 H   0  0  0  0  0  0  0  0  0  0  0  0
  144.9183   70.5522  218.1835 H   0  0  0  0  0  0  0  0  0  0  0  0
  145.4136   70.5800  219.9595 H   0  0  0  0  0  0  0  0  0  0  0  0
  142.7909   71.1240  218.7101 H   0  0  0  0  0  0  0  0  0  0  0  0
  143.2404   70.6090  220.3922 H   0  0  0  0  0  0  0  0  0  0  0  0
  138.2388   70.8585  223.9459 H   0  0  0  0  0  0  0  0  0  0  0  0
  138.8964   70.3549  222.3405 H   0  0  0  0  0  0  0  0  0  0  0  0
  138.2971   68.4164  223.8240 H   0  0  0  0  0  0  0  0  0  0  0  0
  140.0318   68.4505  223.3462 H   0  0  0  0  0  0  0  0  0  0  0  0
  138.5647   67.1544  225.8682 H   0  0  0  0  0  0  0  0  0  0  0  0
  139.2721   67.1611  228.2600 H   0  0  0  0  0  0  0  0  0  0  0  0
  140.7748   68.9601  229.1152 H   0  0  0  0  0  0  0  0  0  0  0  0
  141.5882   70.7453  227.5759 H   0  0  0  0  0  0  0  0  0  0  0  0
  141.0725   71.9918  225.4429 H   0  0  0  0  0  0  0  0  0  0  0  0
  142.0803   70.6939  224.6403 H   0  0  0  0  0  0  0  0  0  0  0  0
  140.9096   76.9244  222.9240 H   0  0  0  0  0  0  0  0  0  0  0  0
  141.3420   76.8262  221.1656 H   0  0  0  0  0  0  0  0  0  0  0  0
  140.2307   78.9971  221.9147 H   0  0  0  0  0  0  0  0  0  0  0  0
  139.4583   78.1438  220.5307 H   0  0  0  0  0  0  0  0  0  0  0  0
  135.0517   80.7452  223.8536 H   0  0  0  0  0  0  0  0  0  0  0  0
  1  2  2  0
  2  3  1  0
  3  4  2  0
  4  5  1  0
  5  6  1  0
  6  7  1  0
  7  8  1  0
  8  9  1  0
  9 10  2  0
 10 11  1  0
 11 12  1  0
 12 13  1  0
 13 14  1  0
 14 15  1  0
 15 16  1  0
 16 17  1  0
 11 18  2  0
 18 19  1  0
 19 20  1  0
 20 21  1  0
 21 22  1  0
 22 23  1  0
 23 24  2  0
 24 25  1  0
 25 26  2  0
 26 27  1  0
 27 28  2  0
 28 29  1  0
 19 30  2  0
  8 31  1  0
 31 32  1  0
  4 33  1  0
 33 34  2  0
 34  1  1  0
 32  5  1  0
 30  9  1  0
 17 12  1  0
 29 20  1  0
 28 23  1  0
  1 35  1  0
  2 36  1  0
  3 37  1  0
  6 38  1  0
  6 39  1  0
  7 40  1  0
  7 41  1  0
 13 42  1  0
 13 43  1  0
 14 44  1  0
 14 45  1  0
 16 46  1  0
 16 47  1  0
 17 48  1  0
 17 49  1  0
 21 50  1  0
 21 51  1  0
 22 52  1  0
 22 53  1  0
 24 54  1  0
 25 55  1  0
 26 56  1  0
 27 57  1  0
 29 58  1  0
 29 59  1  0
 31 60  1  0
 31 61  1  0
 32 62  1  0
 32 63  1  0
 34 64  1  0
M  END
>  <UniqueID>  (27) 
275

>  <SMILES>  (27) 
c1ccc(N2CCN(c3nc(N4CCOCC4)nc(N4CCc5ccccc5C4)n3)CC2)nc1

>  <Energy>  (27) 
78.71001359451697

>  <Genealogy>  (27) 
c1ccc(N2CCN(c3nc(N4CCOCC4)nc(N4CCc5ccccc5C4)n3)CC2)nc1 (3D coordinates assigned)
c1ccc(N2CCN(c3nc(N4CCOCC4)nc(N4CCc5ccccc5C4)n3)CC2)nc1 (nonaromatic ring conformer: 78.71001359451697 kcal/mol)

>  <smiles>  (27) 
c1ccc(N2CCN(c3nc(N4CCOCC4)nc(N4CCc5ccccc5C4)n3)CC2)nc1

>  <score_type>  (27) 
oracle

>  <origin>  (27) 
autodockgpu

>  <m_score__min__energy>  (27) 
-8.9399999999999995

>  <m_primary>  (27) 
energy

>  <meeko>  (27) 
{"free_energy": -8.92, "intermolecular_energy": -10.12, "internal_energy": -0.89, "cluster_size": 18, "cluster_id": 1, "rank_in_cluster": 5}

>  <energy>  (27) 
-8.92

>  <cluster_rmsd>  (27) 
0.04

>  <rmsd>  (27) 
270.57

>  <cluster>  (27) 
1

$$$$
XSFBOMDNDOCRMT-UHFFFAOYNA-N
     RDKit          3D

 64 69  0  0  0  0  0  0  0  0999 V2000
  136.9910   81.3200  224.5660 C   0  0  0  0  0  0  0  0  0  0  0  0
  138.3540   81.0230  224.5870 C   0  0  0  0  0  0  0  0  0  0  0  0
  138.8420   79.9380  223.8570 C   0  0  0  0  0  0  0  0  0  0  0  0
  137.9520   79.1400  223.1050 C   0  0  0  0  0  0  0  0  0  0  0  0
  138.4190   78.0120  222.3200 N   0  0  0  0  0  0  0  0  0  0  0  0
  137.6180   76.7740  222.2190 C   0  0  0  0  0  0  0  0  0  0  0  0
  138.3070   75.6940  221.3780 C   0  0  0  0  0  0  0  0  0  0  0  0
  139.7350   75.6010  221.7230 N   0  0  0  0  0  0  0  0  0  0  0  0
  140.4090   74.3290  221.7620 C   0  0  0  0  0  0  0  0  0  0  0  0
  141.4290   74.0690  220.9010 N   0  0  0  0  0  0  0  0  0  0  0  0
  142.0790   72.8780  220.9310 C   0  0  0  0  0  0  0  0  0  0  0  0
  143.1450   72.6090  219.9990 N   0  0  0  0  0  0  0  0  0  0  0  0
  143.5610   73.6670  219.0700 C   0  0  0  0  0  0  0  0  0  0  0  0
  144.5670   73.1190  218.0610 C   0  0  0  0  0  0  0  0  0  0  0  0
  145.5870   72.4350  218.7540 O   0  0  0  0  0  0  0  0  0  0  0  0
  145.1050   71.2110  219.2980 C   0  0  0  0  0  0  0  0  0  0  0  0
  143.6420   71.2360  219.8170 C   0  0  0  0  0  0  0  0  0  0  0  0
  141.6990   71.9350  221.8330 N   0  0  0  0  0  0  0  0  0  0  0  0
  140.6790   72.1730  222.7000 C   0  0  0  0  0  0  0  0  0  0  0  0
  140.2760   71.1550  223.6410 N   0  0  0  0  0  0  0  0  0  0  0  0
  139.0670   70.3500  223.3920 C   0  0  0  0  0  0  0  0  0  0  0  0
  139.2430   68.9280  223.9220 C   0  0  0  0  0  0  0  0  0  0  0  0
  139.6260   68.9670  225.3710 C   0  0  0  0  0  0  0  0  0  0  0  0
  139.1970   67.9580  226.2460 C   0  0  0  0  0  0  0  0  0  0  0  0
  139.5820   67.9800  227.5890 C   0  0  0  0  0  0  0  0  0  0  0  0
  140.4100   69.0000  228.0620 C   0  0  0  0  0  0  0  0  0  0  0  0
  140.8570   69.9980  227.1930 C   0  0  0  0  0  0  0  0  0  0  0  0
  140.4670   69.9910  225.8440 C   0  0  0  0  0  0  0  0  0  0  0  0
  141.0280   71.0300  224.9020 C   0  0  0  0  0  0  0  0  0  0  0  0
  140.0400   73.3730  222.6580 N   0  0  0  0  0  0  0  0  0  0  0  0
  140.5270   76.8280  221.8920 C   0  0  0  0  0  0  0  0  0  0  0  0
  139.7010   78.0790  221.6030 C   0  0  0  0  0  0  0  0  0  0  0  0
  136.6250   79.4610  223.1130 N   0  0  0  0  0  0  0  0  0  0  0  0
  136.1310   80.5180  223.8130 C   0  0  0  0  0  0  0  0  0  0  0  0
  136.5987   82.1754  225.1356 H   0  0  0  0  0  0  0  0  0  0  0  0
  139.0435   81.6434  225.1784 H   0  0  0  0  0  0  0  0  0  0  0  0
  139.9170   79.7051  223.8674 H   0  0  0  0  0  0  0  0  0  0  0  0
  137.4509   76.3788  223.2318 H   0  0  0  0  0  0  0  0  0  0  0  0
  136.6705   77.0295  221.7221 H   0  0  0  0  0  0  0  0  0  0  0  0
  137.8249   74.7241  221.5699 H   0  0  0  0  0  0  0  0  0  0  0  0
  138.2158   75.9607  220.3147 H   0  0  0  0  0  0  0  0  0  0  0  0
  142.6789   74.0467  218.5336 H   0  0  0  0  0  0  0  0  0  0  0  0
  144.0330   74.4801  219.6411 H   0  0  0  0  0  0  0  0  0  0  0  0
  144.0596   72.4261  217.3737 H   0  0  0  0  0  0  0  0  0  0  0  0
  145.0020   73.9476  217.4828 H   0  0  0  0  0  0  0  0  0  0  0  0
  145.1725   70.4426  218.5138 H   0  0  0  0  0  0  0  0  0  0  0  0
  145.7323   71.0058  220.1780 H   0  0  0  0  0  0  0  0  0  0  0  0
  142.9984   70.7188  219.0901 H   0  0  0  0  0  0  0  0  0  0  0  0
  143.6201   70.7342  220.7956 H   0  0  0  0  0  0  0  0  0  0  0  0
  138.2105   70.8198  223.8976 H   0  0  0  0  0  0  0  0  0  0  0  0
  138.8924   70.3026  222.3070 H   0  0  0  0  0  0  0  0  0  0  0  0
  138.2975   68.3772  223.8094 H   0  0  0  0  0  0  0  0  0  0  0  0
  140.0370   68.4245  223.3510 H   0  0  0  0  0  0  0  0  0  0  0  0
  138.5550   67.1462  225.8734 H   0  0  0  0  0  0  0  0  0  0  0  0
  139.2326   67.1934  228.2740 H   0  0  0  0  0  0  0  0  0  0  0  0
  140.7106   69.0176  229.1200 H   0  0  0  0  0  0  0  0  0  0  0  0
  141.5180   70.7936  227.5673 H   0  0  0  0  0  0  0  0  0  0  0  0
  141.0146   72.0044  225.4122 H   0  0  0  0  0  0  0  0  0  0  0  0
  142.0461   70.7079  224.6381 H   0  0  0  0  0  0  0  0  0  0  0  0
  140.8944   76.8751  222.9278 H   0  0  0  0  0  0  0  0  0  0  0  0
  141.3629   76.7971  221.1776 H   0  0  0  0  0  0  0  0  0  0  0  0
  140.2578   78.9678  221.9346 H   0  0  0  0  0  0  0  0  0  0  0  0
  139.5072   78.1420  220.5220 H   0  0  0  0  0  0  0  0  0  0  0  0
  135.0541   80.7407  223.7857 H   0  0  0  0  0  0  0  0  0  0  0  0
  1  2  2  0
  2  3  1  0
  3  4  2  0
  4  5  1  0
  5  6  1  0
  6  7  1  0
  7  8  1  0
  8  9  1  0
  9 10  2  0
 10 11  1  0
 11 12  1  0
 12 13  1  0
 13 14  1  0
 14 15  1  0
 15 16  1  0
 16 17  1  0
 11 18  2  0
 18 19  1  0
 19 20  1  0
 20 21  1  0
 21 22  1  0
 22 23  1  0
 23 24  2  0
 24 25  1  0
 25 26  2  0
 26 27  1  0
 27 28  2  0
 28 29  1  0
 19 30  2  0
  8 31  1  0
 31 32  1  0
  4 33  1  0
 33 34  2  0
 34  1  1  0
 32  5  1  0
 30  9  1  0
 17 12  1  0
 29 20  1  0
 28 23  1  0
  1 35  1  0
  2 36  1  0
  3 37  1  0
  6 38  1  0
  6 39  1  0
  7 40  1  0
  7 41  1  0
 13 42  1  0
 13 43  1  0
 14 44  1  0
 14 45  1  0
 16 46  1  0
 16 47  1  0
 17 48  1  0
 17 49  1  0
 21 50  1  0
 21 51  1  0
 22 52  1  0
 22 53  1  0
 24 54  1  0
 25 55  1  0
 26 56  1  0
 27 57  1  0
 29 58  1  0
 29 59  1  0
 31 60  1  0
 31 61  1  0
 32 62  1  0
 32 63  1  0
 34 64  1  0
M  END
>  <UniqueID>  (28) 
275

>  <SMILES>  (28) 
c1ccc(N2CCN(c3nc(N4CCOCC4)nc(N4CCc5ccccc5C4)n3)CC2)nc1

>  <Energy>  (28) 
78.71001359451697

>  <Genealogy>  (28) 
c1ccc(N2CCN(c3nc(N4CCOCC4)nc(N4CCc5ccccc5C4)n3)CC2)nc1 (3D coordinates assigned)
c1ccc(N2CCN(c3nc(N4CCOCC4)nc(N4CCc5ccccc5C4)n3)CC2)nc1 (nonaromatic ring conformer: 78.71001359451697 kcal/mol)

>  <smiles>  (28) 
c1ccc(N2CCN(c3nc(N4CCOCC4)nc(N4CCc5ccccc5C4)n3)CC2)nc1

>  <score_type>  (28) 
oracle

>  <origin>  (28) 
autodockgpu

>  <m_score__min__energy>  (28) 
-8.9399999999999995

>  <m_primary>  (28) 
energy

>  <meeko>  (28) 
{"free_energy": -8.86, "intermolecular_energy": -10.05, "internal_energy": -0.89, "cluster_size": 18, "cluster_id": 1, "rank_in_cluster": 15}

>  <energy>  (28) 
-8.92

>  <cluster_rmsd>  (28) 
0.05

>  <rmsd>  (28) 
270.55

>  <cluster>  (28) 
1

$$$$
XSFBOMDNDOCRMT-UHFFFAOYNA-N
     RDKit          3D

 64 69  0  0  0  0  0  0  0  0999 V2000
  137.0060   81.3630  224.6200 C   0  0  0  0  0  0  0  0  0  0  0  0
  138.3740   81.0950  224.5790 C   0  0  0  0  0  0  0  0  0  0  0  0
  138.8480   80.0010  223.8530 C   0  0  0  0  0  0  0  0  0  0  0  0
  137.9390   79.1650  223.1690 C   0  0  0  0  0  0  0  0  0  0  0  0
  138.3880   78.0240  222.3910 N   0  0  0  0  0  0  0  0  0  0  0  0
  137.6000   76.7760  222.3470 C   0  0  0  0  0  0  0  0  0  0  0  0
  138.2690   75.6860  221.5030 C   0  0  0  0  0  0  0  0  0  0  0  0
  139.7110   75.6170  221.7940 N   0  0  0  0  0  0  0  0  0  0  0  0
  140.4020   74.3540  221.8350 C   0  0  0  0  0  0  0  0  0  0  0  0
  141.4390   74.1150  220.9880 N   0  0  0  0  0  0  0  0  0  0  0  0
  142.1050   72.9330  221.0190 C   0  0  0  0  0  0  0  0  0  0  0  0
  143.1890   72.6870  220.1020 N   0  0  0  0  0  0  0  0  0  0  0  0
  143.8830   73.8300  219.4970 C   0  0  0  0  0  0  0  0  0  0  0  0
  144.8640   73.3490  218.4310 C   0  0  0  0  0  0  0  0  0  0  0  0
  145.6670   72.3250  218.9740 O   0  0  0  0  0  0  0  0  0  0  0  0
  144.9170   71.1300  219.1630 C   0  0  0  0  0  0  0  0  0  0  0  0
  143.4400   71.3270  219.5990 C   0  0  0  0  0  0  0  0  0  0  0  0
  141.7240   71.9780  221.9070 N   0  0  0  0  0  0  0  0  0  0  0  0
  140.6860   72.1950  222.7600 C   0  0  0  0  0  0  0  0  0  0  0  0
  140.2830   71.1640  223.6860 N   0  0  0  0  0  0  0  0  0  0  0  0
  139.0590   70.3820  223.4390 C   0  0  0  0  0  0  0  0  0  0  0  0
  139.2210   68.9470  223.9390 C   0  0  0  0  0  0  0  0  0  0  0  0
  139.6270   68.9510  225.3810 C   0  0  0  0  0  0  0  0  0  0  0  0
  139.1960   67.9300  226.2430 C   0  0  0  0  0  0  0  0  0  0  0  0
  139.6020   67.9200  227.5790 C   0  0  0  0  0  0  0  0  0  0  0  0
  140.4510   68.9170  228.0600 C   0  0  0  0  0  0  0  0  0  0  0  0
  140.9010   69.9260  227.2050 C   0  0  0  0  0  0  0  0  0  0  0  0
  140.4900   69.9520  225.8620 C   0  0  0  0  0  0  0  0  0  0  0  0
  141.0520   71.0010  224.9330 C   0  0  0  0  0  0  0  0  0  0  0  0
  140.0320   73.3860  222.7170 N   0  0  0  0  0  0  0  0  0  0  0  0
  140.4930   76.8570  221.9070 C   0  0  0  0  0  0  0  0  0  0  0  0
  139.6410   78.0920  221.6230 C   0  0  0  0  0  0  0  0  0  0  0  0
  136.6070   79.4580  223.2370 N   0  0  0  0  0  0  0  0  0  0  0  0
  136.1260   80.5240  223.9340 C   0  0  0  0  0  0  0  0  0  0  0  0
  136.6248   82.2255  225.1863 H   0  0  0  0  0  0  0  0  0  0  0  0
  139.0788   81.7450  225.1182 H   0  0  0  0  0  0  0  0  0  0  0  0
  139.9270   79.7908  223.8140 H   0  0  0  0  0  0  0  0  0  0  0  0
  137.4769   76.4007  223.3737 H   0  0  0  0  0  0  0  0  0  0  0  0
  136.6312   77.0100  221.8816 H   0  0  0  0  0  0  0  0  0  0  0  0
  137.8067   74.7150  221.7342 H   0  0  0  0  0  0  0  0  0  0  0  0
  138.1332   75.9283  220.4386 H   0  0  0  0  0  0  0  0  0  0  0  0
  143.1436   74.5001  219.0341 H   0  0  0  0  0  0  0  0  0  0  0  0
  144.4392   74.3667  220.2797 H   0  0  0  0  0  0  0  0  0  0  0  0
  144.3069   72.9609  217.5655 H   0  0  0  0  0  0  0  0  0  0  0  0
  145.4992   74.1862  218.1059 H   0  0  0  0  0  0  0  0  0  0  0  0
  144.9184   70.5757  218.2128 H   0  0  0  0  0  0  0  0  0  0  0  0
  145.4063   70.5953  219.9904 H   0  0  0  0  0  0  0  0  0  0  0  0
  142.7868   71.1426  218.7333 H   0  0  0  0  0  0  0  0  0  0  0  0
  143.2299   70.6195  220.4147 H   0  0  0  0  0  0  0  0  0  0  0  0
  138.2169   70.8545  223.9659 H   0  0  0  0  0  0  0  0  0  0  0  0
  138.8686   70.3583  222.3559 H   0  0  0  0  0  0  0  0  0  0  0  0
  138.2653   68.4133  223.8309 H   0  0  0  0  0  0  0  0  0  0  0  0
  139.9982   68.4429  223.3459 H   0  0  0  0  0  0  0  0  0  0  0  0
  138.5363   67.1353  225.8646 H   0  0  0  0  0  0  0  0  0  0  0  0
  139.2518   67.1246  228.2533 H   0  0  0  0  0  0  0  0  0  0  0  0
  140.7665   68.9086  229.1138 H   0  0  0  0  0  0  0  0  0  0  0  0
  141.5801   70.7034  227.5851 H   0  0  0  0  0  0  0  0  0  0  0  0
  141.0615   71.9647  225.4632 H   0  0  0  0  0  0  0  0  0  0  0  0
  142.0606   70.6684  224.6466 H   0  0  0  0  0  0  0  0  0  0  0  0
  140.8983   76.9308  222.9270 H   0  0  0  0  0  0  0  0  0  0  0  0
  141.3017   76.8206  221.1622 H   0  0  0  0  0  0  0  0  0  0  0  0
  140.1986   78.9944  221.9141 H   0  0  0  0  0  0  0  0  0  0  0  0
  139.4057   78.1302  220.5491 H   0  0  0  0  0  0  0  0  0  0  0  0
  135.0446   80.7241  223.9566 H   0  0  0  0  0  0  0  0  0  0  0  0
  1  2  2  0
  2  3  1  0
  3  4  2  0
  4  5  1  0
  5  6  1  0
  6  7  1  0
  7  8  1  0
  8  9  1  0
  9 10  2  0
 10 11  1  0
 11 12  1  0
 12 13  1  0
 13 14  1  0
 14 15  1  0
 15 16  1  0
 16 17  1  0
 11 18  2  0
 18 19  1  0
 19 20  1  0
 20 21  1  0
 21 22  1  0
 22 23  1  0
 23 24  2  0
 24 25  1  0
 25 26  2  0
 26 27  1  0
 27 28  2  0
 28 29  1  0
 19 30  2  0
  8 31  1  0
 31 32  1  0
  4 33  1  0
 33 34  2  0
 34  1  1  0
 32  5  1  0
 30  9  1  0
 17 12  1  0
 29 20  1  0
 28 23  1  0
  1 35  1  0
  2 36  1  0
  3 37  1  0
  6 38  1  0
  6 39  1  0
  7 40  1  0
  7 41  1  0
 13 42  1  0
 13 43  1  0
 14 44  1  0
 14 45  1  0
 16 46  1  0
 16 47  1  0
 17 48  1  0
 17 49  1  0
 21 50  1  0
 21 51  1  0
 22 52  1  0
 22 53  1  0
 24 54  1  0
 25 55  1  0
 26 56  1  0
 27 57  1  0
 29 58  1  0
 29 59  1  0
 31 60  1  0
 31 61  1  0
 32 62  1  0
 32 63  1  0
 34 64  1  0
M  END
>  <UniqueID>  (29) 
275

>  <SMILES>  (29) 
c1ccc(N2CCN(c3nc(N4CCOCC4)nc(N4CCc5ccccc5C4)n3)CC2)nc1

>  <Energy>  (29) 
78.71001359451697

>  <Genealogy>  (29) 
c1ccc(N2CCN(c3nc(N4CCOCC4)nc(N4CCc5ccccc5C4)n3)CC2)nc1 (3D coordinates assigned)
c1ccc(N2CCN(c3nc(N4CCOCC4)nc(N4CCc5ccccc5C4)n3)CC2)nc1 (nonaromatic ring conformer: 78.71001359451697 kcal/mol)

>  <smiles>  (29) 
c1ccc(N2CCN(c3nc(N4CCOCC4)nc(N4CCc5ccccc5C4)n3)CC2)nc1

>  <score_type>  (29) 
oracle

>  <origin>  (29) 
autodockgpu

>  <m_score__min__energy>  (29) 
-8.9399999999999995

>  <m_primary>  (29) 
energy

>  <meeko>  (29) 
{"free_energy": -8.94, "intermolecular_energy": -10.13, "internal_energy": -0.89, "cluster_size": 18, "cluster_id": 1, "rank_in_cluster": 1}

>  <energy>  (29) 
-8.91

>  <cluster_rmsd>  (29) 
0.08

>  <rmsd>  (29) 
270.53

>  <cluster>  (29) 
1

$$$$
XSFBOMDNDOCRMT-UHFFFAOYNA-N
     RDKit          3D

 64 69  0  0  0  0  0  0  0  0999 V2000
  137.3480   81.6440  224.2810 C   0  0  0  0  0  0  0  0  0  0  0  0
  136.5050   81.2000  223.2620 C   0  0  0  0  0  0  0  0  0  0  0  0
  136.8110   80.0290  222.5650 C   0  0  0  0  0  0  0  0  0  0  0  0
  137.9770   79.3030  222.8910 C   0  0  0  0  0  0  0  0  0  0  0  0
  138.3260   78.0730  222.2020 N   0  0  0  0  0  0  0  0  0  0  0  0
  137.5790   76.8240  222.4530 C   0  0  0  0  0  0  0  0  0  0  0  0
  138.1330   75.6370  221.6560 C   0  0  0  0  0  0  0  0  0  0  0  0
  139.6040   75.6190  221.7080 N   0  0  0  0  0  0  0  0  0  0  0  0
  140.3290   74.3780  221.7950 C   0  0  0  0  0  0  0  0  0  0  0  0
  141.3740   74.1380  220.9580 N   0  0  0  0  0  0  0  0  0  0  0  0
  142.0720   72.9760  221.0330 C   0  0  0  0  0  0  0  0  0  0  0  0
  143.1640   72.7270  220.1260 N   0  0  0  0  0  0  0  0  0  0  0  0
  143.8320   73.8660  219.4850 C   0  0  0  0  0  0  0  0  0  0  0  0
  144.8270   73.3760  218.4370 C   0  0  0  0  0  0  0  0  0  0  0  0
  145.6530   72.3880  219.0140 O   0  0  0  0  0  0  0  0  0  0  0  0
  144.9300   71.1830  219.2380 C   0  0  0  0  0  0  0  0  0  0  0  0
  143.4490   71.3580  219.6660 C   0  0  0  0  0  0  0  0  0  0  0  0
  141.7170   72.0440  221.9550 N   0  0  0  0  0  0  0  0  0  0  0  0
  140.6720   72.2620  222.7980 C   0  0  0  0  0  0  0  0  0  0  0  0
  140.2960   71.2550  223.7610 N   0  0  0  0  0  0  0  0  0  0  0  0
  139.0820   70.4470  223.5540 C   0  0  0  0  0  0  0  0  0  0  0  0
  139.2730   69.0310  224.0960 C   0  0  0  0  0  0  0  0  0  0  0  0
  139.6960   69.0870  225.5330 C   0  0  0  0  0  0  0  0  0  0  0  0
  139.2910   68.0870  226.4310 C   0  0  0  0  0  0  0  0  0  0  0  0
  139.7140   68.1250  227.7620 C   0  0  0  0  0  0  0  0  0  0  0  0
  140.5530   69.1500  228.2010 C   0  0  0  0  0  0  0  0  0  0  0  0
  140.9760   70.1380  227.3090 C   0  0  0  0  0  0  0  0  0  0  0  0
  140.5480   70.1160  225.9720 C   0  0  0  0  0  0  0  0  0  0  0  0
  141.0830   71.1440  225.0030 C   0  0  0  0  0  0  0  0  0  0  0  0
  139.9850   73.4330  222.7120 N   0  0  0  0  0  0  0  0  0  0  0  0
  140.3570   76.8690  221.5270 C   0  0  0  0  0  0  0  0  0  0  0  0
  139.4330   78.0490  221.2340 C   0  0  0  0  0  0  0  0  0  0  0  0
  138.7780   79.7730  223.8920 N   0  0  0  0  0  0  0  0  0  0  0  0
  138.4930   80.9070  224.5870 C   0  0  0  0  0  0  0  0  0  0  0  0
  137.1131   82.5639  224.8366 H   0  0  0  0  0  0  0  0  0  0  0  0
  135.6002   81.7716  223.0077 H   0  0  0  0  0  0  0  0  0  0  0  0
  136.1455   79.6735  221.7645 H   0  0  0  0  0  0  0  0  0  0  0  0
  137.6385   76.5871  223.5255 H   0  0  0  0  0  0  0  0  0  0  0  0
  136.5397   76.9862  222.1312 H   0  0  0  0  0  0  0  0  0  0  0  0
  137.7447   74.7012  222.0844 H   0  0  0  0  0  0  0  0  0  0  0  0
  137.8165   75.7356  220.6071 H   0  0  0  0  0  0  0  0  0  0  0  0
  143.0777   74.5026  218.9994 H   0  0  0  0  0  0  0  0  0  0  0  0
  144.3735   74.4403  220.2511 H   0  0  0  0  0  0  0  0  0  0  0  0
  144.2820   72.9481  217.5827 H   0  0  0  0  0  0  0  0  0  0  0  0
  145.4431   74.2176  218.0874 H   0  0  0  0  0  0  0  0  0  0  0  0
  144.9458   70.6007  218.3049 H   0  0  0  0  0  0  0  0  0  0  0  0
  145.4298   70.6854  220.0822 H   0  0  0  0  0  0  0  0  0  0  0  0
  142.8020   71.1308  218.8059 H   0  0  0  0  0  0  0  0  0  0  0  0
  143.2549   70.6718  220.5035 H   0  0  0  0  0  0  0  0  0  0  0  0
  138.2390   70.9225  224.0767 H   0  0  0  0  0  0  0  0  0  0  0  0
  138.8787   70.3867  222.4746 H   0  0  0  0  0  0  0  0  0  0  0  0
  138.3249   68.4790  224.0162 H   0  0  0  0  0  0  0  0  0  0  0  0
  140.0511   68.5207  223.5093 H   0  0  0  0  0  0  0  0  0  0  0  0
  138.6388   67.2712  226.0858 H   0  0  0  0  0  0  0  0  0  0  0  0
  139.3851   67.3456  228.4651 H   0  0  0  0  0  0  0  0  0  0  0  0
  140.8815   69.1799  229.2504 H   0  0  0  0  0  0  0  0  0  0  0  0
  141.6477   70.9372  227.6556 H   0  0  0  0  0  0  0  0  0  0  0  0
  141.0838   72.1242  225.5022 H   0  0  0  0  0  0  0  0  0  0  0  0
  142.0934   70.8184  224.7149 H   0  0  0  0  0  0  0  0  0  0  0  0
  140.9236   77.0798  222.4459 H   0  0  0  0  0  0  0  0  0  0  0  0
  141.0317   76.7409  220.6677 H   0  0  0  0  0  0  0  0  0  0  0  0
  140.0037   78.9863  221.3099 H   0  0  0  0  0  0  0  0  0  0  0  0
  139.0229   77.9433  220.2188 H   0  0  0  0  0  0  0  0  0  0  0  0
  139.1650   81.2432  225.3903 H   0  0  0  0  0  0  0  0  0  0  0  0
  1  2  2  0
  2  3  1  0
  3  4  2  0
  4  5  1  0
  5  6  1  0
  6  7  1  0
  7  8  1  0
  8  9  1  0
  9 10  2  0
 10 11  1  0
 11 12  1  0
 12 13  1  0
 13 14  1  0
 14 15  1  0
 15 16  1  0
 16 17  1  0
 11 18  2  0
 18 19  1  0
 19 20  1  0
 20 21  1  0
 21 22  1  0
 22 23  1  0
 23 24  2  0
 24 25  1  0
 25 26  2  0
 26 27  1  0
 27 28  2  0
 28 29  1  0
 19 30  2  0
  8 31  1  0
 31 32  1  0
  4 33  1  0
 33 34  2  0
 34  1  1  0
 32  5  1  0
 30  9  1  0
 17 12  1  0
 29 20  1  0
 28 23  1  0
  1 35  1  0
  2 36  1  0
  3 37  1  0
  6 38  1  0
  6 39  1  0
  7 40  1  0
  7 41  1  0
 13 42  1  0
 13 43  1  0
 14 44  1  0
 14 45  1  0
 16 46  1  0
 16 47  1  0
 17 48  1  0
 17 49  1  0
 21 50  1  0
 21 51  1  0
 22 52  1  0
 22 53  1  0
 24 54  1  0
 25 55  1  0
 26 56  1  0
 27 57  1  0
 29 58  1  0
 29 59  1  0
 31 60  1  0
 31 61  1  0
 32 62  1  0
 32 63  1  0
 34 64  1  0
M  END
>  <UniqueID>  (30) 
275

>  <SMILES>  (30) 
c1ccc(N2CCN(c3nc(N4CCOCC4)nc(N4CCc5ccccc5C4)n3)CC2)nc1

>  <Energy>  (30) 
78.71001359451697

>  <Genealogy>  (30) 
c1ccc(N2CCN(c3nc(N4CCOCC4)nc(N4CCc5ccccc5C4)n3)CC2)nc1 (3D coordinates assigned)
c1ccc(N2CCN(c3nc(N4CCOCC4)nc(N4CCc5ccccc5C4)n3)CC2)nc1 (nonaromatic ring conformer: 78.71001359451697 kcal/mol)

>  <smiles>  (30) 
c1ccc(N2CCN(c3nc(N4CCOCC4)nc(N4CCc5ccccc5C4)n3)CC2)nc1

>  <score_type>  (30) 
oracle

>  <origin>  (30) 
autodockgpu

>  <m_score__min__energy>  (30) 
-8.9399999999999995

>  <m_primary>  (30) 
energy

>  <meeko>  (30) 
{"free_energy": -8.73, "intermolecular_energy": -9.92, "internal_energy": -0.9, "cluster_size": 18, "cluster_id": 1, "rank_in_cluster": 17}

>  <energy>  (30) 
-8.91

>  <cluster_rmsd>  (30) 
0.12

>  <rmsd>  (30) 
270.54

>  <cluster>  (30) 
1

$$$$
XSFBOMDNDOCRMT-UHFFFAOYNA-N
     RDKit          3D

 64 69  0  0  0  0  0  0  0  0999 V2000
  136.8030   81.3120  224.5760 C   0  0  0  0  0  0  0  0  0  0  0  0
  138.1810   81.0960  224.5760 C   0  0  0  0  0  0  0  0  0  0  0  0
  138.7200   80.0360  223.8440 C   0  0  0  0  0  0  0  0  0  0  0  0
  137.8660   79.1820  223.1120 C   0  0  0  0  0  0  0  0  0  0  0  0
  138.3840   78.0770  222.3270 N   0  0  0  0  0  0  0  0  0  0  0  0
  137.5980   76.8390  222.1470 C   0  0  0  0  0  0  0  0  0  0  0  0
  138.3420   75.7850  221.3190 C   0  0  0  0  0  0  0  0  0  0  0  0
  139.7480   75.6890  221.7440 N   0  0  0  0  0  0  0  0  0  0  0  0
  140.4270   74.4190  221.7900 C   0  0  0  0  0  0  0  0  0  0  0  0
  141.4560   74.1640  220.9380 N   0  0  0  0  0  0  0  0  0  0  0  0
  142.1100   72.9760  220.9740 C   0  0  0  0  0  0  0  0  0  0  0  0
  143.1860   72.7120  220.0510 N   0  0  0  0  0  0  0  0  0  0  0  0
  143.8590   73.8420  219.4000 C   0  0  0  0  0  0  0  0  0  0  0  0
  144.8320   73.3380  218.3380 C   0  0  0  0  0  0  0  0  0  0  0  0
  145.6540   72.3410  218.9040 O   0  0  0  0  0  0  0  0  0  0  0  0
  144.9200   71.1450  219.1410 C   0  0  0  0  0  0  0  0  0  0  0  0
  143.4460   71.3390  219.5890 C   0  0  0  0  0  0  0  0  0  0  0  0
  141.7260   72.0310  221.8710 N   0  0  0  0  0  0  0  0  0  0  0  0
  140.6960   72.2640  222.7290 C   0  0  0  0  0  0  0  0  0  0  0  0
  140.2880   71.2440  223.6650 N   0  0  0  0  0  0  0  0  0  0  0  0
  139.0710   70.4520  223.4170 C   0  0  0  0  0  0  0  0  0  0  0  0
  139.2360   69.0260  223.9380 C   0  0  0  0  0  0  0  0  0  0  0  0
  139.6270   69.0520  225.3850 C   0  0  0  0  0  0  0  0  0  0  0  0
  139.1920   68.0410  226.2560 C   0  0  0  0  0  0  0  0  0  0  0  0
  139.5840   68.0520  227.5970 C   0  0  0  0  0  0  0  0  0  0  0  0
  140.4230   69.0610  228.0730 C   0  0  0  0  0  0  0  0  0  0  0  0
  140.8760   70.0600  227.2070 C   0  0  0  0  0  0  0  0  0  0  0  0
  140.4790   70.0650  225.8610 C   0  0  0  0  0  0  0  0  0  0  0  0
  141.0460   71.1040  224.9220 C   0  0  0  0  0  0  0  0  0  0  0  0
  140.0530   73.4620  222.6820 N   0  0  0  0  0  0  0  0  0  0  0  0
  140.5210   76.9160  221.9920 C   0  0  0  0  0  0  0  0  0  0  0  0
  139.7050   78.1700  221.6880 C   0  0  0  0  0  0  0  0  0  0  0  0
  136.5220   79.4240  223.1420 N   0  0  0  0  0  0  0  0  0  0  0  0
  135.9790   80.4560  223.8430 C   0  0  0  0  0  0  0  0  0  0  0  0
  136.3706   82.1470  225.1468 H   0  0  0  0  0  0  0  0  0  0  0  0
  138.8424   81.7599  225.1520 H   0  0  0  0  0  0  0  0  0  0  0  0
  139.8069   79.8666  223.8375 H   0  0  0  0  0  0  0  0  0  0  0  0
  137.3748   76.4160  223.1376 H   0  0  0  0  0  0  0  0  0  0  0  0
  136.6792   77.1032  221.6030 H   0  0  0  0  0  0  0  0  0  0  0  0
  137.8554   74.8081  221.4564 H   0  0  0  0  0  0  0  0  0  0  0  0
  138.3114   76.0802  220.2598 H   0  0  0  0  0  0  0  0  0  0  0  0
  143.1061   74.4881  218.9250 H   0  0  0  0  0  0  0  0  0  0  0  0
  144.4187   74.4100  220.1576 H   0  0  0  0  0  0  0  0  0  0  0  0
  144.2689   72.9156  217.4927 H   0  0  0  0  0  0  0  0  0  0  0  0
  145.4531   74.1713  217.9778 H   0  0  0  0  0  0  0  0  0  0  0  0
  144.9162   70.5602  218.2093 H   0  0  0  0  0  0  0  0  0  0  0  0
  145.4254   70.6434  219.9795 H   0  0  0  0  0  0  0  0  0  0  0  0
  142.7844   71.1194  218.7381 H   0  0  0  0  0  0  0  0  0  0  0  0
  143.2537   70.6558  220.4294 H   0  0  0  0  0  0  0  0  0  0  0  0
  138.2212   70.9269  223.9291 H   0  0  0  0  0  0  0  0  0  0  0  0
  138.8912   70.4124  222.3325 H   0  0  0  0  0  0  0  0  0  0  0  0
  138.2846   68.4851  223.8272 H   0  0  0  0  0  0  0  0  0  0  0  0
  140.0225   68.5186  223.3600 H   0  0  0  0  0  0  0  0  0  0  0  0
  138.5405   67.2376  225.8817 H   0  0  0  0  0  0  0  0  0  0  0  0
  139.2309   67.2643  228.2788 H   0  0  0  0  0  0  0  0  0  0  0  0
  140.7277   69.0698  229.1299 H   0  0  0  0  0  0  0  0  0  0  0  0
  141.5472   70.8465  227.5824 H   0  0  0  0  0  0  0  0  0  0  0  0
  141.0454   72.0755  225.4379 H   0  0  0  0  0  0  0  0  0  0  0  0
  142.0595   70.7732  224.6509 H   0  0  0  0  0  0  0  0  0  0  0  0
  140.8265   76.9372  223.0485 H   0  0  0  0  0  0  0  0  0  0  0  0
  141.3977   76.9085  221.3276 H   0  0  0  0  0  0  0  0  0  0  0  0
  140.2355   79.0526  222.0748 H   0  0  0  0  0  0  0  0  0  0  0  0
  139.5742   78.2609  220.5996 H   0  0  0  0  0  0  0  0  0  0  0  0
  134.8907   80.6159  223.8322 H   0  0  0  0  0  0  0  0  0  0  0  0
  1  2  2  0
  2  3  1  0
  3  4  2  0
  4  5  1  0
  5  6  1  0
  6  7  1  0
  7  8  1  0
  8  9  1  0
  9 10  2  0
 10 11  1  0
 11 12  1  0
 12 13  1  0
 13 14  1  0
 14 15  1  0
 15 16  1  0
 16 17  1  0
 11 18  2  0
 18 19  1  0
 19 20  1  0
 20 21  1  0
 21 22  1  0
 22 23  1  0
 23 24  2  0
 24 25  1  0
 25 26  2  0
 26 27  1  0
 27 28  2  0
 28 29  1  0
 19 30  2  0
  8 31  1  0
 31 32  1  0
  4 33  1  0
 33 34  2  0
 34  1  1  0
 32  5  1  0
 30  9  1  0
 17 12  1  0
 29 20  1  0
 28 23  1  0
  1 35  1  0
  2 36  1  0
  3 37  1  0
  6 38  1  0
  6 39  1  0
  7 40  1  0
  7 41  1  0
 13 42  1  0
 13 43  1  0
 14 44  1  0
 14 45  1  0
 16 46  1  0
 16 47  1  0
 17 48  1  0
 17 49  1  0
 21 50  1  0
 21 51  1  0
 22 52  1  0
 22 53  1  0
 24 54  1  0
 25 55  1  0
 26 56  1  0
 27 57  1  0
 29 58  1  0
 29 59  1  0
 31 60  1  0
 31 61  1  0
 32 62  1  0
 32 63  1  0
 34 64  1  0
M  END
>  <UniqueID>  (31) 
275

>  <SMILES>  (31) 
c1ccc(N2CCN(c3nc(N4CCOCC4)nc(N4CCc5ccccc5C4)n3)CC2)nc1

>  <Energy>  (31) 
78.71001359451697

>  <Genealogy>  (31) 
c1ccc(N2CCN(c3nc(N4CCOCC4)nc(N4CCc5ccccc5C4)n3)CC2)nc1 (3D coordinates assigned)
c1ccc(N2CCN(c3nc(N4CCOCC4)nc(N4CCc5ccccc5C4)n3)CC2)nc1 (nonaromatic ring conformer: 78.71001359451697 kcal/mol)

>  <smiles>  (31) 
c1ccc(N2CCN(c3nc(N4CCOCC4)nc(N4CCc5ccccc5C4)n3)CC2)nc1

>  <score_type>  (31) 
oracle

>  <origin>  (31) 
autodockgpu

>  <m_score__min__energy>  (31) 
-8.9399999999999995

>  <m_primary>  (31) 
energy

>  <meeko>  (31) 
{"free_energy": -8.91, "intermolecular_energy": -10.1, "internal_energy": -0.89, "cluster_size": 18, "cluster_id": 1, "rank_in_cluster": 10}

>  <energy>  (31) 
-8.91

>  <cluster_rmsd>  (31) 
0.07

>  <rmsd>  (31) 
270.56

>  <cluster>  (31) 
1

$$$$
XSFBOMDNDOCRMT-UHFFFAOYNA-N
     RDKit          3D

 64 69  0  0  0  0  0  0  0  0999 V2000
  136.9410   81.3490  224.5480 C   0  0  0  0  0  0  0  0  0  0  0  0
  138.3080   81.0720  224.5640 C   0  0  0  0  0  0  0  0  0  0  0  0
  138.8080   79.9890  223.8390 C   0  0  0  0  0  0  0  0  0  0  0  0
  137.9260   79.1740  223.0970 C   0  0  0  0  0  0  0  0  0  0  0  0
  138.4040   78.0460  222.3180 N   0  0  0  0  0  0  0  0  0  0  0  0
  137.6110   76.8040  222.2150 C   0  0  0  0  0  0  0  0  0  0  0  0
  138.3120   75.7260  221.3810 C   0  0  0  0  0  0  0  0  0  0  0  0
  139.7380   75.6420  221.7340 N   0  0  0  0  0  0  0  0  0  0  0  0
  140.4200   74.3740  221.7810 C   0  0  0  0  0  0  0  0  0  0  0  0
  141.4510   74.1210  220.9310 N   0  0  0  0  0  0  0  0  0  0  0  0
  142.1080   72.9340  220.9670 C   0  0  0  0  0  0  0  0  0  0  0  0
  143.1850   72.6720  220.0460 N   0  0  0  0  0  0  0  0  0  0  0  0
  143.8450   73.8030  219.3830 C   0  0  0  0  0  0  0  0  0  0  0  0
  144.8230   73.2990  218.3250 C   0  0  0  0  0  0  0  0  0  0  0  0
  145.6550   72.3160  218.9000 O   0  0  0  0  0  0  0  0  0  0  0  0
  144.9340   71.1150  219.1490 C   0  0  0  0  0  0  0  0  0  0  0  0
  143.4590   71.2980  219.5970 C   0  0  0  0  0  0  0  0  0  0  0  0
  141.7240   71.9880  221.8650 N   0  0  0  0  0  0  0  0  0  0  0  0
  140.6930   72.2200  222.7210 C   0  0  0  0  0  0  0  0  0  0  0  0
  140.2870   71.1990  223.6570 N   0  0  0  0  0  0  0  0  0  0  0  0
  139.0750   70.4000  223.4050 C   0  0  0  0  0  0  0  0  0  0  0  0
  139.2450   68.9750  223.9290 C   0  0  0  0  0  0  0  0  0  0  0  0
  139.6290   69.0060  225.3780 C   0  0  0  0  0  0  0  0  0  0  0  0
  139.1960   67.9950  226.2490 C   0  0  0  0  0  0  0  0  0  0  0  0
  139.5820   68.0090  227.5910 C   0  0  0  0  0  0  0  0  0  0  0  0
  140.4130   69.0240  228.0690 C   0  0  0  0  0  0  0  0  0  0  0  0
  140.8650   70.0240  227.2040 C   0  0  0  0  0  0  0  0  0  0  0  0
  140.4740   70.0240  225.8560 C   0  0  0  0  0  0  0  0  0  0  0  0
  141.0390   71.0650  224.9180 C   0  0  0  0  0  0  0  0  0  0  0  0
  140.0470   73.4160  222.6730 N   0  0  0  0  0  0  0  0  0  0  0  0
  140.5220   76.8750  221.9060 C   0  0  0  0  0  0  0  0  0  0  0  0
  139.6900   78.1200  221.6080 C   0  0  0  0  0  0  0  0  0  0  0  0
  136.5940   79.4760  223.1100 N   0  0  0  0  0  0  0  0  0  0  0  0
  136.0890   80.5310  223.8040 C   0  0  0  0  0  0  0  0  0  0  0  0
  136.5392   82.2018  225.1149 H   0  0  0  0  0  0  0  0  0  0  0  0
  138.9914   81.7065  225.1474 H   0  0  0  0  0  0  0  0  0  0  0  0
  139.8862   79.7713  223.8459 H   0  0  0  0  0  0  0  0  0  0  0  0
  137.4395   76.4102  223.2277 H   0  0  0  0  0  0  0  0  0  0  0  0
  136.6651   77.0528  221.7116 H   0  0  0  0  0  0  0  0  0  0  0  0
  137.8345   74.7537  221.5725 H   0  0  0  0  0  0  0  0  0  0  0  0
  138.2257   75.9900  220.3166 H   0  0  0  0  0  0  0  0  0  0  0  0
  143.0846   74.4359  218.9022 H   0  0  0  0  0  0  0  0  0  0  0  0
  144.3990   74.3848  220.1344 H   0  0  0  0  0  0  0  0  0  0  0  0
  144.2640   72.8630  217.4839 H   0  0  0  0  0  0  0  0  0  0  0  0
  145.4355   74.1352  217.9566 H   0  0  0  0  0  0  0  0  0  0  0  0
  144.9351   70.5215  218.2228 H   0  0  0  0  0  0  0  0  0  0  0  0
  145.4456   70.6264  219.9913 H   0  0  0  0  0  0  0  0  0  0  0  0
  142.7987   71.0633  218.7491 H   0  0  0  0  0  0  0  0  0  0  0  0
  143.2751   70.6210  220.4443 H   0  0  0  0  0  0  0  0  0  0  0  0
  138.2205   70.8713  223.9127 H   0  0  0  0  0  0  0  0  0  0  0  0
  138.9003   70.3578  222.3198 H   0  0  0  0  0  0  0  0  0  0  0  0
  138.2970   68.4289  223.8146 H   0  0  0  0  0  0  0  0  0  0  0  0
  140.0366   68.4705  223.3555 H   0  0  0  0  0  0  0  0  0  0  0  0
  138.5498   67.1880  225.8733 H   0  0  0  0  0  0  0  0  0  0  0  0
  139.2310   67.2197  228.2720 H   0  0  0  0  0  0  0  0  0  0  0  0
  140.7121   69.0365  229.1275 H   0  0  0  0  0  0  0  0  0  0  0  0
  141.5302   70.8147  227.5812 H   0  0  0  0  0  0  0  0  0  0  0  0
  141.0298   72.0372  225.4325 H   0  0  0  0  0  0  0  0  0  0  0  0
  142.0556   70.7395  224.6523 H   0  0  0  0  0  0  0  0  0  0  0  0
  140.8816   76.9268  222.9443 H   0  0  0  0  0  0  0  0  0  0  0  0
  141.3635   76.8476  221.1981 H   0  0  0  0  0  0  0  0  0  0  0  0
  140.2390   79.0134  221.9404 H   0  0  0  0  0  0  0  0  0  0  0  0
  139.5026   78.1792  220.5257 H   0  0  0  0  0  0  0  0  0  0  0  0
  135.0093   80.7397  223.7790 H   0  0  0  0  0  0  0  0  0  0  0  0
  1  2  2  0
  2  3  1  0
  3  4  2  0
  4  5  1  0
  5  6  1  0
  6  7  1  0
  7  8  1  0
  8  9  1  0
  9 10  2  0
 10 11  1  0
 11 12  1  0
 12 13  1  0
 13 14  1  0
 14 15  1  0
 15 16  1  0
 16 17  1  0
 11 18  2  0
 18 19  1  0
 19 20  1  0
 20 21  1  0
 21 22  1  0
 22 23  1  0
 23 24  2  0
 24 25  1  0
 25 26  2  0
 26 27  1  0
 27 28  2  0
 28 29  1  0
 19 30  2  0
  8 31  1  0
 31 32  1  0
  4 33  1  0
 33 34  2  0
 34  1  1  0
 32  5  1  0
 30  9  1  0
 17 12  1  0
 29 20  1  0
 28 23  1  0
  1 35  1  0
  2 36  1  0
  3 37  1  0
  6 38  1  0
  6 39  1  0
  7 40  1  0
  7 41  1  0
 13 42  1  0
 13 43  1  0
 14 44  1  0
 14 45  1  0
 16 46  1  0
 16 47  1  0
 17 48  1  0
 17 49  1  0
 21 50  1  0
 21 51  1  0
 22 52  1  0
 22 53  1  0
 24 54  1  0
 25 55  1  0
 26 56  1  0
 27 57  1  0
 29 58  1  0
 29 59  1  0
 31 60  1  0
 31 61  1  0
 32 62  1  0
 32 63  1  0
 34 64  1  0
M  END
>  <UniqueID>  (32) 
275

>  <SMILES>  (32) 
c1ccc(N2CCN(c3nc(N4CCOCC4)nc(N4CCc5ccccc5C4)n3)CC2)nc1

>  <Energy>  (32) 
78.71001359451697

>  <Genealogy>  (32) 
c1ccc(N2CCN(c3nc(N4CCOCC4)nc(N4CCc5ccccc5C4)n3)CC2)nc1 (3D coordinates assigned)
c1ccc(N2CCN(c3nc(N4CCOCC4)nc(N4CCc5ccccc5C4)n3)CC2)nc1 (nonaromatic ring conformer: 78.71001359451697 kcal/mol)

>  <smiles>  (32) 
c1ccc(N2CCN(c3nc(N4CCOCC4)nc(N4CCc5ccccc5C4)n3)CC2)nc1

>  <score_type>  (32) 
oracle

>  <origin>  (32) 
autodockgpu

>  <m_score__min__energy>  (32) 
-8.9399999999999995

>  <m_primary>  (32) 
energy

>  <meeko>  (32) 
{"free_energy": -8.91, "intermolecular_energy": -10.11, "internal_energy": -0.89, "cluster_size": 18, "cluster_id": 1, "rank_in_cluster": 9}

>  <energy>  (32) 
-8.9

>  <cluster_rmsd>  (32) 
0.13

>  <rmsd>  (32) 
270.53

>  <cluster>  (32) 
1

$$$$
XSFBOMDNDOCRMT-UHFFFAOYNA-N
     RDKit          3D

 64 69  0  0  0  0  0  0  0  0999 V2000
  136.9960   81.3350  224.6340 C   0  0  0  0  0  0  0  0  0  0  0  0
  138.3670   81.0830  224.5880 C   0  0  0  0  0  0  0  0  0  0  0  0
  138.8520   79.9970  223.8570 C   0  0  0  0  0  0  0  0  0  0  0  0
  137.9510   79.1530  223.1720 C   0  0  0  0  0  0  0  0  0  0  0  0
  138.4120   78.0220  222.3890 N   0  0  0  0  0  0  0  0  0  0  0  0
  137.6210   76.7760  222.3160 C   0  0  0  0  0  0  0  0  0  0  0  0
  138.3030   75.6940  221.4710 C   0  0  0  0  0  0  0  0  0  0  0  0
  139.7390   75.6180  221.7870 N   0  0  0  0  0  0  0  0  0  0  0  0
  140.4260   74.3520  221.8250 C   0  0  0  0  0  0  0  0  0  0  0  0
  141.4610   74.1120  220.9770 N   0  0  0  0  0  0  0  0  0  0  0  0
  142.1230   72.9270  221.0050 C   0  0  0  0  0  0  0  0  0  0  0  0
  143.2050   72.6790  220.0870 N   0  0  0  0  0  0  0  0  0  0  0  0
  143.8740   73.8200  219.4490 C   0  0  0  0  0  0  0  0  0  0  0  0
  144.8570   73.3320  218.3880 C   0  0  0  0  0  0  0  0  0  0  0  0
  145.6820   72.3360  218.9500 O   0  0  0  0  0  0  0  0  0  0  0  0
  144.9550   71.1330  219.1720 C   0  0  0  0  0  0  0  0  0  0  0  0
  143.4780   71.3120  219.6140 C   0  0  0  0  0  0  0  0  0  0  0  0
  141.7400   71.9720  221.8920 N   0  0  0  0  0  0  0  0  0  0  0  0
  140.7040   72.1910  222.7460 C   0  0  0  0  0  0  0  0  0  0  0  0
  140.2980   71.1600  223.6710 N   0  0  0  0  0  0  0  0  0  0  0  0
  139.0730   70.3800  223.4230 C   0  0  0  0  0  0  0  0  0  0  0  0
  139.2330   68.9450  223.9210 C   0  0  0  0  0  0  0  0  0  0  0  0
  139.6380   68.9460  225.3640 C   0  0  0  0  0  0  0  0  0  0  0  0
  139.2050   67.9260  226.2250 C   0  0  0  0  0  0  0  0  0  0  0  0
  139.6100   67.9140  227.5610 C   0  0  0  0  0  0  0  0  0  0  0  0
  140.4610   68.9090  228.0440 C   0  0  0  0  0  0  0  0  0  0  0  0
  140.9130   69.9180  227.1890 C   0  0  0  0  0  0  0  0  0  0  0  0
  140.5020   69.9460  225.8470 C   0  0  0  0  0  0  0  0  0  0  0  0
  141.0670   70.9950  224.9180 C   0  0  0  0  0  0  0  0  0  0  0  0
  140.0540   73.3850  222.7060 N   0  0  0  0  0  0  0  0  0  0  0  0
  140.5220   76.8540  221.9290 C   0  0  0  0  0  0  0  0  0  0  0  0
  139.6780   78.0950  221.6450 C   0  0  0  0  0  0  0  0  0  0  0  0
  136.6160   79.4320  223.2450 N   0  0  0  0  0  0  0  0  0  0  0  0
  136.1250   80.4890  223.9470 C   0  0  0  0  0  0  0  0  0  0  0  0
  136.6062   82.1905  225.2051 H   0  0  0  0  0  0  0  0  0  0  0  0
  139.0657   81.7395  225.1273 H   0  0  0  0  0  0  0  0  0  0  0  0
  139.9333   79.7994  223.8148 H   0  0  0  0  0  0  0  0  0  0  0  0
  137.4783   76.3889  223.3357 H   0  0  0  0  0  0  0  0  0  0  0  0
  136.6612   77.0181  221.8362 H   0  0  0  0  0  0  0  0  0  0  0  0
  137.8344   74.7215  221.6823 H   0  0  0  0  0  0  0  0  0  0  0  0
  138.1870   75.9493  220.4073 H   0  0  0  0  0  0  0  0  0  0  0  0
  143.1191   74.4647  218.9752 H   0  0  0  0  0  0  0  0  0  0  0  0
  144.4254   74.3854  220.2147 H   0  0  0  0  0  0  0  0  0  0  0  0
  144.3019   72.9134  217.5356 H   0  0  0  0  0  0  0  0  0  0  0  0
  145.4745   74.1727  218.0388 H   0  0  0  0  0  0  0  0  0  0  0  0
  144.9601   70.5570  218.2349 H   0  0  0  0  0  0  0  0  0  0  0  0
  145.4595   70.6274  220.0085 H   0  0  0  0  0  0  0  0  0  0  0  0
  142.8224   71.0951  218.7577 H   0  0  0  0  0  0  0  0  0  0  0  0
  143.2868   70.6199  220.4473 H   0  0  0  0  0  0  0  0  0  0  0  0
  138.2315   70.8529  223.9504 H   0  0  0  0  0  0  0  0  0  0  0  0
  138.8826   70.3579  222.3398 H   0  0  0  0  0  0  0  0  0  0  0  0
  138.2768   68.4125  223.8113 H   0  0  0  0  0  0  0  0  0  0  0  0
  140.0104   68.4412  223.3279 H   0  0  0  0  0  0  0  0  0  0  0  0
  138.5439   67.1328  225.8458 H   0  0  0  0  0  0  0  0  0  0  0  0
  139.2576   67.1187  228.2343 H   0  0  0  0  0  0  0  0  0  0  0  0
  140.7761   68.8992  229.0979 H   0  0  0  0  0  0  0  0  0  0  0  0
  141.5939   70.6937  227.5694 H   0  0  0  0  0  0  0  0  0  0  0  0
  141.0787   71.9585  225.4486 H   0  0  0  0  0  0  0  0  0  0  0  0
  142.0751   70.6607  224.6316 H   0  0  0  0  0  0  0  0  0  0  0  0
  140.9093   76.9142  222.9568 H   0  0  0  0  0  0  0  0  0  0  0  0
  141.3438   76.8244  221.1983 H   0  0  0  0  0  0  0  0  0  0  0  0
  140.2328   78.9922  221.9568 H   0  0  0  0  0  0  0  0  0  0  0  0
  139.4617   78.1463  220.5677 H   0  0  0  0  0  0  0  0  0  0  0  0
  135.0414   80.6765  223.9729 H   0  0  0  0  0  0  0  0  0  0  0  0
  1  2  2  0
  2  3  1  0
  3  4  2  0
  4  5  1  0
  5  6  1  0
  6  7  1  0
  7  8  1  0
  8  9  1  0
  9 10  2  0
 10 11  1  0
 11 12  1  0
 12 13  1  0
 13 14  1  0
 14 15  1  0
 15 16  1  0
 16 17  1  0
 11 18  2  0
 18 19  1  0
 19 20  1  0
 20 21  1  0
 21 22  1  0
 22 23  1  0
 23 24  2  0
 24 25  1  0
 25 26  2  0
 26 27  1  0
 27 28  2  0
 28 29  1  0
 19 30  2  0
  8 31  1  0
 31 32  1  0
  4 33  1  0
 33 34  2  0
 34  1  1  0
 32  5  1  0
 30  9  1  0
 17 12  1  0
 29 20  1  0
 28 23  1  0
  1 35  1  0
  2 36  1  0
  3 37  1  0
  6 38  1  0
  6 39  1  0
  7 40  1  0
  7 41  1  0
 13 42  1  0
 13 43  1  0
 14 44  1  0
 14 45  1  0
 16 46  1  0
 16 47  1  0
 17 48  1  0
 17 49  1  0
 21 50  1  0
 21 51  1  0
 22 52  1  0
 22 53  1  0
 24 54  1  0
 25 55  1  0
 26 56  1  0
 27 57  1  0
 29 58  1  0
 29 59  1  0
 31 60  1  0
 31 61  1  0
 32 62  1  0
 32 63  1  0
 34 64  1  0
M  END
>  <UniqueID>  (33) 
275

>  <SMILES>  (33) 
c1ccc(N2CCN(c3nc(N4CCOCC4)nc(N4CCc5ccccc5C4)n3)CC2)nc1

>  <Energy>  (33) 
78.71001359451697

>  <Genealogy>  (33) 
c1ccc(N2CCN(c3nc(N4CCOCC4)nc(N4CCc5ccccc5C4)n3)CC2)nc1 (3D coordinates assigned)
c1ccc(N2CCN(c3nc(N4CCOCC4)nc(N4CCc5ccccc5C4)n3)CC2)nc1 (nonaromatic ring conformer: 78.71001359451697 kcal/mol)

>  <smiles>  (33) 
c1ccc(N2CCN(c3nc(N4CCOCC4)nc(N4CCc5ccccc5C4)n3)CC2)nc1

>  <score_type>  (33) 
oracle

>  <origin>  (33) 
autodockgpu

>  <m_score__min__energy>  (33) 
-8.9399999999999995

>  <m_primary>  (33) 
energy

>  <meeko>  (33) 
{"free_energy": -8.93, "intermolecular_energy": -10.13, "internal_energy": -0.89, "cluster_size": 18, "cluster_id": 1, "rank_in_cluster": 2}

>  <energy>  (33) 
-8.89

>  <cluster_rmsd>  (33) 
0.16

>  <rmsd>  (33) 
270.51

>  <cluster>  (33) 
1

$$$$
XSFBOMDNDOCRMT-UHFFFAOYNA-N
     RDKit          3D

 64 69  0  0  0  0  0  0  0  0999 V2000
  136.7020   81.1730  224.6010 C   0  0  0  0  0  0  0  0  0  0  0  0
  138.0880   81.0110  224.5880 C   0  0  0  0  0  0  0  0  0  0  0  0
  138.6620   79.9760  223.8480 C   0  0  0  0  0  0  0  0  0  0  0  0
  137.8360   79.0910  223.1210 C   0  0  0  0  0  0  0  0  0  0  0  0
  138.3910   78.0090  222.3280 N   0  0  0  0  0  0  0  0  0  0  0  0
  137.6090   76.7840  222.0610 C   0  0  0  0  0  0  0  0  0  0  0  0
  138.3910   75.7530  221.2410 C   0  0  0  0  0  0  0  0  0  0  0  0
  139.7710   75.6320  221.7400 N   0  0  0  0  0  0  0  0  0  0  0  0
  140.4380   74.3560  221.7790 C   0  0  0  0  0  0  0  0  0  0  0  0
  141.4560   74.0910  220.9180 N   0  0  0  0  0  0  0  0  0  0  0  0
  142.1000   72.8960  220.9470 C   0  0  0  0  0  0  0  0  0  0  0  0
  143.1640   72.6220  220.0150 N   0  0  0  0  0  0  0  0  0  0  0  0
  143.8110   73.7440  219.3230 C   0  0  0  0  0  0  0  0  0  0  0  0
  144.7740   73.2250  218.2590 C   0  0  0  0  0  0  0  0  0  0  0  0
  145.6180   72.2540  218.8370 O   0  0  0  0  0  0  0  0  0  0  0  0
  144.9040   71.0550  219.1170 C   0  0  0  0  0  0  0  0  0  0  0  0
  143.4360   71.2410  219.5840 C   0  0  0  0  0  0  0  0  0  0  0  0
  141.7150   71.9550  221.8490 N   0  0  0  0  0  0  0  0  0  0  0  0
  140.6960   72.1980  222.7160 C   0  0  0  0  0  0  0  0  0  0  0  0
  140.2880   71.1820  223.6560 N   0  0  0  0  0  0  0  0  0  0  0  0
  139.0690   70.3920  223.4130 C   0  0  0  0  0  0  0  0  0  0  0  0
  139.2320   68.9670  223.9390 C   0  0  0  0  0  0  0  0  0  0  0  0
  139.6250   68.9970  225.3850 C   0  0  0  0  0  0  0  0  0  0  0  0
  139.1900   67.9900  226.2600 C   0  0  0  0  0  0  0  0  0  0  0  0
  139.5840   68.0050  227.6000 C   0  0  0  0  0  0  0  0  0  0  0  0
  140.4250   69.0140  228.0710 C   0  0  0  0  0  0  0  0  0  0  0  0
  140.8790   70.0090  227.2020 C   0  0  0  0  0  0  0  0  0  0  0  0
  140.4800   70.0100  225.8560 C   0  0  0  0  0  0  0  0  0  0  0  0
  141.0470   71.0450  224.9130 C   0  0  0  0  0  0  0  0  0  0  0  0
  140.0640   73.4020  222.6750 N   0  0  0  0  0  0  0  0  0  0  0  0
  140.5360   76.8420  222.0730 C   0  0  0  0  0  0  0  0  0  0  0  0
  139.7460   78.1130  221.7680 C   0  0  0  0  0  0  0  0  0  0  0  0
  136.4840   79.2800  223.1630 N   0  0  0  0  0  0  0  0  0  0  0  0
  135.9070   80.2870  223.8720 C   0  0  0  0  0  0  0  0  0  0  0  0
  136.2419   81.9884  225.1783 H   0  0  0  0  0  0  0  0  0  0  0  0
  138.7278   81.6986  225.1606 H   0  0  0  0  0  0  0  0  0  0  0  0
  139.7546   79.8501  223.8312 H   0  0  0  0  0  0  0  0  0  0  0  0
  137.3273   76.3293  223.0222 H   0  0  0  0  0  0  0  0  0  0  0  0
  136.7246   77.0744  221.4749 H   0  0  0  0  0  0  0  0  0  0  0  0
  137.8918   74.7759  221.3183 H   0  0  0  0  0  0  0  0  0  0  0  0
  138.4211   76.0834  220.1922 H   0  0  0  0  0  0  0  0  0  0  0  0
  143.0416   74.3669  218.8434 H   0  0  0  0  0  0  0  0  0  0  0  0
  144.3747   74.3397  220.0561 H   0  0  0  0  0  0  0  0  0  0  0  0
  144.2034   72.7735  217.4340 H   0  0  0  0  0  0  0  0  0  0  0  0
  145.3783   74.0567  217.8676 H   0  0  0  0  0  0  0  0  0  0  0  0
  144.8929   70.4462  218.2009 H   0  0  0  0  0  0  0  0  0  0  0  0
  145.4297   70.5822  219.9597 H   0  0  0  0  0  0  0  0  0  0  0  0
  142.7638   70.9906  218.7500 H   0  0  0  0  0  0  0  0  0  0  0  0
  143.2672   70.5774  220.4449 H   0  0  0  0  0  0  0  0  0  0  0  0
  138.2211   70.8706  223.9249 H   0  0  0  0  0  0  0  0  0  0  0  0
  138.8871   70.3490  222.3290 H   0  0  0  0  0  0  0  0  0  0  0  0
  138.2794   68.4276  223.8314 H   0  0  0  0  0  0  0  0  0  0  0  0
  140.0167   68.4562  223.3617 H   0  0  0  0  0  0  0  0  0  0  0  0
  138.5367   67.1863  225.8895 H   0  0  0  0  0  0  0  0  0  0  0  0
  139.2308   67.2202  228.2851 H   0  0  0  0  0  0  0  0  0  0  0  0
  140.7307   69.0259  229.1276 H   0  0  0  0  0  0  0  0  0  0  0  0
  141.5522   70.7954  227.5740 H   0  0  0  0  0  0  0  0  0  0  0  0
  141.0480   72.0182  225.4257 H   0  0  0  0  0  0  0  0  0  0  0  0
  142.0597   70.7119  224.6419 H   0  0  0  0  0  0  0  0  0  0  0  0
  140.7821   76.8241  223.1450 H   0  0  0  0  0  0  0  0  0  0  0  0
  141.4483   76.8502  221.4585 H   0  0  0  0  0  0  0  0  0  0  0  0
  140.2595   78.9771  222.2148 H   0  0  0  0  0  0  0  0  0  0  0  0
  139.6773   78.2427  220.6778 H   0  0  0  0  0  0  0  0  0  0  0  0
  134.8132   80.4033  223.8710 H   0  0  0  0  0  0  0  0  0  0  0  0
  1  2  2  0
  2  3  1  0
  3  4  2  0
  4  5  1  0
  5  6  1  0
  6  7  1  0
  7  8  1  0
  8  9  1  0
  9 10  2  0
 10 11  1  0
 11 12  1  0
 12 13  1  0
 13 14  1  0
 14 15  1  0
 15 16  1  0
 16 17  1  0
 11 18  2  0
 18 19  1  0
 19 20  1  0
 20 21  1  0
 21 22  1  0
 22 23  1  0
 23 24  2  0
 24 25  1  0
 25 26  2  0
 26 27  1  0
 27 28  2  0
 28 29  1  0
 19 30  2  0
  8 31  1  0
 31 32  1  0
  4 33  1  0
 33 34  2  0
 34  1  1  0
 32  5  1  0
 30  9  1  0
 17 12  1  0
 29 20  1  0
 28 23  1  0
  1 35  1  0
  2 36  1  0
  3 37  1  0
  6 38  1  0
  6 39  1  0
  7 40  1  0
  7 41  1  0
 13 42  1  0
 13 43  1  0
 14 44  1  0
 14 45  1  0
 16 46  1  0
 16 47  1  0
 17 48  1  0
 17 49  1  0
 21 50  1  0
 21 51  1  0
 22 52  1  0
 22 53  1  0
 24 54  1  0
 25 55  1  0
 26 56  1  0
 27 57  1  0
 29 58  1  0
 29 59  1  0
 31 60  1  0
 31 61  1  0
 32 62  1  0
 32 63  1  0
 34 64  1  0
M  END
>  <UniqueID>  (34) 
275

>  <SMILES>  (34) 
c1ccc(N2CCN(c3nc(N4CCOCC4)nc(N4CCc5ccccc5C4)n3)CC2)nc1

>  <Energy>  (34) 
78.71001359451697

>  <Genealogy>  (34) 
c1ccc(N2CCN(c3nc(N4CCOCC4)nc(N4CCc5ccccc5C4)n3)CC2)nc1 (3D coordinates assigned)
c1ccc(N2CCN(c3nc(N4CCOCC4)nc(N4CCc5ccccc5C4)n3)CC2)nc1 (nonaromatic ring conformer: 78.71001359451697 kcal/mol)

>  <smiles>  (34) 
c1ccc(N2CCN(c3nc(N4CCOCC4)nc(N4CCc5ccccc5C4)n3)CC2)nc1

>  <score_type>  (34) 
oracle

>  <origin>  (34) 
autodockgpu

>  <m_score__min__energy>  (34) 
-8.9399999999999995

>  <m_primary>  (34) 
energy

>  <meeko>  (34) 
{"free_energy": -8.89, "intermolecular_energy": -10.08, "internal_energy": -0.89, "cluster_size": 18, "cluster_id": 1, "rank_in_cluster": 13}

>  <energy>  (34) 
-8.87

>  <cluster_rmsd>  (34) 
0.16

>  <rmsd>  (34) 
270.55

>  <cluster>  (34) 
1

$$$$
XSFBOMDNDOCRMT-UHFFFAOYNA-N
     RDKit          3D

 64 69  0  0  0  0  0  0  0  0999 V2000
  136.8520   81.2280  224.6100 C   0  0  0  0  0  0  0  0  0  0  0  0
  138.2320   81.0280  224.5910 C   0  0  0  0  0  0  0  0  0  0  0  0
  138.7730   79.9740  223.8530 C   0  0  0  0  0  0  0  0  0  0  0  0
  137.9190   79.1090  223.1350 C   0  0  0  0  0  0  0  0  0  0  0  0
  138.4400   78.0090  222.3430 N   0  0  0  0  0  0  0  0  0  0  0  0
  137.6440   76.7820  222.1320 C   0  0  0  0  0  0  0  0  0  0  0  0
  138.3910   75.7310  221.3040 C   0  0  0  0  0  0  0  0  0  0  0  0
  139.7880   75.6140  221.7520 N   0  0  0  0  0  0  0  0  0  0  0  0
  140.4520   74.3370  221.7920 C   0  0  0  0  0  0  0  0  0  0  0  0
  141.4710   74.0690  220.9320 N   0  0  0  0  0  0  0  0  0  0  0  0
  142.1110   72.8730  220.9620 C   0  0  0  0  0  0  0  0  0  0  0  0
  143.1750   72.5960  220.0300 N   0  0  0  0  0  0  0  0  0  0  0  0
  143.7790   73.7090  219.2880 C   0  0  0  0  0  0  0  0  0  0  0  0
  144.7490   73.1790  218.2350 C   0  0  0  0  0  0  0  0  0  0  0  0
  145.6290   72.2590  218.8430 O   0  0  0  0  0  0  0  0  0  0  0  0
  144.9570   71.0500  219.1780 C   0  0  0  0  0  0  0  0  0  0  0  0
  143.4870   71.2080  219.6530 C   0  0  0  0  0  0  0  0  0  0  0  0
  141.7240   71.9330  221.8640 N   0  0  0  0  0  0  0  0  0  0  0  0
  140.7050   72.1790  222.7300 C   0  0  0  0  0  0  0  0  0  0  0  0
  140.2930   71.1650  223.6710 N   0  0  0  0  0  0  0  0  0  0  0  0
  139.0710   70.3790  223.4290 C   0  0  0  0  0  0  0  0  0  0  0  0
  139.2290   68.9530  223.9540 C   0  0  0  0  0  0  0  0  0  0  0  0
  139.6240   68.9820  225.4000 C   0  0  0  0  0  0  0  0  0  0  0  0
  139.1850   67.9770  226.2760 C   0  0  0  0  0  0  0  0  0  0  0  0
  139.5810   67.9890  227.6150 C   0  0  0  0  0  0  0  0  0  0  0  0
  140.4280   68.9940  228.0850 C   0  0  0  0  0  0  0  0  0  0  0  0
  140.8840   69.9880  227.2160 C   0  0  0  0  0  0  0  0  0  0  0  0
  140.4830   69.9910  225.8700 C   0  0  0  0  0  0  0  0  0  0  0  0
  141.0530   71.0240  224.9270 C   0  0  0  0  0  0  0  0  0  0  0  0
  140.0750   73.3840  222.6890 N   0  0  0  0  0  0  0  0  0  0  0  0
  140.5700   76.8290  222.0310 C   0  0  0  0  0  0  0  0  0  0  0  0
  139.7730   78.0960  221.7290 C   0  0  0  0  0  0  0  0  0  0  0  0
  136.5740   79.3360  223.1820 N   0  0  0  0  0  0  0  0  0  0  0  0
  136.0280   80.3620  223.8900 C   0  0  0  0  0  0  0  0  0  0  0  0
  136.4181   82.0587  225.1858 H   0  0  0  0  0  0  0  0  0  0  0  0
  138.8935   81.7002  225.1571 H   0  0  0  0  0  0  0  0  0  0  0  0
  139.8616   79.8178  223.8309 H   0  0  0  0  0  0  0  0  0  0  0  0
  137.3980   76.3485  223.1126 H   0  0  0  0  0  0  0  0  0  0  0  0
  136.7384   77.0637  221.5747 H   0  0  0  0  0  0  0  0  0  0  0  0
  137.8916   74.7578  221.4202 H   0  0  0  0  0  0  0  0  0  0  0  0
  138.3824   76.0402  220.2484 H   0  0  0  0  0  0  0  0  0  0  0  0
  142.9856   74.2875  218.7921 H   0  0  0  0  0  0  0  0  0  0  0  0
  144.3299   74.3509  219.9912 H   0  0  0  0  0  0  0  0  0  0  0  0
  144.1860   72.6770  217.4344 H   0  0  0  0  0  0  0  0  0  0  0  0
  145.3225   74.0131  217.8046 H   0  0  0  0  0  0  0  0  0  0  0  0
  144.9571   70.4048  218.2871 H   0  0  0  0  0  0  0  0  0  0  0  0
  145.5055   70.6282  220.0331 H   0  0  0  0  0  0  0  0  0  0  0  0
  142.8155   70.9022  218.8372 H   0  0  0  0  0  0  0  0  0  0  0  0
  143.3476   70.5752  220.5419 H   0  0  0  0  0  0  0  0  0  0  0  0
  138.2253   70.8603  223.9420 H   0  0  0  0  0  0  0  0  0  0  0  0
  138.8883   70.3369  222.3451 H   0  0  0  0  0  0  0  0  0  0  0  0
  138.2742   68.4173  223.8475 H   0  0  0  0  0  0  0  0  0  0  0  0
  140.0106   68.4388  223.3755 H   0  0  0  0  0  0  0  0  0  0  0  0
  138.5266   67.1770  225.9064 H   0  0  0  0  0  0  0  0  0  0  0  0
  139.2250   67.2055  228.3002 H   0  0  0  0  0  0  0  0  0  0  0  0
  140.7367   69.0032  229.1408 H   0  0  0  0  0  0  0  0  0  0  0  0
  141.5603   70.7720  227.5876 H   0  0  0  0  0  0  0  0  0  0  0  0
  141.0587   71.9969  225.4403 H   0  0  0  0  0  0  0  0  0  0  0  0
  142.0639   70.6867  224.6544 H   0  0  0  0  0  0  0  0  0  0  0  0
  140.8561   76.8326  223.0931 H   0  0  0  0  0  0  0  0  0  0  0  0
  141.4589   76.8207  221.3831 H   0  0  0  0  0  0  0  0  0  0  0  0
  140.3059   78.9676  222.1369 H   0  0  0  0  0  0  0  0  0  0  0  0
  139.6629   78.2026  220.6397 H   0  0  0  0  0  0  0  0  0  0  0  0
  134.9378   80.5086  223.8947 H   0  0  0  0  0  0  0  0  0  0  0  0
  1  2  2  0
  2  3  1  0
  3  4  2  0
  4  5  1  0
  5  6  1  0
  6  7  1  0
  7  8  1  0
  8  9  1  0
  9 10  2  0
 10 11  1  0
 11 12  1  0
 12 13  1  0
 13 14  1  0
 14 15  1  0
 15 16  1  0
 16 17  1  0
 11 18  2  0
 18 19  1  0
 19 20  1  0
 20 21  1  0
 21 22  1  0
 22 23  1  0
 23 24  2  0
 24 25  1  0
 25 26  2  0
 26 27  1  0
 27 28  2  0
 28 29  1  0
 19 30  2  0
  8 31  1  0
 31 32  1  0
  4 33  1  0
 33 34  2  0
 34  1  1  0
 32  5  1  0
 30  9  1  0
 17 12  1  0
 29 20  1  0
 28 23  1  0
  1 35  1  0
  2 36  1  0
  3 37  1  0
  6 38  1  0
  6 39  1  0
  7 40  1  0
  7 41  1  0
 13 42  1  0
 13 43  1  0
 14 44  1  0
 14 45  1  0
 16 46  1  0
 16 47  1  0
 17 48  1  0
 17 49  1  0
 21 50  1  0
 21 51  1  0
 22 52  1  0
 22 53  1  0
 24 54  1  0
 25 55  1  0
 26 56  1  0
 27 57  1  0
 29 58  1  0
 29 59  1  0
 31 60  1  0
 31 61  1  0
 32 62  1  0
 32 63  1  0
 34 64  1  0
M  END
>  <UniqueID>  (35) 
275

>  <SMILES>  (35) 
c1ccc(N2CCN(c3nc(N4CCOCC4)nc(N4CCc5ccccc5C4)n3)CC2)nc1

>  <Energy>  (35) 
78.71001359451697

>  <Genealogy>  (35) 
c1ccc(N2CCN(c3nc(N4CCOCC4)nc(N4CCc5ccccc5C4)n3)CC2)nc1 (3D coordinates assigned)
c1ccc(N2CCN(c3nc(N4CCOCC4)nc(N4CCc5ccccc5C4)n3)CC2)nc1 (nonaromatic ring conformer: 78.71001359451697 kcal/mol)

>  <smiles>  (35) 
c1ccc(N2CCN(c3nc(N4CCOCC4)nc(N4CCc5ccccc5C4)n3)CC2)nc1

>  <score_type>  (35) 
oracle

>  <origin>  (35) 
autodockgpu

>  <m_score__min__energy>  (35) 
-8.9399999999999995

>  <m_primary>  (35) 
energy

>  <meeko>  (35) 
{"free_energy": -8.9, "intermolecular_energy": -10.09, "internal_energy": -0.89, "cluster_size": 18, "cluster_id": 1, "rank_in_cluster": 12}

>  <energy>  (35) 
-8.86

>  <cluster_rmsd>  (35) 
0.17

>  <rmsd>  (35) 
270.5

>  <cluster>  (35) 
1

$$$$
XSFBOMDNDOCRMT-UHFFFAOYNA-N
     RDKit          3D

 64 69  0  0  0  0  0  0  0  0999 V2000
  137.1410   81.5360  224.4610 C   0  0  0  0  0  0  0  0  0  0  0  0
  138.4600   81.0920  224.5650 C   0  0  0  0  0  0  0  0  0  0  0  0
  138.8650   79.9460  223.8780 C   0  0  0  0  0  0  0  0  0  0  0  0
  137.9360   79.2370  223.0870 C   0  0  0  0  0  0  0  0  0  0  0  0
  138.3180   78.0480  222.3450 N   0  0  0  0  0  0  0  0  0  0  0  0
  137.5520   76.7920  222.4770 C   0  0  0  0  0  0  0  0  0  0  0  0
  138.1430   75.6510  221.6420 C   0  0  0  0  0  0  0  0  0  0  0  0
  139.6090   75.6180  221.7740 N   0  0  0  0  0  0  0  0  0  0  0  0
  140.3230   74.3680  221.8260 C   0  0  0  0  0  0  0  0  0  0  0  0
  141.3730   74.1470  220.9910 N   0  0  0  0  0  0  0  0  0  0  0  0
  142.0610   72.9770  221.0320 C   0  0  0  0  0  0  0  0  0  0  0  0
  143.1580   72.7480  220.1270 N   0  0  0  0  0  0  0  0  0  0  0  0
  143.7230   73.8860  219.3910 C   0  0  0  0  0  0  0  0  0  0  0  0
  144.7430   73.3990  218.3650 C   0  0  0  0  0  0  0  0  0  0  0  0
  145.6540   72.5290  218.9990 O   0  0  0  0  0  0  0  0  0  0  0  0
  145.0360   71.2900  219.3270 C   0  0  0  0  0  0  0  0  0  0  0  0
  143.5490   71.3760  219.7660 C   0  0  0  0  0  0  0  0  0  0  0  0
  141.6880   72.0170  221.9190 N   0  0  0  0  0  0  0  0  0  0  0  0
  140.6380   72.2170  222.7600 C   0  0  0  0  0  0  0  0  0  0  0  0
  140.2440   71.1810  223.6840 N   0  0  0  0  0  0  0  0  0  0  0  0
  139.0260   70.3910  223.4390 C   0  0  0  0  0  0  0  0  0  0  0  0
  139.2000   68.9560  223.9350 C   0  0  0  0  0  0  0  0  0  0  0  0
  139.6090   68.9600  225.3770 C   0  0  0  0  0  0  0  0  0  0  0  0
  139.1870   67.9350  226.2370 C   0  0  0  0  0  0  0  0  0  0  0  0
  139.5960   67.9250  227.5730 C   0  0  0  0  0  0  0  0  0  0  0  0
  140.4380   68.9270  228.0540 C   0  0  0  0  0  0  0  0  0  0  0  0
  140.8790   69.9410  227.2000 C   0  0  0  0  0  0  0  0  0  0  0  0
  140.4650   69.9670  225.8580 C   0  0  0  0  0  0  0  0  0  0  0  0
  141.0170   71.0220  224.9300 C   0  0  0  0  0  0  0  0  0  0  0  0
  139.9620   73.3960  222.7070 N   0  0  0  0  0  0  0  0  0  0  0  0
  140.3770   76.8710  221.7120 C   0  0  0  0  0  0  0  0  0  0  0  0
  139.4760   78.0730  221.4400 C   0  0  0  0  0  0  0  0  0  0  0  0
  136.6540   79.7010  223.0150 N   0  0  0  0  0  0  0  0  0  0  0  0
  136.2420   80.8190  223.6710 C   0  0  0  0  0  0  0  0  0  0  0  0
  136.8142   82.4402  224.9954 H   0  0  0  0  0  0  0  0  0  0  0  0
  139.1796   81.6442  225.1874 H   0  0  0  0  0  0  0  0  0  0  0  0
  139.9054   79.5967  223.9531 H   0  0  0  0  0  0  0  0  0  0  0  0
  137.5500   76.4901  223.5348 H   0  0  0  0  0  0  0  0  0  0  0  0
  136.5335   76.9824  222.1076 H   0  0  0  0  0  0  0  0  0  0  0  0
  137.7269   74.6944  221.9911 H   0  0  0  0  0  0  0  0  0  0  0  0
  137.8856   75.8147  220.5851 H   0  0  0  0  0  0  0  0  0  0  0  0
  142.9136   74.4208  218.8725 H   0  0  0  0  0  0  0  0  0  0  0  0
  144.2240   74.5592  220.1022 H   0  0  0  0  0  0  0  0  0  0  0  0
  144.2249   72.8640  217.5555 H   0  0  0  0  0  0  0  0  0  0  0  0
  145.2836   74.2586  217.9422 H   0  0  0  0  0  0  0  0  0  0  0  0
  145.0900   70.6401  218.4411 H   0  0  0  0  0  0  0  0  0  0  0  0
  145.5844   70.9021  220.1981 H   0  0  0  0  0  0  0  0  0  0  0  0
  142.9136   71.0325  218.9364 H   0  0  0  0  0  0  0  0  0  0  0  0
  143.4206   70.7416  220.6554 H   0  0  0  0  0  0  0  0  0  0  0  0
  138.1820   70.8559  223.9695 H   0  0  0  0  0  0  0  0  0  0  0  0
  138.8326   70.3685  222.3564 H   0  0  0  0  0  0  0  0  0  0  0  0
  138.2482   68.4151  223.8275 H   0  0  0  0  0  0  0  0  0  0  0  0
  139.9798   68.4592  223.3391 H   0  0  0  0  0  0  0  0  0  0  0  0
  138.5320   67.1366  225.8582 H   0  0  0  0  0  0  0  0  0  0  0  0
  139.2532   67.1255  228.2463 H   0  0  0  0  0  0  0  0  0  0  0  0
  140.7554   68.9191  229.1072 H   0  0  0  0  0  0  0  0  0  0  0  0
  141.5534   70.7224  227.5802 H   0  0  0  0  0  0  0  0  0  0  0  0
  141.0198   71.9849  225.4619 H   0  0  0  0  0  0  0  0  0  0  0  0
  142.0278   70.6981  224.6413 H   0  0  0  0  0  0  0  0  0  0  0  0
  140.8917   77.0215  222.6724 H   0  0  0  0  0  0  0  0  0  0  0  0
  141.0990   76.7900  220.8861 H   0  0  0  0  0  0  0  0  0  0  0  0
  140.0458   78.9997  221.6030 H   0  0  0  0  0  0  0  0  0  0  0  0
  139.1221   78.0309  220.3993 H   0  0  0  0  0  0  0  0  0  0  0  0
  135.1996   81.1580  223.5786 H   0  0  0  0  0  0  0  0  0  0  0  0
  1  2  2  0
  2  3  1  0
  3  4  2  0
  4  5  1  0
  5  6  1  0
  6  7  1  0
  7  8  1  0
  8  9  1  0
  9 10  2  0
 10 11  1  0
 11 12  1  0
 12 13  1  0
 13 14  1  0
 14 15  1  0
 15 16  1  0
 16 17  1  0
 11 18  2  0
 18 19  1  0
 19 20  1  0
 20 21  1  0
 21 22  1  0
 22 23  1  0
 23 24  2  0
 24 25  1  0
 25 26  2  0
 26 27  1  0
 27 28  2  0
 28 29  1  0
 19 30  2  0
  8 31  1  0
 31 32  1  0
  4 33  1  0
 33 34  2  0
 34  1  1  0
 32  5  1  0
 30  9  1  0
 17 12  1  0
 29 20  1  0
 28 23  1  0
  1 35  1  0
  2 36  1  0
  3 37  1  0
  6 38  1  0
  6 39  1  0
  7 40  1  0
  7 41  1  0
 13 42  1  0
 13 43  1  0
 14 44  1  0
 14 45  1  0
 16 46  1  0
 16 47  1  0
 17 48  1  0
 17 49  1  0
 21 50  1  0
 21 51  1  0
 22 52  1  0
 22 53  1  0
 24 54  1  0
 25 55  1  0
 26 56  1  0
 27 57  1  0
 29 58  1  0
 29 59  1  0
 31 60  1  0
 31 61  1  0
 32 62  1  0
 32 63  1  0
 34 64  1  0
M  END
>  <UniqueID>  (36) 
275

>  <SMILES>  (36) 
c1ccc(N2CCN(c3nc(N4CCOCC4)nc(N4CCc5ccccc5C4)n3)CC2)nc1

>  <Energy>  (36) 
78.71001359451697

>  <Genealogy>  (36) 
c1ccc(N2CCN(c3nc(N4CCOCC4)nc(N4CCc5ccccc5C4)n3)CC2)nc1 (3D coordinates assigned)
c1ccc(N2CCN(c3nc(N4CCOCC4)nc(N4CCc5ccccc5C4)n3)CC2)nc1 (nonaromatic ring conformer: 78.71001359451697 kcal/mol)

>  <smiles>  (36) 
c1ccc(N2CCN(c3nc(N4CCOCC4)nc(N4CCc5ccccc5C4)n3)CC2)nc1

>  <score_type>  (36) 
oracle

>  <origin>  (36) 
autodockgpu

>  <m_score__min__energy>  (36) 
-8.9399999999999995

>  <m_primary>  (36) 
energy

>  <meeko>  (36) 
{"free_energy": -8.87, "intermolecular_energy": -10.06, "internal_energy": -0.89, "cluster_size": 18, "cluster_id": 1, "rank_in_cluster": 14}

>  <energy>  (36) 
-8.86

>  <cluster_rmsd>  (36) 
0.47

>  <rmsd>  (36) 
270.56

>  <cluster>  (36) 
1

$$$$
XSFBOMDNDOCRMT-UHFFFAOYNA-N
     RDKit          3D

 64 69  0  0  0  0  0  0  0  0999 V2000
  137.0570   81.4210  224.5490 C   0  0  0  0  0  0  0  0  0  0  0  0
  138.4120   81.0870  224.5670 C   0  0  0  0  0  0  0  0  0  0  0  0
  138.8640   79.9750  223.8550 C   0  0  0  0  0  0  0  0  0  0  0  0
  137.9480   79.1880  223.1240 C   0  0  0  0  0  0  0  0  0  0  0  0
  138.3770   78.0320  222.3590 N   0  0  0  0  0  0  0  0  0  0  0  0
  137.5930   76.7800  222.3710 C   0  0  0  0  0  0  0  0  0  0  0  0
  138.2390   75.6730  221.5310 C   0  0  0  0  0  0  0  0  0  0  0  0
  139.6900   75.6160  221.7750 N   0  0  0  0  0  0  0  0  0  0  0  0
  140.3890   74.3580  221.8220 C   0  0  0  0  0  0  0  0  0  0  0  0
  141.4290   74.1220  220.9790 N   0  0  0  0  0  0  0  0  0  0  0  0
  142.1010   72.9430  221.0160 C   0  0  0  0  0  0  0  0  0  0  0  0
  143.1890   72.7000  220.1020 N   0  0  0  0  0  0  0  0  0  0  0  0
  143.8570   73.8430  219.4690 C   0  0  0  0  0  0  0  0  0  0  0  0
  144.8460   73.3600  218.4120 C   0  0  0  0  0  0  0  0  0  0  0  0
  145.6720   72.3660  218.9760 O   0  0  0  0  0  0  0  0  0  0  0  0
  144.9480   71.1600  219.1930 C   0  0  0  0  0  0  0  0  0  0  0  0
  143.4680   71.3350  219.6280 C   0  0  0  0  0  0  0  0  0  0  0  0
  141.7240   71.9900  221.9070 N   0  0  0  0  0  0  0  0  0  0  0  0
  140.6840   72.2040  222.7560 C   0  0  0  0  0  0  0  0  0  0  0  0
  140.2840   71.1740  223.6860 N   0  0  0  0  0  0  0  0  0  0  0  0
  139.0620   70.3890  223.4440 C   0  0  0  0  0  0  0  0  0  0  0  0
  139.2290   68.9560  223.9460 C   0  0  0  0  0  0  0  0  0  0  0  0
  139.6370   68.9640  225.3880 C   0  0  0  0  0  0  0  0  0  0  0  0
  139.2100   67.9450  226.2530 C   0  0  0  0  0  0  0  0  0  0  0  0
  139.6190   67.9390  227.5890 C   0  0  0  0  0  0  0  0  0  0  0  0
  140.4670   68.9390  228.0660 C   0  0  0  0  0  0  0  0  0  0  0  0
  140.9120   69.9470  227.2070 C   0  0  0  0  0  0  0  0  0  0  0  0
  140.4980   69.9690  225.8650 C   0  0  0  0  0  0  0  0  0  0  0  0
  141.0570   71.0170  224.9320 C   0  0  0  0  0  0  0  0  0  0  0  0
  140.0230   73.3910  222.7080 N   0  0  0  0  0  0  0  0  0  0  0  0
  140.4700   76.8620  221.8320 C   0  0  0  0  0  0  0  0  0  0  0  0
  139.6020   78.0860  221.5480 C   0  0  0  0  0  0  0  0  0  0  0  0
  136.6300   79.5460  223.1350 N   0  0  0  0  0  0  0  0  0  0  0  0
  136.1710   80.6300  223.8170 C   0  0  0  0  0  0  0  0  0  0  0  0
  136.6921   82.2971  225.1051 H   0  0  0  0  0  0  0  0  0  0  0  0
  139.1226   81.6993  225.1415 H   0  0  0  0  0  0  0  0  0  0  0  0
  139.9321   79.7123  223.8634 H   0  0  0  0  0  0  0  0  0  0  0  0
  137.5057   76.4288  223.4098 H   0  0  0  0  0  0  0  0  0  0  0  0
  136.6080   76.9991  221.9331 H   0  0  0  0  0  0  0  0  0  0  0  0
  137.7891   74.7060  221.8002 H   0  0  0  0  0  0  0  0  0  0  0  0
  138.0670   75.8901  220.4664 H   0  0  0  0  0  0  0  0  0  0  0  0
  143.1023   74.4861  218.9927 H   0  0  0  0  0  0  0  0  0  0  0  0
  144.4033   74.4088  220.2380 H   0  0  0  0  0  0  0  0  0  0  0  0
  144.2960   72.9407  217.5566 H   0  0  0  0  0  0  0  0  0  0  0  0
  145.4622   74.2033  218.0668 H   0  0  0  0  0  0  0  0  0  0  0  0
  144.9594   70.5851  218.2553 H   0  0  0  0  0  0  0  0  0  0  0  0
  145.4501   70.6543  220.0309 H   0  0  0  0  0  0  0  0  0  0  0  0
  142.8173   71.1180  218.7680 H   0  0  0  0  0  0  0  0  0  0  0  0
  143.2745   70.6411  220.4593 H   0  0  0  0  0  0  0  0  0  0  0  0
  138.2201   70.8603  223.9724 H   0  0  0  0  0  0  0  0  0  0  0  0
  138.8685   70.3629  222.3615 H   0  0  0  0  0  0  0  0  0  0  0  0
  138.2748   68.4191  223.8401 H   0  0  0  0  0  0  0  0  0  0  0  0
  140.0070   68.4532  223.3527 H   0  0  0  0  0  0  0  0  0  0  0  0
  138.5510   67.1481  225.8780 H   0  0  0  0  0  0  0  0  0  0  0  0
  139.2718   67.1445  228.2659 H   0  0  0  0  0  0  0  0  0  0  0  0
  140.7854   68.9338  229.1189 H   0  0  0  0  0  0  0  0  0  0  0  0
  141.5899   70.7272  227.5835 H   0  0  0  0  0  0  0  0  0  0  0  0
  141.0658   71.9823  225.4593 H   0  0  0  0  0  0  0  0  0  0  0  0
  142.0662   70.6866  224.6449 H   0  0  0  0  0  0  0  0  0  0  0  0
  140.9094   76.9618  222.8355 H   0  0  0  0  0  0  0  0  0  0  0  0
  141.2535   76.8113  221.0615 H   0  0  0  0  0  0  0  0  0  0  0  0
  140.1646   78.9976  221.7979 H   0  0  0  0  0  0  0  0  0  0  0  0
  139.3297   78.0965  220.4823 H   0  0  0  0  0  0  0  0  0  0  0  0
  135.1008   80.8829  223.7913 H   0  0  0  0  0  0  0  0  0  0  0  0
  1  2  2  0
  2  3  1  0
  3  4  2  0
  4  5  1  0
  5  6  1  0
  6  7  1  0
  7  8  1  0
  8  9  1  0
  9 10  2  0
 10 11  1  0
 11 12  1  0
 12 13  1  0
 13 14  1  0
 14 15  1  0
 15 16  1  0
 16 17  1  0
 11 18  2  0
 18 19  1  0
 19 20  1  0
 20 21  1  0
 21 22  1  0
 22 23  1  0
 23 24  2  0
 24 25  1  0
 25 26  2  0
 26 27  1  0
 27 28  2  0
 28 29  1  0
 19 30  2  0
  8 31  1  0
 31 32  1  0
  4 33  1  0
 33 34  2  0
 34  1  1  0
 32  5  1  0
 30  9  1  0
 17 12  1  0
 29 20  1  0
 28 23  1  0
  1 35  1  0
  2 36  1  0
  3 37  1  0
  6 38  1  0
  6 39  1  0
  7 40  1  0
  7 41  1  0
 13 42  1  0
 13 43  1  0
 14 44  1  0
 14 45  1  0
 16 46  1  0
 16 47  1  0
 17 48  1  0
 17 49  1  0
 21 50  1  0
 21 51  1  0
 22 52  1  0
 22 53  1  0
 24 54  1  0
 25 55  1  0
 26 56  1  0
 27 57  1  0
 29 58  1  0
 29 59  1  0
 31 60  1  0
 31 61  1  0
 32 62  1  0
 32 63  1  0
 34 64  1  0
M  END
>  <UniqueID>  (37) 
275

>  <SMILES>  (37) 
c1ccc(N2CCN(c3nc(N4CCOCC4)nc(N4CCc5ccccc5C4)n3)CC2)nc1

>  <Energy>  (37) 
78.71001359451697

>  <Genealogy>  (37) 
c1ccc(N2CCN(c3nc(N4CCOCC4)nc(N4CCc5ccccc5C4)n3)CC2)nc1 (3D coordinates assigned)
c1ccc(N2CCN(c3nc(N4CCOCC4)nc(N4CCc5ccccc5C4)n3)CC2)nc1 (nonaromatic ring conformer: 78.71001359451697 kcal/mol)

>  <smiles>  (37) 
c1ccc(N2CCN(c3nc(N4CCOCC4)nc(N4CCc5ccccc5C4)n3)CC2)nc1

>  <score_type>  (37) 
oracle

>  <origin>  (37) 
autodockgpu

>  <m_score__min__energy>  (37) 
-8.9399999999999995

>  <m_primary>  (37) 
energy

>  <meeko>  (37) 
{"free_energy": -8.92, "intermolecular_energy": -10.12, "internal_energy": -0.89, "cluster_size": 18, "cluster_id": 1, "rank_in_cluster": 6}

>  <energy>  (37) 
-8.73

>  <cluster_rmsd>  (37) 
0.55

>  <rmsd>  (37) 
270.57

>  <cluster>  (37) 
1

$$$$
XSFBOMDNDOCRMT-UHFFFAOYNA-N
     RDKit          3D

 64 69  0  0  0  0  0  0  0  0999 V2000
  137.0580   81.4210  224.6000 C   0  0  0  0  0  0  0  0  0  0  0  0
  138.4240   81.1520  224.5110 C   0  0  0  0  0  0  0  0  0  0  0  0
  138.8710   80.0430  223.7900 C   0  0  0  0  0  0  0  0  0  0  0  0
  137.9360   79.1930  223.1600 C   0  0  0  0  0  0  0  0  0  0  0  0
  138.3570   78.0370  222.3890 N   0  0  0  0  0  0  0  0  0  0  0  0
  137.5730   76.7850  222.4090 C   0  0  0  0  0  0  0  0  0  0  0  0
  138.2100   75.6780  221.5610 C   0  0  0  0  0  0  0  0  0  0  0  0
  139.6630   75.6220  221.7890 N   0  0  0  0  0  0  0  0  0  0  0  0
  140.3610   74.3620  221.8280 C   0  0  0  0  0  0  0  0  0  0  0  0
  141.4000   74.1310  220.9820 N   0  0  0  0  0  0  0  0  0  0  0  0
  142.0730   72.9530  221.0110 C   0  0  0  0  0  0  0  0  0  0  0  0
  143.1580   72.7140  220.0940 N   0  0  0  0  0  0  0  0  0  0  0  0
  143.8880   73.8610  219.5410 C   0  0  0  0  0  0  0  0  0  0  0  0
  144.8660   73.3970  218.4640 C   0  0  0  0  0  0  0  0  0  0  0  0
  145.6360   72.3310  218.9720 O   0  0  0  0  0  0  0  0  0  0  0  0
  144.8520   71.1500  219.1060 C   0  0  0  0  0  0  0  0  0  0  0  0
  143.3780   71.3690  219.5370 C   0  0  0  0  0  0  0  0  0  0  0  0
  141.6970   71.9940  221.8970 N   0  0  0  0  0  0  0  0  0  0  0  0
  140.6580   72.2030  222.7500 C   0  0  0  0  0  0  0  0  0  0  0  0
  140.2600   71.1690  223.6740 N   0  0  0  0  0  0  0  0  0  0  0  0
  139.0390   70.3830  223.4290 C   0  0  0  0  0  0  0  0  0  0  0  0
  139.2080   68.9480  223.9240 C   0  0  0  0  0  0  0  0  0  0  0  0
  139.6170   68.9490  225.3660 C   0  0  0  0  0  0  0  0  0  0  0  0
  139.1910   67.9250  226.2250 C   0  0  0  0  0  0  0  0  0  0  0  0
  139.6000   67.9130  227.5610 C   0  0  0  0  0  0  0  0  0  0  0  0
  140.4470   68.9120  228.0430 C   0  0  0  0  0  0  0  0  0  0  0  0
  140.8910   69.9240  227.1890 C   0  0  0  0  0  0  0  0  0  0  0  0
  140.4770   69.9520  225.8470 C   0  0  0  0  0  0  0  0  0  0  0  0
  141.0340   71.0060  224.9190 C   0  0  0  0  0  0  0  0  0  0  0  0
  139.9970   73.3910  222.7090 N   0  0  0  0  0  0  0  0  0  0  0  0
  140.4440   76.8670  221.8390 C   0  0  0  0  0  0  0  0  0  0  0  0
  139.5740   78.0910  221.5660 C   0  0  0  0  0  0  0  0  0  0  0  0
  136.6080   79.4880  223.2740 N   0  0  0  0  0  0  0  0  0  0  0  0
  136.1540   80.5670  223.9660 C   0  0  0  0  0  0  0  0  0  0  0  0
  136.6979   82.2949  225.1626 H   0  0  0  0  0  0  0  0  0  0  0  0
  139.1486   81.8133  225.0086 H   0  0  0  0  0  0  0  0  0  0  0  0
  139.9479   79.8322  223.7130 H   0  0  0  0  0  0  0  0  0  0  0  0
  137.4971   76.4332  223.4485 H   0  0  0  0  0  0  0  0  0  0  0  0
  136.5832   77.0044  221.9821 H   0  0  0  0  0  0  0  0  0  0  0  0
  137.7636   74.7107  221.8348 H   0  0  0  0  0  0  0  0  0  0  0  0
  138.0259   75.8949  220.4984 H   0  0  0  0  0  0  0  0  0  0  0  0
  143.1711   74.5689  219.0996 H   0  0  0  0  0  0  0  0  0  0  0  0
  144.4513   74.3503  220.3493 H   0  0  0  0  0  0  0  0  0  0  0  0
  144.3069   73.0592  217.5789 H   0  0  0  0  0  0  0  0  0  0  0  0
  145.5261   74.2291  218.1780 H   0  0  0  0  0  0  0  0  0  0  0  0
  144.8474   70.6348  218.1341 H   0  0  0  0  0  0  0  0  0  0  0  0
  145.3189   70.5692  219.9152 H   0  0  0  0  0  0  0  0  0  0  0  0
  142.7285   71.2381  218.6589 H   0  0  0  0  0  0  0  0  0  0  0  0
  143.1417   70.6347  220.3212 H   0  0  0  0  0  0  0  0  0  0  0  0
  138.1967   70.8506  223.9600 H   0  0  0  0  0  0  0  0  0  0  0  0
  138.8454   70.3615  222.3464 H   0  0  0  0  0  0  0  0  0  0  0  0
  138.2543   68.4105  223.8160 H   0  0  0  0  0  0  0  0  0  0  0  0
  139.9863   68.4492  223.3278 H   0  0  0  0  0  0  0  0  0  0  0  0
  138.5331   67.1292  225.8457 H   0  0  0  0  0  0  0  0  0  0  0  0
  139.2538   67.1148  228.2340 H   0  0  0  0  0  0  0  0  0  0  0  0
  140.7650   68.9023  229.0960 H   0  0  0  0  0  0  0  0  0  0  0  0
  141.5683   70.7030  227.5692 H   0  0  0  0  0  0  0  0  0  0  0  0
  141.0418   71.9685  225.4515 H   0  0  0  0  0  0  0  0  0  0  0  0
  142.0433   70.6783  224.6294 H   0  0  0  0  0  0  0  0  0  0  0  0
  140.8943   76.9654  222.8378 H   0  0  0  0  0  0  0  0  0  0  0  0
  141.2191   76.8168  221.0601 H   0  0  0  0  0  0  0  0  0  0  0  0
  140.1396   79.0019  221.8115 H   0  0  0  0  0  0  0  0  0  0  0  0
  139.2907   78.1027  220.5032 H   0  0  0  0  0  0  0  0  0  0  0  0
  135.0740   80.7669  224.0262 H   0  0  0  0  0  0  0  0  0  0  0  0
  1  2  2  0
  2  3  1  0
  3  4  2  0
  4  5  1  0
  5  6  1  0
  6  7  1  0
  7  8  1  0
  8  9  1  0
  9 10  2  0
 10 11  1  0
 11 12  1  0
 12 13  1  0
 13 14  1  0
 14 15  1  0
 15 16  1  0
 16 17  1  0
 11 18  2  0
 18 19  1  0
 19 20  1  0
 20 21  1  0
 21 22  1  0
 22 23  1  0
 23 24  2  0
 24 25  1  0
 25 26  2  0
 26 27  1  0
 27 28  2  0
 28 29  1  0
 19 30  2  0
  8 31  1  0
 31 32  1  0
  4 33  1  0
 33 34  2  0
 34  1  1  0
 32  5  1  0
 30  9  1  0
 17 12  1  0
 29 20  1  0
 28 23  1  0
  1 35  1  0
  2 36  1  0
  3 37  1  0
  6 38  1  0
  6 39  1  0
  7 40  1  0
  7 41  1  0
 13 42  1  0
 13 43  1  0
 14 44  1  0
 14 45  1  0
 16 46  1  0
 16 47  1  0
 17 48  1  0
 17 49  1  0
 21 50  1  0
 21 51  1  0
 22 52  1  0
 22 53  1  0
 24 54  1  0
 25 55  1  0
 26 56  1  0
 27 57  1  0
 29 58  1  0
 29 59  1  0
 31 60  1  0
 31 61  1  0
 32 62  1  0
 32 63  1  0
 34 64  1  0
M  END
>  <UniqueID>  (38) 
275

>  <SMILES>  (38) 
c1ccc(N2CCN(c3nc(N4CCOCC4)nc(N4CCc5ccccc5C4)n3)CC2)nc1

>  <Energy>  (38) 
78.71001359451697

>  <Genealogy>  (38) 
c1ccc(N2CCN(c3nc(N4CCOCC4)nc(N4CCc5ccccc5C4)n3)CC2)nc1 (3D coordinates assigned)
c1ccc(N2CCN(c3nc(N4CCOCC4)nc(N4CCc5ccccc5C4)n3)CC2)nc1 (nonaromatic ring conformer: 78.71001359451697 kcal/mol)

>  <smiles>  (38) 
c1ccc(N2CCN(c3nc(N4CCOCC4)nc(N4CCc5ccccc5C4)n3)CC2)nc1

>  <score_type>  (38) 
oracle

>  <origin>  (38) 
autodockgpu

>  <m_score__min__energy>  (38) 
-8.9399999999999995

>  <m_primary>  (38) 
energy

>  <meeko>  (38) 
{"free_energy": -8.92, "intermolecular_energy": -10.11, "internal_energy": -0.89, "cluster_size": 18, "cluster_id": 1, "rank_in_cluster": 8}

>  <energy>  (38) 
-8.37

>  <cluster_rmsd>  (38) 
1.16

>  <rmsd>  (38) 
270.49

>  <cluster>  (38) 
1

$$$$
XSFBOMDNDOCRMT-UHFFFAOYNA-N
     RDKit          3D

 64 69  0  0  0  0  0  0  0  0999 V2000
  137.0840   81.4300  224.5280 C   0  0  0  0  0  0  0  0  0  0  0  0
  138.4350   81.0830  224.5420 C   0  0  0  0  0  0  0  0  0  0  0  0
  138.8740   79.9610  223.8360 C   0  0  0  0  0  0  0  0  0  0  0  0
  137.9460   79.1780  223.1160 C   0  0  0  0  0  0  0  0  0  0  0  0
  138.3600   78.0110  222.3560 N   0  0  0  0  0  0  0  0  0  0  0  0
  137.5820   76.7570  222.4070 C   0  0  0  0  0  0  0  0  0  0  0  0
  138.2100   75.6400  221.5680 C   0  0  0  0  0  0  0  0  0  0  0  0
  139.6670   75.5920  221.7750 N   0  0  0  0  0  0  0  0  0  0  0  0
  140.3710   74.3360  221.8230 C   0  0  0  0  0  0  0  0  0  0  0  0
  141.4090   74.1030  220.9770 N   0  0  0  0  0  0  0  0  0  0  0  0
  142.0870   72.9280  221.0150 C   0  0  0  0  0  0  0  0  0  0  0  0
  143.1720   72.6860  220.0980 N   0  0  0  0  0  0  0  0  0  0  0  0
  143.8320   73.8310  219.4580 C   0  0  0  0  0  0  0  0  0  0  0  0
  144.8200   73.3490  218.3990 C   0  0  0  0  0  0  0  0  0  0  0  0
  145.6530   72.3610  218.9640 O   0  0  0  0  0  0  0  0  0  0  0  0
  144.9360   71.1520  219.1880 C   0  0  0  0  0  0  0  0  0  0  0  0
  143.4570   71.3210  219.6280 C   0  0  0  0  0  0  0  0  0  0  0  0
  141.7170   71.9750  221.9100 N   0  0  0  0  0  0  0  0  0  0  0  0
  140.6790   72.1860  222.7620 C   0  0  0  0  0  0  0  0  0  0  0  0
  140.2870   71.1570  223.6950 N   0  0  0  0  0  0  0  0  0  0  0  0
  139.0630   70.3720  223.4640 C   0  0  0  0  0  0  0  0  0  0  0  0
  139.2340   68.9390  223.9660 C   0  0  0  0  0  0  0  0  0  0  0  0
  139.6540   68.9490  225.4050 C   0  0  0  0  0  0  0  0  0  0  0  0
  139.2340   67.9300  226.2740 C   0  0  0  0  0  0  0  0  0  0  0  0
  139.6530   67.9250  227.6060 C   0  0  0  0  0  0  0  0  0  0  0  0
  140.5040   68.9260  228.0760 C   0  0  0  0  0  0  0  0  0  0  0  0
  140.9430   69.9340  227.2120 C   0  0  0  0  0  0  0  0  0  0  0  0
  140.5190   69.9540  225.8740 C   0  0  0  0  0  0  0  0  0  0  0  0
  141.0690   71.0020  224.9350 C   0  0  0  0  0  0  0  0  0  0  0  0
  140.0120   73.3710  222.7130 N   0  0  0  0  0  0  0  0  0  0  0  0
  140.4430   76.8410  221.7940 C   0  0  0  0  0  0  0  0  0  0  0  0
  139.5640   78.0580  221.5150 C   0  0  0  0  0  0  0  0  0  0  0  0
  136.6310   79.5480  223.1310 N   0  0  0  0  0  0  0  0  0  0  0  0
  136.1860   80.6410  223.8070 C   0  0  0  0  0  0  0  0  0  0  0  0
  136.7306   82.3145  225.0783 H   0  0  0  0  0  0  0  0  0  0  0  0
  139.1540   81.6927  225.1088 H   0  0  0  0  0  0  0  0  0  0  0  0
  139.9396   79.6882  223.8409 H   0  0  0  0  0  0  0  0  0  0  0  0
  137.5228   76.4213  223.4529 H   0  0  0  0  0  0  0  0  0  0  0  0
  136.5853   76.9660  221.9911 H   0  0  0  0  0  0  0  0  0  0  0  0
  137.7711   74.6757  221.8636 H   0  0  0  0  0  0  0  0  0  0  0  0
  138.0096   75.8399  220.5050 H   0  0  0  0  0  0  0  0  0  0  0  0
  143.0722   74.4683  218.9821 H   0  0  0  0  0  0  0  0  0  0  0  0
  144.3780   74.4027  220.2229 H   0  0  0  0  0  0  0  0  0  0  0  0
  144.2692   72.9239  217.5470 H   0  0  0  0  0  0  0  0  0  0  0  0
  145.4308   74.1941  218.0485 H   0  0  0  0  0  0  0  0  0  0  0  0
  144.9468   70.5738  218.2523 H   0  0  0  0  0  0  0  0  0  0  0  0
  145.4439   70.6518  220.0258 H   0  0  0  0  0  0  0  0  0  0  0  0
  142.8043   71.0973  218.7713 H   0  0  0  0  0  0  0  0  0  0  0  0
  143.2708   70.6294  220.4629 H   0  0  0  0  0  0  0  0  0  0  0  0
  138.2257   70.8439  223.9990 H   0  0  0  0  0  0  0  0  0  0  0  0
  138.8605   70.3449  222.3831 H   0  0  0  0  0  0  0  0  0  0  0  0
  138.2789   68.4020  223.8686 H   0  0  0  0  0  0  0  0  0  0  0  0
  140.0067   68.4352  223.3668 H   0  0  0  0  0  0  0  0  0  0  0  0
  138.5725   67.1326  225.9045 H   0  0  0  0  0  0  0  0  0  0  0  0
  139.3116   67.1306  228.2860 H   0  0  0  0  0  0  0  0  0  0  0  0
  140.8297   68.9221  229.1267 H   0  0  0  0  0  0  0  0  0  0  0  0
  141.6236   70.7147  227.5825 H   0  0  0  0  0  0  0  0  0  0  0  0
  141.0803   71.9679  225.4612 H   0  0  0  0  0  0  0  0  0  0  0  0
  142.0761   70.6722  224.6403 H   0  0  0  0  0  0  0  0  0  0  0  0
  140.9076   76.9567  222.7843 H   0  0  0  0  0  0  0  0  0  0  0  0
  141.2063   76.7818  221.0042 H   0  0  0  0  0  0  0  0  0  0  0  0
  140.1292   78.9747  221.7388 H   0  0  0  0  0  0  0  0  0  0  0  0
  139.2656   78.0531  220.4563 H   0  0  0  0  0  0  0  0  0  0  0  0
  135.1180   80.9034  223.7856 H   0  0  0  0  0  0  0  0  0  0  0  0
  1  2  2  0
  2  3  1  0
  3  4  2  0
  4  5  1  0
  5  6  1  0
  6  7  1  0
  7  8  1  0
  8  9  1  0
  9 10  2  0
 10 11  1  0
 11 12  1  0
 12 13  1  0
 13 14  1  0
 14 15  1  0
 15 16  1  0
 16 17  1  0
 11 18  2  0
 18 19  1  0
 19 20  1  0
 20 21  1  0
 21 22  1  0
 22 23  1  0
 23 24  2  0
 24 25  1  0
 25 26  2  0
 26 27  1  0
 27 28  2  0
 28 29  1  0
 19 30  2  0
  8 31  1  0
 31 32  1  0
  4 33  1  0
 33 34  2  0
 34  1  1  0
 32  5  1  0
 30  9  1  0
 17 12  1  0
 29 20  1  0
 28 23  1  0
  1 35  1  0
  2 36  1  0
  3 37  1  0
  6 38  1  0
  6 39  1  0
  7 40  1  0
  7 41  1  0
 13 42  1  0
 13 43  1  0
 14 44  1  0
 14 45  1  0
 16 46  1  0
 16 47  1  0
 17 48  1  0
 17 49  1  0
 21 50  1  0
 21 51  1  0
 22 52  1  0
 22 53  1  0
 24 54  1  0
 25 55  1  0
 26 56  1  0
 27 57  1  0
 29 58  1  0
 29 59  1  0
 31 60  1  0
 31 61  1  0
 32 62  1  0
 32 63  1  0
 34 64  1  0
M  END
>  <UniqueID>  (39) 
275

>  <SMILES>  (39) 
c1ccc(N2CCN(c3nc(N4CCOCC4)nc(N4CCc5ccccc5C4)n3)CC2)nc1

>  <Energy>  (39) 
78.71001359451697

>  <Genealogy>  (39) 
c1ccc(N2CCN(c3nc(N4CCOCC4)nc(N4CCc5ccccc5C4)n3)CC2)nc1 (3D coordinates assigned)
c1ccc(N2CCN(c3nc(N4CCOCC4)nc(N4CCc5ccccc5C4)n3)CC2)nc1 (nonaromatic ring conformer: 78.71001359451697 kcal/mol)

>  <smiles>  (39) 
c1ccc(N2CCN(c3nc(N4CCOCC4)nc(N4CCc5ccccc5C4)n3)CC2)nc1

>  <score_type>  (39) 
oracle

>  <origin>  (39) 
autodockgpu

>  <m_score__min__energy>  (39) 
-8.9399999999999995

>  <m_primary>  (39) 
energy

>  <meeko>  (39) 
{"free_energy": -8.91, "intermolecular_energy": -10.1, "internal_energy": -0.89, "cluster_size": 18, "cluster_id": 1, "rank_in_cluster": 11}

>  <energy>  (39) 
-8.72

>  <cluster_rmsd>  (39) 
0.0

>  <rmsd>  (39) 
270.03

>  <cluster>  (39) 
2

$$$$
XSFBOMDNDOCRMT-UHFFFAOYNA-N
     RDKit          3D

 64 69  0  0  0  0  0  0  0  0999 V2000
  137.0360   81.4080  224.5570 C   0  0  0  0  0  0  0  0  0  0  0  0
  138.3940   81.0900  224.5690 C   0  0  0  0  0  0  0  0  0  0  0  0
  138.8570   79.9860  223.8510 C   0  0  0  0  0  0  0  0  0  0  0  0
  137.9470   79.1900  223.1220 C   0  0  0  0  0  0  0  0  0  0  0  0
  138.3870   78.0420  222.3500 N   0  0  0  0  0  0  0  0  0  0  0  0
  137.6000   76.7910  222.3350 C   0  0  0  0  0  0  0  0  0  0  0  0
  138.2580   75.6920  221.4940 C   0  0  0  0  0  0  0  0  0  0  0  0
  139.7040   75.6290  221.7620 N   0  0  0  0  0  0  0  0  0  0  0  0
  140.3990   74.3680  221.8080 C   0  0  0  0  0  0  0  0  0  0  0  0
  141.4400   74.1320  220.9660 N   0  0  0  0  0  0  0  0  0  0  0  0
  142.1090   72.9510  221.0010 C   0  0  0  0  0  0  0  0  0  0  0  0
  143.1970   72.7060  220.0880 N   0  0  0  0  0  0  0  0  0  0  0  0
  143.8650   73.8500  219.4550 C   0  0  0  0  0  0  0  0  0  0  0  0
  144.8560   73.3650  218.3990 C   0  0  0  0  0  0  0  0  0  0  0  0
  145.6820   72.3720  218.9660 O   0  0  0  0  0  0  0  0  0  0  0  0
  144.9580   71.1660  219.1840 C   0  0  0  0  0  0  0  0  0  0  0  0
  143.4770   71.3410  219.6170 C   0  0  0  0  0  0  0  0  0  0  0  0
  141.7270   71.9960  221.8890 N   0  0  0  0  0  0  0  0  0  0  0  0
  140.6850   72.2110  222.7360 C   0  0  0  0  0  0  0  0  0  0  0  0
  140.2810   71.1800  223.6620 N   0  0  0  0  0  0  0  0  0  0  0  0
  139.0470   70.4110  223.4240 C   0  0  0  0  0  0  0  0  0  0  0  0
  139.2010   68.9730  223.9160 C   0  0  0  0  0  0  0  0  0  0  0  0
  139.6200   68.9670  225.3550 C   0  0  0  0  0  0  0  0  0  0  0  0
  139.1880   67.9470  226.2170 C   0  0  0  0  0  0  0  0  0  0  0  0
  139.6070   67.9270  227.5490 C   0  0  0  0  0  0  0  0  0  0  0  0
  140.4700   68.9140  228.0260 C   0  0  0  0  0  0  0  0  0  0  0  0
  140.9210   69.9220  227.1700 C   0  0  0  0  0  0  0  0  0  0  0  0
  140.4970   69.9580  225.8320 C   0  0  0  0  0  0  0  0  0  0  0  0
  141.0610   71.0060  224.9010 C   0  0  0  0  0  0  0  0  0  0  0  0
  140.0280   73.4010  222.6900 N   0  0  0  0  0  0  0  0  0  0  0  0
  140.4860   76.8720  221.8470 C   0  0  0  0  0  0  0  0  0  0  0  0
  139.6270   78.1020  221.5620 C   0  0  0  0  0  0  0  0  0  0  0  0
  136.6250   79.5330  223.1390 N   0  0  0  0  0  0  0  0  0  0  0  0
  136.1560   80.6090  223.8260 C   0  0  0  0  0  0  0  0  0  0  0  0
  136.6632   82.2782  225.1171 H   0  0  0  0  0  0  0  0  0  0  0  0
  139.0993   81.7084  225.1436 H   0  0  0  0  0  0  0  0  0  0  0  0
  139.9284   79.7368  223.8532 H   0  0  0  0  0  0  0  0  0  0  0  0
  137.4944   76.4286  223.3682 H   0  0  0  0  0  0  0  0  0  0  0  0
  136.6230   77.0170  221.8830 H   0  0  0  0  0  0  0  0  0  0  0  0
  137.8015   74.7231  221.7446 H   0  0  0  0  0  0  0  0  0  0  0  0
  138.1048   75.9213  220.4291 H   0  0  0  0  0  0  0  0  0  0  0  0
  143.1106   74.4923  218.9773 H   0  0  0  0  0  0  0  0  0  0  0  0
  144.4096   74.4177  220.2239 H   0  0  0  0  0  0  0  0  0  0  0  0
  144.3070   72.9439  217.5438 H   0  0  0  0  0  0  0  0  0  0  0  0
  145.4723   74.2078  218.0528 H   0  0  0  0  0  0  0  0  0  0  0  0
  144.9708   70.5896  218.2472 H   0  0  0  0  0  0  0  0  0  0  0  0
  145.4592   70.6619  220.0234 H   0  0  0  0  0  0  0  0  0  0  0  0
  142.8275   71.1222  218.7566 H   0  0  0  0  0  0  0  0  0  0  0  0
  143.2828   70.6485  220.4493 H   0  0  0  0  0  0  0  0  0  0  0  0
  138.2148   70.8890  223.9616 H   0  0  0  0  0  0  0  0  0  0  0  0
  138.8448   70.3942  222.3429 H   0  0  0  0  0  0  0  0  0  0  0  0
  138.2398   68.4480  223.8140 H   0  0  0  0  0  0  0  0  0  0  0  0
  139.9686   68.4650  223.3137 H   0  0  0  0  0  0  0  0  0  0  0  0
  138.5168   67.1603  225.8419 H   0  0  0  0  0  0  0  0  0  0  0  0
  139.2561   67.1318  228.2232 H   0  0  0  0  0  0  0  0  0  0  0  0
  140.7955   68.8986  229.0766 H   0  0  0  0  0  0  0  0  0  0  0  0
  141.6116   70.6911  227.5462 H   0  0  0  0  0  0  0  0  0  0  0  0
  141.0846   71.9677  225.4344 H   0  0  0  0  0  0  0  0  0  0  0  0
  142.0641   70.6658  224.6041 H   0  0  0  0  0  0  0  0  0  0  0  0
  140.9079   76.9589  222.8592 H   0  0  0  0  0  0  0  0  0  0  0  0
  141.2825   76.8278  221.0896 H   0  0  0  0  0  0  0  0  0  0  0  0
  140.1876   79.0088  221.8331 H   0  0  0  0  0  0  0  0  0  0  0  0
  139.3743   78.1262  220.4917 H   0  0  0  0  0  0  0  0  0  0  0  0
  135.0828   80.8495  223.8054 H   0  0  0  0  0  0  0  0  0  0  0  0
  1  2  2  0
  2  3  1  0
  3  4  2  0
  4  5  1  0
  5  6  1  0
  6  7  1  0
  7  8  1  0
  8  9  1  0
  9 10  2  0
 10 11  1  0
 11 12  1  0
 12 13  1  0
 13 14  1  0
 14 15  1  0
 15 16  1  0
 16 17  1  0
 11 18  2  0
 18 19  1  0
 19 20  1  0
 20 21  1  0
 21 22  1  0
 22 23  1  0
 23 24  2  0
 24 25  1  0
 25 26  2  0
 26 27  1  0
 27 28  2  0
 28 29  1  0
 19 30  2  0
  8 31  1  0
 31 32  1  0
  4 33  1  0
 33 34  2  0
 34  1  1  0
 32  5  1  0
 30  9  1  0
 17 12  1  0
 29 20  1  0
 28 23  1  0
  1 35  1  0
  2 36  1  0
  3 37  1  0
  6 38  1  0
  6 39  1  0
  7 40  1  0
  7 41  1  0
 13 42  1  0
 13 43  1  0
 14 44  1  0
 14 45  1  0
 16 46  1  0
 16 47  1  0
 17 48  1  0
 17 49  1  0
 21 50  1  0
 21 51  1  0
 22 52  1  0
 22 53  1  0
 24 54  1  0
 25 55  1  0
 26 56  1  0
 27 57  1  0
 29 58  1  0
 29 59  1  0
 31 60  1  0
 31 61  1  0
 32 62  1  0
 32 63  1  0
 34 64  1  0
M  END
>  <UniqueID>  (40) 
275

>  <SMILES>  (40) 
c1ccc(N2CCN(c3nc(N4CCOCC4)nc(N4CCc5ccccc5C4)n3)CC2)nc1

>  <Energy>  (40) 
78.71001359451697

>  <Genealogy>  (40) 
c1ccc(N2CCN(c3nc(N4CCOCC4)nc(N4CCc5ccccc5C4)n3)CC2)nc1 (3D coordinates assigned)
c1ccc(N2CCN(c3nc(N4CCOCC4)nc(N4CCc5ccccc5C4)n3)CC2)nc1 (nonaromatic ring conformer: 78.71001359451697 kcal/mol)

>  <smiles>  (40) 
c1ccc(N2CCN(c3nc(N4CCOCC4)nc(N4CCc5ccccc5C4)n3)CC2)nc1

>  <score_type>  (40) 
oracle

>  <origin>  (40) 
autodockgpu

>  <m_score__min__energy>  (40) 
-8.9399999999999995

>  <m_primary>  (40) 
energy

>  <meeko>  (40) 
{"free_energy": -8.93, "intermolecular_energy": -10.12, "internal_energy": -0.89, "cluster_size": 18, "cluster_id": 1, "rank_in_cluster": 3}

>  <energy>  (40) 
-8.6

>  <cluster_rmsd>  (40) 
0.81

>  <rmsd>  (40) 
270.08

>  <cluster>  (40) 
2

$$$$
XSFBOMDNDOCRMT-UHFFFAOYNA-N
     RDKit          3D

 64 69  0  0  0  0  0  0  0  0999 V2000
  142.4260   81.4170  223.9320 C   0  0  0  0  0  0  0  0  0  0  0  0
  143.2710   80.4680  223.3570 C   0  0  0  0  0  0  0  0  0  0  0  0
  142.7300   79.3690  222.6860 C   0  0  0  0  0  0  0  0  0  0  0  0
  141.3280   79.2210  222.5990 C   0  0  0  0  0  0  0  0  0  0  0  0
  140.7230   78.1020  221.8990 N   0  0  0  0  0  0  0  0  0  0  0  0
  139.4150   77.5610  222.3210 C   0  0  0  0  0  0  0  0  0  0  0  0
  138.9750   76.3590  221.4770 C   0  0  0  0  0  0  0  0  0  0  0  0
  140.1010   75.4350  221.2640 N   0  0  0  0  0  0  0  0  0  0  0  0
  139.9020   74.0090  221.2600 C   0  0  0  0  0  0  0  0  0  0  0  0
  139.6920   73.3520  220.0880 N   0  0  0  0  0  0  0  0  0  0  0  0
  139.5100   72.0070  220.0660 C   0  0  0  0  0  0  0  0  0  0  0  0
  139.2680   71.3280  218.8190 N   0  0  0  0  0  0  0  0  0  0  0  0
  139.1620   69.8640  218.8150 C   0  0  0  0  0  0  0  0  0  0  0  0
  139.0870   69.3430  217.3820 C   0  0  0  0  0  0  0  0  0  0  0  0
  138.0950   70.0600  216.6830 O   0  0  0  0  0  0  0  0  0  0  0  0
  138.5120   71.3970  216.4290 C   0  0  0  0  0  0  0  0  0  0  0  0
  139.3620   72.0590  217.5450 C   0  0  0  0  0  0  0  0  0  0  0  0
  139.5370   71.3140  221.2340 N   0  0  0  0  0  0  0  0  0  0  0  0
  139.7410   71.9520  222.4180 C   0  0  0  0  0  0  0  0  0  0  0  0
  139.7500   71.2030  223.6520 N   0  0  0  0  0  0  0  0  0  0  0  0
  138.7650   70.1300  223.8760 C   0  0  0  0  0  0  0  0  0  0  0  0
  139.3730   69.0010  224.7080 C   0  0  0  0  0  0  0  0  0  0  0  0
  139.9330   69.5510  225.9840 C   0  0  0  0  0  0  0  0  0  0  0  0
  139.9050   68.7860  227.1600 C   0  0  0  0  0  0  0  0  0  0  0  0
  140.4570   69.2890  228.3400 C   0  0  0  0  0  0  0  0  0  0  0  0
  141.0530   70.5510  228.3520 C   0  0  0  0  0  0  0  0  0  0  0  0
  141.1030   71.3120  227.1810 C   0  0  0  0  0  0  0  0  0  0  0  0
  140.5410   70.8200  225.9920 C   0  0  0  0  0  0  0  0  0  0  0  0
  140.6790   71.6200  224.7180 C   0  0  0  0  0  0  0  0  0  0  0  0
  139.9240   73.2990  222.4210 N   0  0  0  0  0  0  0  0  0  0  0  0
  141.4260   75.9680  220.9100 C   0  0  0  0  0  0  0  0  0  0  0  0
  141.4010   77.4860  220.7490 C   0  0  0  0  0  0  0  0  0  0  0  0
  140.5360   80.1700  223.1780 N   0  0  0  0  0  0  0  0  0  0  0  0
  141.0440   81.2510  223.8300 C   0  0  0  0  0  0  0  0  0  0  0  0
  142.8442   82.2867  224.4601 H   0  0  0  0  0  0  0  0  0  0  0  0
  144.3622   80.5850  223.4319 H   0  0  0  0  0  0  0  0  0  0  0  0
  143.3935   78.6213  222.2269 H   0  0  0  0  0  0  0  0  0  0  0  0
  139.4865   77.2461  223.3725 H   0  0  0  0  0  0  0  0  0  0  0  0
  138.6662   78.3554  222.1859 H   0  0  0  0  0  0  0  0  0  0  0  0
  138.1654   75.8279  221.9989 H   0  0  0  0  0  0  0  0  0  0  0  0
  138.6243   76.7216  220.4995 H   0  0  0  0  0  0  0  0  0  0  0  0
  140.0447   69.4347  219.3116 H   0  0  0  0  0  0  0  0  0  0  0  0
  138.2479   69.5696  219.3515 H   0  0  0  0  0  0  0  0  0  0  0  0
  140.0598   69.4825  216.8878 H   0  0  0  0  0  0  0  0  0  0  0  0
  138.8352   68.2722  217.3892 H   0  0  0  0  0  0  0  0  0  0  0  0
  139.1092   71.3952  215.5052 H   0  0  0  0  0  0  0  0  0  0  0  0
  137.5891   71.9917  216.3618 H   0  0  0  0  0  0  0  0  0  0  0  0
  140.4141   72.0796  217.2246 H   0  0  0  0  0  0  0  0  0  0  0  0
  138.9747   73.0756  217.7081 H   0  0  0  0  0  0  0  0  0  0  0  0
  137.8962   70.5434  224.4091 H   0  0  0  0  0  0  0  0  0  0  0  0
  138.4578   69.7238  222.9010 H   0  0  0  0  0  0  0  0  0  0  0  0
  138.5942   68.2600  224.9412 H   0  0  0  0  0  0  0  0  0  0  0  0
  140.1813   68.5239  224.1343 H   0  0  0  0  0  0  0  0  0  0  0  0
  139.4464   67.7862  227.1524 H   0  0  0  0  0  0  0  0  0  0  0  0
  140.4220   68.6895  229.2616 H   0  0  0  0  0  0  0  0  0  0  0  0
  141.4836   70.9468  229.2837 H   0  0  0  0  0  0  0  0  0  0  0  0
  141.5848   72.3008  227.1907 H   0  0  0  0  0  0  0  0  0  0  0  0
  140.4884   72.6782  224.9502 H   0  0  0  0  0  0  0  0  0  0  0  0
  141.6981   71.4497  224.3406 H   0  0  0  0  0  0  0  0  0  0  0  0
  142.1395   75.7058  221.7051 H   0  0  0  0  0  0  0  0  0  0  0  0
  141.7267   75.5267  219.9483 H   0  0  0  0  0  0  0  0  0  0  0  0
  142.4326   77.8631  220.6893 H   0  0  0  0  0  0  0  0  0  0  0  0
  140.8564   77.7428  219.8284 H   0  0  0  0  0  0  0  0  0  0  0  0
  140.3660   81.9934  224.2763 H   0  0  0  0  0  0  0  0  0  0  0  0
  1  2  2  0
  2  3  1  0
  3  4  2  0
  4  5  1  0
  5  6  1  0
  6  7  1  0
  7  8  1  0
  8  9  1  0
  9 10  2  0
 10 11  1  0
 11 12  1  0
 12 13  1  0
 13 14  1  0
 14 15  1  0
 15 16  1  0
 16 17  1  0
 11 18  2  0
 18 19  1  0
 19 20  1  0
 20 21  1  0
 21 22  1  0
 22 23  1  0
 23 24  2  0
 24 25  1  0
 25 26  2  0
 26 27  1  0
 27 28  2  0
 28 29  1  0
 19 30  2  0
  8 31  1  0
 31 32  1  0
  4 33  1  0
 33 34  2  0
 34  1  1  0
 32  5  1  0
 30  9  1  0
 17 12  1  0
 29 20  1  0
 28 23  1  0
  1 35  1  0
  2 36  1  0
  3 37  1  0
  6 38  1  0
  6 39  1  0
  7 40  1  0
  7 41  1  0
 13 42  1  0
 13 43  1  0
 14 44  1  0
 14 45  1  0
 16 46  1  0
 16 47  1  0
 17 48  1  0
 17 49  1  0
 21 50  1  0
 21 51  1  0
 22 52  1  0
 22 53  1  0
 24 54  1  0
 25 55  1  0
 26 56  1  0
 27 57  1  0
 29 58  1  0
 29 59  1  0
 31 60  1  0
 31 61  1  0
 32 62  1  0
 32 63  1  0
 34 64  1  0
M  END
>  <UniqueID>  (41) 
276

>  <SMILES>  (41) 
c1ccc(N2CCN(c3nc(N4CCOCC4)nc(N4CCc5ccccc5C4)n3)CC2)nc1

>  <Energy>  (41) 
80.303266191423

>  <Genealogy>  (41) 
c1ccc(N2CCN(c3nc(N4CCOCC4)nc(N4CCc5ccccc5C4)n3)CC2)nc1 (3D coordinates assigned)
c1ccc(N2CCN(c3nc(N4CCOCC4)nc(N4CCc5ccccc5C4)n3)CC2)nc1 (nonaromatic ring conformer: 80.303266191423 kcal/mol)

>  <smiles>  (41) 
c1ccc(N2CCN(c3nc(N4CCOCC4)nc(N4CCc5ccccc5C4)n3)CC2)nc1

>  <score_type>  (41) 
oracle

>  <origin>  (41) 
autodockgpu

>  <m_score__min__energy>  (41) 
-8.9399999999999995

>  <m_primary>  (41) 
energy

>  <meeko>  (41) 
{"free_energy": -8.72, "intermolecular_energy": -9.92, "internal_energy": -0.9, "cluster_size": 2, "cluster_id": 2, "rank_in_cluster": 1}

>  <energy>  (41) 
-8.94

>  <cluster_rmsd>  (41) 
0.0

>  <rmsd>  (41) 
270.57

>  <cluster>  (41) 
1

$$$$
XSFBOMDNDOCRMT-UHFFFAOYNA-N
     RDKit          3D

 64 69  0  0  0  0  0  0  0  0999 V2000
  136.9420   82.0090  224.7430 C   0  0  0  0  0  0  0  0  0  0  0  0
  136.6960   82.0510  223.3700 C   0  0  0  0  0  0  0  0  0  0  0  0
  137.2370   81.0710  222.5360 C   0  0  0  0  0  0  0  0  0  0  0  0
  138.0370   80.0450  223.0840 C   0  0  0  0  0  0  0  0  0  0  0  0
  138.6070   78.9980  222.2550 N   0  0  0  0  0  0  0  0  0  0  0  0
  137.8150   77.8080  221.8830 C   0  0  0  0  0  0  0  0  0  0  0  0
  138.6150   76.8080  221.0410 C   0  0  0  0  0  0  0  0  0  0  0  0
  139.9680   76.6290  221.5940 N   0  0  0  0  0  0  0  0  0  0  0  0
  140.6080   75.3390  221.5900 C   0  0  0  0  0  0  0  0  0  0  0  0
  141.7610   75.1510  220.8930 N   0  0  0  0  0  0  0  0  0  0  0  0
  142.3810   73.9430  220.8850 C   0  0  0  0  0  0  0  0  0  0  0  0
  143.5910   73.7540  220.1260 N   0  0  0  0  0  0  0  0  0  0  0  0
  144.8090   73.3250  220.8240 C   0  0  0  0  0  0  0  0  0  0  0  0
  146.0040   73.3610  219.8750 C   0  0  0  0  0  0  0  0  0  0  0  0
  145.6680   72.6760  218.6880 O   0  0  0  0  0  0  0  0  0  0  0  0
  144.7290   73.4160  217.9170 C   0  0  0  0  0  0  0  0  0  0  0  0
  143.6690   74.2080  218.7290 C   0  0  0  0  0  0  0  0  0  0  0  0
  141.8360   72.9120  221.5810 N   0  0  0  0  0  0  0  0  0  0  0  0
  140.6810   73.0770  222.2800 C   0  0  0  0  0  0  0  0  0  0  0  0
  140.1050   71.9660  223.0010 N   0  0  0  0  0  0  0  0  0  0  0  0
  138.7720   71.4570  222.6380 C   0  0  0  0  0  0  0  0  0  0  0  0
  138.6920   69.9460  222.8490 C   0  0  0  0  0  0  0  0  0  0  0  0
  139.0800   69.6050  224.2550 C   0  0  0  0  0  0  0  0  0  0  0  0
  138.4800   68.5210  224.9150 C   0  0  0  0  0  0  0  0  0  0  0  0
  138.8680   68.1870  226.2140 C   0  0  0  0  0  0  0  0  0  0  0  0
  139.8660   68.9200  226.8580 C   0  0  0  0  0  0  0  0  0  0  0  0
  140.4820   69.9880  226.2010 C   0  0  0  0  0  0  0  0  0  0  0  0
  140.0920   70.3400  224.8990 C   0  0  0  0  0  0  0  0  0  0  0  0
  140.8280   71.4430  224.1750 C   0  0  0  0  0  0  0  0  0  0  0  0
  140.0750   74.2940  222.2800 N   0  0  0  0  0  0  0  0  0  0  0  0
  140.7400   77.8020  222.0310 C   0  0  0  0  0  0  0  0  0  0  0  0
  139.9890   79.1050  221.7640 C   0  0  0  0  0  0  0  0  0  0  0  0
  138.2570   80.0410  224.4320 N   0  0  0  0  0  0  0  0  0  0  0  0
  137.7330   80.9830  225.2620 C   0  0  0  0  0  0  0  0  0  0  0  0
  136.5176   82.7754  225.4082 H   0  0  0  0  0  0  0  0  0  0  0  0
  136.0768   82.8550  222.9456 H   0  0  0  0  0  0  0  0  0  0  0  0
  137.0404   81.0981  221.4541 H   0  0  0  0  0  0  0  0  0  0  0  0
  137.4802   77.3059  222.8027 H   0  0  0  0  0  0  0  0  0  0  0  0
  136.9644   78.1502  221.2753 H   0  0  0  0  0  0  0  0  0  0  0  0
  138.0943   75.8391  221.0393 H   0  0  0  0  0  0  0  0  0  0  0  0
  138.7001   77.1967  220.0155 H   0  0  0  0  0  0  0  0  0  0  0  0
  144.9983   74.0000  221.6717 H   0  0  0  0  0  0  0  0  0  0  0  0
  144.6703   72.2955  221.1858 H   0  0  0  0  0  0  0  0  0  0  0  0
  146.2566   74.4053  219.6394 H   0  0  0  0  0  0  0  0  0  0  0  0
  146.8709   72.8786  220.3501 H   0  0  0  0  0  0  0  0  0  0  0  0
  145.2890   74.1345  217.3005 H   0  0  0  0  0  0  0  0  0  0  0  0
  144.1665   72.6722  217.3336 H   0  0  0  0  0  0  0  0  0  0  0  0
  143.9371   75.2748  218.7170 H   0  0  0  0  0  0  0  0  0  0  0  0
  142.6877   74.0383  218.2619 H   0  0  0  0  0  0  0  0  0  0  0  0
  138.0148   71.9493  223.2658 H   0  0  0  0  0  0  0  0  0  0  0  0
  138.5889   71.6747  221.5754 H   0  0  0  0  0  0  0  0  0  0  0  0
  137.6627   69.6059  222.6622 H   0  0  0  0  0  0  0  0  0  0  0  0
  139.3815   69.4466  222.1524 H   0  0  0  0  0  0  0  0  0  0  0  0
  137.7016   67.9328  224.4071 H   0  0  0  0  0  0  0  0  0  0  0  0
  138.3860   67.3442  226.7311 H   0  0  0  0  0  0  0  0  0  0  0  0
  140.1675   68.6568  227.8826 H   0  0  0  0  0  0  0  0  0  0  0  0
  141.2768   70.5562  226.7065 H   0  0  0  0  0  0  0  0  0  0  0  0
  140.9921   72.2717  224.8795 H   0  0  0  0  0  0  0  0  0  0  0  0
  141.7710   71.0127  223.8067 H   0  0  0  0  0  0  0  0  0  0  0  0
  140.9354   77.7181  223.1102 H   0  0  0  0  0  0  0  0  0  0  0  0
  141.6801   77.8254  221.4604 H   0  0  0  0  0  0  0  0  0  0  0  0
  140.4971   79.9313  222.2828 H   0  0  0  0  0  0  0  0  0  0  0  0
  139.9738   79.2979  220.6812 H   0  0  0  0  0  0  0  0  0  0  0  0
  137.9329   80.9360  226.3427 H   0  0  0  0  0  0  0  0  0  0  0  0
  1  2  2  0
  2  3  1  0
  3  4  2  0
  4  5  1  0
  5  6  1  0
  6  7  1  0
  7  8  1  0
  8  9  1  0
  9 10  2  0
 10 11  1  0
 11 12  1  0
 12 13  1  0
 13 14  1  0
 14 15  1  0
 15 16  1  0
 16 17  1  0
 11 18  2  0
 18 19  1  0
 19 20  1  0
 20 21  1  0
 21 22  1  0
 22 23  1  0
 23 24  2  0
 24 25  1  0
 25 26  2  0
 26 27  1  0
 27 28  2  0
 28 29  1  0
 19 30  2  0
  8 31  1  0
 31 32  1  0
  4 33  1  0
 33 34  2  0
 34  1  1  0
 32  5  1  0
 30  9  1  0
 17 12  1  0
 29 20  1  0
 28 23  1  0
  1 35  1  0
  2 36  1  0
  3 37  1  0
  6 38  1  0
  6 39  1  0
  7 40  1  0
  7 41  1  0
 13 42  1  0
 13 43  1  0
 14 44  1  0
 14 45  1  0
 16 46  1  0
 16 47  1  0
 17 48  1  0
 17 49  1  0
 21 50  1  0
 21 51  1  0
 22 52  1  0
 22 53  1  0
 24 54  1  0
 25 55  1  0
 26 56  1  0
 27 57  1  0
 29 58  1  0
 29 59  1  0
 31 60  1  0
 31 61  1  0
 32 62  1  0
 32 63  1  0
 34 64  1  0
M  END
>  <UniqueID>  (42) 
276

>  <SMILES>  (42) 
c1ccc(N2CCN(c3nc(N4CCOCC4)nc(N4CCc5ccccc5C4)n3)CC2)nc1

>  <Energy>  (42) 
80.303266191423

>  <Genealogy>  (42) 
c1ccc(N2CCN(c3nc(N4CCOCC4)nc(N4CCc5ccccc5C4)n3)CC2)nc1 (3D coordinates assigned)
c1ccc(N2CCN(c3nc(N4CCOCC4)nc(N4CCc5ccccc5C4)n3)CC2)nc1 (nonaromatic ring conformer: 80.303266191423 kcal/mol)

>  <smiles>  (42) 
c1ccc(N2CCN(c3nc(N4CCOCC4)nc(N4CCc5ccccc5C4)n3)CC2)nc1

>  <score_type>  (42) 
oracle

>  <origin>  (42) 
autodockgpu

>  <m_score__min__energy>  (42) 
-8.9399999999999995

>  <m_primary>  (42) 
energy

>  <meeko>  (42) 
{"free_energy": -8.37, "intermolecular_energy": -9.57, "internal_energy": -0.88, "cluster_size": 18, "cluster_id": 1, "rank_in_cluster": 18}

>  <energy>  (42) 
-8.93

>  <cluster_rmsd>  (42) 
0.03

>  <rmsd>  (42) 
270.56

>  <cluster>  (42) 
1

$$$$
XSFBOMDNDOCRMT-UHFFFAOYNA-N
     RDKit          3D

 64 69  0  0  0  0  0  0  0  0999 V2000
  136.9070   81.2980  224.6130 C   0  0  0  0  0  0  0  0  0  0  0  0
  138.2850   81.0840  224.5720 C   0  0  0  0  0  0  0  0  0  0  0  0
  138.8030   80.0150  223.8390 C   0  0  0  0  0  0  0  0  0  0  0  0
  137.9280   79.1490  223.1470 C   0  0  0  0  0  0  0  0  0  0  0  0
  138.4240   78.0340  222.3610 N   0  0  0  0  0  0  0  0  0  0  0  0
  137.6290   76.7970  222.2120 C   0  0  0  0  0  0  0  0  0  0  0  0
  138.3490   75.7320  221.3790 C   0  0  0  0  0  0  0  0  0  0  0  0
  139.7640   75.6340  221.7710 N   0  0  0  0  0  0  0  0  0  0  0  0
  140.4390   74.3630  221.8140 C   0  0  0  0  0  0  0  0  0  0  0  0
  141.4690   74.1070  220.9640 N   0  0  0  0  0  0  0  0  0  0  0  0
  142.1190   72.9160  220.9970 C   0  0  0  0  0  0  0  0  0  0  0  0
  143.1960   72.6510  220.0770 N   0  0  0  0  0  0  0  0  0  0  0  0
  143.8460   73.7800  219.3990 C   0  0  0  0  0  0  0  0  0  0  0  0
  144.8250   73.2700  218.3440 C   0  0  0  0  0  0  0  0  0  0  0  0
  145.6660   72.3000  218.9270 O   0  0  0  0  0  0  0  0  0  0  0  0
  144.9540   71.0970  219.1920 C   0  0  0  0  0  0  0  0  0  0  0  0
  143.4790   71.2740  219.6420 C   0  0  0  0  0  0  0  0  0  0  0  0
  141.7300   71.9700  221.8910 N   0  0  0  0  0  0  0  0  0  0  0  0
  140.6990   72.2040  222.7470 C   0  0  0  0  0  0  0  0  0  0  0  0
  140.2860   71.1820  223.6790 N   0  0  0  0  0  0  0  0  0  0  0  0
  139.0500   70.4160  223.4430 C   0  0  0  0  0  0  0  0  0  0  0  0
  139.1960   68.9810  223.9470 C   0  0  0  0  0  0  0  0  0  0  0  0
  139.6090   68.9850  225.3870 C   0  0  0  0  0  0  0  0  0  0  0  0
  139.1680   67.9740  226.2550 C   0  0  0  0  0  0  0  0  0  0  0  0
  139.5810   67.9630  227.5890 C   0  0  0  0  0  0  0  0  0  0  0  0
  140.4470   68.9510  228.0620 C   0  0  0  0  0  0  0  0  0  0  0  0
  140.9050   69.9500  227.2000 C   0  0  0  0  0  0  0  0  0  0  0  0
  140.4880   69.9760  225.8600 C   0  0  0  0  0  0  0  0  0  0  0  0
  141.0600   71.0140  224.9230 C   0  0  0  0  0  0  0  0  0  0  0  0
  140.0600   73.4030  222.7030 N   0  0  0  0  0  0  0  0  0  0  0  0
  140.5480   76.8600  221.9880 C   0  0  0  0  0  0  0  0  0  0  0  0
  139.7300   78.1140  221.6900 C   0  0  0  0  0  0  0  0  0  0  0  0
  136.5860   79.3900  223.2150 N   0  0  0  0  0  0  0  0  0  0  0  0
  136.0630   80.4300  223.9190 C   0  0  0  0  0  0  0  0  0  0  0  0
  136.4910   82.1403  225.1852 H   0  0  0  0  0  0  0  0  0  0  0  0
  138.9629   81.7573  225.1170 H   0  0  0  0  0  0  0  0  0  0  0  0
  139.8895   79.8476  223.8005 H   0  0  0  0  0  0  0  0  0  0  0  0
  137.4269   76.3853  223.2118 H   0  0  0  0  0  0  0  0  0  0  0  0
  136.6991   77.0594  221.6863 H   0  0  0  0  0  0  0  0  0  0  0  0
  137.8619   74.7587  221.5383 H   0  0  0  0  0  0  0  0  0  0  0  0
  138.2949   76.0167  220.3178 H   0  0  0  0  0  0  0  0  0  0  0  0
  143.0797   74.4017  218.9130 H   0  0  0  0  0  0  0  0  0  0  0  0
  144.3974   74.3750  220.1419 H   0  0  0  0  0  0  0  0  0  0  0  0
  144.2666   72.8202  217.5098 H   0  0  0  0  0  0  0  0  0  0  0  0
  145.4305   74.1063  217.9646 H   0  0  0  0  0  0  0  0  0  0  0  0
  144.9569   70.4929  218.2727 H   0  0  0  0  0  0  0  0  0  0  0  0
  145.4713   70.6223  220.0388 H   0  0  0  0  0  0  0  0  0  0  0  0
  142.8182   71.0253  218.7985 H   0  0  0  0  0  0  0  0  0  0  0  0
  143.3024   70.6049  220.4970 H   0  0  0  0  0  0  0  0  0  0  0  0
  138.2179   70.9017  223.9738 H   0  0  0  0  0  0  0  0  0  0  0  0
  138.8519   70.3912  222.3613 H   0  0  0  0  0  0  0  0  0  0  0  0
  138.2330   68.4591  223.8454 H   0  0  0  0  0  0  0  0  0  0  0  0
  139.9637   68.4649  223.3519 H   0  0  0  0  0  0  0  0  0  0  0  0
  138.4947   67.1876  225.8832 H   0  0  0  0  0  0  0  0  0  0  0  0
  139.2236   67.1749  228.2681 H   0  0  0  0  0  0  0  0  0  0  0  0
  140.7686   68.9425  229.1139 H   0  0  0  0  0  0  0  0  0  0  0  0
  141.5960   70.7203  227.5731 H   0  0  0  0  0  0  0  0  0  0  0  0
  141.0856   71.9798  225.4489 H   0  0  0  0  0  0  0  0  0  0  0  0
  142.0626   70.6667  224.6328 H   0  0  0  0  0  0  0  0  0  0  0  0
  140.8783   76.8908  223.0368 H   0  0  0  0  0  0  0  0  0  0  0  0
  141.4090   76.8418  221.3037 H   0  0  0  0  0  0  0  0  0  0  0  0
  140.2732   78.9984  222.0545 H   0  0  0  0  0  0  0  0  0  0  0  0
  139.5737   78.1934  220.6041 H   0  0  0  0  0  0  0  0  0  0  0  0
  134.9745   80.5868  223.9412 H   0  0  0  0  0  0  0  0  0  0  0  0
  1  2  2  0
  2  3  1  0
  3  4  2  0
  4  5  1  0
  5  6  1  0
  6  7  1  0
  7  8  1  0
  8  9  1  0
  9 10  2  0
 10 11  1  0
 11 12  1  0
 12 13  1  0
 13 14  1  0
 14 15  1  0
 15 16  1  0
 16 17  1  0
 11 18  2  0
 18 19  1  0
 19 20  1  0
 20 21  1  0
 21 22  1  0
 22 23  1  0
 23 24  2  0
 24 25  1  0
 25 26  2  0
 26 27  1  0
 27 28  2  0
 28 29  1  0
 19 30  2  0
  8 31  1  0
 31 32  1  0
  4 33  1  0
 33 34  2  0
 34  1  1  0
 32  5  1  0
 30  9  1  0
 17 12  1  0
 29 20  1  0
 28 23  1  0
  1 35  1  0
  2 36  1  0
  3 37  1  0
  6 38  1  0
  6 39  1  0
  7 40  1  0
  7 41  1  0
 13 42  1  0
 13 43  1  0
 14 44  1  0
 14 45  1  0
 16 46  1  0
 16 47  1  0
 17 48  1  0
 17 49  1  0
 21 50  1  0
 21 51  1  0
 22 52  1  0
 22 53  1  0
 24 54  1  0
 25 55  1  0
 26 56  1  0
 27 57  1  0
 29 58  1  0
 29 59  1  0
 31 60  1  0
 31 61  1  0
 32 62  1  0
 32 63  1  0
 34 64  1  0
M  END
>  <UniqueID>  (43) 
276

>  <SMILES>  (43) 
c1ccc(N2CCN(c3nc(N4CCOCC4)nc(N4CCc5ccccc5C4)n3)CC2)nc1

>  <Energy>  (43) 
80.303266191423

>  <Genealogy>  (43) 
c1ccc(N2CCN(c3nc(N4CCOCC4)nc(N4CCc5ccccc5C4)n3)CC2)nc1 (3D coordinates assigned)
c1ccc(N2CCN(c3nc(N4CCOCC4)nc(N4CCc5ccccc5C4)n3)CC2)nc1 (nonaromatic ring conformer: 80.303266191423 kcal/mol)

>  <smiles>  (43) 
c1ccc(N2CCN(c3nc(N4CCOCC4)nc(N4CCc5ccccc5C4)n3)CC2)nc1

>  <score_type>  (43) 
oracle

>  <origin>  (43) 
autodockgpu

>  <m_score__min__energy>  (43) 
-8.9399999999999995

>  <m_primary>  (43) 
energy

>  <meeko>  (43) 
{"free_energy": -8.93, "intermolecular_energy": -10.12, "internal_energy": -0.89, "cluster_size": 18, "cluster_id": 1, "rank_in_cluster": 4}

>  <energy>  (43) 
-8.93

>  <cluster_rmsd>  (43) 
0.05

>  <rmsd>  (43) 
270.55

>  <cluster>  (43) 
1

$$$$
XSFBOMDNDOCRMT-UHFFFAOYNA-N
     RDKit          3D

 64 69  0  0  0  0  0  0  0  0999 V2000
  142.5740   81.3300  223.8790 C   0  0  0  0  0  0  0  0  0  0  0  0
  141.1830   81.2700  223.8000 C   0  0  0  0  0  0  0  0  0  0  0  0
  140.5680   80.1930  223.1580 C   0  0  0  0  0  0  0  0  0  0  0  0
  141.3580   79.1730  222.5860 C   0  0  0  0  0  0  0  0  0  0  0  0
  140.7600   78.0280  221.9210 N   0  0  0  0  0  0  0  0  0  0  0  0
  139.5580   77.3720  222.4740 C   0  0  0  0  0  0  0  0  0  0  0  0
  139.1130   76.1620  221.6450 C   0  0  0  0  0  0  0  0  0  0  0  0
  140.2730   75.3390  221.2660 N   0  0  0  0  0  0  0  0  0  0  0  0
  140.1860   73.9010  221.2330 C   0  0  0  0  0  0  0  0  0  0  0  0
  140.2130   73.2430  220.0430 N   0  0  0  0  0  0  0  0  0  0  0  0
  140.1390   71.8890  219.9960 C   0  0  0  0  0  0  0  0  0  0  0  0
  140.1480   71.2060  218.7270 N   0  0  0  0  0  0  0  0  0  0  0  0
  141.0370   70.0520  218.5460 C   0  0  0  0  0  0  0  0  0  0  0  0
  141.0240   69.5970  217.0890 C   0  0  0  0  0  0  0  0  0  0  0  0
  139.6870   69.4500  216.6660 O   0  0  0  0  0  0  0  0  0  0  0  0
  139.0510   70.7150  216.5250 C   0  0  0  0  0  0  0  0  0  0  0  0
  139.4640   71.7930  217.5630 C   0  0  0  0  0  0  0  0  0  0  0  0
  140.0330   71.1870  221.1540 N   0  0  0  0  0  0  0  0  0  0  0  0
  139.9990   71.8260  222.3540 C   0  0  0  0  0  0  0  0  0  0  0  0
  139.8690   71.0670  223.5750 N   0  0  0  0  0  0  0  0  0  0  0  0
  138.7760   70.0920  223.7300 C   0  0  0  0  0  0  0  0  0  0  0  0
  139.2270   68.9020  224.5750 C   0  0  0  0  0  0  0  0  0  0  0  0
  139.7670   69.3810  225.8880 C   0  0  0  0  0  0  0  0  0  0  0  0
  139.6020   68.6100  227.0490 C   0  0  0  0  0  0  0  0  0  0  0  0
  140.1350   69.0450  228.2640 C   0  0  0  0  0  0  0  0  0  0  0  0
  140.8470   70.2440  228.3270 C   0  0  0  0  0  0  0  0  0  0  0  0
  141.0330   71.0080  227.1720 C   0  0  0  0  0  0  0  0  0  0  0  0
  140.4920   70.5850  225.9470 C   0  0  0  0  0  0  0  0  0  0  0  0
  140.7750   71.3810  224.6950 C   0  0  0  0  0  0  0  0  0  0  0  0
  140.0770   73.1830  222.3840 N   0  0  0  0  0  0  0  0  0  0  0  0
  141.5000   75.9860  220.7780 C   0  0  0  0  0  0  0  0  0  0  0  0
  141.3390   77.5010  220.6770 C   0  0  0  0  0  0  0  0  0  0  0  0
  142.7160   79.2710  222.6810 N   0  0  0  0  0  0  0  0  0  0  0  0
  143.3340   80.3080  223.3080 C   0  0  0  0  0  0  0  0  0  0  0  0
  143.0666   82.1731  224.3855 H   0  0  0  0  0  0  0  0  0  0  0  0
  140.5711   82.0698  224.2427 H   0  0  0  0  0  0  0  0  0  0  0  0
  139.4709   80.1399  223.0983 H   0  0  0  0  0  0  0  0  0  0  0  0
  139.7796   77.0355  223.4976 H   0  0  0  0  0  0  0  0  0  0  0  0
  138.7396   78.1068  222.4568 H   0  0  0  0  0  0  0  0  0  0  0  0
  138.4163   75.5528  222.2396 H   0  0  0  0  0  0  0  0  0  0  0  0
  138.6189   76.5212  220.7302 H   0  0  0  0  0  0  0  0  0  0  0  0
  142.0616   70.3354  218.8286 H   0  0  0  0  0  0  0  0  0  0  0  0
  140.6856   69.2262  219.1820 H   0  0  0  0  0  0  0  0  0  0  0  0
  141.5283   70.3483  216.4635 H   0  0  0  0  0  0  0  0  0  0  0  0
  141.5514   68.6363  216.9949 H   0  0  0  0  0  0  0  0  0  0  0  0
  139.2866   71.1024  215.5228 H   0  0  0  0  0  0  0  0  0  0  0  0
  137.9789   70.5329  216.6908 H   0  0  0  0  0  0  0  0  0  0  0  0
  140.1415   72.5113  217.0782 H   0  0  0  0  0  0  0  0  0  0  0  0
  138.5489   72.2874  217.9210 H   0  0  0  0  0  0  0  0  0  0  0  0
  137.9230   70.5816  224.2227 H   0  0  0  0  0  0  0  0  0  0  0  0
  138.4848   69.7272  222.7339 H   0  0  0  0  0  0  0  0  0  0  0  0
  138.3694   68.2370  224.7546 H   0  0  0  0  0  0  0  0  0  0  0  0
  140.0164   68.3561  224.0375 H   0  0  0  0  0  0  0  0  0  0  0  0
  139.0507   67.6593  227.0016 H   0  0  0  0  0  0  0  0  0  0  0  0
  139.9936   68.4419  229.1730 H   0  0  0  0  0  0  0  0  0  0  0  0
  141.2618   70.5875  229.2862 H   0  0  0  0  0  0  0  0  0  0  0  0
  141.6061   71.9456  227.2225 H   0  0  0  0  0  0  0  0  0  0  0  0
  140.6748   72.4502  224.9333 H   0  0  0  0  0  0  0  0  0  0  0  0
  141.7919   71.1168  224.3694 H   0  0  0  0  0  0  0  0  0  0  0  0
  142.3223   75.7606  221.4731 H   0  0  0  0  0  0  0  0  0  0  0  0
  141.7156   75.5967  219.7720 H   0  0  0  0  0  0  0  0  0  0  0  0
  142.3237   77.9618  220.5095 H   0  0  0  0  0  0  0  0  0  0  0  0
  140.6690   77.7382  219.8375 H   0  0  0  0  0  0  0  0  0  0  0  0
  144.4320   80.3411  223.3650 H   0  0  0  0  0  0  0  0  0  0  0  0
  1  2  2  0
  2  3  1  0
  3  4  2  0
  4  5  1  0
  5  6  1  0
  6  7  1  0
  7  8  1  0
  8  9  1  0
  9 10  2  0
 10 11  1  0
 11 12  1  0
 12 13  1  0
 13 14  1  0
 14 15  1  0
 15 16  1  0
 16 17  1  0
 11 18  2  0
 18 19  1  0
 19 20  1  0
 20 21  1  0
 21 22  1  0
 22 23  1  0
 23 24  2  0
 24 25  1  0
 25 26  2  0
 26 27  1  0
 27 28  2  0
 28 29  1  0
 19 30  2  0
  8 31  1  0
 31 32  1  0
  4 33  1  0
 33 34  2  0
 34  1  1  0
 32  5  1  0
 30  9  1  0
 17 12  1  0
 29 20  1  0
 28 23  1  0
  1 35  1  0
  2 36  1  0
  3 37  1  0
  6 38  1  0
  6 39  1  0
  7 40  1  0
  7 41  1  0
 13 42  1  0
 13 43  1  0
 14 44  1  0
 14 45  1  0
 16 46  1  0
 16 47  1  0
 17 48  1  0
 17 49  1  0
 21 50  1  0
 21 51  1  0
 22 52  1  0
 22 53  1  0
 24 54  1  0
 25 55  1  0
 26 56  1  0
 27 57  1  0
 29 58  1  0
 29 59  1  0
 31 60  1  0
 31 61  1  0
 32 62  1  0
 32 63  1  0
 34 64  1  0
M  END
>  <UniqueID>  (44) 
276

>  <SMILES>  (44) 
c1ccc(N2CCN(c3nc(N4CCOCC4)nc(N4CCc5ccccc5C4)n3)CC2)nc1

>  <Energy>  (44) 
80.303266191423

>  <Genealogy>  (44) 
c1ccc(N2CCN(c3nc(N4CCOCC4)nc(N4CCc5ccccc5C4)n3)CC2)nc1 (3D coordinates assigned)
c1ccc(N2CCN(c3nc(N4CCOCC4)nc(N4CCc5ccccc5C4)n3)CC2)nc1 (nonaromatic ring conformer: 80.303266191423 kcal/mol)

>  <smiles>  (44) 
c1ccc(N2CCN(c3nc(N4CCOCC4)nc(N4CCc5ccccc5C4)n3)CC2)nc1

>  <score_type>  (44) 
oracle

>  <origin>  (44) 
autodockgpu

>  <m_score__min__energy>  (44) 
-8.9399999999999995

>  <m_primary>  (44) 
energy

>  <meeko>  (44) 
{"free_energy": -8.6, "intermolecular_energy": -9.79, "internal_energy": -0.89, "cluster_size": 2, "cluster_id": 2, "rank_in_cluster": 2}

>  <energy>  (44) 
-8.93

>  <cluster_rmsd>  (44) 
0.07

>  <rmsd>  (44) 
270.55

>  <cluster>  (44) 
1

$$$$
XSFBOMDNDOCRMT-UHFFFAOYNA-N
     RDKit          3D

 64 69  0  0  0  0  0  0  0  0999 V2000
  137.1100   81.3530  224.6260 C   0  0  0  0  0  0  0  0  0  0  0  0
  136.1700   80.6520  223.8710 C   0  0  0  0  0  0  0  0  0  0  0  0
  136.5680   79.5520  223.1090 C   0  0  0  0  0  0  0  0  0  0  0  0
  137.9240   79.1580  223.0990 C   0  0  0  0  0  0  0  0  0  0  0  0
  138.3800   78.0130  222.3320 N   0  0  0  0  0  0  0  0  0  0  0  0
  137.5980   76.7610  222.3000 C   0  0  0  0  0  0  0  0  0  0  0  0
  138.2730   75.6660  221.4670 C   0  0  0  0  0  0  0  0  0  0  0  0
  139.7150   75.6070  221.7580 N   0  0  0  0  0  0  0  0  0  0  0  0
  140.4120   74.3480  221.8110 C   0  0  0  0  0  0  0  0  0  0  0  0
  141.4550   74.1090  220.9710 N   0  0  0  0  0  0  0  0  0  0  0  0
  142.1270   72.9310  221.0140 C   0  0  0  0  0  0  0  0  0  0  0  0
  143.2160   72.6840  220.1040 N   0  0  0  0  0  0  0  0  0  0  0  0
  143.8740   73.8240  219.4540 C   0  0  0  0  0  0  0  0  0  0  0  0
  144.8680   73.3350  218.4040 C   0  0  0  0  0  0  0  0  0  0  0  0
  145.7030   72.3570  218.9840 O   0  0  0  0  0  0  0  0  0  0  0  0
  144.9900   71.1480  219.2180 C   0  0  0  0  0  0  0  0  0  0  0  0
  143.5090   71.3150  219.6500 C   0  0  0  0  0  0  0  0  0  0  0  0
  141.7460   71.9800  221.9060 N   0  0  0  0  0  0  0  0  0  0  0  0
  140.7030   72.1970  222.7520 C   0  0  0  0  0  0  0  0  0  0  0  0
  140.3000   71.1700  223.6830 N   0  0  0  0  0  0  0  0  0  0  0  0
  139.0710   70.3930  223.4460 C   0  0  0  0  0  0  0  0  0  0  0  0
  139.2300   68.9590  223.9470 C   0  0  0  0  0  0  0  0  0  0  0  0
  139.6450   68.9640  225.3880 C   0  0  0  0  0  0  0  0  0  0  0  0
  139.2140   67.9480  226.2540 C   0  0  0  0  0  0  0  0  0  0  0  0
  139.6280   67.9380  227.5880 C   0  0  0  0  0  0  0  0  0  0  0  0
  140.4850   68.9330  228.0620 C   0  0  0  0  0  0  0  0  0  0  0  0
  140.9340   69.9380  227.2010 C   0  0  0  0  0  0  0  0  0  0  0  0
  140.5150   69.9620  225.8610 C   0  0  0  0  0  0  0  0  0  0  0  0
  141.0770   71.0070  224.9260 C   0  0  0  0  0  0  0  0  0  0  0  0
  140.0430   73.3840  222.6980 N   0  0  0  0  0  0  0  0  0  0  0  0
  140.4910   76.8520  221.8600 C   0  0  0  0  0  0  0  0  0  0  0  0
  139.6330   78.0800  221.5650 C   0  0  0  0  0  0  0  0  0  0  0  0
  138.8140   79.8730  223.8490 N   0  0  0  0  0  0  0  0  0  0  0  0
  138.4440   80.9430  224.6040 C   0  0  0  0  0  0  0  0  0  0  0  0
  136.8037   82.2187  225.2316 H   0  0  0  0  0  0  0  0  0  0  0  0
  135.1157   80.9656  223.8759 H   0  0  0  0  0  0  0  0  0  0  0  0
  135.8272   78.9936  222.5179 H   0  0  0  0  0  0  0  0  0  0  0  0
  137.4761   76.3953  223.3302 H   0  0  0  0  0  0  0  0  0  0  0  0
  136.6282   76.9857  221.8320 H   0  0  0  0  0  0  0  0  0  0  0  0
  137.8157   74.6950  221.7081 H   0  0  0  0  0  0  0  0  0  0  0  0
  138.1361   75.8973  220.4003 H   0  0  0  0  0  0  0  0  0  0  0  0
  143.1135   74.4531  218.9683 H   0  0  0  0  0  0  0  0  0  0  0  0
  144.4151   74.4057  220.2148 H   0  0  0  0  0  0  0  0  0  0  0  0
  144.3225   72.8979  217.5547 H   0  0  0  0  0  0  0  0  0  0  0  0
  145.4762   74.1787  218.0459 H   0  0  0  0  0  0  0  0  0  0  0  0
  145.0070   70.5599  218.2886 H   0  0  0  0  0  0  0  0  0  0  0  0
  145.4964   70.6592  220.0634 H   0  0  0  0  0  0  0  0  0  0  0  0
  142.8608   71.0790  218.7932 H   0  0  0  0  0  0  0  0  0  0  0  0
  143.3224   70.6317  220.4916 H   0  0  0  0  0  0  0  0  0  0  0  0
  138.2347   70.8701  223.9779 H   0  0  0  0  0  0  0  0  0  0  0  0
  138.8730   70.3683  222.3643 H   0  0  0  0  0  0  0  0  0  0  0  0
  138.2715   68.4290  223.8455 H   0  0  0  0  0  0  0  0  0  0  0  0
  140.0015   68.4507  223.3501 H   0  0  0  0  0  0  0  0  0  0  0  0
  138.5476   67.1563  225.8811 H   0  0  0  0  0  0  0  0  0  0  0  0
  139.2784   67.1453  228.2658 H   0  0  0  0  0  0  0  0  0  0  0  0
  140.8070   68.9259  229.1138 H   0  0  0  0  0  0  0  0  0  0  0  0
  141.6187   70.7137  227.5746 H   0  0  0  0  0  0  0  0  0  0  0  0
  141.0942   71.9720  225.4538 H   0  0  0  0  0  0  0  0  0  0  0  0
  142.0827   70.6700  224.6345 H   0  0  0  0  0  0  0  0  0  0  0  0
  140.8958   76.9369  222.8793 H   0  0  0  0  0  0  0  0  0  0  0  0
  141.2999   76.8129  221.1156 H   0  0  0  0  0  0  0  0  0  0  0  0
  140.1859   78.9876  221.8488 H   0  0  0  0  0  0  0  0  0  0  0  0
  139.3982   78.1073  220.4907 H   0  0  0  0  0  0  0  0  0  0  0  0
  139.1959   81.4846  225.1967 H   0  0  0  0  0  0  0  0  0  0  0  0
  1  2  2  0
  2  3  1  0
  3  4  2  0
  4  5  1  0
  5  6  1  0
  6  7  1  0
  7  8  1  0
  8  9  1  0
  9 10  2  0
 10 11  1  0
 11 12  1  0
 12 13  1  0
 13 14  1  0
 14 15  1  0
 15 16  1  0
 16 17  1  0
 11 18  2  0
 18 19  1  0
 19 20  1  0
 20 21  1  0
 21 22  1  0
 22 23  1  0
 23 24  2  0
 24 25  1  0
 25 26  2  0
 26 27  1  0
 27 28  2  0
 28 29  1  0
 19 30  2  0
  8 31  1  0
 31 32  1  0
  4 33  1  0
 33 34  2  0
 34  1  1  0
 32  5  1  0
 30  9  1  0
 17 12  1  0
 29 20  1  0
 28 23  1  0
  1 35  1  0
  2 36  1  0
  3 37  1  0
  6 38  1  0
  6 39  1  0
  7 40  1  0
  7 41  1  0
 13 42  1  0
 13 43  1  0
 14 44  1  0
 14 45  1  0
 16 46  1  0
 16 47  1  0
 17 48  1  0
 17 49  1  0
 21 50  1  0
 21 51  1  0
 22 52  1  0
 22 53  1  0
 24 54  1  0
 25 55  1  0
 26 56  1  0
 27 57  1  0
 29 58  1  0
 29 59  1  0
 31 60  1  0
 31 61  1  0
 32 62  1  0
 32 63  1  0
 34 64  1  0
M  END
>  <UniqueID>  (45) 
276

>  <SMILES>  (45) 
c1ccc(N2CCN(c3nc(N4CCOCC4)nc(N4CCc5ccccc5C4)n3)CC2)nc1

>  <Energy>  (45) 
80.303266191423

>  <Genealogy>  (45) 
c1ccc(N2CCN(c3nc(N4CCOCC4)nc(N4CCc5ccccc5C4)n3)CC2)nc1 (3D coordinates assigned)
c1ccc(N2CCN(c3nc(N4CCOCC4)nc(N4CCc5ccccc5C4)n3)CC2)nc1 (nonaromatic ring conformer: 80.303266191423 kcal/mol)

>  <smiles>  (45) 
c1ccc(N2CCN(c3nc(N4CCOCC4)nc(N4CCc5ccccc5C4)n3)CC2)nc1

>  <score_type>  (45) 
oracle

>  <origin>  (45) 
autodockgpu

>  <m_score__min__energy>  (45) 
-8.9399999999999995

>  <m_primary>  (45) 
energy

>  <meeko>  (45) 
{"free_energy": -8.86, "intermolecular_energy": -10.05, "internal_energy": -0.9, "cluster_size": 18, "cluster_id": 1, "rank_in_cluster": 16}

>  <energy>  (45) 
-8.92

>  <cluster_rmsd>  (45) 
0.04

>  <rmsd>  (45) 
270.55

>  <cluster>  (45) 
1

$$$$
XSFBOMDNDOCRMT-UHFFFAOYNA-N
     RDKit          3D

 64 69  0  0  0  0  0  0  0  0999 V2000
  136.9570   81.3650  224.6490 C   0  0  0  0  0  0  0  0  0  0  0  0
  138.3290   81.1180  224.6010 C   0  0  0  0  0  0  0  0  0  0  0  0
  138.8170   80.0330  223.8700 C   0  0  0  0  0  0  0  0  0  0  0  0
  137.9180   79.1860  223.1860 C   0  0  0  0  0  0  0  0  0  0  0  0
  138.3820   78.0550  222.4030 N   0  0  0  0  0  0  0  0  0  0  0  0
  137.5930   76.8090  222.3280 C   0  0  0  0  0  0  0  0  0  0  0  0
  138.2780   75.7290  221.4830 C   0  0  0  0  0  0  0  0  0  0  0  0
  139.7130   75.6540  221.8010 N   0  0  0  0  0  0  0  0  0  0  0  0
  140.4020   74.3900  221.8390 C   0  0  0  0  0  0  0  0  0  0  0  0
  141.4380   74.1510  220.9910 N   0  0  0  0  0  0  0  0  0  0  0  0
  142.1020   72.9680  221.0200 C   0  0  0  0  0  0  0  0  0  0  0  0
  143.1850   72.7210  220.1010 N   0  0  0  0  0  0  0  0  0  0  0  0
  143.8410   73.8620  219.4520 C   0  0  0  0  0  0  0  0  0  0  0  0
  144.8270   73.3740  218.3930 C   0  0  0  0  0  0  0  0  0  0  0  0
  145.6630   72.3920  218.9630 O   0  0  0  0  0  0  0  0  0  0  0  0
  144.9490   71.1840  219.1980 C   0  0  0  0  0  0  0  0  0  0  0  0
  143.4710   71.3530  219.6410 C   0  0  0  0  0  0  0  0  0  0  0  0
  141.7210   72.0120  221.9070 N   0  0  0  0  0  0  0  0  0  0  0  0
  140.6840   72.2290  222.7600 C   0  0  0  0  0  0  0  0  0  0  0  0
  140.2800   71.1970  223.6850 N   0  0  0  0  0  0  0  0  0  0  0  0
  139.0520   70.4200  223.4400 C   0  0  0  0  0  0  0  0  0  0  0  0
  139.2110   68.9840  223.9350 C   0  0  0  0  0  0  0  0  0  0  0  0
  139.6210   68.9820  225.3770 C   0  0  0  0  0  0  0  0  0  0  0  0
  139.1890   67.9610  226.2370 C   0  0  0  0  0  0  0  0  0  0  0  0
  139.5990   67.9450  227.5720 C   0  0  0  0  0  0  0  0  0  0  0  0
  140.4540   68.9380  228.0530 C   0  0  0  0  0  0  0  0  0  0  0  0
  140.9040   69.9480  227.1990 C   0  0  0  0  0  0  0  0  0  0  0  0
  140.4890   69.9790  225.8580 C   0  0  0  0  0  0  0  0  0  0  0  0
  141.0530   71.0290  224.9290 C   0  0  0  0  0  0  0  0  0  0  0  0
  140.0320   73.4210  222.7200 N   0  0  0  0  0  0  0  0  0  0  0  0
  140.4950   76.8920  221.9450 C   0  0  0  0  0  0  0  0  0  0  0  0
  139.6490   78.1310  221.6610 C   0  0  0  0  0  0  0  0  0  0  0  0
  136.5820   79.4590  223.2610 N   0  0  0  0  0  0  0  0  0  0  0  0
  136.0880   80.5150  223.9630 C   0  0  0  0  0  0  0  0  0  0  0  0
  136.5647   82.2191  225.2205 H   0  0  0  0  0  0  0  0  0  0  0  0
  139.0261   81.7775  225.1387 H   0  0  0  0  0  0  0  0  0  0  0  0
  139.8989   79.8387  223.8271 H   0  0  0  0  0  0  0  0  0  0  0  0
  137.4493   76.4208  223.3472 H   0  0  0  0  0  0  0  0  0  0  0  0
  136.6334   77.0501  221.8473 H   0  0  0  0  0  0  0  0  0  0  0  0
  137.8102   74.7557  221.6922 H   0  0  0  0  0  0  0  0  0  0  0  0
  138.1638   75.9858  220.4195 H   0  0  0  0  0  0  0  0  0  0  0  0
  143.0789   74.4951  218.9740 H   0  0  0  0  0  0  0  0  0  0  0  0
  144.3883   74.4397  220.2115 H   0  0  0  0  0  0  0  0  0  0  0  0
  144.2745   72.9416  217.5458 H   0  0  0  0  0  0  0  0  0  0  0  0
  145.4351   74.2175  218.0342 H   0  0  0  0  0  0  0  0  0  0  0  0
  144.9582   70.5989  218.2665 H   0  0  0  0  0  0  0  0  0  0  0  0
  145.4602   70.6913  220.0382 H   0  0  0  0  0  0  0  0  0  0  0  0
  142.8162   71.1212  218.7881 H   0  0  0  0  0  0  0  0  0  0  0  0
  143.2884   70.6674  220.4816 H   0  0  0  0  0  0  0  0  0  0  0  0
  138.2134   70.8938  223.9713 H   0  0  0  0  0  0  0  0  0  0  0  0
  138.8573   70.4003  222.3575 H   0  0  0  0  0  0  0  0  0  0  0  0
  138.2534   68.4534  223.8277 H   0  0  0  0  0  0  0  0  0  0  0  0
  139.9854   68.4797  223.3384 H   0  0  0  0  0  0  0  0  0  0  0  0
  138.5248   67.1701  225.8583 H   0  0  0  0  0  0  0  0  0  0  0  0
  139.2478   67.1490  228.2451 H   0  0  0  0  0  0  0  0  0  0  0  0
  140.7738   68.9253  229.1054 H   0  0  0  0  0  0  0  0  0  0  0  0
  141.5866   70.7225  227.5789 H   0  0  0  0  0  0  0  0  0  0  0  0
  141.0679   71.9916  225.4612 H   0  0  0  0  0  0  0  0  0  0  0  0
  142.0598   70.6940  224.6389 H   0  0  0  0  0  0  0  0  0  0  0  0
  140.8811   76.9521  222.9733 H   0  0  0  0  0  0  0  0  0  0  0  0
  141.3180   76.8644  221.2157 H   0  0  0  0  0  0  0  0  0  0  0  0
  140.2015   79.0291  221.9743 H   0  0  0  0  0  0  0  0  0  0  0  0
  139.4341   78.1825  220.5834 H   0  0  0  0  0  0  0  0  0  0  0  0
  135.0038   80.6987  223.9898 H   0  0  0  0  0  0  0  0  0  0  0  0
  1  2  2  0
  2  3  1  0
  3  4  2  0
  4  5  1  0
  5  6  1  0
  6  7  1  0
  7  8  1  0
  8  9  1  0
  9 10  2  0
 10 11  1  0
 11 12  1  0
 12 13  1  0
 13 14  1  0
 14 15  1  0
 15 16  1  0
 16 17  1  0
 11 18  2  0
 18 19  1  0
 19 20  1  0
 20 21  1  0
 21 22  1  0
 22 23  1  0
 23 24  2  0
 24 25  1  0
 25 26  2  0
 26 27  1  0
 27 28  2  0
 28 29  1  0
 19 30  2  0
  8 31  1  0
 31 32  1  0
  4 33  1  0
 33 34  2  0
 34  1  1  0
 32  5  1  0
 30  9  1  0
 17 12  1  0
 29 20  1  0
 28 23  1  0
  1 35  1  0
  2 36  1  0
  3 37  1  0
  6 38  1  0
  6 39  1  0
  7 40  1  0
  7 41  1  0
 13 42  1  0
 13 43  1  0
 14 44  1  0
 14 45  1  0
 16 46  1  0
 16 47  1  0
 17 48  1  0
 17 49  1  0
 21 50  1  0
 21 51  1  0
 22 52  1  0
 22 53  1  0
 24 54  1  0
 25 55  1  0
 26 56  1  0
 27 57  1  0
 29 58  1  0
 29 59  1  0
 31 60  1  0
 31 61  1  0
 32 62  1  0
 32 63  1  0
 34 64  1  0
M  END
>  <UniqueID>  (46) 
276

>  <SMILES>  (46) 
c1ccc(N2CCN(c3nc(N4CCOCC4)nc(N4CCc5ccccc5C4)n3)CC2)nc1

>  <Energy>  (46) 
80.303266191423

>  <Genealogy>  (46) 
c1ccc(N2CCN(c3nc(N4CCOCC4)nc(N4CCc5ccccc5C4)n3)CC2)nc1 (3D coordinates assigned)
c1ccc(N2CCN(c3nc(N4CCOCC4)nc(N4CCc5ccccc5C4)n3)CC2)nc1 (nonaromatic ring conformer: 80.303266191423 kcal/mol)

>  <smiles>  (46) 
c1ccc(N2CCN(c3nc(N4CCOCC4)nc(N4CCc5ccccc5C4)n3)CC2)nc1

>  <score_type>  (46) 
oracle

>  <origin>  (46) 
autodockgpu

>  <m_score__min__energy>  (46) 
-8.9399999999999995

>  <m_primary>  (46) 
energy

>  <meeko>  (46) 
{"free_energy": -8.92, "intermolecular_energy": -10.12, "internal_energy": -0.89, "cluster_size": 18, "cluster_id": 1, "rank_in_cluster": 7}

>  <energy>  (46) 
-8.92

>  <cluster_rmsd>  (46) 
0.05

>  <rmsd>  (46) 
270.56

>  <cluster>  (46) 
1

$$$$
XSFBOMDNDOCRMT-UHFFFAOYNA-N
     RDKit          3D

 64 69  0  0  0  0  0  0  0  0999 V2000
  136.9990   81.3540  224.5840 C   0  0  0  0  0  0  0  0  0  0  0  0
  138.3650   81.0710  224.5790 C   0  0  0  0  0  0  0  0  0  0  0  0
  138.8480   79.9810  223.8540 C   0  0  0  0  0  0  0  0  0  0  0  0
  137.9500   79.1640  223.1330 C   0  0  0  0  0  0  0  0  0  0  0  0
  138.4110   78.0280  222.3540 N   0  0  0  0  0  0  0  0  0  0  0  0
  137.6200   76.7820  222.2890 C   0  0  0  0  0  0  0  0  0  0  0  0
  138.3010   75.6960  221.4480 C   0  0  0  0  0  0  0  0  0  0  0  0
  139.7380   75.6220  221.7620 N   0  0  0  0  0  0  0  0  0  0  0  0
  140.4250   74.3570  221.8060 C   0  0  0  0  0  0  0  0  0  0  0  0
  141.4580   74.1120  220.9560 N   0  0  0  0  0  0  0  0  0  0  0  0
  142.1210   72.9280  220.9890 C   0  0  0  0  0  0  0  0  0  0  0  0
  143.2010   72.6750  220.0690 N   0  0  0  0  0  0  0  0  0  0  0  0
  143.8950   73.8140  219.4550 C   0  0  0  0  0  0  0  0  0  0  0  0
  144.8710   73.3260  218.3880 C   0  0  0  0  0  0  0  0  0  0  0  0
  145.6740   72.3030  218.9330 O   0  0  0  0  0  0  0  0  0  0  0  0
  144.9220   71.1110  219.1310 C   0  0  0  0  0  0  0  0  0  0  0  0
  143.4480   71.3120  219.5720 C   0  0  0  0  0  0  0  0  0  0  0  0
  141.7410   71.9770  221.8830 N   0  0  0  0  0  0  0  0  0  0  0  0
  140.7070   72.2000  222.7380 C   0  0  0  0  0  0  0  0  0  0  0  0
  140.3040   71.1740  223.6690 N   0  0  0  0  0  0  0  0  0  0  0  0
  139.0840   70.3860  223.4240 C   0  0  0  0  0  0  0  0  0  0  0  0
  139.2500   68.9550  223.9330 C   0  0  0  0  0  0  0  0  0  0  0  0
  139.6500   68.9700  225.3780 C   0  0  0  0  0  0  0  0  0  0  0  0
  139.2200   67.9540  226.2440 C   0  0  0  0  0  0  0  0  0  0  0  0
  139.6210   67.9540  227.5820 C   0  0  0  0  0  0  0  0  0  0  0  0
  140.4640   68.9590  228.0600 C   0  0  0  0  0  0  0  0  0  0  0  0
  140.9130   69.9630  227.1990 C   0  0  0  0  0  0  0  0  0  0  0  0
  140.5070   69.9790  225.8550 C   0  0  0  0  0  0  0  0  0  0  0  0
  141.0690   71.0240  224.9200 C   0  0  0  0  0  0  0  0  0  0  0  0
  140.0560   73.3940  222.6930 N   0  0  0  0  0  0  0  0  0  0  0  0
  140.5210   76.8590  221.8970 C   0  0  0  0  0  0  0  0  0  0  0  0
  139.6760   78.0980  221.6080 C   0  0  0  0  0  0  0  0  0  0  0  0
  136.6200   79.4710  223.1660 N   0  0  0  0  0  0  0  0  0  0  0  0
  136.1310   80.5330  223.8610 C   0  0  0  0  0  0  0  0  0  0  0  0
  136.6104   82.2132  225.1504 H   0  0  0  0  0  0  0  0  0  0  0  0
  139.0609   81.7067  225.1462 H   0  0  0  0  0  0  0  0  0  0  0  0
  139.9253   79.7588  223.8442 H   0  0  0  0  0  0  0  0  0  0  0  0
  137.4793   76.4000  223.3109 H   0  0  0  0  0  0  0  0  0  0  0  0
  136.6591   77.0214  221.8101 H   0  0  0  0  0  0  0  0  0  0  0  0
  137.8331   74.7244  221.6648 H   0  0  0  0  0  0  0  0  0  0  0  0
  138.1831   75.9460  220.3833 H   0  0  0  0  0  0  0  0  0  0  0  0
  143.1550   74.4829  218.9914 H   0  0  0  0  0  0  0  0  0  0  0  0
  144.4552   74.3537  220.2328 H   0  0  0  0  0  0  0  0  0  0  0  0
  144.3100   72.9349  217.5264 H   0  0  0  0  0  0  0  0  0  0  0  0
  145.5067   74.1603  218.0566 H   0  0  0  0  0  0  0  0  0  0  0  0
  144.9183   70.5522  218.1835 H   0  0  0  0  0  0  0  0  0  0  0  0
  145.4136   70.5800  219.9595 H   0  0  0  0  0  0  0  0  0  0  0  0
  142.7909   71.1240  218.7101 H   0  0  0  0  0  0  0  0  0  0  0  0
  143.2404   70.6090  220.3922 H   0  0  0  0  0  0  0  0  0  0  0  0
  138.2388   70.8585  223.9459 H   0  0  0  0  0  0  0  0  0  0  0  0
  138.8964   70.3549  222.3405 H   0  0  0  0  0  0  0  0  0  0  0  0
  138.2971   68.4164  223.8240 H   0  0  0  0  0  0  0  0  0  0  0  0
  140.0318   68.4505  223.3462 H   0  0  0  0  0  0  0  0  0  0  0  0
  138.5647   67.1544  225.8682 H   0  0  0  0  0  0  0  0  0  0  0  0
  139.2721   67.1611  228.2600 H   0  0  0  0  0  0  0  0  0  0  0  0
  140.7748   68.9601  229.1152 H   0  0  0  0  0  0  0  0  0  0  0  0
  141.5882   70.7453  227.5759 H   0  0  0  0  0  0  0  0  0  0  0  0
  141.0725   71.9918  225.4429 H   0  0  0  0  0  0  0  0  0  0  0  0
  142.0803   70.6939  224.6403 H   0  0  0  0  0  0  0  0  0  0  0  0
  140.9096   76.9244  222.9240 H   0  0  0  0  0  0  0  0  0  0  0  0
  141.3420   76.8262  221.1656 H   0  0  0  0  0  0  0  0  0  0  0  0
  140.2307   78.9971  221.9147 H   0  0  0  0  0  0  0  0  0  0  0  0
  139.4583   78.1438  220.5307 H   0  0  0  0  0  0  0  0  0  0  0  0
  135.0517   80.7452  223.8536 H   0  0  0  0  0  0  0  0  0  0  0  0
  1  2  2  0
  2  3  1  0
  3  4  2  0
  4  5  1  0
  5  6  1  0
  6  7  1  0
  7  8  1  0
  8  9  1  0
  9 10  2  0
 10 11  1  0
 11 12  1  0
 12 13  1  0
 13 14  1  0
 14 15  1  0
 15 16  1  0
 16 17  1  0
 11 18  2  0
 18 19  1  0
 19 20  1  0
 20 21  1  0
 21 22  1  0
 22 23  1  0
 23 24  2  0
 24 25  1  0
 25 26  2  0
 26 27  1  0
 27 28  2  0
 28 29  1  0
 19 30  2  0
  8 31  1  0
 31 32  1  0
  4 33  1  0
 33 34  2  0
 34  1  1  0
 32  5  1  0
 30  9  1  0
 17 12  1  0
 29 20  1  0
 28 23  1  0
  1 35  1  0
  2 36  1  0
  3 37  1  0
  6 38  1  0
  6 39  1  0
  7 40  1  0
  7 41  1  0
 13 42  1  0
 13 43  1  0
 14 44  1  0
 14 45  1  0
 16 46  1  0
 16 47  1  0
 17 48  1  0
 17 49  1  0
 21 50  1  0
 21 51  1  0
 22 52  1  0
 22 53  1  0
 24 54  1  0
 25 55  1  0
 26 56  1  0
 27 57  1  0
 29 58  1  0
 29 59  1  0
 31 60  1  0
 31 61  1  0
 32 62  1  0
 32 63  1  0
 34 64  1  0
M  END
>  <UniqueID>  (47) 
276

>  <SMILES>  (47) 
c1ccc(N2CCN(c3nc(N4CCOCC4)nc(N4CCc5ccccc5C4)n3)CC2)nc1

>  <Energy>  (47) 
80.303266191423

>  <Genealogy>  (47) 
c1ccc(N2CCN(c3nc(N4CCOCC4)nc(N4CCc5ccccc5C4)n3)CC2)nc1 (3D coordinates assigned)
c1ccc(N2CCN(c3nc(N4CCOCC4)nc(N4CCc5ccccc5C4)n3)CC2)nc1 (nonaromatic ring conformer: 80.303266191423 kcal/mol)

>  <smiles>  (47) 
c1ccc(N2CCN(c3nc(N4CCOCC4)nc(N4CCc5ccccc5C4)n3)CC2)nc1

>  <score_type>  (47) 
oracle

>  <origin>  (47) 
autodockgpu

>  <m_score__min__energy>  (47) 
-8.9399999999999995

>  <m_primary>  (47) 
energy

>  <meeko>  (47) 
{"free_energy": -8.92, "intermolecular_energy": -10.12, "internal_energy": -0.89, "cluster_size": 18, "cluster_id": 1, "rank_in_cluster": 5}

>  <energy>  (47) 
-8.92

>  <cluster_rmsd>  (47) 
0.04

>  <rmsd>  (47) 
270.57

>  <cluster>  (47) 
1

$$$$
XSFBOMDNDOCRMT-UHFFFAOYNA-N
     RDKit          3D

 64 69  0  0  0  0  0  0  0  0999 V2000
  136.9910   81.3200  224.5660 C   0  0  0  0  0  0  0  0  0  0  0  0
  138.3540   81.0230  224.5870 C   0  0  0  0  0  0  0  0  0  0  0  0
  138.8420   79.9380  223.8570 C   0  0  0  0  0  0  0  0  0  0  0  0
  137.9520   79.1400  223.1050 C   0  0  0  0  0  0  0  0  0  0  0  0
  138.4190   78.0120  222.3200 N   0  0  0  0  0  0  0  0  0  0  0  0
  137.6180   76.7740  222.2190 C   0  0  0  0  0  0  0  0  0  0  0  0
  138.3070   75.6940  221.3780 C   0  0  0  0  0  0  0  0  0  0  0  0
  139.7350   75.6010  221.7230 N   0  0  0  0  0  0  0  0  0  0  0  0
  140.4090   74.3290  221.7620 C   0  0  0  0  0  0  0  0  0  0  0  0
  141.4290   74.0690  220.9010 N   0  0  0  0  0  0  0  0  0  0  0  0
  142.0790   72.8780  220.9310 C   0  0  0  0  0  0  0  0  0  0  0  0
  143.1450   72.6090  219.9990 N   0  0  0  0  0  0  0  0  0  0  0  0
  143.5610   73.6670  219.0700 C   0  0  0  0  0  0  0  0  0  0  0  0
  144.5670   73.1190  218.0610 C   0  0  0  0  0  0  0  0  0  0  0  0
  145.5870   72.4350  218.7540 O   0  0  0  0  0  0  0  0  0  0  0  0
  145.1050   71.2110  219.2980 C   0  0  0  0  0  0  0  0  0  0  0  0
  143.6420   71.2360  219.8170 C   0  0  0  0  0  0  0  0  0  0  0  0
  141.6990   71.9350  221.8330 N   0  0  0  0  0  0  0  0  0  0  0  0
  140.6790   72.1730  222.7000 C   0  0  0  0  0  0  0  0  0  0  0  0
  140.2760   71.1550  223.6410 N   0  0  0  0  0  0  0  0  0  0  0  0
  139.0670   70.3500  223.3920 C   0  0  0  0  0  0  0  0  0  0  0  0
  139.2430   68.9280  223.9220 C   0  0  0  0  0  0  0  0  0  0  0  0
  139.6260   68.9670  225.3710 C   0  0  0  0  0  0  0  0  0  0  0  0
  139.1970   67.9580  226.2460 C   0  0  0  0  0  0  0  0  0  0  0  0
  139.5820   67.9800  227.5890 C   0  0  0  0  0  0  0  0  0  0  0  0
  140.4100   69.0000  228.0620 C   0  0  0  0  0  0  0  0  0  0  0  0
  140.8570   69.9980  227.1930 C   0  0  0  0  0  0  0  0  0  0  0  0
  140.4670   69.9910  225.8440 C   0  0  0  0  0  0  0  0  0  0  0  0
  141.0280   71.0300  224.9020 C   0  0  0  0  0  0  0  0  0  0  0  0
  140.0400   73.3730  222.6580 N   0  0  0  0  0  0  0  0  0  0  0  0
  140.5270   76.8280  221.8920 C   0  0  0  0  0  0  0  0  0  0  0  0
  139.7010   78.0790  221.6030 C   0  0  0  0  0  0  0  0  0  0  0  0
  136.6250   79.4610  223.1130 N   0  0  0  0  0  0  0  0  0  0  0  0
  136.1310   80.5180  223.8130 C   0  0  0  0  0  0  0  0  0  0  0  0
  136.5987   82.1754  225.1356 H   0  0  0  0  0  0  0  0  0  0  0  0
  139.0435   81.6434  225.1784 H   0  0  0  0  0  0  0  0  0  0  0  0
  139.9170   79.7051  223.8674 H   0  0  0  0  0  0  0  0  0  0  0  0
  137.4509   76.3788  223.2318 H   0  0  0  0  0  0  0  0  0  0  0  0
  136.6705   77.0295  221.7221 H   0  0  0  0  0  0  0  0  0  0  0  0
  137.8249   74.7241  221.5699 H   0  0  0  0  0  0  0  0  0  0  0  0
  138.2158   75.9607  220.3147 H   0  0  0  0  0  0  0  0  0  0  0  0
  142.6789   74.0467  218.5336 H   0  0  0  0  0  0  0  0  0  0  0  0
  144.0330   74.4801  219.6411 H   0  0  0  0  0  0  0  0  0  0  0  0
  144.0596   72.4261  217.3737 H   0  0  0  0  0  0  0  0  0  0  0  0
  145.0020   73.9476  217.4828 H   0  0  0  0  0  0  0  0  0  0  0  0
  145.1725   70.4426  218.5138 H   0  0  0  0  0  0  0  0  0  0  0  0
  145.7323   71.0058  220.1780 H   0  0  0  0  0  0  0  0  0  0  0  0
  142.9984   70.7188  219.0901 H   0  0  0  0  0  0  0  0  0  0  0  0
  143.6201   70.7342  220.7956 H   0  0  0  0  0  0  0  0  0  0  0  0
  138.2105   70.8198  223.8976 H   0  0  0  0  0  0  0  0  0  0  0  0
  138.8924   70.3026  222.3070 H   0  0  0  0  0  0  0  0  0  0  0  0
  138.2975   68.3772  223.8094 H   0  0  0  0  0  0  0  0  0  0  0  0
  140.0370   68.4245  223.3510 H   0  0  0  0  0  0  0  0  0  0  0  0
  138.5550   67.1462  225.8734 H   0  0  0  0  0  0  0  0  0  0  0  0
  139.2326   67.1934  228.2740 H   0  0  0  0  0  0  0  0  0  0  0  0
  140.7106   69.0176  229.1200 H   0  0  0  0  0  0  0  0  0  0  0  0
  141.5180   70.7936  227.5673 H   0  0  0  0  0  0  0  0  0  0  0  0
  141.0146   72.0044  225.4122 H   0  0  0  0  0  0  0  0  0  0  0  0
  142.0461   70.7079  224.6381 H   0  0  0  0  0  0  0  0  0  0  0  0
  140.8944   76.8751  222.9278 H   0  0  0  0  0  0  0  0  0  0  0  0
  141.3629   76.7971  221.1776 H   0  0  0  0  0  0  0  0  0  0  0  0
  140.2578   78.9678  221.9346 H   0  0  0  0  0  0  0  0  0  0  0  0
  139.5072   78.1420  220.5220 H   0  0  0  0  0  0  0  0  0  0  0  0
  135.0541   80.7407  223.7857 H   0  0  0  0  0  0  0  0  0  0  0  0
  1  2  2  0
  2  3  1  0
  3  4  2  0
  4  5  1  0
  5  6  1  0
  6  7  1  0
  7  8  1  0
  8  9  1  0
  9 10  2  0
 10 11  1  0
 11 12  1  0
 12 13  1  0
 13 14  1  0
 14 15  1  0
 15 16  1  0
 16 17  1  0
 11 18  2  0
 18 19  1  0
 19 20  1  0
 20 21  1  0
 21 22  1  0
 22 23  1  0
 23 24  2  0
 24 25  1  0
 25 26  2  0
 26 27  1  0
 27 28  2  0
 28 29  1  0
 19 30  2  0
  8 31  1  0
 31 32  1  0
  4 33  1  0
 33 34  2  0
 34  1  1  0
 32  5  1  0
 30  9  1  0
 17 12  1  0
 29 20  1  0
 28 23  1  0
  1 35  1  0
  2 36  1  0
  3 37  1  0
  6 38  1  0
  6 39  1  0
  7 40  1  0
  7 41  1  0
 13 42  1  0
 13 43  1  0
 14 44  1  0
 14 45  1  0
 16 46  1  0
 16 47  1  0
 17 48  1  0
 17 49  1  0
 21 50  1  0
 21 51  1  0
 22 52  1  0
 22 53  1  0
 24 54  1  0
 25 55  1  0
 26 56  1  0
 27 57  1  0
 29 58  1  0
 29 59  1  0
 31 60  1  0
 31 61  1  0
 32 62  1  0
 32 63  1  0
 34 64  1  0
M  END
>  <UniqueID>  (48) 
276

>  <SMILES>  (48) 
c1ccc(N2CCN(c3nc(N4CCOCC4)nc(N4CCc5ccccc5C4)n3)CC2)nc1

>  <Energy>  (48) 
80.303266191423

>  <Genealogy>  (48) 
c1ccc(N2CCN(c3nc(N4CCOCC4)nc(N4CCc5ccccc5C4)n3)CC2)nc1 (3D coordinates assigned)
c1ccc(N2CCN(c3nc(N4CCOCC4)nc(N4CCc5ccccc5C4)n3)CC2)nc1 (nonaromatic ring conformer: 80.303266191423 kcal/mol)

>  <smiles>  (48) 
c1ccc(N2CCN(c3nc(N4CCOCC4)nc(N4CCc5ccccc5C4)n3)CC2)nc1

>  <score_type>  (48) 
oracle

>  <origin>  (48) 
autodockgpu

>  <m_score__min__energy>  (48) 
-8.9399999999999995

>  <m_primary>  (48) 
energy

>  <meeko>  (48) 
{"free_energy": -8.86, "intermolecular_energy": -10.05, "internal_energy": -0.89, "cluster_size": 18, "cluster_id": 1, "rank_in_cluster": 15}

>  <energy>  (48) 
-8.92

>  <cluster_rmsd>  (48) 
0.05

>  <rmsd>  (48) 
270.55

>  <cluster>  (48) 
1

$$$$
XSFBOMDNDOCRMT-UHFFFAOYNA-N
     RDKit          3D

 64 69  0  0  0  0  0  0  0  0999 V2000
  137.0060   81.3630  224.6200 C   0  0  0  0  0  0  0  0  0  0  0  0
  138.3740   81.0950  224.5790 C   0  0  0  0  0  0  0  0  0  0  0  0
  138.8480   80.0010  223.8530 C   0  0  0  0  0  0  0  0  0  0  0  0
  137.9390   79.1650  223.1690 C   0  0  0  0  0  0  0  0  0  0  0  0
  138.3880   78.0240  222.3910 N   0  0  0  0  0  0  0  0  0  0  0  0
  137.6000   76.7760  222.3470 C   0  0  0  0  0  0  0  0  0  0  0  0
  138.2690   75.6860  221.5030 C   0  0  0  0  0  0  0  0  0  0  0  0
  139.7110   75.6170  221.7940 N   0  0  0  0  0  0  0  0  0  0  0  0
  140.4020   74.3540  221.8350 C   0  0  0  0  0  0  0  0  0  0  0  0
  141.4390   74.1150  220.9880 N   0  0  0  0  0  0  0  0  0  0  0  0
  142.1050   72.9330  221.0190 C   0  0  0  0  0  0  0  0  0  0  0  0
  143.1890   72.6870  220.1020 N   0  0  0  0  0  0  0  0  0  0  0  0
  143.8830   73.8300  219.4970 C   0  0  0  0  0  0  0  0  0  0  0  0
  144.8640   73.3490  218.4310 C   0  0  0  0  0  0  0  0  0  0  0  0
  145.6670   72.3250  218.9740 O   0  0  0  0  0  0  0  0  0  0  0  0
  144.9170   71.1300  219.1630 C   0  0  0  0  0  0  0  0  0  0  0  0
  143.4400   71.3270  219.5990 C   0  0  0  0  0  0  0  0  0  0  0  0
  141.7240   71.9780  221.9070 N   0  0  0  0  0  0  0  0  0  0  0  0
  140.6860   72.1950  222.7600 C   0  0  0  0  0  0  0  0  0  0  0  0
  140.2830   71.1640  223.6860 N   0  0  0  0  0  0  0  0  0  0  0  0
  139.0590   70.3820  223.4390 C   0  0  0  0  0  0  0  0  0  0  0  0
  139.2210   68.9470  223.9390 C   0  0  0  0  0  0  0  0  0  0  0  0
  139.6270   68.9510  225.3810 C   0  0  0  0  0  0  0  0  0  0  0  0
  139.1960   67.9300  226.2430 C   0  0  0  0  0  0  0  0  0  0  0  0
  139.6020   67.9200  227.5790 C   0  0  0  0  0  0  0  0  0  0  0  0
  140.4510   68.9170  228.0600 C   0  0  0  0  0  0  0  0  0  0  0  0
  140.9010   69.9260  227.2050 C   0  0  0  0  0  0  0  0  0  0  0  0
  140.4900   69.9520  225.8620 C   0  0  0  0  0  0  0  0  0  0  0  0
  141.0520   71.0010  224.9330 C   0  0  0  0  0  0  0  0  0  0  0  0
  140.0320   73.3860  222.7170 N   0  0  0  0  0  0  0  0  0  0  0  0
  140.4930   76.8570  221.9070 C   0  0  0  0  0  0  0  0  0  0  0  0
  139.6410   78.0920  221.6230 C   0  0  0  0  0  0  0  0  0  0  0  0
  136.6070   79.4580  223.2370 N   0  0  0  0  0  0  0  0  0  0  0  0
  136.1260   80.5240  223.9340 C   0  0  0  0  0  0  0  0  0  0  0  0
  136.6248   82.2255  225.1863 H   0  0  0  0  0  0  0  0  0  0  0  0
  139.0788   81.7450  225.1182 H   0  0  0  0  0  0  0  0  0  0  0  0
  139.9270   79.7908  223.8140 H   0  0  0  0  0  0  0  0  0  0  0  0
  137.4769   76.4007  223.3737 H   0  0  0  0  0  0  0  0  0  0  0  0
  136.6312   77.0100  221.8816 H   0  0  0  0  0  0  0  0  0  0  0  0
  137.8067   74.7150  221.7342 H   0  0  0  0  0  0  0  0  0  0  0  0
  138.1332   75.9283  220.4386 H   0  0  0  0  0  0  0  0  0  0  0  0
  143.1436   74.5001  219.0341 H   0  0  0  0  0  0  0  0  0  0  0  0
  144.4392   74.3667  220.2797 H   0  0  0  0  0  0  0  0  0  0  0  0
  144.3069   72.9609  217.5655 H   0  0  0  0  0  0  0  0  0  0  0  0
  145.4992   74.1862  218.1059 H   0  0  0  0  0  0  0  0  0  0  0  0
  144.9184   70.5757  218.2128 H   0  0  0  0  0  0  0  0  0  0  0  0
  145.4063   70.5953  219.9904 H   0  0  0  0  0  0  0  0  0  0  0  0
  142.7868   71.1426  218.7333 H   0  0  0  0  0  0  0  0  0  0  0  0
  143.2299   70.6195  220.4147 H   0  0  0  0  0  0  0  0  0  0  0  0
  138.2169   70.8545  223.9659 H   0  0  0  0  0  0  0  0  0  0  0  0
  138.8686   70.3583  222.3559 H   0  0  0  0  0  0  0  0  0  0  0  0
  138.2653   68.4133  223.8309 H   0  0  0  0  0  0  0  0  0  0  0  0
  139.9982   68.4429  223.3459 H   0  0  0  0  0  0  0  0  0  0  0  0
  138.5363   67.1353  225.8646 H   0  0  0  0  0  0  0  0  0  0  0  0
  139.2518   67.1246  228.2533 H   0  0  0  0  0  0  0  0  0  0  0  0
  140.7665   68.9086  229.1138 H   0  0  0  0  0  0  0  0  0  0  0  0
  141.5801   70.7034  227.5851 H   0  0  0  0  0  0  0  0  0  0  0  0
  141.0615   71.9647  225.4632 H   0  0  0  0  0  0  0  0  0  0  0  0
  142.0606   70.6684  224.6466 H   0  0  0  0  0  0  0  0  0  0  0  0
  140.8983   76.9308  222.9270 H   0  0  0  0  0  0  0  0  0  0  0  0
  141.3017   76.8206  221.1622 H   0  0  0  0  0  0  0  0  0  0  0  0
  140.1986   78.9944  221.9141 H   0  0  0  0  0  0  0  0  0  0  0  0
  139.4057   78.1302  220.5491 H   0  0  0  0  0  0  0  0  0  0  0  0
  135.0446   80.7241  223.9566 H   0  0  0  0  0  0  0  0  0  0  0  0
  1  2  2  0
  2  3  1  0
  3  4  2  0
  4  5  1  0
  5  6  1  0
  6  7  1  0
  7  8  1  0
  8  9  1  0
  9 10  2  0
 10 11  1  0
 11 12  1  0
 12 13  1  0
 13 14  1  0
 14 15  1  0
 15 16  1  0
 16 17  1  0
 11 18  2  0
 18 19  1  0
 19 20  1  0
 20 21  1  0
 21 22  1  0
 22 23  1  0
 23 24  2  0
 24 25  1  0
 25 26  2  0
 26 27  1  0
 27 28  2  0
 28 29  1  0
 19 30  2  0
  8 31  1  0
 31 32  1  0
  4 33  1  0
 33 34  2  0
 34  1  1  0
 32  5  1  0
 30  9  1  0
 17 12  1  0
 29 20  1  0
 28 23  1  0
  1 35  1  0
  2 36  1  0
  3 37  1  0
  6 38  1  0
  6 39  1  0
  7 40  1  0
  7 41  1  0
 13 42  1  0
 13 43  1  0
 14 44  1  0
 14 45  1  0
 16 46  1  0
 16 47  1  0
 17 48  1  0
 17 49  1  0
 21 50  1  0
 21 51  1  0
 22 52  1  0
 22 53  1  0
 24 54  1  0
 25 55  1  0
 26 56  1  0
 27 57  1  0
 29 58  1  0
 29 59  1  0
 31 60  1  0
 31 61  1  0
 32 62  1  0
 32 63  1  0
 34 64  1  0
M  END
>  <UniqueID>  (49) 
276

>  <SMILES>  (49) 
c1ccc(N2CCN(c3nc(N4CCOCC4)nc(N4CCc5ccccc5C4)n3)CC2)nc1

>  <Energy>  (49) 
80.303266191423

>  <Genealogy>  (49) 
c1ccc(N2CCN(c3nc(N4CCOCC4)nc(N4CCc5ccccc5C4)n3)CC2)nc1 (3D coordinates assigned)
c1ccc(N2CCN(c3nc(N4CCOCC4)nc(N4CCc5ccccc5C4)n3)CC2)nc1 (nonaromatic ring conformer: 80.303266191423 kcal/mol)

>  <smiles>  (49) 
c1ccc(N2CCN(c3nc(N4CCOCC4)nc(N4CCc5ccccc5C4)n3)CC2)nc1

>  <score_type>  (49) 
oracle

>  <origin>  (49) 
autodockgpu

>  <m_score__min__energy>  (49) 
-8.9399999999999995

>  <m_primary>  (49) 
energy

>  <meeko>  (49) 
{"free_energy": -8.94, "intermolecular_energy": -10.13, "internal_energy": -0.89, "cluster_size": 18, "cluster_id": 1, "rank_in_cluster": 1}

>  <energy>  (49) 
-8.91

>  <cluster_rmsd>  (49) 
0.08

>  <rmsd>  (49) 
270.53

>  <cluster>  (49) 
1

$$$$
XSFBOMDNDOCRMT-UHFFFAOYNA-N
     RDKit          3D

 64 69  0  0  0  0  0  0  0  0999 V2000
  137.3480   81.6440  224.2810 C   0  0  0  0  0  0  0  0  0  0  0  0
  136.5050   81.2000  223.2620 C   0  0  0  0  0  0  0  0  0  0  0  0
  136.8110   80.0290  222.5650 C   0  0  0  0  0  0  0  0  0  0  0  0
  137.9770   79.3030  222.8910 C   0  0  0  0  0  0  0  0  0  0  0  0
  138.3260   78.0730  222.2020 N   0  0  0  0  0  0  0  0  0  0  0  0
  137.5790   76.8240  222.4530 C   0  0  0  0  0  0  0  0  0  0  0  0
  138.1330   75.6370  221.6560 C   0  0  0  0  0  0  0  0  0  0  0  0
  139.6040   75.6190  221.7080 N   0  0  0  0  0  0  0  0  0  0  0  0
  140.3290   74.3780  221.7950 C   0  0  0  0  0  0  0  0  0  0  0  0
  141.3740   74.1380  220.9580 N   0  0  0  0  0  0  0  0  0  0  0  0
  142.0720   72.9760  221.0330 C   0  0  0  0  0  0  0  0  0  0  0  0
  143.1640   72.7270  220.1260 N   0  0  0  0  0  0  0  0  0  0  0  0
  143.8320   73.8660  219.4850 C   0  0  0  0  0  0  0  0  0  0  0  0
  144.8270   73.3760  218.4370 C   0  0  0  0  0  0  0  0  0  0  0  0
  145.6530   72.3880  219.0140 O   0  0  0  0  0  0  0  0  0  0  0  0
  144.9300   71.1830  219.2380 C   0  0  0  0  0  0  0  0  0  0  0  0
  143.4490   71.3580  219.6660 C   0  0  0  0  0  0  0  0  0  0  0  0
  141.7170   72.0440  221.9550 N   0  0  0  0  0  0  0  0  0  0  0  0
  140.6720   72.2620  222.7980 C   0  0  0  0  0  0  0  0  0  0  0  0
  140.2960   71.2550  223.7610 N   0  0  0  0  0  0  0  0  0  0  0  0
  139.0820   70.4470  223.5540 C   0  0  0  0  0  0  0  0  0  0  0  0
  139.2730   69.0310  224.0960 C   0  0  0  0  0  0  0  0  0  0  0  0
  139.6960   69.0870  225.5330 C   0  0  0  0  0  0  0  0  0  0  0  0
  139.2910   68.0870  226.4310 C   0  0  0  0  0  0  0  0  0  0  0  0
  139.7140   68.1250  227.7620 C   0  0  0  0  0  0  0  0  0  0  0  0
  140.5530   69.1500  228.2010 C   0  0  0  0  0  0  0  0  0  0  0  0
  140.9760   70.1380  227.3090 C   0  0  0  0  0  0  0  0  0  0  0  0
  140.5480   70.1160  225.9720 C   0  0  0  0  0  0  0  0  0  0  0  0
  141.0830   71.1440  225.0030 C   0  0  0  0  0  0  0  0  0  0  0  0
  139.9850   73.4330  222.7120 N   0  0  0  0  0  0  0  0  0  0  0  0
  140.3570   76.8690  221.5270 C   0  0  0  0  0  0  0  0  0  0  0  0
  139.4330   78.0490  221.2340 C   0  0  0  0  0  0  0  0  0  0  0  0
  138.7780   79.7730  223.8920 N   0  0  0  0  0  0  0  0  0  0  0  0
  138.4930   80.9070  224.5870 C   0  0  0  0  0  0  0  0  0  0  0  0
  137.1131   82.5639  224.8366 H   0  0  0  0  0  0  0  0  0  0  0  0
  135.6002   81.7716  223.0077 H   0  0  0  0  0  0  0  0  0  0  0  0
  136.1455   79.6735  221.7645 H   0  0  0  0  0  0  0  0  0  0  0  0
  137.6385   76.5871  223.5255 H   0  0  0  0  0  0  0  0  0  0  0  0
  136.5397   76.9862  222.1312 H   0  0  0  0  0  0  0  0  0  0  0  0
  137.7447   74.7012  222.0844 H   0  0  0  0  0  0  0  0  0  0  0  0
  137.8165   75.7356  220.6071 H   0  0  0  0  0  0  0  0  0  0  0  0
  143.0777   74.5026  218.9994 H   0  0  0  0  0  0  0  0  0  0  0  0
  144.3735   74.4403  220.2511 H   0  0  0  0  0  0  0  0  0  0  0  0
  144.2820   72.9481  217.5827 H   0  0  0  0  0  0  0  0  0  0  0  0
  145.4431   74.2176  218.0874 H   0  0  0  0  0  0  0  0  0  0  0  0
  144.9458   70.6007  218.3049 H   0  0  0  0  0  0  0  0  0  0  0  0
  145.4298   70.6854  220.0822 H   0  0  0  0  0  0  0  0  0  0  0  0
  142.8020   71.1308  218.8059 H   0  0  0  0  0  0  0  0  0  0  0  0
  143.2549   70.6718  220.5035 H   0  0  0  0  0  0  0  0  0  0  0  0
  138.2390   70.9225  224.0767 H   0  0  0  0  0  0  0  0  0  0  0  0
  138.8787   70.3867  222.4746 H   0  0  0  0  0  0  0  0  0  0  0  0
  138.3249   68.4790  224.0162 H   0  0  0  0  0  0  0  0  0  0  0  0
  140.0511   68.5207  223.5093 H   0  0  0  0  0  0  0  0  0  0  0  0
  138.6388   67.2712  226.0858 H   0  0  0  0  0  0  0  0  0  0  0  0
  139.3851   67.3456  228.4651 H   0  0  0  0  0  0  0  0  0  0  0  0
  140.8815   69.1799  229.2504 H   0  0  0  0  0  0  0  0  0  0  0  0
  141.6477   70.9372  227.6556 H   0  0  0  0  0  0  0  0  0  0  0  0
  141.0838   72.1242  225.5022 H   0  0  0  0  0  0  0  0  0  0  0  0
  142.0934   70.8184  224.7149 H   0  0  0  0  0  0  0  0  0  0  0  0
  140.9236   77.0798  222.4459 H   0  0  0  0  0  0  0  0  0  0  0  0
  141.0317   76.7409  220.6677 H   0  0  0  0  0  0  0  0  0  0  0  0
  140.0037   78.9863  221.3099 H   0  0  0  0  0  0  0  0  0  0  0  0
  139.0229   77.9433  220.2188 H   0  0  0  0  0  0  0  0  0  0  0  0
  139.1650   81.2432  225.3903 H   0  0  0  0  0  0  0  0  0  0  0  0
  1  2  2  0
  2  3  1  0
  3  4  2  0
  4  5  1  0
  5  6  1  0
  6  7  1  0
  7  8  1  0
  8  9  1  0
  9 10  2  0
 10 11  1  0
 11 12  1  0
 12 13  1  0
 13 14  1  0
 14 15  1  0
 15 16  1  0
 16 17  1  0
 11 18  2  0
 18 19  1  0
 19 20  1  0
 20 21  1  0
 21 22  1  0
 22 23  1  0
 23 24  2  0
 24 25  1  0
 25 26  2  0
 26 27  1  0
 27 28  2  0
 28 29  1  0
 19 30  2  0
  8 31  1  0
 31 32  1  0
  4 33  1  0
 33 34  2  0
 34  1  1  0
 32  5  1  0
 30  9  1  0
 17 12  1  0
 29 20  1  0
 28 23  1  0
  1 35  1  0
  2 36  1  0
  3 37  1  0
  6 38  1  0
  6 39  1  0
  7 40  1  0
  7 41  1  0
 13 42  1  0
 13 43  1  0
 14 44  1  0
 14 45  1  0
 16 46  1  0
 16 47  1  0
 17 48  1  0
 17 49  1  0
 21 50  1  0
 21 51  1  0
 22 52  1  0
 22 53  1  0
 24 54  1  0
 25 55  1  0
 26 56  1  0
 27 57  1  0
 29 58  1  0
 29 59  1  0
 31 60  1  0
 31 61  1  0
 32 62  1  0
 32 63  1  0
 34 64  1  0
M  END
>  <UniqueID>  (50) 
276

>  <SMILES>  (50) 
c1ccc(N2CCN(c3nc(N4CCOCC4)nc(N4CCc5ccccc5C4)n3)CC2)nc1

>  <Energy>  (50) 
80.303266191423

>  <Genealogy>  (50) 
c1ccc(N2CCN(c3nc(N4CCOCC4)nc(N4CCc5ccccc5C4)n3)CC2)nc1 (3D coordinates assigned)
c1ccc(N2CCN(c3nc(N4CCOCC4)nc(N4CCc5ccccc5C4)n3)CC2)nc1 (nonaromatic ring conformer: 80.303266191423 kcal/mol)

>  <smiles>  (50) 
c1ccc(N2CCN(c3nc(N4CCOCC4)nc(N4CCc5ccccc5C4)n3)CC2)nc1

>  <score_type>  (50) 
oracle

>  <origin>  (50) 
autodockgpu

>  <m_score__min__energy>  (50) 
-8.9399999999999995

>  <m_primary>  (50) 
energy

>  <meeko>  (50) 
{"free_energy": -8.73, "intermolecular_energy": -9.92, "internal_energy": -0.9, "cluster_size": 18, "cluster_id": 1, "rank_in_cluster": 17}

>  <energy>  (50) 
-8.91

>  <cluster_rmsd>  (50) 
0.12

>  <rmsd>  (50) 
270.54

>  <cluster>  (50) 
1

$$$$
XSFBOMDNDOCRMT-UHFFFAOYNA-N
     RDKit          3D

 64 69  0  0  0  0  0  0  0  0999 V2000
  136.8030   81.3120  224.5760 C   0  0  0  0  0  0  0  0  0  0  0  0
  138.1810   81.0960  224.5760 C   0  0  0  0  0  0  0  0  0  0  0  0
  138.7200   80.0360  223.8440 C   0  0  0  0  0  0  0  0  0  0  0  0
  137.8660   79.1820  223.1120 C   0  0  0  0  0  0  0  0  0  0  0  0
  138.3840   78.0770  222.3270 N   0  0  0  0  0  0  0  0  0  0  0  0
  137.5980   76.8390  222.1470 C   0  0  0  0  0  0  0  0  0  0  0  0
  138.3420   75.7850  221.3190 C   0  0  0  0  0  0  0  0  0  0  0  0
  139.7480   75.6890  221.7440 N   0  0  0  0  0  0  0  0  0  0  0  0
  140.4270   74.4190  221.7900 C   0  0  0  0  0  0  0  0  0  0  0  0
  141.4560   74.1640  220.9380 N   0  0  0  0  0  0  0  0  0  0  0  0
  142.1100   72.9760  220.9740 C   0  0  0  0  0  0  0  0  0  0  0  0
  143.1860   72.7120  220.0510 N   0  0  0  0  0  0  0  0  0  0  0  0
  143.8590   73.8420  219.4000 C   0  0  0  0  0  0  0  0  0  0  0  0
  144.8320   73.3380  218.3380 C   0  0  0  0  0  0  0  0  0  0  0  0
  145.6540   72.3410  218.9040 O   0  0  0  0  0  0  0  0  0  0  0  0
  144.9200   71.1450  219.1410 C   0  0  0  0  0  0  0  0  0  0  0  0
  143.4460   71.3390  219.5890 C   0  0  0  0  0  0  0  0  0  0  0  0
  141.7260   72.0310  221.8710 N   0  0  0  0  0  0  0  0  0  0  0  0
  140.6960   72.2640  222.7290 C   0  0  0  0  0  0  0  0  0  0  0  0
  140.2880   71.2440  223.6650 N   0  0  0  0  0  0  0  0  0  0  0  0
  139.0710   70.4520  223.4170 C   0  0  0  0  0  0  0  0  0  0  0  0
  139.2360   69.0260  223.9380 C   0  0  0  0  0  0  0  0  0  0  0  0
  139.6270   69.0520  225.3850 C   0  0  0  0  0  0  0  0  0  0  0  0
  139.1920   68.0410  226.2560 C   0  0  0  0  0  0  0  0  0  0  0  0
  139.5840   68.0520  227.5970 C   0  0  0  0  0  0  0  0  0  0  0  0
  140.4230   69.0610  228.0730 C   0  0  0  0  0  0  0  0  0  0  0  0
  140.8760   70.0600  227.2070 C   0  0  0  0  0  0  0  0  0  0  0  0
  140.4790   70.0650  225.8610 C   0  0  0  0  0  0  0  0  0  0  0  0
  141.0460   71.1040  224.9220 C   0  0  0  0  0  0  0  0  0  0  0  0
  140.0530   73.4620  222.6820 N   0  0  0  0  0  0  0  0  0  0  0  0
  140.5210   76.9160  221.9920 C   0  0  0  0  0  0  0  0  0  0  0  0
  139.7050   78.1700  221.6880 C   0  0  0  0  0  0  0  0  0  0  0  0
  136.5220   79.4240  223.1420 N   0  0  0  0  0  0  0  0  0  0  0  0
  135.9790   80.4560  223.8430 C   0  0  0  0  0  0  0  0  0  0  0  0
  136.3706   82.1470  225.1468 H   0  0  0  0  0  0  0  0  0  0  0  0
  138.8424   81.7599  225.1520 H   0  0  0  0  0  0  0  0  0  0  0  0
  139.8069   79.8666  223.8375 H   0  0  0  0  0  0  0  0  0  0  0  0
  137.3748   76.4160  223.1376 H   0  0  0  0  0  0  0  0  0  0  0  0
  136.6792   77.1032  221.6030 H   0  0  0  0  0  0  0  0  0  0  0  0
  137.8554   74.8081  221.4564 H   0  0  0  0  0  0  0  0  0  0  0  0
  138.3114   76.0802  220.2598 H   0  0  0  0  0  0  0  0  0  0  0  0
  143.1061   74.4881  218.9250 H   0  0  0  0  0  0  0  0  0  0  0  0
  144.4187   74.4100  220.1576 H   0  0  0  0  0  0  0  0  0  0  0  0
  144.2689   72.9156  217.4927 H   0  0  0  0  0  0  0  0  0  0  0  0
  145.4531   74.1713  217.9778 H   0  0  0  0  0  0  0  0  0  0  0  0
  144.9162   70.5602  218.2093 H   0  0  0  0  0  0  0  0  0  0  0  0
  145.4254   70.6434  219.9795 H   0  0  0  0  0  0  0  0  0  0  0  0
  142.7844   71.1194  218.7381 H   0  0  0  0  0  0  0  0  0  0  0  0
  143.2537   70.6558  220.4294 H   0  0  0  0  0  0  0  0  0  0  0  0
  138.2212   70.9269  223.9291 H   0  0  0  0  0  0  0  0  0  0  0  0
  138.8912   70.4124  222.3325 H   0  0  0  0  0  0  0  0  0  0  0  0
  138.2846   68.4851  223.8272 H   0  0  0  0  0  0  0  0  0  0  0  0
  140.0225   68.5186  223.3600 H   0  0  0  0  0  0  0  0  0  0  0  0
  138.5405   67.2376  225.8817 H   0  0  0  0  0  0  0  0  0  0  0  0
  139.2309   67.2643  228.2788 H   0  0  0  0  0  0  0  0  0  0  0  0
  140.7277   69.0698  229.1299 H   0  0  0  0  0  0  0  0  0  0  0  0
  141.5472   70.8465  227.5824 H   0  0  0  0  0  0  0  0  0  0  0  0
  141.0454   72.0755  225.4379 H   0  0  0  0  0  0  0  0  0  0  0  0
  142.0595   70.7732  224.6509 H   0  0  0  0  0  0  0  0  0  0  0  0
  140.8265   76.9372  223.0485 H   0  0  0  0  0  0  0  0  0  0  0  0
  141.3977   76.9085  221.3276 H   0  0  0  0  0  0  0  0  0  0  0  0
  140.2355   79.0526  222.0748 H   0  0  0  0  0  0  0  0  0  0  0  0
  139.5742   78.2609  220.5996 H   0  0  0  0  0  0  0  0  0  0  0  0
  134.8907   80.6159  223.8322 H   0  0  0  0  0  0  0  0  0  0  0  0
  1  2  2  0
  2  3  1  0
  3  4  2  0
  4  5  1  0
  5  6  1  0
  6  7  1  0
  7  8  1  0
  8  9  1  0
  9 10  2  0
 10 11  1  0
 11 12  1  0
 12 13  1  0
 13 14  1  0
 14 15  1  0
 15 16  1  0
 16 17  1  0
 11 18  2  0
 18 19  1  0
 19 20  1  0
 20 21  1  0
 21 22  1  0
 22 23  1  0
 23 24  2  0
 24 25  1  0
 25 26  2  0
 26 27  1  0
 27 28  2  0
 28 29  1  0
 19 30  2  0
  8 31  1  0
 31 32  1  0
  4 33  1  0
 33 34  2  0
 34  1  1  0
 32  5  1  0
 30  9  1  0
 17 12  1  0
 29 20  1  0
 28 23  1  0
  1 35  1  0
  2 36  1  0
  3 37  1  0
  6 38  1  0
  6 39  1  0
  7 40  1  0
  7 41  1  0
 13 42  1  0
 13 43  1  0
 14 44  1  0
 14 45  1  0
 16 46  1  0
 16 47  1  0
 17 48  1  0
 17 49  1  0
 21 50  1  0
 21 51  1  0
 22 52  1  0
 22 53  1  0
 24 54  1  0
 25 55  1  0
 26 56  1  0
 27 57  1  0
 29 58  1  0
 29 59  1  0
 31 60  1  0
 31 61  1  0
 32 62  1  0
 32 63  1  0
 34 64  1  0
M  END
>  <UniqueID>  (51) 
276

>  <SMILES>  (51) 
c1ccc(N2CCN(c3nc(N4CCOCC4)nc(N4CCc5ccccc5C4)n3)CC2)nc1

>  <Energy>  (51) 
80.303266191423

>  <Genealogy>  (51) 
c1ccc(N2CCN(c3nc(N4CCOCC4)nc(N4CCc5ccccc5C4)n3)CC2)nc1 (3D coordinates assigned)
c1ccc(N2CCN(c3nc(N4CCOCC4)nc(N4CCc5ccccc5C4)n3)CC2)nc1 (nonaromatic ring conformer: 80.303266191423 kcal/mol)

>  <smiles>  (51) 
c1ccc(N2CCN(c3nc(N4CCOCC4)nc(N4CCc5ccccc5C4)n3)CC2)nc1

>  <score_type>  (51) 
oracle

>  <origin>  (51) 
autodockgpu

>  <m_score__min__energy>  (51) 
-8.9399999999999995

>  <m_primary>  (51) 
energy

>  <meeko>  (51) 
{"free_energy": -8.91, "intermolecular_energy": -10.1, "internal_energy": -0.89, "cluster_size": 18, "cluster_id": 1, "rank_in_cluster": 10}

>  <energy>  (51) 
-8.91

>  <cluster_rmsd>  (51) 
0.07

>  <rmsd>  (51) 
270.56

>  <cluster>  (51) 
1

$$$$
XSFBOMDNDOCRMT-UHFFFAOYNA-N
     RDKit          3D

 64 69  0  0  0  0  0  0  0  0999 V2000
  136.9410   81.3490  224.5480 C   0  0  0  0  0  0  0  0  0  0  0  0
  138.3080   81.0720  224.5640 C   0  0  0  0  0  0  0  0  0  0  0  0
  138.8080   79.9890  223.8390 C   0  0  0  0  0  0  0  0  0  0  0  0
  137.9260   79.1740  223.0970 C   0  0  0  0  0  0  0  0  0  0  0  0
  138.4040   78.0460  222.3180 N   0  0  0  0  0  0  0  0  0  0  0  0
  137.6110   76.8040  222.2150 C   0  0  0  0  0  0  0  0  0  0  0  0
  138.3120   75.7260  221.3810 C   0  0  0  0  0  0  0  0  0  0  0  0
  139.7380   75.6420  221.7340 N   0  0  0  0  0  0  0  0  0  0  0  0
  140.4200   74.3740  221.7810 C   0  0  0  0  0  0  0  0  0  0  0  0
  141.4510   74.1210  220.9310 N   0  0  0  0  0  0  0  0  0  0  0  0
  142.1080   72.9340  220.9670 C   0  0  0  0  0  0  0  0  0  0  0  0
  143.1850   72.6720  220.0460 N   0  0  0  0  0  0  0  0  0  0  0  0
  143.8450   73.8030  219.3830 C   0  0  0  0  0  0  0  0  0  0  0  0
  144.8230   73.2990  218.3250 C   0  0  0  0  0  0  0  0  0  0  0  0
  145.6550   72.3160  218.9000 O   0  0  0  0  0  0  0  0  0  0  0  0
  144.9340   71.1150  219.1490 C   0  0  0  0  0  0  0  0  0  0  0  0
  143.4590   71.2980  219.5970 C   0  0  0  0  0  0  0  0  0  0  0  0
  141.7240   71.9880  221.8650 N   0  0  0  0  0  0  0  0  0  0  0  0
  140.6930   72.2200  222.7210 C   0  0  0  0  0  0  0  0  0  0  0  0
  140.2870   71.1990  223.6570 N   0  0  0  0  0  0  0  0  0  0  0  0
  139.0750   70.4000  223.4050 C   0  0  0  0  0  0  0  0  0  0  0  0
  139.2450   68.9750  223.9290 C   0  0  0  0  0  0  0  0  0  0  0  0
  139.6290   69.0060  225.3780 C   0  0  0  0  0  0  0  0  0  0  0  0
  139.1960   67.9950  226.2490 C   0  0  0  0  0  0  0  0  0  0  0  0
  139.5820   68.0090  227.5910 C   0  0  0  0  0  0  0  0  0  0  0  0
  140.4130   69.0240  228.0690 C   0  0  0  0  0  0  0  0  0  0  0  0
  140.8650   70.0240  227.2040 C   0  0  0  0  0  0  0  0  0  0  0  0
  140.4740   70.0240  225.8560 C   0  0  0  0  0  0  0  0  0  0  0  0
  141.0390   71.0650  224.9180 C   0  0  0  0  0  0  0  0  0  0  0  0
  140.0470   73.4160  222.6730 N   0  0  0  0  0  0  0  0  0  0  0  0
  140.5220   76.8750  221.9060 C   0  0  0  0  0  0  0  0  0  0  0  0
  139.6900   78.1200  221.6080 C   0  0  0  0  0  0  0  0  0  0  0  0
  136.5940   79.4760  223.1100 N   0  0  0  0  0  0  0  0  0  0  0  0
  136.0890   80.5310  223.8040 C   0  0  0  0  0  0  0  0  0  0  0  0
  136.5392   82.2018  225.1149 H   0  0  0  0  0  0  0  0  0  0  0  0
  138.9914   81.7065  225.1474 H   0  0  0  0  0  0  0  0  0  0  0  0
  139.8862   79.7713  223.8459 H   0  0  0  0  0  0  0  0  0  0  0  0
  137.4395   76.4102  223.2277 H   0  0  0  0  0  0  0  0  0  0  0  0
  136.6651   77.0528  221.7116 H   0  0  0  0  0  0  0  0  0  0  0  0
  137.8345   74.7537  221.5725 H   0  0  0  0  0  0  0  0  0  0  0  0
  138.2257   75.9900  220.3166 H   0  0  0  0  0  0  0  0  0  0  0  0
  143.0846   74.4359  218.9022 H   0  0  0  0  0  0  0  0  0  0  0  0
  144.3990   74.3848  220.1344 H   0  0  0  0  0  0  0  0  0  0  0  0
  144.2640   72.8630  217.4839 H   0  0  0  0  0  0  0  0  0  0  0  0
  145.4355   74.1352  217.9566 H   0  0  0  0  0  0  0  0  0  0  0  0
  144.9351   70.5215  218.2228 H   0  0  0  0  0  0  0  0  0  0  0  0
  145.4456   70.6264  219.9913 H   0  0  0  0  0  0  0  0  0  0  0  0
  142.7987   71.0633  218.7491 H   0  0  0  0  0  0  0  0  0  0  0  0
  143.2751   70.6210  220.4443 H   0  0  0  0  0  0  0  0  0  0  0  0
  138.2205   70.8713  223.9127 H   0  0  0  0  0  0  0  0  0  0  0  0
  138.9003   70.3578  222.3198 H   0  0  0  0  0  0  0  0  0  0  0  0
  138.2970   68.4289  223.8146 H   0  0  0  0  0  0  0  0  0  0  0  0
  140.0366   68.4705  223.3555 H   0  0  0  0  0  0  0  0  0  0  0  0
  138.5498   67.1880  225.8733 H   0  0  0  0  0  0  0  0  0  0  0  0
  139.2310   67.2197  228.2720 H   0  0  0  0  0  0  0  0  0  0  0  0
  140.7121   69.0365  229.1275 H   0  0  0  0  0  0  0  0  0  0  0  0
  141.5302   70.8147  227.5812 H   0  0  0  0  0  0  0  0  0  0  0  0
  141.0298   72.0372  225.4325 H   0  0  0  0  0  0  0  0  0  0  0  0
  142.0556   70.7395  224.6523 H   0  0  0  0  0  0  0  0  0  0  0  0
  140.8816   76.9268  222.9443 H   0  0  0  0  0  0  0  0  0  0  0  0
  141.3635   76.8476  221.1981 H   0  0  0  0  0  0  0  0  0  0  0  0
  140.2390   79.0134  221.9404 H   0  0  0  0  0  0  0  0  0  0  0  0
  139.5026   78.1792  220.5257 H   0  0  0  0  0  0  0  0  0  0  0  0
  135.0093   80.7397  223.7790 H   0  0  0  0  0  0  0  0  0  0  0  0
  1  2  2  0
  2  3  1  0
  3  4  2  0
  4  5  1  0
  5  6  1  0
  6  7  1  0
  7  8  1  0
  8  9  1  0
  9 10  2  0
 10 11  1  0
 11 12  1  0
 12 13  1  0
 13 14  1  0
 14 15  1  0
 15 16  1  0
 16 17  1  0
 11 18  2  0
 18 19  1  0
 19 20  1  0
 20 21  1  0
 21 22  1  0
 22 23  1  0
 23 24  2  0
 24 25  1  0
 25 26  2  0
 26 27  1  0
 27 28  2  0
 28 29  1  0
 19 30  2  0
  8 31  1  0
 31 32  1  0
  4 33  1  0
 33 34  2  0
 34  1  1  0
 32  5  1  0
 30  9  1  0
 17 12  1  0
 29 20  1  0
 28 23  1  0
  1 35  1  0
  2 36  1  0
  3 37  1  0
  6 38  1  0
  6 39  1  0
  7 40  1  0
  7 41  1  0
 13 42  1  0
 13 43  1  0
 14 44  1  0
 14 45  1  0
 16 46  1  0
 16 47  1  0
 17 48  1  0
 17 49  1  0
 21 50  1  0
 21 51  1  0
 22 52  1  0
 22 53  1  0
 24 54  1  0
 25 55  1  0
 26 56  1  0
 27 57  1  0
 29 58  1  0
 29 59  1  0
 31 60  1  0
 31 61  1  0
 32 62  1  0
 32 63  1  0
 34 64  1  0
M  END
>  <UniqueID>  (52) 
276

>  <SMILES>  (52) 
c1ccc(N2CCN(c3nc(N4CCOCC4)nc(N4CCc5ccccc5C4)n3)CC2)nc1

>  <Energy>  (52) 
80.303266191423

>  <Genealogy>  (52) 
c1ccc(N2CCN(c3nc(N4CCOCC4)nc(N4CCc5ccccc5C4)n3)CC2)nc1 (3D coordinates assigned)
c1ccc(N2CCN(c3nc(N4CCOCC4)nc(N4CCc5ccccc5C4)n3)CC2)nc1 (nonaromatic ring conformer: 80.303266191423 kcal/mol)

>  <smiles>  (52) 
c1ccc(N2CCN(c3nc(N4CCOCC4)nc(N4CCc5ccccc5C4)n3)CC2)nc1

>  <score_type>  (52) 
oracle

>  <origin>  (52) 
autodockgpu

>  <m_score__min__energy>  (52) 
-8.9399999999999995

>  <m_primary>  (52) 
energy

>  <meeko>  (52) 
{"free_energy": -8.91, "intermolecular_energy": -10.11, "internal_energy": -0.89, "cluster_size": 18, "cluster_id": 1, "rank_in_cluster": 9}

>  <energy>  (52) 
-8.9

>  <cluster_rmsd>  (52) 
0.13

>  <rmsd>  (52) 
270.53

>  <cluster>  (52) 
1

$$$$
XSFBOMDNDOCRMT-UHFFFAOYNA-N
     RDKit          3D

 64 69  0  0  0  0  0  0  0  0999 V2000
  136.9960   81.3350  224.6340 C   0  0  0  0  0  0  0  0  0  0  0  0
  138.3670   81.0830  224.5880 C   0  0  0  0  0  0  0  0  0  0  0  0
  138.8520   79.9970  223.8570 C   0  0  0  0  0  0  0  0  0  0  0  0
  137.9510   79.1530  223.1720 C   0  0  0  0  0  0  0  0  0  0  0  0
  138.4120   78.0220  222.3890 N   0  0  0  0  0  0  0  0  0  0  0  0
  137.6210   76.7760  222.3160 C   0  0  0  0  0  0  0  0  0  0  0  0
  138.3030   75.6940  221.4710 C   0  0  0  0  0  0  0  0  0  0  0  0
  139.7390   75.6180  221.7870 N   0  0  0  0  0  0  0  0  0  0  0  0
  140.4260   74.3520  221.8250 C   0  0  0  0  0  0  0  0  0  0  0  0
  141.4610   74.1120  220.9770 N   0  0  0  0  0  0  0  0  0  0  0  0
  142.1230   72.9270  221.0050 C   0  0  0  0  0  0  0  0  0  0  0  0
  143.2050   72.6790  220.0870 N   0  0  0  0  0  0  0  0  0  0  0  0
  143.8740   73.8200  219.4490 C   0  0  0  0  0  0  0  0  0  0  0  0
  144.8570   73.3320  218.3880 C   0  0  0  0  0  0  0  0  0  0  0  0
  145.6820   72.3360  218.9500 O   0  0  0  0  0  0  0  0  0  0  0  0
  144.9550   71.1330  219.1720 C   0  0  0  0  0  0  0  0  0  0  0  0
  143.4780   71.3120  219.6140 C   0  0  0  0  0  0  0  0  0  0  0  0
  141.7400   71.9720  221.8920 N   0  0  0  0  0  0  0  0  0  0  0  0
  140.7040   72.1910  222.7460 C   0  0  0  0  0  0  0  0  0  0  0  0
  140.2980   71.1600  223.6710 N   0  0  0  0  0  0  0  0  0  0  0  0
  139.0730   70.3800  223.4230 C   0  0  0  0  0  0  0  0  0  0  0  0
  139.2330   68.9450  223.9210 C   0  0  0  0  0  0  0  0  0  0  0  0
  139.6380   68.9460  225.3640 C   0  0  0  0  0  0  0  0  0  0  0  0
  139.2050   67.9260  226.2250 C   0  0  0  0  0  0  0  0  0  0  0  0
  139.6100   67.9140  227.5610 C   0  0  0  0  0  0  0  0  0  0  0  0
  140.4610   68.9090  228.0440 C   0  0  0  0  0  0  0  0  0  0  0  0
  140.9130   69.9180  227.1890 C   0  0  0  0  0  0  0  0  0  0  0  0
  140.5020   69.9460  225.8470 C   0  0  0  0  0  0  0  0  0  0  0  0
  141.0670   70.9950  224.9180 C   0  0  0  0  0  0  0  0  0  0  0  0
  140.0540   73.3850  222.7060 N   0  0  0  0  0  0  0  0  0  0  0  0
  140.5220   76.8540  221.9290 C   0  0  0  0  0  0  0  0  0  0  0  0
  139.6780   78.0950  221.6450 C   0  0  0  0  0  0  0  0  0  0  0  0
  136.6160   79.4320  223.2450 N   0  0  0  0  0  0  0  0  0  0  0  0
  136.1250   80.4890  223.9470 C   0  0  0  0  0  0  0  0  0  0  0  0
  136.6062   82.1905  225.2051 H   0  0  0  0  0  0  0  0  0  0  0  0
  139.0657   81.7395  225.1273 H   0  0  0  0  0  0  0  0  0  0  0  0
  139.9333   79.7994  223.8148 H   0  0  0  0  0  0  0  0  0  0  0  0
  137.4783   76.3889  223.3357 H   0  0  0  0  0  0  0  0  0  0  0  0
  136.6612   77.0181  221.8362 H   0  0  0  0  0  0  0  0  0  0  0  0
  137.8344   74.7215  221.6823 H   0  0  0  0  0  0  0  0  0  0  0  0
  138.1870   75.9493  220.4073 H   0  0  0  0  0  0  0  0  0  0  0  0
  143.1191   74.4647  218.9752 H   0  0  0  0  0  0  0  0  0  0  0  0
  144.4254   74.3854  220.2147 H   0  0  0  0  0  0  0  0  0  0  0  0
  144.3019   72.9134  217.5356 H   0  0  0  0  0  0  0  0  0  0  0  0
  145.4745   74.1727  218.0388 H   0  0  0  0  0  0  0  0  0  0  0  0
  144.9601   70.5570  218.2349 H   0  0  0  0  0  0  0  0  0  0  0  0
  145.4595   70.6274  220.0085 H   0  0  0  0  0  0  0  0  0  0  0  0
  142.8224   71.0951  218.7577 H   0  0  0  0  0  0  0  0  0  0  0  0
  143.2868   70.6199  220.4473 H   0  0  0  0  0  0  0  0  0  0  0  0
  138.2315   70.8529  223.9504 H   0  0  0  0  0  0  0  0  0  0  0  0
  138.8826   70.3579  222.3398 H   0  0  0  0  0  0  0  0  0  0  0  0
  138.2768   68.4125  223.8113 H   0  0  0  0  0  0  0  0  0  0  0  0
  140.0104   68.4412  223.3279 H   0  0  0  0  0  0  0  0  0  0  0  0
  138.5439   67.1328  225.8458 H   0  0  0  0  0  0  0  0  0  0  0  0
  139.2576   67.1187  228.2343 H   0  0  0  0  0  0  0  0  0  0  0  0
  140.7761   68.8992  229.0979 H   0  0  0  0  0  0  0  0  0  0  0  0
  141.5939   70.6937  227.5694 H   0  0  0  0  0  0  0  0  0  0  0  0
  141.0787   71.9585  225.4486 H   0  0  0  0  0  0  0  0  0  0  0  0
  142.0751   70.6607  224.6316 H   0  0  0  0  0  0  0  0  0  0  0  0
  140.9093   76.9142  222.9568 H   0  0  0  0  0  0  0  0  0  0  0  0
  141.3438   76.8244  221.1983 H   0  0  0  0  0  0  0  0  0  0  0  0
  140.2328   78.9922  221.9568 H   0  0  0  0  0  0  0  0  0  0  0  0
  139.4617   78.1463  220.5677 H   0  0  0  0  0  0  0  0  0  0  0  0
  135.0414   80.6765  223.9729 H   0  0  0  0  0  0  0  0  0  0  0  0
  1  2  2  0
  2  3  1  0
  3  4  2  0
  4  5  1  0
  5  6  1  0
  6  7  1  0
  7  8  1  0
  8  9  1  0
  9 10  2  0
 10 11  1  0
 11 12  1  0
 12 13  1  0
 13 14  1  0
 14 15  1  0
 15 16  1  0
 16 17  1  0
 11 18  2  0
 18 19  1  0
 19 20  1  0
 20 21  1  0
 21 22  1  0
 22 23  1  0
 23 24  2  0
 24 25  1  0
 25 26  2  0
 26 27  1  0
 27 28  2  0
 28 29  1  0
 19 30  2  0
  8 31  1  0
 31 32  1  0
  4 33  1  0
 33 34  2  0
 34  1  1  0
 32  5  1  0
 30  9  1  0
 17 12  1  0
 29 20  1  0
 28 23  1  0
  1 35  1  0
  2 36  1  0
  3 37  1  0
  6 38  1  0
  6 39  1  0
  7 40  1  0
  7 41  1  0
 13 42  1  0
 13 43  1  0
 14 44  1  0
 14 45  1  0
 16 46  1  0
 16 47  1  0
 17 48  1  0
 17 49  1  0
 21 50  1  0
 21 51  1  0
 22 52  1  0
 22 53  1  0
 24 54  1  0
 25 55  1  0
 26 56  1  0
 27 57  1  0
 29 58  1  0
 29 59  1  0
 31 60  1  0
 31 61  1  0
 32 62  1  0
 32 63  1  0
 34 64  1  0
M  END
>  <UniqueID>  (53) 
276

>  <SMILES>  (53) 
c1ccc(N2CCN(c3nc(N4CCOCC4)nc(N4CCc5ccccc5C4)n3)CC2)nc1

>  <Energy>  (53) 
80.303266191423

>  <Genealogy>  (53) 
c1ccc(N2CCN(c3nc(N4CCOCC4)nc(N4CCc5ccccc5C4)n3)CC2)nc1 (3D coordinates assigned)
c1ccc(N2CCN(c3nc(N4CCOCC4)nc(N4CCc5ccccc5C4)n3)CC2)nc1 (nonaromatic ring conformer: 80.303266191423 kcal/mol)

>  <smiles>  (53) 
c1ccc(N2CCN(c3nc(N4CCOCC4)nc(N4CCc5ccccc5C4)n3)CC2)nc1

>  <score_type>  (53) 
oracle

>  <origin>  (53) 
autodockgpu

>  <m_score__min__energy>  (53) 
-8.9399999999999995

>  <m_primary>  (53) 
energy

>  <meeko>  (53) 
{"free_energy": -8.93, "intermolecular_energy": -10.13, "internal_energy": -0.89, "cluster_size": 18, "cluster_id": 1, "rank_in_cluster": 2}

>  <energy>  (53) 
-8.89

>  <cluster_rmsd>  (53) 
0.16

>  <rmsd>  (53) 
270.51

>  <cluster>  (53) 
1

$$$$
XSFBOMDNDOCRMT-UHFFFAOYNA-N
     RDKit          3D

 64 69  0  0  0  0  0  0  0  0999 V2000
  136.7020   81.1730  224.6010 C   0  0  0  0  0  0  0  0  0  0  0  0
  138.0880   81.0110  224.5880 C   0  0  0  0  0  0  0  0  0  0  0  0
  138.6620   79.9760  223.8480 C   0  0  0  0  0  0  0  0  0  0  0  0
  137.8360   79.0910  223.1210 C   0  0  0  0  0  0  0  0  0  0  0  0
  138.3910   78.0090  222.3280 N   0  0  0  0  0  0  0  0  0  0  0  0
  137.6090   76.7840  222.0610 C   0  0  0  0  0  0  0  0  0  0  0  0
  138.3910   75.7530  221.2410 C   0  0  0  0  0  0  0  0  0  0  0  0
  139.7710   75.6320  221.7400 N   0  0  0  0  0  0  0  0  0  0  0  0
  140.4380   74.3560  221.7790 C   0  0  0  0  0  0  0  0  0  0  0  0
  141.4560   74.0910  220.9180 N   0  0  0  0  0  0  0  0  0  0  0  0
  142.1000   72.8960  220.9470 C   0  0  0  0  0  0  0  0  0  0  0  0
  143.1640   72.6220  220.0150 N   0  0  0  0  0  0  0  0  0  0  0  0
  143.8110   73.7440  219.3230 C   0  0  0  0  0  0  0  0  0  0  0  0
  144.7740   73.2250  218.2590 C   0  0  0  0  0  0  0  0  0  0  0  0
  145.6180   72.2540  218.8370 O   0  0  0  0  0  0  0  0  0  0  0  0
  144.9040   71.0550  219.1170 C   0  0  0  0  0  0  0  0  0  0  0  0
  143.4360   71.2410  219.5840 C   0  0  0  0  0  0  0  0  0  0  0  0
  141.7150   71.9550  221.8490 N   0  0  0  0  0  0  0  0  0  0  0  0
  140.6960   72.1980  222.7160 C   0  0  0  0  0  0  0  0  0  0  0  0
  140.2880   71.1820  223.6560 N   0  0  0  0  0  0  0  0  0  0  0  0
  139.0690   70.3920  223.4130 C   0  0  0  0  0  0  0  0  0  0  0  0
  139.2320   68.9670  223.9390 C   0  0  0  0  0  0  0  0  0  0  0  0
  139.6250   68.9970  225.3850 C   0  0  0  0  0  0  0  0  0  0  0  0
  139.1900   67.9900  226.2600 C   0  0  0  0  0  0  0  0  0  0  0  0
  139.5840   68.0050  227.6000 C   0  0  0  0  0  0  0  0  0  0  0  0
  140.4250   69.0140  228.0710 C   0  0  0  0  0  0  0  0  0  0  0  0
  140.8790   70.0090  227.2020 C   0  0  0  0  0  0  0  0  0  0  0  0
  140.4800   70.0100  225.8560 C   0  0  0  0  0  0  0  0  0  0  0  0
  141.0470   71.0450  224.9130 C   0  0  0  0  0  0  0  0  0  0  0  0
  140.0640   73.4020  222.6750 N   0  0  0  0  0  0  0  0  0  0  0  0
  140.5360   76.8420  222.0730 C   0  0  0  0  0  0  0  0  0  0  0  0
  139.7460   78.1130  221.7680 C   0  0  0  0  0  0  0  0  0  0  0  0
  136.4840   79.2800  223.1630 N   0  0  0  0  0  0  0  0  0  0  0  0
  135.9070   80.2870  223.8720 C   0  0  0  0  0  0  0  0  0  0  0  0
  136.2419   81.9884  225.1783 H   0  0  0  0  0  0  0  0  0  0  0  0
  138.7278   81.6986  225.1606 H   0  0  0  0  0  0  0  0  0  0  0  0
  139.7546   79.8501  223.8312 H   0  0  0  0  0  0  0  0  0  0  0  0
  137.3273   76.3293  223.0222 H   0  0  0  0  0  0  0  0  0  0  0  0
  136.7246   77.0744  221.4749 H   0  0  0  0  0  0  0  0  0  0  0  0
  137.8918   74.7759  221.3183 H   0  0  0  0  0  0  0  0  0  0  0  0
  138.4211   76.0834  220.1922 H   0  0  0  0  0  0  0  0  0  0  0  0
  143.0416   74.3669  218.8434 H   0  0  0  0  0  0  0  0  0  0  0  0
  144.3747   74.3397  220.0561 H   0  0  0  0  0  0  0  0  0  0  0  0
  144.2034   72.7735  217.4340 H   0  0  0  0  0  0  0  0  0  0  0  0
  145.3783   74.0567  217.8676 H   0  0  0  0  0  0  0  0  0  0  0  0
  144.8929   70.4462  218.2009 H   0  0  0  0  0  0  0  0  0  0  0  0
  145.4297   70.5822  219.9597 H   0  0  0  0  0  0  0  0  0  0  0  0
  142.7638   70.9906  218.7500 H   0  0  0  0  0  0  0  0  0  0  0  0
  143.2672   70.5774  220.4449 H   0  0  0  0  0  0  0  0  0  0  0  0
  138.2211   70.8706  223.9249 H   0  0  0  0  0  0  0  0  0  0  0  0
  138.8871   70.3490  222.3290 H   0  0  0  0  0  0  0  0  0  0  0  0
  138.2794   68.4276  223.8314 H   0  0  0  0  0  0  0  0  0  0  0  0
  140.0167   68.4562  223.3617 H   0  0  0  0  0  0  0  0  0  0  0  0
  138.5367   67.1863  225.8895 H   0  0  0  0  0  0  0  0  0  0  0  0
  139.2308   67.2202  228.2851 H   0  0  0  0  0  0  0  0  0  0  0  0
  140.7307   69.0259  229.1276 H   0  0  0  0  0  0  0  0  0  0  0  0
  141.5522   70.7954  227.5740 H   0  0  0  0  0  0  0  0  0  0  0  0
  141.0480   72.0182  225.4257 H   0  0  0  0  0  0  0  0  0  0  0  0
  142.0597   70.7119  224.6419 H   0  0  0  0  0  0  0  0  0  0  0  0
  140.7821   76.8241  223.1450 H   0  0  0  0  0  0  0  0  0  0  0  0
  141.4483   76.8502  221.4585 H   0  0  0  0  0  0  0  0  0  0  0  0
  140.2595   78.9771  222.2148 H   0  0  0  0  0  0  0  0  0  0  0  0
  139.6773   78.2427  220.6778 H   0  0  0  0  0  0  0  0  0  0  0  0
  134.8132   80.4033  223.8710 H   0  0  0  0  0  0  0  0  0  0  0  0
  1  2  2  0
  2  3  1  0
  3  4  2  0
  4  5  1  0
  5  6  1  0
  6  7  1  0
  7  8  1  0
  8  9  1  0
  9 10  2  0
 10 11  1  0
 11 12  1  0
 12 13  1  0
 13 14  1  0
 14 15  1  0
 15 16  1  0
 16 17  1  0
 11 18  2  0
 18 19  1  0
 19 20  1  0
 20 21  1  0
 21 22  1  0
 22 23  1  0
 23 24  2  0
 24 25  1  0
 25 26  2  0
 26 27  1  0
 27 28  2  0
 28 29  1  0
 19 30  2  0
  8 31  1  0
 31 32  1  0
  4 33  1  0
 33 34  2  0
 34  1  1  0
 32  5  1  0
 30  9  1  0
 17 12  1  0
 29 20  1  0
 28 23  1  0
  1 35  1  0
  2 36  1  0
  3 37  1  0
  6 38  1  0
  6 39  1  0
  7 40  1  0
  7 41  1  0
 13 42  1  0
 13 43  1  0
 14 44  1  0
 14 45  1  0
 16 46  1  0
 16 47  1  0
 17 48  1  0
 17 49  1  0
 21 50  1  0
 21 51  1  0
 22 52  1  0
 22 53  1  0
 24 54  1  0
 25 55  1  0
 26 56  1  0
 27 57  1  0
 29 58  1  0
 29 59  1  0
 31 60  1  0
 31 61  1  0
 32 62  1  0
 32 63  1  0
 34 64  1  0
M  END
>  <UniqueID>  (54) 
276

>  <SMILES>  (54) 
c1ccc(N2CCN(c3nc(N4CCOCC4)nc(N4CCc5ccccc5C4)n3)CC2)nc1

>  <Energy>  (54) 
80.303266191423

>  <Genealogy>  (54) 
c1ccc(N2CCN(c3nc(N4CCOCC4)nc(N4CCc5ccccc5C4)n3)CC2)nc1 (3D coordinates assigned)
c1ccc(N2CCN(c3nc(N4CCOCC4)nc(N4CCc5ccccc5C4)n3)CC2)nc1 (nonaromatic ring conformer: 80.303266191423 kcal/mol)

>  <smiles>  (54) 
c1ccc(N2CCN(c3nc(N4CCOCC4)nc(N4CCc5ccccc5C4)n3)CC2)nc1

>  <score_type>  (54) 
oracle

>  <origin>  (54) 
autodockgpu

>  <m_score__min__energy>  (54) 
-8.9399999999999995

>  <m_primary>  (54) 
energy

>  <meeko>  (54) 
{"free_energy": -8.89, "intermolecular_energy": -10.08, "internal_energy": -0.89, "cluster_size": 18, "cluster_id": 1, "rank_in_cluster": 13}

>  <energy>  (54) 
-8.87

>  <cluster_rmsd>  (54) 
0.16

>  <rmsd>  (54) 
270.55

>  <cluster>  (54) 
1

$$$$
XSFBOMDNDOCRMT-UHFFFAOYNA-N
     RDKit          3D

 64 69  0  0  0  0  0  0  0  0999 V2000
  136.8520   81.2280  224.6100 C   0  0  0  0  0  0  0  0  0  0  0  0
  138.2320   81.0280  224.5910 C   0  0  0  0  0  0  0  0  0  0  0  0
  138.7730   79.9740  223.8530 C   0  0  0  0  0  0  0  0  0  0  0  0
  137.9190   79.1090  223.1350 C   0  0  0  0  0  0  0  0  0  0  0  0
  138.4400   78.0090  222.3430 N   0  0  0  0  0  0  0  0  0  0  0  0
  137.6440   76.7820  222.1320 C   0  0  0  0  0  0  0  0  0  0  0  0
  138.3910   75.7310  221.3040 C   0  0  0  0  0  0  0  0  0  0  0  0
  139.7880   75.6140  221.7520 N   0  0  0  0  0  0  0  0  0  0  0  0
  140.4520   74.3370  221.7920 C   0  0  0  0  0  0  0  0  0  0  0  0
  141.4710   74.0690  220.9320 N   0  0  0  0  0  0  0  0  0  0  0  0
  142.1110   72.8730  220.9620 C   0  0  0  0  0  0  0  0  0  0  0  0
  143.1750   72.5960  220.0300 N   0  0  0  0  0  0  0  0  0  0  0  0
  143.7790   73.7090  219.2880 C   0  0  0  0  0  0  0  0  0  0  0  0
  144.7490   73.1790  218.2350 C   0  0  0  0  0  0  0  0  0  0  0  0
  145.6290   72.2590  218.8430 O   0  0  0  0  0  0  0  0  0  0  0  0
  144.9570   71.0500  219.1780 C   0  0  0  0  0  0  0  0  0  0  0  0
  143.4870   71.2080  219.6530 C   0  0  0  0  0  0  0  0  0  0  0  0
  141.7240   71.9330  221.8640 N   0  0  0  0  0  0  0  0  0  0  0  0
  140.7050   72.1790  222.7300 C   0  0  0  0  0  0  0  0  0  0  0  0
  140.2930   71.1650  223.6710 N   0  0  0  0  0  0  0  0  0  0  0  0
  139.0710   70.3790  223.4290 C   0  0  0  0  0  0  0  0  0  0  0  0
  139.2290   68.9530  223.9540 C   0  0  0  0  0  0  0  0  0  0  0  0
  139.6240   68.9820  225.4000 C   0  0  0  0  0  0  0  0  0  0  0  0
  139.1850   67.9770  226.2760 C   0  0  0  0  0  0  0  0  0  0  0  0
  139.5810   67.9890  227.6150 C   0  0  0  0  0  0  0  0  0  0  0  0
  140.4280   68.9940  228.0850 C   0  0  0  0  0  0  0  0  0  0  0  0
  140.8840   69.9880  227.2160 C   0  0  0  0  0  0  0  0  0  0  0  0
  140.4830   69.9910  225.8700 C   0  0  0  0  0  0  0  0  0  0  0  0
  141.0530   71.0240  224.9270 C   0  0  0  0  0  0  0  0  0  0  0  0
  140.0750   73.3840  222.6890 N   0  0  0  0  0  0  0  0  0  0  0  0
  140.5700   76.8290  222.0310 C   0  0  0  0  0  0  0  0  0  0  0  0
  139.7730   78.0960  221.7290 C   0  0  0  0  0  0  0  0  0  0  0  0
  136.5740   79.3360  223.1820 N   0  0  0  0  0  0  0  0  0  0  0  0
  136.0280   80.3620  223.8900 C   0  0  0  0  0  0  0  0  0  0  0  0
  136.4181   82.0587  225.1858 H   0  0  0  0  0  0  0  0  0  0  0  0
  138.8935   81.7002  225.1571 H   0  0  0  0  0  0  0  0  0  0  0  0
  139.8616   79.8178  223.8309 H   0  0  0  0  0  0  0  0  0  0  0  0
  137.3980   76.3485  223.1126 H   0  0  0  0  0  0  0  0  0  0  0  0
  136.7384   77.0637  221.5747 H   0  0  0  0  0  0  0  0  0  0  0  0
  137.8916   74.7578  221.4202 H   0  0  0  0  0  0  0  0  0  0  0  0
  138.3824   76.0402  220.2484 H   0  0  0  0  0  0  0  0  0  0  0  0
  142.9856   74.2875  218.7921 H   0  0  0  0  0  0  0  0  0  0  0  0
  144.3299   74.3509  219.9912 H   0  0  0  0  0  0  0  0  0  0  0  0
  144.1860   72.6770  217.4344 H   0  0  0  0  0  0  0  0  0  0  0  0
  145.3225   74.0131  217.8046 H   0  0  0  0  0  0  0  0  0  0  0  0
  144.9571   70.4048  218.2871 H   0  0  0  0  0  0  0  0  0  0  0  0
  145.5055   70.6282  220.0331 H   0  0  0  0  0  0  0  0  0  0  0  0
  142.8155   70.9022  218.8372 H   0  0  0  0  0  0  0  0  0  0  0  0
  143.3476   70.5752  220.5419 H   0  0  0  0  0  0  0  0  0  0  0  0
  138.2253   70.8603  223.9420 H   0  0  0  0  0  0  0  0  0  0  0  0
  138.8883   70.3369  222.3451 H   0  0  0  0  0  0  0  0  0  0  0  0
  138.2742   68.4173  223.8475 H   0  0  0  0  0  0  0  0  0  0  0  0
  140.0106   68.4388  223.3755 H   0  0  0  0  0  0  0  0  0  0  0  0
  138.5266   67.1770  225.9064 H   0  0  0  0  0  0  0  0  0  0  0  0
  139.2250   67.2055  228.3002 H   0  0  0  0  0  0  0  0  0  0  0  0
  140.7367   69.0032  229.1408 H   0  0  0  0  0  0  0  0  0  0  0  0
  141.5603   70.7720  227.5876 H   0  0  0  0  0  0  0  0  0  0  0  0
  141.0587   71.9969  225.4403 H   0  0  0  0  0  0  0  0  0  0  0  0
  142.0639   70.6867  224.6544 H   0  0  0  0  0  0  0  0  0  0  0  0
  140.8561   76.8326  223.0931 H   0  0  0  0  0  0  0  0  0  0  0  0
  141.4589   76.8207  221.3831 H   0  0  0  0  0  0  0  0  0  0  0  0
  140.3059   78.9676  222.1369 H   0  0  0  0  0  0  0  0  0  0  0  0
  139.6629   78.2026  220.6397 H   0  0  0  0  0  0  0  0  0  0  0  0
  134.9378   80.5086  223.8947 H   0  0  0  0  0  0  0  0  0  0  0  0
  1  2  2  0
  2  3  1  0
  3  4  2  0
  4  5  1  0
  5  6  1  0
  6  7  1  0
  7  8  1  0
  8  9  1  0
  9 10  2  0
 10 11  1  0
 11 12  1  0
 12 13  1  0
 13 14  1  0
 14 15  1  0
 15 16  1  0
 16 17  1  0
 11 18  2  0
 18 19  1  0
 19 20  1  0
 20 21  1  0
 21 22  1  0
 22 23  1  0
 23 24  2  0
 24 25  1  0
 25 26  2  0
 26 27  1  0
 27 28  2  0
 28 29  1  0
 19 30  2  0
  8 31  1  0
 31 32  1  0
  4 33  1  0
 33 34  2  0
 34  1  1  0
 32  5  1  0
 30  9  1  0
 17 12  1  0
 29 20  1  0
 28 23  1  0
  1 35  1  0
  2 36  1  0
  3 37  1  0
  6 38  1  0
  6 39  1  0
  7 40  1  0
  7 41  1  0
 13 42  1  0
 13 43  1  0
 14 44  1  0
 14 45  1  0
 16 46  1  0
 16 47  1  0
 17 48  1  0
 17 49  1  0
 21 50  1  0
 21 51  1  0
 22 52  1  0
 22 53  1  0
 24 54  1  0
 25 55  1  0
 26 56  1  0
 27 57  1  0
 29 58  1  0
 29 59  1  0
 31 60  1  0
 31 61  1  0
 32 62  1  0
 32 63  1  0
 34 64  1  0
M  END
>  <UniqueID>  (55) 
276

>  <SMILES>  (55) 
c1ccc(N2CCN(c3nc(N4CCOCC4)nc(N4CCc5ccccc5C4)n3)CC2)nc1

>  <Energy>  (55) 
80.303266191423

>  <Genealogy>  (55) 
c1ccc(N2CCN(c3nc(N4CCOCC4)nc(N4CCc5ccccc5C4)n3)CC2)nc1 (3D coordinates assigned)
c1ccc(N2CCN(c3nc(N4CCOCC4)nc(N4CCc5ccccc5C4)n3)CC2)nc1 (nonaromatic ring conformer: 80.303266191423 kcal/mol)

>  <smiles>  (55) 
c1ccc(N2CCN(c3nc(N4CCOCC4)nc(N4CCc5ccccc5C4)n3)CC2)nc1

>  <score_type>  (55) 
oracle

>  <origin>  (55) 
autodockgpu

>  <m_score__min__energy>  (55) 
-8.9399999999999995

>  <m_primary>  (55) 
energy

>  <meeko>  (55) 
{"free_energy": -8.9, "intermolecular_energy": -10.09, "internal_energy": -0.89, "cluster_size": 18, "cluster_id": 1, "rank_in_cluster": 12}

>  <energy>  (55) 
-8.86

>  <cluster_rmsd>  (55) 
0.17

>  <rmsd>  (55) 
270.5

>  <cluster>  (55) 
1

$$$$
XSFBOMDNDOCRMT-UHFFFAOYNA-N
     RDKit          3D

 64 69  0  0  0  0  0  0  0  0999 V2000
  137.1410   81.5360  224.4610 C   0  0  0  0  0  0  0  0  0  0  0  0
  138.4600   81.0920  224.5650 C   0  0  0  0  0  0  0  0  0  0  0  0
  138.8650   79.9460  223.8780 C   0  0  0  0  0  0  0  0  0  0  0  0
  137.9360   79.2370  223.0870 C   0  0  0  0  0  0  0  0  0  0  0  0
  138.3180   78.0480  222.3450 N   0  0  0  0  0  0  0  0  0  0  0  0
  137.5520   76.7920  222.4770 C   0  0  0  0  0  0  0  0  0  0  0  0
  138.1430   75.6510  221.6420 C   0  0  0  0  0  0  0  0  0  0  0  0
  139.6090   75.6180  221.7740 N   0  0  0  0  0  0  0  0  0  0  0  0
  140.3230   74.3680  221.8260 C   0  0  0  0  0  0  0  0  0  0  0  0
  141.3730   74.1470  220.9910 N   0  0  0  0  0  0  0  0  0  0  0  0
  142.0610   72.9770  221.0320 C   0  0  0  0  0  0  0  0  0  0  0  0
  143.1580   72.7480  220.1270 N   0  0  0  0  0  0  0  0  0  0  0  0
  143.7230   73.8860  219.3910 C   0  0  0  0  0  0  0  0  0  0  0  0
  144.7430   73.3990  218.3650 C   0  0  0  0  0  0  0  0  0  0  0  0
  145.6540   72.5290  218.9990 O   0  0  0  0  0  0  0  0  0  0  0  0
  145.0360   71.2900  219.3270 C   0  0  0  0  0  0  0  0  0  0  0  0
  143.5490   71.3760  219.7660 C   0  0  0  0  0  0  0  0  0  0  0  0
  141.6880   72.0170  221.9190 N   0  0  0  0  0  0  0  0  0  0  0  0
  140.6380   72.2170  222.7600 C   0  0  0  0  0  0  0  0  0  0  0  0
  140.2440   71.1810  223.6840 N   0  0  0  0  0  0  0  0  0  0  0  0
  139.0260   70.3910  223.4390 C   0  0  0  0  0  0  0  0  0  0  0  0
  139.2000   68.9560  223.9350 C   0  0  0  0  0  0  0  0  0  0  0  0
  139.6090   68.9600  225.3770 C   0  0  0  0  0  0  0  0  0  0  0  0
  139.1870   67.9350  226.2370 C   0  0  0  0  0  0  0  0  0  0  0  0
  139.5960   67.9250  227.5730 C   0  0  0  0  0  0  0  0  0  0  0  0
  140.4380   68.9270  228.0540 C   0  0  0  0  0  0  0  0  0  0  0  0
  140.8790   69.9410  227.2000 C   0  0  0  0  0  0  0  0  0  0  0  0
  140.4650   69.9670  225.8580 C   0  0  0  0  0  0  0  0  0  0  0  0
  141.0170   71.0220  224.9300 C   0  0  0  0  0  0  0  0  0  0  0  0
  139.9620   73.3960  222.7070 N   0  0  0  0  0  0  0  0  0  0  0  0
  140.3770   76.8710  221.7120 C   0  0  0  0  0  0  0  0  0  0  0  0
  139.4760   78.0730  221.4400 C   0  0  0  0  0  0  0  0  0  0  0  0
  136.6540   79.7010  223.0150 N   0  0  0  0  0  0  0  0  0  0  0  0
  136.2420   80.8190  223.6710 C   0  0  0  0  0  0  0  0  0  0  0  0
  136.8142   82.4402  224.9954 H   0  0  0  0  0  0  0  0  0  0  0  0
  139.1796   81.6442  225.1874 H   0  0  0  0  0  0  0  0  0  0  0  0
  139.9054   79.5967  223.9531 H   0  0  0  0  0  0  0  0  0  0  0  0
  137.5500   76.4901  223.5348 H   0  0  0  0  0  0  0  0  0  0  0  0
  136.5335   76.9824  222.1076 H   0  0  0  0  0  0  0  0  0  0  0  0
  137.7269   74.6944  221.9911 H   0  0  0  0  0  0  0  0  0  0  0  0
  137.8856   75.8147  220.5851 H   0  0  0  0  0  0  0  0  0  0  0  0
  142.9136   74.4208  218.8725 H   0  0  0  0  0  0  0  0  0  0  0  0
  144.2240   74.5592  220.1022 H   0  0  0  0  0  0  0  0  0  0  0  0
  144.2249   72.8640  217.5555 H   0  0  0  0  0  0  0  0  0  0  0  0
  145.2836   74.2586  217.9422 H   0  0  0  0  0  0  0  0  0  0  0  0
  145.0900   70.6401  218.4411 H   0  0  0  0  0  0  0  0  0  0  0  0
  145.5844   70.9021  220.1981 H   0  0  0  0  0  0  0  0  0  0  0  0
  142.9136   71.0325  218.9364 H   0  0  0  0  0  0  0  0  0  0  0  0
  143.4206   70.7416  220.6554 H   0  0  0  0  0  0  0  0  0  0  0  0
  138.1820   70.8559  223.9695 H   0  0  0  0  0  0  0  0  0  0  0  0
  138.8326   70.3685  222.3564 H   0  0  0  0  0  0  0  0  0  0  0  0
  138.2482   68.4151  223.8275 H   0  0  0  0  0  0  0  0  0  0  0  0
  139.9798   68.4592  223.3391 H   0  0  0  0  0  0  0  0  0  0  0  0
  138.5320   67.1366  225.8582 H   0  0  0  0  0  0  0  0  0  0  0  0
  139.2532   67.1255  228.2463 H   0  0  0  0  0  0  0  0  0  0  0  0
  140.7554   68.9191  229.1072 H   0  0  0  0  0  0  0  0  0  0  0  0
  141.5534   70.7224  227.5802 H   0  0  0  0  0  0  0  0  0  0  0  0
  141.0198   71.9849  225.4619 H   0  0  0  0  0  0  0  0  0  0  0  0
  142.0278   70.6981  224.6413 H   0  0  0  0  0  0  0  0  0  0  0  0
  140.8917   77.0215  222.6724 H   0  0  0  0  0  0  0  0  0  0  0  0
  141.0990   76.7900  220.8861 H   0  0  0  0  0  0  0  0  0  0  0  0
  140.0458   78.9997  221.6030 H   0  0  0  0  0  0  0  0  0  0  0  0
  139.1221   78.0309  220.3993 H   0  0  0  0  0  0  0  0  0  0  0  0
  135.1996   81.1580  223.5786 H   0  0  0  0  0  0  0  0  0  0  0  0
  1  2  2  0
  2  3  1  0
  3  4  2  0
  4  5  1  0
  5  6  1  0
  6  7  1  0
  7  8  1  0
  8  9  1  0
  9 10  2  0
 10 11  1  0
 11 12  1  0
 12 13  1  0
 13 14  1  0
 14 15  1  0
 15 16  1  0
 16 17  1  0
 11 18  2  0
 18 19  1  0
 19 20  1  0
 20 21  1  0
 21 22  1  0
 22 23  1  0
 23 24  2  0
 24 25  1  0
 25 26  2  0
 26 27  1  0
 27 28  2  0
 28 29  1  0
 19 30  2  0
  8 31  1  0
 31 32  1  0
  4 33  1  0
 33 34  2  0
 34  1  1  0
 32  5  1  0
 30  9  1  0
 17 12  1  0
 29 20  1  0
 28 23  1  0
  1 35  1  0
  2 36  1  0
  3 37  1  0
  6 38  1  0
  6 39  1  0
  7 40  1  0
  7 41  1  0
 13 42  1  0
 13 43  1  0
 14 44  1  0
 14 45  1  0
 16 46  1  0
 16 47  1  0
 17 48  1  0
 17 49  1  0
 21 50  1  0
 21 51  1  0
 22 52  1  0
 22 53  1  0
 24 54  1  0
 25 55  1  0
 26 56  1  0
 27 57  1  0
 29 58  1  0
 29 59  1  0
 31 60  1  0
 31 61  1  0
 32 62  1  0
 32 63  1  0
 34 64  1  0
M  END
>  <UniqueID>  (56) 
276

>  <SMILES>  (56) 
c1ccc(N2CCN(c3nc(N4CCOCC4)nc(N4CCc5ccccc5C4)n3)CC2)nc1

>  <Energy>  (56) 
80.303266191423

>  <Genealogy>  (56) 
c1ccc(N2CCN(c3nc(N4CCOCC4)nc(N4CCc5ccccc5C4)n3)CC2)nc1 (3D coordinates assigned)
c1ccc(N2CCN(c3nc(N4CCOCC4)nc(N4CCc5ccccc5C4)n3)CC2)nc1 (nonaromatic ring conformer: 80.303266191423 kcal/mol)

>  <smiles>  (56) 
c1ccc(N2CCN(c3nc(N4CCOCC4)nc(N4CCc5ccccc5C4)n3)CC2)nc1

>  <score_type>  (56) 
oracle

>  <origin>  (56) 
autodockgpu

>  <m_score__min__energy>  (56) 
-8.9399999999999995

>  <m_primary>  (56) 
energy

>  <meeko>  (56) 
{"free_energy": -8.87, "intermolecular_energy": -10.06, "internal_energy": -0.89, "cluster_size": 18, "cluster_id": 1, "rank_in_cluster": 14}

>  <energy>  (56) 
-8.86

>  <cluster_rmsd>  (56) 
0.47

>  <rmsd>  (56) 
270.56

>  <cluster>  (56) 
1

$$$$
XSFBOMDNDOCRMT-UHFFFAOYNA-N
     RDKit          3D

 64 69  0  0  0  0  0  0  0  0999 V2000
  137.0570   81.4210  224.5490 C   0  0  0  0  0  0  0  0  0  0  0  0
  138.4120   81.0870  224.5670 C   0  0  0  0  0  0  0  0  0  0  0  0
  138.8640   79.9750  223.8550 C   0  0  0  0  0  0  0  0  0  0  0  0
  137.9480   79.1880  223.1240 C   0  0  0  0  0  0  0  0  0  0  0  0
  138.3770   78.0320  222.3590 N   0  0  0  0  0  0  0  0  0  0  0  0
  137.5930   76.7800  222.3710 C   0  0  0  0  0  0  0  0  0  0  0  0
  138.2390   75.6730  221.5310 C   0  0  0  0  0  0  0  0  0  0  0  0
  139.6900   75.6160  221.7750 N   0  0  0  0  0  0  0  0  0  0  0  0
  140.3890   74.3580  221.8220 C   0  0  0  0  0  0  0  0  0  0  0  0
  141.4290   74.1220  220.9790 N   0  0  0  0  0  0  0  0  0  0  0  0
  142.1010   72.9430  221.0160 C   0  0  0  0  0  0  0  0  0  0  0  0
  143.1890   72.7000  220.1020 N   0  0  0  0  0  0  0  0  0  0  0  0
  143.8570   73.8430  219.4690 C   0  0  0  0  0  0  0  0  0  0  0  0
  144.8460   73.3600  218.4120 C   0  0  0  0  0  0  0  0  0  0  0  0
  145.6720   72.3660  218.9760 O   0  0  0  0  0  0  0  0  0  0  0  0
  144.9480   71.1600  219.1930 C   0  0  0  0  0  0  0  0  0  0  0  0
  143.4680   71.3350  219.6280 C   0  0  0  0  0  0  0  0  0  0  0  0
  141.7240   71.9900  221.9070 N   0  0  0  0  0  0  0  0  0  0  0  0
  140.6840   72.2040  222.7560 C   0  0  0  0  0  0  0  0  0  0  0  0
  140.2840   71.1740  223.6860 N   0  0  0  0  0  0  0  0  0  0  0  0
  139.0620   70.3890  223.4440 C   0  0  0  0  0  0  0  0  0  0  0  0
  139.2290   68.9560  223.9460 C   0  0  0  0  0  0  0  0  0  0  0  0
  139.6370   68.9640  225.3880 C   0  0  0  0  0  0  0  0  0  0  0  0
  139.2100   67.9450  226.2530 C   0  0  0  0  0  0  0  0  0  0  0  0
  139.6190   67.9390  227.5890 C   0  0  0  0  0  0  0  0  0  0  0  0
  140.4670   68.9390  228.0660 C   0  0  0  0  0  0  0  0  0  0  0  0
  140.9120   69.9470  227.2070 C   0  0  0  0  0  0  0  0  0  0  0  0
  140.4980   69.9690  225.8650 C   0  0  0  0  0  0  0  0  0  0  0  0
  141.0570   71.0170  224.9320 C   0  0  0  0  0  0  0  0  0  0  0  0
  140.0230   73.3910  222.7080 N   0  0  0  0  0  0  0  0  0  0  0  0
  140.4700   76.8620  221.8320 C   0  0  0  0  0  0  0  0  0  0  0  0
  139.6020   78.0860  221.5480 C   0  0  0  0  0  0  0  0  0  0  0  0
  136.6300   79.5460  223.1350 N   0  0  0  0  0  0  0  0  0  0  0  0
  136.1710   80.6300  223.8170 C   0  0  0  0  0  0  0  0  0  0  0  0
  136.6921   82.2971  225.1051 H   0  0  0  0  0  0  0  0  0  0  0  0
  139.1226   81.6993  225.1415 H   0  0  0  0  0  0  0  0  0  0  0  0
  139.9321   79.7123  223.8634 H   0  0  0  0  0  0  0  0  0  0  0  0
  137.5057   76.4288  223.4098 H   0  0  0  0  0  0  0  0  0  0  0  0
  136.6080   76.9991  221.9331 H   0  0  0  0  0  0  0  0  0  0  0  0
  137.7891   74.7060  221.8002 H   0  0  0  0  0  0  0  0  0  0  0  0
  138.0670   75.8901  220.4664 H   0  0  0  0  0  0  0  0  0  0  0  0
  143.1023   74.4861  218.9927 H   0  0  0  0  0  0  0  0  0  0  0  0
  144.4033   74.4088  220.2380 H   0  0  0  0  0  0  0  0  0  0  0  0
  144.2960   72.9407  217.5566 H   0  0  0  0  0  0  0  0  0  0  0  0
  145.4622   74.2033  218.0668 H   0  0  0  0  0  0  0  0  0  0  0  0
  144.9594   70.5851  218.2553 H   0  0  0  0  0  0  0  0  0  0  0  0
  145.4501   70.6543  220.0309 H   0  0  0  0  0  0  0  0  0  0  0  0
  142.8173   71.1180  218.7680 H   0  0  0  0  0  0  0  0  0  0  0  0
  143.2745   70.6411  220.4593 H   0  0  0  0  0  0  0  0  0  0  0  0
  138.2201   70.8603  223.9724 H   0  0  0  0  0  0  0  0  0  0  0  0
  138.8685   70.3629  222.3615 H   0  0  0  0  0  0  0  0  0  0  0  0
  138.2748   68.4191  223.8401 H   0  0  0  0  0  0  0  0  0  0  0  0
  140.0070   68.4532  223.3527 H   0  0  0  0  0  0  0  0  0  0  0  0
  138.5510   67.1481  225.8780 H   0  0  0  0  0  0  0  0  0  0  0  0
  139.2718   67.1445  228.2659 H   0  0  0  0  0  0  0  0  0  0  0  0
  140.7854   68.9338  229.1189 H   0  0  0  0  0  0  0  0  0  0  0  0
  141.5899   70.7272  227.5835 H   0  0  0  0  0  0  0  0  0  0  0  0
  141.0658   71.9823  225.4593 H   0  0  0  0  0  0  0  0  0  0  0  0
  142.0662   70.6866  224.6449 H   0  0  0  0  0  0  0  0  0  0  0  0
  140.9094   76.9618  222.8355 H   0  0  0  0  0  0  0  0  0  0  0  0
  141.2535   76.8113  221.0615 H   0  0  0  0  0  0  0  0  0  0  0  0
  140.1646   78.9976  221.7979 H   0  0  0  0  0  0  0  0  0  0  0  0
  139.3297   78.0965  220.4823 H   0  0  0  0  0  0  0  0  0  0  0  0
  135.1008   80.8829  223.7913 H   0  0  0  0  0  0  0  0  0  0  0  0
  1  2  2  0
  2  3  1  0
  3  4  2  0
  4  5  1  0
  5  6  1  0
  6  7  1  0
  7  8  1  0
  8  9  1  0
  9 10  2  0
 10 11  1  0
 11 12  1  0
 12 13  1  0
 13 14  1  0
 14 15  1  0
 15 16  1  0
 16 17  1  0
 11 18  2  0
 18 19  1  0
 19 20  1  0
 20 21  1  0
 21 22  1  0
 22 23  1  0
 23 24  2  0
 24 25  1  0
 25 26  2  0
 26 27  1  0
 27 28  2  0
 28 29  1  0
 19 30  2  0
  8 31  1  0
 31 32  1  0
  4 33  1  0
 33 34  2  0
 34  1  1  0
 32  5  1  0
 30  9  1  0
 17 12  1  0
 29 20  1  0
 28 23  1  0
  1 35  1  0
  2 36  1  0
  3 37  1  0
  6 38  1  0
  6 39  1  0
  7 40  1  0
  7 41  1  0
 13 42  1  0
 13 43  1  0
 14 44  1  0
 14 45  1  0
 16 46  1  0
 16 47  1  0
 17 48  1  0
 17 49  1  0
 21 50  1  0
 21 51  1  0
 22 52  1  0
 22 53  1  0
 24 54  1  0
 25 55  1  0
 26 56  1  0
 27 57  1  0
 29 58  1  0
 29 59  1  0
 31 60  1  0
 31 61  1  0
 32 62  1  0
 32 63  1  0
 34 64  1  0
M  END
>  <UniqueID>  (57) 
276

>  <SMILES>  (57) 
c1ccc(N2CCN(c3nc(N4CCOCC4)nc(N4CCc5ccccc5C4)n3)CC2)nc1

>  <Energy>  (57) 
80.303266191423

>  <Genealogy>  (57) 
c1ccc(N2CCN(c3nc(N4CCOCC4)nc(N4CCc5ccccc5C4)n3)CC2)nc1 (3D coordinates assigned)
c1ccc(N2CCN(c3nc(N4CCOCC4)nc(N4CCc5ccccc5C4)n3)CC2)nc1 (nonaromatic ring conformer: 80.303266191423 kcal/mol)

>  <smiles>  (57) 
c1ccc(N2CCN(c3nc(N4CCOCC4)nc(N4CCc5ccccc5C4)n3)CC2)nc1

>  <score_type>  (57) 
oracle

>  <origin>  (57) 
autodockgpu

>  <m_score__min__energy>  (57) 
-8.9399999999999995

>  <m_primary>  (57) 
energy

>  <meeko>  (57) 
{"free_energy": -8.92, "intermolecular_energy": -10.12, "internal_energy": -0.89, "cluster_size": 18, "cluster_id": 1, "rank_in_cluster": 6}

>  <energy>  (57) 
-8.73

>  <cluster_rmsd>  (57) 
0.55

>  <rmsd>  (57) 
270.57

>  <cluster>  (57) 
1

$$$$
XSFBOMDNDOCRMT-UHFFFAOYNA-N
     RDKit          3D

 64 69  0  0  0  0  0  0  0  0999 V2000
  137.0580   81.4210  224.6000 C   0  0  0  0  0  0  0  0  0  0  0  0
  138.4240   81.1520  224.5110 C   0  0  0  0  0  0  0  0  0  0  0  0
  138.8710   80.0430  223.7900 C   0  0  0  0  0  0  0  0  0  0  0  0
  137.9360   79.1930  223.1600 C   0  0  0  0  0  0  0  0  0  0  0  0
  138.3570   78.0370  222.3890 N   0  0  0  0  0  0  0  0  0  0  0  0
  137.5730   76.7850  222.4090 C   0  0  0  0  0  0  0  0  0  0  0  0
  138.2100   75.6780  221.5610 C   0  0  0  0  0  0  0  0  0  0  0  0
  139.6630   75.6220  221.7890 N   0  0  0  0  0  0  0  0  0  0  0  0
  140.3610   74.3620  221.8280 C   0  0  0  0  0  0  0  0  0  0  0  0
  141.4000   74.1310  220.9820 N   0  0  0  0  0  0  0  0  0  0  0  0
  142.0730   72.9530  221.0110 C   0  0  0  0  0  0  0  0  0  0  0  0
  143.1580   72.7140  220.0940 N   0  0  0  0  0  0  0  0  0  0  0  0
  143.8880   73.8610  219.5410 C   0  0  0  0  0  0  0  0  0  0  0  0
  144.8660   73.3970  218.4640 C   0  0  0  0  0  0  0  0  0  0  0  0
  145.6360   72.3310  218.9720 O   0  0  0  0  0  0  0  0  0  0  0  0
  144.8520   71.1500  219.1060 C   0  0  0  0  0  0  0  0  0  0  0  0
  143.3780   71.3690  219.5370 C   0  0  0  0  0  0  0  0  0  0  0  0
  141.6970   71.9940  221.8970 N   0  0  0  0  0  0  0  0  0  0  0  0
  140.6580   72.2030  222.7500 C   0  0  0  0  0  0  0  0  0  0  0  0
  140.2600   71.1690  223.6740 N   0  0  0  0  0  0  0  0  0  0  0  0
  139.0390   70.3830  223.4290 C   0  0  0  0  0  0  0  0  0  0  0  0
  139.2080   68.9480  223.9240 C   0  0  0  0  0  0  0  0  0  0  0  0
  139.6170   68.9490  225.3660 C   0  0  0  0  0  0  0  0  0  0  0  0
  139.1910   67.9250  226.2250 C   0  0  0  0  0  0  0  0  0  0  0  0
  139.6000   67.9130  227.5610 C   0  0  0  0  0  0  0  0  0  0  0  0
  140.4470   68.9120  228.0430 C   0  0  0  0  0  0  0  0  0  0  0  0
  140.8910   69.9240  227.1890 C   0  0  0  0  0  0  0  0  0  0  0  0
  140.4770   69.9520  225.8470 C   0  0  0  0  0  0  0  0  0  0  0  0
  141.0340   71.0060  224.9190 C   0  0  0  0  0  0  0  0  0  0  0  0
  139.9970   73.3910  222.7090 N   0  0  0  0  0  0  0  0  0  0  0  0
  140.4440   76.8670  221.8390 C   0  0  0  0  0  0  0  0  0  0  0  0
  139.5740   78.0910  221.5660 C   0  0  0  0  0  0  0  0  0  0  0  0
  136.6080   79.4880  223.2740 N   0  0  0  0  0  0  0  0  0  0  0  0
  136.1540   80.5670  223.9660 C   0  0  0  0  0  0  0  0  0  0  0  0
  136.6979   82.2949  225.1626 H   0  0  0  0  0  0  0  0  0  0  0  0
  139.1486   81.8133  225.0086 H   0  0  0  0  0  0  0  0  0  0  0  0
  139.9479   79.8322  223.7130 H   0  0  0  0  0  0  0  0  0  0  0  0
  137.4971   76.4332  223.4485 H   0  0  0  0  0  0  0  0  0  0  0  0
  136.5832   77.0044  221.9821 H   0  0  0  0  0  0  0  0  0  0  0  0
  137.7636   74.7107  221.8348 H   0  0  0  0  0  0  0  0  0  0  0  0
  138.0259   75.8949  220.4984 H   0  0  0  0  0  0  0  0  0  0  0  0
  143.1711   74.5689  219.0996 H   0  0  0  0  0  0  0  0  0  0  0  0
  144.4513   74.3503  220.3493 H   0  0  0  0  0  0  0  0  0  0  0  0
  144.3069   73.0592  217.5789 H   0  0  0  0  0  0  0  0  0  0  0  0
  145.5261   74.2291  218.1780 H   0  0  0  0  0  0  0  0  0  0  0  0
  144.8474   70.6348  218.1341 H   0  0  0  0  0  0  0  0  0  0  0  0
  145.3189   70.5692  219.9152 H   0  0  0  0  0  0  0  0  0  0  0  0
  142.7285   71.2381  218.6589 H   0  0  0  0  0  0  0  0  0  0  0  0
  143.1417   70.6347  220.3212 H   0  0  0  0  0  0  0  0  0  0  0  0
  138.1967   70.8506  223.9600 H   0  0  0  0  0  0  0  0  0  0  0  0
  138.8454   70.3615  222.3464 H   0  0  0  0  0  0  0  0  0  0  0  0
  138.2543   68.4105  223.8160 H   0  0  0  0  0  0  0  0  0  0  0  0
  139.9863   68.4492  223.3278 H   0  0  0  0  0  0  0  0  0  0  0  0
  138.5331   67.1292  225.8457 H   0  0  0  0  0  0  0  0  0  0  0  0
  139.2538   67.1148  228.2340 H   0  0  0  0  0  0  0  0  0  0  0  0
  140.7650   68.9023  229.0960 H   0  0  0  0  0  0  0  0  0  0  0  0
  141.5683   70.7030  227.5692 H   0  0  0  0  0  0  0  0  0  0  0  0
  141.0418   71.9685  225.4515 H   0  0  0  0  0  0  0  0  0  0  0  0
  142.0433   70.6783  224.6294 H   0  0  0  0  0  0  0  0  0  0  0  0
  140.8943   76.9654  222.8378 H   0  0  0  0  0  0  0  0  0  0  0  0
  141.2191   76.8168  221.0601 H   0  0  0  0  0  0  0  0  0  0  0  0
  140.1396   79.0019  221.8115 H   0  0  0  0  0  0  0  0  0  0  0  0
  139.2907   78.1027  220.5032 H   0  0  0  0  0  0  0  0  0  0  0  0
  135.0740   80.7669  224.0262 H   0  0  0  0  0  0  0  0  0  0  0  0
  1  2  2  0
  2  3  1  0
  3  4  2  0
  4  5  1  0
  5  6  1  0
  6  7  1  0
  7  8  1  0
  8  9  1  0
  9 10  2  0
 10 11  1  0
 11 12  1  0
 12 13  1  0
 13 14  1  0
 14 15  1  0
 15 16  1  0
 16 17  1  0
 11 18  2  0
 18 19  1  0
 19 20  1  0
 20 21  1  0
 21 22  1  0
 22 23  1  0
 23 24  2  0
 24 25  1  0
 25 26  2  0
 26 27  1  0
 27 28  2  0
 28 29  1  0
 19 30  2  0
  8 31  1  0
 31 32  1  0
  4 33  1  0
 33 34  2  0
 34  1  1  0
 32  5  1  0
 30  9  1  0
 17 12  1  0
 29 20  1  0
 28 23  1  0
  1 35  1  0
  2 36  1  0
  3 37  1  0
  6 38  1  0
  6 39  1  0
  7 40  1  0
  7 41  1  0
 13 42  1  0
 13 43  1  0
 14 44  1  0
 14 45  1  0
 16 46  1  0
 16 47  1  0
 17 48  1  0
 17 49  1  0
 21 50  1  0
 21 51  1  0
 22 52  1  0
 22 53  1  0
 24 54  1  0
 25 55  1  0
 26 56  1  0
 27 57  1  0
 29 58  1  0
 29 59  1  0
 31 60  1  0
 31 61  1  0
 32 62  1  0
 32 63  1  0
 34 64  1  0
M  END
>  <UniqueID>  (58) 
276

>  <SMILES>  (58) 
c1ccc(N2CCN(c3nc(N4CCOCC4)nc(N4CCc5ccccc5C4)n3)CC2)nc1

>  <Energy>  (58) 
80.303266191423

>  <Genealogy>  (58) 
c1ccc(N2CCN(c3nc(N4CCOCC4)nc(N4CCc5ccccc5C4)n3)CC2)nc1 (3D coordinates assigned)
c1ccc(N2CCN(c3nc(N4CCOCC4)nc(N4CCc5ccccc5C4)n3)CC2)nc1 (nonaromatic ring conformer: 80.303266191423 kcal/mol)

>  <smiles>  (58) 
c1ccc(N2CCN(c3nc(N4CCOCC4)nc(N4CCc5ccccc5C4)n3)CC2)nc1

>  <score_type>  (58) 
oracle

>  <origin>  (58) 
autodockgpu

>  <m_score__min__energy>  (58) 
-8.9399999999999995

>  <m_primary>  (58) 
energy

>  <meeko>  (58) 
{"free_energy": -8.92, "intermolecular_energy": -10.11, "internal_energy": -0.89, "cluster_size": 18, "cluster_id": 1, "rank_in_cluster": 8}

>  <energy>  (58) 
-8.37

>  <cluster_rmsd>  (58) 
1.16

>  <rmsd>  (58) 
270.49

>  <cluster>  (58) 
1

$$$$
XSFBOMDNDOCRMT-UHFFFAOYNA-N
     RDKit          3D

 64 69  0  0  0  0  0  0  0  0999 V2000
  137.0840   81.4300  224.5280 C   0  0  0  0  0  0  0  0  0  0  0  0
  138.4350   81.0830  224.5420 C   0  0  0  0  0  0  0  0  0  0  0  0
  138.8740   79.9610  223.8360 C   0  0  0  0  0  0  0  0  0  0  0  0
  137.9460   79.1780  223.1160 C   0  0  0  0  0  0  0  0  0  0  0  0
  138.3600   78.0110  222.3560 N   0  0  0  0  0  0  0  0  0  0  0  0
  137.5820   76.7570  222.4070 C   0  0  0  0  0  0  0  0  0  0  0  0
  138.2100   75.6400  221.5680 C   0  0  0  0  0  0  0  0  0  0  0  0
  139.6670   75.5920  221.7750 N   0  0  0  0  0  0  0  0  0  0  0  0
  140.3710   74.3360  221.8230 C   0  0  0  0  0  0  0  0  0  0  0  0
  141.4090   74.1030  220.9770 N   0  0  0  0  0  0  0  0  0  0  0  0
  142.0870   72.9280  221.0150 C   0  0  0  0  0  0  0  0  0  0  0  0
  143.1720   72.6860  220.0980 N   0  0  0  0  0  0  0  0  0  0  0  0
  143.8320   73.8310  219.4580 C   0  0  0  0  0  0  0  0  0  0  0  0
  144.8200   73.3490  218.3990 C   0  0  0  0  0  0  0  0  0  0  0  0
  145.6530   72.3610  218.9640 O   0  0  0  0  0  0  0  0  0  0  0  0
  144.9360   71.1520  219.1880 C   0  0  0  0  0  0  0  0  0  0  0  0
  143.4570   71.3210  219.6280 C   0  0  0  0  0  0  0  0  0  0  0  0
  141.7170   71.9750  221.9100 N   0  0  0  0  0  0  0  0  0  0  0  0
  140.6790   72.1860  222.7620 C   0  0  0  0  0  0  0  0  0  0  0  0
  140.2870   71.1570  223.6950 N   0  0  0  0  0  0  0  0  0  0  0  0
  139.0630   70.3720  223.4640 C   0  0  0  0  0  0  0  0  0  0  0  0
  139.2340   68.9390  223.9660 C   0  0  0  0  0  0  0  0  0  0  0  0
  139.6540   68.9490  225.4050 C   0  0  0  0  0  0  0  0  0  0  0  0
  139.2340   67.9300  226.2740 C   0  0  0  0  0  0  0  0  0  0  0  0
  139.6530   67.9250  227.6060 C   0  0  0  0  0  0  0  0  0  0  0  0
  140.5040   68.9260  228.0760 C   0  0  0  0  0  0  0  0  0  0  0  0
  140.9430   69.9340  227.2120 C   0  0  0  0  0  0  0  0  0  0  0  0
  140.5190   69.9540  225.8740 C   0  0  0  0  0  0  0  0  0  0  0  0
  141.0690   71.0020  224.9350 C   0  0  0  0  0  0  0  0  0  0  0  0
  140.0120   73.3710  222.7130 N   0  0  0  0  0  0  0  0  0  0  0  0
  140.4430   76.8410  221.7940 C   0  0  0  0  0  0  0  0  0  0  0  0
  139.5640   78.0580  221.5150 C   0  0  0  0  0  0  0  0  0  0  0  0
  136.6310   79.5480  223.1310 N   0  0  0  0  0  0  0  0  0  0  0  0
  136.1860   80.6410  223.8070 C   0  0  0  0  0  0  0  0  0  0  0  0
  136.7306   82.3145  225.0783 H   0  0  0  0  0  0  0  0  0  0  0  0
  139.1540   81.6927  225.1088 H   0  0  0  0  0  0  0  0  0  0  0  0
  139.9396   79.6882  223.8409 H   0  0  0  0  0  0  0  0  0  0  0  0
  137.5228   76.4213  223.4529 H   0  0  0  0  0  0  0  0  0  0  0  0
  136.5853   76.9660  221.9911 H   0  0  0  0  0  0  0  0  0  0  0  0
  137.7711   74.6757  221.8636 H   0  0  0  0  0  0  0  0  0  0  0  0
  138.0096   75.8399  220.5050 H   0  0  0  0  0  0  0  0  0  0  0  0
  143.0722   74.4683  218.9821 H   0  0  0  0  0  0  0  0  0  0  0  0
  144.3780   74.4027  220.2229 H   0  0  0  0  0  0  0  0  0  0  0  0
  144.2692   72.9239  217.5470 H   0  0  0  0  0  0  0  0  0  0  0  0
  145.4308   74.1941  218.0485 H   0  0  0  0  0  0  0  0  0  0  0  0
  144.9468   70.5738  218.2523 H   0  0  0  0  0  0  0  0  0  0  0  0
  145.4439   70.6518  220.0258 H   0  0  0  0  0  0  0  0  0  0  0  0
  142.8043   71.0973  218.7713 H   0  0  0  0  0  0  0  0  0  0  0  0
  143.2708   70.6294  220.4629 H   0  0  0  0  0  0  0  0  0  0  0  0
  138.2257   70.8439  223.9990 H   0  0  0  0  0  0  0  0  0  0  0  0
  138.8605   70.3449  222.3831 H   0  0  0  0  0  0  0  0  0  0  0  0
  138.2789   68.4020  223.8686 H   0  0  0  0  0  0  0  0  0  0  0  0
  140.0067   68.4352  223.3668 H   0  0  0  0  0  0  0  0  0  0  0  0
  138.5725   67.1326  225.9045 H   0  0  0  0  0  0  0  0  0  0  0  0
  139.3116   67.1306  228.2860 H   0  0  0  0  0  0  0  0  0  0  0  0
  140.8297   68.9221  229.1267 H   0  0  0  0  0  0  0  0  0  0  0  0
  141.6236   70.7147  227.5825 H   0  0  0  0  0  0  0  0  0  0  0  0
  141.0803   71.9679  225.4612 H   0  0  0  0  0  0  0  0  0  0  0  0
  142.0761   70.6722  224.6403 H   0  0  0  0  0  0  0  0  0  0  0  0
  140.9076   76.9567  222.7843 H   0  0  0  0  0  0  0  0  0  0  0  0
  141.2063   76.7818  221.0042 H   0  0  0  0  0  0  0  0  0  0  0  0
  140.1292   78.9747  221.7388 H   0  0  0  0  0  0  0  0  0  0  0  0
  139.2656   78.0531  220.4563 H   0  0  0  0  0  0  0  0  0  0  0  0
  135.1180   80.9034  223.7856 H   0  0  0  0  0  0  0  0  0  0  0  0
  1  2  2  0
  2  3  1  0
  3  4  2  0
  4  5  1  0
  5  6  1  0
  6  7  1  0
  7  8  1  0
  8  9  1  0
  9 10  2  0
 10 11  1  0
 11 12  1  0
 12 13  1  0
 13 14  1  0
 14 15  1  0
 15 16  1  0
 16 17  1  0
 11 18  2  0
 18 19  1  0
 19 20  1  0
 20 21  1  0
 21 22  1  0
 22 23  1  0
 23 24  2  0
 24 25  1  0
 25 26  2  0
 26 27  1  0
 27 28  2  0
 28 29  1  0
 19 30  2  0
  8 31  1  0
 31 32  1  0
  4 33  1  0
 33 34  2  0
 34  1  1  0
 32  5  1  0
 30  9  1  0
 17 12  1  0
 29 20  1  0
 28 23  1  0
  1 35  1  0
  2 36  1  0
  3 37  1  0
  6 38  1  0
  6 39  1  0
  7 40  1  0
  7 41  1  0
 13 42  1  0
 13 43  1  0
 14 44  1  0
 14 45  1  0
 16 46  1  0
 16 47  1  0
 17 48  1  0
 17 49  1  0
 21 50  1  0
 21 51  1  0
 22 52  1  0
 22 53  1  0
 24 54  1  0
 25 55  1  0
 26 56  1  0
 27 57  1  0
 29 58  1  0
 29 59  1  0
 31 60  1  0
 31 61  1  0
 32 62  1  0
 32 63  1  0
 34 64  1  0
M  END
>  <UniqueID>  (59) 
276

>  <SMILES>  (59) 
c1ccc(N2CCN(c3nc(N4CCOCC4)nc(N4CCc5ccccc5C4)n3)CC2)nc1

>  <Energy>  (59) 
80.303266191423

>  <Genealogy>  (59) 
c1ccc(N2CCN(c3nc(N4CCOCC4)nc(N4CCc5ccccc5C4)n3)CC2)nc1 (3D coordinates assigned)
c1ccc(N2CCN(c3nc(N4CCOCC4)nc(N4CCc5ccccc5C4)n3)CC2)nc1 (nonaromatic ring conformer: 80.303266191423 kcal/mol)

>  <smiles>  (59) 
c1ccc(N2CCN(c3nc(N4CCOCC4)nc(N4CCc5ccccc5C4)n3)CC2)nc1

>  <score_type>  (59) 
oracle

>  <origin>  (59) 
autodockgpu

>  <m_score__min__energy>  (59) 
-8.9399999999999995

>  <m_primary>  (59) 
energy

>  <meeko>  (59) 
{"free_energy": -8.91, "intermolecular_energy": -10.1, "internal_energy": -0.89, "cluster_size": 18, "cluster_id": 1, "rank_in_cluster": 11}

>  <energy>  (59) 
-8.72

>  <cluster_rmsd>  (59) 
0.0

>  <rmsd>  (59) 
270.03

>  <cluster>  (59) 
2

$$$$
XSFBOMDNDOCRMT-UHFFFAOYNA-N
     RDKit          3D

 64 69  0  0  0  0  0  0  0  0999 V2000
  137.0360   81.4080  224.5570 C   0  0  0  0  0  0  0  0  0  0  0  0
  138.3940   81.0900  224.5690 C   0  0  0  0  0  0  0  0  0  0  0  0
  138.8570   79.9860  223.8510 C   0  0  0  0  0  0  0  0  0  0  0  0
  137.9470   79.1900  223.1220 C   0  0  0  0  0  0  0  0  0  0  0  0
  138.3870   78.0420  222.3500 N   0  0  0  0  0  0  0  0  0  0  0  0
  137.6000   76.7910  222.3350 C   0  0  0  0  0  0  0  0  0  0  0  0
  138.2580   75.6920  221.4940 C   0  0  0  0  0  0  0  0  0  0  0  0
  139.7040   75.6290  221.7620 N   0  0  0  0  0  0  0  0  0  0  0  0
  140.3990   74.3680  221.8080 C   0  0  0  0  0  0  0  0  0  0  0  0
  141.4400   74.1320  220.9660 N   0  0  0  0  0  0  0  0  0  0  0  0
  142.1090   72.9510  221.0010 C   0  0  0  0  0  0  0  0  0  0  0  0
  143.1970   72.7060  220.0880 N   0  0  0  0  0  0  0  0  0  0  0  0
  143.8650   73.8500  219.4550 C   0  0  0  0  0  0  0  0  0  0  0  0
  144.8560   73.3650  218.3990 C   0  0  0  0  0  0  0  0  0  0  0  0
  145.6820   72.3720  218.9660 O   0  0  0  0  0  0  0  0  0  0  0  0
  144.9580   71.1660  219.1840 C   0  0  0  0  0  0  0  0  0  0  0  0
  143.4770   71.3410  219.6170 C   0  0  0  0  0  0  0  0  0  0  0  0
  141.7270   71.9960  221.8890 N   0  0  0  0  0  0  0  0  0  0  0  0
  140.6850   72.2110  222.7360 C   0  0  0  0  0  0  0  0  0  0  0  0
  140.2810   71.1800  223.6620 N   0  0  0  0  0  0  0  0  0  0  0  0
  139.0470   70.4110  223.4240 C   0  0  0  0  0  0  0  0  0  0  0  0
  139.2010   68.9730  223.9160 C   0  0  0  0  0  0  0  0  0  0  0  0
  139.6200   68.9670  225.3550 C   0  0  0  0  0  0  0  0  0  0  0  0
  139.1880   67.9470  226.2170 C   0  0  0  0  0  0  0  0  0  0  0  0
  139.6070   67.9270  227.5490 C   0  0  0  0  0  0  0  0  0  0  0  0
  140.4700   68.9140  228.0260 C   0  0  0  0  0  0  0  0  0  0  0  0
  140.9210   69.9220  227.1700 C   0  0  0  0  0  0  0  0  0  0  0  0
  140.4970   69.9580  225.8320 C   0  0  0  0  0  0  0  0  0  0  0  0
  141.0610   71.0060  224.9010 C   0  0  0  0  0  0  0  0  0  0  0  0
  140.0280   73.4010  222.6900 N   0  0  0  0  0  0  0  0  0  0  0  0
  140.4860   76.8720  221.8470 C   0  0  0  0  0  0  0  0  0  0  0  0
  139.6270   78.1020  221.5620 C   0  0  0  0  0  0  0  0  0  0  0  0
  136.6250   79.5330  223.1390 N   0  0  0  0  0  0  0  0  0  0  0  0
  136.1560   80.6090  223.8260 C   0  0  0  0  0  0  0  0  0  0  0  0
  136.6632   82.2782  225.1171 H   0  0  0  0  0  0  0  0  0  0  0  0
  139.0993   81.7084  225.1436 H   0  0  0  0  0  0  0  0  0  0  0  0
  139.9284   79.7368  223.8532 H   0  0  0  0  0  0  0  0  0  0  0  0
  137.4944   76.4286  223.3682 H   0  0  0  0  0  0  0  0  0  0  0  0
  136.6230   77.0170  221.8830 H   0  0  0  0  0  0  0  0  0  0  0  0
  137.8015   74.7231  221.7446 H   0  0  0  0  0  0  0  0  0  0  0  0
  138.1048   75.9213  220.4291 H   0  0  0  0  0  0  0  0  0  0  0  0
  143.1106   74.4923  218.9773 H   0  0  0  0  0  0  0  0  0  0  0  0
  144.4096   74.4177  220.2239 H   0  0  0  0  0  0  0  0  0  0  0  0
  144.3070   72.9439  217.5438 H   0  0  0  0  0  0  0  0  0  0  0  0
  145.4723   74.2078  218.0528 H   0  0  0  0  0  0  0  0  0  0  0  0
  144.9708   70.5896  218.2472 H   0  0  0  0  0  0  0  0  0  0  0  0
  145.4592   70.6619  220.0234 H   0  0  0  0  0  0  0  0  0  0  0  0
  142.8275   71.1222  218.7566 H   0  0  0  0  0  0  0  0  0  0  0  0
  143.2828   70.6485  220.4493 H   0  0  0  0  0  0  0  0  0  0  0  0
  138.2148   70.8890  223.9616 H   0  0  0  0  0  0  0  0  0  0  0  0
  138.8448   70.3942  222.3429 H   0  0  0  0  0  0  0  0  0  0  0  0
  138.2398   68.4480  223.8140 H   0  0  0  0  0  0  0  0  0  0  0  0
  139.9686   68.4650  223.3137 H   0  0  0  0  0  0  0  0  0  0  0  0
  138.5168   67.1603  225.8419 H   0  0  0  0  0  0  0  0  0  0  0  0
  139.2561   67.1318  228.2232 H   0  0  0  0  0  0  0  0  0  0  0  0
  140.7955   68.8986  229.0766 H   0  0  0  0  0  0  0  0  0  0  0  0
  141.6116   70.6911  227.5462 H   0  0  0  0  0  0  0  0  0  0  0  0
  141.0846   71.9677  225.4344 H   0  0  0  0  0  0  0  0  0  0  0  0
  142.0641   70.6658  224.6041 H   0  0  0  0  0  0  0  0  0  0  0  0
  140.9079   76.9589  222.8592 H   0  0  0  0  0  0  0  0  0  0  0  0
  141.2825   76.8278  221.0896 H   0  0  0  0  0  0  0  0  0  0  0  0
  140.1876   79.0088  221.8331 H   0  0  0  0  0  0  0  0  0  0  0  0
  139.3743   78.1262  220.4917 H   0  0  0  0  0  0  0  0  0  0  0  0
  135.0828   80.8495  223.8054 H   0  0  0  0  0  0  0  0  0  0  0  0
  1  2  2  0
  2  3  1  0
  3  4  2  0
  4  5  1  0
  5  6  1  0
  6  7  1  0
  7  8  1  0
  8  9  1  0
  9 10  2  0
 10 11  1  0
 11 12  1  0
 12 13  1  0
 13 14  1  0
 14 15  1  0
 15 16  1  0
 16 17  1  0
 11 18  2  0
 18 19  1  0
 19 20  1  0
 20 21  1  0
 21 22  1  0
 22 23  1  0
 23 24  2  0
 24 25  1  0
 25 26  2  0
 26 27  1  0
 27 28  2  0
 28 29  1  0
 19 30  2  0
  8 31  1  0
 31 32  1  0
  4 33  1  0
 33 34  2  0
 34  1  1  0
 32  5  1  0
 30  9  1  0
 17 12  1  0
 29 20  1  0
 28 23  1  0
  1 35  1  0
  2 36  1  0
  3 37  1  0
  6 38  1  0
  6 39  1  0
  7 40  1  0
  7 41  1  0
 13 42  1  0
 13 43  1  0
 14 44  1  0
 14 45  1  0
 16 46  1  0
 16 47  1  0
 17 48  1  0
 17 49  1  0
 21 50  1  0
 21 51  1  0
 22 52  1  0
 22 53  1  0
 24 54  1  0
 25 55  1  0
 26 56  1  0
 27 57  1  0
 29 58  1  0
 29 59  1  0
 31 60  1  0
 31 61  1  0
 32 62  1  0
 32 63  1  0
 34 64  1  0
M  END
>  <UniqueID>  (60) 
276

>  <SMILES>  (60) 
c1ccc(N2CCN(c3nc(N4CCOCC4)nc(N4CCc5ccccc5C4)n3)CC2)nc1

>  <Energy>  (60) 
80.303266191423

>  <Genealogy>  (60) 
c1ccc(N2CCN(c3nc(N4CCOCC4)nc(N4CCc5ccccc5C4)n3)CC2)nc1 (3D coordinates assigned)
c1ccc(N2CCN(c3nc(N4CCOCC4)nc(N4CCc5ccccc5C4)n3)CC2)nc1 (nonaromatic ring conformer: 80.303266191423 kcal/mol)

>  <smiles>  (60) 
c1ccc(N2CCN(c3nc(N4CCOCC4)nc(N4CCc5ccccc5C4)n3)CC2)nc1

>  <score_type>  (60) 
oracle

>  <origin>  (60) 
autodockgpu

>  <m_score__min__energy>  (60) 
-8.9399999999999995

>  <m_primary>  (60) 
energy

>  <meeko>  (60) 
{"free_energy": -8.93, "intermolecular_energy": -10.12, "internal_energy": -0.89, "cluster_size": 18, "cluster_id": 1, "rank_in_cluster": 3}

>  <energy>  (60) 
-8.6

>  <cluster_rmsd>  (60) 
0.81

>  <rmsd>  (60) 
270.08

>  <cluster>  (60) 
2

$$$$
XSFBOMDNDOCRMT-UHFFFAOYNA-N
     RDKit          3D

 64 69  0  0  0  0  0  0  0  0999 V2000
  142.4260   81.4170  223.9320 C   0  0  0  0  0  0  0  0  0  0  0  0
  143.2710   80.4680  223.3570 C   0  0  0  0  0  0  0  0  0  0  0  0
  142.7300   79.3690  222.6860 C   0  0  0  0  0  0  0  0  0  0  0  0
  141.3280   79.2210  222.5990 C   0  0  0  0  0  0  0  0  0  0  0  0
  140.7230   78.1020  221.8990 N   0  0  0  0  0  0  0  0  0  0  0  0
  139.4150   77.5610  222.3210 C   0  0  0  0  0  0  0  0  0  0  0  0
  138.9750   76.3590  221.4770 C   0  0  0  0  0  0  0  0  0  0  0  0
  140.1010   75.4350  221.2640 N   0  0  0  0  0  0  0  0  0  0  0  0
  139.9020   74.0090  221.2600 C   0  0  0  0  0  0  0  0  0  0  0  0
  139.6920   73.3520  220.0880 N   0  0  0  0  0  0  0  0  0  0  0  0
  139.5100   72.0070  220.0660 C   0  0  0  0  0  0  0  0  0  0  0  0
  139.2680   71.3280  218.8190 N   0  0  0  0  0  0  0  0  0  0  0  0
  139.1620   69.8640  218.8150 C   0  0  0  0  0  0  0  0  0  0  0  0
  139.0870   69.3430  217.3820 C   0  0  0  0  0  0  0  0  0  0  0  0
  138.0950   70.0600  216.6830 O   0  0  0  0  0  0  0  0  0  0  0  0
  138.5120   71.3970  216.4290 C   0  0  0  0  0  0  0  0  0  0  0  0
  139.3620   72.0590  217.5450 C   0  0  0  0  0  0  0  0  0  0  0  0
  139.5370   71.3140  221.2340 N   0  0  0  0  0  0  0  0  0  0  0  0
  139.7410   71.9520  222.4180 C   0  0  0  0  0  0  0  0  0  0  0  0
  139.7500   71.2030  223.6520 N   0  0  0  0  0  0  0  0  0  0  0  0
  138.7650   70.1300  223.8760 C   0  0  0  0  0  0  0  0  0  0  0  0
  139.3730   69.0010  224.7080 C   0  0  0  0  0  0  0  0  0  0  0  0
  139.9330   69.5510  225.9840 C   0  0  0  0  0  0  0  0  0  0  0  0
  139.9050   68.7860  227.1600 C   0  0  0  0  0  0  0  0  0  0  0  0
  140.4570   69.2890  228.3400 C   0  0  0  0  0  0  0  0  0  0  0  0
  141.0530   70.5510  228.3520 C   0  0  0  0  0  0  0  0  0  0  0  0
  141.1030   71.3120  227.1810 C   0  0  0  0  0  0  0  0  0  0  0  0
  140.5410   70.8200  225.9920 C   0  0  0  0  0  0  0  0  0  0  0  0
  140.6790   71.6200  224.7180 C   0  0  0  0  0  0  0  0  0  0  0  0
  139.9240   73.2990  222.4210 N   0  0  0  0  0  0  0  0  0  0  0  0
  141.4260   75.9680  220.9100 C   0  0  0  0  0  0  0  0  0  0  0  0
  141.4010   77.4860  220.7490 C   0  0  0  0  0  0  0  0  0  0  0  0
  140.5360   80.1700  223.1780 N   0  0  0  0  0  0  0  0  0  0  0  0
  141.0440   81.2510  223.8300 C   0  0  0  0  0  0  0  0  0  0  0  0
  142.8442   82.2867  224.4601 H   0  0  0  0  0  0  0  0  0  0  0  0
  144.3622   80.5850  223.4319 H   0  0  0  0  0  0  0  0  0  0  0  0
  143.3935   78.6213  222.2269 H   0  0  0  0  0  0  0  0  0  0  0  0
  139.4865   77.2461  223.3725 H   0  0  0  0  0  0  0  0  0  0  0  0
  138.6662   78.3554  222.1859 H   0  0  0  0  0  0  0  0  0  0  0  0
  138.1654   75.8279  221.9989 H   0  0  0  0  0  0  0  0  0  0  0  0
  138.6243   76.7216  220.4995 H   0  0  0  0  0  0  0  0  0  0  0  0
  140.0447   69.4347  219.3116 H   0  0  0  0  0  0  0  0  0  0  0  0
  138.2479   69.5696  219.3515 H   0  0  0  0  0  0  0  0  0  0  0  0
  140.0598   69.4825  216.8878 H   0  0  0  0  0  0  0  0  0  0  0  0
  138.8352   68.2722  217.3892 H   0  0  0  0  0  0  0  0  0  0  0  0
  139.1092   71.3952  215.5052 H   0  0  0  0  0  0  0  0  0  0  0  0
  137.5891   71.9917  216.3618 H   0  0  0  0  0  0  0  0  0  0  0  0
  140.4141   72.0796  217.2246 H   0  0  0  0  0  0  0  0  0  0  0  0
  138.9747   73.0756  217.7081 H   0  0  0  0  0  0  0  0  0  0  0  0
  137.8962   70.5434  224.4091 H   0  0  0  0  0  0  0  0  0  0  0  0
  138.4578   69.7238  222.9010 H   0  0  0  0  0  0  0  0  0  0  0  0
  138.5942   68.2600  224.9412 H   0  0  0  0  0  0  0  0  0  0  0  0
  140.1813   68.5239  224.1343 H   0  0  0  0  0  0  0  0  0  0  0  0
  139.4464   67.7862  227.1524 H   0  0  0  0  0  0  0  0  0  0  0  0
  140.4220   68.6895  229.2616 H   0  0  0  0  0  0  0  0  0  0  0  0
  141.4836   70.9468  229.2837 H   0  0  0  0  0  0  0  0  0  0  0  0
  141.5848   72.3008  227.1907 H   0  0  0  0  0  0  0  0  0  0  0  0
  140.4884   72.6782  224.9502 H   0  0  0  0  0  0  0  0  0  0  0  0
  141.6981   71.4497  224.3406 H   0  0  0  0  0  0  0  0  0  0  0  0
  142.1395   75.7058  221.7051 H   0  0  0  0  0  0  0  0  0  0  0  0
  141.7267   75.5267  219.9483 H   0  0  0  0  0  0  0  0  0  0  0  0
  142.4326   77.8631  220.6893 H   0  0  0  0  0  0  0  0  0  0  0  0
  140.8564   77.7428  219.8284 H   0  0  0  0  0  0  0  0  0  0  0  0
  140.3660   81.9934  224.2763 H   0  0  0  0  0  0  0  0  0  0  0  0
  1  2  2  0
  2  3  1  0
  3  4  2  0
  4  5  1  0
  5  6  1  0
  6  7  1  0
  7  8  1  0
  8  9  1  0
  9 10  2  0
 10 11  1  0
 11 12  1  0
 12 13  1  0
 13 14  1  0
 14 15  1  0
 15 16  1  0
 16 17  1  0
 11 18  2  0
 18 19  1  0
 19 20  1  0
 20 21  1  0
 21 22  1  0
 22 23  1  0
 23 24  2  0
 24 25  1  0
 25 26  2  0
 26 27  1  0
 27 28  2  0
 28 29  1  0
 19 30  2  0
  8 31  1  0
 31 32  1  0
  4 33  1  0
 33 34  2  0
 34  1  1  0
 32  5  1  0
 30  9  1  0
 17 12  1  0
 29 20  1  0
 28 23  1  0
  1 35  1  0
  2 36  1  0
  3 37  1  0
  6 38  1  0
  6 39  1  0
  7 40  1  0
  7 41  1  0
 13 42  1  0
 13 43  1  0
 14 44  1  0
 14 45  1  0
 16 46  1  0
 16 47  1  0
 17 48  1  0
 17 49  1  0
 21 50  1  0
 21 51  1  0
 22 52  1  0
 22 53  1  0
 24 54  1  0
 25 55  1  0
 26 56  1  0
 27 57  1  0
 29 58  1  0
 29 59  1  0
 31 60  1  0
 31 61  1  0
 32 62  1  0
 32 63  1  0
 34 64  1  0
M  END
>  <UniqueID>  (61) 
277

>  <SMILES>  (61) 
c1ccc(N2CCN(c3nc(N4CCOCC4)nc(N4CCc5ccccc5C4)n3)CC2)nc1

>  <Energy>  (61) 
82.61292634184493

>  <Genealogy>  (61) 
c1ccc(N2CCN(c3nc(N4CCOCC4)nc(N4CCc5ccccc5C4)n3)CC2)nc1 (3D coordinates assigned)
c1ccc(N2CCN(c3nc(N4CCOCC4)nc(N4CCc5ccccc5C4)n3)CC2)nc1 (nonaromatic ring conformer: 82.61292634184493 kcal/mol)

>  <smiles>  (61) 
c1ccc(N2CCN(c3nc(N4CCOCC4)nc(N4CCc5ccccc5C4)n3)CC2)nc1

>  <score_type>  (61) 
oracle

>  <origin>  (61) 
autodockgpu

>  <m_score__min__energy>  (61) 
-8.9399999999999995

>  <m_primary>  (61) 
energy

>  <meeko>  (61) 
{"free_energy": -8.72, "intermolecular_energy": -9.92, "internal_energy": -0.9, "cluster_size": 2, "cluster_id": 2, "rank_in_cluster": 1}

>  <energy>  (61) 
-8.94

>  <cluster_rmsd>  (61) 
0.0

>  <rmsd>  (61) 
270.57

>  <cluster>  (61) 
1

$$$$
XSFBOMDNDOCRMT-UHFFFAOYNA-N
     RDKit          3D

 64 69  0  0  0  0  0  0  0  0999 V2000
  136.9420   82.0090  224.7430 C   0  0  0  0  0  0  0  0  0  0  0  0
  136.6960   82.0510  223.3700 C   0  0  0  0  0  0  0  0  0  0  0  0
  137.2370   81.0710  222.5360 C   0  0  0  0  0  0  0  0  0  0  0  0
  138.0370   80.0450  223.0840 C   0  0  0  0  0  0  0  0  0  0  0  0
  138.6070   78.9980  222.2550 N   0  0  0  0  0  0  0  0  0  0  0  0
  137.8150   77.8080  221.8830 C   0  0  0  0  0  0  0  0  0  0  0  0
  138.6150   76.8080  221.0410 C   0  0  0  0  0  0  0  0  0  0  0  0
  139.9680   76.6290  221.5940 N   0  0  0  0  0  0  0  0  0  0  0  0
  140.6080   75.3390  221.5900 C   0  0  0  0  0  0  0  0  0  0  0  0
  141.7610   75.1510  220.8930 N   0  0  0  0  0  0  0  0  0  0  0  0
  142.3810   73.9430  220.8850 C   0  0  0  0  0  0  0  0  0  0  0  0
  143.5910   73.7540  220.1260 N   0  0  0  0  0  0  0  0  0  0  0  0
  144.8090   73.3250  220.8240 C   0  0  0  0  0  0  0  0  0  0  0  0
  146.0040   73.3610  219.8750 C   0  0  0  0  0  0  0  0  0  0  0  0
  145.6680   72.6760  218.6880 O   0  0  0  0  0  0  0  0  0  0  0  0
  144.7290   73.4160  217.9170 C   0  0  0  0  0  0  0  0  0  0  0  0
  143.6690   74.2080  218.7290 C   0  0  0  0  0  0  0  0  0  0  0  0
  141.8360   72.9120  221.5810 N   0  0  0  0  0  0  0  0  0  0  0  0
  140.6810   73.0770  222.2800 C   0  0  0  0  0  0  0  0  0  0  0  0
  140.1050   71.9660  223.0010 N   0  0  0  0  0  0  0  0  0  0  0  0
  138.7720   71.4570  222.6380 C   0  0  0  0  0  0  0  0  0  0  0  0
  138.6920   69.9460  222.8490 C   0  0  0  0  0  0  0  0  0  0  0  0
  139.0800   69.6050  224.2550 C   0  0  0  0  0  0  0  0  0  0  0  0
  138.4800   68.5210  224.9150 C   0  0  0  0  0  0  0  0  0  0  0  0
  138.8680   68.1870  226.2140 C   0  0  0  0  0  0  0  0  0  0  0  0
  139.8660   68.9200  226.8580 C   0  0  0  0  0  0  0  0  0  0  0  0
  140.4820   69.9880  226.2010 C   0  0  0  0  0  0  0  0  0  0  0  0
  140.0920   70.3400  224.8990 C   0  0  0  0  0  0  0  0  0  0  0  0
  140.8280   71.4430  224.1750 C   0  0  0  0  0  0  0  0  0  0  0  0
  140.0750   74.2940  222.2800 N   0  0  0  0  0  0  0  0  0  0  0  0
  140.7400   77.8020  222.0310 C   0  0  0  0  0  0  0  0  0  0  0  0
  139.9890   79.1050  221.7640 C   0  0  0  0  0  0  0  0  0  0  0  0
  138.2570   80.0410  224.4320 N   0  0  0  0  0  0  0  0  0  0  0  0
  137.7330   80.9830  225.2620 C   0  0  0  0  0  0  0  0  0  0  0  0
  136.5176   82.7754  225.4082 H   0  0  0  0  0  0  0  0  0  0  0  0
  136.0768   82.8550  222.9456 H   0  0  0  0  0  0  0  0  0  0  0  0
  137.0404   81.0981  221.4541 H   0  0  0  0  0  0  0  0  0  0  0  0
  137.4802   77.3059  222.8027 H   0  0  0  0  0  0  0  0  0  0  0  0
  136.9644   78.1502  221.2753 H   0  0  0  0  0  0  0  0  0  0  0  0
  138.0943   75.8391  221.0393 H   0  0  0  0  0  0  0  0  0  0  0  0
  138.7001   77.1967  220.0155 H   0  0  0  0  0  0  0  0  0  0  0  0
  144.9983   74.0000  221.6717 H   0  0  0  0  0  0  0  0  0  0  0  0
  144.6703   72.2955  221.1858 H   0  0  0  0  0  0  0  0  0  0  0  0
  146.2566   74.4053  219.6394 H   0  0  0  0  0  0  0  0  0  0  0  0
  146.8709   72.8786  220.3501 H   0  0  0  0  0  0  0  0  0  0  0  0
  145.2890   74.1345  217.3005 H   0  0  0  0  0  0  0  0  0  0  0  0
  144.1665   72.6722  217.3336 H   0  0  0  0  0  0  0  0  0  0  0  0
  143.9371   75.2748  218.7170 H   0  0  0  0  0  0  0  0  0  0  0  0
  142.6877   74.0383  218.2619 H   0  0  0  0  0  0  0  0  0  0  0  0
  138.0148   71.9493  223.2658 H   0  0  0  0  0  0  0  0  0  0  0  0
  138.5889   71.6747  221.5754 H   0  0  0  0  0  0  0  0  0  0  0  0
  137.6627   69.6059  222.6622 H   0  0  0  0  0  0  0  0  0  0  0  0
  139.3815   69.4466  222.1524 H   0  0  0  0  0  0  0  0  0  0  0  0
  137.7016   67.9328  224.4071 H   0  0  0  0  0  0  0  0  0  0  0  0
  138.3860   67.3442  226.7311 H   0  0  0  0  0  0  0  0  0  0  0  0
  140.1675   68.6568  227.8826 H   0  0  0  0  0  0  0  0  0  0  0  0
  141.2768   70.5562  226.7065 H   0  0  0  0  0  0  0  0  0  0  0  0
  140.9921   72.2717  224.8795 H   0  0  0  0  0  0  0  0  0  0  0  0
  141.7710   71.0127  223.8067 H   0  0  0  0  0  0  0  0  0  0  0  0
  140.9354   77.7181  223.1102 H   0  0  0  0  0  0  0  0  0  0  0  0
  141.6801   77.8254  221.4604 H   0  0  0  0  0  0  0  0  0  0  0  0
  140.4971   79.9313  222.2828 H   0  0  0  0  0  0  0  0  0  0  0  0
  139.9738   79.2979  220.6812 H   0  0  0  0  0  0  0  0  0  0  0  0
  137.9329   80.9360  226.3427 H   0  0  0  0  0  0  0  0  0  0  0  0
  1  2  2  0
  2  3  1  0
  3  4  2  0
  4  5  1  0
  5  6  1  0
  6  7  1  0
  7  8  1  0
  8  9  1  0
  9 10  2  0
 10 11  1  0
 11 12  1  0
 12 13  1  0
 13 14  1  0
 14 15  1  0
 15 16  1  0
 16 17  1  0
 11 18  2  0
 18 19  1  0
 19 20  1  0
 20 21  1  0
 21 22  1  0
 22 23  1  0
 23 24  2  0
 24 25  1  0
 25 26  2  0
 26 27  1  0
 27 28  2  0
 28 29  1  0
 19 30  2  0
  8 31  1  0
 31 32  1  0
  4 33  1  0
 33 34  2  0
 34  1  1  0
 32  5  1  0
 30  9  1  0
 17 12  1  0
 29 20  1  0
 28 23  1  0
  1 35  1  0
  2 36  1  0
  3 37  1  0
  6 38  1  0
  6 39  1  0
  7 40  1  0
  7 41  1  0
 13 42  1  0
 13 43  1  0
 14 44  1  0
 14 45  1  0
 16 46  1  0
 16 47  1  0
 17 48  1  0
 17 49  1  0
 21 50  1  0
 21 51  1  0
 22 52  1  0
 22 53  1  0
 24 54  1  0
 25 55  1  0
 26 56  1  0
 27 57  1  0
 29 58  1  0
 29 59  1  0
 31 60  1  0
 31 61  1  0
 32 62  1  0
 32 63  1  0
 34 64  1  0
M  END
>  <UniqueID>  (62) 
277

>  <SMILES>  (62) 
c1ccc(N2CCN(c3nc(N4CCOCC4)nc(N4CCc5ccccc5C4)n3)CC2)nc1

>  <Energy>  (62) 
82.61292634184493

>  <Genealogy>  (62) 
c1ccc(N2CCN(c3nc(N4CCOCC4)nc(N4CCc5ccccc5C4)n3)CC2)nc1 (3D coordinates assigned)
c1ccc(N2CCN(c3nc(N4CCOCC4)nc(N4CCc5ccccc5C4)n3)CC2)nc1 (nonaromatic ring conformer: 82.61292634184493 kcal/mol)

>  <smiles>  (62) 
c1ccc(N2CCN(c3nc(N4CCOCC4)nc(N4CCc5ccccc5C4)n3)CC2)nc1

>  <score_type>  (62) 
oracle

>  <origin>  (62) 
autodockgpu

>  <m_score__min__energy>  (62) 
-8.9399999999999995

>  <m_primary>  (62) 
energy

>  <meeko>  (62) 
{"free_energy": -8.37, "intermolecular_energy": -9.57, "internal_energy": -0.88, "cluster_size": 18, "cluster_id": 1, "rank_in_cluster": 18}

>  <energy>  (62) 
-8.93

>  <cluster_rmsd>  (62) 
0.03

>  <rmsd>  (62) 
270.56

>  <cluster>  (62) 
1

$$$$
XSFBOMDNDOCRMT-UHFFFAOYNA-N
     RDKit          3D

 64 69  0  0  0  0  0  0  0  0999 V2000
  136.9070   81.2980  224.6130 C   0  0  0  0  0  0  0  0  0  0  0  0
  138.2850   81.0840  224.5720 C   0  0  0  0  0  0  0  0  0  0  0  0
  138.8030   80.0150  223.8390 C   0  0  0  0  0  0  0  0  0  0  0  0
  137.9280   79.1490  223.1470 C   0  0  0  0  0  0  0  0  0  0  0  0
  138.4240   78.0340  222.3610 N   0  0  0  0  0  0  0  0  0  0  0  0
  137.6290   76.7970  222.2120 C   0  0  0  0  0  0  0  0  0  0  0  0
  138.3490   75.7320  221.3790 C   0  0  0  0  0  0  0  0  0  0  0  0
  139.7640   75.6340  221.7710 N   0  0  0  0  0  0  0  0  0  0  0  0
  140.4390   74.3630  221.8140 C   0  0  0  0  0  0  0  0  0  0  0  0
  141.4690   74.1070  220.9640 N   0  0  0  0  0  0  0  0  0  0  0  0
  142.1190   72.9160  220.9970 C   0  0  0  0  0  0  0  0  0  0  0  0
  143.1960   72.6510  220.0770 N   0  0  0  0  0  0  0  0  0  0  0  0
  143.8460   73.7800  219.3990 C   0  0  0  0  0  0  0  0  0  0  0  0
  144.8250   73.2700  218.3440 C   0  0  0  0  0  0  0  0  0  0  0  0
  145.6660   72.3000  218.9270 O   0  0  0  0  0  0  0  0  0  0  0  0
  144.9540   71.0970  219.1920 C   0  0  0  0  0  0  0  0  0  0  0  0
  143.4790   71.2740  219.6420 C   0  0  0  0  0  0  0  0  0  0  0  0
  141.7300   71.9700  221.8910 N   0  0  0  0  0  0  0  0  0  0  0  0
  140.6990   72.2040  222.7470 C   0  0  0  0  0  0  0  0  0  0  0  0
  140.2860   71.1820  223.6790 N   0  0  0  0  0  0  0  0  0  0  0  0
  139.0500   70.4160  223.4430 C   0  0  0  0  0  0  0  0  0  0  0  0
  139.1960   68.9810  223.9470 C   0  0  0  0  0  0  0  0  0  0  0  0
  139.6090   68.9850  225.3870 C   0  0  0  0  0  0  0  0  0  0  0  0
  139.1680   67.9740  226.2550 C   0  0  0  0  0  0  0  0  0  0  0  0
  139.5810   67.9630  227.5890 C   0  0  0  0  0  0  0  0  0  0  0  0
  140.4470   68.9510  228.0620 C   0  0  0  0  0  0  0  0  0  0  0  0
  140.9050   69.9500  227.2000 C   0  0  0  0  0  0  0  0  0  0  0  0
  140.4880   69.9760  225.8600 C   0  0  0  0  0  0  0  0  0  0  0  0
  141.0600   71.0140  224.9230 C   0  0  0  0  0  0  0  0  0  0  0  0
  140.0600   73.4030  222.7030 N   0  0  0  0  0  0  0  0  0  0  0  0
  140.5480   76.8600  221.9880 C   0  0  0  0  0  0  0  0  0  0  0  0
  139.7300   78.1140  221.6900 C   0  0  0  0  0  0  0  0  0  0  0  0
  136.5860   79.3900  223.2150 N   0  0  0  0  0  0  0  0  0  0  0  0
  136.0630   80.4300  223.9190 C   0  0  0  0  0  0  0  0  0  0  0  0
  136.4910   82.1403  225.1852 H   0  0  0  0  0  0  0  0  0  0  0  0
  138.9629   81.7573  225.1170 H   0  0  0  0  0  0  0  0  0  0  0  0
  139.8895   79.8476  223.8005 H   0  0  0  0  0  0  0  0  0  0  0  0
  137.4269   76.3853  223.2118 H   0  0  0  0  0  0  0  0  0  0  0  0
  136.6991   77.0594  221.6863 H   0  0  0  0  0  0  0  0  0  0  0  0
  137.8619   74.7587  221.5383 H   0  0  0  0  0  0  0  0  0  0  0  0
  138.2949   76.0167  220.3178 H   0  0  0  0  0  0  0  0  0  0  0  0
  143.0797   74.4017  218.9130 H   0  0  0  0  0  0  0  0  0  0  0  0
  144.3974   74.3750  220.1419 H   0  0  0  0  0  0  0  0  0  0  0  0
  144.2666   72.8202  217.5098 H   0  0  0  0  0  0  0  0  0  0  0  0
  145.4305   74.1063  217.9646 H   0  0  0  0  0  0  0  0  0  0  0  0
  144.9569   70.4929  218.2727 H   0  0  0  0  0  0  0  0  0  0  0  0
  145.4713   70.6223  220.0388 H   0  0  0  0  0  0  0  0  0  0  0  0
  142.8182   71.0253  218.7985 H   0  0  0  0  0  0  0  0  0  0  0  0
  143.3024   70.6049  220.4970 H   0  0  0  0  0  0  0  0  0  0  0  0
  138.2179   70.9017  223.9738 H   0  0  0  0  0  0  0  0  0  0  0  0
  138.8519   70.3912  222.3613 H   0  0  0  0  0  0  0  0  0  0  0  0
  138.2330   68.4591  223.8454 H   0  0  0  0  0  0  0  0  0  0  0  0
  139.9637   68.4649  223.3519 H   0  0  0  0  0  0  0  0  0  0  0  0
  138.4947   67.1876  225.8832 H   0  0  0  0  0  0  0  0  0  0  0  0
  139.2236   67.1749  228.2681 H   0  0  0  0  0  0  0  0  0  0  0  0
  140.7686   68.9425  229.1139 H   0  0  0  0  0  0  0  0  0  0  0  0
  141.5960   70.7203  227.5731 H   0  0  0  0  0  0  0  0  0  0  0  0
  141.0856   71.9798  225.4489 H   0  0  0  0  0  0  0  0  0  0  0  0
  142.0626   70.6667  224.6328 H   0  0  0  0  0  0  0  0  0  0  0  0
  140.8783   76.8908  223.0368 H   0  0  0  0  0  0  0  0  0  0  0  0
  141.4090   76.8418  221.3037 H   0  0  0  0  0  0  0  0  0  0  0  0
  140.2732   78.9984  222.0545 H   0  0  0  0  0  0  0  0  0  0  0  0
  139.5737   78.1934  220.6041 H   0  0  0  0  0  0  0  0  0  0  0  0
  134.9745   80.5868  223.9412 H   0  0  0  0  0  0  0  0  0  0  0  0
  1  2  2  0
  2  3  1  0
  3  4  2  0
  4  5  1  0
  5  6  1  0
  6  7  1  0
  7  8  1  0
  8  9  1  0
  9 10  2  0
 10 11  1  0
 11 12  1  0
 12 13  1  0
 13 14  1  0
 14 15  1  0
 15 16  1  0
 16 17  1  0
 11 18  2  0
 18 19  1  0
 19 20  1  0
 20 21  1  0
 21 22  1  0
 22 23  1  0
 23 24  2  0
 24 25  1  0
 25 26  2  0
 26 27  1  0
 27 28  2  0
 28 29  1  0
 19 30  2  0
  8 31  1  0
 31 32  1  0
  4 33  1  0
 33 34  2  0
 34  1  1  0
 32  5  1  0
 30  9  1  0
 17 12  1  0
 29 20  1  0
 28 23  1  0
  1 35  1  0
  2 36  1  0
  3 37  1  0
  6 38  1  0
  6 39  1  0
  7 40  1  0
  7 41  1  0
 13 42  1  0
 13 43  1  0
 14 44  1  0
 14 45  1  0
 16 46  1  0
 16 47  1  0
 17 48  1  0
 17 49  1  0
 21 50  1  0
 21 51  1  0
 22 52  1  0
 22 53  1  0
 24 54  1  0
 25 55  1  0
 26 56  1  0
 27 57  1  0
 29 58  1  0
 29 59  1  0
 31 60  1  0
 31 61  1  0
 32 62  1  0
 32 63  1  0
 34 64  1  0
M  END
>  <UniqueID>  (63) 
277

>  <SMILES>  (63) 
c1ccc(N2CCN(c3nc(N4CCOCC4)nc(N4CCc5ccccc5C4)n3)CC2)nc1

>  <Energy>  (63) 
82.61292634184493

>  <Genealogy>  (63) 
c1ccc(N2CCN(c3nc(N4CCOCC4)nc(N4CCc5ccccc5C4)n3)CC2)nc1 (3D coordinates assigned)
c1ccc(N2CCN(c3nc(N4CCOCC4)nc(N4CCc5ccccc5C4)n3)CC2)nc1 (nonaromatic ring conformer: 82.61292634184493 kcal/mol)

>  <smiles>  (63) 
c1ccc(N2CCN(c3nc(N4CCOCC4)nc(N4CCc5ccccc5C4)n3)CC2)nc1

>  <score_type>  (63) 
oracle

>  <origin>  (63) 
autodockgpu

>  <m_score__min__energy>  (63) 
-8.9399999999999995

>  <m_primary>  (63) 
energy

>  <meeko>  (63) 
{"free_energy": -8.93, "intermolecular_energy": -10.12, "internal_energy": -0.89, "cluster_size": 18, "cluster_id": 1, "rank_in_cluster": 4}

>  <energy>  (63) 
-8.93

>  <cluster_rmsd>  (63) 
0.05

>  <rmsd>  (63) 
270.55

>  <cluster>  (63) 
1

$$$$
XSFBOMDNDOCRMT-UHFFFAOYNA-N
     RDKit          3D

 64 69  0  0  0  0  0  0  0  0999 V2000
  142.5740   81.3300  223.8790 C   0  0  0  0  0  0  0  0  0  0  0  0
  141.1830   81.2700  223.8000 C   0  0  0  0  0  0  0  0  0  0  0  0
  140.5680   80.1930  223.1580 C   0  0  0  0  0  0  0  0  0  0  0  0
  141.3580   79.1730  222.5860 C   0  0  0  0  0  0  0  0  0  0  0  0
  140.7600   78.0280  221.9210 N   0  0  0  0  0  0  0  0  0  0  0  0
  139.5580   77.3720  222.4740 C   0  0  0  0  0  0  0  0  0  0  0  0
  139.1130   76.1620  221.6450 C   0  0  0  0  0  0  0  0  0  0  0  0
  140.2730   75.3390  221.2660 N   0  0  0  0  0  0  0  0  0  0  0  0
  140.1860   73.9010  221.2330 C   0  0  0  0  0  0  0  0  0  0  0  0
  140.2130   73.2430  220.0430 N   0  0  0  0  0  0  0  0  0  0  0  0
  140.1390   71.8890  219.9960 C   0  0  0  0  0  0  0  0  0  0  0  0
  140.1480   71.2060  218.7270 N   0  0  0  0  0  0  0  0  0  0  0  0
  141.0370   70.0520  218.5460 C   0  0  0  0  0  0  0  0  0  0  0  0
  141.0240   69.5970  217.0890 C   0  0  0  0  0  0  0  0  0  0  0  0
  139.6870   69.4500  216.6660 O   0  0  0  0  0  0  0  0  0  0  0  0
  139.0510   70.7150  216.5250 C   0  0  0  0  0  0  0  0  0  0  0  0
  139.4640   71.7930  217.5630 C   0  0  0  0  0  0  0  0  0  0  0  0
  140.0330   71.1870  221.1540 N   0  0  0  0  0  0  0  0  0  0  0  0
  139.9990   71.8260  222.3540 C   0  0  0  0  0  0  0  0  0  0  0  0
  139.8690   71.0670  223.5750 N   0  0  0  0  0  0  0  0  0  0  0  0
  138.7760   70.0920  223.7300 C   0  0  0  0  0  0  0  0  0  0  0  0
  139.2270   68.9020  224.5750 C   0  0  0  0  0  0  0  0  0  0  0  0
  139.7670   69.3810  225.8880 C   0  0  0  0  0  0  0  0  0  0  0  0
  139.6020   68.6100  227.0490 C   0  0  0  0  0  0  0  0  0  0  0  0
  140.1350   69.0450  228.2640 C   0  0  0  0  0  0  0  0  0  0  0  0
  140.8470   70.2440  228.3270 C   0  0  0  0  0  0  0  0  0  0  0  0
  141.0330   71.0080  227.1720 C   0  0  0  0  0  0  0  0  0  0  0  0
  140.4920   70.5850  225.9470 C   0  0  0  0  0  0  0  0  0  0  0  0
  140.7750   71.3810  224.6950 C   0  0  0  0  0  0  0  0  0  0  0  0
  140.0770   73.1830  222.3840 N   0  0  0  0  0  0  0  0  0  0  0  0
  141.5000   75.9860  220.7780 C   0  0  0  0  0  0  0  0  0  0  0  0
  141.3390   77.5010  220.6770 C   0  0  0  0  0  0  0  0  0  0  0  0
  142.7160   79.2710  222.6810 N   0  0  0  0  0  0  0  0  0  0  0  0
  143.3340   80.3080  223.3080 C   0  0  0  0  0  0  0  0  0  0  0  0
  143.0666   82.1731  224.3855 H   0  0  0  0  0  0  0  0  0  0  0  0
  140.5711   82.0698  224.2427 H   0  0  0  0  0  0  0  0  0  0  0  0
  139.4709   80.1399  223.0983 H   0  0  0  0  0  0  0  0  0  0  0  0
  139.7796   77.0355  223.4976 H   0  0  0  0  0  0  0  0  0  0  0  0
  138.7396   78.1068  222.4568 H   0  0  0  0  0  0  0  0  0  0  0  0
  138.4163   75.5528  222.2396 H   0  0  0  0  0  0  0  0  0  0  0  0
  138.6189   76.5212  220.7302 H   0  0  0  0  0  0  0  0  0  0  0  0
  142.0616   70.3354  218.8286 H   0  0  0  0  0  0  0  0  0  0  0  0
  140.6856   69.2262  219.1820 H   0  0  0  0  0  0  0  0  0  0  0  0
  141.5283   70.3483  216.4635 H   0  0  0  0  0  0  0  0  0  0  0  0
  141.5514   68.6363  216.9949 H   0  0  0  0  0  0  0  0  0  0  0  0
  139.2866   71.1024  215.5228 H   0  0  0  0  0  0  0  0  0  0  0  0
  137.9789   70.5329  216.6908 H   0  0  0  0  0  0  0  0  0  0  0  0
  140.1415   72.5113  217.0782 H   0  0  0  0  0  0  0  0  0  0  0  0
  138.5489   72.2874  217.9210 H   0  0  0  0  0  0  0  0  0  0  0  0
  137.9230   70.5816  224.2227 H   0  0  0  0  0  0  0  0  0  0  0  0
  138.4848   69.7272  222.7339 H   0  0  0  0  0  0  0  0  0  0  0  0
  138.3694   68.2370  224.7546 H   0  0  0  0  0  0  0  0  0  0  0  0
  140.0164   68.3561  224.0375 H   0  0  0  0  0  0  0  0  0  0  0  0
  139.0507   67.6593  227.0016 H   0  0  0  0  0  0  0  0  0  0  0  0
  139.9936   68.4419  229.1730 H   0  0  0  0  0  0  0  0  0  0  0  0
  141.2618   70.5875  229.2862 H   0  0  0  0  0  0  0  0  0  0  0  0
  141.6061   71.9456  227.2225 H   0  0  0  0  0  0  0  0  0  0  0  0
  140.6748   72.4502  224.9333 H   0  0  0  0  0  0  0  0  0  0  0  0
  141.7919   71.1168  224.3694 H   0  0  0  0  0  0  0  0  0  0  0  0
  142.3223   75.7606  221.4731 H   0  0  0  0  0  0  0  0  0  0  0  0
  141.7156   75.5967  219.7720 H   0  0  0  0  0  0  0  0  0  0  0  0
  142.3237   77.9618  220.5095 H   0  0  0  0  0  0  0  0  0  0  0  0
  140.6690   77.7382  219.8375 H   0  0  0  0  0  0  0  0  0  0  0  0
  144.4320   80.3411  223.3650 H   0  0  0  0  0  0  0  0  0  0  0  0
  1  2  2  0
  2  3  1  0
  3  4  2  0
  4  5  1  0
  5  6  1  0
  6  7  1  0
  7  8  1  0
  8  9  1  0
  9 10  2  0
 10 11  1  0
 11 12  1  0
 12 13  1  0
 13 14  1  0
 14 15  1  0
 15 16  1  0
 16 17  1  0
 11 18  2  0
 18 19  1  0
 19 20  1  0
 20 21  1  0
 21 22  1  0
 22 23  1  0
 23 24  2  0
 24 25  1  0
 25 26  2  0
 26 27  1  0
 27 28  2  0
 28 29  1  0
 19 30  2  0
  8 31  1  0
 31 32  1  0
  4 33  1  0
 33 34  2  0
 34  1  1  0
 32  5  1  0
 30  9  1  0
 17 12  1  0
 29 20  1  0
 28 23  1  0
  1 35  1  0
  2 36  1  0
  3 37  1  0
  6 38  1  0
  6 39  1  0
  7 40  1  0
  7 41  1  0
 13 42  1  0
 13 43  1  0
 14 44  1  0
 14 45  1  0
 16 46  1  0
 16 47  1  0
 17 48  1  0
 17 49  1  0
 21 50  1  0
 21 51  1  0
 22 52  1  0
 22 53  1  0
 24 54  1  0
 25 55  1  0
 26 56  1  0
 27 57  1  0
 29 58  1  0
 29 59  1  0
 31 60  1  0
 31 61  1  0
 32 62  1  0
 32 63  1  0
 34 64  1  0
M  END
>  <UniqueID>  (64) 
277

>  <SMILES>  (64) 
c1ccc(N2CCN(c3nc(N4CCOCC4)nc(N4CCc5ccccc5C4)n3)CC2)nc1

>  <Energy>  (64) 
82.61292634184493

>  <Genealogy>  (64) 
c1ccc(N2CCN(c3nc(N4CCOCC4)nc(N4CCc5ccccc5C4)n3)CC2)nc1 (3D coordinates assigned)
c1ccc(N2CCN(c3nc(N4CCOCC4)nc(N4CCc5ccccc5C4)n3)CC2)nc1 (nonaromatic ring conformer: 82.61292634184493 kcal/mol)

>  <smiles>  (64) 
c1ccc(N2CCN(c3nc(N4CCOCC4)nc(N4CCc5ccccc5C4)n3)CC2)nc1

>  <score_type>  (64) 
oracle

>  <origin>  (64) 
autodockgpu

>  <m_score__min__energy>  (64) 
-8.9399999999999995

>  <m_primary>  (64) 
energy

>  <meeko>  (64) 
{"free_energy": -8.6, "intermolecular_energy": -9.79, "internal_energy": -0.89, "cluster_size": 2, "cluster_id": 2, "rank_in_cluster": 2}

>  <energy>  (64) 
-8.93

>  <cluster_rmsd>  (64) 
0.07

>  <rmsd>  (64) 
270.55

>  <cluster>  (64) 
1

$$$$
XSFBOMDNDOCRMT-UHFFFAOYNA-N
     RDKit          3D

 64 69  0  0  0  0  0  0  0  0999 V2000
  137.1100   81.3530  224.6260 C   0  0  0  0  0  0  0  0  0  0  0  0
  136.1700   80.6520  223.8710 C   0  0  0  0  0  0  0  0  0  0  0  0
  136.5680   79.5520  223.1090 C   0  0  0  0  0  0  0  0  0  0  0  0
  137.9240   79.1580  223.0990 C   0  0  0  0  0  0  0  0  0  0  0  0
  138.3800   78.0130  222.3320 N   0  0  0  0  0  0  0  0  0  0  0  0
  137.5980   76.7610  222.3000 C   0  0  0  0  0  0  0  0  0  0  0  0
  138.2730   75.6660  221.4670 C   0  0  0  0  0  0  0  0  0  0  0  0
  139.7150   75.6070  221.7580 N   0  0  0  0  0  0  0  0  0  0  0  0
  140.4120   74.3480  221.8110 C   0  0  0  0  0  0  0  0  0  0  0  0
  141.4550   74.1090  220.9710 N   0  0  0  0  0  0  0  0  0  0  0  0
  142.1270   72.9310  221.0140 C   0  0  0  0  0  0  0  0  0  0  0  0
  143.2160   72.6840  220.1040 N   0  0  0  0  0  0  0  0  0  0  0  0
  143.8740   73.8240  219.4540 C   0  0  0  0  0  0  0  0  0  0  0  0
  144.8680   73.3350  218.4040 C   0  0  0  0  0  0  0  0  0  0  0  0
  145.7030   72.3570  218.9840 O   0  0  0  0  0  0  0  0  0  0  0  0
  144.9900   71.1480  219.2180 C   0  0  0  0  0  0  0  0  0  0  0  0
  143.5090   71.3150  219.6500 C   0  0  0  0  0  0  0  0  0  0  0  0
  141.7460   71.9800  221.9060 N   0  0  0  0  0  0  0  0  0  0  0  0
  140.7030   72.1970  222.7520 C   0  0  0  0  0  0  0  0  0  0  0  0
  140.3000   71.1700  223.6830 N   0  0  0  0  0  0  0  0  0  0  0  0
  139.0710   70.3930  223.4460 C   0  0  0  0  0  0  0  0  0  0  0  0
  139.2300   68.9590  223.9470 C   0  0  0  0  0  0  0  0  0  0  0  0
  139.6450   68.9640  225.3880 C   0  0  0  0  0  0  0  0  0  0  0  0
  139.2140   67.9480  226.2540 C   0  0  0  0  0  0  0  0  0  0  0  0
  139.6280   67.9380  227.5880 C   0  0  0  0  0  0  0  0  0  0  0  0
  140.4850   68.9330  228.0620 C   0  0  0  0  0  0  0  0  0  0  0  0
  140.9340   69.9380  227.2010 C   0  0  0  0  0  0  0  0  0  0  0  0
  140.5150   69.9620  225.8610 C   0  0  0  0  0  0  0  0  0  0  0  0
  141.0770   71.0070  224.9260 C   0  0  0  0  0  0  0  0  0  0  0  0
  140.0430   73.3840  222.6980 N   0  0  0  0  0  0  0  0  0  0  0  0
  140.4910   76.8520  221.8600 C   0  0  0  0  0  0  0  0  0  0  0  0
  139.6330   78.0800  221.5650 C   0  0  0  0  0  0  0  0  0  0  0  0
  138.8140   79.8730  223.8490 N   0  0  0  0  0  0  0  0  0  0  0  0
  138.4440   80.9430  224.6040 C   0  0  0  0  0  0  0  0  0  0  0  0
  136.8037   82.2187  225.2316 H   0  0  0  0  0  0  0  0  0  0  0  0
  135.1157   80.9656  223.8759 H   0  0  0  0  0  0  0  0  0  0  0  0
  135.8272   78.9936  222.5179 H   0  0  0  0  0  0  0  0  0  0  0  0
  137.4761   76.3953  223.3302 H   0  0  0  0  0  0  0  0  0  0  0  0
  136.6282   76.9857  221.8320 H   0  0  0  0  0  0  0  0  0  0  0  0
  137.8157   74.6950  221.7081 H   0  0  0  0  0  0  0  0  0  0  0  0
  138.1361   75.8973  220.4003 H   0  0  0  0  0  0  0  0  0  0  0  0
  143.1135   74.4531  218.9683 H   0  0  0  0  0  0  0  0  0  0  0  0
  144.4151   74.4057  220.2148 H   0  0  0  0  0  0  0  0  0  0  0  0
  144.3225   72.8979  217.5547 H   0  0  0  0  0  0  0  0  0  0  0  0
  145.4762   74.1787  218.0459 H   0  0  0  0  0  0  0  0  0  0  0  0
  145.0070   70.5599  218.2886 H   0  0  0  0  0  0  0  0  0  0  0  0
  145.4964   70.6592  220.0634 H   0  0  0  0  0  0  0  0  0  0  0  0
  142.8608   71.0790  218.7932 H   0  0  0  0  0  0  0  0  0  0  0  0
  143.3224   70.6317  220.4916 H   0  0  0  0  0  0  0  0  0  0  0  0
  138.2347   70.8701  223.9779 H   0  0  0  0  0  0  0  0  0  0  0  0
  138.8730   70.3683  222.3643 H   0  0  0  0  0  0  0  0  0  0  0  0
  138.2715   68.4290  223.8455 H   0  0  0  0  0  0  0  0  0  0  0  0
  140.0015   68.4507  223.3501 H   0  0  0  0  0  0  0  0  0  0  0  0
  138.5476   67.1563  225.8811 H   0  0  0  0  0  0  0  0  0  0  0  0
  139.2784   67.1453  228.2658 H   0  0  0  0  0  0  0  0  0  0  0  0
  140.8070   68.9259  229.1138 H   0  0  0  0  0  0  0  0  0  0  0  0
  141.6187   70.7137  227.5746 H   0  0  0  0  0  0  0  0  0  0  0  0
  141.0942   71.9720  225.4538 H   0  0  0  0  0  0  0  0  0  0  0  0
  142.0827   70.6700  224.6345 H   0  0  0  0  0  0  0  0  0  0  0  0
  140.8958   76.9369  222.8793 H   0  0  0  0  0  0  0  0  0  0  0  0
  141.2999   76.8129  221.1156 H   0  0  0  0  0  0  0  0  0  0  0  0
  140.1859   78.9876  221.8488 H   0  0  0  0  0  0  0  0  0  0  0  0
  139.3982   78.1073  220.4907 H   0  0  0  0  0  0  0  0  0  0  0  0
  139.1959   81.4846  225.1967 H   0  0  0  0  0  0  0  0  0  0  0  0
  1  2  2  0
  2  3  1  0
  3  4  2  0
  4  5  1  0
  5  6  1  0
  6  7  1  0
  7  8  1  0
  8  9  1  0
  9 10  2  0
 10 11  1  0
 11 12  1  0
 12 13  1  0
 13 14  1  0
 14 15  1  0
 15 16  1  0
 16 17  1  0
 11 18  2  0
 18 19  1  0
 19 20  1  0
 20 21  1  0
 21 22  1  0
 22 23  1  0
 23 24  2  0
 24 25  1  0
 25 26  2  0
 26 27  1  0
 27 28  2  0
 28 29  1  0
 19 30  2  0
  8 31  1  0
 31 32  1  0
  4 33  1  0
 33 34  2  0
 34  1  1  0
 32  5  1  0
 30  9  1  0
 17 12  1  0
 29 20  1  0
 28 23  1  0
  1 35  1  0
  2 36  1  0
  3 37  1  0
  6 38  1  0
  6 39  1  0
  7 40  1  0
  7 41  1  0
 13 42  1  0
 13 43  1  0
 14 44  1  0
 14 45  1  0
 16 46  1  0
 16 47  1  0
 17 48  1  0
 17 49  1  0
 21 50  1  0
 21 51  1  0
 22 52  1  0
 22 53  1  0
 24 54  1  0
 25 55  1  0
 26 56  1  0
 27 57  1  0
 29 58  1  0
 29 59  1  0
 31 60  1  0
 31 61  1  0
 32 62  1  0
 32 63  1  0
 34 64  1  0
M  END
>  <UniqueID>  (65) 
277

>  <SMILES>  (65) 
c1ccc(N2CCN(c3nc(N4CCOCC4)nc(N4CCc5ccccc5C4)n3)CC2)nc1

>  <Energy>  (65) 
82.61292634184493

>  <Genealogy>  (65) 
c1ccc(N2CCN(c3nc(N4CCOCC4)nc(N4CCc5ccccc5C4)n3)CC2)nc1 (3D coordinates assigned)
c1ccc(N2CCN(c3nc(N4CCOCC4)nc(N4CCc5ccccc5C4)n3)CC2)nc1 (nonaromatic ring conformer: 82.61292634184493 kcal/mol)

>  <smiles>  (65) 
c1ccc(N2CCN(c3nc(N4CCOCC4)nc(N4CCc5ccccc5C4)n3)CC2)nc1

>  <score_type>  (65) 
oracle

>  <origin>  (65) 
autodockgpu

>  <m_score__min__energy>  (65) 
-8.9399999999999995

>  <m_primary>  (65) 
energy

>  <meeko>  (65) 
{"free_energy": -8.86, "intermolecular_energy": -10.05, "internal_energy": -0.9, "cluster_size": 18, "cluster_id": 1, "rank_in_cluster": 16}

>  <energy>  (65) 
-8.92

>  <cluster_rmsd>  (65) 
0.04

>  <rmsd>  (65) 
270.55

>  <cluster>  (65) 
1

$$$$
XSFBOMDNDOCRMT-UHFFFAOYNA-N
     RDKit          3D

 64 69  0  0  0  0  0  0  0  0999 V2000
  136.9570   81.3650  224.6490 C   0  0  0  0  0  0  0  0  0  0  0  0
  138.3290   81.1180  224.6010 C   0  0  0  0  0  0  0  0  0  0  0  0
  138.8170   80.0330  223.8700 C   0  0  0  0  0  0  0  0  0  0  0  0
  137.9180   79.1860  223.1860 C   0  0  0  0  0  0  0  0  0  0  0  0
  138.3820   78.0550  222.4030 N   0  0  0  0  0  0  0  0  0  0  0  0
  137.5930   76.8090  222.3280 C   0  0  0  0  0  0  0  0  0  0  0  0
  138.2780   75.7290  221.4830 C   0  0  0  0  0  0  0  0  0  0  0  0
  139.7130   75.6540  221.8010 N   0  0  0  0  0  0  0  0  0  0  0  0
  140.4020   74.3900  221.8390 C   0  0  0  0  0  0  0  0  0  0  0  0
  141.4380   74.1510  220.9910 N   0  0  0  0  0  0  0  0  0  0  0  0
  142.1020   72.9680  221.0200 C   0  0  0  0  0  0  0  0  0  0  0  0
  143.1850   72.7210  220.1010 N   0  0  0  0  0  0  0  0  0  0  0  0
  143.8410   73.8620  219.4520 C   0  0  0  0  0  0  0  0  0  0  0  0
  144.8270   73.3740  218.3930 C   0  0  0  0  0  0  0  0  0  0  0  0
  145.6630   72.3920  218.9630 O   0  0  0  0  0  0  0  0  0  0  0  0
  144.9490   71.1840  219.1980 C   0  0  0  0  0  0  0  0  0  0  0  0
  143.4710   71.3530  219.6410 C   0  0  0  0  0  0  0  0  0  0  0  0
  141.7210   72.0120  221.9070 N   0  0  0  0  0  0  0  0  0  0  0  0
  140.6840   72.2290  222.7600 C   0  0  0  0  0  0  0  0  0  0  0  0
  140.2800   71.1970  223.6850 N   0  0  0  0  0  0  0  0  0  0  0  0
  139.0520   70.4200  223.4400 C   0  0  0  0  0  0  0  0  0  0  0  0
  139.2110   68.9840  223.9350 C   0  0  0  0  0  0  0  0  0  0  0  0
  139.6210   68.9820  225.3770 C   0  0  0  0  0  0  0  0  0  0  0  0
  139.1890   67.9610  226.2370 C   0  0  0  0  0  0  0  0  0  0  0  0
  139.5990   67.9450  227.5720 C   0  0  0  0  0  0  0  0  0  0  0  0
  140.4540   68.9380  228.0530 C   0  0  0  0  0  0  0  0  0  0  0  0
  140.9040   69.9480  227.1990 C   0  0  0  0  0  0  0  0  0  0  0  0
  140.4890   69.9790  225.8580 C   0  0  0  0  0  0  0  0  0  0  0  0
  141.0530   71.0290  224.9290 C   0  0  0  0  0  0  0  0  0  0  0  0
  140.0320   73.4210  222.7200 N   0  0  0  0  0  0  0  0  0  0  0  0
  140.4950   76.8920  221.9450 C   0  0  0  0  0  0  0  0  0  0  0  0
  139.6490   78.1310  221.6610 C   0  0  0  0  0  0  0  0  0  0  0  0
  136.5820   79.4590  223.2610 N   0  0  0  0  0  0  0  0  0  0  0  0
  136.0880   80.5150  223.9630 C   0  0  0  0  0  0  0  0  0  0  0  0
  136.5647   82.2191  225.2205 H   0  0  0  0  0  0  0  0  0  0  0  0
  139.0261   81.7775  225.1387 H   0  0  0  0  0  0  0  0  0  0  0  0
  139.8989   79.8387  223.8271 H   0  0  0  0  0  0  0  0  0  0  0  0
  137.4493   76.4208  223.3472 H   0  0  0  0  0  0  0  0  0  0  0  0
  136.6334   77.0501  221.8473 H   0  0  0  0  0  0  0  0  0  0  0  0
  137.8102   74.7557  221.6922 H   0  0  0  0  0  0  0  0  0  0  0  0
  138.1638   75.9858  220.4195 H   0  0  0  0  0  0  0  0  0  0  0  0
  143.0789   74.4951  218.9740 H   0  0  0  0  0  0  0  0  0  0  0  0
  144.3883   74.4397  220.2115 H   0  0  0  0  0  0  0  0  0  0  0  0
  144.2745   72.9416  217.5458 H   0  0  0  0  0  0  0  0  0  0  0  0
  145.4351   74.2175  218.0342 H   0  0  0  0  0  0  0  0  0  0  0  0
  144.9582   70.5989  218.2665 H   0  0  0  0  0  0  0  0  0  0  0  0
  145.4602   70.6913  220.0382 H   0  0  0  0  0  0  0  0  0  0  0  0
  142.8162   71.1212  218.7881 H   0  0  0  0  0  0  0  0  0  0  0  0
  143.2884   70.6674  220.4816 H   0  0  0  0  0  0  0  0  0  0  0  0
  138.2134   70.8938  223.9713 H   0  0  0  0  0  0  0  0  0  0  0  0
  138.8573   70.4003  222.3575 H   0  0  0  0  0  0  0  0  0  0  0  0
  138.2534   68.4534  223.8277 H   0  0  0  0  0  0  0  0  0  0  0  0
  139.9854   68.4797  223.3384 H   0  0  0  0  0  0  0  0  0  0  0  0
  138.5248   67.1701  225.8583 H   0  0  0  0  0  0  0  0  0  0  0  0
  139.2478   67.1490  228.2451 H   0  0  0  0  0  0  0  0  0  0  0  0
  140.7738   68.9253  229.1054 H   0  0  0  0  0  0  0  0  0  0  0  0
  141.5866   70.7225  227.5789 H   0  0  0  0  0  0  0  0  0  0  0  0
  141.0679   71.9916  225.4612 H   0  0  0  0  0  0  0  0  0  0  0  0
  142.0598   70.6940  224.6389 H   0  0  0  0  0  0  0  0  0  0  0  0
  140.8811   76.9521  222.9733 H   0  0  0  0  0  0  0  0  0  0  0  0
  141.3180   76.8644  221.2157 H   0  0  0  0  0  0  0  0  0  0  0  0
  140.2015   79.0291  221.9743 H   0  0  0  0  0  0  0  0  0  0  0  0
  139.4341   78.1825  220.5834 H   0  0  0  0  0  0  0  0  0  0  0  0
  135.0038   80.6987  223.9898 H   0  0  0  0  0  0  0  0  0  0  0  0
  1  2  2  0
  2  3  1  0
  3  4  2  0
  4  5  1  0
  5  6  1  0
  6  7  1  0
  7  8  1  0
  8  9  1  0
  9 10  2  0
 10 11  1  0
 11 12  1  0
 12 13  1  0
 13 14  1  0
 14 15  1  0
 15 16  1  0
 16 17  1  0
 11 18  2  0
 18 19  1  0
 19 20  1  0
 20 21  1  0
 21 22  1  0
 22 23  1  0
 23 24  2  0
 24 25  1  0
 25 26  2  0
 26 27  1  0
 27 28  2  0
 28 29  1  0
 19 30  2  0
  8 31  1  0
 31 32  1  0
  4 33  1  0
 33 34  2  0
 34  1  1  0
 32  5  1  0
 30  9  1  0
 17 12  1  0
 29 20  1  0
 28 23  1  0
  1 35  1  0
  2 36  1  0
  3 37  1  0
  6 38  1  0
  6 39  1  0
  7 40  1  0
  7 41  1  0
 13 42  1  0
 13 43  1  0
 14 44  1  0
 14 45  1  0
 16 46  1  0
 16 47  1  0
 17 48  1  0
 17 49  1  0
 21 50  1  0
 21 51  1  0
 22 52  1  0
 22 53  1  0
 24 54  1  0
 25 55  1  0
 26 56  1  0
 27 57  1  0
 29 58  1  0
 29 59  1  0
 31 60  1  0
 31 61  1  0
 32 62  1  0
 32 63  1  0
 34 64  1  0
M  END
>  <UniqueID>  (66) 
277

>  <SMILES>  (66) 
c1ccc(N2CCN(c3nc(N4CCOCC4)nc(N4CCc5ccccc5C4)n3)CC2)nc1

>  <Energy>  (66) 
82.61292634184493

>  <Genealogy>  (66) 
c1ccc(N2CCN(c3nc(N4CCOCC4)nc(N4CCc5ccccc5C4)n3)CC2)nc1 (3D coordinates assigned)
c1ccc(N2CCN(c3nc(N4CCOCC4)nc(N4CCc5ccccc5C4)n3)CC2)nc1 (nonaromatic ring conformer: 82.61292634184493 kcal/mol)

>  <smiles>  (66) 
c1ccc(N2CCN(c3nc(N4CCOCC4)nc(N4CCc5ccccc5C4)n3)CC2)nc1

>  <score_type>  (66) 
oracle

>  <origin>  (66) 
autodockgpu

>  <m_score__min__energy>  (66) 
-8.9399999999999995

>  <m_primary>  (66) 
energy

>  <meeko>  (66) 
{"free_energy": -8.92, "intermolecular_energy": -10.12, "internal_energy": -0.89, "cluster_size": 18, "cluster_id": 1, "rank_in_cluster": 7}

>  <energy>  (66) 
-8.92

>  <cluster_rmsd>  (66) 
0.05

>  <rmsd>  (66) 
270.56

>  <cluster>  (66) 
1

$$$$
XSFBOMDNDOCRMT-UHFFFAOYNA-N
     RDKit          3D

 64 69  0  0  0  0  0  0  0  0999 V2000
  136.9990   81.3540  224.5840 C   0  0  0  0  0  0  0  0  0  0  0  0
  138.3650   81.0710  224.5790 C   0  0  0  0  0  0  0  0  0  0  0  0
  138.8480   79.9810  223.8540 C   0  0  0  0  0  0  0  0  0  0  0  0
  137.9500   79.1640  223.1330 C   0  0  0  0  0  0  0  0  0  0  0  0
  138.4110   78.0280  222.3540 N   0  0  0  0  0  0  0  0  0  0  0  0
  137.6200   76.7820  222.2890 C   0  0  0  0  0  0  0  0  0  0  0  0
  138.3010   75.6960  221.4480 C   0  0  0  0  0  0  0  0  0  0  0  0
  139.7380   75.6220  221.7620 N   0  0  0  0  0  0  0  0  0  0  0  0
  140.4250   74.3570  221.8060 C   0  0  0  0  0  0  0  0  0  0  0  0
  141.4580   74.1120  220.9560 N   0  0  0  0  0  0  0  0  0  0  0  0
  142.1210   72.9280  220.9890 C   0  0  0  0  0  0  0  0  0  0  0  0
  143.2010   72.6750  220.0690 N   0  0  0  0  0  0  0  0  0  0  0  0
  143.8950   73.8140  219.4550 C   0  0  0  0  0  0  0  0  0  0  0  0
  144.8710   73.3260  218.3880 C   0  0  0  0  0  0  0  0  0  0  0  0
  145.6740   72.3030  218.9330 O   0  0  0  0  0  0  0  0  0  0  0  0
  144.9220   71.1110  219.1310 C   0  0  0  0  0  0  0  0  0  0  0  0
  143.4480   71.3120  219.5720 C   0  0  0  0  0  0  0  0  0  0  0  0
  141.7410   71.9770  221.8830 N   0  0  0  0  0  0  0  0  0  0  0  0
  140.7070   72.2000  222.7380 C   0  0  0  0  0  0  0  0  0  0  0  0
  140.3040   71.1740  223.6690 N   0  0  0  0  0  0  0  0  0  0  0  0
  139.0840   70.3860  223.4240 C   0  0  0  0  0  0  0  0  0  0  0  0
  139.2500   68.9550  223.9330 C   0  0  0  0  0  0  0  0  0  0  0  0
  139.6500   68.9700  225.3780 C   0  0  0  0  0  0  0  0  0  0  0  0
  139.2200   67.9540  226.2440 C   0  0  0  0  0  0  0  0  0  0  0  0
  139.6210   67.9540  227.5820 C   0  0  0  0  0  0  0  0  0  0  0  0
  140.4640   68.9590  228.0600 C   0  0  0  0  0  0  0  0  0  0  0  0
  140.9130   69.9630  227.1990 C   0  0  0  0  0  0  0  0  0  0  0  0
  140.5070   69.9790  225.8550 C   0  0  0  0  0  0  0  0  0  0  0  0
  141.0690   71.0240  224.9200 C   0  0  0  0  0  0  0  0  0  0  0  0
  140.0560   73.3940  222.6930 N   0  0  0  0  0  0  0  0  0  0  0  0
  140.5210   76.8590  221.8970 C   0  0  0  0  0  0  0  0  0  0  0  0
  139.6760   78.0980  221.6080 C   0  0  0  0  0  0  0  0  0  0  0  0
  136.6200   79.4710  223.1660 N   0  0  0  0  0  0  0  0  0  0  0  0
  136.1310   80.5330  223.8610 C   0  0  0  0  0  0  0  0  0  0  0  0
  136.6104   82.2132  225.1504 H   0  0  0  0  0  0  0  0  0  0  0  0
  139.0609   81.7067  225.1462 H   0  0  0  0  0  0  0  0  0  0  0  0
  139.9253   79.7588  223.8442 H   0  0  0  0  0  0  0  0  0  0  0  0
  137.4793   76.4000  223.3109 H   0  0  0  0  0  0  0  0  0  0  0  0
  136.6591   77.0214  221.8101 H   0  0  0  0  0  0  0  0  0  0  0  0
  137.8331   74.7244  221.6648 H   0  0  0  0  0  0  0  0  0  0  0  0
  138.1831   75.9460  220.3833 H   0  0  0  0  0  0  0  0  0  0  0  0
  143.1550   74.4829  218.9914 H   0  0  0  0  0  0  0  0  0  0  0  0
  144.4552   74.3537  220.2328 H   0  0  0  0  0  0  0  0  0  0  0  0
  144.3100   72.9349  217.5264 H   0  0  0  0  0  0  0  0  0  0  0  0
  145.5067   74.1603  218.0566 H   0  0  0  0  0  0  0  0  0  0  0  0
  144.9183   70.5522  218.1835 H   0  0  0  0  0  0  0  0  0  0  0  0
  145.4136   70.5800  219.9595 H   0  0  0  0  0  0  0  0  0  0  0  0
  142.7909   71.1240  218.7101 H   0  0  0  0  0  0  0  0  0  0  0  0
  143.2404   70.6090  220.3922 H   0  0  0  0  0  0  0  0  0  0  0  0
  138.2388   70.8585  223.9459 H   0  0  0  0  0  0  0  0  0  0  0  0
  138.8964   70.3549  222.3405 H   0  0  0  0  0  0  0  0  0  0  0  0
  138.2971   68.4164  223.8240 H   0  0  0  0  0  0  0  0  0  0  0  0
  140.0318   68.4505  223.3462 H   0  0  0  0  0  0  0  0  0  0  0  0
  138.5647   67.1544  225.8682 H   0  0  0  0  0  0  0  0  0  0  0  0
  139.2721   67.1611  228.2600 H   0  0  0  0  0  0  0  0  0  0  0  0
  140.7748   68.9601  229.1152 H   0  0  0  0  0  0  0  0  0  0  0  0
  141.5882   70.7453  227.5759 H   0  0  0  0  0  0  0  0  0  0  0  0
  141.0725   71.9918  225.4429 H   0  0  0  0  0  0  0  0  0  0  0  0
  142.0803   70.6939  224.6403 H   0  0  0  0  0  0  0  0  0  0  0  0
  140.9096   76.9244  222.9240 H   0  0  0  0  0  0  0  0  0  0  0  0
  141.3420   76.8262  221.1656 H   0  0  0  0  0  0  0  0  0  0  0  0
  140.2307   78.9971  221.9147 H   0  0  0  0  0  0  0  0  0  0  0  0
  139.4583   78.1438  220.5307 H   0  0  0  0  0  0  0  0  0  0  0  0
  135.0517   80.7452  223.8536 H   0  0  0  0  0  0  0  0  0  0  0  0
  1  2  2  0
  2  3  1  0
  3  4  2  0
  4  5  1  0
  5  6  1  0
  6  7  1  0
  7  8  1  0
  8  9  1  0
  9 10  2  0
 10 11  1  0
 11 12  1  0
 12 13  1  0
 13 14  1  0
 14 15  1  0
 15 16  1  0
 16 17  1  0
 11 18  2  0
 18 19  1  0
 19 20  1  0
 20 21  1  0
 21 22  1  0
 22 23  1  0
 23 24  2  0
 24 25  1  0
 25 26  2  0
 26 27  1  0
 27 28  2  0
 28 29  1  0
 19 30  2  0
  8 31  1  0
 31 32  1  0
  4 33  1  0
 33 34  2  0
 34  1  1  0
 32  5  1  0
 30  9  1  0
 17 12  1  0
 29 20  1  0
 28 23  1  0
  1 35  1  0
  2 36  1  0
  3 37  1  0
  6 38  1  0
  6 39  1  0
  7 40  1  0
  7 41  1  0
 13 42  1  0
 13 43  1  0
 14 44  1  0
 14 45  1  0
 16 46  1  0
 16 47  1  0
 17 48  1  0
 17 49  1  0
 21 50  1  0
 21 51  1  0
 22 52  1  0
 22 53  1  0
 24 54  1  0
 25 55  1  0
 26 56  1  0
 27 57  1  0
 29 58  1  0
 29 59  1  0
 31 60  1  0
 31 61  1  0
 32 62  1  0
 32 63  1  0
 34 64  1  0
M  END
>  <UniqueID>  (67) 
277

>  <SMILES>  (67) 
c1ccc(N2CCN(c3nc(N4CCOCC4)nc(N4CCc5ccccc5C4)n3)CC2)nc1

>  <Energy>  (67) 
82.61292634184493

>  <Genealogy>  (67) 
c1ccc(N2CCN(c3nc(N4CCOCC4)nc(N4CCc5ccccc5C4)n3)CC2)nc1 (3D coordinates assigned)
c1ccc(N2CCN(c3nc(N4CCOCC4)nc(N4CCc5ccccc5C4)n3)CC2)nc1 (nonaromatic ring conformer: 82.61292634184493 kcal/mol)

>  <smiles>  (67) 
c1ccc(N2CCN(c3nc(N4CCOCC4)nc(N4CCc5ccccc5C4)n3)CC2)nc1

>  <score_type>  (67) 
oracle

>  <origin>  (67) 
autodockgpu

>  <m_score__min__energy>  (67) 
-8.9399999999999995

>  <m_primary>  (67) 
energy

>  <meeko>  (67) 
{"free_energy": -8.92, "intermolecular_energy": -10.12, "internal_energy": -0.89, "cluster_size": 18, "cluster_id": 1, "rank_in_cluster": 5}

>  <energy>  (67) 
-8.92

>  <cluster_rmsd>  (67) 
0.04

>  <rmsd>  (67) 
270.57

>  <cluster>  (67) 
1

$$$$
XSFBOMDNDOCRMT-UHFFFAOYNA-N
     RDKit          3D

 64 69  0  0  0  0  0  0  0  0999 V2000
  136.9910   81.3200  224.5660 C   0  0  0  0  0  0  0  0  0  0  0  0
  138.3540   81.0230  224.5870 C   0  0  0  0  0  0  0  0  0  0  0  0
  138.8420   79.9380  223.8570 C   0  0  0  0  0  0  0  0  0  0  0  0
  137.9520   79.1400  223.1050 C   0  0  0  0  0  0  0  0  0  0  0  0
  138.4190   78.0120  222.3200 N   0  0  0  0  0  0  0  0  0  0  0  0
  137.6180   76.7740  222.2190 C   0  0  0  0  0  0  0  0  0  0  0  0
  138.3070   75.6940  221.3780 C   0  0  0  0  0  0  0  0  0  0  0  0
  139.7350   75.6010  221.7230 N   0  0  0  0  0  0  0  0  0  0  0  0
  140.4090   74.3290  221.7620 C   0  0  0  0  0  0  0  0  0  0  0  0
  141.4290   74.0690  220.9010 N   0  0  0  0  0  0  0  0  0  0  0  0
  142.0790   72.8780  220.9310 C   0  0  0  0  0  0  0  0  0  0  0  0
  143.1450   72.6090  219.9990 N   0  0  0  0  0  0  0  0  0  0  0  0
  143.5610   73.6670  219.0700 C   0  0  0  0  0  0  0  0  0  0  0  0
  144.5670   73.1190  218.0610 C   0  0  0  0  0  0  0  0  0  0  0  0
  145.5870   72.4350  218.7540 O   0  0  0  0  0  0  0  0  0  0  0  0
  145.1050   71.2110  219.2980 C   0  0  0  0  0  0  0  0  0  0  0  0
  143.6420   71.2360  219.8170 C   0  0  0  0  0  0  0  0  0  0  0  0
  141.6990   71.9350  221.8330 N   0  0  0  0  0  0  0  0  0  0  0  0
  140.6790   72.1730  222.7000 C   0  0  0  0  0  0  0  0  0  0  0  0
  140.2760   71.1550  223.6410 N   0  0  0  0  0  0  0  0  0  0  0  0
  139.0670   70.3500  223.3920 C   0  0  0  0  0  0  0  0  0  0  0  0
  139.2430   68.9280  223.9220 C   0  0  0  0  0  0  0  0  0  0  0  0
  139.6260   68.9670  225.3710 C   0  0  0  0  0  0  0  0  0  0  0  0
  139.1970   67.9580  226.2460 C   0  0  0  0  0  0  0  0  0  0  0  0
  139.5820   67.9800  227.5890 C   0  0  0  0  0  0  0  0  0  0  0  0
  140.4100   69.0000  228.0620 C   0  0  0  0  0  0  0  0  0  0  0  0
  140.8570   69.9980  227.1930 C   0  0  0  0  0  0  0  0  0  0  0  0
  140.4670   69.9910  225.8440 C   0  0  0  0  0  0  0  0  0  0  0  0
  141.0280   71.0300  224.9020 C   0  0  0  0  0  0  0  0  0  0  0  0
  140.0400   73.3730  222.6580 N   0  0  0  0  0  0  0  0  0  0  0  0
  140.5270   76.8280  221.8920 C   0  0  0  0  0  0  0  0  0  0  0  0
  139.7010   78.0790  221.6030 C   0  0  0  0  0  0  0  0  0  0  0  0
  136.6250   79.4610  223.1130 N   0  0  0  0  0  0  0  0  0  0  0  0
  136.1310   80.5180  223.8130 C   0  0  0  0  0  0  0  0  0  0  0  0
  136.5987   82.1754  225.1356 H   0  0  0  0  0  0  0  0  0  0  0  0
  139.0435   81.6434  225.1784 H   0  0  0  0  0  0  0  0  0  0  0  0
  139.9170   79.7051  223.8674 H   0  0  0  0  0  0  0  0  0  0  0  0
  137.4509   76.3788  223.2318 H   0  0  0  0  0  0  0  0  0  0  0  0
  136.6705   77.0295  221.7221 H   0  0  0  0  0  0  0  0  0  0  0  0
  137.8249   74.7241  221.5699 H   0  0  0  0  0  0  0  0  0  0  0  0
  138.2158   75.9607  220.3147 H   0  0  0  0  0  0  0  0  0  0  0  0
  142.6789   74.0467  218.5336 H   0  0  0  0  0  0  0  0  0  0  0  0
  144.0330   74.4801  219.6411 H   0  0  0  0  0  0  0  0  0  0  0  0
  144.0596   72.4261  217.3737 H   0  0  0  0  0  0  0  0  0  0  0  0
  145.0020   73.9476  217.4828 H   0  0  0  0  0  0  0  0  0  0  0  0
  145.1725   70.4426  218.5138 H   0  0  0  0  0  0  0  0  0  0  0  0
  145.7323   71.0058  220.1780 H   0  0  0  0  0  0  0  0  0  0  0  0
  142.9984   70.7188  219.0901 H   0  0  0  0  0  0  0  0  0  0  0  0
  143.6201   70.7342  220.7956 H   0  0  0  0  0  0  0  0  0  0  0  0
  138.2105   70.8198  223.8976 H   0  0  0  0  0  0  0  0  0  0  0  0
  138.8924   70.3026  222.3070 H   0  0  0  0  0  0  0  0  0  0  0  0
  138.2975   68.3772  223.8094 H   0  0  0  0  0  0  0  0  0  0  0  0
  140.0370   68.4245  223.3510 H   0  0  0  0  0  0  0  0  0  0  0  0
  138.5550   67.1462  225.8734 H   0  0  0  0  0  0  0  0  0  0  0  0
  139.2326   67.1934  228.2740 H   0  0  0  0  0  0  0  0  0  0  0  0
  140.7106   69.0176  229.1200 H   0  0  0  0  0  0  0  0  0  0  0  0
  141.5180   70.7936  227.5673 H   0  0  0  0  0  0  0  0  0  0  0  0
  141.0146   72.0044  225.4122 H   0  0  0  0  0  0  0  0  0  0  0  0
  142.0461   70.7079  224.6381 H   0  0  0  0  0  0  0  0  0  0  0  0
  140.8944   76.8751  222.9278 H   0  0  0  0  0  0  0  0  0  0  0  0
  141.3629   76.7971  221.1776 H   0  0  0  0  0  0  0  0  0  0  0  0
  140.2578   78.9678  221.9346 H   0  0  0  0  0  0  0  0  0  0  0  0
  139.5072   78.1420  220.5220 H   0  0  0  0  0  0  0  0  0  0  0  0
  135.0541   80.7407  223.7857 H   0  0  0  0  0  0  0  0  0  0  0  0
  1  2  2  0
  2  3  1  0
  3  4  2  0
  4  5  1  0
  5  6  1  0
  6  7  1  0
  7  8  1  0
  8  9  1  0
  9 10  2  0
 10 11  1  0
 11 12  1  0
 12 13  1  0
 13 14  1  0
 14 15  1  0
 15 16  1  0
 16 17  1  0
 11 18  2  0
 18 19  1  0
 19 20  1  0
 20 21  1  0
 21 22  1  0
 22 23  1  0
 23 24  2  0
 24 25  1  0
 25 26  2  0
 26 27  1  0
 27 28  2  0
 28 29  1  0
 19 30  2  0
  8 31  1  0
 31 32  1  0
  4 33  1  0
 33 34  2  0
 34  1  1  0
 32  5  1  0
 30  9  1  0
 17 12  1  0
 29 20  1  0
 28 23  1  0
  1 35  1  0
  2 36  1  0
  3 37  1  0
  6 38  1  0
  6 39  1  0
  7 40  1  0
  7 41  1  0
 13 42  1  0
 13 43  1  0
 14 44  1  0
 14 45  1  0
 16 46  1  0
 16 47  1  0
 17 48  1  0
 17 49  1  0
 21 50  1  0
 21 51  1  0
 22 52  1  0
 22 53  1  0
 24 54  1  0
 25 55  1  0
 26 56  1  0
 27 57  1  0
 29 58  1  0
 29 59  1  0
 31 60  1  0
 31 61  1  0
 32 62  1  0
 32 63  1  0
 34 64  1  0
M  END
>  <UniqueID>  (68) 
277

>  <SMILES>  (68) 
c1ccc(N2CCN(c3nc(N4CCOCC4)nc(N4CCc5ccccc5C4)n3)CC2)nc1

>  <Energy>  (68) 
82.61292634184493

>  <Genealogy>  (68) 
c1ccc(N2CCN(c3nc(N4CCOCC4)nc(N4CCc5ccccc5C4)n3)CC2)nc1 (3D coordinates assigned)
c1ccc(N2CCN(c3nc(N4CCOCC4)nc(N4CCc5ccccc5C4)n3)CC2)nc1 (nonaromatic ring conformer: 82.61292634184493 kcal/mol)

>  <smiles>  (68) 
c1ccc(N2CCN(c3nc(N4CCOCC4)nc(N4CCc5ccccc5C4)n3)CC2)nc1

>  <score_type>  (68) 
oracle

>  <origin>  (68) 
autodockgpu

>  <m_score__min__energy>  (68) 
-8.9399999999999995

>  <m_primary>  (68) 
energy

>  <meeko>  (68) 
{"free_energy": -8.86, "intermolecular_energy": -10.05, "internal_energy": -0.89, "cluster_size": 18, "cluster_id": 1, "rank_in_cluster": 15}

>  <energy>  (68) 
-8.92

>  <cluster_rmsd>  (68) 
0.05

>  <rmsd>  (68) 
270.55

>  <cluster>  (68) 
1

$$$$
XSFBOMDNDOCRMT-UHFFFAOYNA-N
     RDKit          3D

 64 69  0  0  0  0  0  0  0  0999 V2000
  137.0060   81.3630  224.6200 C   0  0  0  0  0  0  0  0  0  0  0  0
  138.3740   81.0950  224.5790 C   0  0  0  0  0  0  0  0  0  0  0  0
  138.8480   80.0010  223.8530 C   0  0  0  0  0  0  0  0  0  0  0  0
  137.9390   79.1650  223.1690 C   0  0  0  0  0  0  0  0  0  0  0  0
  138.3880   78.0240  222.3910 N   0  0  0  0  0  0  0  0  0  0  0  0
  137.6000   76.7760  222.3470 C   0  0  0  0  0  0  0  0  0  0  0  0
  138.2690   75.6860  221.5030 C   0  0  0  0  0  0  0  0  0  0  0  0
  139.7110   75.6170  221.7940 N   0  0  0  0  0  0  0  0  0  0  0  0
  140.4020   74.3540  221.8350 C   0  0  0  0  0  0  0  0  0  0  0  0
  141.4390   74.1150  220.9880 N   0  0  0  0  0  0  0  0  0  0  0  0
  142.1050   72.9330  221.0190 C   0  0  0  0  0  0  0  0  0  0  0  0
  143.1890   72.6870  220.1020 N   0  0  0  0  0  0  0  0  0  0  0  0
  143.8830   73.8300  219.4970 C   0  0  0  0  0  0  0  0  0  0  0  0
  144.8640   73.3490  218.4310 C   0  0  0  0  0  0  0  0  0  0  0  0
  145.6670   72.3250  218.9740 O   0  0  0  0  0  0  0  0  0  0  0  0
  144.9170   71.1300  219.1630 C   0  0  0  0  0  0  0  0  0  0  0  0
  143.4400   71.3270  219.5990 C   0  0  0  0  0  0  0  0  0  0  0  0
  141.7240   71.9780  221.9070 N   0  0  0  0  0  0  0  0  0  0  0  0
  140.6860   72.1950  222.7600 C   0  0  0  0  0  0  0  0  0  0  0  0
  140.2830   71.1640  223.6860 N   0  0  0  0  0  0  0  0  0  0  0  0
  139.0590   70.3820  223.4390 C   0  0  0  0  0  0  0  0  0  0  0  0
  139.2210   68.9470  223.9390 C   0  0  0  0  0  0  0  0  0  0  0  0
  139.6270   68.9510  225.3810 C   0  0  0  0  0  0  0  0  0  0  0  0
  139.1960   67.9300  226.2430 C   0  0  0  0  0  0  0  0  0  0  0  0
  139.6020   67.9200  227.5790 C   0  0  0  0  0  0  0  0  0  0  0  0
  140.4510   68.9170  228.0600 C   0  0  0  0  0  0  0  0  0  0  0  0
  140.9010   69.9260  227.2050 C   0  0  0  0  0  0  0  0  0  0  0  0
  140.4900   69.9520  225.8620 C   0  0  0  0  0  0  0  0  0  0  0  0
  141.0520   71.0010  224.9330 C   0  0  0  0  0  0  0  0  0  0  0  0
  140.0320   73.3860  222.7170 N   0  0  0  0  0  0  0  0  0  0  0  0
  140.4930   76.8570  221.9070 C   0  0  0  0  0  0  0  0  0  0  0  0
  139.6410   78.0920  221.6230 C   0  0  0  0  0  0  0  0  0  0  0  0
  136.6070   79.4580  223.2370 N   0  0  0  0  0  0  0  0  0  0  0  0
  136.1260   80.5240  223.9340 C   0  0  0  0  0  0  0  0  0  0  0  0
  136.6248   82.2255  225.1863 H   0  0  0  0  0  0  0  0  0  0  0  0
  139.0788   81.7450  225.1182 H   0  0  0  0  0  0  0  0  0  0  0  0
  139.9270   79.7908  223.8140 H   0  0  0  0  0  0  0  0  0  0  0  0
  137.4769   76.4007  223.3737 H   0  0  0  0  0  0  0  0  0  0  0  0
  136.6312   77.0100  221.8816 H   0  0  0  0  0  0  0  0  0  0  0  0
  137.8067   74.7150  221.7342 H   0  0  0  0  0  0  0  0  0  0  0  0
  138.1332   75.9283  220.4386 H   0  0  0  0  0  0  0  0  0  0  0  0
  143.1436   74.5001  219.0341 H   0  0  0  0  0  0  0  0  0  0  0  0
  144.4392   74.3667  220.2797 H   0  0  0  0  0  0  0  0  0  0  0  0
  144.3069   72.9609  217.5655 H   0  0  0  0  0  0  0  0  0  0  0  0
  145.4992   74.1862  218.1059 H   0  0  0  0  0  0  0  0  0  0  0  0
  144.9184   70.5757  218.2128 H   0  0  0  0  0  0  0  0  0  0  0  0
  145.4063   70.5953  219.9904 H   0  0  0  0  0  0  0  0  0  0  0  0
  142.7868   71.1426  218.7333 H   0  0  0  0  0  0  0  0  0  0  0  0
  143.2299   70.6195  220.4147 H   0  0  0  0  0  0  0  0  0  0  0  0
  138.2169   70.8545  223.9659 H   0  0  0  0  0  0  0  0  0  0  0  0
  138.8686   70.3583  222.3559 H   0  0  0  0  0  0  0  0  0  0  0  0
  138.2653   68.4133  223.8309 H   0  0  0  0  0  0  0  0  0  0  0  0
  139.9982   68.4429  223.3459 H   0  0  0  0  0  0  0  0  0  0  0  0
  138.5363   67.1353  225.8646 H   0  0  0  0  0  0  0  0  0  0  0  0
  139.2518   67.1246  228.2533 H   0  0  0  0  0  0  0  0  0  0  0  0
  140.7665   68.9086  229.1138 H   0  0  0  0  0  0  0  0  0  0  0  0
  141.5801   70.7034  227.5851 H   0  0  0  0  0  0  0  0  0  0  0  0
  141.0615   71.9647  225.4632 H   0  0  0  0  0  0  0  0  0  0  0  0
  142.0606   70.6684  224.6466 H   0  0  0  0  0  0  0  0  0  0  0  0
  140.8983   76.9308  222.9270 H   0  0  0  0  0  0  0  0  0  0  0  0
  141.3017   76.8206  221.1622 H   0  0  0  0  0  0  0  0  0  0  0  0
  140.1986   78.9944  221.9141 H   0  0  0  0  0  0  0  0  0  0  0  0
  139.4057   78.1302  220.5491 H   0  0  0  0  0  0  0  0  0  0  0  0
  135.0446   80.7241  223.9566 H   0  0  0  0  0  0  0  0  0  0  0  0
  1  2  2  0
  2  3  1  0
  3  4  2  0
  4  5  1  0
  5  6  1  0
  6  7  1  0
  7  8  1  0
  8  9  1  0
  9 10  2  0
 10 11  1  0
 11 12  1  0
 12 13  1  0
 13 14  1  0
 14 15  1  0
 15 16  1  0
 16 17  1  0
 11 18  2  0
 18 19  1  0
 19 20  1  0
 20 21  1  0
 21 22  1  0
 22 23  1  0
 23 24  2  0
 24 25  1  0
 25 26  2  0
 26 27  1  0
 27 28  2  0
 28 29  1  0
 19 30  2  0
  8 31  1  0
 31 32  1  0
  4 33  1  0
 33 34  2  0
 34  1  1  0
 32  5  1  0
 30  9  1  0
 17 12  1  0
 29 20  1  0
 28 23  1  0
  1 35  1  0
  2 36  1  0
  3 37  1  0
  6 38  1  0
  6 39  1  0
  7 40  1  0
  7 41  1  0
 13 42  1  0
 13 43  1  0
 14 44  1  0
 14 45  1  0
 16 46  1  0
 16 47  1  0
 17 48  1  0
 17 49  1  0
 21 50  1  0
 21 51  1  0
 22 52  1  0
 22 53  1  0
 24 54  1  0
 25 55  1  0
 26 56  1  0
 27 57  1  0
 29 58  1  0
 29 59  1  0
 31 60  1  0
 31 61  1  0
 32 62  1  0
 32 63  1  0
 34 64  1  0
M  END
>  <UniqueID>  (69) 
277

>  <SMILES>  (69) 
c1ccc(N2CCN(c3nc(N4CCOCC4)nc(N4CCc5ccccc5C4)n3)CC2)nc1

>  <Energy>  (69) 
82.61292634184493

>  <Genealogy>  (69) 
c1ccc(N2CCN(c3nc(N4CCOCC4)nc(N4CCc5ccccc5C4)n3)CC2)nc1 (3D coordinates assigned)
c1ccc(N2CCN(c3nc(N4CCOCC4)nc(N4CCc5ccccc5C4)n3)CC2)nc1 (nonaromatic ring conformer: 82.61292634184493 kcal/mol)

>  <smiles>  (69) 
c1ccc(N2CCN(c3nc(N4CCOCC4)nc(N4CCc5ccccc5C4)n3)CC2)nc1

>  <score_type>  (69) 
oracle

>  <origin>  (69) 
autodockgpu

>  <m_score__min__energy>  (69) 
-8.9399999999999995

>  <m_primary>  (69) 
energy

>  <meeko>  (69) 
{"free_energy": -8.94, "intermolecular_energy": -10.13, "internal_energy": -0.89, "cluster_size": 18, "cluster_id": 1, "rank_in_cluster": 1}

>  <energy>  (69) 
-8.91

>  <cluster_rmsd>  (69) 
0.08

>  <rmsd>  (69) 
270.53

>  <cluster>  (69) 
1

$$$$
XSFBOMDNDOCRMT-UHFFFAOYNA-N
     RDKit          3D

 64 69  0  0  0  0  0  0  0  0999 V2000
  137.3480   81.6440  224.2810 C   0  0  0  0  0  0  0  0  0  0  0  0
  136.5050   81.2000  223.2620 C   0  0  0  0  0  0  0  0  0  0  0  0
  136.8110   80.0290  222.5650 C   0  0  0  0  0  0  0  0  0  0  0  0
  137.9770   79.3030  222.8910 C   0  0  0  0  0  0  0  0  0  0  0  0
  138.3260   78.0730  222.2020 N   0  0  0  0  0  0  0  0  0  0  0  0
  137.5790   76.8240  222.4530 C   0  0  0  0  0  0  0  0  0  0  0  0
  138.1330   75.6370  221.6560 C   0  0  0  0  0  0  0  0  0  0  0  0
  139.6040   75.6190  221.7080 N   0  0  0  0  0  0  0  0  0  0  0  0
  140.3290   74.3780  221.7950 C   0  0  0  0  0  0  0  0  0  0  0  0
  141.3740   74.1380  220.9580 N   0  0  0  0  0  0  0  0  0  0  0  0
  142.0720   72.9760  221.0330 C   0  0  0  0  0  0  0  0  0  0  0  0
  143.1640   72.7270  220.1260 N   0  0  0  0  0  0  0  0  0  0  0  0
  143.8320   73.8660  219.4850 C   0  0  0  0  0  0  0  0  0  0  0  0
  144.8270   73.3760  218.4370 C   0  0  0  0  0  0  0  0  0  0  0  0
  145.6530   72.3880  219.0140 O   0  0  0  0  0  0  0  0  0  0  0  0
  144.9300   71.1830  219.2380 C   0  0  0  0  0  0  0  0  0  0  0  0
  143.4490   71.3580  219.6660 C   0  0  0  0  0  0  0  0  0  0  0  0
  141.7170   72.0440  221.9550 N   0  0  0  0  0  0  0  0  0  0  0  0
  140.6720   72.2620  222.7980 C   0  0  0  0  0  0  0  0  0  0  0  0
  140.2960   71.2550  223.7610 N   0  0  0  0  0  0  0  0  0  0  0  0
  139.0820   70.4470  223.5540 C   0  0  0  0  0  0  0  0  0  0  0  0
  139.2730   69.0310  224.0960 C   0  0  0  0  0  0  0  0  0  0  0  0
  139.6960   69.0870  225.5330 C   0  0  0  0  0  0  0  0  0  0  0  0
  139.2910   68.0870  226.4310 C   0  0  0  0  0  0  0  0  0  0  0  0
  139.7140   68.1250  227.7620 C   0  0  0  0  0  0  0  0  0  0  0  0
  140.5530   69.1500  228.2010 C   0  0  0  0  0  0  0  0  0  0  0  0
  140.9760   70.1380  227.3090 C   0  0  0  0  0  0  0  0  0  0  0  0
  140.5480   70.1160  225.9720 C   0  0  0  0  0  0  0  0  0  0  0  0
  141.0830   71.1440  225.0030 C   0  0  0  0  0  0  0  0  0  0  0  0
  139.9850   73.4330  222.7120 N   0  0  0  0  0  0  0  0  0  0  0  0
  140.3570   76.8690  221.5270 C   0  0  0  0  0  0  0  0  0  0  0  0
  139.4330   78.0490  221.2340 C   0  0  0  0  0  0  0  0  0  0  0  0
  138.7780   79.7730  223.8920 N   0  0  0  0  0  0  0  0  0  0  0  0
  138.4930   80.9070  224.5870 C   0  0  0  0  0  0  0  0  0  0  0  0
  137.1131   82.5639  224.8366 H   0  0  0  0  0  0  0  0  0  0  0  0
  135.6002   81.7716  223.0077 H   0  0  0  0  0  0  0  0  0  0  0  0
  136.1455   79.6735  221.7645 H   0  0  0  0  0  0  0  0  0  0  0  0
  137.6385   76.5871  223.5255 H   0  0  0  0  0  0  0  0  0  0  0  0
  136.5397   76.9862  222.1312 H   0  0  0  0  0  0  0  0  0  0  0  0
  137.7447   74.7012  222.0844 H   0  0  0  0  0  0  0  0  0  0  0  0
  137.8165   75.7356  220.6071 H   0  0  0  0  0  0  0  0  0  0  0  0
  143.0777   74.5026  218.9994 H   0  0  0  0  0  0  0  0  0  0  0  0
  144.3735   74.4403  220.2511 H   0  0  0  0  0  0  0  0  0  0  0  0
  144.2820   72.9481  217.5827 H   0  0  0  0  0  0  0  0  0  0  0  0
  145.4431   74.2176  218.0874 H   0  0  0  0  0  0  0  0  0  0  0  0
  144.9458   70.6007  218.3049 H   0  0  0  0  0  0  0  0  0  0  0  0
  145.4298   70.6854  220.0822 H   0  0  0  0  0  0  0  0  0  0  0  0
  142.8020   71.1308  218.8059 H   0  0  0  0  0  0  0  0  0  0  0  0
  143.2549   70.6718  220.5035 H   0  0  0  0  0  0  0  0  0  0  0  0
  138.2390   70.9225  224.0767 H   0  0  0  0  0  0  0  0  0  0  0  0
  138.8787   70.3867  222.4746 H   0  0  0  0  0  0  0  0  0  0  0  0
  138.3249   68.4790  224.0162 H   0  0  0  0  0  0  0  0  0  0  0  0
  140.0511   68.5207  223.5093 H   0  0  0  0  0  0  0  0  0  0  0  0
  138.6388   67.2712  226.0858 H   0  0  0  0  0  0  0  0  0  0  0  0
  139.3851   67.3456  228.4651 H   0  0  0  0  0  0  0  0  0  0  0  0
  140.8815   69.1799  229.2504 H   0  0  0  0  0  0  0  0  0  0  0  0
  141.6477   70.9372  227.6556 H   0  0  0  0  0  0  0  0  0  0  0  0
  141.0838   72.1242  225.5022 H   0  0  0  0  0  0  0  0  0  0  0  0
  142.0934   70.8184  224.7149 H   0  0  0  0  0  0  0  0  0  0  0  0
  140.9236   77.0798  222.4459 H   0  0  0  0  0  0  0  0  0  0  0  0
  141.0317   76.7409  220.6677 H   0  0  0  0  0  0  0  0  0  0  0  0
  140.0037   78.9863  221.3099 H   0  0  0  0  0  0  0  0  0  0  0  0
  139.0229   77.9433  220.2188 H   0  0  0  0  0  0  0  0  0  0  0  0
  139.1650   81.2432  225.3903 H   0  0  0  0  0  0  0  0  0  0  0  0
  1  2  2  0
  2  3  1  0
  3  4  2  0
  4  5  1  0
  5  6  1  0
  6  7  1  0
  7  8  1  0
  8  9  1  0
  9 10  2  0
 10 11  1  0
 11 12  1  0
 12 13  1  0
 13 14  1  0
 14 15  1  0
 15 16  1  0
 16 17  1  0
 11 18  2  0
 18 19  1  0
 19 20  1  0
 20 21  1  0
 21 22  1  0
 22 23  1  0
 23 24  2  0
 24 25  1  0
 25 26  2  0
 26 27  1  0
 27 28  2  0
 28 29  1  0
 19 30  2  0
  8 31  1  0
 31 32  1  0
  4 33  1  0
 33 34  2  0
 34  1  1  0
 32  5  1  0
 30  9  1  0
 17 12  1  0
 29 20  1  0
 28 23  1  0
  1 35  1  0
  2 36  1  0
  3 37  1  0
  6 38  1  0
  6 39  1  0
  7 40  1  0
  7 41  1  0
 13 42  1  0
 13 43  1  0
 14 44  1  0
 14 45  1  0
 16 46  1  0
 16 47  1  0
 17 48  1  0
 17 49  1  0
 21 50  1  0
 21 51  1  0
 22 52  1  0
 22 53  1  0
 24 54  1  0
 25 55  1  0
 26 56  1  0
 27 57  1  0
 29 58  1  0
 29 59  1  0
 31 60  1  0
 31 61  1  0
 32 62  1  0
 32 63  1  0
 34 64  1  0
M  END
>  <UniqueID>  (70) 
277

>  <SMILES>  (70) 
c1ccc(N2CCN(c3nc(N4CCOCC4)nc(N4CCc5ccccc5C4)n3)CC2)nc1

>  <Energy>  (70) 
82.61292634184493

>  <Genealogy>  (70) 
c1ccc(N2CCN(c3nc(N4CCOCC4)nc(N4CCc5ccccc5C4)n3)CC2)nc1 (3D coordinates assigned)
c1ccc(N2CCN(c3nc(N4CCOCC4)nc(N4CCc5ccccc5C4)n3)CC2)nc1 (nonaromatic ring conformer: 82.61292634184493 kcal/mol)

>  <smiles>  (70) 
c1ccc(N2CCN(c3nc(N4CCOCC4)nc(N4CCc5ccccc5C4)n3)CC2)nc1

>  <score_type>  (70) 
oracle

>  <origin>  (70) 
autodockgpu

>  <m_score__min__energy>  (70) 
-8.9399999999999995

>  <m_primary>  (70) 
energy

>  <meeko>  (70) 
{"free_energy": -8.73, "intermolecular_energy": -9.92, "internal_energy": -0.9, "cluster_size": 18, "cluster_id": 1, "rank_in_cluster": 17}

>  <energy>  (70) 
-8.91

>  <cluster_rmsd>  (70) 
0.12

>  <rmsd>  (70) 
270.54

>  <cluster>  (70) 
1

$$$$
XSFBOMDNDOCRMT-UHFFFAOYNA-N
     RDKit          3D

 64 69  0  0  0  0  0  0  0  0999 V2000
  136.8030   81.3120  224.5760 C   0  0  0  0  0  0  0  0  0  0  0  0
  138.1810   81.0960  224.5760 C   0  0  0  0  0  0  0  0  0  0  0  0
  138.7200   80.0360  223.8440 C   0  0  0  0  0  0  0  0  0  0  0  0
  137.8660   79.1820  223.1120 C   0  0  0  0  0  0  0  0  0  0  0  0
  138.3840   78.0770  222.3270 N   0  0  0  0  0  0  0  0  0  0  0  0
  137.5980   76.8390  222.1470 C   0  0  0  0  0  0  0  0  0  0  0  0
  138.3420   75.7850  221.3190 C   0  0  0  0  0  0  0  0  0  0  0  0
  139.7480   75.6890  221.7440 N   0  0  0  0  0  0  0  0  0  0  0  0
  140.4270   74.4190  221.7900 C   0  0  0  0  0  0  0  0  0  0  0  0
  141.4560   74.1640  220.9380 N   0  0  0  0  0  0  0  0  0  0  0  0
  142.1100   72.9760  220.9740 C   0  0  0  0  0  0  0  0  0  0  0  0
  143.1860   72.7120  220.0510 N   0  0  0  0  0  0  0  0  0  0  0  0
  143.8590   73.8420  219.4000 C   0  0  0  0  0  0  0  0  0  0  0  0
  144.8320   73.3380  218.3380 C   0  0  0  0  0  0  0  0  0  0  0  0
  145.6540   72.3410  218.9040 O   0  0  0  0  0  0  0  0  0  0  0  0
  144.9200   71.1450  219.1410 C   0  0  0  0  0  0  0  0  0  0  0  0
  143.4460   71.3390  219.5890 C   0  0  0  0  0  0  0  0  0  0  0  0
  141.7260   72.0310  221.8710 N   0  0  0  0  0  0  0  0  0  0  0  0
  140.6960   72.2640  222.7290 C   0  0  0  0  0  0  0  0  0  0  0  0
  140.2880   71.2440  223.6650 N   0  0  0  0  0  0  0  0  0  0  0  0
  139.0710   70.4520  223.4170 C   0  0  0  0  0  0  0  0  0  0  0  0
  139.2360   69.0260  223.9380 C   0  0  0  0  0  0  0  0  0  0  0  0
  139.6270   69.0520  225.3850 C   0  0  0  0  0  0  0  0  0  0  0  0
  139.1920   68.0410  226.2560 C   0  0  0  0  0  0  0  0  0  0  0  0
  139.5840   68.0520  227.5970 C   0  0  0  0  0  0  0  0  0  0  0  0
  140.4230   69.0610  228.0730 C   0  0  0  0  0  0  0  0  0  0  0  0
  140.8760   70.0600  227.2070 C   0  0  0  0  0  0  0  0  0  0  0  0
  140.4790   70.0650  225.8610 C   0  0  0  0  0  0  0  0  0  0  0  0
  141.0460   71.1040  224.9220 C   0  0  0  0  0  0  0  0  0  0  0  0
  140.0530   73.4620  222.6820 N   0  0  0  0  0  0  0  0  0  0  0  0
  140.5210   76.9160  221.9920 C   0  0  0  0  0  0  0  0  0  0  0  0
  139.7050   78.1700  221.6880 C   0  0  0  0  0  0  0  0  0  0  0  0
  136.5220   79.4240  223.1420 N   0  0  0  0  0  0  0  0  0  0  0  0
  135.9790   80.4560  223.8430 C   0  0  0  0  0  0  0  0  0  0  0  0
  136.3706   82.1470  225.1468 H   0  0  0  0  0  0  0  0  0  0  0  0
  138.8424   81.7599  225.1520 H   0  0  0  0  0  0  0  0  0  0  0  0
  139.8069   79.8666  223.8375 H   0  0  0  0  0  0  0  0  0  0  0  0
  137.3748   76.4160  223.1376 H   0  0  0  0  0  0  0  0  0  0  0  0
  136.6792   77.1032  221.6030 H   0  0  0  0  0  0  0  0  0  0  0  0
  137.8554   74.8081  221.4564 H   0  0  0  0  0  0  0  0  0  0  0  0
  138.3114   76.0802  220.2598 H   0  0  0  0  0  0  0  0  0  0  0  0
  143.1061   74.4881  218.9250 H   0  0  0  0  0  0  0  0  0  0  0  0
  144.4187   74.4100  220.1576 H   0  0  0  0  0  0  0  0  0  0  0  0
  144.2689   72.9156  217.4927 H   0  0  0  0  0  0  0  0  0  0  0  0
  145.4531   74.1713  217.9778 H   0  0  0  0  0  0  0  0  0  0  0  0
  144.9162   70.5602  218.2093 H   0  0  0  0  0  0  0  0  0  0  0  0
  145.4254   70.6434  219.9795 H   0  0  0  0  0  0  0  0  0  0  0  0
  142.7844   71.1194  218.7381 H   0  0  0  0  0  0  0  0  0  0  0  0
  143.2537   70.6558  220.4294 H   0  0  0  0  0  0  0  0  0  0  0  0
  138.2212   70.9269  223.9291 H   0  0  0  0  0  0  0  0  0  0  0  0
  138.8912   70.4124  222.3325 H   0  0  0  0  0  0  0  0  0  0  0  0
  138.2846   68.4851  223.8272 H   0  0  0  0  0  0  0  0  0  0  0  0
  140.0225   68.5186  223.3600 H   0  0  0  0  0  0  0  0  0  0  0  0
  138.5405   67.2376  225.8817 H   0  0  0  0  0  0  0  0  0  0  0  0
  139.2309   67.2643  228.2788 H   0  0  0  0  0  0  0  0  0  0  0  0
  140.7277   69.0698  229.1299 H   0  0  0  0  0  0  0  0  0  0  0  0
  141.5472   70.8465  227.5824 H   0  0  0  0  0  0  0  0  0  0  0  0
  141.0454   72.0755  225.4379 H   0  0  0  0  0  0  0  0  0  0  0  0
  142.0595   70.7732  224.6509 H   0  0  0  0  0  0  0  0  0  0  0  0
  140.8265   76.9372  223.0485 H   0  0  0  0  0  0  0  0  0  0  0  0
  141.3977   76.9085  221.3276 H   0  0  0  0  0  0  0  0  0  0  0  0
  140.2355   79.0526  222.0748 H   0  0  0  0  0  0  0  0  0  0  0  0
  139.5742   78.2609  220.5996 H   0  0  0  0  0  0  0  0  0  0  0  0
  134.8907   80.6159  223.8322 H   0  0  0  0  0  0  0  0  0  0  0  0
  1  2  2  0
  2  3  1  0
  3  4  2  0
  4  5  1  0
  5  6  1  0
  6  7  1  0
  7  8  1  0
  8  9  1  0
  9 10  2  0
 10 11  1  0
 11 12  1  0
 12 13  1  0
 13 14  1  0
 14 15  1  0
 15 16  1  0
 16 17  1  0
 11 18  2  0
 18 19  1  0
 19 20  1  0
 20 21  1  0
 21 22  1  0
 22 23  1  0
 23 24  2  0
 24 25  1  0
 25 26  2  0
 26 27  1  0
 27 28  2  0
 28 29  1  0
 19 30  2  0
  8 31  1  0
 31 32  1  0
  4 33  1  0
 33 34  2  0
 34  1  1  0
 32  5  1  0
 30  9  1  0
 17 12  1  0
 29 20  1  0
 28 23  1  0
  1 35  1  0
  2 36  1  0
  3 37  1  0
  6 38  1  0
  6 39  1  0
  7 40  1  0
  7 41  1  0
 13 42  1  0
 13 43  1  0
 14 44  1  0
 14 45  1  0
 16 46  1  0
 16 47  1  0
 17 48  1  0
 17 49  1  0
 21 50  1  0
 21 51  1  0
 22 52  1  0
 22 53  1  0
 24 54  1  0
 25 55  1  0
 26 56  1  0
 27 57  1  0
 29 58  1  0
 29 59  1  0
 31 60  1  0
 31 61  1  0
 32 62  1  0
 32 63  1  0
 34 64  1  0
M  END
>  <UniqueID>  (71) 
277

>  <SMILES>  (71) 
c1ccc(N2CCN(c3nc(N4CCOCC4)nc(N4CCc5ccccc5C4)n3)CC2)nc1

>  <Energy>  (71) 
82.61292634184493

>  <Genealogy>  (71) 
c1ccc(N2CCN(c3nc(N4CCOCC4)nc(N4CCc5ccccc5C4)n3)CC2)nc1 (3D coordinates assigned)
c1ccc(N2CCN(c3nc(N4CCOCC4)nc(N4CCc5ccccc5C4)n3)CC2)nc1 (nonaromatic ring conformer: 82.61292634184493 kcal/mol)

>  <smiles>  (71) 
c1ccc(N2CCN(c3nc(N4CCOCC4)nc(N4CCc5ccccc5C4)n3)CC2)nc1

>  <score_type>  (71) 
oracle

>  <origin>  (71) 
autodockgpu

>  <m_score__min__energy>  (71) 
-8.9399999999999995

>  <m_primary>  (71) 
energy

>  <meeko>  (71) 
{"free_energy": -8.91, "intermolecular_energy": -10.1, "internal_energy": -0.89, "cluster_size": 18, "cluster_id": 1, "rank_in_cluster": 10}

>  <energy>  (71) 
-8.91

>  <cluster_rmsd>  (71) 
0.07

>  <rmsd>  (71) 
270.56

>  <cluster>  (71) 
1

$$$$
XSFBOMDNDOCRMT-UHFFFAOYNA-N
     RDKit          3D

 64 69  0  0  0  0  0  0  0  0999 V2000
  136.9410   81.3490  224.5480 C   0  0  0  0  0  0  0  0  0  0  0  0
  138.3080   81.0720  224.5640 C   0  0  0  0  0  0  0  0  0  0  0  0
  138.8080   79.9890  223.8390 C   0  0  0  0  0  0  0  0  0  0  0  0
  137.9260   79.1740  223.0970 C   0  0  0  0  0  0  0  0  0  0  0  0
  138.4040   78.0460  222.3180 N   0  0  0  0  0  0  0  0  0  0  0  0
  137.6110   76.8040  222.2150 C   0  0  0  0  0  0  0  0  0  0  0  0
  138.3120   75.7260  221.3810 C   0  0  0  0  0  0  0  0  0  0  0  0
  139.7380   75.6420  221.7340 N   0  0  0  0  0  0  0  0  0  0  0  0
  140.4200   74.3740  221.7810 C   0  0  0  0  0  0  0  0  0  0  0  0
  141.4510   74.1210  220.9310 N   0  0  0  0  0  0  0  0  0  0  0  0
  142.1080   72.9340  220.9670 C   0  0  0  0  0  0  0  0  0  0  0  0
  143.1850   72.6720  220.0460 N   0  0  0  0  0  0  0  0  0  0  0  0
  143.8450   73.8030  219.3830 C   0  0  0  0  0  0  0  0  0  0  0  0
  144.8230   73.2990  218.3250 C   0  0  0  0  0  0  0  0  0  0  0  0
  145.6550   72.3160  218.9000 O   0  0  0  0  0  0  0  0  0  0  0  0
  144.9340   71.1150  219.1490 C   0  0  0  0  0  0  0  0  0  0  0  0
  143.4590   71.2980  219.5970 C   0  0  0  0  0  0  0  0  0  0  0  0
  141.7240   71.9880  221.8650 N   0  0  0  0  0  0  0  0  0  0  0  0
  140.6930   72.2200  222.7210 C   0  0  0  0  0  0  0  0  0  0  0  0
  140.2870   71.1990  223.6570 N   0  0  0  0  0  0  0  0  0  0  0  0
  139.0750   70.4000  223.4050 C   0  0  0  0  0  0  0  0  0  0  0  0
  139.2450   68.9750  223.9290 C   0  0  0  0  0  0  0  0  0  0  0  0
  139.6290   69.0060  225.3780 C   0  0  0  0  0  0  0  0  0  0  0  0
  139.1960   67.9950  226.2490 C   0  0  0  0  0  0  0  0  0  0  0  0
  139.5820   68.0090  227.5910 C   0  0  0  0  0  0  0  0  0  0  0  0
  140.4130   69.0240  228.0690 C   0  0  0  0  0  0  0  0  0  0  0  0
  140.8650   70.0240  227.2040 C   0  0  0  0  0  0  0  0  0  0  0  0
  140.4740   70.0240  225.8560 C   0  0  0  0  0  0  0  0  0  0  0  0
  141.0390   71.0650  224.9180 C   0  0  0  0  0  0  0  0  0  0  0  0
  140.0470   73.4160  222.6730 N   0  0  0  0  0  0  0  0  0  0  0  0
  140.5220   76.8750  221.9060 C   0  0  0  0  0  0  0  0  0  0  0  0
  139.6900   78.1200  221.6080 C   0  0  0  0  0  0  0  0  0  0  0  0
  136.5940   79.4760  223.1100 N   0  0  0  0  0  0  0  0  0  0  0  0
  136.0890   80.5310  223.8040 C   0  0  0  0  0  0  0  0  0  0  0  0
  136.5392   82.2018  225.1149 H   0  0  0  0  0  0  0  0  0  0  0  0
  138.9914   81.7065  225.1474 H   0  0  0  0  0  0  0  0  0  0  0  0
  139.8862   79.7713  223.8459 H   0  0  0  0  0  0  0  0  0  0  0  0
  137.4395   76.4102  223.2277 H   0  0  0  0  0  0  0  0  0  0  0  0
  136.6651   77.0528  221.7116 H   0  0  0  0  0  0  0  0  0  0  0  0
  137.8345   74.7537  221.5725 H   0  0  0  0  0  0  0  0  0  0  0  0
  138.2257   75.9900  220.3166 H   0  0  0  0  0  0  0  0  0  0  0  0
  143.0846   74.4359  218.9022 H   0  0  0  0  0  0  0  0  0  0  0  0
  144.3990   74.3848  220.1344 H   0  0  0  0  0  0  0  0  0  0  0  0
  144.2640   72.8630  217.4839 H   0  0  0  0  0  0  0  0  0  0  0  0
  145.4355   74.1352  217.9566 H   0  0  0  0  0  0  0  0  0  0  0  0
  144.9351   70.5215  218.2228 H   0  0  0  0  0  0  0  0  0  0  0  0
  145.4456   70.6264  219.9913 H   0  0  0  0  0  0  0  0  0  0  0  0
  142.7987   71.0633  218.7491 H   0  0  0  0  0  0  0  0  0  0  0  0
  143.2751   70.6210  220.4443 H   0  0  0  0  0  0  0  0  0  0  0  0
  138.2205   70.8713  223.9127 H   0  0  0  0  0  0  0  0  0  0  0  0
  138.9003   70.3578  222.3198 H   0  0  0  0  0  0  0  0  0  0  0  0
  138.2970   68.4289  223.8146 H   0  0  0  0  0  0  0  0  0  0  0  0
  140.0366   68.4705  223.3555 H   0  0  0  0  0  0  0  0  0  0  0  0
  138.5498   67.1880  225.8733 H   0  0  0  0  0  0  0  0  0  0  0  0
  139.2310   67.2197  228.2720 H   0  0  0  0  0  0  0  0  0  0  0  0
  140.7121   69.0365  229.1275 H   0  0  0  0  0  0  0  0  0  0  0  0
  141.5302   70.8147  227.5812 H   0  0  0  0  0  0  0  0  0  0  0  0
  141.0298   72.0372  225.4325 H   0  0  0  0  0  0  0  0  0  0  0  0
  142.0556   70.7395  224.6523 H   0  0  0  0  0  0  0  0  0  0  0  0
  140.8816   76.9268  222.9443 H   0  0  0  0  0  0  0  0  0  0  0  0
  141.3635   76.8476  221.1981 H   0  0  0  0  0  0  0  0  0  0  0  0
  140.2390   79.0134  221.9404 H   0  0  0  0  0  0  0  0  0  0  0  0
  139.5026   78.1792  220.5257 H   0  0  0  0  0  0  0  0  0  0  0  0
  135.0093   80.7397  223.7790 H   0  0  0  0  0  0  0  0  0  0  0  0
  1  2  2  0
  2  3  1  0
  3  4  2  0
  4  5  1  0
  5  6  1  0
  6  7  1  0
  7  8  1  0
  8  9  1  0
  9 10  2  0
 10 11  1  0
 11 12  1  0
 12 13  1  0
 13 14  1  0
 14 15  1  0
 15 16  1  0
 16 17  1  0
 11 18  2  0
 18 19  1  0
 19 20  1  0
 20 21  1  0
 21 22  1  0
 22 23  1  0
 23 24  2  0
 24 25  1  0
 25 26  2  0
 26 27  1  0
 27 28  2  0
 28 29  1  0
 19 30  2  0
  8 31  1  0
 31 32  1  0
  4 33  1  0
 33 34  2  0
 34  1  1  0
 32  5  1  0
 30  9  1  0
 17 12  1  0
 29 20  1  0
 28 23  1  0
  1 35  1  0
  2 36  1  0
  3 37  1  0
  6 38  1  0
  6 39  1  0
  7 40  1  0
  7 41  1  0
 13 42  1  0
 13 43  1  0
 14 44  1  0
 14 45  1  0
 16 46  1  0
 16 47  1  0
 17 48  1  0
 17 49  1  0
 21 50  1  0
 21 51  1  0
 22 52  1  0
 22 53  1  0
 24 54  1  0
 25 55  1  0
 26 56  1  0
 27 57  1  0
 29 58  1  0
 29 59  1  0
 31 60  1  0
 31 61  1  0
 32 62  1  0
 32 63  1  0
 34 64  1  0
M  END
>  <UniqueID>  (72) 
277

>  <SMILES>  (72) 
c1ccc(N2CCN(c3nc(N4CCOCC4)nc(N4CCc5ccccc5C4)n3)CC2)nc1

>  <Energy>  (72) 
82.61292634184493

>  <Genealogy>  (72) 
c1ccc(N2CCN(c3nc(N4CCOCC4)nc(N4CCc5ccccc5C4)n3)CC2)nc1 (3D coordinates assigned)
c1ccc(N2CCN(c3nc(N4CCOCC4)nc(N4CCc5ccccc5C4)n3)CC2)nc1 (nonaromatic ring conformer: 82.61292634184493 kcal/mol)

>  <smiles>  (72) 
c1ccc(N2CCN(c3nc(N4CCOCC4)nc(N4CCc5ccccc5C4)n3)CC2)nc1

>  <score_type>  (72) 
oracle

>  <origin>  (72) 
autodockgpu

>  <m_score__min__energy>  (72) 
-8.9399999999999995

>  <m_primary>  (72) 
energy

>  <meeko>  (72) 
{"free_energy": -8.91, "intermolecular_energy": -10.11, "internal_energy": -0.89, "cluster_size": 18, "cluster_id": 1, "rank_in_cluster": 9}

>  <energy>  (72) 
-8.9

>  <cluster_rmsd>  (72) 
0.13

>  <rmsd>  (72) 
270.53

>  <cluster>  (72) 
1

$$$$
XSFBOMDNDOCRMT-UHFFFAOYNA-N
     RDKit          3D

 64 69  0  0  0  0  0  0  0  0999 V2000
  136.9960   81.3350  224.6340 C   0  0  0  0  0  0  0  0  0  0  0  0
  138.3670   81.0830  224.5880 C   0  0  0  0  0  0  0  0  0  0  0  0
  138.8520   79.9970  223.8570 C   0  0  0  0  0  0  0  0  0  0  0  0
  137.9510   79.1530  223.1720 C   0  0  0  0  0  0  0  0  0  0  0  0
  138.4120   78.0220  222.3890 N   0  0  0  0  0  0  0  0  0  0  0  0
  137.6210   76.7760  222.3160 C   0  0  0  0  0  0  0  0  0  0  0  0
  138.3030   75.6940  221.4710 C   0  0  0  0  0  0  0  0  0  0  0  0
  139.7390   75.6180  221.7870 N   0  0  0  0  0  0  0  0  0  0  0  0
  140.4260   74.3520  221.8250 C   0  0  0  0  0  0  0  0  0  0  0  0
  141.4610   74.1120  220.9770 N   0  0  0  0  0  0  0  0  0  0  0  0
  142.1230   72.9270  221.0050 C   0  0  0  0  0  0  0  0  0  0  0  0
  143.2050   72.6790  220.0870 N   0  0  0  0  0  0  0  0  0  0  0  0
  143.8740   73.8200  219.4490 C   0  0  0  0  0  0  0  0  0  0  0  0
  144.8570   73.3320  218.3880 C   0  0  0  0  0  0  0  0  0  0  0  0
  145.6820   72.3360  218.9500 O   0  0  0  0  0  0  0  0  0  0  0  0
  144.9550   71.1330  219.1720 C   0  0  0  0  0  0  0  0  0  0  0  0
  143.4780   71.3120  219.6140 C   0  0  0  0  0  0  0  0  0  0  0  0
  141.7400   71.9720  221.8920 N   0  0  0  0  0  0  0  0  0  0  0  0
  140.7040   72.1910  222.7460 C   0  0  0  0  0  0  0  0  0  0  0  0
  140.2980   71.1600  223.6710 N   0  0  0  0  0  0  0  0  0  0  0  0
  139.0730   70.3800  223.4230 C   0  0  0  0  0  0  0  0  0  0  0  0
  139.2330   68.9450  223.9210 C   0  0  0  0  0  0  0  0  0  0  0  0
  139.6380   68.9460  225.3640 C   0  0  0  0  0  0  0  0  0  0  0  0
  139.2050   67.9260  226.2250 C   0  0  0  0  0  0  0  0  0  0  0  0
  139.6100   67.9140  227.5610 C   0  0  0  0  0  0  0  0  0  0  0  0
  140.4610   68.9090  228.0440 C   0  0  0  0  0  0  0  0  0  0  0  0
  140.9130   69.9180  227.1890 C   0  0  0  0  0  0  0  0  0  0  0  0
  140.5020   69.9460  225.8470 C   0  0  0  0  0  0  0  0  0  0  0  0
  141.0670   70.9950  224.9180 C   0  0  0  0  0  0  0  0  0  0  0  0
  140.0540   73.3850  222.7060 N   0  0  0  0  0  0  0  0  0  0  0  0
  140.5220   76.8540  221.9290 C   0  0  0  0  0  0  0  0  0  0  0  0
  139.6780   78.0950  221.6450 C   0  0  0  0  0  0  0  0  0  0  0  0
  136.6160   79.4320  223.2450 N   0  0  0  0  0  0  0  0  0  0  0  0
  136.1250   80.4890  223.9470 C   0  0  0  0  0  0  0  0  0  0  0  0
  136.6062   82.1905  225.2051 H   0  0  0  0  0  0  0  0  0  0  0  0
  139.0657   81.7395  225.1273 H   0  0  0  0  0  0  0  0  0  0  0  0
  139.9333   79.7994  223.8148 H   0  0  0  0  0  0  0  0  0  0  0  0
  137.4783   76.3889  223.3357 H   0  0  0  0  0  0  0  0  0  0  0  0
  136.6612   77.0181  221.8362 H   0  0  0  0  0  0  0  0  0  0  0  0
  137.8344   74.7215  221.6823 H   0  0  0  0  0  0  0  0  0  0  0  0
  138.1870   75.9493  220.4073 H   0  0  0  0  0  0  0  0  0  0  0  0
  143.1191   74.4647  218.9752 H   0  0  0  0  0  0  0  0  0  0  0  0
  144.4254   74.3854  220.2147 H   0  0  0  0  0  0  0  0  0  0  0  0
  144.3019   72.9134  217.5356 H   0  0  0  0  0  0  0  0  0  0  0  0
  145.4745   74.1727  218.0388 H   0  0  0  0  0  0  0  0  0  0  0  0
  144.9601   70.5570  218.2349 H   0  0  0  0  0  0  0  0  0  0  0  0
  145.4595   70.6274  220.0085 H   0  0  0  0  0  0  0  0  0  0  0  0
  142.8224   71.0951  218.7577 H   0  0  0  0  0  0  0  0  0  0  0  0
  143.2868   70.6199  220.4473 H   0  0  0  0  0  0  0  0  0  0  0  0
  138.2315   70.8529  223.9504 H   0  0  0  0  0  0  0  0  0  0  0  0
  138.8826   70.3579  222.3398 H   0  0  0  0  0  0  0  0  0  0  0  0
  138.2768   68.4125  223.8113 H   0  0  0  0  0  0  0  0  0  0  0  0
  140.0104   68.4412  223.3279 H   0  0  0  0  0  0  0  0  0  0  0  0
  138.5439   67.1328  225.8458 H   0  0  0  0  0  0  0  0  0  0  0  0
  139.2576   67.1187  228.2343 H   0  0  0  0  0  0  0  0  0  0  0  0
  140.7761   68.8992  229.0979 H   0  0  0  0  0  0  0  0  0  0  0  0
  141.5939   70.6937  227.5694 H   0  0  0  0  0  0  0  0  0  0  0  0
  141.0787   71.9585  225.4486 H   0  0  0  0  0  0  0  0  0  0  0  0
  142.0751   70.6607  224.6316 H   0  0  0  0  0  0  0  0  0  0  0  0
  140.9093   76.9142  222.9568 H   0  0  0  0  0  0  0  0  0  0  0  0
  141.3438   76.8244  221.1983 H   0  0  0  0  0  0  0  0  0  0  0  0
  140.2328   78.9922  221.9568 H   0  0  0  0  0  0  0  0  0  0  0  0
  139.4617   78.1463  220.5677 H   0  0  0  0  0  0  0  0  0  0  0  0
  135.0414   80.6765  223.9729 H   0  0  0  0  0  0  0  0  0  0  0  0
  1  2  2  0
  2  3  1  0
  3  4  2  0
  4  5  1  0
  5  6  1  0
  6  7  1  0
  7  8  1  0
  8  9  1  0
  9 10  2  0
 10 11  1  0
 11 12  1  0
 12 13  1  0
 13 14  1  0
 14 15  1  0
 15 16  1  0
 16 17  1  0
 11 18  2  0
 18 19  1  0
 19 20  1  0
 20 21  1  0
 21 22  1  0
 22 23  1  0
 23 24  2  0
 24 25  1  0
 25 26  2  0
 26 27  1  0
 27 28  2  0
 28 29  1  0
 19 30  2  0
  8 31  1  0
 31 32  1  0
  4 33  1  0
 33 34  2  0
 34  1  1  0
 32  5  1  0
 30  9  1  0
 17 12  1  0
 29 20  1  0
 28 23  1  0
  1 35  1  0
  2 36  1  0
  3 37  1  0
  6 38  1  0
  6 39  1  0
  7 40  1  0
  7 41  1  0
 13 42  1  0
 13 43  1  0
 14 44  1  0
 14 45  1  0
 16 46  1  0
 16 47  1  0
 17 48  1  0
 17 49  1  0
 21 50  1  0
 21 51  1  0
 22 52  1  0
 22 53  1  0
 24 54  1  0
 25 55  1  0
 26 56  1  0
 27 57  1  0
 29 58  1  0
 29 59  1  0
 31 60  1  0
 31 61  1  0
 32 62  1  0
 32 63  1  0
 34 64  1  0
M  END
>  <UniqueID>  (73) 
277

>  <SMILES>  (73) 
c1ccc(N2CCN(c3nc(N4CCOCC4)nc(N4CCc5ccccc5C4)n3)CC2)nc1

>  <Energy>  (73) 
82.61292634184493

>  <Genealogy>  (73) 
c1ccc(N2CCN(c3nc(N4CCOCC4)nc(N4CCc5ccccc5C4)n3)CC2)nc1 (3D coordinates assigned)
c1ccc(N2CCN(c3nc(N4CCOCC4)nc(N4CCc5ccccc5C4)n3)CC2)nc1 (nonaromatic ring conformer: 82.61292634184493 kcal/mol)

>  <smiles>  (73) 
c1ccc(N2CCN(c3nc(N4CCOCC4)nc(N4CCc5ccccc5C4)n3)CC2)nc1

>  <score_type>  (73) 
oracle

>  <origin>  (73) 
autodockgpu

>  <m_score__min__energy>  (73) 
-8.9399999999999995

>  <m_primary>  (73) 
energy

>  <meeko>  (73) 
{"free_energy": -8.93, "intermolecular_energy": -10.13, "internal_energy": -0.89, "cluster_size": 18, "cluster_id": 1, "rank_in_cluster": 2}

>  <energy>  (73) 
-8.89

>  <cluster_rmsd>  (73) 
0.16

>  <rmsd>  (73) 
270.51

>  <cluster>  (73) 
1

$$$$
XSFBOMDNDOCRMT-UHFFFAOYNA-N
     RDKit          3D

 64 69  0  0  0  0  0  0  0  0999 V2000
  136.7020   81.1730  224.6010 C   0  0  0  0  0  0  0  0  0  0  0  0
  138.0880   81.0110  224.5880 C   0  0  0  0  0  0  0  0  0  0  0  0
  138.6620   79.9760  223.8480 C   0  0  0  0  0  0  0  0  0  0  0  0
  137.8360   79.0910  223.1210 C   0  0  0  0  0  0  0  0  0  0  0  0
  138.3910   78.0090  222.3280 N   0  0  0  0  0  0  0  0  0  0  0  0
  137.6090   76.7840  222.0610 C   0  0  0  0  0  0  0  0  0  0  0  0
  138.3910   75.7530  221.2410 C   0  0  0  0  0  0  0  0  0  0  0  0
  139.7710   75.6320  221.7400 N   0  0  0  0  0  0  0  0  0  0  0  0
  140.4380   74.3560  221.7790 C   0  0  0  0  0  0  0  0  0  0  0  0
  141.4560   74.0910  220.9180 N   0  0  0  0  0  0  0  0  0  0  0  0
  142.1000   72.8960  220.9470 C   0  0  0  0  0  0  0  0  0  0  0  0
  143.1640   72.6220  220.0150 N   0  0  0  0  0  0  0  0  0  0  0  0
  143.8110   73.7440  219.3230 C   0  0  0  0  0  0  0  0  0  0  0  0
  144.7740   73.2250  218.2590 C   0  0  0  0  0  0  0  0  0  0  0  0
  145.6180   72.2540  218.8370 O   0  0  0  0  0  0  0  0  0  0  0  0
  144.9040   71.0550  219.1170 C   0  0  0  0  0  0  0  0  0  0  0  0
  143.4360   71.2410  219.5840 C   0  0  0  0  0  0  0  0  0  0  0  0
  141.7150   71.9550  221.8490 N   0  0  0  0  0  0  0  0  0  0  0  0
  140.6960   72.1980  222.7160 C   0  0  0  0  0  0  0  0  0  0  0  0
  140.2880   71.1820  223.6560 N   0  0  0  0  0  0  0  0  0  0  0  0
  139.0690   70.3920  223.4130 C   0  0  0  0  0  0  0  0  0  0  0  0
  139.2320   68.9670  223.9390 C   0  0  0  0  0  0  0  0  0  0  0  0
  139.6250   68.9970  225.3850 C   0  0  0  0  0  0  0  0  0  0  0  0
  139.1900   67.9900  226.2600 C   0  0  0  0  0  0  0  0  0  0  0  0
  139.5840   68.0050  227.6000 C   0  0  0  0  0  0  0  0  0  0  0  0
  140.4250   69.0140  228.0710 C   0  0  0  0  0  0  0  0  0  0  0  0
  140.8790   70.0090  227.2020 C   0  0  0  0  0  0  0  0  0  0  0  0
  140.4800   70.0100  225.8560 C   0  0  0  0  0  0  0  0  0  0  0  0
  141.0470   71.0450  224.9130 C   0  0  0  0  0  0  0  0  0  0  0  0
  140.0640   73.4020  222.6750 N   0  0  0  0  0  0  0  0  0  0  0  0
  140.5360   76.8420  222.0730 C   0  0  0  0  0  0  0  0  0  0  0  0
  139.7460   78.1130  221.7680 C   0  0  0  0  0  0  0  0  0  0  0  0
  136.4840   79.2800  223.1630 N   0  0  0  0  0  0  0  0  0  0  0  0
  135.9070   80.2870  223.8720 C   0  0  0  0  0  0  0  0  0  0  0  0
  136.2419   81.9884  225.1783 H   0  0  0  0  0  0  0  0  0  0  0  0
  138.7278   81.6986  225.1606 H   0  0  0  0  0  0  0  0  0  0  0  0
  139.7546   79.8501  223.8312 H   0  0  0  0  0  0  0  0  0  0  0  0
  137.3273   76.3293  223.0222 H   0  0  0  0  0  0  0  0  0  0  0  0
  136.7246   77.0744  221.4749 H   0  0  0  0  0  0  0  0  0  0  0  0
  137.8918   74.7759  221.3183 H   0  0  0  0  0  0  0  0  0  0  0  0
  138.4211   76.0834  220.1922 H   0  0  0  0  0  0  0  0  0  0  0  0
  143.0416   74.3669  218.8434 H   0  0  0  0  0  0  0  0  0  0  0  0
  144.3747   74.3397  220.0561 H   0  0  0  0  0  0  0  0  0  0  0  0
  144.2034   72.7735  217.4340 H   0  0  0  0  0  0  0  0  0  0  0  0
  145.3783   74.0567  217.8676 H   0  0  0  0  0  0  0  0  0  0  0  0
  144.8929   70.4462  218.2009 H   0  0  0  0  0  0  0  0  0  0  0  0
  145.4297   70.5822  219.9597 H   0  0  0  0  0  0  0  0  0  0  0  0
  142.7638   70.9906  218.7500 H   0  0  0  0  0  0  0  0  0  0  0  0
  143.2672   70.5774  220.4449 H   0  0  0  0  0  0  0  0  0  0  0  0
  138.2211   70.8706  223.9249 H   0  0  0  0  0  0  0  0  0  0  0  0
  138.8871   70.3490  222.3290 H   0  0  0  0  0  0  0  0  0  0  0  0
  138.2794   68.4276  223.8314 H   0  0  0  0  0  0  0  0  0  0  0  0
  140.0167   68.4562  223.3617 H   0  0  0  0  0  0  0  0  0  0  0  0
  138.5367   67.1863  225.8895 H   0  0  0  0  0  0  0  0  0  0  0  0
  139.2308   67.2202  228.2851 H   0  0  0  0  0  0  0  0  0  0  0  0
  140.7307   69.0259  229.1276 H   0  0  0  0  0  0  0  0  0  0  0  0
  141.5522   70.7954  227.5740 H   0  0  0  0  0  0  0  0  0  0  0  0
  141.0480   72.0182  225.4257 H   0  0  0  0  0  0  0  0  0  0  0  0
  142.0597   70.7119  224.6419 H   0  0  0  0  0  0  0  0  0  0  0  0
  140.7821   76.8241  223.1450 H   0  0  0  0  0  0  0  0  0  0  0  0
  141.4483   76.8502  221.4585 H   0  0  0  0  0  0  0  0  0  0  0  0
  140.2595   78.9771  222.2148 H   0  0  0  0  0  0  0  0  0  0  0  0
  139.6773   78.2427  220.6778 H   0  0  0  0  0  0  0  0  0  0  0  0
  134.8132   80.4033  223.8710 H   0  0  0  0  0  0  0  0  0  0  0  0
  1  2  2  0
  2  3  1  0
  3  4  2  0
  4  5  1  0
  5  6  1  0
  6  7  1  0
  7  8  1  0
  8  9  1  0
  9 10  2  0
 10 11  1  0
 11 12  1  0
 12 13  1  0
 13 14  1  0
 14 15  1  0
 15 16  1  0
 16 17  1  0
 11 18  2  0
 18 19  1  0
 19 20  1  0
 20 21  1  0
 21 22  1  0
 22 23  1  0
 23 24  2  0
 24 25  1  0
 25 26  2  0
 26 27  1  0
 27 28  2  0
 28 29  1  0
 19 30  2  0
  8 31  1  0
 31 32  1  0
  4 33  1  0
 33 34  2  0
 34  1  1  0
 32  5  1  0
 30  9  1  0
 17 12  1  0
 29 20  1  0
 28 23  1  0
  1 35  1  0
  2 36  1  0
  3 37  1  0
  6 38  1  0
  6 39  1  0
  7 40  1  0
  7 41  1  0
 13 42  1  0
 13 43  1  0
 14 44  1  0
 14 45  1  0
 16 46  1  0
 16 47  1  0
 17 48  1  0
 17 49  1  0
 21 50  1  0
 21 51  1  0
 22 52  1  0
 22 53  1  0
 24 54  1  0
 25 55  1  0
 26 56  1  0
 27 57  1  0
 29 58  1  0
 29 59  1  0
 31 60  1  0
 31 61  1  0
 32 62  1  0
 32 63  1  0
 34 64  1  0
M  END
>  <UniqueID>  (74) 
277

>  <SMILES>  (74) 
c1ccc(N2CCN(c3nc(N4CCOCC4)nc(N4CCc5ccccc5C4)n3)CC2)nc1

>  <Energy>  (74) 
82.61292634184493

>  <Genealogy>  (74) 
c1ccc(N2CCN(c3nc(N4CCOCC4)nc(N4CCc5ccccc5C4)n3)CC2)nc1 (3D coordinates assigned)
c1ccc(N2CCN(c3nc(N4CCOCC4)nc(N4CCc5ccccc5C4)n3)CC2)nc1 (nonaromatic ring conformer: 82.61292634184493 kcal/mol)

>  <smiles>  (74) 
c1ccc(N2CCN(c3nc(N4CCOCC4)nc(N4CCc5ccccc5C4)n3)CC2)nc1

>  <score_type>  (74) 
oracle

>  <origin>  (74) 
autodockgpu

>  <m_score__min__energy>  (74) 
-8.9399999999999995

>  <m_primary>  (74) 
energy

>  <meeko>  (74) 
{"free_energy": -8.89, "intermolecular_energy": -10.08, "internal_energy": -0.89, "cluster_size": 18, "cluster_id": 1, "rank_in_cluster": 13}

>  <energy>  (74) 
-8.87

>  <cluster_rmsd>  (74) 
0.16

>  <rmsd>  (74) 
270.55

>  <cluster>  (74) 
1

$$$$
XSFBOMDNDOCRMT-UHFFFAOYNA-N
     RDKit          3D

 64 69  0  0  0  0  0  0  0  0999 V2000
  136.8520   81.2280  224.6100 C   0  0  0  0  0  0  0  0  0  0  0  0
  138.2320   81.0280  224.5910 C   0  0  0  0  0  0  0  0  0  0  0  0
  138.7730   79.9740  223.8530 C   0  0  0  0  0  0  0  0  0  0  0  0
  137.9190   79.1090  223.1350 C   0  0  0  0  0  0  0  0  0  0  0  0
  138.4400   78.0090  222.3430 N   0  0  0  0  0  0  0  0  0  0  0  0
  137.6440   76.7820  222.1320 C   0  0  0  0  0  0  0  0  0  0  0  0
  138.3910   75.7310  221.3040 C   0  0  0  0  0  0  0  0  0  0  0  0
  139.7880   75.6140  221.7520 N   0  0  0  0  0  0  0  0  0  0  0  0
  140.4520   74.3370  221.7920 C   0  0  0  0  0  0  0  0  0  0  0  0
  141.4710   74.0690  220.9320 N   0  0  0  0  0  0  0  0  0  0  0  0
  142.1110   72.8730  220.9620 C   0  0  0  0  0  0  0  0  0  0  0  0
  143.1750   72.5960  220.0300 N   0  0  0  0  0  0  0  0  0  0  0  0
  143.7790   73.7090  219.2880 C   0  0  0  0  0  0  0  0  0  0  0  0
  144.7490   73.1790  218.2350 C   0  0  0  0  0  0  0  0  0  0  0  0
  145.6290   72.2590  218.8430 O   0  0  0  0  0  0  0  0  0  0  0  0
  144.9570   71.0500  219.1780 C   0  0  0  0  0  0  0  0  0  0  0  0
  143.4870   71.2080  219.6530 C   0  0  0  0  0  0  0  0  0  0  0  0
  141.7240   71.9330  221.8640 N   0  0  0  0  0  0  0  0  0  0  0  0
  140.7050   72.1790  222.7300 C   0  0  0  0  0  0  0  0  0  0  0  0
  140.2930   71.1650  223.6710 N   0  0  0  0  0  0  0  0  0  0  0  0
  139.0710   70.3790  223.4290 C   0  0  0  0  0  0  0  0  0  0  0  0
  139.2290   68.9530  223.9540 C   0  0  0  0  0  0  0  0  0  0  0  0
  139.6240   68.9820  225.4000 C   0  0  0  0  0  0  0  0  0  0  0  0
  139.1850   67.9770  226.2760 C   0  0  0  0  0  0  0  0  0  0  0  0
  139.5810   67.9890  227.6150 C   0  0  0  0  0  0  0  0  0  0  0  0
  140.4280   68.9940  228.0850 C   0  0  0  0  0  0  0  0  0  0  0  0
  140.8840   69.9880  227.2160 C   0  0  0  0  0  0  0  0  0  0  0  0
  140.4830   69.9910  225.8700 C   0  0  0  0  0  0  0  0  0  0  0  0
  141.0530   71.0240  224.9270 C   0  0  0  0  0  0  0  0  0  0  0  0
  140.0750   73.3840  222.6890 N   0  0  0  0  0  0  0  0  0  0  0  0
  140.5700   76.8290  222.0310 C   0  0  0  0  0  0  0  0  0  0  0  0
  139.7730   78.0960  221.7290 C   0  0  0  0  0  0  0  0  0  0  0  0
  136.5740   79.3360  223.1820 N   0  0  0  0  0  0  0  0  0  0  0  0
  136.0280   80.3620  223.8900 C   0  0  0  0  0  0  0  0  0  0  0  0
  136.4181   82.0587  225.1858 H   0  0  0  0  0  0  0  0  0  0  0  0
  138.8935   81.7002  225.1571 H   0  0  0  0  0  0  0  0  0  0  0  0
  139.8616   79.8178  223.8309 H   0  0  0  0  0  0  0  0  0  0  0  0
  137.3980   76.3485  223.1126 H   0  0  0  0  0  0  0  0  0  0  0  0
  136.7384   77.0637  221.5747 H   0  0  0  0  0  0  0  0  0  0  0  0
  137.8916   74.7578  221.4202 H   0  0  0  0  0  0  0  0  0  0  0  0
  138.3824   76.0402  220.2484 H   0  0  0  0  0  0  0  0  0  0  0  0
  142.9856   74.2875  218.7921 H   0  0  0  0  0  0  0  0  0  0  0  0
  144.3299   74.3509  219.9912 H   0  0  0  0  0  0  0  0  0  0  0  0
  144.1860   72.6770  217.4344 H   0  0  0  0  0  0  0  0  0  0  0  0
  145.3225   74.0131  217.8046 H   0  0  0  0  0  0  0  0  0  0  0  0
  144.9571   70.4048  218.2871 H   0  0  0  0  0  0  0  0  0  0  0  0
  145.5055   70.6282  220.0331 H   0  0  0  0  0  0  0  0  0  0  0  0
  142.8155   70.9022  218.8372 H   0  0  0  0  0  0  0  0  0  0  0  0
  143.3476   70.5752  220.5419 H   0  0  0  0  0  0  0  0  0  0  0  0
  138.2253   70.8603  223.9420 H   0  0  0  0  0  0  0  0  0  0  0  0
  138.8883   70.3369  222.3451 H   0  0  0  0  0  0  0  0  0  0  0  0
  138.2742   68.4173  223.8475 H   0  0  0  0  0  0  0  0  0  0  0  0
  140.0106   68.4388  223.3755 H   0  0  0  0  0  0  0  0  0  0  0  0
  138.5266   67.1770  225.9064 H   0  0  0  0  0  0  0  0  0  0  0  0
  139.2250   67.2055  228.3002 H   0  0  0  0  0  0  0  0  0  0  0  0
  140.7367   69.0032  229.1408 H   0  0  0  0  0  0  0  0  0  0  0  0
  141.5603   70.7720  227.5876 H   0  0  0  0  0  0  0  0  0  0  0  0
  141.0587   71.9969  225.4403 H   0  0  0  0  0  0  0  0  0  0  0  0
  142.0639   70.6867  224.6544 H   0  0  0  0  0  0  0  0  0  0  0  0
  140.8561   76.8326  223.0931 H   0  0  0  0  0  0  0  0  0  0  0  0
  141.4589   76.8207  221.3831 H   0  0  0  0  0  0  0  0  0  0  0  0
  140.3059   78.9676  222.1369 H   0  0  0  0  0  0  0  0  0  0  0  0
  139.6629   78.2026  220.6397 H   0  0  0  0  0  0  0  0  0  0  0  0
  134.9378   80.5086  223.8947 H   0  0  0  0  0  0  0  0  0  0  0  0
  1  2  2  0
  2  3  1  0
  3  4  2  0
  4  5  1  0
  5  6  1  0
  6  7  1  0
  7  8  1  0
  8  9  1  0
  9 10  2  0
 10 11  1  0
 11 12  1  0
 12 13  1  0
 13 14  1  0
 14 15  1  0
 15 16  1  0
 16 17  1  0
 11 18  2  0
 18 19  1  0
 19 20  1  0
 20 21  1  0
 21 22  1  0
 22 23  1  0
 23 24  2  0
 24 25  1  0
 25 26  2  0
 26 27  1  0
 27 28  2  0
 28 29  1  0
 19 30  2  0
  8 31  1  0
 31 32  1  0
  4 33  1  0
 33 34  2  0
 34  1  1  0
 32  5  1  0
 30  9  1  0
 17 12  1  0
 29 20  1  0
 28 23  1  0
  1 35  1  0
  2 36  1  0
  3 37  1  0
  6 38  1  0
  6 39  1  0
  7 40  1  0
  7 41  1  0
 13 42  1  0
 13 43  1  0
 14 44  1  0
 14 45  1  0
 16 46  1  0
 16 47  1  0
 17 48  1  0
 17 49  1  0
 21 50  1  0
 21 51  1  0
 22 52  1  0
 22 53  1  0
 24 54  1  0
 25 55  1  0
 26 56  1  0
 27 57  1  0
 29 58  1  0
 29 59  1  0
 31 60  1  0
 31 61  1  0
 32 62  1  0
 32 63  1  0
 34 64  1  0
M  END
>  <UniqueID>  (75) 
277

>  <SMILES>  (75) 
c1ccc(N2CCN(c3nc(N4CCOCC4)nc(N4CCc5ccccc5C4)n3)CC2)nc1

>  <Energy>  (75) 
82.61292634184493

>  <Genealogy>  (75) 
c1ccc(N2CCN(c3nc(N4CCOCC4)nc(N4CCc5ccccc5C4)n3)CC2)nc1 (3D coordinates assigned)
c1ccc(N2CCN(c3nc(N4CCOCC4)nc(N4CCc5ccccc5C4)n3)CC2)nc1 (nonaromatic ring conformer: 82.61292634184493 kcal/mol)

>  <smiles>  (75) 
c1ccc(N2CCN(c3nc(N4CCOCC4)nc(N4CCc5ccccc5C4)n3)CC2)nc1

>  <score_type>  (75) 
oracle

>  <origin>  (75) 
autodockgpu

>  <m_score__min__energy>  (75) 
-8.9399999999999995

>  <m_primary>  (75) 
energy

>  <meeko>  (75) 
{"free_energy": -8.9, "intermolecular_energy": -10.09, "internal_energy": -0.89, "cluster_size": 18, "cluster_id": 1, "rank_in_cluster": 12}

>  <energy>  (75) 
-8.86

>  <cluster_rmsd>  (75) 
0.17

>  <rmsd>  (75) 
270.5

>  <cluster>  (75) 
1

$$$$
XSFBOMDNDOCRMT-UHFFFAOYNA-N
     RDKit          3D

 64 69  0  0  0  0  0  0  0  0999 V2000
  137.1410   81.5360  224.4610 C   0  0  0  0  0  0  0  0  0  0  0  0
  138.4600   81.0920  224.5650 C   0  0  0  0  0  0  0  0  0  0  0  0
  138.8650   79.9460  223.8780 C   0  0  0  0  0  0  0  0  0  0  0  0
  137.9360   79.2370  223.0870 C   0  0  0  0  0  0  0  0  0  0  0  0
  138.3180   78.0480  222.3450 N   0  0  0  0  0  0  0  0  0  0  0  0
  137.5520   76.7920  222.4770 C   0  0  0  0  0  0  0  0  0  0  0  0
  138.1430   75.6510  221.6420 C   0  0  0  0  0  0  0  0  0  0  0  0
  139.6090   75.6180  221.7740 N   0  0  0  0  0  0  0  0  0  0  0  0
  140.3230   74.3680  221.8260 C   0  0  0  0  0  0  0  0  0  0  0  0
  141.3730   74.1470  220.9910 N   0  0  0  0  0  0  0  0  0  0  0  0
  142.0610   72.9770  221.0320 C   0  0  0  0  0  0  0  0  0  0  0  0
  143.1580   72.7480  220.1270 N   0  0  0  0  0  0  0  0  0  0  0  0
  143.7230   73.8860  219.3910 C   0  0  0  0  0  0  0  0  0  0  0  0
  144.7430   73.3990  218.3650 C   0  0  0  0  0  0  0  0  0  0  0  0
  145.6540   72.5290  218.9990 O   0  0  0  0  0  0  0  0  0  0  0  0
  145.0360   71.2900  219.3270 C   0  0  0  0  0  0  0  0  0  0  0  0
  143.5490   71.3760  219.7660 C   0  0  0  0  0  0  0  0  0  0  0  0
  141.6880   72.0170  221.9190 N   0  0  0  0  0  0  0  0  0  0  0  0
  140.6380   72.2170  222.7600 C   0  0  0  0  0  0  0  0  0  0  0  0
  140.2440   71.1810  223.6840 N   0  0  0  0  0  0  0  0  0  0  0  0
  139.0260   70.3910  223.4390 C   0  0  0  0  0  0  0  0  0  0  0  0
  139.2000   68.9560  223.9350 C   0  0  0  0  0  0  0  0  0  0  0  0
  139.6090   68.9600  225.3770 C   0  0  0  0  0  0  0  0  0  0  0  0
  139.1870   67.9350  226.2370 C   0  0  0  0  0  0  0  0  0  0  0  0
  139.5960   67.9250  227.5730 C   0  0  0  0  0  0  0  0  0  0  0  0
  140.4380   68.9270  228.0540 C   0  0  0  0  0  0  0  0  0  0  0  0
  140.8790   69.9410  227.2000 C   0  0  0  0  0  0  0  0  0  0  0  0
  140.4650   69.9670  225.8580 C   0  0  0  0  0  0  0  0  0  0  0  0
  141.0170   71.0220  224.9300 C   0  0  0  0  0  0  0  0  0  0  0  0
  139.9620   73.3960  222.7070 N   0  0  0  0  0  0  0  0  0  0  0  0
  140.3770   76.8710  221.7120 C   0  0  0  0  0  0  0  0  0  0  0  0
  139.4760   78.0730  221.4400 C   0  0  0  0  0  0  0  0  0  0  0  0
  136.6540   79.7010  223.0150 N   0  0  0  0  0  0  0  0  0  0  0  0
  136.2420   80.8190  223.6710 C   0  0  0  0  0  0  0  0  0  0  0  0
  136.8142   82.4402  224.9954 H   0  0  0  0  0  0  0  0  0  0  0  0
  139.1796   81.6442  225.1874 H   0  0  0  0  0  0  0  0  0  0  0  0
  139.9054   79.5967  223.9531 H   0  0  0  0  0  0  0  0  0  0  0  0
  137.5500   76.4901  223.5348 H   0  0  0  0  0  0  0  0  0  0  0  0
  136.5335   76.9824  222.1076 H   0  0  0  0  0  0  0  0  0  0  0  0
  137.7269   74.6944  221.9911 H   0  0  0  0  0  0  0  0  0  0  0  0
  137.8856   75.8147  220.5851 H   0  0  0  0  0  0  0  0  0  0  0  0
  142.9136   74.4208  218.8725 H   0  0  0  0  0  0  0  0  0  0  0  0
  144.2240   74.5592  220.1022 H   0  0  0  0  0  0  0  0  0  0  0  0
  144.2249   72.8640  217.5555 H   0  0  0  0  0  0  0  0  0  0  0  0
  145.2836   74.2586  217.9422 H   0  0  0  0  0  0  0  0  0  0  0  0
  145.0900   70.6401  218.4411 H   0  0  0  0  0  0  0  0  0  0  0  0
  145.5844   70.9021  220.1981 H   0  0  0  0  0  0  0  0  0  0  0  0
  142.9136   71.0325  218.9364 H   0  0  0  0  0  0  0  0  0  0  0  0
  143.4206   70.7416  220.6554 H   0  0  0  0  0  0  0  0  0  0  0  0
  138.1820   70.8559  223.9695 H   0  0  0  0  0  0  0  0  0  0  0  0
  138.8326   70.3685  222.3564 H   0  0  0  0  0  0  0  0  0  0  0  0
  138.2482   68.4151  223.8275 H   0  0  0  0  0  0  0  0  0  0  0  0
  139.9798   68.4592  223.3391 H   0  0  0  0  0  0  0  0  0  0  0  0
  138.5320   67.1366  225.8582 H   0  0  0  0  0  0  0  0  0  0  0  0
  139.2532   67.1255  228.2463 H   0  0  0  0  0  0  0  0  0  0  0  0
  140.7554   68.9191  229.1072 H   0  0  0  0  0  0  0  0  0  0  0  0
  141.5534   70.7224  227.5802 H   0  0  0  0  0  0  0  0  0  0  0  0
  141.0198   71.9849  225.4619 H   0  0  0  0  0  0  0  0  0  0  0  0
  142.0278   70.6981  224.6413 H   0  0  0  0  0  0  0  0  0  0  0  0
  140.8917   77.0215  222.6724 H   0  0  0  0  0  0  0  0  0  0  0  0
  141.0990   76.7900  220.8861 H   0  0  0  0  0  0  0  0  0  0  0  0
  140.0458   78.9997  221.6030 H   0  0  0  0  0  0  0  0  0  0  0  0
  139.1221   78.0309  220.3993 H   0  0  0  0  0  0  0  0  0  0  0  0
  135.1996   81.1580  223.5786 H   0  0  0  0  0  0  0  0  0  0  0  0
  1  2  2  0
  2  3  1  0
  3  4  2  0
  4  5  1  0
  5  6  1  0
  6  7  1  0
  7  8  1  0
  8  9  1  0
  9 10  2  0
 10 11  1  0
 11 12  1  0
 12 13  1  0
 13 14  1  0
 14 15  1  0
 15 16  1  0
 16 17  1  0
 11 18  2  0
 18 19  1  0
 19 20  1  0
 20 21  1  0
 21 22  1  0
 22 23  1  0
 23 24  2  0
 24 25  1  0
 25 26  2  0
 26 27  1  0
 27 28  2  0
 28 29  1  0
 19 30  2  0
  8 31  1  0
 31 32  1  0
  4 33  1  0
 33 34  2  0
 34  1  1  0
 32  5  1  0
 30  9  1  0
 17 12  1  0
 29 20  1  0
 28 23  1  0
  1 35  1  0
  2 36  1  0
  3 37  1  0
  6 38  1  0
  6 39  1  0
  7 40  1  0
  7 41  1  0
 13 42  1  0
 13 43  1  0
 14 44  1  0
 14 45  1  0
 16 46  1  0
 16 47  1  0
 17 48  1  0
 17 49  1  0
 21 50  1  0
 21 51  1  0
 22 52  1  0
 22 53  1  0
 24 54  1  0
 25 55  1  0
 26 56  1  0
 27 57  1  0
 29 58  1  0
 29 59  1  0
 31 60  1  0
 31 61  1  0
 32 62  1  0
 32 63  1  0
 34 64  1  0
M  END
>  <UniqueID>  (76) 
277

>  <SMILES>  (76) 
c1ccc(N2CCN(c3nc(N4CCOCC4)nc(N4CCc5ccccc5C4)n3)CC2)nc1

>  <Energy>  (76) 
82.61292634184493

>  <Genealogy>  (76) 
c1ccc(N2CCN(c3nc(N4CCOCC4)nc(N4CCc5ccccc5C4)n3)CC2)nc1 (3D coordinates assigned)
c1ccc(N2CCN(c3nc(N4CCOCC4)nc(N4CCc5ccccc5C4)n3)CC2)nc1 (nonaromatic ring conformer: 82.61292634184493 kcal/mol)

>  <smiles>  (76) 
c1ccc(N2CCN(c3nc(N4CCOCC4)nc(N4CCc5ccccc5C4)n3)CC2)nc1

>  <score_type>  (76) 
oracle

>  <origin>  (76) 
autodockgpu

>  <m_score__min__energy>  (76) 
-8.9399999999999995

>  <m_primary>  (76) 
energy

>  <meeko>  (76) 
{"free_energy": -8.87, "intermolecular_energy": -10.06, "internal_energy": -0.89, "cluster_size": 18, "cluster_id": 1, "rank_in_cluster": 14}

>  <energy>  (76) 
-8.86

>  <cluster_rmsd>  (76) 
0.47

>  <rmsd>  (76) 
270.56

>  <cluster>  (76) 
1

$$$$
XSFBOMDNDOCRMT-UHFFFAOYNA-N
     RDKit          3D

 64 69  0  0  0  0  0  0  0  0999 V2000
  137.0570   81.4210  224.5490 C   0  0  0  0  0  0  0  0  0  0  0  0
  138.4120   81.0870  224.5670 C   0  0  0  0  0  0  0  0  0  0  0  0
  138.8640   79.9750  223.8550 C   0  0  0  0  0  0  0  0  0  0  0  0
  137.9480   79.1880  223.1240 C   0  0  0  0  0  0  0  0  0  0  0  0
  138.3770   78.0320  222.3590 N   0  0  0  0  0  0  0  0  0  0  0  0
  137.5930   76.7800  222.3710 C   0  0  0  0  0  0  0  0  0  0  0  0
  138.2390   75.6730  221.5310 C   0  0  0  0  0  0  0  0  0  0  0  0
  139.6900   75.6160  221.7750 N   0  0  0  0  0  0  0  0  0  0  0  0
  140.3890   74.3580  221.8220 C   0  0  0  0  0  0  0  0  0  0  0  0
  141.4290   74.1220  220.9790 N   0  0  0  0  0  0  0  0  0  0  0  0
  142.1010   72.9430  221.0160 C   0  0  0  0  0  0  0  0  0  0  0  0
  143.1890   72.7000  220.1020 N   0  0  0  0  0  0  0  0  0  0  0  0
  143.8570   73.8430  219.4690 C   0  0  0  0  0  0  0  0  0  0  0  0
  144.8460   73.3600  218.4120 C   0  0  0  0  0  0  0  0  0  0  0  0
  145.6720   72.3660  218.9760 O   0  0  0  0  0  0  0  0  0  0  0  0
  144.9480   71.1600  219.1930 C   0  0  0  0  0  0  0  0  0  0  0  0
  143.4680   71.3350  219.6280 C   0  0  0  0  0  0  0  0  0  0  0  0
  141.7240   71.9900  221.9070 N   0  0  0  0  0  0  0  0  0  0  0  0
  140.6840   72.2040  222.7560 C   0  0  0  0  0  0  0  0  0  0  0  0
  140.2840   71.1740  223.6860 N   0  0  0  0  0  0  0  0  0  0  0  0
  139.0620   70.3890  223.4440 C   0  0  0  0  0  0  0  0  0  0  0  0
  139.2290   68.9560  223.9460 C   0  0  0  0  0  0  0  0  0  0  0  0
  139.6370   68.9640  225.3880 C   0  0  0  0  0  0  0  0  0  0  0  0
  139.2100   67.9450  226.2530 C   0  0  0  0  0  0  0  0  0  0  0  0
  139.6190   67.9390  227.5890 C   0  0  0  0  0  0  0  0  0  0  0  0
  140.4670   68.9390  228.0660 C   0  0  0  0  0  0  0  0  0  0  0  0
  140.9120   69.9470  227.2070 C   0  0  0  0  0  0  0  0  0  0  0  0
  140.4980   69.9690  225.8650 C   0  0  0  0  0  0  0  0  0  0  0  0
  141.0570   71.0170  224.9320 C   0  0  0  0  0  0  0  0  0  0  0  0
  140.0230   73.3910  222.7080 N   0  0  0  0  0  0  0  0  0  0  0  0
  140.4700   76.8620  221.8320 C   0  0  0  0  0  0  0  0  0  0  0  0
  139.6020   78.0860  221.5480 C   0  0  0  0  0  0  0  0  0  0  0  0
  136.6300   79.5460  223.1350 N   0  0  0  0  0  0  0  0  0  0  0  0
  136.1710   80.6300  223.8170 C   0  0  0  0  0  0  0  0  0  0  0  0
  136.6921   82.2971  225.1051 H   0  0  0  0  0  0  0  0  0  0  0  0
  139.1226   81.6993  225.1415 H   0  0  0  0  0  0  0  0  0  0  0  0
  139.9321   79.7123  223.8634 H   0  0  0  0  0  0  0  0  0  0  0  0
  137.5057   76.4288  223.4098 H   0  0  0  0  0  0  0  0  0  0  0  0
  136.6080   76.9991  221.9331 H   0  0  0  0  0  0  0  0  0  0  0  0
  137.7891   74.7060  221.8002 H   0  0  0  0  0  0  0  0  0  0  0  0
  138.0670   75.8901  220.4664 H   0  0  0  0  0  0  0  0  0  0  0  0
  143.1023   74.4861  218.9927 H   0  0  0  0  0  0  0  0  0  0  0  0
  144.4033   74.4088  220.2380 H   0  0  0  0  0  0  0  0  0  0  0  0
  144.2960   72.9407  217.5566 H   0  0  0  0  0  0  0  0  0  0  0  0
  145.4622   74.2033  218.0668 H   0  0  0  0  0  0  0  0  0  0  0  0
  144.9594   70.5851  218.2553 H   0  0  0  0  0  0  0  0  0  0  0  0
  145.4501   70.6543  220.0309 H   0  0  0  0  0  0  0  0  0  0  0  0
  142.8173   71.1180  218.7680 H   0  0  0  0  0  0  0  0  0  0  0  0
  143.2745   70.6411  220.4593 H   0  0  0  0  0  0  0  0  0  0  0  0
  138.2201   70.8603  223.9724 H   0  0  0  0  0  0  0  0  0  0  0  0
  138.8685   70.3629  222.3615 H   0  0  0  0  0  0  0  0  0  0  0  0
  138.2748   68.4191  223.8401 H   0  0  0  0  0  0  0  0  0  0  0  0
  140.0070   68.4532  223.3527 H   0  0  0  0  0  0  0  0  0  0  0  0
  138.5510   67.1481  225.8780 H   0  0  0  0  0  0  0  0  0  0  0  0
  139.2718   67.1445  228.2659 H   0  0  0  0  0  0  0  0  0  0  0  0
  140.7854   68.9338  229.1189 H   0  0  0  0  0  0  0  0  0  0  0  0
  141.5899   70.7272  227.5835 H   0  0  0  0  0  0  0  0  0  0  0  0
  141.0658   71.9823  225.4593 H   0  0  0  0  0  0  0  0  0  0  0  0
  142.0662   70.6866  224.6449 H   0  0  0  0  0  0  0  0  0  0  0  0
  140.9094   76.9618  222.8355 H   0  0  0  0  0  0  0  0  0  0  0  0
  141.2535   76.8113  221.0615 H   0  0  0  0  0  0  0  0  0  0  0  0
  140.1646   78.9976  221.7979 H   0  0  0  0  0  0  0  0  0  0  0  0
  139.3297   78.0965  220.4823 H   0  0  0  0  0  0  0  0  0  0  0  0
  135.1008   80.8829  223.7913 H   0  0  0  0  0  0  0  0  0  0  0  0
  1  2  2  0
  2  3  1  0
  3  4  2  0
  4  5  1  0
  5  6  1  0
  6  7  1  0
  7  8  1  0
  8  9  1  0
  9 10  2  0
 10 11  1  0
 11 12  1  0
 12 13  1  0
 13 14  1  0
 14 15  1  0
 15 16  1  0
 16 17  1  0
 11 18  2  0
 18 19  1  0
 19 20  1  0
 20 21  1  0
 21 22  1  0
 22 23  1  0
 23 24  2  0
 24 25  1  0
 25 26  2  0
 26 27  1  0
 27 28  2  0
 28 29  1  0
 19 30  2  0
  8 31  1  0
 31 32  1  0
  4 33  1  0
 33 34  2  0
 34  1  1  0
 32  5  1  0
 30  9  1  0
 17 12  1  0
 29 20  1  0
 28 23  1  0
  1 35  1  0
  2 36  1  0
  3 37  1  0
  6 38  1  0
  6 39  1  0
  7 40  1  0
  7 41  1  0
 13 42  1  0
 13 43  1  0
 14 44  1  0
 14 45  1  0
 16 46  1  0
 16 47  1  0
 17 48  1  0
 17 49  1  0
 21 50  1  0
 21 51  1  0
 22 52  1  0
 22 53  1  0
 24 54  1  0
 25 55  1  0
 26 56  1  0
 27 57  1  0
 29 58  1  0
 29 59  1  0
 31 60  1  0
 31 61  1  0
 32 62  1  0
 32 63  1  0
 34 64  1  0
M  END
>  <UniqueID>  (77) 
277

>  <SMILES>  (77) 
c1ccc(N2CCN(c3nc(N4CCOCC4)nc(N4CCc5ccccc5C4)n3)CC2)nc1

>  <Energy>  (77) 
82.61292634184493

>  <Genealogy>  (77) 
c1ccc(N2CCN(c3nc(N4CCOCC4)nc(N4CCc5ccccc5C4)n3)CC2)nc1 (3D coordinates assigned)
c1ccc(N2CCN(c3nc(N4CCOCC4)nc(N4CCc5ccccc5C4)n3)CC2)nc1 (nonaromatic ring conformer: 82.61292634184493 kcal/mol)

>  <smiles>  (77) 
c1ccc(N2CCN(c3nc(N4CCOCC4)nc(N4CCc5ccccc5C4)n3)CC2)nc1

>  <score_type>  (77) 
oracle

>  <origin>  (77) 
autodockgpu

>  <m_score__min__energy>  (77) 
-8.9399999999999995

>  <m_primary>  (77) 
energy

>  <meeko>  (77) 
{"free_energy": -8.92, "intermolecular_energy": -10.12, "internal_energy": -0.89, "cluster_size": 18, "cluster_id": 1, "rank_in_cluster": 6}

>  <energy>  (77) 
-8.73

>  <cluster_rmsd>  (77) 
0.55

>  <rmsd>  (77) 
270.57

>  <cluster>  (77) 
1

$$$$
XSFBOMDNDOCRMT-UHFFFAOYNA-N
     RDKit          3D

 64 69  0  0  0  0  0  0  0  0999 V2000
  137.0580   81.4210  224.6000 C   0  0  0  0  0  0  0  0  0  0  0  0
  138.4240   81.1520  224.5110 C   0  0  0  0  0  0  0  0  0  0  0  0
  138.8710   80.0430  223.7900 C   0  0  0  0  0  0  0  0  0  0  0  0
  137.9360   79.1930  223.1600 C   0  0  0  0  0  0  0  0  0  0  0  0
  138.3570   78.0370  222.3890 N   0  0  0  0  0  0  0  0  0  0  0  0
  137.5730   76.7850  222.4090 C   0  0  0  0  0  0  0  0  0  0  0  0
  138.2100   75.6780  221.5610 C   0  0  0  0  0  0  0  0  0  0  0  0
  139.6630   75.6220  221.7890 N   0  0  0  0  0  0  0  0  0  0  0  0
  140.3610   74.3620  221.8280 C   0  0  0  0  0  0  0  0  0  0  0  0
  141.4000   74.1310  220.9820 N   0  0  0  0  0  0  0  0  0  0  0  0
  142.0730   72.9530  221.0110 C   0  0  0  0  0  0  0  0  0  0  0  0
  143.1580   72.7140  220.0940 N   0  0  0  0  0  0  0  0  0  0  0  0
  143.8880   73.8610  219.5410 C   0  0  0  0  0  0  0  0  0  0  0  0
  144.8660   73.3970  218.4640 C   0  0  0  0  0  0  0  0  0  0  0  0
  145.6360   72.3310  218.9720 O   0  0  0  0  0  0  0  0  0  0  0  0
  144.8520   71.1500  219.1060 C   0  0  0  0  0  0  0  0  0  0  0  0
  143.3780   71.3690  219.5370 C   0  0  0  0  0  0  0  0  0  0  0  0
  141.6970   71.9940  221.8970 N   0  0  0  0  0  0  0  0  0  0  0  0
  140.6580   72.2030  222.7500 C   0  0  0  0  0  0  0  0  0  0  0  0
  140.2600   71.1690  223.6740 N   0  0  0  0  0  0  0  0  0  0  0  0
  139.0390   70.3830  223.4290 C   0  0  0  0  0  0  0  0  0  0  0  0
  139.2080   68.9480  223.9240 C   0  0  0  0  0  0  0  0  0  0  0  0
  139.6170   68.9490  225.3660 C   0  0  0  0  0  0  0  0  0  0  0  0
  139.1910   67.9250  226.2250 C   0  0  0  0  0  0  0  0  0  0  0  0
  139.6000   67.9130  227.5610 C   0  0  0  0  0  0  0  0  0  0  0  0
  140.4470   68.9120  228.0430 C   0  0  0  0  0  0  0  0  0  0  0  0
  140.8910   69.9240  227.1890 C   0  0  0  0  0  0  0  0  0  0  0  0
  140.4770   69.9520  225.8470 C   0  0  0  0  0  0  0  0  0  0  0  0
  141.0340   71.0060  224.9190 C   0  0  0  0  0  0  0  0  0  0  0  0
  139.9970   73.3910  222.7090 N   0  0  0  0  0  0  0  0  0  0  0  0
  140.4440   76.8670  221.8390 C   0  0  0  0  0  0  0  0  0  0  0  0
  139.5740   78.0910  221.5660 C   0  0  0  0  0  0  0  0  0  0  0  0
  136.6080   79.4880  223.2740 N   0  0  0  0  0  0  0  0  0  0  0  0
  136.1540   80.5670  223.9660 C   0  0  0  0  0  0  0  0  0  0  0  0
  136.6979   82.2949  225.1626 H   0  0  0  0  0  0  0  0  0  0  0  0
  139.1486   81.8133  225.0086 H   0  0  0  0  0  0  0  0  0  0  0  0
  139.9479   79.8322  223.7130 H   0  0  0  0  0  0  0  0  0  0  0  0
  137.4971   76.4332  223.4485 H   0  0  0  0  0  0  0  0  0  0  0  0
  136.5832   77.0044  221.9821 H   0  0  0  0  0  0  0  0  0  0  0  0
  137.7636   74.7107  221.8348 H   0  0  0  0  0  0  0  0  0  0  0  0
  138.0259   75.8949  220.4984 H   0  0  0  0  0  0  0  0  0  0  0  0
  143.1711   74.5689  219.0996 H   0  0  0  0  0  0  0  0  0  0  0  0
  144.4513   74.3503  220.3493 H   0  0  0  0  0  0  0  0  0  0  0  0
  144.3069   73.0592  217.5789 H   0  0  0  0  0  0  0  0  0  0  0  0
  145.5261   74.2291  218.1780 H   0  0  0  0  0  0  0  0  0  0  0  0
  144.8474   70.6348  218.1341 H   0  0  0  0  0  0  0  0  0  0  0  0
  145.3189   70.5692  219.9152 H   0  0  0  0  0  0  0  0  0  0  0  0
  142.7285   71.2381  218.6589 H   0  0  0  0  0  0  0  0  0  0  0  0
  143.1417   70.6347  220.3212 H   0  0  0  0  0  0  0  0  0  0  0  0
  138.1967   70.8506  223.9600 H   0  0  0  0  0  0  0  0  0  0  0  0
  138.8454   70.3615  222.3464 H   0  0  0  0  0  0  0  0  0  0  0  0
  138.2543   68.4105  223.8160 H   0  0  0  0  0  0  0  0  0  0  0  0
  139.9863   68.4492  223.3278 H   0  0  0  0  0  0  0  0  0  0  0  0
  138.5331   67.1292  225.8457 H   0  0  0  0  0  0  0  0  0  0  0  0
  139.2538   67.1148  228.2340 H   0  0  0  0  0  0  0  0  0  0  0  0
  140.7650   68.9023  229.0960 H   0  0  0  0  0  0  0  0  0  0  0  0
  141.5683   70.7030  227.5692 H   0  0  0  0  0  0  0  0  0  0  0  0
  141.0418   71.9685  225.4515 H   0  0  0  0  0  0  0  0  0  0  0  0
  142.0433   70.6783  224.6294 H   0  0  0  0  0  0  0  0  0  0  0  0
  140.8943   76.9654  222.8378 H   0  0  0  0  0  0  0  0  0  0  0  0
  141.2191   76.8168  221.0601 H   0  0  0  0  0  0  0  0  0  0  0  0
  140.1396   79.0019  221.8115 H   0  0  0  0  0  0  0  0  0  0  0  0
  139.2907   78.1027  220.5032 H   0  0  0  0  0  0  0  0  0  0  0  0
  135.0740   80.7669  224.0262 H   0  0  0  0  0  0  0  0  0  0  0  0
  1  2  2  0
  2  3  1  0
  3  4  2  0
  4  5  1  0
  5  6  1  0
  6  7  1  0
  7  8  1  0
  8  9  1  0
  9 10  2  0
 10 11  1  0
 11 12  1  0
 12 13  1  0
 13 14  1  0
 14 15  1  0
 15 16  1  0
 16 17  1  0
 11 18  2  0
 18 19  1  0
 19 20  1  0
 20 21  1  0
 21 22  1  0
 22 23  1  0
 23 24  2  0
 24 25  1  0
 25 26  2  0
 26 27  1  0
 27 28  2  0
 28 29  1  0
 19 30  2  0
  8 31  1  0
 31 32  1  0
  4 33  1  0
 33 34  2  0
 34  1  1  0
 32  5  1  0
 30  9  1  0
 17 12  1  0
 29 20  1  0
 28 23  1  0
  1 35  1  0
  2 36  1  0
  3 37  1  0
  6 38  1  0
  6 39  1  0
  7 40  1  0
  7 41  1  0
 13 42  1  0
 13 43  1  0
 14 44  1  0
 14 45  1  0
 16 46  1  0
 16 47  1  0
 17 48  1  0
 17 49  1  0
 21 50  1  0
 21 51  1  0
 22 52  1  0
 22 53  1  0
 24 54  1  0
 25 55  1  0
 26 56  1  0
 27 57  1  0
 29 58  1  0
 29 59  1  0
 31 60  1  0
 31 61  1  0
 32 62  1  0
 32 63  1  0
 34 64  1  0
M  END
>  <UniqueID>  (78) 
277

>  <SMILES>  (78) 
c1ccc(N2CCN(c3nc(N4CCOCC4)nc(N4CCc5ccccc5C4)n3)CC2)nc1

>  <Energy>  (78) 
82.61292634184493

>  <Genealogy>  (78) 
c1ccc(N2CCN(c3nc(N4CCOCC4)nc(N4CCc5ccccc5C4)n3)CC2)nc1 (3D coordinates assigned)
c1ccc(N2CCN(c3nc(N4CCOCC4)nc(N4CCc5ccccc5C4)n3)CC2)nc1 (nonaromatic ring conformer: 82.61292634184493 kcal/mol)

>  <smiles>  (78) 
c1ccc(N2CCN(c3nc(N4CCOCC4)nc(N4CCc5ccccc5C4)n3)CC2)nc1

>  <score_type>  (78) 
oracle

>  <origin>  (78) 
autodockgpu

>  <m_score__min__energy>  (78) 
-8.9399999999999995

>  <m_primary>  (78) 
energy

>  <meeko>  (78) 
{"free_energy": -8.92, "intermolecular_energy": -10.11, "internal_energy": -0.89, "cluster_size": 18, "cluster_id": 1, "rank_in_cluster": 8}

>  <energy>  (78) 
-8.37

>  <cluster_rmsd>  (78) 
1.16

>  <rmsd>  (78) 
270.49

>  <cluster>  (78) 
1

$$$$
XSFBOMDNDOCRMT-UHFFFAOYNA-N
     RDKit          3D

 64 69  0  0  0  0  0  0  0  0999 V2000
  137.0840   81.4300  224.5280 C   0  0  0  0  0  0  0  0  0  0  0  0
  138.4350   81.0830  224.5420 C   0  0  0  0  0  0  0  0  0  0  0  0
  138.8740   79.9610  223.8360 C   0  0  0  0  0  0  0  0  0  0  0  0
  137.9460   79.1780  223.1160 C   0  0  0  0  0  0  0  0  0  0  0  0
  138.3600   78.0110  222.3560 N   0  0  0  0  0  0  0  0  0  0  0  0
  137.5820   76.7570  222.4070 C   0  0  0  0  0  0  0  0  0  0  0  0
  138.2100   75.6400  221.5680 C   0  0  0  0  0  0  0  0  0  0  0  0
  139.6670   75.5920  221.7750 N   0  0  0  0  0  0  0  0  0  0  0  0
  140.3710   74.3360  221.8230 C   0  0  0  0  0  0  0  0  0  0  0  0
  141.4090   74.1030  220.9770 N   0  0  0  0  0  0  0  0  0  0  0  0
  142.0870   72.9280  221.0150 C   0  0  0  0  0  0  0  0  0  0  0  0
  143.1720   72.6860  220.0980 N   0  0  0  0  0  0  0  0  0  0  0  0
  143.8320   73.8310  219.4580 C   0  0  0  0  0  0  0  0  0  0  0  0
  144.8200   73.3490  218.3990 C   0  0  0  0  0  0  0  0  0  0  0  0
  145.6530   72.3610  218.9640 O   0  0  0  0  0  0  0  0  0  0  0  0
  144.9360   71.1520  219.1880 C   0  0  0  0  0  0  0  0  0  0  0  0
  143.4570   71.3210  219.6280 C   0  0  0  0  0  0  0  0  0  0  0  0
  141.7170   71.9750  221.9100 N   0  0  0  0  0  0  0  0  0  0  0  0
  140.6790   72.1860  222.7620 C   0  0  0  0  0  0  0  0  0  0  0  0
  140.2870   71.1570  223.6950 N   0  0  0  0  0  0  0  0  0  0  0  0
  139.0630   70.3720  223.4640 C   0  0  0  0  0  0  0  0  0  0  0  0
  139.2340   68.9390  223.9660 C   0  0  0  0  0  0  0  0  0  0  0  0
  139.6540   68.9490  225.4050 C   0  0  0  0  0  0  0  0  0  0  0  0
  139.2340   67.9300  226.2740 C   0  0  0  0  0  0  0  0  0  0  0  0
  139.6530   67.9250  227.6060 C   0  0  0  0  0  0  0  0  0  0  0  0
  140.5040   68.9260  228.0760 C   0  0  0  0  0  0  0  0  0  0  0  0
  140.9430   69.9340  227.2120 C   0  0  0  0  0  0  0  0  0  0  0  0
  140.5190   69.9540  225.8740 C   0  0  0  0  0  0  0  0  0  0  0  0
  141.0690   71.0020  224.9350 C   0  0  0  0  0  0  0  0  0  0  0  0
  140.0120   73.3710  222.7130 N   0  0  0  0  0  0  0  0  0  0  0  0
  140.4430   76.8410  221.7940 C   0  0  0  0  0  0  0  0  0  0  0  0
  139.5640   78.0580  221.5150 C   0  0  0  0  0  0  0  0  0  0  0  0
  136.6310   79.5480  223.1310 N   0  0  0  0  0  0  0  0  0  0  0  0
  136.1860   80.6410  223.8070 C   0  0  0  0  0  0  0  0  0  0  0  0
  136.7306   82.3145  225.0783 H   0  0  0  0  0  0  0  0  0  0  0  0
  139.1540   81.6927  225.1088 H   0  0  0  0  0  0  0  0  0  0  0  0
  139.9396   79.6882  223.8409 H   0  0  0  0  0  0  0  0  0  0  0  0
  137.5228   76.4213  223.4529 H   0  0  0  0  0  0  0  0  0  0  0  0
  136.5853   76.9660  221.9911 H   0  0  0  0  0  0  0  0  0  0  0  0
  137.7711   74.6757  221.8636 H   0  0  0  0  0  0  0  0  0  0  0  0
  138.0096   75.8399  220.5050 H   0  0  0  0  0  0  0  0  0  0  0  0
  143.0722   74.4683  218.9821 H   0  0  0  0  0  0  0  0  0  0  0  0
  144.3780   74.4027  220.2229 H   0  0  0  0  0  0  0  0  0  0  0  0
  144.2692   72.9239  217.5470 H   0  0  0  0  0  0  0  0  0  0  0  0
  145.4308   74.1941  218.0485 H   0  0  0  0  0  0  0  0  0  0  0  0
  144.9468   70.5738  218.2523 H   0  0  0  0  0  0  0  0  0  0  0  0
  145.4439   70.6518  220.0258 H   0  0  0  0  0  0  0  0  0  0  0  0
  142.8043   71.0973  218.7713 H   0  0  0  0  0  0  0  0  0  0  0  0
  143.2708   70.6294  220.4629 H   0  0  0  0  0  0  0  0  0  0  0  0
  138.2257   70.8439  223.9990 H   0  0  0  0  0  0  0  0  0  0  0  0
  138.8605   70.3449  222.3831 H   0  0  0  0  0  0  0  0  0  0  0  0
  138.2789   68.4020  223.8686 H   0  0  0  0  0  0  0  0  0  0  0  0
  140.0067   68.4352  223.3668 H   0  0  0  0  0  0  0  0  0  0  0  0
  138.5725   67.1326  225.9045 H   0  0  0  0  0  0  0  0  0  0  0  0
  139.3116   67.1306  228.2860 H   0  0  0  0  0  0  0  0  0  0  0  0
  140.8297   68.9221  229.1267 H   0  0  0  0  0  0  0  0  0  0  0  0
  141.6236   70.7147  227.5825 H   0  0  0  0  0  0  0  0  0  0  0  0
  141.0803   71.9679  225.4612 H   0  0  0  0  0  0  0  0  0  0  0  0
  142.0761   70.6722  224.6403 H   0  0  0  0  0  0  0  0  0  0  0  0
  140.9076   76.9567  222.7843 H   0  0  0  0  0  0  0  0  0  0  0  0
  141.2063   76.7818  221.0042 H   0  0  0  0  0  0  0  0  0  0  0  0
  140.1292   78.9747  221.7388 H   0  0  0  0  0  0  0  0  0  0  0  0
  139.2656   78.0531  220.4563 H   0  0  0  0  0  0  0  0  0  0  0  0
  135.1180   80.9034  223.7856 H   0  0  0  0  0  0  0  0  0  0  0  0
  1  2  2  0
  2  3  1  0
  3  4  2  0
  4  5  1  0
  5  6  1  0
  6  7  1  0
  7  8  1  0
  8  9  1  0
  9 10  2  0
 10 11  1  0
 11 12  1  0
 12 13  1  0
 13 14  1  0
 14 15  1  0
 15 16  1  0
 16 17  1  0
 11 18  2  0
 18 19  1  0
 19 20  1  0
 20 21  1  0
 21 22  1  0
 22 23  1  0
 23 24  2  0
 24 25  1  0
 25 26  2  0
 26 27  1  0
 27 28  2  0
 28 29  1  0
 19 30  2  0
  8 31  1  0
 31 32  1  0
  4 33  1  0
 33 34  2  0
 34  1  1  0
 32  5  1  0
 30  9  1  0
 17 12  1  0
 29 20  1  0
 28 23  1  0
  1 35  1  0
  2 36  1  0
  3 37  1  0
  6 38  1  0
  6 39  1  0
  7 40  1  0
  7 41  1  0
 13 42  1  0
 13 43  1  0
 14 44  1  0
 14 45  1  0
 16 46  1  0
 16 47  1  0
 17 48  1  0
 17 49  1  0
 21 50  1  0
 21 51  1  0
 22 52  1  0
 22 53  1  0
 24 54  1  0
 25 55  1  0
 26 56  1  0
 27 57  1  0
 29 58  1  0
 29 59  1  0
 31 60  1  0
 31 61  1  0
 32 62  1  0
 32 63  1  0
 34 64  1  0
M  END
>  <UniqueID>  (79) 
277

>  <SMILES>  (79) 
c1ccc(N2CCN(c3nc(N4CCOCC4)nc(N4CCc5ccccc5C4)n3)CC2)nc1

>  <Energy>  (79) 
82.61292634184493

>  <Genealogy>  (79) 
c1ccc(N2CCN(c3nc(N4CCOCC4)nc(N4CCc5ccccc5C4)n3)CC2)nc1 (3D coordinates assigned)
c1ccc(N2CCN(c3nc(N4CCOCC4)nc(N4CCc5ccccc5C4)n3)CC2)nc1 (nonaromatic ring conformer: 82.61292634184493 kcal/mol)

>  <smiles>  (79) 
c1ccc(N2CCN(c3nc(N4CCOCC4)nc(N4CCc5ccccc5C4)n3)CC2)nc1

>  <score_type>  (79) 
oracle

>  <origin>  (79) 
autodockgpu

>  <m_score__min__energy>  (79) 
-8.9399999999999995

>  <m_primary>  (79) 
energy

>  <meeko>  (79) 
{"free_energy": -8.91, "intermolecular_energy": -10.1, "internal_energy": -0.89, "cluster_size": 18, "cluster_id": 1, "rank_in_cluster": 11}

>  <energy>  (79) 
-8.72

>  <cluster_rmsd>  (79) 
0.0

>  <rmsd>  (79) 
270.03

>  <cluster>  (79) 
2

$$$$
XSFBOMDNDOCRMT-UHFFFAOYNA-N
     RDKit          3D

 64 69  0  0  0  0  0  0  0  0999 V2000
  137.0360   81.4080  224.5570 C   0  0  0  0  0  0  0  0  0  0  0  0
  138.3940   81.0900  224.5690 C   0  0  0  0  0  0  0  0  0  0  0  0
  138.8570   79.9860  223.8510 C   0  0  0  0  0  0  0  0  0  0  0  0
  137.9470   79.1900  223.1220 C   0  0  0  0  0  0  0  0  0  0  0  0
  138.3870   78.0420  222.3500 N   0  0  0  0  0  0  0  0  0  0  0  0
  137.6000   76.7910  222.3350 C   0  0  0  0  0  0  0  0  0  0  0  0
  138.2580   75.6920  221.4940 C   0  0  0  0  0  0  0  0  0  0  0  0
  139.7040   75.6290  221.7620 N   0  0  0  0  0  0  0  0  0  0  0  0
  140.3990   74.3680  221.8080 C   0  0  0  0  0  0  0  0  0  0  0  0
  141.4400   74.1320  220.9660 N   0  0  0  0  0  0  0  0  0  0  0  0
  142.1090   72.9510  221.0010 C   0  0  0  0  0  0  0  0  0  0  0  0
  143.1970   72.7060  220.0880 N   0  0  0  0  0  0  0  0  0  0  0  0
  143.8650   73.8500  219.4550 C   0  0  0  0  0  0  0  0  0  0  0  0
  144.8560   73.3650  218.3990 C   0  0  0  0  0  0  0  0  0  0  0  0
  145.6820   72.3720  218.9660 O   0  0  0  0  0  0  0  0  0  0  0  0
  144.9580   71.1660  219.1840 C   0  0  0  0  0  0  0  0  0  0  0  0
  143.4770   71.3410  219.6170 C   0  0  0  0  0  0  0  0  0  0  0  0
  141.7270   71.9960  221.8890 N   0  0  0  0  0  0  0  0  0  0  0  0
  140.6850   72.2110  222.7360 C   0  0  0  0  0  0  0  0  0  0  0  0
  140.2810   71.1800  223.6620 N   0  0  0  0  0  0  0  0  0  0  0  0
  139.0470   70.4110  223.4240 C   0  0  0  0  0  0  0  0  0  0  0  0
  139.2010   68.9730  223.9160 C   0  0  0  0  0  0  0  0  0  0  0  0
  139.6200   68.9670  225.3550 C   0  0  0  0  0  0  0  0  0  0  0  0
  139.1880   67.9470  226.2170 C   0  0  0  0  0  0  0  0  0  0  0  0
  139.6070   67.9270  227.5490 C   0  0  0  0  0  0  0  0  0  0  0  0
  140.4700   68.9140  228.0260 C   0  0  0  0  0  0  0  0  0  0  0  0
  140.9210   69.9220  227.1700 C   0  0  0  0  0  0  0  0  0  0  0  0
  140.4970   69.9580  225.8320 C   0  0  0  0  0  0  0  0  0  0  0  0
  141.0610   71.0060  224.9010 C   0  0  0  0  0  0  0  0  0  0  0  0
  140.0280   73.4010  222.6900 N   0  0  0  0  0  0  0  0  0  0  0  0
  140.4860   76.8720  221.8470 C   0  0  0  0  0  0  0  0  0  0  0  0
  139.6270   78.1020  221.5620 C   0  0  0  0  0  0  0  0  0  0  0  0
  136.6250   79.5330  223.1390 N   0  0  0  0  0  0  0  0  0  0  0  0
  136.1560   80.6090  223.8260 C   0  0  0  0  0  0  0  0  0  0  0  0
  136.6632   82.2782  225.1171 H   0  0  0  0  0  0  0  0  0  0  0  0
  139.0993   81.7084  225.1436 H   0  0  0  0  0  0  0  0  0  0  0  0
  139.9284   79.7368  223.8532 H   0  0  0  0  0  0  0  0  0  0  0  0
  137.4944   76.4286  223.3682 H   0  0  0  0  0  0  0  0  0  0  0  0
  136.6230   77.0170  221.8830 H   0  0  0  0  0  0  0  0  0  0  0  0
  137.8015   74.7231  221.7446 H   0  0  0  0  0  0  0  0  0  0  0  0
  138.1048   75.9213  220.4291 H   0  0  0  0  0  0  0  0  0  0  0  0
  143.1106   74.4923  218.9773 H   0  0  0  0  0  0  0  0  0  0  0  0
  144.4096   74.4177  220.2239 H   0  0  0  0  0  0  0  0  0  0  0  0
  144.3070   72.9439  217.5438 H   0  0  0  0  0  0  0  0  0  0  0  0
  145.4723   74.2078  218.0528 H   0  0  0  0  0  0  0  0  0  0  0  0
  144.9708   70.5896  218.2472 H   0  0  0  0  0  0  0  0  0  0  0  0
  145.4592   70.6619  220.0234 H   0  0  0  0  0  0  0  0  0  0  0  0
  142.8275   71.1222  218.7566 H   0  0  0  0  0  0  0  0  0  0  0  0
  143.2828   70.6485  220.4493 H   0  0  0  0  0  0  0  0  0  0  0  0
  138.2148   70.8890  223.9616 H   0  0  0  0  0  0  0  0  0  0  0  0
  138.8448   70.3942  222.3429 H   0  0  0  0  0  0  0  0  0  0  0  0
  138.2398   68.4480  223.8140 H   0  0  0  0  0  0  0  0  0  0  0  0
  139.9686   68.4650  223.3137 H   0  0  0  0  0  0  0  0  0  0  0  0
  138.5168   67.1603  225.8419 H   0  0  0  0  0  0  0  0  0  0  0  0
  139.2561   67.1318  228.2232 H   0  0  0  0  0  0  0  0  0  0  0  0
  140.7955   68.8986  229.0766 H   0  0  0  0  0  0  0  0  0  0  0  0
  141.6116   70.6911  227.5462 H   0  0  0  0  0  0  0  0  0  0  0  0
  141.0846   71.9677  225.4344 H   0  0  0  0  0  0  0  0  0  0  0  0
  142.0641   70.6658  224.6041 H   0  0  0  0  0  0  0  0  0  0  0  0
  140.9079   76.9589  222.8592 H   0  0  0  0  0  0  0  0  0  0  0  0
  141.2825   76.8278  221.0896 H   0  0  0  0  0  0  0  0  0  0  0  0
  140.1876   79.0088  221.8331 H   0  0  0  0  0  0  0  0  0  0  0  0
  139.3743   78.1262  220.4917 H   0  0  0  0  0  0  0  0  0  0  0  0
  135.0828   80.8495  223.8054 H   0  0  0  0  0  0  0  0  0  0  0  0
  1  2  2  0
  2  3  1  0
  3  4  2  0
  4  5  1  0
  5  6  1  0
  6  7  1  0
  7  8  1  0
  8  9  1  0
  9 10  2  0
 10 11  1  0
 11 12  1  0
 12 13  1  0
 13 14  1  0
 14 15  1  0
 15 16  1  0
 16 17  1  0
 11 18  2  0
 18 19  1  0
 19 20  1  0
 20 21  1  0
 21 22  1  0
 22 23  1  0
 23 24  2  0
 24 25  1  0
 25 26  2  0
 26 27  1  0
 27 28  2  0
 28 29  1  0
 19 30  2  0
  8 31  1  0
 31 32  1  0
  4 33  1  0
 33 34  2  0
 34  1  1  0
 32  5  1  0
 30  9  1  0
 17 12  1  0
 29 20  1  0
 28 23  1  0
  1 35  1  0
  2 36  1  0
  3 37  1  0
  6 38  1  0
  6 39  1  0
  7 40  1  0
  7 41  1  0
 13 42  1  0
 13 43  1  0
 14 44  1  0
 14 45  1  0
 16 46  1  0
 16 47  1  0
 17 48  1  0
 17 49  1  0
 21 50  1  0
 21 51  1  0
 22 52  1  0
 22 53  1  0
 24 54  1  0
 25 55  1  0
 26 56  1  0
 27 57  1  0
 29 58  1  0
 29 59  1  0
 31 60  1  0
 31 61  1  0
 32 62  1  0
 32 63  1  0
 34 64  1  0
M  END
>  <UniqueID>  (80) 
277

>  <SMILES>  (80) 
c1ccc(N2CCN(c3nc(N4CCOCC4)nc(N4CCc5ccccc5C4)n3)CC2)nc1

>  <Energy>  (80) 
82.61292634184493

>  <Genealogy>  (80) 
c1ccc(N2CCN(c3nc(N4CCOCC4)nc(N4CCc5ccccc5C4)n3)CC2)nc1 (3D coordinates assigned)
c1ccc(N2CCN(c3nc(N4CCOCC4)nc(N4CCc5ccccc5C4)n3)CC2)nc1 (nonaromatic ring conformer: 82.61292634184493 kcal/mol)

>  <smiles>  (80) 
c1ccc(N2CCN(c3nc(N4CCOCC4)nc(N4CCc5ccccc5C4)n3)CC2)nc1

>  <score_type>  (80) 
oracle

>  <origin>  (80) 
autodockgpu

>  <m_score__min__energy>  (80) 
-8.9399999999999995

>  <m_primary>  (80) 
energy

>  <meeko>  (80) 
{"free_energy": -8.93, "intermolecular_energy": -10.12, "internal_energy": -0.89, "cluster_size": 18, "cluster_id": 1, "rank_in_cluster": 3}

>  <energy>  (80) 
-8.6

>  <cluster_rmsd>  (80) 
0.81

>  <rmsd>  (80) 
270.08

>  <cluster>  (80) 
2

$$$$
