ACXZVNHFWDZWKJ-IDGBLARXNA-O
     RDKit          3D

 49 52  0  0  0  0  0  0  0  0999 V2000
  138.3323   78.2623  223.8929 H   0  0  0  0  0  0  0  0  0  0  0  0
  139.0930   78.3140  223.1000 C   0  0  0  0  0  0  0  0  0  0  0  0
  138.9700   77.4880  222.0490 C   0  0  0  0  0  0  0  0  0  0  0  0
  138.0137   77.4581  221.5062 H   0  0  0  0  0  0  0  0  0  0  0  0
  140.0870   76.6080  221.5910 C   0  0  0  0  0  0  0  0  0  0  0  0
  140.0060   75.2800  221.8740 N   0  0  0  0  0  0  0  0  0  0  0  0
  140.9600   74.4000  221.5010 C   0  0  0  0  0  0  0  0  0  0  0  0
  140.8260   73.0430  221.8230 C   0  0  0  0  0  0  0  0  0  0  0  0
  139.9441   72.6942  222.3803 H   0  0  0  0  0  0  0  0  0  0  0  0
  141.8130   72.1330  221.4360 C   0  0  0  0  0  0  0  0  0  0  0  0
  141.7087   71.0681  221.6911 H   0  0  0  0  0  0  0  0  0  0  0  0
  142.9330   72.5740  220.7250 C   0  0  0  0  0  0  0  0  0  0  0  0
  143.7080   71.8552  220.4205 H   0  0  0  0  0  0  0  0  0  0  0  0
  143.0700   73.9280  220.4000 C   0  0  0  0  0  0  0  0  0  0  0  0
  143.9521   74.2720  219.8399 H   0  0  0  0  0  0  0  0  0  0  0  0
  142.0800   74.8510  220.7890 C   0  0  0  0  0  0  0  0  0  0  0  0
  142.1680   76.2210  220.4880 C   0  0  0  0  0  0  0  0  0  0  0  0
  143.1680   76.6430  219.8410 O   0  0  0  0  0  0  0  0  0  0  0  0
  141.1800   77.0930  220.8930 N   0  0  0  0  0  0  0  0  0  0  0  0
  141.3110   78.5350  220.5730 C   0  0  0  0  0  0  0  0  0  0  0  0
  140.7374   79.1172  221.3093 H   0  0  0  0  0  0  0  0  0  0  0  0
  142.3784   78.7985  220.6076 H   0  0  0  0  0  0  0  0  0  0  0  0
  140.7780   78.8580  219.1500 C   0  0  0  0  0  0  0  0  0  0  0  0
  139.6837   78.9273  219.2383 H   0  0  0  0  0  0  0  0  0  0  0  0
  141.2820   80.2210  218.6310 C   0  0  0  0  0  0  0  0  0  0  0  0
  140.6976   80.4954  217.7404 H   0  0  0  0  0  0  0  0  0  0  0  0
  141.1559   80.9511  219.4440 H   0  0  0  0  0  0  0  0  0  0  0  0
  142.7790   80.2030  218.2520 C   0  0  0  0  0  0  0  0  0  0  0  0
  142.9414   80.9338  217.4460 H   0  0  0  0  0  0  0  0  0  0  0  0
  143.3431   80.4491  219.1638 H   0  0  0  0  0  0  0  0  0  0  0  0
  143.2620   78.8850  217.7900 N   0  0  0  0  0  0  0  0  0  0  0  0
  144.0420   79.0300  217.1070 H   0  0  0  0  0  0  0  0  0  0  0  0
  143.6520   78.3430  218.5980 H   0  0  0  0  0  0  0  0  0  0  0  0
  142.2100   78.0940  217.1400 C   0  0  0  0  0  0  0  0  0  0  0  0
  141.7733   78.6821  216.3194 H   0  0  0  0  0  0  0  0  0  0  0  0
  142.6577   77.1662  216.7544 H   0  0  0  0  0  0  0  0  0  0  0  0
  141.0990   77.7230  218.1400 C   0  0  0  0  0  0  0  0  0  0  0  0
  140.1845   77.4893  217.5751 H   0  0  0  0  0  0  0  0  0  0  0  0
  141.4584   76.8612  218.7215 H   0  0  0  0  0  0  0  0  0  0  0  0
  140.1980   79.2930  223.2520 C   0  0  0  0  0  0  0  0  0  0  0  0
  139.9810   80.6260  222.8690 C   0  0  0  0  0  0  0  0  0  0  0  0
  139.0006   80.9274  222.4715 H   0  0  0  0  0  0  0  0  0  0  0  0
  140.9740   81.5470  222.9860 N   0  0  0  0  0  0  0  0  0  0  0  0
  142.2040   81.2170  223.4630 C   0  0  0  0  0  0  0  0  0  0  0  0
  142.9844   81.9872  223.5515 H   0  0  0  0  0  0  0  0  0  0  0  0
  142.4760   79.9020  223.8400 C   0  0  0  0  0  0  0  0  0  0  0  0
  143.4714   79.6281  224.2197 H   0  0  0  0  0  0  0  0  0  0  0  0
  141.4730   78.9360  223.7310 C   0  0  0  0  0  0  0  0  0  0  0  0
  141.6795   77.8949  224.0198 H   0  0  0  0  0  0  0  0  0  0  0  0
  1  2  1  0
  2  3  2  0
  3  4  1  0
  3  5  1  0
  5  6  2  0
  6  7  1  0
  7  8  2  0
  8  9  1  0
  8 10  1  0
 10 11  1  0
 10 12  2  0
 12 13  1  0
 12 14  1  0
 14 15  1  0
 14 16  2  0
 16 17  1  0
 17 18  2  0
 17 19  1  0
 19 20  1  0
 20 21  1  0
 20 22  1  0
 20 23  1  0
 23 24  1  0
 23 25  1  0
 25 26  1  0
 25 27  1  0
 25 28  1  0
 28 29  1  0
 28 30  1  0
 28 31  1  0
 31 32  1  0
 31 33  1  0
 31 34  1  0
 34 35  1  0
 34 36  1  0
 34 37  1  0
 37 38  1  0
 37 39  1  0
  2 40  1  0
 40 41  2  0
 41 42  1  0
 41 43  1  0
 43 44  2  0
 44 45  1  0
 44 46  1  0
 46 47  1  0
 46 48  2  0
 48 49  1  0
 19  5  1  0
 37 23  1  0
 48 40  1  0
 16  7  1  0
M  CHG  1  31   1
M  END
>  <UniqueID>  (1) 
499

>  <SMILES>  (1) 
O=c1c2ccccc2nc(/C=C/c2cccnc2)n1CC1CC[NH2+]CC1

>  <Energy>  (1) 
70.44528255794896

>  <Genealogy>  (1) 
O=c1c2ccccc2nc(/C=C/c2cccnc2)n1CC1CC[NH2+]CC1 (protonated)
O=c1c2ccccc2nc(/C=C/c2cccnc2)n1CC1CC[NH2+]CC1 (cis-trans isomerization)
O=c1c2ccccc2nc(/C=C/c2cccnc2)n1CC1CC[NH2+]CC1 (3D coordinates assigned)
O=c1c2ccccc2nc(/C=C/c2cccnc2)n1CC1CC[NH2+]CC1 (nonaromatic ring conformer: 70.44528255794896 kcal/mol)

>  <smiles>  (1) 
O=c1c2ccccc2nc(/C=C/c2cccnc2)n1CC1CCNCC1

>  <score_type>  (1) 
oracle

>  <origin>  (1) 
autodockgpu

>  <m_score__min__energy>  (1) 
-7.5800000000000001

>  <m_primary>  (1) 
energy

>  <meeko>  (1) 
{"free_energy": -7.54, "intermolecular_energy": -9.03, "internal_energy": -2.03, "cluster_size": 20, "cluster_id": 1, "rank_in_cluster": 6}

>  <energy>  (1) 
-7.58

>  <cluster_rmsd>  (1) 
0.0

>  <rmsd>  (1) 
271.37

>  <cluster>  (1) 
1

$$$$
ACXZVNHFWDZWKJ-IDGBLARXNA-O
     RDKit          3D

 49 52  0  0  0  0  0  0  0  0999 V2000
  138.4487   78.2603  223.9077 H   0  0  0  0  0  0  0  0  0  0  0  0
  139.1910   78.3420  223.1000 C   0  0  0  0  0  0  0  0  0  0  0  0
  139.0550   77.5410  222.0310 C   0  0  0  0  0  0  0  0  0  0  0  0
  138.0919   77.5234  221.4999 H   0  0  0  0  0  0  0  0  0  0  0  0
  140.1660   76.6730  221.5380 C   0  0  0  0  0  0  0  0  0  0  0  0
  140.1020   75.3420  221.8130 N   0  0  0  0  0  0  0  0  0  0  0  0
  141.0530   74.4720  221.4090 C   0  0  0  0  0  0  0  0  0  0  0  0
  140.9370   73.1130  221.7240 C   0  0  0  0  0  0  0  0  0  0  0  0
  140.0721   72.7536  222.3009 H   0  0  0  0  0  0  0  0  0  0  0  0
  141.9210   72.2130  221.3050 C   0  0  0  0  0  0  0  0  0  0  0  0
  141.8310   71.1454  221.5541 H   0  0  0  0  0  0  0  0  0  0  0  0
  143.0190   72.6680  220.5700 C   0  0  0  0  0  0  0  0  0  0  0  0
  143.7915   71.9574  220.2409 H   0  0  0  0  0  0  0  0  0  0  0  0
  143.1380   74.0240  220.2520 C   0  0  0  0  0  0  0  0  0  0  0  0
  144.0030   74.3783  219.6721 H   0  0  0  0  0  0  0  0  0  0  0  0
  142.1520   74.9370  220.6730 C   0  0  0  0  0  0  0  0  0  0  0  0
  142.2220   76.3100  220.3810 C   0  0  0  0  0  0  0  0  0  0  0  0
  143.2020   76.7440  219.7120 O   0  0  0  0  0  0  0  0  0  0  0  0
  141.2380   77.1720  220.8170 N   0  0  0  0  0  0  0  0  0  0  0  0
  141.3500   78.6170  220.5040 C   0  0  0  0  0  0  0  0  0  0  0  0
  140.8636   79.1936  221.3046 H   0  0  0  0  0  0  0  0  0  0  0  0
  142.4181   78.8692  220.4287 H   0  0  0  0  0  0  0  0  0  0  0  0
  140.6740   78.9670  219.1500 C   0  0  0  0  0  0  0  0  0  0  0  0
  139.6004   79.0805  219.3608 H   0  0  0  0  0  0  0  0  0  0  0  0
  141.1700   80.3100  218.5770 C   0  0  0  0  0  0  0  0  0  0  0  0
  140.5002   80.6110  217.7580 H   0  0  0  0  0  0  0  0  0  0  0  0
  141.1659   81.0413  219.3987 H   0  0  0  0  0  0  0  0  0  0  0  0
  142.6130   80.2340  218.0310 C   0  0  0  0  0  0  0  0  0  0  0  0
  142.7121   80.9603  217.2109 H   0  0  0  0  0  0  0  0  0  0  0  0
  143.2859   80.4547  218.8727 H   0  0  0  0  0  0  0  0  0  0  0  0
  142.9880   78.8990  217.5190 N   0  0  0  0  0  0  0  0  0  0  0  0
  143.6900   79.0160  216.7510 H   0  0  0  0  0  0  0  0  0  0  0  0
  143.4440   78.3390  218.2780 H   0  0  0  0  0  0  0  0  0  0  0  0
  141.8380   78.1530  216.9920 C   0  0  0  0  0  0  0  0  0  0  0  0
  141.3356   78.7613  216.2255 H   0  0  0  0  0  0  0  0  0  0  0  0
  142.2017   77.2095  216.5589 H   0  0  0  0  0  0  0  0  0  0  0  0
  140.8330   77.8230  218.1110 C   0  0  0  0  0  0  0  0  0  0  0  0
  139.8520   77.6282  217.6531 H   0  0  0  0  0  0  0  0  0  0  0  0
  141.2205   76.9453  218.6490 H   0  0  0  0  0  0  0  0  0  0  0  0
  140.2860   79.3310  223.2530 C   0  0  0  0  0  0  0  0  0  0  0  0
  140.0490   80.6680  222.8930 C   0  0  0  0  0  0  0  0  0  0  0  0
  139.0601   80.9640  222.5128 H   0  0  0  0  0  0  0  0  0  0  0  0
  141.0320   81.5980  223.0110 N   0  0  0  0  0  0  0  0  0  0  0  0
  142.2710   81.2760  223.4690 C   0  0  0  0  0  0  0  0  0  0  0  0
  143.0432   82.0541  223.5596 H   0  0  0  0  0  0  0  0  0  0  0  0
  142.5630   79.9590  223.8240 C   0  0  0  0  0  0  0  0  0  0  0  0
  143.5657   79.6919  224.1889 H   0  0  0  0  0  0  0  0  0  0  0  0
  141.5710   78.9830  223.7120 C   0  0  0  0  0  0  0  0  0  0  0  0
  141.7936   77.9403  223.9828 H   0  0  0  0  0  0  0  0  0  0  0  0
  1  2  1  0
  2  3  2  0
  3  4  1  0
  3  5  1  0
  5  6  2  0
  6  7  1  0
  7  8  2  0
  8  9  1  0
  8 10  1  0
 10 11  1  0
 10 12  2  0
 12 13  1  0
 12 14  1  0
 14 15  1  0
 14 16  2  0
 16 17  1  0
 17 18  2  0
 17 19  1  0
 19 20  1  0
 20 21  1  0
 20 22  1  0
 20 23  1  0
 23 24  1  0
 23 25  1  0
 25 26  1  0
 25 27  1  0
 25 28  1  0
 28 29  1  0
 28 30  1  0
 28 31  1  0
 31 32  1  0
 31 33  1  0
 31 34  1  0
 34 35  1  0
 34 36  1  0
 34 37  1  0
 37 38  1  0
 37 39  1  0
  2 40  1  0
 40 41  2  0
 41 42  1  0
 41 43  1  0
 43 44  2  0
 44 45  1  0
 44 46  1  0
 46 47  1  0
 46 48  2  0
 48 49  1  0
 19  5  1  0
 37 23  1  0
 48 40  1  0
 16  7  1  0
M  CHG  1  31   1
M  END
>  <UniqueID>  (2) 
499

>  <SMILES>  (2) 
O=c1c2ccccc2nc(/C=C/c2cccnc2)n1CC1CC[NH2+]CC1

>  <Energy>  (2) 
70.44528255794896

>  <Genealogy>  (2) 
O=c1c2ccccc2nc(/C=C/c2cccnc2)n1CC1CC[NH2+]CC1 (protonated)
O=c1c2ccccc2nc(/C=C/c2cccnc2)n1CC1CC[NH2+]CC1 (cis-trans isomerization)
O=c1c2ccccc2nc(/C=C/c2cccnc2)n1CC1CC[NH2+]CC1 (3D coordinates assigned)
O=c1c2ccccc2nc(/C=C/c2cccnc2)n1CC1CC[NH2+]CC1 (nonaromatic ring conformer: 70.44528255794896 kcal/mol)

>  <smiles>  (2) 
O=c1c2ccccc2nc(/C=C/c2cccnc2)n1CC1CCNCC1

>  <score_type>  (2) 
oracle

>  <origin>  (2) 
autodockgpu

>  <m_score__min__energy>  (2) 
-7.5800000000000001

>  <m_primary>  (2) 
energy

>  <meeko>  (2) 
{"free_energy": -7.39, "intermolecular_energy": -8.88, "internal_energy": -2.14, "cluster_size": 20, "cluster_id": 1, "rank_in_cluster": 15}

>  <energy>  (2) 
-7.58

>  <cluster_rmsd>  (2) 
0.04

>  <rmsd>  (2) 
271.38

>  <cluster>  (2) 
1

$$$$
ACXZVNHFWDZWKJ-IDGBLARXNA-O
     RDKit          3D

 49 52  0  0  0  0  0  0  0  0999 V2000
  138.7736   77.6936  223.5138 H   0  0  0  0  0  0  0  0  0  0  0  0
  139.5120   77.8840  222.7210 C   0  0  0  0  0  0  0  0  0  0  0  0
  139.4710   77.1170  221.6200 C   0  0  0  0  0  0  0  0  0  0  0  0
  138.5009   76.9388  221.1330 H   0  0  0  0  0  0  0  0  0  0  0  0
  140.6970   76.4970  221.0330 C   0  0  0  0  0  0  0  0  0  0  0  0
  140.9300   75.1820  221.2930 N   0  0  0  0  0  0  0  0  0  0  0  0
  142.0060   74.5260  220.8070 C   0  0  0  0  0  0  0  0  0  0  0  0
  142.1980   73.1730  221.1100 C   0  0  0  0  0  0  0  0  0  0  0  0
  141.4726   72.6434  221.7450 H   0  0  0  0  0  0  0  0  0  0  0  0
  143.3110   72.4950  220.6060 C   0  0  0  0  0  0  0  0  0  0  0  0
  143.4617   71.4320  220.8455 H   0  0  0  0  0  0  0  0  0  0  0  0
  144.2330   73.1660  219.7980 C   0  0  0  0  0  0  0  0  0  0  0  0
  145.1081   72.6300  219.4019 H   0  0  0  0  0  0  0  0  0  0  0  0
  144.0450   74.5180  219.4920 C   0  0  0  0  0  0  0  0  0  0  0  0
  144.7721   75.0432  218.8552 H   0  0  0  0  0  0  0  0  0  0  0  0
  142.9260   75.2080  219.9980 C   0  0  0  0  0  0  0  0  0  0  0  0
  142.6900   76.5650  219.7210 C   0  0  0  0  0  0  0  0  0  0  0  0
  143.5060   77.1910  218.9870 O   0  0  0  0  0  0  0  0  0  0  0  0
  141.5850   77.2050  220.2410 N   0  0  0  0  0  0  0  0  0  0  0  0
  141.3730   78.6420  219.9420 C   0  0  0  0  0  0  0  0  0  0  0  0
  140.8745   79.1151  220.8009 H   0  0  0  0  0  0  0  0  0  0  0  0
  142.3545   79.1015  219.7537 H   0  0  0  0  0  0  0  0  0  0  0  0
  140.4940   78.8420  218.6770 C   0  0  0  0  0  0  0  0  0  0  0  0
  139.4496   78.7433  219.0080 H   0  0  0  0  0  0  0  0  0  0  0  0
  140.6500   80.2520  218.0720 C   0  0  0  0  0  0  0  0  0  0  0  0
  139.8470   80.4093  217.3369 H   0  0  0  0  0  0  0  0  0  0  0  0
  140.5945   80.9744  218.8997 H   0  0  0  0  0  0  0  0  0  0  0  0
  142.0100   80.4570  217.3680 C   0  0  0  0  0  0  0  0  0  0  0  0
  141.8727   81.1827  216.5528 H   0  0  0  0  0  0  0  0  0  0  0  0
  142.7165   80.8119  218.1328 H   0  0  0  0  0  0  0  0  0  0  0  0
  142.5790   79.2180  216.7980 N   0  0  0  0  0  0  0  0  0  0  0  0
  143.1540   79.4650  215.9590 H   0  0  0  0  0  0  0  0  0  0  0  0
  143.2180   78.7640  217.4930 H   0  0  0  0  0  0  0  0  0  0  0  0
  141.5460   78.2570  216.3910 C   0  0  0  0  0  0  0  0  0  0  0  0
  140.8517   78.7490  215.6940 H   0  0  0  0  0  0  0  0  0  0  0  0
  142.0364   77.4001  215.9061 H   0  0  0  0  0  0  0  0  0  0  0  0
  140.7570   77.7450  217.6100 C   0  0  0  0  0  0  0  0  0  0  0  0
  139.7882   77.3579  217.2612 H   0  0  0  0  0  0  0  0  0  0  0  0
  141.3673   76.9650  218.0886 H   0  0  0  0  0  0  0  0  0  0  0  0
  140.4970   78.9740  222.9290 C   0  0  0  0  0  0  0  0  0  0  0  0
  141.8160   78.6400  223.2770 C   0  0  0  0  0  0  0  0  0  0  0  0
  142.1017   77.5830  223.3828 H   0  0  0  0  0  0  0  0  0  0  0  0
  142.7420   79.6130  223.4840 N   0  0  0  0  0  0  0  0  0  0  0  0
  142.4310   80.9310  223.3720 C   0  0  0  0  0  0  0  0  0  0  0  0
  143.2049   81.6945  223.5395 H   0  0  0  0  0  0  0  0  0  0  0  0
  141.1320   81.3160  223.0450 C   0  0  0  0  0  0  0  0  0  0  0  0
  140.8745   82.3820  222.9593 H   0  0  0  0  0  0  0  0  0  0  0  0
  140.1600   80.3370  222.8270 C   0  0  0  0  0  0  0  0  0  0  0  0
  139.1304   80.6312  222.5754 H   0  0  0  0  0  0  0  0  0  0  0  0
  1  2  1  0
  2  3  2  0
  3  4  1  0
  3  5  1  0
  5  6  2  0
  6  7  1  0
  7  8  2  0
  8  9  1  0
  8 10  1  0
 10 11  1  0
 10 12  2  0
 12 13  1  0
 12 14  1  0
 14 15  1  0
 14 16  2  0
 16 17  1  0
 17 18  2  0
 17 19  1  0
 19 20  1  0
 20 21  1  0
 20 22  1  0
 20 23  1  0
 23 24  1  0
 23 25  1  0
 25 26  1  0
 25 27  1  0
 25 28  1  0
 28 29  1  0
 28 30  1  0
 28 31  1  0
 31 32  1  0
 31 33  1  0
 31 34  1  0
 34 35  1  0
 34 36  1  0
 34 37  1  0
 37 38  1  0
 37 39  1  0
  2 40  1  0
 40 41  2  0
 41 42  1  0
 41 43  1  0
 43 44  2  0
 44 45  1  0
 44 46  1  0
 46 47  1  0
 46 48  2  0
 48 49  1  0
 19  5  1  0
 37 23  1  0
 48 40  1  0
 16  7  1  0
M  CHG  1  31   1
M  END
>  <UniqueID>  (3) 
499

>  <SMILES>  (3) 
O=c1c2ccccc2nc(/C=C/c2cccnc2)n1CC1CC[NH2+]CC1

>  <Energy>  (3) 
70.44528255794896

>  <Genealogy>  (3) 
O=c1c2ccccc2nc(/C=C/c2cccnc2)n1CC1CC[NH2+]CC1 (protonated)
O=c1c2ccccc2nc(/C=C/c2cccnc2)n1CC1CC[NH2+]CC1 (cis-trans isomerization)
O=c1c2ccccc2nc(/C=C/c2cccnc2)n1CC1CC[NH2+]CC1 (3D coordinates assigned)
O=c1c2ccccc2nc(/C=C/c2cccnc2)n1CC1CC[NH2+]CC1 (nonaromatic ring conformer: 70.44528255794896 kcal/mol)

>  <smiles>  (3) 
O=c1c2ccccc2nc(/C=C/c2cccnc2)n1CC1CCNCC1

>  <score_type>  (3) 
oracle

>  <origin>  (3) 
autodockgpu

>  <m_score__min__energy>  (3) 
-7.5800000000000001

>  <m_primary>  (3) 
energy

>  <meeko>  (3) 
{"free_energy": -7.05, "intermolecular_energy": -8.54, "internal_energy": -2.17, "cluster_size": 20, "cluster_id": 1, "rank_in_cluster": 20}

>  <energy>  (3) 
-7.57

>  <cluster_rmsd>  (3) 
0.06

>  <rmsd>  (3) 
271.37

>  <cluster>  (3) 
1

$$$$
ACXZVNHFWDZWKJ-IDGBLARXNA-O
     RDKit          3D

 49 52  0  0  0  0  0  0  0  0999 V2000
  138.3541   78.3219  223.8766 H   0  0  0  0  0  0  0  0  0  0  0  0
  139.1280   78.3380  223.0950 C   0  0  0  0  0  0  0  0  0  0  0  0
  138.9950   77.5010  222.0530 C   0  0  0  0  0  0  0  0  0  0  0  0
  138.0329   77.4652  221.5209 H   0  0  0  0  0  0  0  0  0  0  0  0
  140.1070   76.6170  221.5910 C   0  0  0  0  0  0  0  0  0  0  0  0
  140.0350   75.2940  221.8990 N   0  0  0  0  0  0  0  0  0  0  0  0
  140.9850   74.4100  221.5260 C   0  0  0  0  0  0  0  0  0  0  0  0
  140.8620   73.0600  221.8740 C   0  0  0  0  0  0  0  0  0  0  0  0
  139.9913   72.7185  222.4530 H   0  0  0  0  0  0  0  0  0  0  0  0
  141.8450   72.1460  221.4860 C   0  0  0  0  0  0  0  0  0  0  0  0
  141.7482   71.0853  221.7609 H   0  0  0  0  0  0  0  0  0  0  0  0
  142.9510   72.5780  220.7490 C   0  0  0  0  0  0  0  0  0  0  0  0
  143.7227   71.8561  220.4434 H   0  0  0  0  0  0  0  0  0  0  0  0
  143.0790   73.9260  220.3990 C   0  0  0  0  0  0  0  0  0  0  0  0
  143.9516   74.2627  219.8200 H   0  0  0  0  0  0  0  0  0  0  0  0
  142.0920   74.8530  220.7870 C   0  0  0  0  0  0  0  0  0  0  0  0
  142.1710   76.2170  220.4620 C   0  0  0  0  0  0  0  0  0  0  0  0
  143.1580   76.6310  219.7910 O   0  0  0  0  0  0  0  0  0  0  0  0
  141.1860   77.0930  220.8670 N   0  0  0  0  0  0  0  0  0  0  0  0
  141.3070   78.5300  220.5200 C   0  0  0  0  0  0  0  0  0  0  0  0
  140.7129   79.1203  221.2332 H   0  0  0  0  0  0  0  0  0  0  0  0
  142.3705   78.8065  220.5695 H   0  0  0  0  0  0  0  0  0  0  0  0
  140.7980   78.8180  219.0810 C   0  0  0  0  0  0  0  0  0  0  0  0
  139.7010   78.8677  219.1459 H   0  0  0  0  0  0  0  0  0  0  0  0
  141.2860   80.1810  218.5480 C   0  0  0  0  0  0  0  0  0  0  0  0
  140.7151   80.4280  217.6408 H   0  0  0  0  0  0  0  0  0  0  0  0
  141.1288   80.9227  219.3450 H   0  0  0  0  0  0  0  0  0  0  0  0
  142.7910   80.1860  218.2000 C   0  0  0  0  0  0  0  0  0  0  0  0
  142.9559   80.9053  217.3843 H   0  0  0  0  0  0  0  0  0  0  0  0
  143.3312   80.4596  219.1183 H   0  0  0  0  0  0  0  0  0  0  0  0
  143.3090   78.8690  217.7720 N   0  0  0  0  0  0  0  0  0  0  0  0
  144.0990   79.0180  217.1020 H   0  0  0  0  0  0  0  0  0  0  0  0
  143.6920   78.3500  218.5960 H   0  0  0  0  0  0  0  0  0  0  0  0
  142.2860   78.0470  217.1140 C   0  0  0  0  0  0  0  0  0  0  0  0
  141.8553   78.6126  216.2746 H   0  0  0  0  0  0  0  0  0  0  0  0
  142.7588   77.1217  216.7531 H   0  0  0  0  0  0  0  0  0  0  0  0
  141.1620   77.6720  218.0980 C   0  0  0  0  0  0  0  0  0  0  0  0
  140.2641   77.4103  217.5190 H   0  0  0  0  0  0  0  0  0  0  0  0
  141.5263   76.8281  218.7022 H   0  0  0  0  0  0  0  0  0  0  0  0
  140.2610   79.2830  223.2500 C   0  0  0  0  0  0  0  0  0  0  0  0
  140.0790   80.6270  222.8840 C   0  0  0  0  0  0  0  0  0  0  0  0
  139.1049   80.9605  222.4968 H   0  0  0  0  0  0  0  0  0  0  0  0
  141.0980   81.5180  223.0050 N   0  0  0  0  0  0  0  0  0  0  0  0
  142.3200   81.1490  223.4700 C   0  0  0  0  0  0  0  0  0  0  0  0
  143.1218   81.8963  223.5625 H   0  0  0  0  0  0  0  0  0  0  0  0
  142.5580   79.8230  223.8300 C   0  0  0  0  0  0  0  0  0  0  0  0
  143.5480   79.5178  224.1999 H   0  0  0  0  0  0  0  0  0  0  0  0
  141.5290   78.8860  223.7170 C   0  0  0  0  0  0  0  0  0  0  0  0
  141.7089   77.8365  223.9930 H   0  0  0  0  0  0  0  0  0  0  0  0
  1  2  1  0
  2  3  2  0
  3  4  1  0
  3  5  1  0
  5  6  2  0
  6  7  1  0
  7  8  2  0
  8  9  1  0
  8 10  1  0
 10 11  1  0
 10 12  2  0
 12 13  1  0
 12 14  1  0
 14 15  1  0
 14 16  2  0
 16 17  1  0
 17 18  2  0
 17 19  1  0
 19 20  1  0
 20 21  1  0
 20 22  1  0
 20 23  1  0
 23 24  1  0
 23 25  1  0
 25 26  1  0
 25 27  1  0
 25 28  1  0
 28 29  1  0
 28 30  1  0
 28 31  1  0
 31 32  1  0
 31 33  1  0
 31 34  1  0
 34 35  1  0
 34 36  1  0
 34 37  1  0
 37 38  1  0
 37 39  1  0
  2 40  1  0
 40 41  2  0
 41 42  1  0
 41 43  1  0
 43 44  2  0
 44 45  1  0
 44 46  1  0
 46 47  1  0
 46 48  2  0
 48 49  1  0
 19  5  1  0
 37 23  1  0
 48 40  1  0
 16  7  1  0
M  CHG  1  31   1
M  END
>  <UniqueID>  (4) 
499

>  <SMILES>  (4) 
O=c1c2ccccc2nc(/C=C/c2cccnc2)n1CC1CC[NH2+]CC1

>  <Energy>  (4) 
70.44528255794896

>  <Genealogy>  (4) 
O=c1c2ccccc2nc(/C=C/c2cccnc2)n1CC1CC[NH2+]CC1 (protonated)
O=c1c2ccccc2nc(/C=C/c2cccnc2)n1CC1CC[NH2+]CC1 (cis-trans isomerization)
O=c1c2ccccc2nc(/C=C/c2cccnc2)n1CC1CC[NH2+]CC1 (3D coordinates assigned)
O=c1c2ccccc2nc(/C=C/c2cccnc2)n1CC1CC[NH2+]CC1 (nonaromatic ring conformer: 70.44528255794896 kcal/mol)

>  <smiles>  (4) 
O=c1c2ccccc2nc(/C=C/c2cccnc2)n1CC1CCNCC1

>  <score_type>  (4) 
oracle

>  <origin>  (4) 
autodockgpu

>  <m_score__min__energy>  (4) 
-7.5800000000000001

>  <m_primary>  (4) 
energy

>  <meeko>  (4) 
{"free_energy": -7.57, "intermolecular_energy": -9.06, "internal_energy": -1.98, "cluster_size": 20, "cluster_id": 1, "rank_in_cluster": 4}

>  <energy>  (4) 
-7.57

>  <cluster_rmsd>  (4) 
0.03

>  <rmsd>  (4) 
271.38

>  <cluster>  (4) 
1

$$$$
ACXZVNHFWDZWKJ-IDGBLARXNA-O
     RDKit          3D

 49 52  0  0  0  0  0  0  0  0999 V2000
  138.4283   78.2610  223.9003 H   0  0  0  0  0  0  0  0  0  0  0  0
  139.1810   78.3290  223.1010 C   0  0  0  0  0  0  0  0  0  0  0  0
  139.0490   77.5230  222.0350 C   0  0  0  0  0  0  0  0  0  0  0  0
  138.0857   77.4987  221.5044 H   0  0  0  0  0  0  0  0  0  0  0  0
  140.1640   76.6580  221.5440 C   0  0  0  0  0  0  0  0  0  0  0  0
  140.1070   75.3280  221.8270 N   0  0  0  0  0  0  0  0  0  0  0  0
  141.0620   74.4610  221.4250 C   0  0  0  0  0  0  0  0  0  0  0  0
  140.9540   73.1030  221.7480 C   0  0  0  0  0  0  0  0  0  0  0  0
  140.0928   72.7424  222.3296 H   0  0  0  0  0  0  0  0  0  0  0  0
  141.9410   72.2060  221.3310 C   0  0  0  0  0  0  0  0  0  0  0  0
  141.8562   71.1390  221.5846 H   0  0  0  0  0  0  0  0  0  0  0  0
  143.0360   72.6630  220.5920 C   0  0  0  0  0  0  0  0  0  0  0  0
  143.8119   71.9549  220.2655 H   0  0  0  0  0  0  0  0  0  0  0  0
  143.1470   74.0180  220.2670 C   0  0  0  0  0  0  0  0  0  0  0  0
  144.0096   74.3742  219.6847 H   0  0  0  0  0  0  0  0  0  0  0  0
  142.1560   74.9280  220.6840 C   0  0  0  0  0  0  0  0  0  0  0  0
  142.2190   76.3000  220.3850 C   0  0  0  0  0  0  0  0  0  0  0  0
  143.1960   76.7360  219.7120 O   0  0  0  0  0  0  0  0  0  0  0  0
  141.2310   77.1580  220.8190 N   0  0  0  0  0  0  0  0  0  0  0  0
  141.3350   78.6030  220.4980 C   0  0  0  0  0  0  0  0  0  0  0  0
  140.8419   79.1811  221.2933 H   0  0  0  0  0  0  0  0  0  0  0  0
  142.4016   78.8620  220.4255 H   0  0  0  0  0  0  0  0  0  0  0  0
  140.6620   78.9400  219.1400 C   0  0  0  0  0  0  0  0  0  0  0  0
  139.5862   79.0421  219.3453 H   0  0  0  0  0  0  0  0  0  0  0  0
  141.1480   80.2860  218.5640 C   0  0  0  0  0  0  0  0  0  0  0  0
  140.4795   80.5770  217.7403 H   0  0  0  0  0  0  0  0  0  0  0  0
  141.1325   81.0201  219.3830 H   0  0  0  0  0  0  0  0  0  0  0  0
  142.5940   80.2230  218.0260 C   0  0  0  0  0  0  0  0  0  0  0  0
  142.6901   80.9478  217.2041 H   0  0  0  0  0  0  0  0  0  0  0  0
  143.2603   80.4531  218.8705 H   0  0  0  0  0  0  0  0  0  0  0  0
  142.9850   78.8900  217.5200 N   0  0  0  0  0  0  0  0  0  0  0  0
  143.6910   79.0110  216.7560 H   0  0  0  0  0  0  0  0  0  0  0  0
  143.4430   78.3380  218.2840 H   0  0  0  0  0  0  0  0  0  0  0  0
  141.8460   78.1310  216.9910 C   0  0  0  0  0  0  0  0  0  0  0  0
  141.3412   78.7313  216.2197 H   0  0  0  0  0  0  0  0  0  0  0  0
  142.2214   77.1896  216.5635 H   0  0  0  0  0  0  0  0  0  0  0  0
  140.8390   77.7950  218.1060 C   0  0  0  0  0  0  0  0  0  0  0  0
  139.8625   77.5881  217.6437 H   0  0  0  0  0  0  0  0  0  0  0  0
  141.2336   76.9238  218.6494 H   0  0  0  0  0  0  0  0  0  0  0  0
  140.2860   79.3060  223.2600 C   0  0  0  0  0  0  0  0  0  0  0  0
  140.0660   80.6450  222.8970 C   0  0  0  0  0  0  0  0  0  0  0  0
  139.0831   80.9513  222.5096 H   0  0  0  0  0  0  0  0  0  0  0  0
  141.0590   81.5650  223.0210 N   0  0  0  0  0  0  0  0  0  0  0  0
  142.2910   81.2290  223.4870 C   0  0  0  0  0  0  0  0  0  0  0  0
  143.0715   81.9983  223.5817 H   0  0  0  0  0  0  0  0  0  0  0  0
  142.5660   79.9100  223.8450 C   0  0  0  0  0  0  0  0  0  0  0  0
  143.5635   79.6324  224.2164 H   0  0  0  0  0  0  0  0  0  0  0  0
  141.5640   78.9440  223.7280 C   0  0  0  0  0  0  0  0  0  0  0  0
  141.7733   77.8994  224.0017 H   0  0  0  0  0  0  0  0  0  0  0  0
  1  2  1  0
  2  3  2  0
  3  4  1  0
  3  5  1  0
  5  6  2  0
  6  7  1  0
  7  8  2  0
  8  9  1  0
  8 10  1  0
 10 11  1  0
 10 12  2  0
 12 13  1  0
 12 14  1  0
 14 15  1  0
 14 16  2  0
 16 17  1  0
 17 18  2  0
 17 19  1  0
 19 20  1  0
 20 21  1  0
 20 22  1  0
 20 23  1  0
 23 24  1  0
 23 25  1  0
 25 26  1  0
 25 27  1  0
 25 28  1  0
 28 29  1  0
 28 30  1  0
 28 31  1  0
 31 32  1  0
 31 33  1  0
 31 34  1  0
 34 35  1  0
 34 36  1  0
 34 37  1  0
 37 38  1  0
 37 39  1  0
  2 40  1  0
 40 41  2  0
 41 42  1  0
 41 43  1  0
 43 44  2  0
 44 45  1  0
 44 46  1  0
 46 47  1  0
 46 48  2  0
 48 49  1  0
 19  5  1  0
 37 23  1  0
 48 40  1  0
 16  7  1  0
M  CHG  1  31   1
M  END
>  <UniqueID>  (5) 
499

>  <SMILES>  (5) 
O=c1c2ccccc2nc(/C=C/c2cccnc2)n1CC1CC[NH2+]CC1

>  <Energy>  (5) 
70.44528255794896

>  <Genealogy>  (5) 
O=c1c2ccccc2nc(/C=C/c2cccnc2)n1CC1CC[NH2+]CC1 (protonated)
O=c1c2ccccc2nc(/C=C/c2cccnc2)n1CC1CC[NH2+]CC1 (cis-trans isomerization)
O=c1c2ccccc2nc(/C=C/c2cccnc2)n1CC1CC[NH2+]CC1 (3D coordinates assigned)
O=c1c2ccccc2nc(/C=C/c2cccnc2)n1CC1CC[NH2+]CC1 (nonaromatic ring conformer: 70.44528255794896 kcal/mol)

>  <smiles>  (5) 
O=c1c2ccccc2nc(/C=C/c2cccnc2)n1CC1CCNCC1

>  <score_type>  (5) 
oracle

>  <origin>  (5) 
autodockgpu

>  <m_score__min__energy>  (5) 
-7.5800000000000001

>  <m_primary>  (5) 
energy

>  <meeko>  (5) 
{"free_energy": -7.39, "intermolecular_energy": -8.88, "internal_energy": -2.15, "cluster_size": 20, "cluster_id": 1, "rank_in_cluster": 13}

>  <energy>  (5) 
-7.56

>  <cluster_rmsd>  (5) 
0.06

>  <rmsd>  (5) 
271.36

>  <cluster>  (5) 
1

$$$$
ACXZVNHFWDZWKJ-IDGBLARXNA-O
     RDKit          3D

 49 52  0  0  0  0  0  0  0  0999 V2000
  138.3171   78.4273  223.8666 H   0  0  0  0  0  0  0  0  0  0  0  0
  139.0970   78.4150  223.0910 C   0  0  0  0  0  0  0  0  0  0  0  0
  138.9520   77.5680  222.0600 C   0  0  0  0  0  0  0  0  0  0  0  0
  137.9862   77.5314  221.5347 H   0  0  0  0  0  0  0  0  0  0  0  0
  140.0570   76.6730  221.6010 C   0  0  0  0  0  0  0  0  0  0  0  0
  139.9730   75.3510  221.9080 N   0  0  0  0  0  0  0  0  0  0  0  0
  140.9160   74.4580  221.5360 C   0  0  0  0  0  0  0  0  0  0  0  0
  140.7790   73.1090  221.8840 C   0  0  0  0  0  0  0  0  0  0  0  0
  139.9038   72.7756  222.4609 H   0  0  0  0  0  0  0  0  0  0  0  0
  141.7550   72.1860  221.4980 C   0  0  0  0  0  0  0  0  0  0  0  0
  141.6478   71.1261  221.7722 H   0  0  0  0  0  0  0  0  0  0  0  0
  142.8670   72.6080  220.7640 C   0  0  0  0  0  0  0  0  0  0  0  0
  143.6335   71.8795  220.4610 H   0  0  0  0  0  0  0  0  0  0  0  0
  143.0070   73.9550  220.4140 C   0  0  0  0  0  0  0  0  0  0  0  0
  143.8830   74.2839  219.8356 H   0  0  0  0  0  0  0  0  0  0  0  0
  142.0280   74.8910  220.8010 C   0  0  0  0  0  0  0  0  0  0  0  0
  142.1200   76.2540  220.4760 C   0  0  0  0  0  0  0  0  0  0  0  0
  143.1130   76.6590  219.8070 O   0  0  0  0  0  0  0  0  0  0  0  0
  141.1430   77.1390  220.8790 N   0  0  0  0  0  0  0  0  0  0  0  0
  141.2780   78.5750  220.5320 C   0  0  0  0  0  0  0  0  0  0  0  0
  140.6946   79.1713  221.2489 H   0  0  0  0  0  0  0  0  0  0  0  0
  142.3449   78.8394  220.5753 H   0  0  0  0  0  0  0  0  0  0  0  0
  140.7640   78.8700  219.0960 C   0  0  0  0  0  0  0  0  0  0  0  0
  139.6680   78.9329  219.1662 H   0  0  0  0  0  0  0  0  0  0  0  0
  141.2650   80.2270  218.5620 C   0  0  0  0  0  0  0  0  0  0  0  0
  140.6922   80.4816  217.6581 H   0  0  0  0  0  0  0  0  0  0  0  0
  141.1208   80.9696  219.3606 H   0  0  0  0  0  0  0  0  0  0  0  0
  142.7680   80.2150  218.2060 C   0  0  0  0  0  0  0  0  0  0  0  0
  142.9370   80.9338  217.3907 H   0  0  0  0  0  0  0  0  0  0  0  0
  143.3163   80.4806  219.1218 H   0  0  0  0  0  0  0  0  0  0  0  0
  143.2680   78.8930  217.7730 N   0  0  0  0  0  0  0  0  0  0  0  0
  144.0560   79.0330  217.0990 H   0  0  0  0  0  0  0  0  0  0  0  0
  143.6490   78.3680  218.5960 H   0  0  0  0  0  0  0  0  0  0  0  0
  142.2310   78.0830  217.1210 C   0  0  0  0  0  0  0  0  0  0  0  0
  141.8016   78.6541  216.2847 H   0  0  0  0  0  0  0  0  0  0  0  0
  142.6911   77.1525  216.7570 H   0  0  0  0  0  0  0  0  0  0  0  0
  141.1090   77.7200  218.1110 C   0  0  0  0  0  0  0  0  0  0  0  0
  140.2048   77.4685  217.5372 H   0  0  0  0  0  0  0  0  0  0  0  0
  141.4669   76.8716  218.7127 H   0  0  0  0  0  0  0  0  0  0  0  0
  140.2510   79.3360  223.2430 C   0  0  0  0  0  0  0  0  0  0  0  0
  140.0950   80.6840  222.8810 C   0  0  0  0  0  0  0  0  0  0  0  0
  139.1259   81.0387  222.5002 H   0  0  0  0  0  0  0  0  0  0  0  0
  141.1340   81.5540  222.9980 N   0  0  0  0  0  0  0  0  0  0  0  0
  142.3510   81.1570  223.4550 C   0  0  0  0  0  0  0  0  0  0  0  0
  143.1696   81.8863  223.5441 H   0  0  0  0  0  0  0  0  0  0  0  0
  142.5620   79.8250  223.8110 C   0  0  0  0  0  0  0  0  0  0  0  0
  143.5469   79.4974  224.1752 H   0  0  0  0  0  0  0  0  0  0  0  0
  141.5120   78.9110  223.7010 C   0  0  0  0  0  0  0  0  0  0  0  0
  141.6708   77.8570  223.9728 H   0  0  0  0  0  0  0  0  0  0  0  0
  1  2  1  0
  2  3  2  0
  3  4  1  0
  3  5  1  0
  5  6  2  0
  6  7  1  0
  7  8  2  0
  8  9  1  0
  8 10  1  0
 10 11  1  0
 10 12  2  0
 12 13  1  0
 12 14  1  0
 14 15  1  0
 14 16  2  0
 16 17  1  0
 17 18  2  0
 17 19  1  0
 19 20  1  0
 20 21  1  0
 20 22  1  0
 20 23  1  0
 23 24  1  0
 23 25  1  0
 25 26  1  0
 25 27  1  0
 25 28  1  0
 28 29  1  0
 28 30  1  0
 28 31  1  0
 31 32  1  0
 31 33  1  0
 31 34  1  0
 34 35  1  0
 34 36  1  0
 34 37  1  0
 37 38  1  0
 37 39  1  0
  2 40  1  0
 40 41  2  0
 41 42  1  0
 41 43  1  0
 43 44  2  0
 44 45  1  0
 44 46  1  0
 46 47  1  0
 46 48  2  0
 48 49  1  0
 19  5  1  0
 37 23  1  0
 48 40  1  0
 16  7  1  0
M  CHG  1  31   1
M  END
>  <UniqueID>  (6) 
499

>  <SMILES>  (6) 
O=c1c2ccccc2nc(/C=C/c2cccnc2)n1CC1CC[NH2+]CC1

>  <Energy>  (6) 
70.44528255794896

>  <Genealogy>  (6) 
O=c1c2ccccc2nc(/C=C/c2cccnc2)n1CC1CC[NH2+]CC1 (protonated)
O=c1c2ccccc2nc(/C=C/c2cccnc2)n1CC1CC[NH2+]CC1 (cis-trans isomerization)
O=c1c2ccccc2nc(/C=C/c2cccnc2)n1CC1CC[NH2+]CC1 (3D coordinates assigned)
O=c1c2ccccc2nc(/C=C/c2cccnc2)n1CC1CC[NH2+]CC1 (nonaromatic ring conformer: 70.44528255794896 kcal/mol)

>  <smiles>  (6) 
O=c1c2ccccc2nc(/C=C/c2cccnc2)n1CC1CCNCC1

>  <score_type>  (6) 
oracle

>  <origin>  (6) 
autodockgpu

>  <m_score__min__energy>  (6) 
-7.5800000000000001

>  <m_primary>  (6) 
energy

>  <meeko>  (6) 
{"free_energy": -7.57, "intermolecular_energy": -9.06, "internal_energy": -1.98, "cluster_size": 20, "cluster_id": 1, "rank_in_cluster": 3}

>  <energy>  (6) 
-7.54

>  <cluster_rmsd>  (6) 
0.07

>  <rmsd>  (6) 
271.37

>  <cluster>  (6) 
1

$$$$
ACXZVNHFWDZWKJ-IDGBLARXNA-O
     RDKit          3D

 49 52  0  0  0  0  0  0  0  0999 V2000
  138.3299   78.3506  223.8716 H   0  0  0  0  0  0  0  0  0  0  0  0
  139.1070   78.3530  223.0930 C   0  0  0  0  0  0  0  0  0  0  0  0
  138.9710   77.5070  222.0590 C   0  0  0  0  0  0  0  0  0  0  0  0
  138.0062   77.4629  221.5325 H   0  0  0  0  0  0  0  0  0  0  0  0
  140.0840   76.6240  221.5990 C   0  0  0  0  0  0  0  0  0  0  0  0
  140.0190   75.3020  221.9160 N   0  0  0  0  0  0  0  0  0  0  0  0
  140.9720   74.4200  221.5440 C   0  0  0  0  0  0  0  0  0  0  0  0
  140.8550   73.0710  221.9020 C   0  0  0  0  0  0  0  0  0  0  0  0
  139.9879   72.7303  222.4869 H   0  0  0  0  0  0  0  0  0  0  0  0
  141.8400   72.1580  221.5160 C   0  0  0  0  0  0  0  0  0  0  0  0
  141.7489   71.0988  221.7986 H   0  0  0  0  0  0  0  0  0  0  0  0
  142.9410   72.5900  220.7710 C   0  0  0  0  0  0  0  0  0  0  0  0
  143.7150   71.8696  220.4680 H   0  0  0  0  0  0  0  0  0  0  0  0
  143.0610   73.9350  220.4100 C   0  0  0  0  0  0  0  0  0  0  0  0
  143.9284   74.2707  219.8228 H   0  0  0  0  0  0  0  0  0  0  0  0
  142.0730   74.8610  220.7970 C   0  0  0  0  0  0  0  0  0  0  0  0
  142.1450   76.2240  220.4620 C   0  0  0  0  0  0  0  0  0  0  0  0
  143.1270   76.6370  219.7830 O   0  0  0  0  0  0  0  0  0  0  0  0
  141.1590   77.0990  220.8660 N   0  0  0  0  0  0  0  0  0  0  0  0
  141.2720   78.5340  220.5080 C   0  0  0  0  0  0  0  0  0  0  0  0
  140.6738   79.1263  221.2161 H   0  0  0  0  0  0  0  0  0  0  0  0
  142.3339   78.8169  220.5562 H   0  0  0  0  0  0  0  0  0  0  0  0
  140.7630   78.8080  219.0670 C   0  0  0  0  0  0  0  0  0  0  0  0
  139.6657   78.8509  219.1302 H   0  0  0  0  0  0  0  0  0  0  0  0
  141.2440   80.1700  218.5250 C   0  0  0  0  0  0  0  0  0  0  0  0
  140.6729   80.4071  217.6153 H   0  0  0  0  0  0  0  0  0  0  0  0
  141.0815   80.9162  219.3167 H   0  0  0  0  0  0  0  0  0  0  0  0
  142.7490   80.1820  218.1790 C   0  0  0  0  0  0  0  0  0  0  0  0
  142.9104   80.8966  217.3585 H   0  0  0  0  0  0  0  0  0  0  0  0
  143.2861   80.4653  219.0962 H   0  0  0  0  0  0  0  0  0  0  0  0
  143.2760   78.8660  217.7610 N   0  0  0  0  0  0  0  0  0  0  0  0
  144.0660   79.0150  217.0910 H   0  0  0  0  0  0  0  0  0  0  0  0
  143.6610   78.3540  218.5900 H   0  0  0  0  0  0  0  0  0  0  0  0
  142.2590   78.0330  217.1080 C   0  0  0  0  0  0  0  0  0  0  0  0
  141.8258   78.5901  216.2642 H   0  0  0  0  0  0  0  0  0  0  0  0
  142.7386   77.1082  216.7549 H   0  0  0  0  0  0  0  0  0  0  0  0
  141.1360   77.6570  218.0920 C   0  0  0  0  0  0  0  0  0  0  0  0
  140.2408   77.3857  217.5132 H   0  0  0  0  0  0  0  0  0  0  0  0
  141.5042   76.8192  218.7023 H   0  0  0  0  0  0  0  0  0  0  0  0
  140.2470   79.2910  223.2440 C   0  0  0  0  0  0  0  0  0  0  0  0
  140.0710   80.6360  222.8830 C   0  0  0  0  0  0  0  0  0  0  0  0
  139.0963   80.9763  222.5034 H   0  0  0  0  0  0  0  0  0  0  0  0
  141.0960   81.5210  222.9990 N   0  0  0  0  0  0  0  0  0  0  0  0
  142.3200   81.1420  223.4540 C   0  0  0  0  0  0  0  0  0  0  0  0
  143.1276   81.8837  223.5420 H   0  0  0  0  0  0  0  0  0  0  0  0
  142.5520   79.8140  223.8090 C   0  0  0  0  0  0  0  0  0  0  0  0
  143.5423   79.5015  224.1718 H   0  0  0  0  0  0  0  0  0  0  0  0
  141.5160   78.8840  223.7000 C   0  0  0  0  0  0  0  0  0  0  0  0
  141.6912   77.8323  223.9706 H   0  0  0  0  0  0  0  0  0  0  0  0
  1  2  1  0
  2  3  2  0
  3  4  1  0
  3  5  1  0
  5  6  2  0
  6  7  1  0
  7  8  2  0
  8  9  1  0
  8 10  1  0
 10 11  1  0
 10 12  2  0
 12 13  1  0
 12 14  1  0
 14 15  1  0
 14 16  2  0
 16 17  1  0
 17 18  2  0
 17 19  1  0
 19 20  1  0
 20 21  1  0
 20 22  1  0
 20 23  1  0
 23 24  1  0
 23 25  1  0
 25 26  1  0
 25 27  1  0
 25 28  1  0
 28 29  1  0
 28 30  1  0
 28 31  1  0
 31 32  1  0
 31 33  1  0
 31 34  1  0
 34 35  1  0
 34 36  1  0
 34 37  1  0
 37 38  1  0
 37 39  1  0
  2 40  1  0
 40 41  2  0
 41 42  1  0
 41 43  1  0
 43 44  2  0
 44 45  1  0
 44 46  1  0
 46 47  1  0
 46 48  2  0
 48 49  1  0
 19  5  1  0
 37 23  1  0
 48 40  1  0
 16  7  1  0
M  CHG  1  31   1
M  END
>  <UniqueID>  (7) 
499

>  <SMILES>  (7) 
O=c1c2ccccc2nc(/C=C/c2cccnc2)n1CC1CC[NH2+]CC1

>  <Energy>  (7) 
70.44528255794896

>  <Genealogy>  (7) 
O=c1c2ccccc2nc(/C=C/c2cccnc2)n1CC1CC[NH2+]CC1 (protonated)
O=c1c2ccccc2nc(/C=C/c2cccnc2)n1CC1CC[NH2+]CC1 (cis-trans isomerization)
O=c1c2ccccc2nc(/C=C/c2cccnc2)n1CC1CC[NH2+]CC1 (3D coordinates assigned)
O=c1c2ccccc2nc(/C=C/c2cccnc2)n1CC1CC[NH2+]CC1 (nonaromatic ring conformer: 70.44528255794896 kcal/mol)

>  <smiles>  (7) 
O=c1c2ccccc2nc(/C=C/c2cccnc2)n1CC1CCNCC1

>  <score_type>  (7) 
oracle

>  <origin>  (7) 
autodockgpu

>  <m_score__min__energy>  (7) 
-7.5800000000000001

>  <m_primary>  (7) 
energy

>  <meeko>  (7) 
{"free_energy": -7.58, "intermolecular_energy": -9.07, "internal_energy": -1.97, "cluster_size": 20, "cluster_id": 1, "rank_in_cluster": 1}

>  <energy>  (7) 
-7.4

>  <cluster_rmsd>  (7) 
0.2

>  <rmsd>  (7) 
271.33

>  <cluster>  (7) 
1

$$$$
ACXZVNHFWDZWKJ-IDGBLARXNA-O
     RDKit          3D

 49 52  0  0  0  0  0  0  0  0999 V2000
  138.4335   78.2499  223.8927 H   0  0  0  0  0  0  0  0  0  0  0  0
  139.1840   78.3250  223.0920 C   0  0  0  0  0  0  0  0  0  0  0  0
  139.0500   77.5270  222.0200 C   0  0  0  0  0  0  0  0  0  0  0  0
  138.0877   77.5107  221.4873 H   0  0  0  0  0  0  0  0  0  0  0  0
  140.1620   76.6610  221.5260 C   0  0  0  0  0  0  0  0  0  0  0  0
  140.0980   75.3290  221.7990 N   0  0  0  0  0  0  0  0  0  0  0  0
  141.0490   74.4600  221.3940 C   0  0  0  0  0  0  0  0  0  0  0  0
  140.9340   73.1000  221.7070 C   0  0  0  0  0  0  0  0  0  0  0  0
  140.0693   72.7394  222.2834 H   0  0  0  0  0  0  0  0  0  0  0  0
  141.9180   72.2010  221.2870 C   0  0  0  0  0  0  0  0  0  0  0  0
  141.8283   71.1329  221.5343 H   0  0  0  0  0  0  0  0  0  0  0  0
  143.0160   72.6580  220.5530 C   0  0  0  0  0  0  0  0  0  0  0  0
  143.7888   71.9482  220.2229 H   0  0  0  0  0  0  0  0  0  0  0  0
  143.1350   74.0150  220.2370 C   0  0  0  0  0  0  0  0  0  0  0  0
  144.0002   74.3706  219.6583 H   0  0  0  0  0  0  0  0  0  0  0  0
  142.1480   74.9270  220.6590 C   0  0  0  0  0  0  0  0  0  0  0  0
  142.2180   76.3000  220.3690 C   0  0  0  0  0  0  0  0  0  0  0  0
  143.1980   76.7360  219.7010 O   0  0  0  0  0  0  0  0  0  0  0  0
  141.2340   77.1610  220.8060 N   0  0  0  0  0  0  0  0  0  0  0  0
  141.3450   78.6070  220.4960 C   0  0  0  0  0  0  0  0  0  0  0  0
  140.8600   79.1818  221.2987 H   0  0  0  0  0  0  0  0  0  0  0  0
  142.4127   78.8601  220.4194 H   0  0  0  0  0  0  0  0  0  0  0  0
  140.6660   78.9590  219.1440 C   0  0  0  0  0  0  0  0  0  0  0  0
  139.5926   79.0704  219.3572 H   0  0  0  0  0  0  0  0  0  0  0  0
  141.1600   80.3040  218.5730 C   0  0  0  0  0  0  0  0  0  0  0  0
  140.4884   80.6065  217.7560 H   0  0  0  0  0  0  0  0  0  0  0  0
  141.1570   81.0335  219.3963 H   0  0  0  0  0  0  0  0  0  0  0  0
  142.6020   80.2300  218.0240 C   0  0  0  0  0  0  0  0  0  0  0  0
  142.6993   80.9583  217.2054 H   0  0  0  0  0  0  0  0  0  0  0  0
  143.2767   80.4491  218.8647 H   0  0  0  0  0  0  0  0  0  0  0  0
  142.9760   78.8960  217.5080 N   0  0  0  0  0  0  0  0  0  0  0  0
  143.6770   79.0150  216.7390 H   0  0  0  0  0  0  0  0  0  0  0  0
  143.4340   78.3350  218.2640 H   0  0  0  0  0  0  0  0  0  0  0  0
  141.8260   78.1510  216.9820 C   0  0  0  0  0  0  0  0  0  0  0  0
  141.3216   78.7608  216.2179 H   0  0  0  0  0  0  0  0  0  0  0  0
  142.1892   77.2088  216.5458 H   0  0  0  0  0  0  0  0  0  0  0  0
  140.8240   77.8180  218.1020 C   0  0  0  0  0  0  0  0  0  0  0  0
  139.8422   77.6234  217.6457 H   0  0  0  0  0  0  0  0  0  0  0  0
  141.2136   76.9395  218.6372 H   0  0  0  0  0  0  0  0  0  0  0  0
  140.2880   79.3020  223.2560 C   0  0  0  0  0  0  0  0  0  0  0  0
  140.0680   80.6420  222.8970 C   0  0  0  0  0  0  0  0  0  0  0  0
  139.0857   80.9490  222.5086 H   0  0  0  0  0  0  0  0  0  0  0  0
  141.0600   81.5620  223.0260 N   0  0  0  0  0  0  0  0  0  0  0  0
  142.2920   81.2260  223.4930 C   0  0  0  0  0  0  0  0  0  0  0  0
  143.0718   81.9956  223.5909 H   0  0  0  0  0  0  0  0  0  0  0  0
  142.5670   79.9050  223.8480 C   0  0  0  0  0  0  0  0  0  0  0  0
  143.5635   79.6263  224.2212 H   0  0  0  0  0  0  0  0  0  0  0  0
  141.5650   78.9400  223.7250 C   0  0  0  0  0  0  0  0  0  0  0  0
  141.7741   77.8944  223.9953 H   0  0  0  0  0  0  0  0  0  0  0  0
  1  2  1  0
  2  3  2  0
  3  4  1  0
  3  5  1  0
  5  6  2  0
  6  7  1  0
  7  8  2  0
  8  9  1  0
  8 10  1  0
 10 11  1  0
 10 12  2  0
 12 13  1  0
 12 14  1  0
 14 15  1  0
 14 16  2  0
 16 17  1  0
 17 18  2  0
 17 19  1  0
 19 20  1  0
 20 21  1  0
 20 22  1  0
 20 23  1  0
 23 24  1  0
 23 25  1  0
 25 26  1  0
 25 27  1  0
 25 28  1  0
 28 29  1  0
 28 30  1  0
 28 31  1  0
 31 32  1  0
 31 33  1  0
 31 34  1  0
 34 35  1  0
 34 36  1  0
 34 37  1  0
 37 38  1  0
 37 39  1  0
  2 40  1  0
 40 41  2  0
 41 42  1  0
 41 43  1  0
 43 44  2  0
 44 45  1  0
 44 46  1  0
 46 47  1  0
 46 48  2  0
 48 49  1  0
 19  5  1  0
 37 23  1  0
 48 40  1  0
 16  7  1  0
M  CHG  1  31   1
M  END
>  <UniqueID>  (8) 
499

>  <SMILES>  (8) 
O=c1c2ccccc2nc(/C=C/c2cccnc2)n1CC1CC[NH2+]CC1

>  <Energy>  (8) 
70.44528255794896

>  <Genealogy>  (8) 
O=c1c2ccccc2nc(/C=C/c2cccnc2)n1CC1CC[NH2+]CC1 (protonated)
O=c1c2ccccc2nc(/C=C/c2cccnc2)n1CC1CC[NH2+]CC1 (cis-trans isomerization)
O=c1c2ccccc2nc(/C=C/c2cccnc2)n1CC1CC[NH2+]CC1 (3D coordinates assigned)
O=c1c2ccccc2nc(/C=C/c2cccnc2)n1CC1CC[NH2+]CC1 (nonaromatic ring conformer: 70.44528255794896 kcal/mol)

>  <smiles>  (8) 
O=c1c2ccccc2nc(/C=C/c2cccnc2)n1CC1CCNCC1

>  <score_type>  (8) 
oracle

>  <origin>  (8) 
autodockgpu

>  <m_score__min__energy>  (8) 
-7.5800000000000001

>  <m_primary>  (8) 
energy

>  <meeko>  (8) 
{"free_energy": -7.38, "intermolecular_energy": -8.88, "internal_energy": -2.15, "cluster_size": 20, "cluster_id": 1, "rank_in_cluster": 18}

>  <energy>  (8) 
-7.4

>  <cluster_rmsd>  (8) 
0.21

>  <rmsd>  (8) 
271.34

>  <cluster>  (8) 
1

$$$$
ACXZVNHFWDZWKJ-IDGBLARXNA-O
     RDKit          3D

 49 52  0  0  0  0  0  0  0  0999 V2000
  138.4200   78.3059  223.9127 H   0  0  0  0  0  0  0  0  0  0  0  0
  139.1700   78.3740  223.1110 C   0  0  0  0  0  0  0  0  0  0  0  0
  139.0330   77.5690  222.0440 C   0  0  0  0  0  0  0  0  0  0  0  0
  138.0714   77.5537  221.5101 H   0  0  0  0  0  0  0  0  0  0  0  0
  140.1420   76.6940  221.5580 C   0  0  0  0  0  0  0  0  0  0  0  0
  140.0670   75.3640  221.8320 N   0  0  0  0  0  0  0  0  0  0  0  0
  141.0150   74.4880  221.4340 C   0  0  0  0  0  0  0  0  0  0  0  0
  140.8890   73.1290  221.7480 C   0  0  0  0  0  0  0  0  0  0  0  0
  140.0185   72.7750  222.3198 H   0  0  0  0  0  0  0  0  0  0  0  0
  141.8690   72.2230  221.3350 C   0  0  0  0  0  0  0  0  0  0  0  0
  141.7708   71.1560  221.5839 H   0  0  0  0  0  0  0  0  0  0  0  0
  142.9740   72.6710  220.6060 C   0  0  0  0  0  0  0  0  0  0  0  0
  143.7434   71.9553  220.2808 H   0  0  0  0  0  0  0  0  0  0  0  0
  143.1040   74.0260  220.2890 C   0  0  0  0  0  0  0  0  0  0  0  0
  143.9750   74.3746  219.7147 H   0  0  0  0  0  0  0  0  0  0  0  0
  142.1210   74.9460  220.7040 C   0  0  0  0  0  0  0  0  0  0  0  0
  142.2020   76.3180  220.4120 C   0  0  0  0  0  0  0  0  0  0  0  0
  143.1880   76.7460  219.7490 O   0  0  0  0  0  0  0  0  0  0  0  0
  141.2210   77.1860  220.8430 N   0  0  0  0  0  0  0  0  0  0  0  0
  141.3440   78.6310  220.5310 C   0  0  0  0  0  0  0  0  0  0  0  0
  140.8621   79.2109  221.3319 H   0  0  0  0  0  0  0  0  0  0  0  0
  142.4138   78.8757  220.4560 H   0  0  0  0  0  0  0  0  0  0  0  0
  140.6700   78.9860  219.1770 C   0  0  0  0  0  0  0  0  0  0  0  0
  139.5975   79.1084  219.3885 H   0  0  0  0  0  0  0  0  0  0  0  0
  141.1790   80.3240  218.6030 C   0  0  0  0  0  0  0  0  0  0  0  0
  140.5120   80.6307  217.7838 H   0  0  0  0  0  0  0  0  0  0  0  0
  141.1821   81.0554  219.4246 H   0  0  0  0  0  0  0  0  0  0  0  0
  142.6210   80.2350  218.0570 C   0  0  0  0  0  0  0  0  0  0  0  0
  142.7268   80.9603  217.2368 H   0  0  0  0  0  0  0  0  0  0  0  0
  143.2963   80.4499  218.8983 H   0  0  0  0  0  0  0  0  0  0  0  0
  142.9830   78.8960  217.5450 N   0  0  0  0  0  0  0  0  0  0  0  0
  143.6860   79.0060  216.7770 H   0  0  0  0  0  0  0  0  0  0  0  0
  143.4340   78.3320  218.3040 H   0  0  0  0  0  0  0  0  0  0  0  0
  141.8260   78.1610  217.0190 C   0  0  0  0  0  0  0  0  0  0  0  0
  141.3290   78.7738  216.2526 H   0  0  0  0  0  0  0  0  0  0  0  0
  142.1805   77.2140  216.5860 H   0  0  0  0  0  0  0  0  0  0  0  0
  140.8190   77.8410  218.1380 C   0  0  0  0  0  0  0  0  0  0  0  0
  139.8362   77.6548  217.6804 H   0  0  0  0  0  0  0  0  0  0  0  0
  141.1994   76.9603  218.6763 H   0  0  0  0  0  0  0  0  0  0  0  0
  140.2770   79.3500  223.2680 C   0  0  0  0  0  0  0  0  0  0  0  0
  140.0570   80.6890  222.9080 C   0  0  0  0  0  0  0  0  0  0  0  0
  139.0733   80.9969  222.5239 H   0  0  0  0  0  0  0  0  0  0  0  0
  141.0520   81.6080  223.0310 N   0  0  0  0  0  0  0  0  0  0  0  0
  142.2850   81.2700  223.4910 C   0  0  0  0  0  0  0  0  0  0  0  0
  143.0667   82.0383  223.5843 H   0  0  0  0  0  0  0  0  0  0  0  0
  142.5600   79.9490  223.8450 C   0  0  0  0  0  0  0  0  0  0  0  0
  143.5584   79.6691  224.2121 H   0  0  0  0  0  0  0  0  0  0  0  0
  141.5560   78.9850  223.7290 C   0  0  0  0  0  0  0  0  0  0  0  0
  141.7650   77.9391  223.9982 H   0  0  0  0  0  0  0  0  0  0  0  0
  1  2  1  0
  2  3  2  0
  3  4  1  0
  3  5  1  0
  5  6  2  0
  6  7  1  0
  7  8  2  0
  8  9  1  0
  8 10  1  0
 10 11  1  0
 10 12  2  0
 12 13  1  0
 12 14  1  0
 14 15  1  0
 14 16  2  0
 16 17  1  0
 17 18  2  0
 17 19  1  0
 19 20  1  0
 20 21  1  0
 20 22  1  0
 20 23  1  0
 23 24  1  0
 23 25  1  0
 25 26  1  0
 25 27  1  0
 25 28  1  0
 28 29  1  0
 28 30  1  0
 28 31  1  0
 31 32  1  0
 31 33  1  0
 31 34  1  0
 34 35  1  0
 34 36  1  0
 34 37  1  0
 37 38  1  0
 37 39  1  0
  2 40  1  0
 40 41  2  0
 41 42  1  0
 41 43  1  0
 43 44  2  0
 44 45  1  0
 44 46  1  0
 46 47  1  0
 46 48  2  0
 48 49  1  0
 19  5  1  0
 37 23  1  0
 48 40  1  0
 16  7  1  0
M  CHG  1  31   1
M  END
>  <UniqueID>  (9) 
499

>  <SMILES>  (9) 
O=c1c2ccccc2nc(/C=C/c2cccnc2)n1CC1CC[NH2+]CC1

>  <Energy>  (9) 
70.44528255794896

>  <Genealogy>  (9) 
O=c1c2ccccc2nc(/C=C/c2cccnc2)n1CC1CC[NH2+]CC1 (protonated)
O=c1c2ccccc2nc(/C=C/c2cccnc2)n1CC1CC[NH2+]CC1 (cis-trans isomerization)
O=c1c2ccccc2nc(/C=C/c2cccnc2)n1CC1CC[NH2+]CC1 (3D coordinates assigned)
O=c1c2ccccc2nc(/C=C/c2cccnc2)n1CC1CC[NH2+]CC1 (nonaromatic ring conformer: 70.44528255794896 kcal/mol)

>  <smiles>  (9) 
O=c1c2ccccc2nc(/C=C/c2cccnc2)n1CC1CCNCC1

>  <score_type>  (9) 
oracle

>  <origin>  (9) 
autodockgpu

>  <m_score__min__energy>  (9) 
-7.5800000000000001

>  <m_primary>  (9) 
energy

>  <meeko>  (9) 
{"free_energy": -7.39, "intermolecular_energy": -8.88, "internal_energy": -2.13, "cluster_size": 20, "cluster_id": 1, "rank_in_cluster": 14}

>  <energy>  (9) 
-7.4

>  <cluster_rmsd>  (9) 
0.21

>  <rmsd>  (9) 
271.32

>  <cluster>  (9) 
1

$$$$
ACXZVNHFWDZWKJ-IDGBLARXNA-O
     RDKit          3D

 49 52  0  0  0  0  0  0  0  0999 V2000
  138.4306   78.2615  223.8973 H   0  0  0  0  0  0  0  0  0  0  0  0
  139.1800   78.3510  223.0970 C   0  0  0  0  0  0  0  0  0  0  0  0
  139.0490   77.5660  222.0150 C   0  0  0  0  0  0  0  0  0  0  0  0
  138.0942   77.5705  221.4688 H   0  0  0  0  0  0  0  0  0  0  0  0
  140.1540   76.6870  221.5270 C   0  0  0  0  0  0  0  0  0  0  0  0
  140.0730   75.3570  221.8000 N   0  0  0  0  0  0  0  0  0  0  0  0
  141.0170   74.4770  221.4000 C   0  0  0  0  0  0  0  0  0  0  0  0
  140.8850   73.1180  221.7120 C   0  0  0  0  0  0  0  0  0  0  0  0
  140.0132   72.7667  222.2835 H   0  0  0  0  0  0  0  0  0  0  0  0
  141.8610   72.2090  221.2970 C   0  0  0  0  0  0  0  0  0  0  0  0
  141.7574   71.1418  221.5428 H   0  0  0  0  0  0  0  0  0  0  0  0
  142.9690   72.6530  220.5700 C   0  0  0  0  0  0  0  0  0  0  0  0
  143.7356   71.9345  220.2442 H   0  0  0  0  0  0  0  0  0  0  0  0
  143.1050   74.0090  220.2560 C   0  0  0  0  0  0  0  0  0  0  0  0
  143.9780   74.3552  219.6832 H   0  0  0  0  0  0  0  0  0  0  0  0
  142.1260   74.9320  220.6720 C   0  0  0  0  0  0  0  0  0  0  0  0
  142.2130   76.3040  220.3830 C   0  0  0  0  0  0  0  0  0  0  0  0
  143.2020   76.7290  219.7210 O   0  0  0  0  0  0  0  0  0  0  0  0
  141.2350   77.1750  220.8140 N   0  0  0  0  0  0  0  0  0  0  0  0
  141.3650   78.6200  220.5050 C   0  0  0  0  0  0  0  0  0  0  0  0
  140.8909   79.2008  221.3099 H   0  0  0  0  0  0  0  0  0  0  0  0
  142.4358   78.8587  220.4250 H   0  0  0  0  0  0  0  0  0  0  0  0
  140.6860   78.9820  219.1560 C   0  0  0  0  0  0  0  0  0  0  0  0
  139.6149   79.1071  219.3728 H   0  0  0  0  0  0  0  0  0  0  0  0
  141.1960   80.3210  218.5850 C   0  0  0  0  0  0  0  0  0  0  0  0
  140.5257   80.6334  217.7707 H   0  0  0  0  0  0  0  0  0  0  0  0
  141.2056   81.0492  219.4094 H   0  0  0  0  0  0  0  0  0  0  0  0
  142.6350   80.2290  218.0310 C   0  0  0  0  0  0  0  0  0  0  0  0
  142.7389   80.9571  217.2130 H   0  0  0  0  0  0  0  0  0  0  0  0
  143.3152   80.4382  218.8698 H   0  0  0  0  0  0  0  0  0  0  0  0
  142.9900   78.8910  217.5120 N   0  0  0  0  0  0  0  0  0  0  0  0
  143.6900   79.0010  216.7410 H   0  0  0  0  0  0  0  0  0  0  0  0
  143.4430   78.3230  218.2670 H   0  0  0  0  0  0  0  0  0  0  0  0
  141.8280   78.1620  216.9890 C   0  0  0  0  0  0  0  0  0  0  0  0
  141.3292   78.7794  216.2275 H   0  0  0  0  0  0  0  0  0  0  0  0
  142.1769   77.2155  216.5503 H   0  0  0  0  0  0  0  0  0  0  0  0
  140.8250   77.8410  218.1130 C   0  0  0  0  0  0  0  0  0  0  0  0
  139.8391   77.6600  217.6600 H   0  0  0  0  0  0  0  0  0  0  0  0
  141.2048   76.9569  218.6460 H   0  0  0  0  0  0  0  0  0  0  0  0
  140.2790   79.3320  223.2730 C   0  0  0  0  0  0  0  0  0  0  0  0
  140.0430   80.6790  222.9540 C   0  0  0  0  0  0  0  0  0  0  0  0
  139.0528   80.9885  222.5884 H   0  0  0  0  0  0  0  0  0  0  0  0
  141.0300   81.6030  223.0940 N   0  0  0  0  0  0  0  0  0  0  0  0
  142.2700   81.2640  223.5340 C   0  0  0  0  0  0  0  0  0  0  0  0
  143.0450   82.0371  223.6426 H   0  0  0  0  0  0  0  0  0  0  0  0
  142.5610   79.9370  223.8480 C   0  0  0  0  0  0  0  0  0  0  0  0
  143.5652   79.6567  224.1987 H   0  0  0  0  0  0  0  0  0  0  0  0
  141.5650   78.9670  223.7130 C   0  0  0  0  0  0  0  0  0  0  0  0
  141.7862   77.9161  223.9510 H   0  0  0  0  0  0  0  0  0  0  0  0
  1  2  1  0
  2  3  2  0
  3  4  1  0
  3  5  1  0
  5  6  2  0
  6  7  1  0
  7  8  2  0
  8  9  1  0
  8 10  1  0
 10 11  1  0
 10 12  2  0
 12 13  1  0
 12 14  1  0
 14 15  1  0
 14 16  2  0
 16 17  1  0
 17 18  2  0
 17 19  1  0
 19 20  1  0
 20 21  1  0
 20 22  1  0
 20 23  1  0
 23 24  1  0
 23 25  1  0
 25 26  1  0
 25 27  1  0
 25 28  1  0
 28 29  1  0
 28 30  1  0
 28 31  1  0
 31 32  1  0
 31 33  1  0
 31 34  1  0
 34 35  1  0
 34 36  1  0
 34 37  1  0
 37 38  1  0
 37 39  1  0
  2 40  1  0
 40 41  2  0
 41 42  1  0
 41 43  1  0
 43 44  2  0
 44 45  1  0
 44 46  1  0
 46 47  1  0
 46 48  2  0
 48 49  1  0
 19  5  1  0
 37 23  1  0
 48 40  1  0
 16  7  1  0
M  CHG  1  31   1
M  END
>  <UniqueID>  (10) 
499

>  <SMILES>  (10) 
O=c1c2ccccc2nc(/C=C/c2cccnc2)n1CC1CC[NH2+]CC1

>  <Energy>  (10) 
70.44528255794896

>  <Genealogy>  (10) 
O=c1c2ccccc2nc(/C=C/c2cccnc2)n1CC1CC[NH2+]CC1 (protonated)
O=c1c2ccccc2nc(/C=C/c2cccnc2)n1CC1CC[NH2+]CC1 (cis-trans isomerization)
O=c1c2ccccc2nc(/C=C/c2cccnc2)n1CC1CC[NH2+]CC1 (3D coordinates assigned)
O=c1c2ccccc2nc(/C=C/c2cccnc2)n1CC1CC[NH2+]CC1 (nonaromatic ring conformer: 70.44528255794896 kcal/mol)

>  <smiles>  (10) 
O=c1c2ccccc2nc(/C=C/c2cccnc2)n1CC1CCNCC1

>  <score_type>  (10) 
oracle

>  <origin>  (10) 
autodockgpu

>  <m_score__min__energy>  (10) 
-7.5800000000000001

>  <m_primary>  (10) 
energy

>  <meeko>  (10) 
{"free_energy": -7.38, "intermolecular_energy": -8.87, "internal_energy": -2.15, "cluster_size": 20, "cluster_id": 1, "rank_in_cluster": 19}

>  <energy>  (10) 
-7.4

>  <cluster_rmsd>  (10) 
0.21

>  <rmsd>  (10) 
271.31

>  <cluster>  (10) 
1

$$$$
ACXZVNHFWDZWKJ-IDGBLARXNA-O
     RDKit          3D

 49 52  0  0  0  0  0  0  0  0999 V2000
  138.4400   78.2308  223.8948 H   0  0  0  0  0  0  0  0  0  0  0  0
  139.1860   78.3160  223.0910 C   0  0  0  0  0  0  0  0  0  0  0  0
  139.0530   77.5220  222.0150 C   0  0  0  0  0  0  0  0  0  0  0  0
  138.0917   77.5091  221.4804 H   0  0  0  0  0  0  0  0  0  0  0  0
  140.1640   76.6570  221.5200 C   0  0  0  0  0  0  0  0  0  0  0  0
  140.0980   75.3240  221.7850 N   0  0  0  0  0  0  0  0  0  0  0  0
  141.0490   74.4550  221.3780 C   0  0  0  0  0  0  0  0  0  0  0  0
  140.9300   73.0940  221.6820 C   0  0  0  0  0  0  0  0  0  0  0  0
  140.0624   72.7314  222.2528 H   0  0  0  0  0  0  0  0  0  0  0  0
  141.9140   72.1960  221.2600 C   0  0  0  0  0  0  0  0  0  0  0  0
  141.8218   71.1267  221.5011 H   0  0  0  0  0  0  0  0  0  0  0  0
  143.0150   72.6550  220.5320 C   0  0  0  0  0  0  0  0  0  0  0  0
  143.7877   71.9458  220.2005 H   0  0  0  0  0  0  0  0  0  0  0  0
  143.1370   74.0130  220.2240 C   0  0  0  0  0  0  0  0  0  0  0  0
  144.0046   74.3705  219.6500 H   0  0  0  0  0  0  0  0  0  0  0  0
  142.1500   74.9240  220.6480 C   0  0  0  0  0  0  0  0  0  0  0  0
  142.2230   76.2990  220.3670 C   0  0  0  0  0  0  0  0  0  0  0  0
  143.2060   76.7370  219.7040 O   0  0  0  0  0  0  0  0  0  0  0  0
  141.2390   77.1590  220.8060 N   0  0  0  0  0  0  0  0  0  0  0  0
  141.3540   78.6070  220.5040 C   0  0  0  0  0  0  0  0  0  0  0  0
  140.8705   79.1787  221.3098 H   0  0  0  0  0  0  0  0  0  0  0  0
  142.4224   78.8578  220.4290 H   0  0  0  0  0  0  0  0  0  0  0  0
  140.6760   78.9680  219.1540 C   0  0  0  0  0  0  0  0  0  0  0  0
  139.6031   79.0834  219.3677 H   0  0  0  0  0  0  0  0  0  0  0  0
  141.1770   80.3130  218.5890 C   0  0  0  0  0  0  0  0  0  0  0  0
  140.5069   80.6222  217.7733 H   0  0  0  0  0  0  0  0  0  0  0  0
  141.1777   81.0382  219.4161 H   0  0  0  0  0  0  0  0  0  0  0  0
  142.6180   80.2360  218.0400 C   0  0  0  0  0  0  0  0  0  0  0  0
  142.7183   80.9675  217.2246 H   0  0  0  0  0  0  0  0  0  0  0  0
  143.2938   80.4491  218.8813 H   0  0  0  0  0  0  0  0  0  0  0  0
  142.9860   78.9020  217.5180 N   0  0  0  0  0  0  0  0  0  0  0  0
  143.6880   79.0220  216.7500 H   0  0  0  0  0  0  0  0  0  0  0  0
  143.4420   78.3350  218.2720 H   0  0  0  0  0  0  0  0  0  0  0  0
  141.8330   78.1650  216.9880 C   0  0  0  0  0  0  0  0  0  0  0  0
  141.3315   78.7808  216.2269 H   0  0  0  0  0  0  0  0  0  0  0  0
  142.1919   77.2234  216.5470 H   0  0  0  0  0  0  0  0  0  0  0  0
  140.8290   77.8310  218.1070 C   0  0  0  0  0  0  0  0  0  0  0  0
  139.8464   77.6427  217.6498 H   0  0  0  0  0  0  0  0  0  0  0  0
  141.2147   76.9484  218.6382 H   0  0  0  0  0  0  0  0  0  0  0  0
  140.2830   79.3010  223.2550 C   0  0  0  0  0  0  0  0  0  0  0  0
  140.0540   80.6390  222.8970 C   0  0  0  0  0  0  0  0  0  0  0  0
  139.0695   80.9393  222.5090 H   0  0  0  0  0  0  0  0  0  0  0  0
  141.0390   81.5660  223.0260 N   0  0  0  0  0  0  0  0  0  0  0  0
  142.2740   81.2370  223.4910 C   0  0  0  0  0  0  0  0  0  0  0  0
  143.0490   82.0115  223.5885 H   0  0  0  0  0  0  0  0  0  0  0  0
  142.5580   79.9190  223.8440 C   0  0  0  0  0  0  0  0  0  0  0  0
  143.5571   79.6475  224.2157 H   0  0  0  0  0  0  0  0  0  0  0  0
  141.5640   78.9460  223.7220 C   0  0  0  0  0  0  0  0  0  0  0  0
  141.7812   77.9017  223.9907 H   0  0  0  0  0  0  0  0  0  0  0  0
  1  2  1  0
  2  3  2  0
  3  4  1  0
  3  5  1  0
  5  6  2  0
  6  7  1  0
  7  8  2  0
  8  9  1  0
  8 10  1  0
 10 11  1  0
 10 12  2  0
 12 13  1  0
 12 14  1  0
 14 15  1  0
 14 16  2  0
 16 17  1  0
 17 18  2  0
 17 19  1  0
 19 20  1  0
 20 21  1  0
 20 22  1  0
 20 23  1  0
 23 24  1  0
 23 25  1  0
 25 26  1  0
 25 27  1  0
 25 28  1  0
 28 29  1  0
 28 30  1  0
 28 31  1  0
 31 32  1  0
 31 33  1  0
 31 34  1  0
 34 35  1  0
 34 36  1  0
 34 37  1  0
 37 38  1  0
 37 39  1  0
  2 40  1  0
 40 41  2  0
 41 42  1  0
 41 43  1  0
 43 44  2  0
 44 45  1  0
 44 46  1  0
 46 47  1  0
 46 48  2  0
 48 49  1  0
 19  5  1  0
 37 23  1  0
 48 40  1  0
 16  7  1  0
M  CHG  1  31   1
M  END
>  <UniqueID>  (11) 
499

>  <SMILES>  (11) 
O=c1c2ccccc2nc(/C=C/c2cccnc2)n1CC1CC[NH2+]CC1

>  <Energy>  (11) 
70.44528255794896

>  <Genealogy>  (11) 
O=c1c2ccccc2nc(/C=C/c2cccnc2)n1CC1CC[NH2+]CC1 (protonated)
O=c1c2ccccc2nc(/C=C/c2cccnc2)n1CC1CC[NH2+]CC1 (cis-trans isomerization)
O=c1c2ccccc2nc(/C=C/c2cccnc2)n1CC1CC[NH2+]CC1 (3D coordinates assigned)
O=c1c2ccccc2nc(/C=C/c2cccnc2)n1CC1CC[NH2+]CC1 (nonaromatic ring conformer: 70.44528255794896 kcal/mol)

>  <smiles>  (11) 
O=c1c2ccccc2nc(/C=C/c2cccnc2)n1CC1CCNCC1

>  <score_type>  (11) 
oracle

>  <origin>  (11) 
autodockgpu

>  <m_score__min__energy>  (11) 
-7.5800000000000001

>  <m_primary>  (11) 
energy

>  <meeko>  (11) 
{"free_energy": -7.38, "intermolecular_energy": -8.88, "internal_energy": -2.14, "cluster_size": 20, "cluster_id": 1, "rank_in_cluster": 17}

>  <energy>  (11) 
-7.4

>  <cluster_rmsd>  (11) 
0.21

>  <rmsd>  (11) 
271.33

>  <cluster>  (11) 
1

$$$$
ACXZVNHFWDZWKJ-IDGBLARXNA-O
     RDKit          3D

 49 52  0  0  0  0  0  0  0  0999 V2000
  138.4254   78.3054  223.9172 H   0  0  0  0  0  0  0  0  0  0  0  0
  139.1750   78.3720  223.1150 C   0  0  0  0  0  0  0  0  0  0  0  0
  139.0360   77.5670  222.0480 C   0  0  0  0  0  0  0  0  0  0  0  0
  138.0734   77.5522  221.5158 H   0  0  0  0  0  0  0  0  0  0  0  0
  140.1430   76.6920  221.5600 C   0  0  0  0  0  0  0  0  0  0  0  0
  140.0700   75.3620  221.8380 N   0  0  0  0  0  0  0  0  0  0  0  0
  141.0170   74.4850  221.4380 C   0  0  0  0  0  0  0  0  0  0  0  0
  140.8920   73.1270  221.7550 C   0  0  0  0  0  0  0  0  0  0  0  0
  140.0235   72.7740  222.3305 H   0  0  0  0  0  0  0  0  0  0  0  0
  141.8710   72.2200  221.3400 C   0  0  0  0  0  0  0  0  0  0  0  0
  141.7737   71.1535  221.5910 H   0  0  0  0  0  0  0  0  0  0  0  0
  142.9740   72.6670  220.6060 C   0  0  0  0  0  0  0  0  0  0  0  0
  143.7427   71.9510  220.2796 H   0  0  0  0  0  0  0  0  0  0  0  0
  143.1020   74.0220  220.2860 C   0  0  0  0  0  0  0  0  0  0  0  0
  143.9706   74.3702  219.7079 H   0  0  0  0  0  0  0  0  0  0  0  0
  142.1200   74.9420  220.7030 C   0  0  0  0  0  0  0  0  0  0  0  0
  142.1990   76.3140  220.4080 C   0  0  0  0  0  0  0  0  0  0  0  0
  143.1830   76.7410  219.7400 O   0  0  0  0  0  0  0  0  0  0  0  0
  141.2200   77.1820  220.8400 N   0  0  0  0  0  0  0  0  0  0  0  0
  141.3410   78.6260  220.5250 C   0  0  0  0  0  0  0  0  0  0  0  0
  140.8574   79.2069  221.3242 H   0  0  0  0  0  0  0  0  0  0  0  0
  142.4105   78.8721  220.4505 H   0  0  0  0  0  0  0  0  0  0  0  0
  140.6680   78.9770  219.1700 C   0  0  0  0  0  0  0  0  0  0  0  0
  139.5946   79.0939  219.3801 H   0  0  0  0  0  0  0  0  0  0  0  0
  141.1700   80.3180  218.5960 C   0  0  0  0  0  0  0  0  0  0  0  0
  140.5027   80.6202  217.7754 H   0  0  0  0  0  0  0  0  0  0  0  0
  141.1670   81.0501  219.4170 H   0  0  0  0  0  0  0  0  0  0  0  0
  142.6130   80.2370  218.0530 C   0  0  0  0  0  0  0  0  0  0  0  0
  142.7164   80.9632  217.2333 H   0  0  0  0  0  0  0  0  0  0  0  0
  143.2852   80.4551  218.8960 H   0  0  0  0  0  0  0  0  0  0  0  0
  142.9840   78.9000  217.5410 N   0  0  0  0  0  0  0  0  0  0  0  0
  143.6880   79.0140  216.7750 H   0  0  0  0  0  0  0  0  0  0  0  0
  143.4370   78.3390  218.3010 H   0  0  0  0  0  0  0  0  0  0  0  0
  141.8320   78.1590  217.0140 C   0  0  0  0  0  0  0  0  0  0  0  0
  141.3328   78.7691  216.2468 H   0  0  0  0  0  0  0  0  0  0  0  0
  142.1925   77.2138  216.5820 H   0  0  0  0  0  0  0  0  0  0  0  0
  140.8240   77.8330  218.1320 C   0  0  0  0  0  0  0  0  0  0  0  0
  139.8429   77.6418  217.6728 H   0  0  0  0  0  0  0  0  0  0  0  0
  141.2075   76.9539  218.6707 H   0  0  0  0  0  0  0  0  0  0  0  0
  140.2840   79.3460  223.2710 C   0  0  0  0  0  0  0  0  0  0  0  0
  140.0660   80.6860  222.9120 C   0  0  0  0  0  0  0  0  0  0  0  0
  139.0823   80.9955  222.5292 H   0  0  0  0  0  0  0  0  0  0  0  0
  141.0610   81.6030  223.0340 N   0  0  0  0  0  0  0  0  0  0  0  0
  142.2950   81.2630  223.4920 C   0  0  0  0  0  0  0  0  0  0  0  0
  143.0781   82.0300  223.5841 H   0  0  0  0  0  0  0  0  0  0  0  0
  142.5680   79.9420  223.8450 C   0  0  0  0  0  0  0  0  0  0  0  0
  143.5667   79.6607  224.2103 H   0  0  0  0  0  0  0  0  0  0  0  0
  141.5630   78.9790  223.7310 C   0  0  0  0  0  0  0  0  0  0  0  0
  141.7709   77.9330  224.0008 H   0  0  0  0  0  0  0  0  0  0  0  0
  1  2  1  0
  2  3  2  0
  3  4  1  0
  3  5  1  0
  5  6  2  0
  6  7  1  0
  7  8  2  0
  8  9  1  0
  8 10  1  0
 10 11  1  0
 10 12  2  0
 12 13  1  0
 12 14  1  0
 14 15  1  0
 14 16  2  0
 16 17  1  0
 17 18  2  0
 17 19  1  0
 19 20  1  0
 20 21  1  0
 20 22  1  0
 20 23  1  0
 23 24  1  0
 23 25  1  0
 25 26  1  0
 25 27  1  0
 25 28  1  0
 28 29  1  0
 28 30  1  0
 28 31  1  0
 31 32  1  0
 31 33  1  0
 31 34  1  0
 34 35  1  0
 34 36  1  0
 34 37  1  0
 37 38  1  0
 37 39  1  0
  2 40  1  0
 40 41  2  0
 41 42  1  0
 41 43  1  0
 43 44  2  0
 44 45  1  0
 44 46  1  0
 46 47  1  0
 46 48  2  0
 48 49  1  0
 19  5  1  0
 37 23  1  0
 48 40  1  0
 16  7  1  0
M  CHG  1  31   1
M  END
>  <UniqueID>  (12) 
499

>  <SMILES>  (12) 
O=c1c2ccccc2nc(/C=C/c2cccnc2)n1CC1CC[NH2+]CC1

>  <Energy>  (12) 
70.44528255794896

>  <Genealogy>  (12) 
O=c1c2ccccc2nc(/C=C/c2cccnc2)n1CC1CC[NH2+]CC1 (protonated)
O=c1c2ccccc2nc(/C=C/c2cccnc2)n1CC1CC[NH2+]CC1 (cis-trans isomerization)
O=c1c2ccccc2nc(/C=C/c2cccnc2)n1CC1CC[NH2+]CC1 (3D coordinates assigned)
O=c1c2ccccc2nc(/C=C/c2cccnc2)n1CC1CC[NH2+]CC1 (nonaromatic ring conformer: 70.44528255794896 kcal/mol)

>  <smiles>  (12) 
O=c1c2ccccc2nc(/C=C/c2cccnc2)n1CC1CCNCC1

>  <score_type>  (12) 
oracle

>  <origin>  (12) 
autodockgpu

>  <m_score__min__energy>  (12) 
-7.5800000000000001

>  <m_primary>  (12) 
energy

>  <meeko>  (12) 
{"free_energy": -7.4, "intermolecular_energy": -8.89, "internal_energy": -2.13, "cluster_size": 20, "cluster_id": 1, "rank_in_cluster": 9}

>  <energy>  (12) 
-7.39

>  <cluster_rmsd>  (12) 
0.21

>  <rmsd>  (12) 
271.33

>  <cluster>  (12) 
1

$$$$
ACXZVNHFWDZWKJ-IDGBLARXNA-O
     RDKit          3D

 49 52  0  0  0  0  0  0  0  0999 V2000
  138.4159   78.3451  223.9128 H   0  0  0  0  0  0  0  0  0  0  0  0
  139.1690   78.4020  223.1130 C   0  0  0  0  0  0  0  0  0  0  0  0
  139.0260   77.5950  222.0490 C   0  0  0  0  0  0  0  0  0  0  0  0
  138.0620   77.5801  221.5195 H   0  0  0  0  0  0  0  0  0  0  0  0
  140.1310   76.7170  221.5600 C   0  0  0  0  0  0  0  0  0  0  0  0
  140.0600   75.3890  221.8480 N   0  0  0  0  0  0  0  0  0  0  0  0
  141.0040   74.5090  221.4490 C   0  0  0  0  0  0  0  0  0  0  0  0
  140.8820   73.1540  221.7770 C   0  0  0  0  0  0  0  0  0  0  0  0
  140.0173   72.8050  222.3606 H   0  0  0  0  0  0  0  0  0  0  0  0
  141.8590   72.2440  221.3630 C   0  0  0  0  0  0  0  0  0  0  0  0
  141.7638   71.1794  221.6228 H   0  0  0  0  0  0  0  0  0  0  0  0
  142.9570   72.6860  220.6190 C   0  0  0  0  0  0  0  0  0  0  0  0
  143.7242   71.9681  220.2934 H   0  0  0  0  0  0  0  0  0  0  0  0
  143.0820   74.0380  220.2880 C   0  0  0  0  0  0  0  0  0  0  0  0
  143.9471   74.3818  219.7020 H   0  0  0  0  0  0  0  0  0  0  0  0
  142.1030   74.9610  220.7030 C   0  0  0  0  0  0  0  0  0  0  0  0
  142.1800   76.3300  220.3980 C   0  0  0  0  0  0  0  0  0  0  0  0
  143.1590   76.7530  219.7210 O   0  0  0  0  0  0  0  0  0  0  0  0
  141.2020   77.2020  220.8300 N   0  0  0  0  0  0  0  0  0  0  0  0
  141.3210   78.6440  220.5030 C   0  0  0  0  0  0  0  0  0  0  0  0
  140.8335   79.2306  221.2956 H   0  0  0  0  0  0  0  0  0  0  0  0
  142.3902   78.8918  220.4300 H   0  0  0  0  0  0  0  0  0  0  0  0
  140.6520   78.9820  219.1430 C   0  0  0  0  0  0  0  0  0  0  0  0
  139.5764   79.0910  219.3460 H   0  0  0  0  0  0  0  0  0  0  0  0
  141.1460   80.3240  218.5650 C   0  0  0  0  0  0  0  0  0  0  0  0
  140.4803   80.6169  217.7398 H   0  0  0  0  0  0  0  0  0  0  0  0
  141.1333   81.0599  219.3825 H   0  0  0  0  0  0  0  0  0  0  0  0
  142.5930   80.2520  218.0290 C   0  0  0  0  0  0  0  0  0  0  0  0
  142.6942   80.9741  217.2054 H   0  0  0  0  0  0  0  0  0  0  0  0
  143.2596   80.4810  218.8735 H   0  0  0  0  0  0  0  0  0  0  0  0
  142.9770   78.9150  217.5270 N   0  0  0  0  0  0  0  0  0  0  0  0
  143.6840   79.0310  216.7630 H   0  0  0  0  0  0  0  0  0  0  0  0
  143.4310   78.3620  218.2920 H   0  0  0  0  0  0  0  0  0  0  0  0
  141.8340   78.1610  216.9970 C   0  0  0  0  0  0  0  0  0  0  0  0
  141.3335   78.7627  216.2240 H   0  0  0  0  0  0  0  0  0  0  0  0
  142.2044   77.2169  216.5710 H   0  0  0  0  0  0  0  0  0  0  0  0
  140.8240   77.8330  218.1120 C   0  0  0  0  0  0  0  0  0  0  0  0
  139.8469   77.6300  217.6493 H   0  0  0  0  0  0  0  0  0  0  0  0
  141.2134   76.9611  218.6580 H   0  0  0  0  0  0  0  0  0  0  0  0
  140.2860   79.3660  223.2700 C   0  0  0  0  0  0  0  0  0  0  0  0
  140.0830   80.7060  222.9040 C   0  0  0  0  0  0  0  0  0  0  0  0
  139.1041   81.0235  222.5156 H   0  0  0  0  0  0  0  0  0  0  0  0
  141.0870   81.6140  223.0260 N   0  0  0  0  0  0  0  0  0  0  0  0
  142.3150   81.2640  223.4920 C   0  0  0  0  0  0  0  0  0  0  0  0
  143.1048   82.0240  223.5852 H   0  0  0  0  0  0  0  0  0  0  0  0
  142.5740   79.9420  223.8520 C   0  0  0  0  0  0  0  0  0  0  0  0
  143.5682   79.6525  224.2232 H   0  0  0  0  0  0  0  0  0  0  0  0
  141.5600   78.9890  223.7370 C   0  0  0  0  0  0  0  0  0  0  0  0
  141.7566   77.9421  224.0116 H   0  0  0  0  0  0  0  0  0  0  0  0
  1  2  1  0
  2  3  2  0
  3  4  1  0
  3  5  1  0
  5  6  2  0
  6  7  1  0
  7  8  2  0
  8  9  1  0
  8 10  1  0
 10 11  1  0
 10 12  2  0
 12 13  1  0
 12 14  1  0
 14 15  1  0
 14 16  2  0
 16 17  1  0
 17 18  2  0
 17 19  1  0
 19 20  1  0
 20 21  1  0
 20 22  1  0
 20 23  1  0
 23 24  1  0
 23 25  1  0
 25 26  1  0
 25 27  1  0
 25 28  1  0
 28 29  1  0
 28 30  1  0
 28 31  1  0
 31 32  1  0
 31 33  1  0
 31 34  1  0
 34 35  1  0
 34 36  1  0
 34 37  1  0
 37 38  1  0
 37 39  1  0
  2 40  1  0
 40 41  2  0
 41 42  1  0
 41 43  1  0
 43 44  2  0
 44 45  1  0
 44 46  1  0
 46 47  1  0
 46 48  2  0
 48 49  1  0
 19  5  1  0
 37 23  1  0
 48 40  1  0
 16  7  1  0
M  CHG  1  31   1
M  END
>  <UniqueID>  (13) 
499

>  <SMILES>  (13) 
O=c1c2ccccc2nc(/C=C/c2cccnc2)n1CC1CC[NH2+]CC1

>  <Energy>  (13) 
70.44528255794896

>  <Genealogy>  (13) 
O=c1c2ccccc2nc(/C=C/c2cccnc2)n1CC1CC[NH2+]CC1 (protonated)
O=c1c2ccccc2nc(/C=C/c2cccnc2)n1CC1CC[NH2+]CC1 (cis-trans isomerization)
O=c1c2ccccc2nc(/C=C/c2cccnc2)n1CC1CC[NH2+]CC1 (3D coordinates assigned)
O=c1c2ccccc2nc(/C=C/c2cccnc2)n1CC1CC[NH2+]CC1 (nonaromatic ring conformer: 70.44528255794896 kcal/mol)

>  <smiles>  (13) 
O=c1c2ccccc2nc(/C=C/c2cccnc2)n1CC1CCNCC1

>  <score_type>  (13) 
oracle

>  <origin>  (13) 
autodockgpu

>  <m_score__min__energy>  (13) 
-7.5800000000000001

>  <m_primary>  (13) 
energy

>  <meeko>  (13) 
{"free_energy": -7.39, "intermolecular_energy": -8.88, "internal_energy": -2.13, "cluster_size": 20, "cluster_id": 1, "rank_in_cluster": 16}

>  <energy>  (13) 
-7.39

>  <cluster_rmsd>  (13) 
0.21

>  <rmsd>  (13) 
271.31

>  <cluster>  (13) 
1

$$$$
ACXZVNHFWDZWKJ-IDGBLARXNA-O
     RDKit          3D

 49 52  0  0  0  0  0  0  0  0999 V2000
  138.3394   78.4597  223.9378 H   0  0  0  0  0  0  0  0  0  0  0  0
  139.1060   78.4740  223.1490 C   0  0  0  0  0  0  0  0  0  0  0  0
  138.9540   77.6460  222.1020 C   0  0  0  0  0  0  0  0  0  0  0  0
  137.9863   77.6229  221.5795 H   0  0  0  0  0  0  0  0  0  0  0  0
  140.0530   76.7560  221.6230 C   0  0  0  0  0  0  0  0  0  0  0  0
  139.9750   75.4320  221.9280 N   0  0  0  0  0  0  0  0  0  0  0  0
  140.9140   74.5430  221.5390 C   0  0  0  0  0  0  0  0  0  0  0  0
  140.7860   73.1920  221.8840 C   0  0  0  0  0  0  0  0  0  0  0  0
  139.9206   72.8547  222.4734 H   0  0  0  0  0  0  0  0  0  0  0  0
  141.7570   72.2720  221.4800 C   0  0  0  0  0  0  0  0  0  0  0  0
  141.6566   71.2112  221.7531 H   0  0  0  0  0  0  0  0  0  0  0  0
  142.8560   72.6990  220.7290 C   0  0  0  0  0  0  0  0  0  0  0  0
  143.6188   71.9729  220.4112 H   0  0  0  0  0  0  0  0  0  0  0  0
  142.9880   74.0460  220.3810 C   0  0  0  0  0  0  0  0  0  0  0  0
  143.8541   74.3780  219.7897 H   0  0  0  0  0  0  0  0  0  0  0  0
  142.0140   74.9790  220.7860 C   0  0  0  0  0  0  0  0  0  0  0  0
  142.0980   76.3440  220.4630 C   0  0  0  0  0  0  0  0  0  0  0  0
  143.0790   76.7530  219.7800 O   0  0  0  0  0  0  0  0  0  0  0  0
  141.1260   77.2260  220.8850 N   0  0  0  0  0  0  0  0  0  0  0  0
  141.2520   78.6630  220.5400 C   0  0  0  0  0  0  0  0  0  0  0  0
  140.7490   79.2610  221.3142 H   0  0  0  0  0  0  0  0  0  0  0  0
  142.3225   78.9100  220.4849 H   0  0  0  0  0  0  0  0  0  0  0  0
  140.6100   78.9810  219.1620 C   0  0  0  0  0  0  0  0  0  0  0  0
  139.5299   79.0869  219.3413 H   0  0  0  0  0  0  0  0  0  0  0  0
  141.1100   80.3190  218.5780 C   0  0  0  0  0  0  0  0  0  0  0  0
  140.4607   80.5987  217.7353 H   0  0  0  0  0  0  0  0  0  0  0  0
  141.0763   81.0650  219.3857 H   0  0  0  0  0  0  0  0  0  0  0  0
  142.5680   80.2470  218.0740 C   0  0  0  0  0  0  0  0  0  0  0  0
  142.6837   80.9598  217.2443 H   0  0  0  0  0  0  0  0  0  0  0  0
  143.2151   80.4886  218.9301 H   0  0  0  0  0  0  0  0  0  0  0  0
  142.9690   78.9060  217.5960 N   0  0  0  0  0  0  0  0  0  0  0  0
  143.6910   79.0160  216.8470 H   0  0  0  0  0  0  0  0  0  0  0  0
  143.4090   78.3650  218.3780 H   0  0  0  0  0  0  0  0  0  0  0  0
  141.8410   78.1400  217.0520 C   0  0  0  0  0  0  0  0  0  0  0  0
  141.3546   78.7294  216.2608 H   0  0  0  0  0  0  0  0  0  0  0  0
  142.2249   77.1921  216.6469 H   0  0  0  0  0  0  0  0  0  0  0  0
  140.8080   77.8210  218.1490 C   0  0  0  0  0  0  0  0  0  0  0  0
  139.8418   77.6089  217.6678 H   0  0  0  0  0  0  0  0  0  0  0  0
  141.1884   76.9569  218.7134 H   0  0  0  0  0  0  0  0  0  0  0  0
  140.2490   79.4060  223.3010 C   0  0  0  0  0  0  0  0  0  0  0  0
  140.0780   80.7540  222.9470 C   0  0  0  0  0  0  0  0  0  0  0  0
  139.1036   81.1004  222.5721 H   0  0  0  0  0  0  0  0  0  0  0  0
  141.1070   81.6340  223.0640 N   0  0  0  0  0  0  0  0  0  0  0  0
  142.3300   81.2490  223.5150 C   0  0  0  0  0  0  0  0  0  0  0  0
  143.1406   81.9871  223.6047 H   0  0  0  0  0  0  0  0  0  0  0  0
  142.5570   79.9180  223.8640 C   0  0  0  0  0  0  0  0  0  0  0  0
  143.5467   79.5997  224.2235 H   0  0  0  0  0  0  0  0  0  0  0  0
  141.5170   78.9930  223.7530 C   0  0  0  0  0  0  0  0  0  0  0  0
  141.6886   77.9396  224.0192 H   0  0  0  0  0  0  0  0  0  0  0  0
  1  2  1  0
  2  3  2  0
  3  4  1  0
  3  5  1  0
  5  6  2  0
  6  7  1  0
  7  8  2  0
  8  9  1  0
  8 10  1  0
 10 11  1  0
 10 12  2  0
 12 13  1  0
 12 14  1  0
 14 15  1  0
 14 16  2  0
 16 17  1  0
 17 18  2  0
 17 19  1  0
 19 20  1  0
 20 21  1  0
 20 22  1  0
 20 23  1  0
 23 24  1  0
 23 25  1  0
 25 26  1  0
 25 27  1  0
 25 28  1  0
 28 29  1  0
 28 30  1  0
 28 31  1  0
 31 32  1  0
 31 33  1  0
 31 34  1  0
 34 35  1  0
 34 36  1  0
 34 37  1  0
 37 38  1  0
 37 39  1  0
  2 40  1  0
 40 41  2  0
 41 42  1  0
 41 43  1  0
 43 44  2  0
 44 45  1  0
 44 46  1  0
 46 47  1  0
 46 48  2  0
 48 49  1  0
 19  5  1  0
 37 23  1  0
 48 40  1  0
 16  7  1  0
M  CHG  1  31   1
M  END
>  <UniqueID>  (14) 
499

>  <SMILES>  (14) 
O=c1c2ccccc2nc(/C=C/c2cccnc2)n1CC1CC[NH2+]CC1

>  <Energy>  (14) 
70.44528255794896

>  <Genealogy>  (14) 
O=c1c2ccccc2nc(/C=C/c2cccnc2)n1CC1CC[NH2+]CC1 (protonated)
O=c1c2ccccc2nc(/C=C/c2cccnc2)n1CC1CC[NH2+]CC1 (cis-trans isomerization)
O=c1c2ccccc2nc(/C=C/c2cccnc2)n1CC1CC[NH2+]CC1 (3D coordinates assigned)
O=c1c2ccccc2nc(/C=C/c2cccnc2)n1CC1CC[NH2+]CC1 (nonaromatic ring conformer: 70.44528255794896 kcal/mol)

>  <smiles>  (14) 
O=c1c2ccccc2nc(/C=C/c2cccnc2)n1CC1CCNCC1

>  <score_type>  (14) 
oracle

>  <origin>  (14) 
autodockgpu

>  <m_score__min__energy>  (14) 
-7.5800000000000001

>  <m_primary>  (14) 
energy

>  <meeko>  (14) 
{"free_energy": -7.4, "intermolecular_energy": -8.9, "internal_energy": -2.11, "cluster_size": 20, "cluster_id": 1, "rank_in_cluster": 8}

>  <energy>  (14) 
-7.39

>  <cluster_rmsd>  (14) 
0.22

>  <rmsd>  (14) 
271.32

>  <cluster>  (14) 
1

$$$$
ACXZVNHFWDZWKJ-IDGBLARXNA-O
     RDKit          3D

 49 52  0  0  0  0  0  0  0  0999 V2000
  138.3781   78.3942  223.9259 H   0  0  0  0  0  0  0  0  0  0  0  0
  139.1400   78.4230  223.1330 C   0  0  0  0  0  0  0  0  0  0  0  0
  138.9930   77.6000  222.0820 C   0  0  0  0  0  0  0  0  0  0  0  0
  138.0254   77.5737  221.5595 H   0  0  0  0  0  0  0  0  0  0  0  0
  140.0980   76.7190  221.5980 C   0  0  0  0  0  0  0  0  0  0  0  0
  140.0300   75.3930  221.8980 N   0  0  0  0  0  0  0  0  0  0  0  0
  140.9740   74.5120  221.5040 C   0  0  0  0  0  0  0  0  0  0  0  0
  140.8550   73.1590  221.8450 C   0  0  0  0  0  0  0  0  0  0  0  0
  139.9928   72.8140  222.4346 H   0  0  0  0  0  0  0  0  0  0  0  0
  141.8320   72.2470  221.4360 C   0  0  0  0  0  0  0  0  0  0  0  0
  141.7388   71.1844  221.7047 H   0  0  0  0  0  0  0  0  0  0  0  0
  142.9270   72.6840  220.6860 C   0  0  0  0  0  0  0  0  0  0  0  0
  143.6942   71.9642  220.3646 H   0  0  0  0  0  0  0  0  0  0  0  0
  143.0500   74.0340  220.3430 C   0  0  0  0  0  0  0  0  0  0  0  0
  143.9137   74.3741  219.7527 H   0  0  0  0  0  0  0  0  0  0  0  0
  142.0700   74.9590  220.7520 C   0  0  0  0  0  0  0  0  0  0  0  0
  142.1450   76.3260  220.4350 C   0  0  0  0  0  0  0  0  0  0  0  0
  143.1220   76.7440  219.7520 O   0  0  0  0  0  0  0  0  0  0  0  0
  141.1670   77.1990  220.8610 N   0  0  0  0  0  0  0  0  0  0  0  0
  141.2830   78.6390  220.5220 C   0  0  0  0  0  0  0  0  0  0  0  0
  140.7802   79.2305  221.3013 H   0  0  0  0  0  0  0  0  0  0  0  0
  142.3517   78.8929  220.4631 H   0  0  0  0  0  0  0  0  0  0  0  0
  140.6320   78.9590  219.1480 C   0  0  0  0  0  0  0  0  0  0  0  0
  139.5521   79.0572  219.3329 H   0  0  0  0  0  0  0  0  0  0  0  0
  141.1210   80.3020  218.5680 C   0  0  0  0  0  0  0  0  0  0  0  0
  140.4657   80.5818  217.7300 H   0  0  0  0  0  0  0  0  0  0  0  0
  141.0872   81.0439  219.3794 H   0  0  0  0  0  0  0  0  0  0  0  0
  142.5770   80.2410  218.0560 C   0  0  0  0  0  0  0  0  0  0  0  0
  142.6841   80.9583  217.2289 H   0  0  0  0  0  0  0  0  0  0  0  0
  143.2272   80.4827  218.9097 H   0  0  0  0  0  0  0  0  0  0  0  0
  142.9830   78.9050  217.5700 N   0  0  0  0  0  0  0  0  0  0  0  0
  143.7010   79.0220  216.8170 H   0  0  0  0  0  0  0  0  0  0  0  0
  143.4300   78.3620  218.3470 H   0  0  0  0  0  0  0  0  0  0  0  0
  141.8570   78.1350  217.0280 C   0  0  0  0  0  0  0  0  0  0  0  0
  141.3630   78.7252  216.2421 H   0  0  0  0  0  0  0  0  0  0  0  0
  142.2442   77.1914  216.6160 H   0  0  0  0  0  0  0  0  0  0  0  0
  140.8320   77.8050  218.1290 C   0  0  0  0  0  0  0  0  0  0  0  0
  139.8647   77.5890  217.6520 H   0  0  0  0  0  0  0  0  0  0  0  0
  141.2210   76.9410  218.6877 H   0  0  0  0  0  0  0  0  0  0  0  0
  140.2730   79.3690  223.2840 C   0  0  0  0  0  0  0  0  0  0  0  0
  140.0860   80.7150  222.9310 C   0  0  0  0  0  0  0  0  0  0  0  0
  139.1077   81.0502  222.5562 H   0  0  0  0  0  0  0  0  0  0  0  0
  141.1050   81.6070  223.0490 N   0  0  0  0  0  0  0  0  0  0  0  0
  142.3320   81.2350  223.4980 C   0  0  0  0  0  0  0  0  0  0  0  0
  143.1344   81.9821  223.5871 H   0  0  0  0  0  0  0  0  0  0  0  0
  142.5750   79.9070  223.8460 C   0  0  0  0  0  0  0  0  0  0  0  0
  143.5686   79.6002  224.2048 H   0  0  0  0  0  0  0  0  0  0  0  0
  141.5460   78.9700  223.7350 C   0  0  0  0  0  0  0  0  0  0  0  0
  141.7299   77.9184  224.0002 H   0  0  0  0  0  0  0  0  0  0  0  0
  1  2  1  0
  2  3  2  0
  3  4  1  0
  3  5  1  0
  5  6  2  0
  6  7  1  0
  7  8  2  0
  8  9  1  0
  8 10  1  0
 10 11  1  0
 10 12  2  0
 12 13  1  0
 12 14  1  0
 14 15  1  0
 14 16  2  0
 16 17  1  0
 17 18  2  0
 17 19  1  0
 19 20  1  0
 20 21  1  0
 20 22  1  0
 20 23  1  0
 23 24  1  0
 23 25  1  0
 25 26  1  0
 25 27  1  0
 25 28  1  0
 28 29  1  0
 28 30  1  0
 28 31  1  0
 31 32  1  0
 31 33  1  0
 31 34  1  0
 34 35  1  0
 34 36  1  0
 34 37  1  0
 37 38  1  0
 37 39  1  0
  2 40  1  0
 40 41  2  0
 41 42  1  0
 41 43  1  0
 43 44  2  0
 44 45  1  0
 44 46  1  0
 46 47  1  0
 46 48  2  0
 48 49  1  0
 19  5  1  0
 37 23  1  0
 48 40  1  0
 16  7  1  0
M  CHG  1  31   1
M  END
>  <UniqueID>  (15) 
499

>  <SMILES>  (15) 
O=c1c2ccccc2nc(/C=C/c2cccnc2)n1CC1CC[NH2+]CC1

>  <Energy>  (15) 
70.44528255794896

>  <Genealogy>  (15) 
O=c1c2ccccc2nc(/C=C/c2cccnc2)n1CC1CC[NH2+]CC1 (protonated)
O=c1c2ccccc2nc(/C=C/c2cccnc2)n1CC1CC[NH2+]CC1 (cis-trans isomerization)
O=c1c2ccccc2nc(/C=C/c2cccnc2)n1CC1CC[NH2+]CC1 (3D coordinates assigned)
O=c1c2ccccc2nc(/C=C/c2cccnc2)n1CC1CC[NH2+]CC1 (nonaromatic ring conformer: 70.44528255794896 kcal/mol)

>  <smiles>  (15) 
O=c1c2ccccc2nc(/C=C/c2cccnc2)n1CC1CCNCC1

>  <score_type>  (15) 
oracle

>  <origin>  (15) 
autodockgpu

>  <m_score__min__energy>  (15) 
-7.5800000000000001

>  <m_primary>  (15) 
energy

>  <meeko>  (15) 
{"free_energy": -7.4, "intermolecular_energy": -8.9, "internal_energy": -2.11, "cluster_size": 20, "cluster_id": 1, "rank_in_cluster": 7}

>  <energy>  (15) 
-7.39

>  <cluster_rmsd>  (15) 
0.22

>  <rmsd>  (15) 
271.3

>  <cluster>  (15) 
1

$$$$
ACXZVNHFWDZWKJ-IDGBLARXNA-O
     RDKit          3D

 49 52  0  0  0  0  0  0  0  0999 V2000
  138.3964   78.3789  223.9358 H   0  0  0  0  0  0  0  0  0  0  0  0
  139.1490   78.4270  223.1350 C   0  0  0  0  0  0  0  0  0  0  0  0
  139.0030   77.6120  222.0780 C   0  0  0  0  0  0  0  0  0  0  0  0
  138.0381   77.5949  221.5502 H   0  0  0  0  0  0  0  0  0  0  0  0
  140.1050   76.7280  221.5940 C   0  0  0  0  0  0  0  0  0  0  0  0
  140.0330   75.4020  221.8920 N   0  0  0  0  0  0  0  0  0  0  0  0
  140.9750   74.5180  221.4980 C   0  0  0  0  0  0  0  0  0  0  0  0
  140.8510   73.1650  221.8370 C   0  0  0  0  0  0  0  0  0  0  0  0
  139.9869   72.8218  222.4248 H   0  0  0  0  0  0  0  0  0  0  0  0
  141.8260   72.2510  221.4280 C   0  0  0  0  0  0  0  0  0  0  0  0
  141.7291   71.1884  221.6952 H   0  0  0  0  0  0  0  0  0  0  0  0
  142.9240   72.6850  220.6800 C   0  0  0  0  0  0  0  0  0  0  0  0
  143.6895   71.9632  220.3590 H   0  0  0  0  0  0  0  0  0  0  0  0
  143.0510   74.0350  220.3390 C   0  0  0  0  0  0  0  0  0  0  0  0
  143.9158   74.3731  219.7493 H   0  0  0  0  0  0  0  0  0  0  0  0
  142.0740   74.9630  220.7490 C   0  0  0  0  0  0  0  0  0  0  0  0
  142.1530   76.3300  220.4330 C   0  0  0  0  0  0  0  0  0  0  0  0
  143.1320   76.7450  219.7520 O   0  0  0  0  0  0  0  0  0  0  0  0
  141.1770   77.2060  220.8600 N   0  0  0  0  0  0  0  0  0  0  0  0
  141.2980   78.6450  220.5220 C   0  0  0  0  0  0  0  0  0  0  0  0
  140.8073   79.2381  221.3078 H   0  0  0  0  0  0  0  0  0  0  0  0
  142.3677   78.8915  220.4515 H   0  0  0  0  0  0  0  0  0  0  0  0
  140.6350   78.9730  219.1560 C   0  0  0  0  0  0  0  0  0  0  0  0
  139.5577   79.0784  219.3520 H   0  0  0  0  0  0  0  0  0  0  0  0
  141.1270   80.3140  218.5740 C   0  0  0  0  0  0  0  0  0  0  0  0
  140.4650   80.6000  217.7434 H   0  0  0  0  0  0  0  0  0  0  0  0
  141.1065   81.0541  219.3876 H   0  0  0  0  0  0  0  0  0  0  0  0
  142.5770   80.2450  218.0470 C   0  0  0  0  0  0  0  0  0  0  0  0
  142.6801   80.9634  217.2204 H   0  0  0  0  0  0  0  0  0  0  0  0
  143.2373   80.4806  218.8946 H   0  0  0  0  0  0  0  0  0  0  0  0
  142.9700   78.9080  217.5540 N   0  0  0  0  0  0  0  0  0  0  0  0
  143.6810   79.0220  216.7940 H   0  0  0  0  0  0  0  0  0  0  0  0
  143.4220   78.3610  218.3250 H   0  0  0  0  0  0  0  0  0  0  0  0
  141.8340   78.1460  217.0220 C   0  0  0  0  0  0  0  0  0  0  0  0
  141.3356   78.7410  216.2426 H   0  0  0  0  0  0  0  0  0  0  0  0
  142.2117   77.2011  216.6043 H   0  0  0  0  0  0  0  0  0  0  0  0
  140.8180   77.8190  218.1320 C   0  0  0  0  0  0  0  0  0  0  0  0
  139.8447   77.6097  217.6641 H   0  0  0  0  0  0  0  0  0  0  0  0
  141.2069   76.9511  218.6848 H   0  0  0  0  0  0  0  0  0  0  0  0
  140.2690   79.3890  223.2830 C   0  0  0  0  0  0  0  0  0  0  0  0
  140.0640   80.7300  222.9210 C   0  0  0  0  0  0  0  0  0  0  0  0
  139.0818   81.0496  222.5426 H   0  0  0  0  0  0  0  0  0  0  0  0
  141.0710   81.6360  223.0350 N   0  0  0  0  0  0  0  0  0  0  0  0
  142.3030   81.2840  223.4900 C   0  0  0  0  0  0  0  0  0  0  0  0
  143.0949   82.0425  223.5772 H   0  0  0  0  0  0  0  0  0  0  0  0
  142.5620   79.9610  223.8460 C   0  0  0  0  0  0  0  0  0  0  0  0
  143.5586   79.6695  224.2090 H   0  0  0  0  0  0  0  0  0  0  0  0
  141.5460   79.0090  223.7380 C   0  0  0  0  0  0  0  0  0  0  0  0
  141.7436   77.9613  224.0087 H   0  0  0  0  0  0  0  0  0  0  0  0
  1  2  1  0
  2  3  2  0
  3  4  1  0
  3  5  1  0
  5  6  2  0
  6  7  1  0
  7  8  2  0
  8  9  1  0
  8 10  1  0
 10 11  1  0
 10 12  2  0
 12 13  1  0
 12 14  1  0
 14 15  1  0
 14 16  2  0
 16 17  1  0
 17 18  2  0
 17 19  1  0
 19 20  1  0
 20 21  1  0
 20 22  1  0
 20 23  1  0
 23 24  1  0
 23 25  1  0
 25 26  1  0
 25 27  1  0
 25 28  1  0
 28 29  1  0
 28 30  1  0
 28 31  1  0
 31 32  1  0
 31 33  1  0
 31 34  1  0
 34 35  1  0
 34 36  1  0
 34 37  1  0
 37 38  1  0
 37 39  1  0
  2 40  1  0
 40 41  2  0
 41 42  1  0
 41 43  1  0
 43 44  2  0
 44 45  1  0
 44 46  1  0
 46 47  1  0
 46 48  2  0
 48 49  1  0
 19  5  1  0
 37 23  1  0
 48 40  1  0
 16  7  1  0
M  CHG  1  31   1
M  END
>  <UniqueID>  (16) 
499

>  <SMILES>  (16) 
O=c1c2ccccc2nc(/C=C/c2cccnc2)n1CC1CC[NH2+]CC1

>  <Energy>  (16) 
70.44528255794896

>  <Genealogy>  (16) 
O=c1c2ccccc2nc(/C=C/c2cccnc2)n1CC1CC[NH2+]CC1 (protonated)
O=c1c2ccccc2nc(/C=C/c2cccnc2)n1CC1CC[NH2+]CC1 (cis-trans isomerization)
O=c1c2ccccc2nc(/C=C/c2cccnc2)n1CC1CC[NH2+]CC1 (3D coordinates assigned)
O=c1c2ccccc2nc(/C=C/c2cccnc2)n1CC1CC[NH2+]CC1 (nonaromatic ring conformer: 70.44528255794896 kcal/mol)

>  <smiles>  (16) 
O=c1c2ccccc2nc(/C=C/c2cccnc2)n1CC1CCNCC1

>  <score_type>  (16) 
oracle

>  <origin>  (16) 
autodockgpu

>  <m_score__min__energy>  (16) 
-7.5800000000000001

>  <m_primary>  (16) 
energy

>  <meeko>  (16) 
{"free_energy": -7.4, "intermolecular_energy": -8.89, "internal_energy": -2.12, "cluster_size": 20, "cluster_id": 1, "rank_in_cluster": 11}

>  <energy>  (16) 
-7.39

>  <cluster_rmsd>  (16) 
0.22

>  <rmsd>  (16) 
271.32

>  <cluster>  (16) 
1

$$$$
ACXZVNHFWDZWKJ-IDGBLARXNA-O
     RDKit          3D

 49 52  0  0  0  0  0  0  0  0999 V2000
  138.3282   78.3546  223.8628 H   0  0  0  0  0  0  0  0  0  0  0  0
  139.1110   78.3540  223.0900 C   0  0  0  0  0  0  0  0  0  0  0  0
  138.9760   77.5120  222.0520 C   0  0  0  0  0  0  0  0  0  0  0  0
  138.0106   77.4669  221.5266 H   0  0  0  0  0  0  0  0  0  0  0  0
  140.0920   76.6350  221.5870 C   0  0  0  0  0  0  0  0  0  0  0  0
  140.0220   75.3090  221.8820 N   0  0  0  0  0  0  0  0  0  0  0  0
  140.9760   74.4310  221.5030 C   0  0  0  0  0  0  0  0  0  0  0  0
  140.8550   73.0770  221.8380 C   0  0  0  0  0  0  0  0  0  0  0  0
  139.9830   72.7279  222.4105 H   0  0  0  0  0  0  0  0  0  0  0  0
  141.8420   72.1690  221.4450 C   0  0  0  0  0  0  0  0  0  0  0  0
  141.7467   71.1054  221.7090 H   0  0  0  0  0  0  0  0  0  0  0  0
  142.9500   72.6110  220.7170 C   0  0  0  0  0  0  0  0  0  0  0  0
  143.7254   71.8944  220.4085 H   0  0  0  0  0  0  0  0  0  0  0  0
  143.0750   73.9620  220.3800 C   0  0  0  0  0  0  0  0  0  0  0  0
  143.9480   74.3063  219.8062 H   0  0  0  0  0  0  0  0  0  0  0  0
  142.0850   74.8830  220.7740 C   0  0  0  0  0  0  0  0  0  0  0  0
  142.1620   76.2510  220.4620 C   0  0  0  0  0  0  0  0  0  0  0  0
  143.1510   76.6730  219.7990 O   0  0  0  0  0  0  0  0  0  0  0  0
  141.1740   77.1210  220.8720 N   0  0  0  0  0  0  0  0  0  0  0  0
  141.2930   78.5610  220.5390 C   0  0  0  0  0  0  0  0  0  0  0  0
  140.7008   79.1438  221.2599 H   0  0  0  0  0  0  0  0  0  0  0  0
  142.3565   78.8377  220.5878 H   0  0  0  0  0  0  0  0  0  0  0  0
  140.7790   78.8630  219.1040 C   0  0  0  0  0  0  0  0  0  0  0  0
  139.6836   78.9324  219.1760 H   0  0  0  0  0  0  0  0  0  0  0  0
  141.2890   80.2190  218.5730 C   0  0  0  0  0  0  0  0  0  0  0  0
  140.7168   80.4804  217.6706 H   0  0  0  0  0  0  0  0  0  0  0  0
  141.1511   80.9604  219.3738 H   0  0  0  0  0  0  0  0  0  0  0  0
  142.7910   80.1970  218.2150 C   0  0  0  0  0  0  0  0  0  0  0  0
  142.9641   80.9165  217.4011 H   0  0  0  0  0  0  0  0  0  0  0  0
  143.3425   80.4565  219.1307 H   0  0  0  0  0  0  0  0  0  0  0  0
  143.2810   78.8720  217.7780 N   0  0  0  0  0  0  0  0  0  0  0  0
  144.0700   79.0090  217.1030 H   0  0  0  0  0  0  0  0  0  0  0  0
  143.6600   78.3430  218.5980 H   0  0  0  0  0  0  0  0  0  0  0  0
  142.2380   78.0720  217.1250 C   0  0  0  0  0  0  0  0  0  0  0  0
  141.8120   78.6488  216.2908 H   0  0  0  0  0  0  0  0  0  0  0  0
  142.6910   77.1393  216.7579 H   0  0  0  0  0  0  0  0  0  0  0  0
  141.1140   77.7140  218.1150 C   0  0  0  0  0  0  0  0  0  0  0  0
  140.2073   77.4715  217.5413 H   0  0  0  0  0  0  0  0  0  0  0  0
  141.4659   76.8607  218.7134 H   0  0  0  0  0  0  0  0  0  0  0  0
  140.2560   79.2830  223.2530 C   0  0  0  0  0  0  0  0  0  0  0  0
  140.0890   80.6340  222.9080 C   0  0  0  0  0  0  0  0  0  0  0  0
  139.1168   80.9856  222.5323 H   0  0  0  0  0  0  0  0  0  0  0  0
  141.1200   81.5100  223.0350 N   0  0  0  0  0  0  0  0  0  0  0  0
  142.3400   81.1180  223.4880 C   0  0  0  0  0  0  0  0  0  0  0  0
  143.1520   81.8534  223.5865 H   0  0  0  0  0  0  0  0  0  0  0  0
  142.5630   79.7840  223.8280 C   0  0  0  0  0  0  0  0  0  0  0  0
  143.5505   79.4606  224.1889 H   0  0  0  0  0  0  0  0  0  0  0  0
  141.5210   78.8630  223.7060 C   0  0  0  0  0  0  0  0  0  0  0  0
  141.6887   77.8070  223.9643 H   0  0  0  0  0  0  0  0  0  0  0  0
  1  2  1  0
  2  3  2  0
  3  4  1  0
  3  5  1  0
  5  6  2  0
  6  7  1  0
  7  8  2  0
  8  9  1  0
  8 10  1  0
 10 11  1  0
 10 12  2  0
 12 13  1  0
 12 14  1  0
 14 15  1  0
 14 16  2  0
 16 17  1  0
 17 18  2  0
 17 19  1  0
 19 20  1  0
 20 21  1  0
 20 22  1  0
 20 23  1  0
 23 24  1  0
 23 25  1  0
 25 26  1  0
 25 27  1  0
 25 28  1  0
 28 29  1  0
 28 30  1  0
 28 31  1  0
 31 32  1  0
 31 33  1  0
 31 34  1  0
 34 35  1  0
 34 36  1  0
 34 37  1  0
 37 38  1  0
 37 39  1  0
  2 40  1  0
 40 41  2  0
 41 42  1  0
 41 43  1  0
 43 44  2  0
 44 45  1  0
 44 46  1  0
 46 47  1  0
 46 48  2  0
 48 49  1  0
 19  5  1  0
 37 23  1  0
 48 40  1  0
 16  7  1  0
M  CHG  1  31   1
M  END
>  <UniqueID>  (17) 
499

>  <SMILES>  (17) 
O=c1c2ccccc2nc(/C=C/c2cccnc2)n1CC1CC[NH2+]CC1

>  <Energy>  (17) 
70.44528255794896

>  <Genealogy>  (17) 
O=c1c2ccccc2nc(/C=C/c2cccnc2)n1CC1CC[NH2+]CC1 (protonated)
O=c1c2ccccc2nc(/C=C/c2cccnc2)n1CC1CC[NH2+]CC1 (cis-trans isomerization)
O=c1c2ccccc2nc(/C=C/c2cccnc2)n1CC1CC[NH2+]CC1 (3D coordinates assigned)
O=c1c2ccccc2nc(/C=C/c2cccnc2)n1CC1CC[NH2+]CC1 (nonaromatic ring conformer: 70.44528255794896 kcal/mol)

>  <smiles>  (17) 
O=c1c2ccccc2nc(/C=C/c2cccnc2)n1CC1CCNCC1

>  <score_type>  (17) 
oracle

>  <origin>  (17) 
autodockgpu

>  <m_score__min__energy>  (17) 
-7.5800000000000001

>  <m_primary>  (17) 
energy

>  <meeko>  (17) 
{"free_energy": -7.58, "intermolecular_energy": -9.07, "internal_energy": -1.98, "cluster_size": 20, "cluster_id": 1, "rank_in_cluster": 2}

>  <energy>  (17) 
-7.38

>  <cluster_rmsd>  (17) 
0.23

>  <rmsd>  (17) 
271.29

>  <cluster>  (17) 
1

$$$$
ACXZVNHFWDZWKJ-IDGBLARXNA-O
     RDKit          3D

 49 52  0  0  0  0  0  0  0  0999 V2000
  138.4230   78.3647  223.9297 H   0  0  0  0  0  0  0  0  0  0  0  0
  139.1720   78.4200  223.1260 C   0  0  0  0  0  0  0  0  0  0  0  0
  139.0260   77.6080  222.0660 C   0  0  0  0  0  0  0  0  0  0  0  0
  138.0622   77.5950  221.5359 H   0  0  0  0  0  0  0  0  0  0  0  0
  140.1270   76.7220  221.5820 C   0  0  0  0  0  0  0  0  0  0  0  0
  140.0510   75.3960  221.8790 N   0  0  0  0  0  0  0  0  0  0  0  0
  140.9920   74.5110  221.4850 C   0  0  0  0  0  0  0  0  0  0  0  0
  140.8650   73.1580  221.8220 C   0  0  0  0  0  0  0  0  0  0  0  0
  139.9996   72.8161  222.4086 H   0  0  0  0  0  0  0  0  0  0  0  0
  141.8380   72.2420  221.4130 C   0  0  0  0  0  0  0  0  0  0  0  0
  141.7388   71.1793  221.6792 H   0  0  0  0  0  0  0  0  0  0  0  0
  142.9370   72.6750  220.6660 C   0  0  0  0  0  0  0  0  0  0  0  0
  143.7010   71.9518  220.3447 H   0  0  0  0  0  0  0  0  0  0  0  0
  143.0680   74.0250  220.3260 C   0  0  0  0  0  0  0  0  0  0  0  0
  143.9343   74.3618  219.7377 H   0  0  0  0  0  0  0  0  0  0  0  0
  142.0920   74.9540  220.7360 C   0  0  0  0  0  0  0  0  0  0  0  0
  142.1740   76.3210  220.4220 C   0  0  0  0  0  0  0  0  0  0  0  0
  143.1540   76.7350  219.7410 O   0  0  0  0  0  0  0  0  0  0  0  0
  141.2000   77.1980  220.8480 N   0  0  0  0  0  0  0  0  0  0  0  0
  141.3240   78.6380  220.5120 C   0  0  0  0  0  0  0  0  0  0  0  0
  140.8368   79.2312  221.2999 H   0  0  0  0  0  0  0  0  0  0  0  0
  142.3941   78.8824  220.4395 H   0  0  0  0  0  0  0  0  0  0  0  0
  140.6580   78.9690  219.1480 C   0  0  0  0  0  0  0  0  0  0  0  0
  139.5818   79.0782  219.3478 H   0  0  0  0  0  0  0  0  0  0  0  0
  141.1520   80.3080  218.5650 C   0  0  0  0  0  0  0  0  0  0  0  0
  140.4882   80.5962  217.7366 H   0  0  0  0  0  0  0  0  0  0  0  0
  141.1364   81.0478  219.3789 H   0  0  0  0  0  0  0  0  0  0  0  0
  142.6010   80.2350  218.0330 C   0  0  0  0  0  0  0  0  0  0  0  0
  142.7037   80.9530  217.2060 H   0  0  0  0  0  0  0  0  0  0  0  0
  143.2653   80.4693  218.8778 H   0  0  0  0  0  0  0  0  0  0  0  0
  142.9870   78.8960  217.5390 N   0  0  0  0  0  0  0  0  0  0  0  0
  143.6960   79.0090  216.7770 H   0  0  0  0  0  0  0  0  0  0  0  0
  143.4390   78.3470  218.3080 H   0  0  0  0  0  0  0  0  0  0  0  0
  141.8470   78.1390  217.0100 C   0  0  0  0  0  0  0  0  0  0  0  0
  141.3485   78.7365  216.2325 H   0  0  0  0  0  0  0  0  0  0  0  0
  142.2199   77.1930  216.5904 H   0  0  0  0  0  0  0  0  0  0  0  0
  140.8330   77.8150  218.1230 C   0  0  0  0  0  0  0  0  0  0  0  0
  139.8575   77.6098  217.6580 H   0  0  0  0  0  0  0  0  0  0  0  0
  141.2200   76.9451  218.6739 H   0  0  0  0  0  0  0  0  0  0  0  0
  140.2870   79.3870  223.2730 C   0  0  0  0  0  0  0  0  0  0  0  0
  140.0800   80.7250  222.9000 C   0  0  0  0  0  0  0  0  0  0  0  0
  139.0990   81.0381  222.5133 H   0  0  0  0  0  0  0  0  0  0  0  0
  141.0820   81.6360  223.0130 N   0  0  0  0  0  0  0  0  0  0  0  0
  142.3130   81.2910  223.4770 C   0  0  0  0  0  0  0  0  0  0  0  0
  143.1016   82.0531  223.5628 H   0  0  0  0  0  0  0  0  0  0  0  0
  142.5760   79.9720  223.8440 C   0  0  0  0  0  0  0  0  0  0  0  0
  143.5720   79.6870  224.2138 H   0  0  0  0  0  0  0  0  0  0  0  0
  141.5640   79.0160  223.7380 C   0  0  0  0  0  0  0  0  0  0  0  0
  141.7641   77.9713  224.0181 H   0  0  0  0  0  0  0  0  0  0  0  0
  1  2  1  0
  2  3  2  0
  3  4  1  0
  3  5  1  0
  5  6  2  0
  6  7  1  0
  7  8  2  0
  8  9  1  0
  8 10  1  0
 10 11  1  0
 10 12  2  0
 12 13  1  0
 12 14  1  0
 14 15  1  0
 14 16  2  0
 16 17  1  0
 17 18  2  0
 17 19  1  0
 19 20  1  0
 20 21  1  0
 20 22  1  0
 20 23  1  0
 23 24  1  0
 23 25  1  0
 25 26  1  0
 25 27  1  0
 25 28  1  0
 28 29  1  0
 28 30  1  0
 28 31  1  0
 31 32  1  0
 31 33  1  0
 31 34  1  0
 34 35  1  0
 34 36  1  0
 34 37  1  0
 37 38  1  0
 37 39  1  0
  2 40  1  0
 40 41  2  0
 41 42  1  0
 41 43  1  0
 43 44  2  0
 44 45  1  0
 44 46  1  0
 46 47  1  0
 46 48  2  0
 48 49  1  0
 19  5  1  0
 37 23  1  0
 48 40  1  0
 16  7  1  0
M  CHG  1  31   1
M  END
>  <UniqueID>  (18) 
499

>  <SMILES>  (18) 
O=c1c2ccccc2nc(/C=C/c2cccnc2)n1CC1CC[NH2+]CC1

>  <Energy>  (18) 
70.44528255794896

>  <Genealogy>  (18) 
O=c1c2ccccc2nc(/C=C/c2cccnc2)n1CC1CC[NH2+]CC1 (protonated)
O=c1c2ccccc2nc(/C=C/c2cccnc2)n1CC1CC[NH2+]CC1 (cis-trans isomerization)
O=c1c2ccccc2nc(/C=C/c2cccnc2)n1CC1CC[NH2+]CC1 (3D coordinates assigned)
O=c1c2ccccc2nc(/C=C/c2cccnc2)n1CC1CC[NH2+]CC1 (nonaromatic ring conformer: 70.44528255794896 kcal/mol)

>  <smiles>  (18) 
O=c1c2ccccc2nc(/C=C/c2cccnc2)n1CC1CCNCC1

>  <score_type>  (18) 
oracle

>  <origin>  (18) 
autodockgpu

>  <m_score__min__energy>  (18) 
-7.5800000000000001

>  <m_primary>  (18) 
energy

>  <meeko>  (18) 
{"free_energy": -7.39, "intermolecular_energy": -8.88, "internal_energy": -2.12, "cluster_size": 20, "cluster_id": 1, "rank_in_cluster": 12}

>  <energy>  (18) 
-7.38

>  <cluster_rmsd>  (18) 
0.23

>  <rmsd>  (18) 
271.29

>  <cluster>  (18) 
1

$$$$
ACXZVNHFWDZWKJ-IDGBLARXNA-O
     RDKit          3D

 49 52  0  0  0  0  0  0  0  0999 V2000
  138.4319   78.2676  223.9095 H   0  0  0  0  0  0  0  0  0  0  0  0
  139.1770   78.3450  223.1040 C   0  0  0  0  0  0  0  0  0  0  0  0
  139.0410   77.5430  222.0360 C   0  0  0  0  0  0  0  0  0  0  0  0
  138.0780   77.5251  221.5047 H   0  0  0  0  0  0  0  0  0  0  0  0
  140.1520   76.6740  221.5440 C   0  0  0  0  0  0  0  0  0  0  0  0
  140.0870   75.3440  221.8210 N   0  0  0  0  0  0  0  0  0  0  0  0
  141.0380   74.4730  221.4180 C   0  0  0  0  0  0  0  0  0  0  0  0
  140.9220   73.1140  221.7350 C   0  0  0  0  0  0  0  0  0  0  0  0
  140.0573   72.7558  222.3129 H   0  0  0  0  0  0  0  0  0  0  0  0
  141.9050   72.2130  221.3170 C   0  0  0  0  0  0  0  0  0  0  0  0
  141.8143   71.1458  221.5677 H   0  0  0  0  0  0  0  0  0  0  0  0
  143.0030   72.6660  220.5810 C   0  0  0  0  0  0  0  0  0  0  0  0
  143.7745   71.9543  220.2519 H   0  0  0  0  0  0  0  0  0  0  0  0
  143.1230   74.0220  220.2620 C   0  0  0  0  0  0  0  0  0  0  0  0
  143.9890   74.3757  219.6832 H   0  0  0  0  0  0  0  0  0  0  0  0
  142.1360   74.9360  220.6810 C   0  0  0  0  0  0  0  0  0  0  0  0
  142.2070   76.3080  220.3870 C   0  0  0  0  0  0  0  0  0  0  0  0
  143.1880   76.7420  219.7180 O   0  0  0  0  0  0  0  0  0  0  0  0
  141.2240   77.1710  220.8220 N   0  0  0  0  0  0  0  0  0  0  0  0
  141.3370   78.6160  220.5080 C   0  0  0  0  0  0  0  0  0  0  0  0
  140.8462   79.1935  221.3052 H   0  0  0  0  0  0  0  0  0  0  0  0
  142.4052   78.8693  220.4383 H   0  0  0  0  0  0  0  0  0  0  0  0
  140.6670   78.9630  219.1490 C   0  0  0  0  0  0  0  0  0  0  0  0
  139.5915   79.0728  219.3523 H   0  0  0  0  0  0  0  0  0  0  0  0
  141.1630   80.3070  218.5790 C   0  0  0  0  0  0  0  0  0  0  0  0
  140.4974   80.6060  217.7559 H   0  0  0  0  0  0  0  0  0  0  0  0
  141.1521   81.0379  219.4010 H   0  0  0  0  0  0  0  0  0  0  0  0
  142.6090   80.2360  218.0420 C   0  0  0  0  0  0  0  0  0  0  0  0
  142.7106   80.9627  217.2225 H   0  0  0  0  0  0  0  0  0  0  0  0
  143.2759   80.4589  218.8879 H   0  0  0  0  0  0  0  0  0  0  0  0
  142.9920   78.9020  217.5320 N   0  0  0  0  0  0  0  0  0  0  0  0
  143.6990   79.0210  216.7690 H   0  0  0  0  0  0  0  0  0  0  0  0
  143.4450   78.3440  218.2940 H   0  0  0  0  0  0  0  0  0  0  0  0
  141.8480   78.1520  216.9990 C   0  0  0  0  0  0  0  0  0  0  0  0
  141.3482   78.7581  216.2291 H   0  0  0  0  0  0  0  0  0  0  0  0
  142.2176   77.2094  216.5690 H   0  0  0  0  0  0  0  0  0  0  0  0
  140.8370   77.8190  218.1120 C   0  0  0  0  0  0  0  0  0  0  0  0
  139.8597   77.6201  217.6480 H   0  0  0  0  0  0  0  0  0  0  0  0
  141.2244   76.9432  218.6532 H   0  0  0  0  0  0  0  0  0  0  0  0
  140.2760   79.3300  223.2590 C   0  0  0  0  0  0  0  0  0  0  0  0
  140.0450   80.6670  222.8970 C   0  0  0  0  0  0  0  0  0  0  0  0
  139.0584   80.9663  222.5136 H   0  0  0  0  0  0  0  0  0  0  0  0
  141.0320   81.5940  223.0170 N   0  0  0  0  0  0  0  0  0  0  0  0
  142.2690   81.2660  223.4770 C   0  0  0  0  0  0  0  0  0  0  0  0
  143.0449   82.0403  223.5683 H   0  0  0  0  0  0  0  0  0  0  0  0
  142.5540   79.9480  223.8330 C   0  0  0  0  0  0  0  0  0  0  0  0
  143.5549   79.6765  224.1997 H   0  0  0  0  0  0  0  0  0  0  0  0
  141.5580   78.9760  223.7200 C   0  0  0  0  0  0  0  0  0  0  0  0
  141.7754   77.9324  223.9915 H   0  0  0  0  0  0  0  0  0  0  0  0
  1  2  1  0
  2  3  2  0
  3  4  1  0
  3  5  1  0
  5  6  2  0
  6  7  1  0
  7  8  2  0
  8  9  1  0
  8 10  1  0
 10 11  1  0
 10 12  2  0
 12 13  1  0
 12 14  1  0
 14 15  1  0
 14 16  2  0
 16 17  1  0
 17 18  2  0
 17 19  1  0
 19 20  1  0
 20 21  1  0
 20 22  1  0
 20 23  1  0
 23 24  1  0
 23 25  1  0
 25 26  1  0
 25 27  1  0
 25 28  1  0
 28 29  1  0
 28 30  1  0
 28 31  1  0
 31 32  1  0
 31 33  1  0
 31 34  1  0
 34 35  1  0
 34 36  1  0
 34 37  1  0
 37 38  1  0
 37 39  1  0
  2 40  1  0
 40 41  2  0
 41 42  1  0
 41 43  1  0
 43 44  2  0
 44 45  1  0
 44 46  1  0
 46 47  1  0
 46 48  2  0
 48 49  1  0
 19  5  1  0
 37 23  1  0
 48 40  1  0
 16  7  1  0
M  CHG  1  31   1
M  END
>  <UniqueID>  (19) 
499

>  <SMILES>  (19) 
O=c1c2ccccc2nc(/C=C/c2cccnc2)n1CC1CC[NH2+]CC1

>  <Energy>  (19) 
70.44528255794896

>  <Genealogy>  (19) 
O=c1c2ccccc2nc(/C=C/c2cccnc2)n1CC1CC[NH2+]CC1 (protonated)
O=c1c2ccccc2nc(/C=C/c2cccnc2)n1CC1CC[NH2+]CC1 (cis-trans isomerization)
O=c1c2ccccc2nc(/C=C/c2cccnc2)n1CC1CC[NH2+]CC1 (3D coordinates assigned)
O=c1c2ccccc2nc(/C=C/c2cccnc2)n1CC1CC[NH2+]CC1 (nonaromatic ring conformer: 70.44528255794896 kcal/mol)

>  <smiles>  (19) 
O=c1c2ccccc2nc(/C=C/c2cccnc2)n1CC1CCNCC1

>  <score_type>  (19) 
oracle

>  <origin>  (19) 
autodockgpu

>  <m_score__min__energy>  (19) 
-7.5800000000000001

>  <m_primary>  (19) 
energy

>  <meeko>  (19) 
{"free_energy": -7.4, "intermolecular_energy": -8.89, "internal_energy": -2.13, "cluster_size": 20, "cluster_id": 1, "rank_in_cluster": 10}

>  <energy>  (19) 
-7.38

>  <cluster_rmsd>  (19) 
0.23

>  <rmsd>  (19) 
271.3

>  <cluster>  (19) 
1

$$$$
ACXZVNHFWDZWKJ-IDGBLARXNA-O
     RDKit          3D

 49 52  0  0  0  0  0  0  0  0999 V2000
  138.3401   78.3168  223.8984 H   0  0  0  0  0  0  0  0  0  0  0  0
  139.0990   78.3550  223.1030 C   0  0  0  0  0  0  0  0  0  0  0  0
  138.9620   77.5260  222.0550 C   0  0  0  0  0  0  0  0  0  0  0  0
  138.0007   77.4995  221.5209 H   0  0  0  0  0  0  0  0  0  0  0  0
  140.0700   76.6390  221.5900 C   0  0  0  0  0  0  0  0  0  0  0  0
  139.9890   75.3130  221.8860 N   0  0  0  0  0  0  0  0  0  0  0  0
  140.9350   74.4270  221.5070 C   0  0  0  0  0  0  0  0  0  0  0  0
  140.8020   73.0740  221.8430 C   0  0  0  0  0  0  0  0  0  0  0  0
  139.9272   72.7329  222.4161 H   0  0  0  0  0  0  0  0  0  0  0  0
  141.7810   72.1570  221.4500 C   0  0  0  0  0  0  0  0  0  0  0  0
  141.6767   71.0945  221.7148 H   0  0  0  0  0  0  0  0  0  0  0  0
  142.8920   72.5890  220.7210 C   0  0  0  0  0  0  0  0  0  0  0  0
  143.6610   71.8653  220.4128 H   0  0  0  0  0  0  0  0  0  0  0  0
  143.0290   73.9390  220.3820 C   0  0  0  0  0  0  0  0  0  0  0  0
  143.9046   74.2749  219.8071 H   0  0  0  0  0  0  0  0  0  0  0  0
  142.0470   74.8690  220.7760 C   0  0  0  0  0  0  0  0  0  0  0  0
  142.1340   76.2360  220.4630 C   0  0  0  0  0  0  0  0  0  0  0  0
  143.1260   76.6490  219.7980 O   0  0  0  0  0  0  0  0  0  0  0  0
  141.1540   77.1140  220.8730 N   0  0  0  0  0  0  0  0  0  0  0  0
  141.2850   78.5530  220.5380 C   0  0  0  0  0  0  0  0  0  0  0  0
  140.7007   79.1418  221.2605 H   0  0  0  0  0  0  0  0  0  0  0  0
  142.3513   78.8196  220.5825 H   0  0  0  0  0  0  0  0  0  0  0  0
  140.7690   78.8590  219.1050 C   0  0  0  0  0  0  0  0  0  0  0  0
  139.6731   78.9205  219.1772 H   0  0  0  0  0  0  0  0  0  0  0  0
  141.2690   80.2210  218.5810 C   0  0  0  0  0  0  0  0  0  0  0  0
  140.6944   80.4830  217.6803 H   0  0  0  0  0  0  0  0  0  0  0  0
  141.1263   80.9570  219.3860 H   0  0  0  0  0  0  0  0  0  0  0  0
  142.7710   80.2120  218.2220 C   0  0  0  0  0  0  0  0  0  0  0  0
  142.9381   80.9363  217.4112 H   0  0  0  0  0  0  0  0  0  0  0  0
  143.3209   80.4716  219.1386 H   0  0  0  0  0  0  0  0  0  0  0  0
  143.2710   78.8930  217.7790 N   0  0  0  0  0  0  0  0  0  0  0  0
  144.0580   79.0390  217.1040 H   0  0  0  0  0  0  0  0  0  0  0  0
  143.6540   78.3620  218.5970 H   0  0  0  0  0  0  0  0  0  0  0  0
  142.2340   78.0880  217.1220 C   0  0  0  0  0  0  0  0  0  0  0  0
  141.8037   78.6654  216.2905 H   0  0  0  0  0  0  0  0  0  0  0  0
  142.6941   77.1605  216.7505 H   0  0  0  0  0  0  0  0  0  0  0  0
  141.1130   77.7170  218.1100 C   0  0  0  0  0  0  0  0  0  0  0  0
  140.2082   77.4704  217.5351 H   0  0  0  0  0  0  0  0  0  0  0  0
  141.4715   76.8637  218.7044 H   0  0  0  0  0  0  0  0  0  0  0  0
  140.2170   79.3190  223.2470 C   0  0  0  0  0  0  0  0  0  0  0  0
  140.0210   80.6520  222.8510 C   0  0  0  0  0  0  0  0  0  0  0  0
  139.0457   80.9640  222.4493 H   0  0  0  0  0  0  0  0  0  0  0  0
  141.0260   81.5590  222.9600 N   0  0  0  0  0  0  0  0  0  0  0  0
  142.2500   81.2160  223.4430 C   0  0  0  0  0  0  0  0  0  0  0  0
  143.0414   81.9756  223.5251 H   0  0  0  0  0  0  0  0  0  0  0  0
  142.5020   79.9020  223.8340 C   0  0  0  0  0  0  0  0  0  0  0  0
  143.4923   79.6181  224.2195 H   0  0  0  0  0  0  0  0  0  0  0  0
  141.4860   78.9490  223.7320 C   0  0  0  0  0  0  0  0  0  0  0  0
  141.6775   77.9079  224.0310 H   0  0  0  0  0  0  0  0  0  0  0  0
  1  2  1  0
  2  3  2  0
  3  4  1  0
  3  5  1  0
  5  6  2  0
  6  7  1  0
  7  8  2  0
  8  9  1  0
  8 10  1  0
 10 11  1  0
 10 12  2  0
 12 13  1  0
 12 14  1  0
 14 15  1  0
 14 16  2  0
 16 17  1  0
 17 18  2  0
 17 19  1  0
 19 20  1  0
 20 21  1  0
 20 22  1  0
 20 23  1  0
 23 24  1  0
 23 25  1  0
 25 26  1  0
 25 27  1  0
 25 28  1  0
 28 29  1  0
 28 30  1  0
 28 31  1  0
 31 32  1  0
 31 33  1  0
 31 34  1  0
 34 35  1  0
 34 36  1  0
 34 37  1  0
 37 38  1  0
 37 39  1  0
  2 40  1  0
 40 41  2  0
 41 42  1  0
 41 43  1  0
 43 44  2  0
 44 45  1  0
 44 46  1  0
 46 47  1  0
 46 48  2  0
 48 49  1  0
 19  5  1  0
 37 23  1  0
 48 40  1  0
 16  7  1  0
M  CHG  1  31   1
M  END
>  <UniqueID>  (20) 
499

>  <SMILES>  (20) 
O=c1c2ccccc2nc(/C=C/c2cccnc2)n1CC1CC[NH2+]CC1

>  <Energy>  (20) 
70.44528255794896

>  <Genealogy>  (20) 
O=c1c2ccccc2nc(/C=C/c2cccnc2)n1CC1CC[NH2+]CC1 (protonated)
O=c1c2ccccc2nc(/C=C/c2cccnc2)n1CC1CC[NH2+]CC1 (cis-trans isomerization)
O=c1c2ccccc2nc(/C=C/c2cccnc2)n1CC1CC[NH2+]CC1 (3D coordinates assigned)
O=c1c2ccccc2nc(/C=C/c2cccnc2)n1CC1CC[NH2+]CC1 (nonaromatic ring conformer: 70.44528255794896 kcal/mol)

>  <smiles>  (20) 
O=c1c2ccccc2nc(/C=C/c2cccnc2)n1CC1CCNCC1

>  <score_type>  (20) 
oracle

>  <origin>  (20) 
autodockgpu

>  <m_score__min__energy>  (20) 
-7.5800000000000001

>  <m_primary>  (20) 
energy

>  <meeko>  (20) 
{"free_energy": -7.56, "intermolecular_energy": -9.05, "internal_energy": -1.99, "cluster_size": 20, "cluster_id": 1, "rank_in_cluster": 5}

>  <energy>  (20) 
-7.05

>  <cluster_rmsd>  (20) 
1.05

>  <rmsd>  (20) 
271.02

>  <cluster>  (20) 
1

$$$$
ACXZVNHFWDZWKJ-BQYQJAHWNA-N
     RDKit          3D

 48 51  0  0  0  0  0  0  0  0999 V2000
  138.7846   77.9310  223.9309 H   0  0  0  0  0  0  0  0  0  0  0  0
  139.4120   78.1530  223.0550 C   0  0  0  0  0  0  0  0  0  0  0  0
  139.2520   77.3960  221.9620 C   0  0  0  0  0  0  0  0  0  0  0  0
  138.3623   77.5389  221.3312 H   0  0  0  0  0  0  0  0  0  0  0  0
  140.2460   76.3760  221.5900 C   0  0  0  0  0  0  0  0  0  0  0  0
  139.9610   75.0960  221.9380 N   0  0  0  0  0  0  0  0  0  0  0  0
  140.7700   74.0660  221.6000 C   0  0  0  0  0  0  0  0  0  0  0  0
  140.4390   72.7610  221.9820 C   0  0  0  0  0  0  0  0  0  0  0  0
  139.5317   72.5748  222.5754 H   0  0  0  0  0  0  0  0  0  0  0  0
  141.2620   71.6940  221.6090 C   0  0  0  0  0  0  0  0  0  0  0  0
  141.0030   70.6687  221.9119 H   0  0  0  0  0  0  0  0  0  0  0  0
  142.4130   71.9280  220.8520 C   0  0  0  0  0  0  0  0  0  0  0  0
  143.0571   71.0861  220.5582 H   0  0  0  0  0  0  0  0  0  0  0  0
  142.7480   73.2300  220.4670 C   0  0  0  0  0  0  0  0  0  0  0  0
  143.6545   73.4104  219.8706 H   0  0  0  0  0  0  0  0  0  0  0  0
  141.9260   74.3110  220.8420 C   0  0  0  0  0  0  0  0  0  0  0  0
  142.2230   75.6390  220.4930 C   0  0  0  0  0  0  0  0  0  0  0  0
  143.2420   75.8750  219.7850 O   0  0  0  0  0  0  0  0  0  0  0  0
  141.4190   76.6730  220.9230 N   0  0  0  0  0  0  0  0  0  0  0  0
  141.8150   78.0740  220.6270 C   0  0  0  0  0  0  0  0  0  0  0  0
  141.5805   78.6874  221.5095 H   0  0  0  0  0  0  0  0  0  0  0  0
  142.8877   78.0430  220.3852 H   0  0  0  0  0  0  0  0  0  0  0  0
  141.1130   78.7160  219.3940 C   0  0  0  0  0  0  0  0  0  0  0  0
  140.0519   78.6074  219.6627 H   0  0  0  0  0  0  0  0  0  0  0  0
  141.3500   80.2340  219.2210 C   0  0  0  0  0  0  0  0  0  0  0  0
  140.4512   80.6789  218.7692 H   0  0  0  0  0  0  0  0  0  0  0  0
  141.5592   80.6479  220.2185 H   0  0  0  0  0  0  0  0  0  0  0  0
  142.5560   80.5600  218.3300 C   0  0  0  0  0  0  0  0  0  0  0  0
  142.5957   81.6455  218.1565 H   0  0  0  0  0  0  0  0  0  0  0  0
  143.4740   80.2244  218.8347 H   0  0  0  0  0  0  0  0  0  0  0  0
  142.4410   79.8690  217.0430 N   0  0  0  0  0  0  0  0  0  0  0  0
  143.2700   80.1400  216.4630 H   0  0  0  0  0  0  0  0  0  0  0  0
  142.4950   78.4190  217.2460 C   0  0  0  0  0  0  0  0  0  0  0  0
  142.4907   77.9157  216.2679 H   0  0  0  0  0  0  0  0  0  0  0  0
  143.4148   78.1696  217.7954 H   0  0  0  0  0  0  0  0  0  0  0  0
  141.2850   77.9480  218.0620 C   0  0  0  0  0  0  0  0  0  0  0  0
  140.3778   78.0905  217.4564 H   0  0  0  0  0  0  0  0  0  0  0  0
  141.4515   76.8901  218.3133 H   0  0  0  0  0  0  0  0  0  0  0  0
  140.3810   79.2720  223.1610 C   0  0  0  0  0  0  0  0  0  0  0  0
  140.1070   80.5770  222.7040 C   0  0  0  0  0  0  0  0  0  0  0  0
  139.1329   80.8037  222.2460 H   0  0  0  0  0  0  0  0  0  0  0  0
  141.0420   81.5570  222.8270 N   0  0  0  0  0  0  0  0  0  0  0  0
  142.2590   81.3210  223.3830 C   0  0  0  0  0  0  0  0  0  0  0  0
  142.9898   82.1381  223.4733 H   0  0  0  0  0  0  0  0  0  0  0  0
  142.5820   80.0440  223.8390 C   0  0  0  0  0  0  0  0  0  0  0  0
  143.5676   79.8462  224.2857 H   0  0  0  0  0  0  0  0  0  0  0  0
  141.6420   79.0190  223.7230 C   0  0  0  0  0  0  0  0  0  0  0  0
  141.8909   78.0067  224.0742 H   0  0  0  0  0  0  0  0  0  0  0  0
  1  2  1  0
  2  3  2  0
  3  4  1  0
  3  5  1  0
  5  6  2  0
  6  7  1  0
  7  8  2  0
  8  9  1  0
  8 10  1  0
 10 11  1  0
 10 12  2  0
 12 13  1  0
 12 14  1  0
 14 15  1  0
 14 16  2  0
 16 17  1  0
 17 18  2  0
 17 19  1  0
 19 20  1  0
 20 21  1  0
 20 22  1  0
 20 23  1  0
 23 24  1  0
 23 25  1  0
 25 26  1  0
 25 27  1  0
 25 28  1  0
 28 29  1  0
 28 30  1  0
 28 31  1  0
 31 32  1  0
 31 33  1  0
 33 34  1  0
 33 35  1  0
 33 36  1  0
 36 37  1  0
 36 38  1  0
  2 39  1  0
 39 40  2  0
 40 41  1  0
 40 42  1  0
 42 43  2  0
 43 44  1  0
 43 45  1  0
 45 46  1  0
 45 47  2  0
 47 48  1  0
 19  5  1  0
 36 23  1  0
 47 39  1  0
 16  7  1  0
M  END
>  <UniqueID>  (21) 
500

>  <SMILES>  (21) 
O=c1c2ccccc2nc(/C=C/c2cccnc2)n1CC1CCNCC1

>  <Energy>  (21) 
71.06961433470549

>  <Genealogy>  (21) 
O=c1c2ccccc2nc(/C=C/c2cccnc2)n1CC1CCNCC1 (cis-trans isomerization)
O=c1c2ccccc2nc(/C=C/c2cccnc2)n1CC1CCNCC1 (3D coordinates assigned)
O=c1c2ccccc2nc(/C=C/c2cccnc2)n1CC1CCNCC1 (nonaromatic ring conformer: 71.06961433470549 kcal/mol)

>  <smiles>  (21) 
O=c1c2ccccc2nc(/C=C/c2cccnc2)n1CC1CCNCC1

>  <score_type>  (21) 
oracle

>  <origin>  (21) 
autodockgpu

>  <m_score__min__energy>  (21) 
-8

>  <m_primary>  (21) 
energy

>  <meeko>  (21) 
{"free_energy": -6.81, "intermolecular_energy": -8.3, "internal_energy": -1.55, "cluster_size": 2, "cluster_id": 3, "rank_in_cluster": 1}

>  <energy>  (21) 
-8.0

>  <cluster_rmsd>  (21) 
0.0

>  <rmsd>  (21) 
270.32

>  <cluster>  (21) 
1

$$$$
ACXZVNHFWDZWKJ-BQYQJAHWNA-N
     RDKit          3D

 48 51  0  0  0  0  0  0  0  0999 V2000
  141.3637   71.0207  220.8326 H   0  0  0  0  0  0  0  0  0  0  0  0
  140.5740   71.4830  221.4430 C   0  0  0  0  0  0  0  0  0  0  0  0
  139.6660   70.6770  222.0070 C   0  0  0  0  0  0  0  0  0  0  0  0
  138.8218   70.3098  221.4050 H   0  0  0  0  0  0  0  0  0  0  0  0
  139.7770   70.2730  223.4190 C   0  0  0  0  0  0  0  0  0  0  0  0
  140.3580   71.1640  224.2610 N   0  0  0  0  0  0  0  0  0  0  0  0
  140.4650   70.9300  225.5880 C   0  0  0  0  0  0  0  0  0  0  0  0
  141.0740   71.8760  226.4200 C   0  0  0  0  0  0  0  0  0  0  0  0
  141.4857   72.8017  225.9916 H   0  0  0  0  0  0  0  0  0  0  0  0
  141.1590   71.6440  227.7960 C   0  0  0  0  0  0  0  0  0  0  0  0
  141.6390   72.3873  228.4495 H   0  0  0  0  0  0  0  0  0  0  0  0
  140.6350   70.4690  228.3430 C   0  0  0  0  0  0  0  0  0  0  0  0
  140.7034   70.2897  229.4261 H   0  0  0  0  0  0  0  0  0  0  0  0
  140.0240   69.5210  227.5160 C   0  0  0  0  0  0  0  0  0  0  0  0
  139.6106   68.5987  227.9502 H   0  0  0  0  0  0  0  0  0  0  0  0
  139.9370   69.7450  226.1280 C   0  0  0  0  0  0  0  0  0  0  0  0
  139.3480   68.8200  225.2510 C   0  0  0  0  0  0  0  0  0  0  0  0
  138.8400   67.7640  225.7230 O   0  0  0  0  0  0  0  0  0  0  0  0
  139.3270   69.0550  223.8930 N   0  0  0  0  0  0  0  0  0  0  0  0
  138.7910   68.0120  222.9820 C   0  0  0  0  0  0  0  0  0  0  0  0
  139.3378   68.0782  222.0298 H   0  0  0  0  0  0  0  0  0  0  0  0
  138.9286   67.0525  223.5020 H   0  0  0  0  0  0  0  0  0  0  0  0
  137.2690   68.1210  222.6720 C   0  0  0  0  0  0  0  0  0  0  0  0
  136.9237   67.1028  222.9044 H   0  0  0  0  0  0  0  0  0  0  0  0
  136.4740   69.0600  223.6100 C   0  0  0  0  0  0  0  0  0  0  0  0
  135.4550   68.6613  223.7228 H   0  0  0  0  0  0  0  0  0  0  0  0
  137.0109   69.0963  224.5694 H   0  0  0  0  0  0  0  0  0  0  0  0
  136.3800   70.4980  223.0840 C   0  0  0  0  0  0  0  0  0  0  0  0
  135.7098   71.0788  223.7348 H   0  0  0  0  0  0  0  0  0  0  0  0
  137.3857   70.9436  223.0826 H   0  0  0  0  0  0  0  0  0  0  0  0
  135.8540   70.5090  221.7170 N   0  0  0  0  0  0  0  0  0  0  0  0
  135.7850   71.5080  221.4120 H   0  0  0  0  0  0  0  0  0  0  0  0
  136.7900   69.8320  220.8150 C   0  0  0  0  0  0  0  0  0  0  0  0
  136.4242   69.9189  219.7813 H   0  0  0  0  0  0  0  0  0  0  0  0
  137.7791   70.3045  220.9070 H   0  0  0  0  0  0  0  0  0  0  0  0
  136.9110   68.3490  221.1850 C   0  0  0  0  0  0  0  0  0  0  0  0
  135.9494   67.8569  220.9772 H   0  0  0  0  0  0  0  0  0  0  0  0
  137.7289   67.9268  220.5827 H   0  0  0  0  0  0  0  0  0  0  0  0
  140.5840   72.9600  221.5880 C   0  0  0  0  0  0  0  0  0  0  0  0
  139.5480   73.6800  222.2190 C   0  0  0  0  0  0  0  0  0  0  0  0
  138.6825   73.1439  222.6355 H   0  0  0  0  0  0  0  0  0  0  0  0
  139.6160   75.0350  222.3140 N   0  0  0  0  0  0  0  0  0  0  0  0
  140.6650   75.7380  221.8120 C   0  0  0  0  0  0  0  0  0  0  0  0
  140.6912   76.8331  221.9122 H   0  0  0  0  0  0  0  0  0  0  0  0
  141.7080   75.0720  221.1700 C   0  0  0  0  0  0  0  0  0  0  0  0
  142.5580   75.6361  220.7585 H   0  0  0  0  0  0  0  0  0  0  0  0
  141.6620   73.6820  221.0550 C   0  0  0  0  0  0  0  0  0  0  0  0
  142.4766   73.1490  220.5429 H   0  0  0  0  0  0  0  0  0  0  0  0
  1  2  1  0
  2  3  2  0
  3  4  1  0
  3  5  1  0
  5  6  2  0
  6  7  1  0
  7  8  2  0
  8  9  1  0
  8 10  1  0
 10 11  1  0
 10 12  2  0
 12 13  1  0
 12 14  1  0
 14 15  1  0
 14 16  2  0
 16 17  1  0
 17 18  2  0
 17 19  1  0
 19 20  1  0
 20 21  1  0
 20 22  1  0
 20 23  1  0
 23 24  1  0
 23 25  1  0
 25 26  1  0
 25 27  1  0
 25 28  1  0
 28 29  1  0
 28 30  1  0
 28 31  1  0
 31 32  1  0
 31 33  1  0
 33 34  1  0
 33 35  1  0
 33 36  1  0
 36 37  1  0
 36 38  1  0
  2 39  1  0
 39 40  2  0
 40 41  1  0
 40 42  1  0
 42 43  2  0
 43 44  1  0
 43 45  1  0
 45 46  1  0
 45 47  2  0
 47 48  1  0
 19  5  1  0
 36 23  1  0
 47 39  1  0
 16  7  1  0
M  END
>  <UniqueID>  (22) 
500

>  <SMILES>  (22) 
O=c1c2ccccc2nc(/C=C/c2cccnc2)n1CC1CCNCC1

>  <Energy>  (22) 
71.06961433470549

>  <Genealogy>  (22) 
O=c1c2ccccc2nc(/C=C/c2cccnc2)n1CC1CCNCC1 (cis-trans isomerization)
O=c1c2ccccc2nc(/C=C/c2cccnc2)n1CC1CCNCC1 (3D coordinates assigned)
O=c1c2ccccc2nc(/C=C/c2cccnc2)n1CC1CCNCC1 (nonaromatic ring conformer: 71.06961433470549 kcal/mol)

>  <smiles>  (22) 
O=c1c2ccccc2nc(/C=C/c2cccnc2)n1CC1CCNCC1

>  <score_type>  (22) 
oracle

>  <origin>  (22) 
autodockgpu

>  <m_score__min__energy>  (22) 
-8

>  <m_primary>  (22) 
energy

>  <meeko>  (22) 
{"free_energy": -6.89, "intermolecular_energy": -8.38, "internal_energy": -1.51, "cluster_size": 6, "cluster_id": 2, "rank_in_cluster": 4}

>  <energy>  (22) 
-7.97

>  <cluster_rmsd>  (22) 
0.27

>  <rmsd>  (22) 
270.35

>  <cluster>  (22) 
1

$$$$
ACXZVNHFWDZWKJ-BQYQJAHWNA-N
     RDKit          3D

 48 51  0  0  0  0  0  0  0  0999 V2000
  138.9911   72.2204  223.0106 H   0  0  0  0  0  0  0  0  0  0  0  0
  139.9980   71.8200  223.2000 C   0  0  0  0  0  0  0  0  0  0  0  0
  140.9070   71.9240  222.2230 C   0  0  0  0  0  0  0  0  0  0  0  0
  141.4558   71.0280  221.8976 H   0  0  0  0  0  0  0  0  0  0  0  0
  141.1850   73.2180  221.5760 C   0  0  0  0  0  0  0  0  0  0  0  0
  140.6530   74.3180  222.1660 N   0  0  0  0  0  0  0  0  0  0  0  0
  140.8870   75.5640  221.6970 C   0  0  0  0  0  0  0  0  0  0  0  0
  140.3160   76.6720  222.3350 C   0  0  0  0  0  0  0  0  0  0  0  0
  139.6603   76.5274  223.2063 H   0  0  0  0  0  0  0  0  0  0  0  0
  140.5790   77.9610  221.8650 C   0  0  0  0  0  0  0  0  0  0  0  0
  140.1275   78.8305  222.3652 H   0  0  0  0  0  0  0  0  0  0  0  0
  141.4150   78.1480  220.7600 C   0  0  0  0  0  0  0  0  0  0  0  0
  141.6215   79.1644  220.3935 H   0  0  0  0  0  0  0  0  0  0  0  0
  141.9890   77.0450  220.1200 C   0  0  0  0  0  0  0  0  0  0  0  0
  142.6472   77.1955  219.2516 H   0  0  0  0  0  0  0  0  0  0  0  0
  141.7260   75.7420  220.5850 C   0  0  0  0  0  0  0  0  0  0  0  0
  142.2650   74.5990  219.9700 C   0  0  0  0  0  0  0  0  0  0  0  0
  143.0470   74.7410  218.9880 O   0  0  0  0  0  0  0  0  0  0  0  0
  141.9420   73.3390  220.4260 N   0  0  0  0  0  0  0  0  0  0  0  0
  142.4430   72.1490  219.6920 C   0  0  0  0  0  0  0  0  0  0  0  0
  141.7970   71.2956  219.9458 H   0  0  0  0  0  0  0  0  0  0  0  0
  142.4191   72.4157  218.6251 H   0  0  0  0  0  0  0  0  0  0  0  0
  143.9150   71.7490  220.0050 C   0  0  0  0  0  0  0  0  0  0  0  0
  143.7781   70.7775  220.5024 H   0  0  0  0  0  0  0  0  0  0  0  0
  144.7960   71.4680  218.7650 C   0  0  0  0  0  0  0  0  0  0  0  0
  145.5301   70.6916  219.0264 H   0  0  0  0  0  0  0  0  0  0  0  0
  144.1259   71.1468  217.9540 H   0  0  0  0  0  0  0  0  0  0  0  0
  145.5520   72.7060  218.2680 C   0  0  0  0  0  0  0  0  0  0  0  0
  146.2416   72.4105  217.4636 H   0  0  0  0  0  0  0  0  0  0  0  0
  144.8245   73.4406  217.8923 H   0  0  0  0  0  0  0  0  0  0  0  0
  146.3170   73.3120  219.3610 N   0  0  0  0  0  0  0  0  0  0  0  0
  146.8320   74.1350  218.9700 H   0  0  0  0  0  0  0  0  0  0  0  0
  145.4040   73.8090  220.3950 C   0  0  0  0  0  0  0  0  0  0  0  0
  145.9839   74.3330  221.1690 H   0  0  0  0  0  0  0  0  0  0  0  0
  144.6820   74.4978  219.9321 H   0  0  0  0  0  0  0  0  0  0  0  0
  144.6390   72.6450  221.0380 C   0  0  0  0  0  0  0  0  0  0  0  0
  145.3531   72.0248  221.5996 H   0  0  0  0  0  0  0  0  0  0  0  0
  143.8684   73.0805  221.6911 H   0  0  0  0  0  0  0  0  0  0  0  0
  140.2610   71.1990  224.5230 C   0  0  0  0  0  0  0  0  0  0  0  0
  140.8640   71.8890  225.5930 C   0  0  0  0  0  0  0  0  0  0  0  0
  141.1605   72.9409  225.4686 H   0  0  0  0  0  0  0  0  0  0  0  0
  141.0810   71.2600  226.7790 N   0  0  0  0  0  0  0  0  0  0  0  0
  140.7340   69.9610  226.9760 C   0  0  0  0  0  0  0  0  0  0  0  0
  140.9176   69.4844  227.9502 H   0  0  0  0  0  0  0  0  0  0  0  0
  140.1450   69.2320  225.9430 C   0  0  0  0  0  0  0  0  0  0  0  0
  139.8663   68.1788  226.0947 H   0  0  0  0  0  0  0  0  0  0  0  0
  139.9130   69.8530  224.7150 C   0  0  0  0  0  0  0  0  0  0  0  0
  139.4546   69.2841  223.8926 H   0  0  0  0  0  0  0  0  0  0  0  0
  1  2  1  0
  2  3  2  0
  3  4  1  0
  3  5  1  0
  5  6  2  0
  6  7  1  0
  7  8  2  0
  8  9  1  0
  8 10  1  0
 10 11  1  0
 10 12  2  0
 12 13  1  0
 12 14  1  0
 14 15  1  0
 14 16  2  0
 16 17  1  0
 17 18  2  0
 17 19  1  0
 19 20  1  0
 20 21  1  0
 20 22  1  0
 20 23  1  0
 23 24  1  0
 23 25  1  0
 25 26  1  0
 25 27  1  0
 25 28  1  0
 28 29  1  0
 28 30  1  0
 28 31  1  0
 31 32  1  0
 31 33  1  0
 33 34  1  0
 33 35  1  0
 33 36  1  0
 36 37  1  0
 36 38  1  0
  2 39  1  0
 39 40  2  0
 40 41  1  0
 40 42  1  0
 42 43  2  0
 43 44  1  0
 43 45  1  0
 45 46  1  0
 45 47  2  0
 47 48  1  0
 19  5  1  0
 36 23  1  0
 47 39  1  0
 16  7  1  0
M  END
>  <UniqueID>  (23) 
500

>  <SMILES>  (23) 
O=c1c2ccccc2nc(/C=C/c2cccnc2)n1CC1CCNCC1

>  <Energy>  (23) 
71.06961433470549

>  <Genealogy>  (23) 
O=c1c2ccccc2nc(/C=C/c2cccnc2)n1CC1CCNCC1 (cis-trans isomerization)
O=c1c2ccccc2nc(/C=C/c2cccnc2)n1CC1CCNCC1 (3D coordinates assigned)
O=c1c2ccccc2nc(/C=C/c2cccnc2)n1CC1CCNCC1 (nonaromatic ring conformer: 71.06961433470549 kcal/mol)

>  <smiles>  (23) 
O=c1c2ccccc2nc(/C=C/c2cccnc2)n1CC1CCNCC1

>  <score_type>  (23) 
oracle

>  <origin>  (23) 
autodockgpu

>  <m_score__min__energy>  (23) 
-8

>  <m_primary>  (23) 
energy

>  <meeko>  (23) 
{"free_energy": -7.91, "intermolecular_energy": -9.4, "internal_energy": -1.17, "cluster_size": 10, "cluster_id": 1, "rank_in_cluster": 6}

>  <energy>  (23) 
-7.95

>  <cluster_rmsd>  (23) 
0.14

>  <rmsd>  (23) 
270.28

>  <cluster>  (23) 
1

$$$$
ACXZVNHFWDZWKJ-BQYQJAHWNA-N
     RDKit          3D

 48 51  0  0  0  0  0  0  0  0999 V2000
  139.0366   72.4106  223.1902 H   0  0  0  0  0  0  0  0  0  0  0  0
  139.9980   71.8860  223.2920 C   0  0  0  0  0  0  0  0  0  0  0  0
  140.8590   71.9520  222.2680 C   0  0  0  0  0  0  0  0  0  0  0  0
  141.3408   71.0314  221.9069 H   0  0  0  0  0  0  0  0  0  0  0  0
  141.1720   73.2360  221.6170 C   0  0  0  0  0  0  0  0  0  0  0  0
  140.6470   74.3490  222.1880 N   0  0  0  0  0  0  0  0  0  0  0  0
  140.9120   75.5880  221.7140 C   0  0  0  0  0  0  0  0  0  0  0  0
  140.3480   76.7100  222.3320 C   0  0  0  0  0  0  0  0  0  0  0  0
  139.6725   76.5834  223.1909 H   0  0  0  0  0  0  0  0  0  0  0  0
  140.6430   77.9910  221.8580 C   0  0  0  0  0  0  0  0  0  0  0  0
  140.1976   78.8722  222.3429 H   0  0  0  0  0  0  0  0  0  0  0  0
  141.5030   78.1540  220.7690 C   0  0  0  0  0  0  0  0  0  0  0  0
  141.7340   79.1638  220.3990 H   0  0  0  0  0  0  0  0  0  0  0  0
  142.0710   77.0370  220.1480 C   0  0  0  0  0  0  0  0  0  0  0  0
  142.7492   77.1695  219.2921 H   0  0  0  0  0  0  0  0  0  0  0  0
  141.7750   75.7420  220.6180 C   0  0  0  0  0  0  0  0  0  0  0  0
  142.3060   74.5860  220.0220 C   0  0  0  0  0  0  0  0  0  0  0  0
  143.1090   74.7060  219.0550 O   0  0  0  0  0  0  0  0  0  0  0  0
  141.9520   73.3350  220.4810 N   0  0  0  0  0  0  0  0  0  0  0  0
  142.4470   72.1310  219.7660 C   0  0  0  0  0  0  0  0  0  0  0  0
  141.8022   71.2831  220.0407 H   0  0  0  0  0  0  0  0  0  0  0  0
  142.4158   72.3781  218.6946 H   0  0  0  0  0  0  0  0  0  0  0  0
  143.9210   71.7350  220.0750 C   0  0  0  0  0  0  0  0  0  0  0  0
  143.7885   70.7655  220.5774 H   0  0  0  0  0  0  0  0  0  0  0  0
  144.7970   71.4500  218.8330 C   0  0  0  0  0  0  0  0  0  0  0  0
  145.5333   70.6758  219.0946 H   0  0  0  0  0  0  0  0  0  0  0  0
  144.1242   71.1242  218.0260 H   0  0  0  0  0  0  0  0  0  0  0  0
  145.5490   72.6870  218.3280 C   0  0  0  0  0  0  0  0  0  0  0  0
  146.2363   72.3890  217.5225 H   0  0  0  0  0  0  0  0  0  0  0  0
  144.8185   73.4185  217.9520 H   0  0  0  0  0  0  0  0  0  0  0  0
  146.3170   73.3000  219.4150 N   0  0  0  0  0  0  0  0  0  0  0  0
  146.8290   74.1220  219.0180 H   0  0  0  0  0  0  0  0  0  0  0  0
  145.4070   73.8000  220.4500 C   0  0  0  0  0  0  0  0  0  0  0  0
  145.9887   74.3288  221.2194 H   0  0  0  0  0  0  0  0  0  0  0  0
  144.6819   74.4854  219.9869 H   0  0  0  0  0  0  0  0  0  0  0  0
  144.6470   72.6370  221.1010 C   0  0  0  0  0  0  0  0  0  0  0  0
  145.3646   72.0208  221.6625 H   0  0  0  0  0  0  0  0  0  0  0  0
  143.8779   73.0737  221.7551 H   0  0  0  0  0  0  0  0  0  0  0  0
  140.2570   71.1510  224.5550 C   0  0  0  0  0  0  0  0  0  0  0  0
  139.9560   69.7850  224.7270 C   0  0  0  0  0  0  0  0  0  0  0  0
  139.5115   69.2133  223.8990 H   0  0  0  0  0  0  0  0  0  0  0  0
  140.2130   69.1710  225.9130 N   0  0  0  0  0  0  0  0  0  0  0  0
  140.7590   69.8390  226.9630 C   0  0  0  0  0  0  0  0  0  0  0  0
  140.9603   69.3102  227.9063 H   0  0  0  0  0  0  0  0  0  0  0  0
  141.0640   71.1940  226.8450 C   0  0  0  0  0  0  0  0  0  0  0  0
  141.5019   71.7411  227.6929 H   0  0  0  0  0  0  0  0  0  0  0  0
  140.8080   71.8490  225.6400 C   0  0  0  0  0  0  0  0  0  0  0  0
  141.0397   72.9197  225.5401 H   0  0  0  0  0  0  0  0  0  0  0  0
  1  2  1  0
  2  3  2  0
  3  4  1  0
  3  5  1  0
  5  6  2  0
  6  7  1  0
  7  8  2  0
  8  9  1  0
  8 10  1  0
 10 11  1  0
 10 12  2  0
 12 13  1  0
 12 14  1  0
 14 15  1  0
 14 16  2  0
 16 17  1  0
 17 18  2  0
 17 19  1  0
 19 20  1  0
 20 21  1  0
 20 22  1  0
 20 23  1  0
 23 24  1  0
 23 25  1  0
 25 26  1  0
 25 27  1  0
 25 28  1  0
 28 29  1  0
 28 30  1  0
 28 31  1  0
 31 32  1  0
 31 33  1  0
 33 34  1  0
 33 35  1  0
 33 36  1  0
 36 37  1  0
 36 38  1  0
  2 39  1  0
 39 40  2  0
 40 41  1  0
 40 42  1  0
 42 43  2  0
 43 44  1  0
 43 45  1  0
 45 46  1  0
 45 47  2  0
 47 48  1  0
 19  5  1  0
 36 23  1  0
 47 39  1  0
 16  7  1  0
M  END
>  <UniqueID>  (24) 
500

>  <SMILES>  (24) 
O=c1c2ccccc2nc(/C=C/c2cccnc2)n1CC1CCNCC1

>  <Energy>  (24) 
71.06961433470549

>  <Genealogy>  (24) 
O=c1c2ccccc2nc(/C=C/c2cccnc2)n1CC1CCNCC1 (cis-trans isomerization)
O=c1c2ccccc2nc(/C=C/c2cccnc2)n1CC1CCNCC1 (3D coordinates assigned)
O=c1c2ccccc2nc(/C=C/c2cccnc2)n1CC1CCNCC1 (nonaromatic ring conformer: 71.06961433470549 kcal/mol)

>  <smiles>  (24) 
O=c1c2ccccc2nc(/C=C/c2cccnc2)n1CC1CCNCC1

>  <score_type>  (24) 
oracle

>  <origin>  (24) 
autodockgpu

>  <m_score__min__energy>  (24) 
-8

>  <m_primary>  (24) 
energy

>  <meeko>  (24) 
{"free_energy": -8.0, "intermolecular_energy": -9.49, "internal_energy": -1.14, "cluster_size": 10, "cluster_id": 1, "rank_in_cluster": 1}

>  <energy>  (24) 
-7.92

>  <cluster_rmsd>  (24) 
0.33

>  <rmsd>  (24) 
270.33

>  <cluster>  (24) 
1

$$$$
ACXZVNHFWDZWKJ-BQYQJAHWNA-N
     RDKit          3D

 48 51  0  0  0  0  0  0  0  0999 V2000
  138.9176   72.2841  222.6861 H   0  0  0  0  0  0  0  0  0  0  0  0
  139.9040   71.8560  222.9180 C   0  0  0  0  0  0  0  0  0  0  0  0
  140.8730   71.9870  222.0040 C   0  0  0  0  0  0  0  0  0  0  0  0
  141.4372   71.0988  221.6834 H   0  0  0  0  0  0  0  0  0  0  0  0
  141.1970   73.3000  221.4200 C   0  0  0  0  0  0  0  0  0  0  0  0
  140.7050   74.3880  222.0640 N   0  0  0  0  0  0  0  0  0  0  0  0
  140.9820   75.6470  221.6560 C   0  0  0  0  0  0  0  0  0  0  0  0
  140.4520   76.7410  222.3470 C   0  0  0  0  0  0  0  0  0  0  0  0
  139.7915   76.5777  223.2114 H   0  0  0  0  0  0  0  0  0  0  0  0
  140.7610   78.0420  221.9400 C   0  0  0  0  0  0  0  0  0  0  0  0
  140.3411   78.9017  222.4828 H   0  0  0  0  0  0  0  0  0  0  0  0
  141.6030   78.2520  220.8440 C   0  0  0  0  0  0  0  0  0  0  0  0
  141.8459   79.2769  220.5269 H   0  0  0  0  0  0  0  0  0  0  0  0
  142.1370   77.1620  220.1500 C   0  0  0  0  0  0  0  0  0  0  0  0
  142.8002   77.3308  219.2888 H   0  0  0  0  0  0  0  0  0  0  0  0
  141.8270   75.8480  220.5520 C   0  0  0  0  0  0  0  0  0  0  0  0
  142.3250   74.7180  219.8810 C   0  0  0  0  0  0  0  0  0  0  0  0
  143.1110   74.8800  218.9060 O   0  0  0  0  0  0  0  0  0  0  0  0
  141.9570   73.4500  220.2760 N   0  0  0  0  0  0  0  0  0  0  0  0
  142.4150   72.2800  219.4840 C   0  0  0  0  0  0  0  0  0  0  0  0
  141.7322   71.4422  219.6886 H   0  0  0  0  0  0  0  0  0  0  0  0
  142.4114   72.6028  218.4324 H   0  0  0  0  0  0  0  0  0  0  0  0
  143.8670   71.8030  219.7850 C   0  0  0  0  0  0  0  0  0  0  0  0
  143.6906   70.7896  220.1747 H   0  0  0  0  0  0  0  0  0  0  0  0
  144.7690   71.6250  218.5420 C   0  0  0  0  0  0  0  0  0  0  0  0
  145.4735   70.8028  218.7360 H   0  0  0  0  0  0  0  0  0  0  0  0
  144.1100   71.4113  217.6876 H   0  0  0  0  0  0  0  0  0  0  0  0
  145.5730   72.8840  218.1940 C   0  0  0  0  0  0  0  0  0  0  0  0
  146.2734   72.6525  217.3780 H   0  0  0  0  0  0  0  0  0  0  0  0
  144.8768   73.6764  217.8819 H   0  0  0  0  0  0  0  0  0  0  0  0
  146.3280   73.3480  219.3610 N   0  0  0  0  0  0  0  0  0  0  0  0
  146.8760   74.1910  219.0700 H   0  0  0  0  0  0  0  0  0  0  0  0
  145.4040   73.7630  220.4210 C   0  0  0  0  0  0  0  0  0  0  0  0
  145.9791   74.1850  221.2584 H   0  0  0  0  0  0  0  0  0  0  0  0
  144.7142   74.5187  220.0173 H   0  0  0  0  0  0  0  0  0  0  0  0
  144.5900   72.5630  220.9210 C   0  0  0  0  0  0  0  0  0  0  0  0
  145.2716   71.8656  221.4299 H   0  0  0  0  0  0  0  0  0  0  0  0
  143.8160   72.9521  221.5989 H   0  0  0  0  0  0  0  0  0  0  0  0
  140.0730   71.1710  224.2240 C   0  0  0  0  0  0  0  0  0  0  0  0
  139.5950   69.8700  224.4810 C   0  0  0  0  0  0  0  0  0  0  0  0
  139.0708   69.3124  223.6909 H   0  0  0  0  0  0  0  0  0  0  0  0
  139.7800   69.3020  225.7030 N   0  0  0  0  0  0  0  0  0  0  0  0
  140.4180   69.9550  226.7090 C   0  0  0  0  0  0  0  0  0  0  0  0
  140.5552   69.4634  227.6834 H   0  0  0  0  0  0  0  0  0  0  0  0
  140.8990   71.2480  226.5070 C   0  0  0  0  0  0  0  0  0  0  0  0
  141.4133   71.7830  227.3190 H   0  0  0  0  0  0  0  0  0  0  0  0
  140.7210   71.8560  225.2640 C   0  0  0  0  0  0  0  0  0  0  0  0
  141.0907   72.8786  225.0978 H   0  0  0  0  0  0  0  0  0  0  0  0
  1  2  1  0
  2  3  2  0
  3  4  1  0
  3  5  1  0
  5  6  2  0
  6  7  1  0
  7  8  2  0
  8  9  1  0
  8 10  1  0
 10 11  1  0
 10 12  2  0
 12 13  1  0
 12 14  1  0
 14 15  1  0
 14 16  2  0
 16 17  1  0
 17 18  2  0
 17 19  1  0
 19 20  1  0
 20 21  1  0
 20 22  1  0
 20 23  1  0
 23 24  1  0
 23 25  1  0
 25 26  1  0
 25 27  1  0
 25 28  1  0
 28 29  1  0
 28 30  1  0
 28 31  1  0
 31 32  1  0
 31 33  1  0
 33 34  1  0
 33 35  1  0
 33 36  1  0
 36 37  1  0
 36 38  1  0
  2 39  1  0
 39 40  2  0
 40 41  1  0
 40 42  1  0
 42 43  2  0
 43 44  1  0
 43 45  1  0
 45 46  1  0
 45 47  2  0
 47 48  1  0
 19  5  1  0
 36 23  1  0
 47 39  1  0
 16  7  1  0
M  END
>  <UniqueID>  (25) 
500

>  <SMILES>  (25) 
O=c1c2ccccc2nc(/C=C/c2cccnc2)n1CC1CCNCC1

>  <Energy>  (25) 
71.06961433470549

>  <Genealogy>  (25) 
O=c1c2ccccc2nc(/C=C/c2cccnc2)n1CC1CCNCC1 (cis-trans isomerization)
O=c1c2ccccc2nc(/C=C/c2cccnc2)n1CC1CCNCC1 (3D coordinates assigned)
O=c1c2ccccc2nc(/C=C/c2cccnc2)n1CC1CCNCC1 (nonaromatic ring conformer: 71.06961433470549 kcal/mol)

>  <smiles>  (25) 
O=c1c2ccccc2nc(/C=C/c2cccnc2)n1CC1CCNCC1

>  <score_type>  (25) 
oracle

>  <origin>  (25) 
autodockgpu

>  <m_score__min__energy>  (25) 
-8

>  <m_primary>  (25) 
energy

>  <meeko>  (25) 
{"free_energy": -7.9, "intermolecular_energy": -9.39, "internal_energy": -1.22, "cluster_size": 10, "cluster_id": 1, "rank_in_cluster": 8}

>  <energy>  (25) 
-7.91

>  <cluster_rmsd>  (25) 
0.31

>  <rmsd>  (25) 
270.18

>  <cluster>  (25) 
1

$$$$
ACXZVNHFWDZWKJ-BQYQJAHWNA-N
     RDKit          3D

 48 51  0  0  0  0  0  0  0  0999 V2000
  141.6470   72.5327  221.7367 H   0  0  0  0  0  0  0  0  0  0  0  0
  140.6100   72.8380  221.9400 C   0  0  0  0  0  0  0  0  0  0  0  0
  139.7230   71.8810  222.2360 C   0  0  0  0  0  0  0  0  0  0  0  0
  138.9175   71.6517  221.5228 H   0  0  0  0  0  0  0  0  0  0  0  0
  139.8060   71.1290  223.5000 C   0  0  0  0  0  0  0  0  0  0  0  0
  140.3690   71.7730  224.5530 N   0  0  0  0  0  0  0  0  0  0  0  0
  140.4490   71.2060  225.7770 C   0  0  0  0  0  0  0  0  0  0  0  0
  141.0410   71.9050  226.8360 C   0  0  0  0  0  0  0  0  0  0  0  0
  141.4605   72.9077  226.6667 H   0  0  0  0  0  0  0  0  0  0  0  0
  141.0990   71.3290  228.1080 C   0  0  0  0  0  0  0  0  0  0  0  0
  141.5665   71.8779  228.9387 H   0  0  0  0  0  0  0  0  0  0  0  0
  140.5640   70.0570  228.3260 C   0  0  0  0  0  0  0  0  0  0  0  0
  140.6101   69.6071  229.3287 H   0  0  0  0  0  0  0  0  0  0  0  0
  139.9700   69.3540  227.2730 C   0  0  0  0  0  0  0  0  0  0  0  0
  139.5484   68.3534  227.4491 H   0  0  0  0  0  0  0  0  0  0  0  0
  139.9110   69.9260  225.9870 C   0  0  0  0  0  0  0  0  0  0  0  0
  139.3390   69.2580  224.8910 C   0  0  0  0  0  0  0  0  0  0  0  0
  138.8220   68.1200  225.0680 O   0  0  0  0  0  0  0  0  0  0  0  0
  139.3460   69.8330  223.6380 N   0  0  0  0  0  0  0  0  0  0  0  0
  138.8290   69.0600  222.4810 C   0  0  0  0  0  0  0  0  0  0  0  0
  139.4845   69.2570  221.6199 H   0  0  0  0  0  0  0  0  0  0  0  0
  138.8225   68.0062  222.7964 H   0  0  0  0  0  0  0  0  0  0  0  0
  137.3670   69.3940  222.0600 C   0  0  0  0  0  0  0  0  0  0  0  0
  137.5292   70.1602  221.2875 H   0  0  0  0  0  0  0  0  0  0  0  0
  136.6070   68.2440  221.3590 C   0  0  0  0  0  0  0  0  0  0  0  0
  135.9083   68.6801  220.6298 H   0  0  0  0  0  0  0  0  0  0  0  0
  137.3587   67.6011  220.8777 H   0  0  0  0  0  0  0  0  0  0  0  0
  135.8110   67.3650  222.3310 C   0  0  0  0  0  0  0  0  0  0  0  0
  135.2080   66.6453  221.7580 H   0  0  0  0  0  0  0  0  0  0  0  0
  136.5144   66.8313  222.9870 H   0  0  0  0  0  0  0  0  0  0  0  0
  134.9240   68.1890  223.1560 N   0  0  0  0  0  0  0  0  0  0  0  0
  134.3860   67.5460  223.7840 H   0  0  0  0  0  0  0  0  0  0  0  0
  135.7170   69.0810  224.0070 C   0  0  0  0  0  0  0  0  0  0  0  0
  135.0439   69.6346  224.6782 H   0  0  0  0  0  0  0  0  0  0  0  0
  136.4246   68.4776  224.5945 H   0  0  0  0  0  0  0  0  0  0  0  0
  136.5060   70.0770  223.1490 C   0  0  0  0  0  0  0  0  0  0  0  0
  135.7938   70.7558  222.6571 H   0  0  0  0  0  0  0  0  0  0  0  0
  137.1926   70.6144  223.8196 H   0  0  0  0  0  0  0  0  0  0  0  0
  140.2860   74.2850  221.8680 C   0  0  0  0  0  0  0  0  0  0  0  0
  138.9830   74.7930  222.0390 C   0  0  0  0  0  0  0  0  0  0  0  0
  138.1490   74.1047  222.2406 H   0  0  0  0  0  0  0  0  0  0  0  0
  138.7520   76.1300  221.9560 N   0  0  0  0  0  0  0  0  0  0  0  0
  139.7520   77.0160  221.7060 C   0  0  0  0  0  0  0  0  0  0  0  0
  139.5321   78.0924  221.6520 H   0  0  0  0  0  0  0  0  0  0  0  0
  141.0560   76.5610  221.5180 C   0  0  0  0  0  0  0  0  0  0  0  0
  141.8685   77.2730  221.3110 H   0  0  0  0  0  0  0  0  0  0  0  0
  141.3200   75.1940  221.5950 C   0  0  0  0  0  0  0  0  0  0  0  0
  142.3450   74.8257  221.4408 H   0  0  0  0  0  0  0  0  0  0  0  0
  1  2  1  0
  2  3  2  0
  3  4  1  0
  3  5  1  0
  5  6  2  0
  6  7  1  0
  7  8  2  0
  8  9  1  0
  8 10  1  0
 10 11  1  0
 10 12  2  0
 12 13  1  0
 12 14  1  0
 14 15  1  0
 14 16  2  0
 16 17  1  0
 17 18  2  0
 17 19  1  0
 19 20  1  0
 20 21  1  0
 20 22  1  0
 20 23  1  0
 23 24  1  0
 23 25  1  0
 25 26  1  0
 25 27  1  0
 25 28  1  0
 28 29  1  0
 28 30  1  0
 28 31  1  0
 31 32  1  0
 31 33  1  0
 33 34  1  0
 33 35  1  0
 33 36  1  0
 36 37  1  0
 36 38  1  0
  2 39  1  0
 39 40  2  0
 40 41  1  0
 40 42  1  0
 42 43  2  0
 43 44  1  0
 43 45  1  0
 45 46  1  0
 45 47  2  0
 47 48  1  0
 19  5  1  0
 36 23  1  0
 47 39  1  0
 16  7  1  0
M  END
>  <UniqueID>  (26) 
500

>  <SMILES>  (26) 
O=c1c2ccccc2nc(/C=C/c2cccnc2)n1CC1CCNCC1

>  <Energy>  (26) 
71.06961433470549

>  <Genealogy>  (26) 
O=c1c2ccccc2nc(/C=C/c2cccnc2)n1CC1CCNCC1 (cis-trans isomerization)
O=c1c2ccccc2nc(/C=C/c2cccnc2)n1CC1CCNCC1 (3D coordinates assigned)
O=c1c2ccccc2nc(/C=C/c2cccnc2)n1CC1CCNCC1 (nonaromatic ring conformer: 71.06961433470549 kcal/mol)

>  <smiles>  (26) 
O=c1c2ccccc2nc(/C=C/c2cccnc2)n1CC1CCNCC1

>  <score_type>  (26) 
oracle

>  <origin>  (26) 
autodockgpu

>  <m_score__min__energy>  (26) 
-8

>  <m_primary>  (26) 
energy

>  <meeko>  (26) 
{"free_energy": -7.01, "intermolecular_energy": -8.5, "internal_energy": -1.19, "cluster_size": 6, "cluster_id": 2, "rank_in_cluster": 1}

>  <energy>  (26) 
-7.91

>  <cluster_rmsd>  (26) 
0.54

>  <rmsd>  (26) 
270.29

>  <cluster>  (26) 
1

$$$$
ACXZVNHFWDZWKJ-BQYQJAHWNA-N
     RDKit          3D

 48 51  0  0  0  0  0  0  0  0999 V2000
  137.6091   72.0098  221.6993 H   0  0  0  0  0  0  0  0  0  0  0  0
  138.6830   72.1430  221.8970 C   0  0  0  0  0  0  0  0  0  0  0  0
  139.4220   71.0460  222.1020 C   0  0  0  0  0  0  0  0  0  0  0  0
  139.8814   70.5357  221.2426 H   0  0  0  0  0  0  0  0  0  0  0  0
  139.6310   70.5100  223.4580 C   0  0  0  0  0  0  0  0  0  0  0  0
  140.1870   71.3520  224.3650 N   0  0  0  0  0  0  0  0  0  0  0  0
  140.3740   70.9920  225.6540 C   0  0  0  0  0  0  0  0  0  0  0  0
  140.9540   71.8920  226.5560 C   0  0  0  0  0  0  0  0  0  0  0  0
  141.2767   72.8854  226.2111 H   0  0  0  0  0  0  0  0  0  0  0  0
  141.1230   71.5280  227.8950 C   0  0  0  0  0  0  0  0  0  0  0  0
  141.5811   72.2347  228.6026 H   0  0  0  0  0  0  0  0  0  0  0  0
  140.7110   70.2680  228.3360 C   0  0  0  0  0  0  0  0  0  0  0  0
  140.8439   69.9855  229.3907 H   0  0  0  0  0  0  0  0  0  0  0  0
  140.1300   69.3650  227.4400 C   0  0  0  0  0  0  0  0  0  0  0  0
  139.8055   68.3744  227.7911 H   0  0  0  0  0  0  0  0  0  0  0  0
  139.9600   69.7230  226.0880 C   0  0  0  0  0  0  0  0  0  0  0  0
  139.3950   68.8490  225.1430 C   0  0  0  0  0  0  0  0  0  0  0  0
  138.9880   67.7150  225.5220 O   0  0  0  0  0  0  0  0  0  0  0  0
  139.2920   69.2200  223.8200 N   0  0  0  0  0  0  0  0  0  0  0  0
  138.7880   68.2380  222.8260 C   0  0  0  0  0  0  0  0  0  0  0  0
  139.2044   68.5041  221.8433 H   0  0  0  0  0  0  0  0  0  0  0  0
  139.1075   67.2485  223.1850 H   0  0  0  0  0  0  0  0  0  0  0  0
  137.2380   68.1690  222.6900 C   0  0  0  0  0  0  0  0  0  0  0  0
  137.0459   67.1053  222.8939 H   0  0  0  0  0  0  0  0  0  0  0  0
  136.4490   68.9510  223.7650 C   0  0  0  0  0  0  0  0  0  0  0  0
  135.5046   68.4217  223.9598 H   0  0  0  0  0  0  0  0  0  0  0  0
  137.0839   69.0059  224.6616 H   0  0  0  0  0  0  0  0  0  0  0  0
  136.1240   70.3910  223.3470 C   0  0  0  0  0  0  0  0  0  0  0  0
  135.4680   70.8484  224.1023 H   0  0  0  0  0  0  0  0  0  0  0  0
  137.0621   70.9598  223.2670 H   0  0  0  0  0  0  0  0  0  0  0  0
  135.4470   70.4050  222.0470 N   0  0  0  0  0  0  0  0  0  0  0  0
  135.2250   71.4020  221.8160 H   0  0  0  0  0  0  0  0  0  0  0  0
  136.3480   69.8980  221.0080 C   0  0  0  0  0  0  0  0  0  0  0  0
  135.8583   69.9899  220.0273 H   0  0  0  0  0  0  0  0  0  0  0  0
  137.2772   70.4866  221.0233 H   0  0  0  0  0  0  0  0  0  0  0  0
  136.6880   68.4250  221.2670 C   0  0  0  0  0  0  0  0  0  0  0  0
  135.7752   67.8263  221.1318 H   0  0  0  0  0  0  0  0  0  0  0  0
  137.4769   68.1410  220.5550 H   0  0  0  0  0  0  0  0  0  0  0  0
  139.2180   73.5280  221.9190 C   0  0  0  0  0  0  0  0  0  0  0  0
  140.5960   73.8220  221.9130 C   0  0  0  0  0  0  0  0  0  0  0  0
  141.3308   73.0038  221.8864 H   0  0  0  0  0  0  0  0  0  0  0  0
  141.0210   75.1140  221.9400 N   0  0  0  0  0  0  0  0  0  0  0  0
  140.1480   76.1550  221.9760 C   0  0  0  0  0  0  0  0  0  0  0  0
  140.5250   77.1883  221.9902 H   0  0  0  0  0  0  0  0  0  0  0  0
  138.7750   75.9140  221.9950 C   0  0  0  0  0  0  0  0  0  0  0  0
  138.0640   76.7527  222.0286 H   0  0  0  0  0  0  0  0  0  0  0  0
  138.3120   74.5980  221.9710 C   0  0  0  0  0  0  0  0  0  0  0  0
  137.2305   74.3983  221.9930 H   0  0  0  0  0  0  0  0  0  0  0  0
  1  2  1  0
  2  3  2  0
  3  4  1  0
  3  5  1  0
  5  6  2  0
  6  7  1  0
  7  8  2  0
  8  9  1  0
  8 10  1  0
 10 11  1  0
 10 12  2  0
 12 13  1  0
 12 14  1  0
 14 15  1  0
 14 16  2  0
 16 17  1  0
 17 18  2  0
 17 19  1  0
 19 20  1  0
 20 21  1  0
 20 22  1  0
 20 23  1  0
 23 24  1  0
 23 25  1  0
 25 26  1  0
 25 27  1  0
 25 28  1  0
 28 29  1  0
 28 30  1  0
 28 31  1  0
 31 32  1  0
 31 33  1  0
 33 34  1  0
 33 35  1  0
 33 36  1  0
 36 37  1  0
 36 38  1  0
  2 39  1  0
 39 40  2  0
 40 41  1  0
 40 42  1  0
 42 43  2  0
 43 44  1  0
 43 45  1  0
 45 46  1  0
 45 47  2  0
 47 48  1  0
 19  5  1  0
 36 23  1  0
 47 39  1  0
 16  7  1  0
M  END
>  <UniqueID>  (27) 
500

>  <SMILES>  (27) 
O=c1c2ccccc2nc(/C=C/c2cccnc2)n1CC1CCNCC1

>  <Energy>  (27) 
71.06961433470549

>  <Genealogy>  (27) 
O=c1c2ccccc2nc(/C=C/c2cccnc2)n1CC1CCNCC1 (cis-trans isomerization)
O=c1c2ccccc2nc(/C=C/c2cccnc2)n1CC1CCNCC1 (3D coordinates assigned)
O=c1c2ccccc2nc(/C=C/c2cccnc2)n1CC1CCNCC1 (nonaromatic ring conformer: 71.06961433470549 kcal/mol)

>  <smiles>  (27) 
O=c1c2ccccc2nc(/C=C/c2cccnc2)n1CC1CCNCC1

>  <score_type>  (27) 
oracle

>  <origin>  (27) 
autodockgpu

>  <m_score__min__energy>  (27) 
-8

>  <m_primary>  (27) 
energy

>  <meeko>  (27) 
{"free_energy": -6.76, "intermolecular_energy": -8.25, "internal_energy": -1.55, "cluster_size": 6, "cluster_id": 2, "rank_in_cluster": 5}

>  <energy>  (27) 
-7.9

>  <cluster_rmsd>  (27) 
0.33

>  <rmsd>  (27) 
270.14

>  <cluster>  (27) 
1

$$$$
ACXZVNHFWDZWKJ-BQYQJAHWNA-N
     RDKit          3D

 48 51  0  0  0  0  0  0  0  0999 V2000
  139.0429   72.5291  222.9347 H   0  0  0  0  0  0  0  0  0  0  0  0
  139.9640   71.9360  223.0340 C   0  0  0  0  0  0  0  0  0  0  0  0
  140.8820   72.0380  222.0650 C   0  0  0  0  0  0  0  0  0  0  0  0
  141.3997   71.1333  221.7136 H   0  0  0  0  0  0  0  0  0  0  0  0
  141.2110   73.3410  221.4610 C   0  0  0  0  0  0  0  0  0  0  0  0
  140.7300   74.4410  222.0930 N   0  0  0  0  0  0  0  0  0  0  0  0
  141.0130   75.6920  221.6660 C   0  0  0  0  0  0  0  0  0  0  0  0
  140.4940   76.7990  222.3460 C   0  0  0  0  0  0  0  0  0  0  0  0
  139.8375   76.6518  223.2163 H   0  0  0  0  0  0  0  0  0  0  0  0
  140.8100   78.0930  221.9190 C   0  0  0  0  0  0  0  0  0  0  0  0
  140.4000   78.9630  222.4528 H   0  0  0  0  0  0  0  0  0  0  0  0
  141.6460   78.2820  220.8150 C   0  0  0  0  0  0  0  0  0  0  0  0
  141.8937   79.3007  220.4821 H   0  0  0  0  0  0  0  0  0  0  0  0
  142.1680   77.1790  220.1330 C   0  0  0  0  0  0  0  0  0  0  0  0
  142.8270   77.3317  219.2656 H   0  0  0  0  0  0  0  0  0  0  0  0
  141.8520   75.8730  220.5540 C   0  0  0  0  0  0  0  0  0  0  0  0
  142.3380   74.7310  219.8950 C   0  0  0  0  0  0  0  0  0  0  0  0
  143.1190   74.8740  218.9130 O   0  0  0  0  0  0  0  0  0  0  0  0
  141.9640   73.4700  220.3090 N   0  0  0  0  0  0  0  0  0  0  0  0
  142.4090   72.2870  219.5310 C   0  0  0  0  0  0  0  0  0  0  0  0
  141.7235   71.4560  219.7537 H   0  0  0  0  0  0  0  0  0  0  0  0
  142.3985   72.5950  218.4751 H   0  0  0  0  0  0  0  0  0  0  0  0
  143.8610   71.8060  219.8260 C   0  0  0  0  0  0  0  0  0  0  0  0
  143.6821   70.7997  220.2326 H   0  0  0  0  0  0  0  0  0  0  0  0
  144.7510   71.6030  218.5780 C   0  0  0  0  0  0  0  0  0  0  0  0
  145.4526   70.7799  218.7789 H   0  0  0  0  0  0  0  0  0  0  0  0
  144.0833   71.3794  217.7329 H   0  0  0  0  0  0  0  0  0  0  0  0
  145.5590   72.8520  218.2030 C   0  0  0  0  0  0  0  0  0  0  0  0
  146.2509   72.6037  217.3847 H   0  0  0  0  0  0  0  0  0  0  0  0
  144.8645   73.6434  217.8845 H   0  0  0  0  0  0  0  0  0  0  0  0
  146.3270   73.3300  219.3560 N   0  0  0  0  0  0  0  0  0  0  0  0
  146.8770   74.1640  219.0470 H   0  0  0  0  0  0  0  0  0  0  0  0
  145.4150   73.7670  220.4180 C   0  0  0  0  0  0  0  0  0  0  0  0
  146.0002   74.1987  221.2434 H   0  0  0  0  0  0  0  0  0  0  0  0
  144.7258   74.5204  220.0088 H   0  0  0  0  0  0  0  0  0  0  0  0
  144.5990   72.5800  220.9440 C   0  0  0  0  0  0  0  0  0  0  0  0
  145.2812   71.8867  221.4577 H   0  0  0  0  0  0  0  0  0  0  0  0
  143.8334   72.9841  221.6226 H   0  0  0  0  0  0  0  0  0  0  0  0
  140.1090   71.0740  224.2340 C   0  0  0  0  0  0  0  0  0  0  0  0
  139.5830   69.7690  224.3140 C   0  0  0  0  0  0  0  0  0  0  0  0
  139.0386   69.3441  223.4578 H   0  0  0  0  0  0  0  0  0  0  0  0
  139.7460   69.0330  225.4460 N   0  0  0  0  0  0  0  0  0  0  0  0
  140.4090   69.5180  226.5280 C   0  0  0  0  0  0  0  0  0  0  0  0
  140.5285   68.8932  227.4254 H   0  0  0  0  0  0  0  0  0  0  0  0
  140.9380   70.8080  226.5010 C   0  0  0  0  0  0  0  0  0  0  0  0
  141.4727   71.2078  227.3752 H   0  0  0  0  0  0  0  0  0  0  0  0
  140.7820   71.5860  225.3540 C   0  0  0  0  0  0  0  0  0  0  0  0
  141.1891   72.6075  225.3271 H   0  0  0  0  0  0  0  0  0  0  0  0
  1  2  1  0
  2  3  2  0
  3  4  1  0
  3  5  1  0
  5  6  2  0
  6  7  1  0
  7  8  2  0
  8  9  1  0
  8 10  1  0
 10 11  1  0
 10 12  2  0
 12 13  1  0
 12 14  1  0
 14 15  1  0
 14 16  2  0
 16 17  1  0
 17 18  2  0
 17 19  1  0
 19 20  1  0
 20 21  1  0
 20 22  1  0
 20 23  1  0
 23 24  1  0
 23 25  1  0
 25 26  1  0
 25 27  1  0
 25 28  1  0
 28 29  1  0
 28 30  1  0
 28 31  1  0
 31 32  1  0
 31 33  1  0
 33 34  1  0
 33 35  1  0
 33 36  1  0
 36 37  1  0
 36 38  1  0
  2 39  1  0
 39 40  2  0
 40 41  1  0
 40 42  1  0
 42 43  2  0
 43 44  1  0
 43 45  1  0
 45 46  1  0
 45 47  2  0
 47 48  1  0
 19  5  1  0
 36 23  1  0
 47 39  1  0
 16  7  1  0
M  END
>  <UniqueID>  (28) 
500

>  <SMILES>  (28) 
O=c1c2ccccc2nc(/C=C/c2cccnc2)n1CC1CCNCC1

>  <Energy>  (28) 
71.06961433470549

>  <Genealogy>  (28) 
O=c1c2ccccc2nc(/C=C/c2cccnc2)n1CC1CCNCC1 (cis-trans isomerization)
O=c1c2ccccc2nc(/C=C/c2cccnc2)n1CC1CCNCC1 (3D coordinates assigned)
O=c1c2ccccc2nc(/C=C/c2cccnc2)n1CC1CCNCC1 (nonaromatic ring conformer: 71.06961433470549 kcal/mol)

>  <smiles>  (28) 
O=c1c2ccccc2nc(/C=C/c2cccnc2)n1CC1CCNCC1

>  <score_type>  (28) 
oracle

>  <origin>  (28) 
autodockgpu

>  <m_score__min__energy>  (28) 
-8

>  <m_primary>  (28) 
energy

>  <meeko>  (28) 
{"free_energy": -7.91, "intermolecular_energy": -9.4, "internal_energy": -1.2, "cluster_size": 10, "cluster_id": 1, "rank_in_cluster": 5}

>  <energy>  (28) 
-7.9

>  <cluster_rmsd>  (28) 
0.28

>  <rmsd>  (28) 
270.19

>  <cluster>  (28) 
1

$$$$
ACXZVNHFWDZWKJ-BQYQJAHWNA-N
     RDKit          3D

 48 51  0  0  0  0  0  0  0  0999 V2000
  142.2698   74.6326  217.5713 H   0  0  0  0  0  0  0  0  0  0  0  0
  142.9190   75.2100  218.2460 C   0  0  0  0  0  0  0  0  0  0  0  0
  142.6310   76.5030  218.4360 C   0  0  0  0  0  0  0  0  0  0  0  0
  142.9924   77.2486  217.7125 H   0  0  0  0  0  0  0  0  0  0  0  0
  141.8390   76.9460  219.5960 C   0  0  0  0  0  0  0  0  0  0  0  0
  142.4590   77.7740  220.4740 N   0  0  0  0  0  0  0  0  0  0  0  0
  141.8170   78.2910  221.5450 C   0  0  0  0  0  0  0  0  0  0  0  0
  142.4960   79.1390  222.4270 C   0  0  0  0  0  0  0  0  0  0  0  0
  143.5589   79.3683  222.2605 H   0  0  0  0  0  0  0  0  0  0  0  0
  141.8240   79.6950  223.5200 C   0  0  0  0  0  0  0  0  0  0  0  0
  142.3593   80.3594  224.2143 H   0  0  0  0  0  0  0  0  0  0  0  0
  140.4720   79.4070  223.7310 C   0  0  0  0  0  0  0  0  0  0  0  0
  139.9447   79.8469  224.5903 H   0  0  0  0  0  0  0  0  0  0  0  0
  139.7890   78.5610  222.8520 C   0  0  0  0  0  0  0  0  0  0  0  0
  138.7252   78.3377  223.0207 H   0  0  0  0  0  0  0  0  0  0  0  0
  140.4600   77.9940  221.7510 C   0  0  0  0  0  0  0  0  0  0  0  0
  139.8240   77.1270  220.8470 C   0  0  0  0  0  0  0  0  0  0  0  0
  138.5970   76.8740  220.9980 O   0  0  0  0  0  0  0  0  0  0  0  0
  140.5310   76.5540  219.8110 N   0  0  0  0  0  0  0  0  0  0  0  0
  139.8590   75.5620  218.9330 C   0  0  0  0  0  0  0  0  0  0  0  0
  138.8382   75.9201  218.7336 H   0  0  0  0  0  0  0  0  0  0  0  0
  140.4808   75.4830  218.0291 H   0  0  0  0  0  0  0  0  0  0  0  0
  139.7590   74.1210  219.5170 C   0  0  0  0  0  0  0  0  0  0  0  0
  139.7612   73.5106  218.6019 H   0  0  0  0  0  0  0  0  0  0  0  0
  140.9880   73.6580  220.3340 C   0  0  0  0  0  0  0  0  0  0  0  0
  141.1086   72.5729  220.1999 H   0  0  0  0  0  0  0  0  0  0  0  0
  141.8583   74.2189  219.9625 H   0  0  0  0  0  0  0  0  0  0  0  0
  140.8610   73.9530  221.8340 C   0  0  0  0  0  0  0  0  0  0  0  0
  141.7091   73.4971  222.3659 H   0  0  0  0  0  0  0  0  0  0  0  0
  140.8615   75.0427  221.9841 H   0  0  0  0  0  0  0  0  0  0  0  0
  139.6090   73.4020  222.3600 N   0  0  0  0  0  0  0  0  0  0  0  0
  139.5790   73.6070  223.3860 H   0  0  0  0  0  0  0  0  0  0  0  0
  138.4660   74.0770  221.7380 C   0  0  0  0  0  0  0  0  0  0  0  0
  137.5358   73.7138  222.1993 H   0  0  0  0  0  0  0  0  0  0  0  0
  138.5659   75.1617  221.8913 H   0  0  0  0  0  0  0  0  0  0  0  0
  138.4290   73.7890  220.2320 C   0  0  0  0  0  0  0  0  0  0  0  0
  138.2100   72.7210  220.0853 H   0  0  0  0  0  0  0  0  0  0  0  0
  137.6522   74.4332  219.7943 H   0  0  0  0  0  0  0  0  0  0  0  0
  144.0570   74.5040  218.8860 C   0  0  0  0  0  0  0  0  0  0  0  0
  144.8840   73.5920  218.1990 C   0  0  0  0  0  0  0  0  0  0  0  0
  144.7000   73.3790  217.1356 H   0  0  0  0  0  0  0  0  0  0  0  0
  145.9080   72.9750  218.8460 N   0  0  0  0  0  0  0  0  0  0  0  0
  146.1710   73.2060  220.1590 C   0  0  0  0  0  0  0  0  0  0  0  0
  147.0126   72.6950  220.6494 H   0  0  0  0  0  0  0  0  0  0  0  0
  145.3740   74.0910  220.8850 C   0  0  0  0  0  0  0  0  0  0  0  0
  145.5786   74.2785  221.9494 H   0  0  0  0  0  0  0  0  0  0  0  0
  144.3140   74.7360  220.2460 C   0  0  0  0  0  0  0  0  0  0  0  0
  143.6759   75.4306  220.8120 H   0  0  0  0  0  0  0  0  0  0  0  0
  1  2  1  0
  2  3  2  0
  3  4  1  0
  3  5  1  0
  5  6  2  0
  6  7  1  0
  7  8  2  0
  8  9  1  0
  8 10  1  0
 10 11  1  0
 10 12  2  0
 12 13  1  0
 12 14  1  0
 14 15  1  0
 14 16  2  0
 16 17  1  0
 17 18  2  0
 17 19  1  0
 19 20  1  0
 20 21  1  0
 20 22  1  0
 20 23  1  0
 23 24  1  0
 23 25  1  0
 25 26  1  0
 25 27  1  0
 25 28  1  0
 28 29  1  0
 28 30  1  0
 28 31  1  0
 31 32  1  0
 31 33  1  0
 33 34  1  0
 33 35  1  0
 33 36  1  0
 36 37  1  0
 36 38  1  0
  2 39  1  0
 39 40  2  0
 40 41  1  0
 40 42  1  0
 42 43  2  0
 43 44  1  0
 43 45  1  0
 45 46  1  0
 45 47  2  0
 47 48  1  0
 19  5  1  0
 36 23  1  0
 47 39  1  0
 16  7  1  0
M  END
>  <UniqueID>  (29) 
500

>  <SMILES>  (29) 
O=c1c2ccccc2nc(/C=C/c2cccnc2)n1CC1CCNCC1

>  <Energy>  (29) 
71.06961433470549

>  <Genealogy>  (29) 
O=c1c2ccccc2nc(/C=C/c2cccnc2)n1CC1CCNCC1 (cis-trans isomerization)
O=c1c2ccccc2nc(/C=C/c2cccnc2)n1CC1CCNCC1 (3D coordinates assigned)
O=c1c2ccccc2nc(/C=C/c2cccnc2)n1CC1CCNCC1 (nonaromatic ring conformer: 71.06961433470549 kcal/mol)

>  <smiles>  (29) 
O=c1c2ccccc2nc(/C=C/c2cccnc2)n1CC1CCNCC1

>  <score_type>  (29) 
oracle

>  <origin>  (29) 
autodockgpu

>  <m_score__min__energy>  (29) 
-8

>  <m_primary>  (29) 
energy

>  <meeko>  (29) 
{"free_energy": -6.4, "intermolecular_energy": -7.89, "internal_energy": -1.75, "cluster_size": 1, "cluster_id": 4, "rank_in_cluster": 1}

>  <energy>  (29) 
-7.88

>  <cluster_rmsd>  (29) 
0.29

>  <rmsd>  (29) 
270.17

>  <cluster>  (29) 
1

$$$$
ACXZVNHFWDZWKJ-BQYQJAHWNA-N
     RDKit          3D

 48 51  0  0  0  0  0  0  0  0999 V2000
  139.0192   72.3988  222.8598 H   0  0  0  0  0  0  0  0  0  0  0  0
  139.9730   71.8730  223.0140 C   0  0  0  0  0  0  0  0  0  0  0  0
  140.9200   72.0090  222.0790 C   0  0  0  0  0  0  0  0  0  0  0  0
  141.4992   71.1282  221.7646 H   0  0  0  0  0  0  0  0  0  0  0  0
  141.2010   73.3170  221.4630 C   0  0  0  0  0  0  0  0  0  0  0  0
  140.6970   74.4060  222.0960 N   0  0  0  0  0  0  0  0  0  0  0  0
  140.9370   75.6630  221.6580 C   0  0  0  0  0  0  0  0  0  0  0  0
  140.3960   76.7580  222.3400 C   0  0  0  0  0  0  0  0  0  0  0  0
  139.7579   76.5962  223.2213 H   0  0  0  0  0  0  0  0  0  0  0  0
  140.6660   78.0580  221.9020 C   0  0  0  0  0  0  0  0  0  0  0  0
  140.2384   78.9184  222.4375 H   0  0  0  0  0  0  0  0  0  0  0  0
  141.4790   78.2650  220.7840 C   0  0  0  0  0  0  0  0  0  0  0  0
  141.6904   79.2887  220.4416 H   0  0  0  0  0  0  0  0  0  0  0  0
  142.0240   77.1750  220.1000 C   0  0  0  0  0  0  0  0  0  0  0  0
  142.6655   77.3424  219.2223 H   0  0  0  0  0  0  0  0  0  0  0  0
  141.7530   75.8620  220.5330 C   0  0  0  0  0  0  0  0  0  0  0  0
  142.2630   74.7310  219.8730 C   0  0  0  0  0  0  0  0  0  0  0  0
  143.0240   74.8920  218.8780 O   0  0  0  0  0  0  0  0  0  0  0  0
  141.9330   73.4620  220.2990 N   0  0  0  0  0  0  0  0  0  0  0  0
  142.4010   72.2880  219.5210 C   0  0  0  0  0  0  0  0  0  0  0  0
  141.7214   71.4486  219.7297 H   0  0  0  0  0  0  0  0  0  0  0  0
  142.4016   72.6012  218.4665 H   0  0  0  0  0  0  0  0  0  0  0  0
  143.8540   71.8210  219.8340 C   0  0  0  0  0  0  0  0  0  0  0  0
  143.6774   70.8249  220.2659 H   0  0  0  0  0  0  0  0  0  0  0  0
  144.7500   71.5890  218.5950 C   0  0  0  0  0  0  0  0  0  0  0  0
  145.4535   70.7739  218.8200 H   0  0  0  0  0  0  0  0  0  0  0  0
  144.0864   71.3414  217.7534 H   0  0  0  0  0  0  0  0  0  0  0  0
  145.5550   72.8300  218.1910 C   0  0  0  0  0  0  0  0  0  0  0  0
  146.2514   72.5627  217.3825 H   0  0  0  0  0  0  0  0  0  0  0  0
  144.8592   73.6102  217.8487 H   0  0  0  0  0  0  0  0  0  0  0  0
  146.3160   73.3410  219.3340 N   0  0  0  0  0  0  0  0  0  0  0  0
  146.8650   74.1690  219.0060 H   0  0  0  0  0  0  0  0  0  0  0  0
  145.3990   73.8020  220.3810 C   0  0  0  0  0  0  0  0  0  0  0  0
  145.9799   74.2561  221.1973 H   0  0  0  0  0  0  0  0  0  0  0  0
  144.7093   74.5428  219.9503 H   0  0  0  0  0  0  0  0  0  0  0  0
  144.5840   72.6260  220.9340 C   0  0  0  0  0  0  0  0  0  0  0  0
  145.2660   71.9486  221.4687 H   0  0  0  0  0  0  0  0  0  0  0  0
  143.8139   73.0453  221.5982 H   0  0  0  0  0  0  0  0  0  0  0  0
  140.1250   71.0590  224.2460 C   0  0  0  0  0  0  0  0  0  0  0  0
  139.5350   69.7890  224.4090 C   0  0  0  0  0  0  0  0  0  0  0  0
  138.9314   69.3564  223.5975 H   0  0  0  0  0  0  0  0  0  0  0  0
  139.7100   69.0970  225.5670 N   0  0  0  0  0  0  0  0  0  0  0  0
  140.4450   69.5930  226.5960 C   0  0  0  0  0  0  0  0  0  0  0  0
  140.5724   69.0028  227.5154 H   0  0  0  0  0  0  0  0  0  0  0  0
  141.0380   70.8500  226.4870 C   0  0  0  0  0  0  0  0  0  0  0  0
  141.6298   71.2592  227.3190 H   0  0  0  0  0  0  0  0  0  0  0  0
  140.8730   71.5840  225.3110 C   0  0  0  0  0  0  0  0  0  0  0  0
  141.3319   72.5794  225.2187 H   0  0  0  0  0  0  0  0  0  0  0  0
  1  2  1  0
  2  3  2  0
  3  4  1  0
  3  5  1  0
  5  6  2  0
  6  7  1  0
  7  8  2  0
  8  9  1  0
  8 10  1  0
 10 11  1  0
 10 12  2  0
 12 13  1  0
 12 14  1  0
 14 15  1  0
 14 16  2  0
 16 17  1  0
 17 18  2  0
 17 19  1  0
 19 20  1  0
 20 21  1  0
 20 22  1  0
 20 23  1  0
 23 24  1  0
 23 25  1  0
 25 26  1  0
 25 27  1  0
 25 28  1  0
 28 29  1  0
 28 30  1  0
 28 31  1  0
 31 32  1  0
 31 33  1  0
 33 34  1  0
 33 35  1  0
 33 36  1  0
 36 37  1  0
 36 38  1  0
  2 39  1  0
 39 40  2  0
 40 41  1  0
 40 42  1  0
 42 43  2  0
 43 44  1  0
 43 45  1  0
 45 46  1  0
 45 47  2  0
 47 48  1  0
 19  5  1  0
 36 23  1  0
 47 39  1  0
 16  7  1  0
M  END
>  <UniqueID>  (30) 
500

>  <SMILES>  (30) 
O=c1c2ccccc2nc(/C=C/c2cccnc2)n1CC1CCNCC1

>  <Energy>  (30) 
71.06961433470549

>  <Genealogy>  (30) 
O=c1c2ccccc2nc(/C=C/c2cccnc2)n1CC1CCNCC1 (cis-trans isomerization)
O=c1c2ccccc2nc(/C=C/c2cccnc2)n1CC1CCNCC1 (3D coordinates assigned)
O=c1c2ccccc2nc(/C=C/c2cccnc2)n1CC1CCNCC1 (nonaromatic ring conformer: 71.06961433470549 kcal/mol)

>  <smiles>  (30) 
O=c1c2ccccc2nc(/C=C/c2cccnc2)n1CC1CCNCC1

>  <score_type>  (30) 
oracle

>  <origin>  (30) 
autodockgpu

>  <m_score__min__energy>  (30) 
-8

>  <m_primary>  (30) 
energy

>  <meeko>  (30) 
{"free_energy": -7.88, "intermolecular_energy": -9.37, "internal_energy": -1.21, "cluster_size": 10, "cluster_id": 1, "rank_in_cluster": 9}

>  <energy>  (30) 
-7.42

>  <cluster_rmsd>  (30) 
0.62

>  <rmsd>  (30) 
270.11

>  <cluster>  (30) 
1

$$$$
ACXZVNHFWDZWKJ-BQYQJAHWNA-N
     RDKit          3D

 48 51  0  0  0  0  0  0  0  0999 V2000
  141.2745   70.8447  220.8228 H   0  0  0  0  0  0  0  0  0  0  0  0
  140.5380   71.4250  221.3980 C   0  0  0  0  0  0  0  0  0  0  0  0
  139.5610   70.7540  222.0210 C   0  0  0  0  0  0  0  0  0  0  0  0
  138.6375   70.5123  221.4745 H   0  0  0  0  0  0  0  0  0  0  0  0
  139.7020   70.3340  223.4260 C   0  0  0  0  0  0  0  0  0  0  0  0
  140.2840   71.2220  224.2690 N   0  0  0  0  0  0  0  0  0  0  0  0
  140.4160   70.9730  225.5910 C   0  0  0  0  0  0  0  0  0  0  0  0
  141.0250   71.9160  226.4260 C   0  0  0  0  0  0  0  0  0  0  0  0
  141.4159   72.8533  226.0033 H   0  0  0  0  0  0  0  0  0  0  0  0
  141.1370   71.6680  227.7970 C   0  0  0  0  0  0  0  0  0  0  0  0
  141.6187   72.4092  228.4517 H   0  0  0  0  0  0  0  0  0  0  0  0
  140.6380   70.4800  228.3370 C   0  0  0  0  0  0  0  0  0  0  0  0
  140.7268   70.2884  229.4165 H   0  0  0  0  0  0  0  0  0  0  0  0
  140.0260   69.5340  227.5090 C   0  0  0  0  0  0  0  0  0  0  0  0
  139.6322   68.6011  227.9386 H   0  0  0  0  0  0  0  0  0  0  0  0
  139.9130   69.7740  226.1250 C   0  0  0  0  0  0  0  0  0  0  0  0
  139.3220   68.8520  225.2460 C   0  0  0  0  0  0  0  0  0  0  0  0
  138.8370   67.7830  225.7130 O   0  0  0  0  0  0  0  0  0  0  0  0
  139.2760   69.1040  223.8920 N   0  0  0  0  0  0  0  0  0  0  0  0
  138.7390   68.0660  222.9760 C   0  0  0  0  0  0  0  0  0  0  0  0
  139.2673   68.1539  222.0152 H   0  0  0  0  0  0  0  0  0  0  0  0
  138.9004   67.1015  223.4798 H   0  0  0  0  0  0  0  0  0  0  0  0
  137.2100   68.1560  222.6950 C   0  0  0  0  0  0  0  0  0  0  0  0
  136.8784   67.1381  222.9479 H   0  0  0  0  0  0  0  0  0  0  0  0
  136.4250   69.0990  223.6350 C   0  0  0  0  0  0  0  0  0  0  0  0
  135.4124   68.6919  223.7725 H   0  0  0  0  0  0  0  0  0  0  0  0
  136.9811   69.1529  224.5825 H   0  0  0  0  0  0  0  0  0  0  0  0
  136.3060   70.5290  223.0950 C   0  0  0  0  0  0  0  0  0  0  0  0
  135.6420   71.1102  223.7517 H   0  0  0  0  0  0  0  0  0  0  0  0
  137.3068   70.9849  223.0697 H   0  0  0  0  0  0  0  0  0  0  0  0
  135.7540   70.5190  221.7370 N   0  0  0  0  0  0  0  0  0  0  0  0
  135.6700   71.5130  221.4220 H   0  0  0  0  0  0  0  0  0  0  0  0
  136.6800   69.8400  220.8260 C   0  0  0  0  0  0  0  0  0  0  0  0
  136.2947   69.9113  219.7982 H   0  0  0  0  0  0  0  0  0  0  0  0
  137.6660   70.3228  220.8946 H   0  0  0  0  0  0  0  0  0  0  0  0
  136.8220   68.3620  221.2110 C   0  0  0  0  0  0  0  0  0  0  0  0
  135.8615   67.8584  221.0271 H   0  0  0  0  0  0  0  0  0  0  0  0
  137.6322   67.9398  220.5984 H   0  0  0  0  0  0  0  0  0  0  0  0
  140.6920   72.9010  221.4330 C   0  0  0  0  0  0  0  0  0  0  0  0
  139.7400   73.7620  222.0150 C   0  0  0  0  0  0  0  0  0  0  0  0
  138.8324   73.3442  222.4751 H   0  0  0  0  0  0  0  0  0  0  0  0
  139.9390   75.1070  222.0100 N   0  0  0  0  0  0  0  0  0  0  0  0
  141.0430   75.6660  221.4500 C   0  0  0  0  0  0  0  0  0  0  0  0
  141.1757   76.7578  221.4684 H   0  0  0  0  0  0  0  0  0  0  0  0
  142.0080   74.8570  220.8520 C   0  0  0  0  0  0  0  0  0  0  0  0
  142.9020   75.3048  220.3936 H   0  0  0  0  0  0  0  0  0  0  0  0
  141.8280   73.4730  220.8410 C   0  0  0  0  0  0  0  0  0  0  0  0
  142.5810   72.8272  220.3656 H   0  0  0  0  0  0  0  0  0  0  0  0
  1  2  1  0
  2  3  2  0
  3  4  1  0
  3  5  1  0
  5  6  2  0
  6  7  1  0
  7  8  2  0
  8  9  1  0
  8 10  1  0
 10 11  1  0
 10 12  2  0
 12 13  1  0
 12 14  1  0
 14 15  1  0
 14 16  2  0
 16 17  1  0
 17 18  2  0
 17 19  1  0
 19 20  1  0
 20 21  1  0
 20 22  1  0
 20 23  1  0
 23 24  1  0
 23 25  1  0
 25 26  1  0
 25 27  1  0
 25 28  1  0
 28 29  1  0
 28 30  1  0
 28 31  1  0
 31 32  1  0
 31 33  1  0
 33 34  1  0
 33 35  1  0
 33 36  1  0
 36 37  1  0
 36 38  1  0
  2 39  1  0
 39 40  2  0
 40 41  1  0
 40 42  1  0
 42 43  2  0
 43 44  1  0
 43 45  1  0
 45 46  1  0
 45 47  2  0
 47 48  1  0
 19  5  1  0
 36 23  1  0
 47 39  1  0
 16  7  1  0
M  END
>  <UniqueID>  (31) 
500

>  <SMILES>  (31) 
O=c1c2ccccc2nc(/C=C/c2cccnc2)n1CC1CCNCC1

>  <Energy>  (31) 
71.06961433470549

>  <Genealogy>  (31) 
O=c1c2ccccc2nc(/C=C/c2cccnc2)n1CC1CCNCC1 (cis-trans isomerization)
O=c1c2ccccc2nc(/C=C/c2cccnc2)n1CC1CCNCC1 (3D coordinates assigned)
O=c1c2ccccc2nc(/C=C/c2cccnc2)n1CC1CCNCC1 (nonaromatic ring conformer: 71.06961433470549 kcal/mol)

>  <smiles>  (31) 
O=c1c2ccccc2nc(/C=C/c2cccnc2)n1CC1CCNCC1

>  <score_type>  (31) 
oracle

>  <origin>  (31) 
autodockgpu

>  <m_score__min__energy>  (31) 
-8

>  <m_primary>  (31) 
energy

>  <meeko>  (31) 
{"free_energy": -6.95, "intermolecular_energy": -8.44, "internal_energy": -1.46, "cluster_size": 6, "cluster_id": 2, "rank_in_cluster": 2}

>  <energy>  (31) 
-7.01

>  <cluster_rmsd>  (31) 
0.0

>  <rmsd>  (31) 
269.65

>  <cluster>  (31) 
2

$$$$
ACXZVNHFWDZWKJ-BQYQJAHWNA-N
     RDKit          3D

 48 51  0  0  0  0  0  0  0  0999 V2000
  138.8163   77.9131  223.9558 H   0  0  0  0  0  0  0  0  0  0  0  0
  139.4260   78.1560  223.0730 C   0  0  0  0  0  0  0  0  0  0  0  0
  139.2630   77.4080  221.9750 C   0  0  0  0  0  0  0  0  0  0  0  0
  138.3769   77.5629  221.3420 H   0  0  0  0  0  0  0  0  0  0  0  0
  140.2500   76.3810  221.6000 C   0  0  0  0  0  0  0  0  0  0  0  0
  139.9570   75.1030  221.9490 N   0  0  0  0  0  0  0  0  0  0  0  0
  140.7580   74.0680  221.6090 C   0  0  0  0  0  0  0  0  0  0  0  0
  140.4200   72.7650  221.9920 C   0  0  0  0  0  0  0  0  0  0  0  0
  139.5134   72.5850  222.5884 H   0  0  0  0  0  0  0  0  0  0  0  0
  141.2340   71.6920  221.6170 C   0  0  0  0  0  0  0  0  0  0  0  0
  140.9685   70.6685  221.9202 H   0  0  0  0  0  0  0  0  0  0  0  0
  142.3850   71.9190  220.8570 C   0  0  0  0  0  0  0  0  0  0  0  0
  143.0235   71.0730  220.5626 H   0  0  0  0  0  0  0  0  0  0  0  0
  142.7270   73.2180  220.4700 C   0  0  0  0  0  0  0  0  0  0  0  0
  143.6321   73.3918  219.8695 H   0  0  0  0  0  0  0  0  0  0  0  0
  141.9140   74.3050  220.8480 C   0  0  0  0  0  0  0  0  0  0  0  0
  142.2200   75.6310  220.4990 C   0  0  0  0  0  0  0  0  0  0  0  0
  143.2380   75.8600  219.7880 O   0  0  0  0  0  0  0  0  0  0  0  0
  141.4240   76.6710  220.9300 N   0  0  0  0  0  0  0  0  0  0  0  0
  141.8290   78.0680  220.6340 C   0  0  0  0  0  0  0  0  0  0  0  0
  141.6090   78.6812  221.5203 H   0  0  0  0  0  0  0  0  0  0  0  0
  142.8989   78.0288  220.3815 H   0  0  0  0  0  0  0  0  0  0  0  0
  141.1190   78.7190  219.4090 C   0  0  0  0  0  0  0  0  0  0  0  0
  140.0596   78.6171  219.6870 H   0  0  0  0  0  0  0  0  0  0  0  0
  141.3650   80.2360  219.2390 C   0  0  0  0  0  0  0  0  0  0  0  0
  140.4649   80.6890  218.7979 H   0  0  0  0  0  0  0  0  0  0  0  0
  141.5871   80.6450  220.2357 H   0  0  0  0  0  0  0  0  0  0  0  0
  142.5640   80.5560  218.3370 C   0  0  0  0  0  0  0  0  0  0  0  0
  142.6098   81.6418  218.1669 H   0  0  0  0  0  0  0  0  0  0  0  0
  143.4842   80.2114  218.8315 H   0  0  0  0  0  0  0  0  0  0  0  0
  142.4320   79.8710  217.0490 N   0  0  0  0  0  0  0  0  0  0  0  0
  143.2570   80.1370  216.4620 H   0  0  0  0  0  0  0  0  0  0  0  0
  142.4780   78.4190  217.2470 C   0  0  0  0  0  0  0  0  0  0  0  0
  142.4604   77.9188  216.2675 H   0  0  0  0  0  0  0  0  0  0  0  0
  143.4015   78.1612  217.7862 H   0  0  0  0  0  0  0  0  0  0  0  0
  141.2720   77.9540  218.0740 C   0  0  0  0  0  0  0  0  0  0  0  0
  140.3599   78.1048  217.4779 H   0  0  0  0  0  0  0  0  0  0  0  0
  141.4332   76.8942  218.3206 H   0  0  0  0  0  0  0  0  0  0  0  0
  140.3760   79.2920  223.1770 C   0  0  0  0  0  0  0  0  0  0  0  0
  140.0790   80.5910  222.7150 C   0  0  0  0  0  0  0  0  0  0  0  0
  139.1016   80.7989  222.2550 H   0  0  0  0  0  0  0  0  0  0  0  0
  140.9960   81.5870  222.8360 N   0  0  0  0  0  0  0  0  0  0  0  0
  142.2160   81.3750  223.3950 C   0  0  0  0  0  0  0  0  0  0  0  0
  142.9320   82.2054  223.4831 H   0  0  0  0  0  0  0  0  0  0  0  0
  142.5610   80.1060  223.8570 C   0  0  0  0  0  0  0  0  0  0  0  0
  143.5489   79.9278  224.3067 H   0  0  0  0  0  0  0  0  0  0  0  0
  141.6400   79.0640  223.7430 C   0  0  0  0  0  0  0  0  0  0  0  0
  141.9062   78.0578  224.0989 H   0  0  0  0  0  0  0  0  0  0  0  0
  1  2  1  0
  2  3  2  0
  3  4  1  0
  3  5  1  0
  5  6  2  0
  6  7  1  0
  7  8  2  0
  8  9  1  0
  8 10  1  0
 10 11  1  0
 10 12  2  0
 12 13  1  0
 12 14  1  0
 14 15  1  0
 14 16  2  0
 16 17  1  0
 17 18  2  0
 17 19  1  0
 19 20  1  0
 20 21  1  0
 20 22  1  0
 20 23  1  0
 23 24  1  0
 23 25  1  0
 25 26  1  0
 25 27  1  0
 25 28  1  0
 28 29  1  0
 28 30  1  0
 28 31  1  0
 31 32  1  0
 31 33  1  0
 33 34  1  0
 33 35  1  0
 33 36  1  0
 36 37  1  0
 36 38  1  0
  2 39  1  0
 39 40  2  0
 40 41  1  0
 40 42  1  0
 42 43  2  0
 43 44  1  0
 43 45  1  0
 45 46  1  0
 45 47  2  0
 47 48  1  0
 19  5  1  0
 36 23  1  0
 47 39  1  0
 16  7  1  0
M  END
>  <UniqueID>  (32) 
500

>  <SMILES>  (32) 
O=c1c2ccccc2nc(/C=C/c2cccnc2)n1CC1CCNCC1

>  <Energy>  (32) 
71.06961433470549

>  <Genealogy>  (32) 
O=c1c2ccccc2nc(/C=C/c2cccnc2)n1CC1CCNCC1 (cis-trans isomerization)
O=c1c2ccccc2nc(/C=C/c2cccnc2)n1CC1CCNCC1 (3D coordinates assigned)
O=c1c2ccccc2nc(/C=C/c2cccnc2)n1CC1CCNCC1 (nonaromatic ring conformer: 71.06961433470549 kcal/mol)

>  <smiles>  (32) 
O=c1c2ccccc2nc(/C=C/c2cccnc2)n1CC1CCNCC1

>  <score_type>  (32) 
oracle

>  <origin>  (32) 
autodockgpu

>  <m_score__min__energy>  (32) 
-8

>  <m_primary>  (32) 
energy

>  <meeko>  (32) 
{"free_energy": -6.8, "intermolecular_energy": -8.3, "internal_energy": -1.55, "cluster_size": 2, "cluster_id": 3, "rank_in_cluster": 2}

>  <energy>  (32) 
-6.95

>  <cluster_rmsd>  (32) 
1.42

>  <rmsd>  (32) 
269.53

>  <cluster>  (32) 
2

$$$$
ACXZVNHFWDZWKJ-BQYQJAHWNA-N
     RDKit          3D

 48 51  0  0  0  0  0  0  0  0999 V2000
  139.1200   72.6648  223.1492 H   0  0  0  0  0  0  0  0  0  0  0  0
  139.9790   71.9780  223.1300 C   0  0  0  0  0  0  0  0  0  0  0  0
  140.7960   72.0280  222.0720 C   0  0  0  0  0  0  0  0  0  0  0  0
  141.2057   71.0935  221.6612 H   0  0  0  0  0  0  0  0  0  0  0  0
  141.1570   73.3130  221.4470 C   0  0  0  0  0  0  0  0  0  0  0  0
  140.7030   74.4340  222.0610 N   0  0  0  0  0  0  0  0  0  0  0  0
  141.0160   75.6710  221.6140 C   0  0  0  0  0  0  0  0  0  0  0  0
  140.5240   76.8010  222.2770 C   0  0  0  0  0  0  0  0  0  0  0  0
  139.8649   76.6836  223.1498 H   0  0  0  0  0  0  0  0  0  0  0  0
  140.8710   78.0800  221.8290 C   0  0  0  0  0  0  0  0  0  0  0  0
  140.4823   78.9682  222.3486 H   0  0  0  0  0  0  0  0  0  0  0  0
  141.7110   78.2310  220.7220 C   0  0  0  0  0  0  0  0  0  0  0  0
  141.9833   79.2381  220.3732 H   0  0  0  0  0  0  0  0  0  0  0  0
  142.2060   77.1050  220.0570 C   0  0  0  0  0  0  0  0  0  0  0  0
  142.8677   77.2280  219.1870 H   0  0  0  0  0  0  0  0  0  0  0  0
  141.8590   75.8140  220.4990 C   0  0  0  0  0  0  0  0  0  0  0  0
  142.3160   74.6500  219.8590 C   0  0  0  0  0  0  0  0  0  0  0  0
  143.1000   74.7580  218.8750 O   0  0  0  0  0  0  0  0  0  0  0  0
  141.9120   73.4050  220.2930 N   0  0  0  0  0  0  0  0  0  0  0  0
  142.3280   72.1990  219.5340 C   0  0  0  0  0  0  0  0  0  0  0  0
  141.6540   71.3744  219.8094 H   0  0  0  0  0  0  0  0  0  0  0  0
  142.2741   72.4743  218.4704 H   0  0  0  0  0  0  0  0  0  0  0  0
  143.7920   71.7290  219.7850 C   0  0  0  0  0  0  0  0  0  0  0  0
  143.6342   70.7098  220.1676 H   0  0  0  0  0  0  0  0  0  0  0  0
  144.6570   71.5710  218.5140 C   0  0  0  0  0  0  0  0  0  0  0  0
  145.3723   70.7515  218.6776 H   0  0  0  0  0  0  0  0  0  0  0  0
  143.9738   71.3624  217.6775 H   0  0  0  0  0  0  0  0  0  0  0  0
  145.4420   72.8390  218.1560 C   0  0  0  0  0  0  0  0  0  0  0  0
  146.1198   72.6209  217.3175 H   0  0  0  0  0  0  0  0  0  0  0  0
  144.7319   73.6298  217.8726 H   0  0  0  0  0  0  0  0  0  0  0  0
  146.2280   73.2960  219.3060 N   0  0  0  0  0  0  0  0  0  0  0  0
  146.7620   74.1450  219.0080 H   0  0  0  0  0  0  0  0  0  0  0  0
  145.3350   73.6920  220.3980 C   0  0  0  0  0  0  0  0  0  0  0  0
  145.9329   74.1077  221.2225 H   0  0  0  0  0  0  0  0  0  0  0  0
  144.6285   74.4480  220.0247 H   0  0  0  0  0  0  0  0  0  0  0  0
  144.5440   72.4810  220.9080 C   0  0  0  0  0  0  0  0  0  0  0  0
  145.2449   71.7824  221.3882 H   0  0  0  0  0  0  0  0  0  0  0  0
  143.7882   72.8571  221.6132 H   0  0  0  0  0  0  0  0  0  0  0  0
  140.1560   71.0560  224.2800 C   0  0  0  0  0  0  0  0  0  0  0  0
  139.6070   69.7580  224.3190 C   0  0  0  0  0  0  0  0  0  0  0  0
  139.0188   69.3860  223.4672 H   0  0  0  0  0  0  0  0  0  0  0  0
  139.8020   68.9640  225.4060 N   0  0  0  0  0  0  0  0  0  0  0  0
  140.5190   69.3840  226.4810 C   0  0  0  0  0  0  0  0  0  0  0  0
  140.6624   68.7142  227.3417 H   0  0  0  0  0  0  0  0  0  0  0  0
  141.0730   70.6630  226.4940 C   0  0  0  0  0  0  0  0  0  0  0  0
  141.6516   71.0091  227.3631 H   0  0  0  0  0  0  0  0  0  0  0  0
  140.8860   71.5000  225.3930 C   0  0  0  0  0  0  0  0  0  0  0  0
  141.3133   72.5136  225.3978 H   0  0  0  0  0  0  0  0  0  0  0  0
  1  2  1  0
  2  3  2  0
  3  4  1  0
  3  5  1  0
  5  6  2  0
  6  7  1  0
  7  8  2  0
  8  9  1  0
  8 10  1  0
 10 11  1  0
 10 12  2  0
 12 13  1  0
 12 14  1  0
 14 15  1  0
 14 16  2  0
 16 17  1  0
 17 18  2  0
 17 19  1  0
 19 20  1  0
 20 21  1  0
 20 22  1  0
 20 23  1  0
 23 24  1  0
 23 25  1  0
 25 26  1  0
 25 27  1  0
 25 28  1  0
 28 29  1  0
 28 30  1  0
 28 31  1  0
 31 32  1  0
 31 33  1  0
 33 34  1  0
 33 35  1  0
 33 36  1  0
 36 37  1  0
 36 38  1  0
  2 39  1  0
 39 40  2  0
 40 41  1  0
 40 42  1  0
 42 43  2  0
 43 44  1  0
 43 45  1  0
 45 46  1  0
 45 47  2  0
 47 48  1  0
 19  5  1  0
 36 23  1  0
 47 39  1  0
 16  7  1  0
M  END
>  <UniqueID>  (33) 
500

>  <SMILES>  (33) 
O=c1c2ccccc2nc(/C=C/c2cccnc2)n1CC1CCNCC1

>  <Energy>  (33) 
71.06961433470549

>  <Genealogy>  (33) 
O=c1c2ccccc2nc(/C=C/c2cccnc2)n1CC1CCNCC1 (cis-trans isomerization)
O=c1c2ccccc2nc(/C=C/c2cccnc2)n1CC1CCNCC1 (3D coordinates assigned)
O=c1c2ccccc2nc(/C=C/c2cccnc2)n1CC1CCNCC1 (nonaromatic ring conformer: 71.06961433470549 kcal/mol)

>  <smiles>  (33) 
O=c1c2ccccc2nc(/C=C/c2cccnc2)n1CC1CCNCC1

>  <score_type>  (33) 
oracle

>  <origin>  (33) 
autodockgpu

>  <m_score__min__energy>  (33) 
-8

>  <m_primary>  (33) 
energy

>  <meeko>  (33) 
{"free_energy": -7.9, "intermolecular_energy": -9.39, "internal_energy": -1.17, "cluster_size": 10, "cluster_id": 1, "rank_in_cluster": 7}

>  <energy>  (33) 
-6.91

>  <cluster_rmsd>  (33) 
1.44

>  <rmsd>  (33) 
269.55

>  <cluster>  (33) 
2

$$$$
ACXZVNHFWDZWKJ-BQYQJAHWNA-N
     RDKit          3D

 48 51  0  0  0  0  0  0  0  0999 V2000
  143.1506   76.0281  219.3429 H   0  0  0  0  0  0  0  0  0  0  0  0
  142.1010   76.0960  219.6650 C   0  0  0  0  0  0  0  0  0  0  0  0
  141.4280   77.2160  219.3730 C   0  0  0  0  0  0  0  0  0  0  0  0
  141.0735   77.3811  218.3448 H   0  0  0  0  0  0  0  0  0  0  0  0
  141.1540   78.2310  220.4050 C   0  0  0  0  0  0  0  0  0  0  0  0
  142.1930   78.5770  221.2060 N   0  0  0  0  0  0  0  0  0  0  0  0
  142.0790   79.5380  222.1500 C   0  0  0  0  0  0  0  0  0  0  0  0
  143.1760   79.8620  222.9560 C   0  0  0  0  0  0  0  0  0  0  0  0
  144.1260   79.3207  222.8359 H   0  0  0  0  0  0  0  0  0  0  0  0
  143.0640   80.8740  223.9140 C   0  0  0  0  0  0  0  0  0  0  0  0
  143.9258   81.1270  224.5491 H   0  0  0  0  0  0  0  0  0  0  0  0
  141.8580   81.5650  224.0660 C   0  0  0  0  0  0  0  0  0  0  0  0
  141.7731   82.3614  224.8200 H   0  0  0  0  0  0  0  0  0  0  0  0
  140.7600   81.2460  223.2620 C   0  0  0  0  0  0  0  0  0  0  0  0
  139.8136   81.7934  223.3831 H   0  0  0  0  0  0  0  0  0  0  0  0
  140.8630   80.2250  222.2970 C   0  0  0  0  0  0  0  0  0  0  0  0
  139.7860   79.8550  221.4740 C   0  0  0  0  0  0  0  0  0  0  0  0
  138.6950   80.4830  221.5710 O   0  0  0  0  0  0  0  0  0  0  0  0
  139.9140   78.8170  220.5770 N   0  0  0  0  0  0  0  0  0  0  0  0
  138.7300   78.3800  219.7950 C   0  0  0  0  0  0  0  0  0  0  0  0
  138.2967   79.2668  219.3094 H   0  0  0  0  0  0  0  0  0  0  0  0
  139.0957   77.6243  219.0842 H   0  0  0  0  0  0  0  0  0  0  0  0
  137.6070   77.6870  220.6230 C   0  0  0  0  0  0  0  0  0  0  0  0
  136.7417   78.3295  220.4031 H   0  0  0  0  0  0  0  0  0  0  0  0
  137.2150   76.2710  220.1390 C   0  0  0  0  0  0  0  0  0  0  0  0
  136.1441   76.1174  220.3380 H   0  0  0  0  0  0  0  0  0  0  0  0
  137.4475   76.2164  219.0653 H   0  0  0  0  0  0  0  0  0  0  0  0
  138.0050   75.1550  220.8340 C   0  0  0  0  0  0  0  0  0  0  0  0
  137.5974   74.1794  220.5304 H   0  0  0  0  0  0  0  0  0  0  0  0
  139.0625   75.2309  220.5408 H   0  0  0  0  0  0  0  0  0  0  0  0
  137.9050   75.2880  222.2890 N   0  0  0  0  0  0  0  0  0  0  0  0
  138.4370   74.4940  222.7170 H   0  0  0  0  0  0  0  0  0  0  0  0
  138.5410   76.5350  222.7230 C   0  0  0  0  0  0  0  0  0  0  0  0
  138.5322   76.5831  223.8219 H   0  0  0  0  0  0  0  0  0  0  0  0
  139.5764   76.5554  222.3522 H   0  0  0  0  0  0  0  0  0  0  0  0
  137.7860   77.7450  222.1580 C   0  0  0  0  0  0  0  0  0  0  0  0
  136.7909   77.7858  222.6250 H   0  0  0  0  0  0  0  0  0  0  0  0
  138.3847   78.6396  222.3844 H   0  0  0  0  0  0  0  0  0  0  0  0
  141.5230   74.9400  220.3950 C   0  0  0  0  0  0  0  0  0  0  0  0
  141.0070   75.0330  221.7030 C   0  0  0  0  0  0  0  0  0  0  0  0
  141.0177   75.9995  222.2282 H   0  0  0  0  0  0  0  0  0  0  0  0
  140.4960   73.9340  222.3190 N   0  0  0  0  0  0  0  0  0  0  0  0
  140.4640   72.7200  221.7080 C   0  0  0  0  0  0  0  0  0  0  0  0
  140.0369   71.8522  222.2319 H   0  0  0  0  0  0  0  0  0  0  0  0
  140.9720   72.5740  220.4180 C   0  0  0  0  0  0  0  0  0  0  0  0
  140.9529   71.5931  219.9205 H   0  0  0  0  0  0  0  0  0  0  0  0
  141.5050   73.6860  219.7650 C   0  0  0  0  0  0  0  0  0  0  0  0
  141.9139   73.5790  218.7494 H   0  0  0  0  0  0  0  0  0  0  0  0
  1  2  1  0
  2  3  2  0
  3  4  1  0
  3  5  1  0
  5  6  2  0
  6  7  1  0
  7  8  2  0
  8  9  1  0
  8 10  1  0
 10 11  1  0
 10 12  2  0
 12 13  1  0
 12 14  1  0
 14 15  1  0
 14 16  2  0
 16 17  1  0
 17 18  2  0
 17 19  1  0
 19 20  1  0
 20 21  1  0
 20 22  1  0
 20 23  1  0
 23 24  1  0
 23 25  1  0
 25 26  1  0
 25 27  1  0
 25 28  1  0
 28 29  1  0
 28 30  1  0
 28 31  1  0
 31 32  1  0
 31 33  1  0
 33 34  1  0
 33 35  1  0
 33 36  1  0
 36 37  1  0
 36 38  1  0
  2 39  1  0
 39 40  2  0
 40 41  1  0
 40 42  1  0
 42 43  2  0
 43 44  1  0
 43 45  1  0
 45 46  1  0
 45 47  2  0
 47 48  1  0
 19  5  1  0
 36 23  1  0
 47 39  1  0
 16  7  1  0
M  END
>  <UniqueID>  (34) 
500

>  <SMILES>  (34) 
O=c1c2ccccc2nc(/C=C/c2cccnc2)n1CC1CCNCC1

>  <Energy>  (34) 
71.06961433470549

>  <Genealogy>  (34) 
O=c1c2ccccc2nc(/C=C/c2cccnc2)n1CC1CCNCC1 (cis-trans isomerization)
O=c1c2ccccc2nc(/C=C/c2cccnc2)n1CC1CCNCC1 (3D coordinates assigned)
O=c1c2ccccc2nc(/C=C/c2cccnc2)n1CC1CCNCC1 (nonaromatic ring conformer: 71.06961433470549 kcal/mol)

>  <smiles>  (34) 
O=c1c2ccccc2nc(/C=C/c2cccnc2)n1CC1CCNCC1

>  <score_type>  (34) 
oracle

>  <origin>  (34) 
autodockgpu

>  <m_score__min__energy>  (34) 
-8

>  <m_primary>  (34) 
energy

>  <meeko>  (34) 
{"free_energy": -5.6, "intermolecular_energy": -7.1, "internal_energy": -2.29, "cluster_size": 1, "cluster_id": 5, "rank_in_cluster": 1}

>  <energy>  (34) 
-6.89

>  <cluster_rmsd>  (34) 
1.41

>  <rmsd>  (34) 
269.57

>  <cluster>  (34) 
2

$$$$
ACXZVNHFWDZWKJ-BQYQJAHWNA-N
     RDKit          3D

 48 51  0  0  0  0  0  0  0  0999 V2000
  141.5066   70.8305  220.8668 H   0  0  0  0  0  0  0  0  0  0  0  0
  140.7140   71.3710  221.4050 C   0  0  0  0  0  0  0  0  0  0  0  0
  139.7430   70.6500  221.9790 C   0  0  0  0  0  0  0  0  0  0  0  0
  138.8758   70.3367  221.3792 H   0  0  0  0  0  0  0  0  0  0  0  0
  139.8160   70.2690  223.4000 C   0  0  0  0  0  0  0  0  0  0  0  0
  140.3940   71.1650  224.2400 N   0  0  0  0  0  0  0  0  0  0  0  0
  140.4660   70.9520  225.5730 C   0  0  0  0  0  0  0  0  0  0  0  0
  141.0740   71.9020  226.4020 C   0  0  0  0  0  0  0  0  0  0  0  0
  141.5115   72.8126  225.9668 H   0  0  0  0  0  0  0  0  0  0  0  0
  141.1250   71.6930  227.7830 C   0  0  0  0  0  0  0  0  0  0  0  0
  141.6059   72.4381  228.4339 H   0  0  0  0  0  0  0  0  0  0  0  0
  140.5660   70.5390  228.3380 C   0  0  0  0  0  0  0  0  0  0  0  0
  140.6052   70.3791  229.4256 H   0  0  0  0  0  0  0  0  0  0  0  0
  139.9570   69.5870  227.5150 C   0  0  0  0  0  0  0  0  0  0  0  0
  139.5179   68.6799  227.9559 H   0  0  0  0  0  0  0  0  0  0  0  0
  139.9050   69.7880  226.1220 C   0  0  0  0  0  0  0  0  0  0  0  0
  139.3180   68.8570  225.2480 C   0  0  0  0  0  0  0  0  0  0  0  0
  138.7800   67.8200  225.7270 O   0  0  0  0  0  0  0  0  0  0  0  0
  139.3320   69.0690  223.8860 N   0  0  0  0  0  0  0  0  0  0  0  0
  138.7970   68.0200  222.9810 C   0  0  0  0  0  0  0  0  0  0  0  0
  139.3482   68.0771  222.0308 H   0  0  0  0  0  0  0  0  0  0  0  0
  138.9297   67.0645  223.5097 H   0  0  0  0  0  0  0  0  0  0  0  0
  137.2760   68.1300  222.6630 C   0  0  0  0  0  0  0  0  0  0  0  0
  136.9298   67.1081  222.8770 H   0  0  0  0  0  0  0  0  0  0  0  0
  136.4740   69.0530  223.6100 C   0  0  0  0  0  0  0  0  0  0  0  0
  135.4551   68.6508  223.7100 H   0  0  0  0  0  0  0  0  0  0  0  0
  137.0059   69.0752  224.5726 H   0  0  0  0  0  0  0  0  0  0  0  0
  136.3800   70.4990  223.1080 C   0  0  0  0  0  0  0  0  0  0  0  0
  135.7034   71.0668  223.7635 H   0  0  0  0  0  0  0  0  0  0  0  0
  137.3845   70.9471  223.1217 H   0  0  0  0  0  0  0  0  0  0  0  0
  135.8640   70.5320  221.7370 N   0  0  0  0  0  0  0  0  0  0  0  0
  135.7950   71.5360  221.4480 H   0  0  0  0  0  0  0  0  0  0  0  0
  136.8070   69.8710  220.8310 C   0  0  0  0  0  0  0  0  0  0  0  0
  136.4480   69.9741  219.7964 H   0  0  0  0  0  0  0  0  0  0  0  0
  137.7945   70.3436  220.9382 H   0  0  0  0  0  0  0  0  0  0  0  0
  136.9290   68.3820  221.1770 C   0  0  0  0  0  0  0  0  0  0  0  0
  135.9703   67.8911  220.9534 H   0  0  0  0  0  0  0  0  0  0  0  0
  137.7527   67.9720  220.5741 H   0  0  0  0  0  0  0  0  0  0  0  0
  140.7900   72.8530  221.4480 C   0  0  0  0  0  0  0  0  0  0  0  0
  139.7990   73.6590  222.0440 C   0  0  0  0  0  0  0  0  0  0  0  0
  138.9192   73.1912  222.5099 H   0  0  0  0  0  0  0  0  0  0  0  0
  139.9270   75.0140  222.0450 N   0  0  0  0  0  0  0  0  0  0  0  0
  140.9940   75.6340  221.4770 C   0  0  0  0  0  0  0  0  0  0  0  0
  141.0685   76.7312  221.4998 H   0  0  0  0  0  0  0  0  0  0  0  0
  141.9950   74.8800  220.8650 C   0  0  0  0  0  0  0  0  0  0  0  0
  142.8599   75.3768  220.4013 H   0  0  0  0  0  0  0  0  0  0  0  0
  141.8880   73.4890  220.8470 C   0  0  0  0  0  0  0  0  0  0  0  0
  142.6686   72.8870  220.3590 H   0  0  0  0  0  0  0  0  0  0  0  0
  1  2  1  0
  2  3  2  0
  3  4  1  0
  3  5  1  0
  5  6  2  0
  6  7  1  0
  7  8  2  0
  8  9  1  0
  8 10  1  0
 10 11  1  0
 10 12  2  0
 12 13  1  0
 12 14  1  0
 14 15  1  0
 14 16  2  0
 16 17  1  0
 17 18  2  0
 17 19  1  0
 19 20  1  0
 20 21  1  0
 20 22  1  0
 20 23  1  0
 23 24  1  0
 23 25  1  0
 25 26  1  0
 25 27  1  0
 25 28  1  0
 28 29  1  0
 28 30  1  0
 28 31  1  0
 31 32  1  0
 31 33  1  0
 33 34  1  0
 33 35  1  0
 33 36  1  0
 36 37  1  0
 36 38  1  0
  2 39  1  0
 39 40  2  0
 40 41  1  0
 40 42  1  0
 42 43  2  0
 43 44  1  0
 43 45  1  0
 45 46  1  0
 45 47  2  0
 47 48  1  0
 19  5  1  0
 36 23  1  0
 47 39  1  0
 16  7  1  0
M  END
>  <UniqueID>  (35) 
500

>  <SMILES>  (35) 
O=c1c2ccccc2nc(/C=C/c2cccnc2)n1CC1CCNCC1

>  <Energy>  (35) 
71.06961433470549

>  <Genealogy>  (35) 
O=c1c2ccccc2nc(/C=C/c2cccnc2)n1CC1CCNCC1 (cis-trans isomerization)
O=c1c2ccccc2nc(/C=C/c2cccnc2)n1CC1CCNCC1 (3D coordinates assigned)
O=c1c2ccccc2nc(/C=C/c2cccnc2)n1CC1CCNCC1 (nonaromatic ring conformer: 71.06961433470549 kcal/mol)

>  <smiles>  (35) 
O=c1c2ccccc2nc(/C=C/c2cccnc2)n1CC1CCNCC1

>  <score_type>  (35) 
oracle

>  <origin>  (35) 
autodockgpu

>  <m_score__min__energy>  (35) 
-8

>  <m_primary>  (35) 
energy

>  <meeko>  (35) 
{"free_energy": -6.91, "intermolecular_energy": -8.4, "internal_energy": -1.49, "cluster_size": 6, "cluster_id": 2, "rank_in_cluster": 3}

>  <energy>  (35) 
-6.76

>  <cluster_rmsd>  (35) 
1.32

>  <rmsd>  (35) 
269.52

>  <cluster>  (35) 
2

$$$$
ACXZVNHFWDZWKJ-BQYQJAHWNA-N
     RDKit          3D

 48 51  0  0  0  0  0  0  0  0999 V2000
  138.8039   71.8533  222.8243 H   0  0  0  0  0  0  0  0  0  0  0  0
  139.8300   71.6290  223.1510 C   0  0  0  0  0  0  0  0  0  0  0  0
  140.8200   71.8050  222.2680 C   0  0  0  0  0  0  0  0  0  0  0  0
  141.4480   70.9481  221.9829 H   0  0  0  0  0  0  0  0  0  0  0  0
  141.0840   73.1250  221.6710 C   0  0  0  0  0  0  0  0  0  0  0  0
  140.4950   74.1910  222.2710 N   0  0  0  0  0  0  0  0  0  0  0  0
  140.7080   75.4570  221.8480 C   0  0  0  0  0  0  0  0  0  0  0  0
  140.0780   76.5270  222.4940 C   0  0  0  0  0  0  0  0  0  0  0  0
  139.3922   76.3361  223.3326 H   0  0  0  0  0  0  0  0  0  0  0  0
  140.3200   77.8380  222.0740 C   0  0  0  0  0  0  0  0  0  0  0  0
  139.8227   78.6782  222.5807 H   0  0  0  0  0  0  0  0  0  0  0  0
  141.1940   78.0820  221.0100 C   0  0  0  0  0  0  0  0  0  0  0  0
  141.3838   79.1147  220.6821 H   0  0  0  0  0  0  0  0  0  0  0  0
  141.8270   77.0180  220.3620 C   0  0  0  0  0  0  0  0  0  0  0  0
  142.5152   77.2147  219.5267 H   0  0  0  0  0  0  0  0  0  0  0  0
  141.5850   75.6940  220.7770 C   0  0  0  0  0  0  0  0  0  0  0  0
  142.1840   74.5870  220.1510 C   0  0  0  0  0  0  0  0  0  0  0  0
  142.9990   74.7820  219.2070 O   0  0  0  0  0  0  0  0  0  0  0  0
  141.8820   73.3040  220.5570 N   0  0  0  0  0  0  0  0  0  0  0  0
  142.4480   72.1530  219.8100 C   0  0  0  0  0  0  0  0  0  0  0  0
  141.8237   71.2717  220.0186 H   0  0  0  0  0  0  0  0  0  0  0  0
  142.4509   72.4483  218.7504 H   0  0  0  0  0  0  0  0  0  0  0  0
  143.9220   71.7940  220.1630 C   0  0  0  0  0  0  0  0  0  0  0  0
  143.7930   70.8541  220.7197 H   0  0  0  0  0  0  0  0  0  0  0  0
  144.8200   71.4480  218.9520 C   0  0  0  0  0  0  0  0  0  0  0  0
  145.5610   70.6993  219.2689 H   0  0  0  0  0  0  0  0  0  0  0  0
  144.1629   71.0679  218.1559 H   0  0  0  0  0  0  0  0  0  0  0  0
  145.5660   72.6630  218.3860 C   0  0  0  0  0  0  0  0  0  0  0  0
  146.2694   72.3270  217.6099 H   0  0  0  0  0  0  0  0  0  0  0  0
  144.8337   73.3622  217.9560 H   0  0  0  0  0  0  0  0  0  0  0  0
  146.3090   73.3470  219.4470 N   0  0  0  0  0  0  0  0  0  0  0  0
  146.8180   74.1500  219.0110 H   0  0  0  0  0  0  0  0  0  0  0  0
  145.3780   73.8950  220.4380 C   0  0  0  0  0  0  0  0  0  0  0  0
  145.9420   74.4744  221.1837 H   0  0  0  0  0  0  0  0  0  0  0  0
  144.6523   74.5436  219.9256 H   0  0  0  0  0  0  0  0  0  0  0  0
  144.6220   72.7630  221.1440 C   0  0  0  0  0  0  0  0  0  0  0  0
  145.3382   72.1894  221.7507 H   0  0  0  0  0  0  0  0  0  0  0  0
  143.8380   73.2277  221.7599 H   0  0  0  0  0  0  0  0  0  0  0  0
  140.0260   71.1510  224.5420 C   0  0  0  0  0  0  0  0  0  0  0  0
  139.3850   70.0080  225.0620 C   0  0  0  0  0  0  0  0  0  0  0  0
  138.7051   69.4236  224.4246 H   0  0  0  0  0  0  0  0  0  0  0  0
  139.6040   69.6250  226.3490 N   0  0  0  0  0  0  0  0  0  0  0  0
  140.4320   70.3190  227.1720 C   0  0  0  0  0  0  0  0  0  0  0  0
  140.5915   69.9782  228.2056 H   0  0  0  0  0  0  0  0  0  0  0  0
  141.0800   71.4630  226.7080 C   0  0  0  0  0  0  0  0  0  0  0  0
  141.7487   72.0309  227.3716 H   0  0  0  0  0  0  0  0  0  0  0  0
  140.8710   71.8800  225.3920 C   0  0  0  0  0  0  0  0  0  0  0  0
  141.3720   72.7857  225.0194 H   0  0  0  0  0  0  0  0  0  0  0  0
  1  2  1  0
  2  3  2  0
  3  4  1  0
  3  5  1  0
  5  6  2  0
  6  7  1  0
  7  8  2  0
  8  9  1  0
  8 10  1  0
 10 11  1  0
 10 12  2  0
 12 13  1  0
 12 14  1  0
 14 15  1  0
 14 16  2  0
 16 17  1  0
 17 18  2  0
 17 19  1  0
 19 20  1  0
 20 21  1  0
 20 22  1  0
 20 23  1  0
 23 24  1  0
 23 25  1  0
 25 26  1  0
 25 27  1  0
 25 28  1  0
 28 29  1  0
 28 30  1  0
 28 31  1  0
 31 32  1  0
 31 33  1  0
 33 34  1  0
 33 35  1  0
 33 36  1  0
 36 37  1  0
 36 38  1  0
  2 39  1  0
 39 40  2  0
 40 41  1  0
 40 42  1  0
 42 43  2  0
 43 44  1  0
 43 45  1  0
 45 46  1  0
 45 47  2  0
 47 48  1  0
 19  5  1  0
 36 23  1  0
 47 39  1  0
 16  7  1  0
M  END
>  <UniqueID>  (36) 
500

>  <SMILES>  (36) 
O=c1c2ccccc2nc(/C=C/c2cccnc2)n1CC1CCNCC1

>  <Energy>  (36) 
71.06961433470549

>  <Genealogy>  (36) 
O=c1c2ccccc2nc(/C=C/c2cccnc2)n1CC1CCNCC1 (cis-trans isomerization)
O=c1c2ccccc2nc(/C=C/c2cccnc2)n1CC1CCNCC1 (3D coordinates assigned)
O=c1c2ccccc2nc(/C=C/c2cccnc2)n1CC1CCNCC1 (nonaromatic ring conformer: 71.06961433470549 kcal/mol)

>  <smiles>  (36) 
O=c1c2ccccc2nc(/C=C/c2cccnc2)n1CC1CCNCC1

>  <score_type>  (36) 
oracle

>  <origin>  (36) 
autodockgpu

>  <m_score__min__energy>  (36) 
-8

>  <m_primary>  (36) 
energy

>  <meeko>  (36) 
{"free_energy": -7.92, "intermolecular_energy": -9.41, "internal_energy": -1.15, "cluster_size": 10, "cluster_id": 1, "rank_in_cluster": 4}

>  <energy>  (36) 
-6.58

>  <cluster_rmsd>  (36) 
1.33

>  <rmsd>  (36) 
269.69

>  <cluster>  (36) 
2

$$$$
ACXZVNHFWDZWKJ-BQYQJAHWNA-N
     RDKit          3D

 48 51  0  0  0  0  0  0  0  0999 V2000
  138.9580   72.2094  222.9208 H   0  0  0  0  0  0  0  0  0  0  0  0
  139.9530   71.7980  223.1460 C   0  0  0  0  0  0  0  0  0  0  0  0
  140.9040   71.9140  222.2110 C   0  0  0  0  0  0  0  0  0  0  0  0
  141.4802   71.0253  221.9139 H   0  0  0  0  0  0  0  0  0  0  0  0
  141.1930   73.2090  221.5730 C   0  0  0  0  0  0  0  0  0  0  0  0
  140.6640   74.3090  222.1660 N   0  0  0  0  0  0  0  0  0  0  0  0
  140.9070   75.5560  221.7050 C   0  0  0  0  0  0  0  0  0  0  0  0
  140.3390   76.6640  222.3470 C   0  0  0  0  0  0  0  0  0  0  0  0
  139.6784   76.5183  223.2144 H   0  0  0  0  0  0  0  0  0  0  0  0
  140.6120   77.9550  221.8850 C   0  0  0  0  0  0  0  0  0  0  0  0
  140.1633   78.8246  222.3874 H   0  0  0  0  0  0  0  0  0  0  0  0
  141.4540   78.1420  220.7860 C   0  0  0  0  0  0  0  0  0  0  0  0
  141.6684   79.1592  220.4262 H   0  0  0  0  0  0  0  0  0  0  0  0
  142.0250   77.0400  220.1420 C   0  0  0  0  0  0  0  0  0  0  0  0
  142.6884   77.1919  219.2779 H   0  0  0  0  0  0  0  0  0  0  0  0
  141.7520   75.7360  220.5980 C   0  0  0  0  0  0  0  0  0  0  0  0
  142.2870   74.5940  219.9790 C   0  0  0  0  0  0  0  0  0  0  0  0
  143.0750   74.7370  219.0020 O   0  0  0  0  0  0  0  0  0  0  0  0
  141.9550   73.3330  220.4260 N   0  0  0  0  0  0  0  0  0  0  0  0
  142.4530   72.1450  219.6890 C   0  0  0  0  0  0  0  0  0  0  0  0
  141.8080   71.2914  219.9445 H   0  0  0  0  0  0  0  0  0  0  0  0
  142.4252   72.4143  218.6228 H   0  0  0  0  0  0  0  0  0  0  0  0
  143.9270   71.7430  219.9940 C   0  0  0  0  0  0  0  0  0  0  0  0
  143.7945   70.7616  220.4729 H   0  0  0  0  0  0  0  0  0  0  0  0
  144.8080   71.4860  218.7500 C   0  0  0  0  0  0  0  0  0  0  0  0
  145.5442   70.7071  218.9976 H   0  0  0  0  0  0  0  0  0  0  0  0
  144.1390   71.1768  217.9334 H   0  0  0  0  0  0  0  0  0  0  0  0
  145.5610   72.7360  218.2750 C   0  0  0  0  0  0  0  0  0  0  0  0
  146.2523   72.4572  217.4660 H   0  0  0  0  0  0  0  0  0  0  0  0
  144.8320   73.4750  217.9113 H   0  0  0  0  0  0  0  0  0  0  0  0
  146.3230   73.3240  219.3800 N   0  0  0  0  0  0  0  0  0  0  0  0
  146.8360   74.1550  219.0030 H   0  0  0  0  0  0  0  0  0  0  0  0
  145.4090   73.8000  220.4210 C   0  0  0  0  0  0  0  0  0  0  0  0
  145.9871   74.3120  221.2044 H   0  0  0  0  0  0  0  0  0  0  0  0
  144.6854   74.4949  219.9698 H   0  0  0  0  0  0  0  0  0  0  0  0
  144.6470   72.6230  221.0430 C   0  0  0  0  0  0  0  0  0  0  0  0
  145.3624   71.9953  221.5946 H   0  0  0  0  0  0  0  0  0  0  0  0
  143.8744   73.0448  221.7027 H   0  0  0  0  0  0  0  0  0  0  0  0
  140.1530   71.1510  224.4660 C   0  0  0  0  0  0  0  0  0  0  0  0
  139.6600   69.8680  224.7790 C   0  0  0  0  0  0  0  0  0  0  0  0
  139.1004   69.2966  224.0238 H   0  0  0  0  0  0  0  0  0  0  0  0
  139.8740   69.3340  226.0120 N   0  0  0  0  0  0  0  0  0  0  0  0
  140.5570   70.0050  226.9760 C   0  0  0  0  0  0  0  0  0  0  0  0
  140.7179   69.5408  227.9602 H   0  0  0  0  0  0  0  0  0  0  0  0
  141.0540   71.2820  226.7180 C   0  0  0  0  0  0  0  0  0  0  0  0
  141.6037   71.8320  227.4961 H   0  0  0  0  0  0  0  0  0  0  0  0
  140.8470   71.8550  225.4630 C   0  0  0  0  0  0  0  0  0  0  0  0
  141.2299   72.8647  225.2532 H   0  0  0  0  0  0  0  0  0  0  0  0
  1  2  1  0
  2  3  2  0
  3  4  1  0
  3  5  1  0
  5  6  2  0
  6  7  1  0
  7  8  2  0
  8  9  1  0
  8 10  1  0
 10 11  1  0
 10 12  2  0
 12 13  1  0
 12 14  1  0
 14 15  1  0
 14 16  2  0
 16 17  1  0
 17 18  2  0
 17 19  1  0
 19 20  1  0
 20 21  1  0
 20 22  1  0
 20 23  1  0
 23 24  1  0
 23 25  1  0
 25 26  1  0
 25 27  1  0
 25 28  1  0
 28 29  1  0
 28 30  1  0
 28 31  1  0
 31 32  1  0
 31 33  1  0
 33 34  1  0
 33 35  1  0
 33 36  1  0
 36 37  1  0
 36 38  1  0
  2 39  1  0
 39 40  2  0
 40 41  1  0
 40 42  1  0
 42 43  2  0
 43 44  1  0
 43 45  1  0
 45 46  1  0
 45 47  2  0
 47 48  1  0
 19  5  1  0
 36 23  1  0
 47 39  1  0
 16  7  1  0
M  END
>  <UniqueID>  (37) 
500

>  <SMILES>  (37) 
O=c1c2ccccc2nc(/C=C/c2cccnc2)n1CC1CCNCC1

>  <Energy>  (37) 
71.06961433470549

>  <Genealogy>  (37) 
O=c1c2ccccc2nc(/C=C/c2cccnc2)n1CC1CCNCC1 (cis-trans isomerization)
O=c1c2ccccc2nc(/C=C/c2cccnc2)n1CC1CCNCC1 (3D coordinates assigned)
O=c1c2ccccc2nc(/C=C/c2cccnc2)n1CC1CCNCC1 (nonaromatic ring conformer: 71.06961433470549 kcal/mol)

>  <smiles>  (37) 
O=c1c2ccccc2nc(/C=C/c2cccnc2)n1CC1CCNCC1

>  <score_type>  (37) 
oracle

>  <origin>  (37) 
autodockgpu

>  <m_score__min__energy>  (37) 
-8

>  <m_primary>  (37) 
energy

>  <meeko>  (37) 
{"free_energy": -7.95, "intermolecular_energy": -9.44, "internal_energy": -1.17, "cluster_size": 10, "cluster_id": 1, "rank_in_cluster": 3}

>  <energy>  (37) 
-6.81

>  <cluster_rmsd>  (37) 
0.0

>  <rmsd>  (37) 
270.3

>  <cluster>  (37) 
3

$$$$
ACXZVNHFWDZWKJ-BQYQJAHWNA-N
     RDKit          3D

 48 51  0  0  0  0  0  0  0  0999 V2000
  138.8170   71.8602  222.9623 H   0  0  0  0  0  0  0  0  0  0  0  0
  139.8540   71.5860  223.2060 C   0  0  0  0  0  0  0  0  0  0  0  0
  140.7850   71.7520  222.2580 C   0  0  0  0  0  0  0  0  0  0  0  0
  141.3550   70.8812  221.9019 H   0  0  0  0  0  0  0  0  0  0  0  0
  141.0590   73.0800  221.6840 C   0  0  0  0  0  0  0  0  0  0  0  0
  140.4650   74.1380  222.2910 N   0  0  0  0  0  0  0  0  0  0  0  0
  140.6870   75.4100  221.8900 C   0  0  0  0  0  0  0  0  0  0  0  0
  140.0500   76.4720  222.5420 C   0  0  0  0  0  0  0  0  0  0  0  0
  139.3517   76.2709  223.3678 H   0  0  0  0  0  0  0  0  0  0  0  0
  140.3010   77.7880  222.1440 C   0  0  0  0  0  0  0  0  0  0  0  0
  139.7989   78.6219  222.6563 H   0  0  0  0  0  0  0  0  0  0  0  0
  141.1890   78.0460  221.0960 C   0  0  0  0  0  0  0  0  0  0  0  0
  141.3855   79.0829  220.7859 H   0  0  0  0  0  0  0  0  0  0  0  0
  141.8280   76.9890  220.4410 C   0  0  0  0  0  0  0  0  0  0  0  0
  142.5272   77.1958  219.6173 H   0  0  0  0  0  0  0  0  0  0  0  0
  141.5780   75.6600  220.8340 C   0  0  0  0  0  0  0  0  0  0  0  0
  142.1820   74.5610  220.2000 C   0  0  0  0  0  0  0  0  0  0  0  0
  143.0110   74.7680  219.2700 O   0  0  0  0  0  0  0  0  0  0  0  0
  141.8720   73.2740  220.5830 N   0  0  0  0  0  0  0  0  0  0  0  0
  142.4470   72.1320  219.8270 C   0  0  0  0  0  0  0  0  0  0  0  0
  141.8255   71.2461  220.0244 H   0  0  0  0  0  0  0  0  0  0  0  0
  142.4537   72.4384  218.7705 H   0  0  0  0  0  0  0  0  0  0  0  0
  143.9210   71.7750  220.1820 C   0  0  0  0  0  0  0  0  0  0  0  0
  143.7932   70.8365  220.7413 H   0  0  0  0  0  0  0  0  0  0  0  0
  144.8200   71.4260  218.9730 C   0  0  0  0  0  0  0  0  0  0  0  0
  145.5621   70.6798  219.2930 H   0  0  0  0  0  0  0  0  0  0  0  0
  144.1640   71.0417  218.1780 H   0  0  0  0  0  0  0  0  0  0  0  0
  145.5640   72.6400  218.4030 C   0  0  0  0  0  0  0  0  0  0  0  0
  146.2673   72.3026  217.6275 H   0  0  0  0  0  0  0  0  0  0  0  0
  144.8307   73.3371  217.9713 H   0  0  0  0  0  0  0  0  0  0  0  0
  146.3070   73.3280  219.4620 N   0  0  0  0  0  0  0  0  0  0  0  0
  146.8150   74.1310  219.0220 H   0  0  0  0  0  0  0  0  0  0  0  0
  145.3750   73.8790  220.4500 C   0  0  0  0  0  0  0  0  0  0  0  0
  145.9381   74.4617  221.1939 H   0  0  0  0  0  0  0  0  0  0  0  0
  144.6492   74.5251  219.9345 H   0  0  0  0  0  0  0  0  0  0  0  0
  144.6190   72.7490  221.1600 C   0  0  0  0  0  0  0  0  0  0  0  0
  145.3349   72.1787  221.7701 H   0  0  0  0  0  0  0  0  0  0  0  0
  143.8338   73.2156  221.7730 H   0  0  0  0  0  0  0  0  0  0  0  0
  140.1310   71.0560  224.5640 C   0  0  0  0  0  0  0  0  0  0  0  0
  139.7380   69.7700  224.9850 C   0  0  0  0  0  0  0  0  0  0  0  0
  139.2032   69.1060  224.2900 H   0  0  0  0  0  0  0  0  0  0  0  0
  140.0170   69.3460  226.2470 N   0  0  0  0  0  0  0  0  0  0  0  0
  140.6740   70.1340  227.1390 C   0  0  0  0  0  0  0  0  0  0  0  0
  140.8909   69.7578  228.1497 H   0  0  0  0  0  0  0  0  0  0  0  0
  141.0730   71.4190  226.7730 C   0  0  0  0  0  0  0  0  0  0  0  0
  141.6007   72.0630  227.4919 H   0  0  0  0  0  0  0  0  0  0  0  0
  140.7960   71.8790  225.4860 C   0  0  0  0  0  0  0  0  0  0  0  0
  141.1009   72.8940  225.1914 H   0  0  0  0  0  0  0  0  0  0  0  0
  1  2  1  0
  2  3  2  0
  3  4  1  0
  3  5  1  0
  5  6  2  0
  6  7  1  0
  7  8  2  0
  8  9  1  0
  8 10  1  0
 10 11  1  0
 10 12  2  0
 12 13  1  0
 12 14  1  0
 14 15  1  0
 14 16  2  0
 16 17  1  0
 17 18  2  0
 17 19  1  0
 19 20  1  0
 20 21  1  0
 20 22  1  0
 20 23  1  0
 23 24  1  0
 23 25  1  0
 25 26  1  0
 25 27  1  0
 25 28  1  0
 28 29  1  0
 28 30  1  0
 28 31  1  0
 31 32  1  0
 31 33  1  0
 33 34  1  0
 33 35  1  0
 33 36  1  0
 36 37  1  0
 36 38  1  0
  2 39  1  0
 39 40  2  0
 40 41  1  0
 40 42  1  0
 42 43  2  0
 43 44  1  0
 43 45  1  0
 45 46  1  0
 45 47  2  0
 47 48  1  0
 19  5  1  0
 36 23  1  0
 47 39  1  0
 16  7  1  0
M  END
>  <UniqueID>  (38) 
500

>  <SMILES>  (38) 
O=c1c2ccccc2nc(/C=C/c2cccnc2)n1CC1CCNCC1

>  <Energy>  (38) 
71.06961433470549

>  <Genealogy>  (38) 
O=c1c2ccccc2nc(/C=C/c2cccnc2)n1CC1CCNCC1 (cis-trans isomerization)
O=c1c2ccccc2nc(/C=C/c2cccnc2)n1CC1CCNCC1 (3D coordinates assigned)
O=c1c2ccccc2nc(/C=C/c2cccnc2)n1CC1CCNCC1 (nonaromatic ring conformer: 71.06961433470549 kcal/mol)

>  <smiles>  (38) 
O=c1c2ccccc2nc(/C=C/c2cccnc2)n1CC1CCNCC1

>  <score_type>  (38) 
oracle

>  <origin>  (38) 
autodockgpu

>  <m_score__min__energy>  (38) 
-8

>  <m_primary>  (38) 
energy

>  <meeko>  (38) 
{"free_energy": -7.97, "intermolecular_energy": -9.46, "internal_energy": -1.12, "cluster_size": 10, "cluster_id": 1, "rank_in_cluster": 2}

>  <energy>  (38) 
-6.8

>  <cluster_rmsd>  (38) 
0.03

>  <rmsd>  (38) 
270.31

>  <cluster>  (38) 
3

$$$$
ACXZVNHFWDZWKJ-BQYQJAHWNA-N
     RDKit          3D

 48 51  0  0  0  0  0  0  0  0999 V2000
  141.6600   72.1217  221.3626 H   0  0  0  0  0  0  0  0  0  0  0  0
  140.6350   72.3220  221.7080 C   0  0  0  0  0  0  0  0  0  0  0  0
  139.8720   71.2740  222.0430 C   0  0  0  0  0  0  0  0  0  0  0  0
  139.2025   70.8309  221.2910 H   0  0  0  0  0  0  0  0  0  0  0  0
  139.9130   70.7040  223.4000 C   0  0  0  0  0  0  0  0  0  0  0  0
  140.4820   71.4710  224.3630 N   0  0  0  0  0  0  0  0  0  0  0  0
  140.5270   71.0790  225.6560 C   0  0  0  0  0  0  0  0  0  0  0  0
  141.1260   71.9000  226.6180 C   0  0  0  0  0  0  0  0  0  0  0  0
  141.5799   72.8562  226.3187 H   0  0  0  0  0  0  0  0  0  0  0  0
  141.1480   71.5060  227.9590 C   0  0  0  0  0  0  0  0  0  0  0  0
  141.6215   72.1513  228.7136 H   0  0  0  0  0  0  0  0  0  0  0  0
  140.5690   70.2930  228.3420 C   0  0  0  0  0  0  0  0  0  0  0  0
  140.5869   69.9857  229.3981 H   0  0  0  0  0  0  0  0  0  0  0  0
  139.9670   69.4690  227.3860 C   0  0  0  0  0  0  0  0  0  0  0  0
  139.5105   68.5161  227.6918 H   0  0  0  0  0  0  0  0  0  0  0  0
  139.9440   69.8570  226.0320 C   0  0  0  0  0  0  0  0  0  0  0  0
  139.3660   69.0600  225.0290 C   0  0  0  0  0  0  0  0  0  0  0  0
  138.8100   67.9740  225.3530 O   0  0  0  0  0  0  0  0  0  0  0  0
  139.4100   69.4540  223.7090 N   0  0  0  0  0  0  0  0  0  0  0  0
  138.8830   68.5440  222.6600 C   0  0  0  0  0  0  0  0  0  0  0  0
  139.4247   68.7523  221.7256 H   0  0  0  0  0  0  0  0  0  0  0  0
  139.0350   67.5224  223.0383 H   0  0  0  0  0  0  0  0  0  0  0  0
  137.3580   68.6750  222.3720 C   0  0  0  0  0  0  0  0  0  0  0  0
  137.0927   67.6402  222.1099 H   0  0  0  0  0  0  0  0  0  0  0  0
  136.4880   69.0350  223.5990 C   0  0  0  0  0  0  0  0  0  0  0  0
  135.5034   68.5589  223.4813 H   0  0  0  0  0  0  0  0  0  0  0  0
  137.0175   68.6733  224.4928 H   0  0  0  0  0  0  0  0  0  0  0  0
  136.2820   70.5450  223.7710 C   0  0  0  0  0  0  0  0  0  0  0  0
  135.5645   70.7222  224.5857 H   0  0  0  0  0  0  0  0  0  0  0  0
  137.2490   71.0116  224.0100 H   0  0  0  0  0  0  0  0  0  0  0  0
  135.7630   71.1350  222.5340 N   0  0  0  0  0  0  0  0  0  0  0  0
  135.6170   72.1570  222.7060 H   0  0  0  0  0  0  0  0  0  0  0  0
  136.7540   71.0020  221.4620 C   0  0  0  0  0  0  0  0  0  0  0  0
  136.3874   71.5198  220.5634 H   0  0  0  0  0  0  0  0  0  0  0  0
  137.7023   71.4487  221.7955 H   0  0  0  0  0  0  0  0  0  0  0  0
  136.9900   69.5230  221.1320 C   0  0  0  0  0  0  0  0  0  0  0  0
  136.0712   69.1127  220.6876 H   0  0  0  0  0  0  0  0  0  0  0  0
  137.8415   69.4742  220.4373 H   0  0  0  0  0  0  0  0  0  0  0  0
  140.1890   73.7360  221.7720 C   0  0  0  0  0  0  0  0  0  0  0  0
  141.0720   74.8290  221.6640 C   0  0  0  0  0  0  0  0  0  0  0  0
  142.1482   74.6518  221.5209 H   0  0  0  0  0  0  0  0  0  0  0  0
  140.5990   76.1020  221.7360 N   0  0  0  0  0  0  0  0  0  0  0  0
  139.2780   76.3670  221.9140 C   0  0  0  0  0  0  0  0  0  0  0  0
  138.9276   77.4086  221.9610 H   0  0  0  0  0  0  0  0  0  0  0  0
  138.3670   75.3190  222.0370 C   0  0  0  0  0  0  0  0  0  0  0  0
  137.2972   75.5274  222.1854 H   0  0  0  0  0  0  0  0  0  0  0  0
  138.8260   74.0030  221.9700 C   0  0  0  0  0  0  0  0  0  0  0  0
  138.1150   73.1700  222.0730 H   0  0  0  0  0  0  0  0  0  0  0  0
  1  2  1  0
  2  3  2  0
  3  4  1  0
  3  5  1  0
  5  6  2  0
  6  7  1  0
  7  8  2  0
  8  9  1  0
  8 10  1  0
 10 11  1  0
 10 12  2  0
 12 13  1  0
 12 14  1  0
 14 15  1  0
 14 16  2  0
 16 17  1  0
 17 18  2  0
 17 19  1  0
 19 20  1  0
 20 21  1  0
 20 22  1  0
 20 23  1  0
 23 24  1  0
 23 25  1  0
 25 26  1  0
 25 27  1  0
 25 28  1  0
 28 29  1  0
 28 30  1  0
 28 31  1  0
 31 32  1  0
 31 33  1  0
 33 34  1  0
 33 35  1  0
 33 36  1  0
 36 37  1  0
 36 38  1  0
  2 39  1  0
 39 40  2  0
 40 41  1  0
 40 42  1  0
 42 43  2  0
 43 44  1  0
 43 45  1  0
 45 46  1  0
 45 47  2  0
 47 48  1  0
 19  5  1  0
 36 23  1  0
 47 39  1  0
 16  7  1  0
M  END
>  <UniqueID>  (39) 
500

>  <SMILES>  (39) 
O=c1c2ccccc2nc(/C=C/c2cccnc2)n1CC1CCNCC1

>  <Energy>  (39) 
71.06961433470549

>  <Genealogy>  (39) 
O=c1c2ccccc2nc(/C=C/c2cccnc2)n1CC1CCNCC1 (cis-trans isomerization)
O=c1c2ccccc2nc(/C=C/c2cccnc2)n1CC1CCNCC1 (3D coordinates assigned)
O=c1c2ccccc2nc(/C=C/c2cccnc2)n1CC1CCNCC1 (nonaromatic ring conformer: 71.06961433470549 kcal/mol)

>  <smiles>  (39) 
O=c1c2ccccc2nc(/C=C/c2cccnc2)n1CC1CCNCC1

>  <score_type>  (39) 
oracle

>  <origin>  (39) 
autodockgpu

>  <m_score__min__energy>  (39) 
-8

>  <m_primary>  (39) 
energy

>  <meeko>  (39) 
{"free_energy": -6.58, "intermolecular_energy": -8.07, "internal_energy": -1.59, "cluster_size": 6, "cluster_id": 2, "rank_in_cluster": 6}

>  <energy>  (39) 
-6.4

>  <cluster_rmsd>  (39) 
0.0

>  <rmsd>  (39) 
269.81

>  <cluster>  (39) 
4

$$$$
ACXZVNHFWDZWKJ-BQYQJAHWNA-N
     RDKit          3D

 48 51  0  0  0  0  0  0  0  0999 V2000
  142.0885   71.3670  222.5730 H   0  0  0  0  0  0  0  0  0  0  0  0
  141.0400   71.5510  222.8500 C   0  0  0  0  0  0  0  0  0  0  0  0
  140.2870   72.2680  222.0070 C   0  0  0  0  0  0  0  0  0  0  0  0
  139.3112   71.8743  221.6864 H   0  0  0  0  0  0  0  0  0  0  0  0
  140.7410   73.5740  221.5010 C   0  0  0  0  0  0  0  0  0  0  0  0
  140.3150   74.6690  222.1790 N   0  0  0  0  0  0  0  0  0  0  0  0
  140.7120   75.9170  221.8440 C   0  0  0  0  0  0  0  0  0  0  0  0
  140.2460   77.0200  222.5690 C   0  0  0  0  0  0  0  0  0  0  0  0
  139.5396   76.8736  223.3994 H   0  0  0  0  0  0  0  0  0  0  0  0
  140.6780   78.3070  222.2380 C   0  0  0  0  0  0  0  0  0  0  0  0
  140.3094   79.1734  222.8068 H   0  0  0  0  0  0  0  0  0  0  0  0
  141.5780   78.4950  221.1850 C   0  0  0  0  0  0  0  0  0  0  0  0
  141.9173   79.5092  220.9277 H   0  0  0  0  0  0  0  0  0  0  0  0
  142.0480   77.3970  220.4580 C   0  0  0  0  0  0  0  0  0  0  0  0
  142.7571   77.5489  219.6309 H   0  0  0  0  0  0  0  0  0  0  0  0
  141.6150   76.0970  220.7830 C   0  0  0  0  0  0  0  0  0  0  0  0
  142.0440   74.9610  220.0750 C   0  0  0  0  0  0  0  0  0  0  0  0
  142.8800   75.1010  219.1390 O   0  0  0  0  0  0  0  0  0  0  0  0
  141.5570   73.7120  220.3930 N   0  0  0  0  0  0  0  0  0  0  0  0
  141.9480   72.5450  219.5630 C   0  0  0  0  0  0  0  0  0  0  0  0
  141.1921   71.7584  219.7043 H   0  0  0  0  0  0  0  0  0  0  0  0
  142.0107   72.9137  218.5285 H   0  0  0  0  0  0  0  0  0  0  0  0
  143.3440   71.9360  219.8900 C   0  0  0  0  0  0  0  0  0  0  0  0
  143.0641   71.0289  220.4457 H   0  0  0  0  0  0  0  0  0  0  0  0
  144.1500   71.4470  218.6640 C   0  0  0  0  0  0  0  0  0  0  0  0
  144.7567   70.5811  218.9673 H   0  0  0  0  0  0  0  0  0  0  0  0
  143.4250   71.1887  217.8781 H   0  0  0  0  0  0  0  0  0  0  0  0
  145.0840   72.5190  218.0880 C   0  0  0  0  0  0  0  0  0  0  0  0
  145.7061   72.0715  217.2989 H   0  0  0  0  0  0  0  0  0  0  0  0
  144.4758   73.3360  217.6724 H   0  0  0  0  0  0  0  0  0  0  0  0
  145.9510   73.0590  219.1380 N   0  0  0  0  0  0  0  0  0  0  0  0
  146.5830   73.7660  218.6950 H   0  0  0  0  0  0  0  0  0  0  0  0
  145.1440   73.7540  220.1450 C   0  0  0  0  0  0  0  0  0  0  0  0
  145.8111   74.2247  220.8821 H   0  0  0  0  0  0  0  0  0  0  0  0
  144.5322   74.5195  219.6454 H   0  0  0  0  0  0  0  0  0  0  0  0
  144.2160   72.7660  220.8620 C   0  0  0  0  0  0  0  0  0  0  0  0
  144.8323   72.0751  221.4560 H   0  0  0  0  0  0  0  0  0  0  0  0
  143.5338   73.3556  221.4920 H   0  0  0  0  0  0  0  0  0  0  0  0
  140.5530   70.9880  224.1340 C   0  0  0  0  0  0  0  0  0  0  0  0
  139.5730   69.9780  224.2110 C   0  0  0  0  0  0  0  0  0  0  0  0
  139.1357   69.5675  223.2889 H   0  0  0  0  0  0  0  0  0  0  0  0
  139.1660   69.5090  225.4210 N   0  0  0  0  0  0  0  0  0  0  0  0
  139.6770   69.9880  226.5850 C   0  0  0  0  0  0  0  0  0  0  0  0
  139.3298   69.5818  227.5465 H   0  0  0  0  0  0  0  0  0  0  0  0
  140.6420   70.9950  226.5610 C   0  0  0  0  0  0  0  0  0  0  0  0
  141.0571   71.3898  227.5001 H   0  0  0  0  0  0  0  0  0  0  0  0
  141.0750   71.4960  225.3330 C   0  0  0  0  0  0  0  0  0  0  0  0
  141.8308   72.2947  225.3047 H   0  0  0  0  0  0  0  0  0  0  0  0
  1  2  1  0
  2  3  2  0
  3  4  1  0
  3  5  1  0
  5  6  2  0
  6  7  1  0
  7  8  2  0
  8  9  1  0
  8 10  1  0
 10 11  1  0
 10 12  2  0
 12 13  1  0
 12 14  1  0
 14 15  1  0
 14 16  2  0
 16 17  1  0
 17 18  2  0
 17 19  1  0
 19 20  1  0
 20 21  1  0
 20 22  1  0
 20 23  1  0
 23 24  1  0
 23 25  1  0
 25 26  1  0
 25 27  1  0
 25 28  1  0
 28 29  1  0
 28 30  1  0
 28 31  1  0
 31 32  1  0
 31 33  1  0
 33 34  1  0
 33 35  1  0
 33 36  1  0
 36 37  1  0
 36 38  1  0
  2 39  1  0
 39 40  2  0
 40 41  1  0
 40 42  1  0
 42 43  2  0
 43 44  1  0
 43 45  1  0
 45 46  1  0
 45 47  2  0
 47 48  1  0
 19  5  1  0
 36 23  1  0
 47 39  1  0
 16  7  1  0
M  END
>  <UniqueID>  (40) 
500

>  <SMILES>  (40) 
O=c1c2ccccc2nc(/C=C/c2cccnc2)n1CC1CCNCC1

>  <Energy>  (40) 
71.06961433470549

>  <Genealogy>  (40) 
O=c1c2ccccc2nc(/C=C/c2cccnc2)n1CC1CCNCC1 (cis-trans isomerization)
O=c1c2ccccc2nc(/C=C/c2cccnc2)n1CC1CCNCC1 (3D coordinates assigned)
O=c1c2ccccc2nc(/C=C/c2cccnc2)n1CC1CCNCC1 (nonaromatic ring conformer: 71.06961433470549 kcal/mol)

>  <smiles>  (40) 
O=c1c2ccccc2nc(/C=C/c2cccnc2)n1CC1CCNCC1

>  <score_type>  (40) 
oracle

>  <origin>  (40) 
autodockgpu

>  <m_score__min__energy>  (40) 
-8

>  <m_primary>  (40) 
energy

>  <meeko>  (40) 
{"free_energy": -7.42, "intermolecular_energy": -8.91, "internal_energy": -1.17, "cluster_size": 10, "cluster_id": 1, "rank_in_cluster": 10}

>  <energy>  (40) 
-5.6

>  <cluster_rmsd>  (40) 
0.0

>  <rmsd>  (40) 
270.16

>  <cluster>  (40) 
5

$$$$
ACXZVNHFWDZWKJ-BQYQJAHWNA-N
     RDKit          3D

 48 51  0  0  0  0  0  0  0  0999 V2000
  138.7846   77.9310  223.9309 H   0  0  0  0  0  0  0  0  0  0  0  0
  139.4120   78.1530  223.0550 C   0  0  0  0  0  0  0  0  0  0  0  0
  139.2520   77.3960  221.9620 C   0  0  0  0  0  0  0  0  0  0  0  0
  138.3623   77.5389  221.3312 H   0  0  0  0  0  0  0  0  0  0  0  0
  140.2460   76.3760  221.5900 C   0  0  0  0  0  0  0  0  0  0  0  0
  139.9610   75.0960  221.9380 N   0  0  0  0  0  0  0  0  0  0  0  0
  140.7700   74.0660  221.6000 C   0  0  0  0  0  0  0  0  0  0  0  0
  140.4390   72.7610  221.9820 C   0  0  0  0  0  0  0  0  0  0  0  0
  139.5317   72.5748  222.5754 H   0  0  0  0  0  0  0  0  0  0  0  0
  141.2620   71.6940  221.6090 C   0  0  0  0  0  0  0  0  0  0  0  0
  141.0030   70.6687  221.9119 H   0  0  0  0  0  0  0  0  0  0  0  0
  142.4130   71.9280  220.8520 C   0  0  0  0  0  0  0  0  0  0  0  0
  143.0571   71.0861  220.5582 H   0  0  0  0  0  0  0  0  0  0  0  0
  142.7480   73.2300  220.4670 C   0  0  0  0  0  0  0  0  0  0  0  0
  143.6545   73.4104  219.8706 H   0  0  0  0  0  0  0  0  0  0  0  0
  141.9260   74.3110  220.8420 C   0  0  0  0  0  0  0  0  0  0  0  0
  142.2230   75.6390  220.4930 C   0  0  0  0  0  0  0  0  0  0  0  0
  143.2420   75.8750  219.7850 O   0  0  0  0  0  0  0  0  0  0  0  0
  141.4190   76.6730  220.9230 N   0  0  0  0  0  0  0  0  0  0  0  0
  141.8150   78.0740  220.6270 C   0  0  0  0  0  0  0  0  0  0  0  0
  141.5805   78.6874  221.5095 H   0  0  0  0  0  0  0  0  0  0  0  0
  142.8877   78.0430  220.3852 H   0  0  0  0  0  0  0  0  0  0  0  0
  141.1130   78.7160  219.3940 C   0  0  0  0  0  0  0  0  0  0  0  0
  140.0519   78.6074  219.6627 H   0  0  0  0  0  0  0  0  0  0  0  0
  141.3500   80.2340  219.2210 C   0  0  0  0  0  0  0  0  0  0  0  0
  140.4512   80.6789  218.7692 H   0  0  0  0  0  0  0  0  0  0  0  0
  141.5592   80.6479  220.2185 H   0  0  0  0  0  0  0  0  0  0  0  0
  142.5560   80.5600  218.3300 C   0  0  0  0  0  0  0  0  0  0  0  0
  142.5957   81.6455  218.1565 H   0  0  0  0  0  0  0  0  0  0  0  0
  143.4740   80.2244  218.8347 H   0  0  0  0  0  0  0  0  0  0  0  0
  142.4410   79.8690  217.0430 N   0  0  0  0  0  0  0  0  0  0  0  0
  143.2700   80.1400  216.4630 H   0  0  0  0  0  0  0  0  0  0  0  0
  142.4950   78.4190  217.2460 C   0  0  0  0  0  0  0  0  0  0  0  0
  142.4907   77.9157  216.2679 H   0  0  0  0  0  0  0  0  0  0  0  0
  143.4148   78.1696  217.7954 H   0  0  0  0  0  0  0  0  0  0  0  0
  141.2850   77.9480  218.0620 C   0  0  0  0  0  0  0  0  0  0  0  0
  140.3778   78.0905  217.4564 H   0  0  0  0  0  0  0  0  0  0  0  0
  141.4515   76.8901  218.3133 H   0  0  0  0  0  0  0  0  0  0  0  0
  140.3810   79.2720  223.1610 C   0  0  0  0  0  0  0  0  0  0  0  0
  140.1070   80.5770  222.7040 C   0  0  0  0  0  0  0  0  0  0  0  0
  139.1329   80.8037  222.2460 H   0  0  0  0  0  0  0  0  0  0  0  0
  141.0420   81.5570  222.8270 N   0  0  0  0  0  0  0  0  0  0  0  0
  142.2590   81.3210  223.3830 C   0  0  0  0  0  0  0  0  0  0  0  0
  142.9898   82.1381  223.4733 H   0  0  0  0  0  0  0  0  0  0  0  0
  142.5820   80.0440  223.8390 C   0  0  0  0  0  0  0  0  0  0  0  0
  143.5676   79.8462  224.2857 H   0  0  0  0  0  0  0  0  0  0  0  0
  141.6420   79.0190  223.7230 C   0  0  0  0  0  0  0  0  0  0  0  0
  141.8909   78.0067  224.0742 H   0  0  0  0  0  0  0  0  0  0  0  0
  1  2  1  0
  2  3  2  0
  3  4  1  0
  3  5  1  0
  5  6  2  0
  6  7  1  0
  7  8  2  0
  8  9  1  0
  8 10  1  0
 10 11  1  0
 10 12  2  0
 12 13  1  0
 12 14  1  0
 14 15  1  0
 14 16  2  0
 16 17  1  0
 17 18  2  0
 17 19  1  0
 19 20  1  0
 20 21  1  0
 20 22  1  0
 20 23  1  0
 23 24  1  0
 23 25  1  0
 25 26  1  0
 25 27  1  0
 25 28  1  0
 28 29  1  0
 28 30  1  0
 28 31  1  0
 31 32  1  0
 31 33  1  0
 33 34  1  0
 33 35  1  0
 33 36  1  0
 36 37  1  0
 36 38  1  0
  2 39  1  0
 39 40  2  0
 40 41  1  0
 40 42  1  0
 42 43  2  0
 43 44  1  0
 43 45  1  0
 45 46  1  0
 45 47  2  0
 47 48  1  0
 19  5  1  0
 36 23  1  0
 47 39  1  0
 16  7  1  0
M  END
>  <UniqueID>  (41) 
501

>  <SMILES>  (41) 
O=c1c2ccccc2nc(/C=C/c2cccnc2)n1CC1CCNCC1

>  <Energy>  (41) 
71.1307890626311

>  <Genealogy>  (41) 
O=c1c2ccccc2nc(/C=C/c2cccnc2)n1CC1CCNCC1 (cis-trans isomerization)
O=c1c2ccccc2nc(/C=C/c2cccnc2)n1CC1CCNCC1 (3D coordinates assigned)
O=c1c2ccccc2nc(/C=C/c2cccnc2)n1CC1CCNCC1 (nonaromatic ring conformer: 71.1307890626311 kcal/mol)

>  <smiles>  (41) 
O=c1c2ccccc2nc(/C=C/c2cccnc2)n1CC1CCNCC1

>  <score_type>  (41) 
oracle

>  <origin>  (41) 
autodockgpu

>  <m_score__min__energy>  (41) 
-8

>  <m_primary>  (41) 
energy

>  <meeko>  (41) 
{"free_energy": -6.81, "intermolecular_energy": -8.3, "internal_energy": -1.55, "cluster_size": 2, "cluster_id": 3, "rank_in_cluster": 1}

>  <energy>  (41) 
-8.0

>  <cluster_rmsd>  (41) 
0.0

>  <rmsd>  (41) 
270.32

>  <cluster>  (41) 
1

$$$$
ACXZVNHFWDZWKJ-BQYQJAHWNA-N
     RDKit          3D

 48 51  0  0  0  0  0  0  0  0999 V2000
  141.3637   71.0207  220.8326 H   0  0  0  0  0  0  0  0  0  0  0  0
  140.5740   71.4830  221.4430 C   0  0  0  0  0  0  0  0  0  0  0  0
  139.6660   70.6770  222.0070 C   0  0  0  0  0  0  0  0  0  0  0  0
  138.8218   70.3098  221.4050 H   0  0  0  0  0  0  0  0  0  0  0  0
  139.7770   70.2730  223.4190 C   0  0  0  0  0  0  0  0  0  0  0  0
  140.3580   71.1640  224.2610 N   0  0  0  0  0  0  0  0  0  0  0  0
  140.4650   70.9300  225.5880 C   0  0  0  0  0  0  0  0  0  0  0  0
  141.0740   71.8760  226.4200 C   0  0  0  0  0  0  0  0  0  0  0  0
  141.4857   72.8017  225.9916 H   0  0  0  0  0  0  0  0  0  0  0  0
  141.1590   71.6440  227.7960 C   0  0  0  0  0  0  0  0  0  0  0  0
  141.6390   72.3873  228.4495 H   0  0  0  0  0  0  0  0  0  0  0  0
  140.6350   70.4690  228.3430 C   0  0  0  0  0  0  0  0  0  0  0  0
  140.7034   70.2897  229.4261 H   0  0  0  0  0  0  0  0  0  0  0  0
  140.0240   69.5210  227.5160 C   0  0  0  0  0  0  0  0  0  0  0  0
  139.6106   68.5987  227.9502 H   0  0  0  0  0  0  0  0  0  0  0  0
  139.9370   69.7450  226.1280 C   0  0  0  0  0  0  0  0  0  0  0  0
  139.3480   68.8200  225.2510 C   0  0  0  0  0  0  0  0  0  0  0  0
  138.8400   67.7640  225.7230 O   0  0  0  0  0  0  0  0  0  0  0  0
  139.3270   69.0550  223.8930 N   0  0  0  0  0  0  0  0  0  0  0  0
  138.7910   68.0120  222.9820 C   0  0  0  0  0  0  0  0  0  0  0  0
  139.3378   68.0782  222.0298 H   0  0  0  0  0  0  0  0  0  0  0  0
  138.9286   67.0525  223.5020 H   0  0  0  0  0  0  0  0  0  0  0  0
  137.2690   68.1210  222.6720 C   0  0  0  0  0  0  0  0  0  0  0  0
  136.9237   67.1028  222.9044 H   0  0  0  0  0  0  0  0  0  0  0  0
  136.4740   69.0600  223.6100 C   0  0  0  0  0  0  0  0  0  0  0  0
  135.4550   68.6613  223.7228 H   0  0  0  0  0  0  0  0  0  0  0  0
  137.0109   69.0963  224.5694 H   0  0  0  0  0  0  0  0  0  0  0  0
  136.3800   70.4980  223.0840 C   0  0  0  0  0  0  0  0  0  0  0  0
  135.7098   71.0788  223.7348 H   0  0  0  0  0  0  0  0  0  0  0  0
  137.3857   70.9436  223.0826 H   0  0  0  0  0  0  0  0  0  0  0  0
  135.8540   70.5090  221.7170 N   0  0  0  0  0  0  0  0  0  0  0  0
  135.7850   71.5080  221.4120 H   0  0  0  0  0  0  0  0  0  0  0  0
  136.7900   69.8320  220.8150 C   0  0  0  0  0  0  0  0  0  0  0  0
  136.4242   69.9189  219.7813 H   0  0  0  0  0  0  0  0  0  0  0  0
  137.7791   70.3045  220.9070 H   0  0  0  0  0  0  0  0  0  0  0  0
  136.9110   68.3490  221.1850 C   0  0  0  0  0  0  0  0  0  0  0  0
  135.9494   67.8569  220.9772 H   0  0  0  0  0  0  0  0  0  0  0  0
  137.7289   67.9268  220.5827 H   0  0  0  0  0  0  0  0  0  0  0  0
  140.5840   72.9600  221.5880 C   0  0  0  0  0  0  0  0  0  0  0  0
  139.5480   73.6800  222.2190 C   0  0  0  0  0  0  0  0  0  0  0  0
  138.6825   73.1439  222.6355 H   0  0  0  0  0  0  0  0  0  0  0  0
  139.6160   75.0350  222.3140 N   0  0  0  0  0  0  0  0  0  0  0  0
  140.6650   75.7380  221.8120 C   0  0  0  0  0  0  0  0  0  0  0  0
  140.6912   76.8331  221.9122 H   0  0  0  0  0  0  0  0  0  0  0  0
  141.7080   75.0720  221.1700 C   0  0  0  0  0  0  0  0  0  0  0  0
  142.5580   75.6361  220.7585 H   0  0  0  0  0  0  0  0  0  0  0  0
  141.6620   73.6820  221.0550 C   0  0  0  0  0  0  0  0  0  0  0  0
  142.4766   73.1490  220.5429 H   0  0  0  0  0  0  0  0  0  0  0  0
  1  2  1  0
  2  3  2  0
  3  4  1  0
  3  5  1  0
  5  6  2  0
  6  7  1  0
  7  8  2  0
  8  9  1  0
  8 10  1  0
 10 11  1  0
 10 12  2  0
 12 13  1  0
 12 14  1  0
 14 15  1  0
 14 16  2  0
 16 17  1  0
 17 18  2  0
 17 19  1  0
 19 20  1  0
 20 21  1  0
 20 22  1  0
 20 23  1  0
 23 24  1  0
 23 25  1  0
 25 26  1  0
 25 27  1  0
 25 28  1  0
 28 29  1  0
 28 30  1  0
 28 31  1  0
 31 32  1  0
 31 33  1  0
 33 34  1  0
 33 35  1  0
 33 36  1  0
 36 37  1  0
 36 38  1  0
  2 39  1  0
 39 40  2  0
 40 41  1  0
 40 42  1  0
 42 43  2  0
 43 44  1  0
 43 45  1  0
 45 46  1  0
 45 47  2  0
 47 48  1  0
 19  5  1  0
 36 23  1  0
 47 39  1  0
 16  7  1  0
M  END
>  <UniqueID>  (42) 
501

>  <SMILES>  (42) 
O=c1c2ccccc2nc(/C=C/c2cccnc2)n1CC1CCNCC1

>  <Energy>  (42) 
71.1307890626311

>  <Genealogy>  (42) 
O=c1c2ccccc2nc(/C=C/c2cccnc2)n1CC1CCNCC1 (cis-trans isomerization)
O=c1c2ccccc2nc(/C=C/c2cccnc2)n1CC1CCNCC1 (3D coordinates assigned)
O=c1c2ccccc2nc(/C=C/c2cccnc2)n1CC1CCNCC1 (nonaromatic ring conformer: 71.1307890626311 kcal/mol)

>  <smiles>  (42) 
O=c1c2ccccc2nc(/C=C/c2cccnc2)n1CC1CCNCC1

>  <score_type>  (42) 
oracle

>  <origin>  (42) 
autodockgpu

>  <m_score__min__energy>  (42) 
-8

>  <m_primary>  (42) 
energy

>  <meeko>  (42) 
{"free_energy": -6.89, "intermolecular_energy": -8.38, "internal_energy": -1.51, "cluster_size": 6, "cluster_id": 2, "rank_in_cluster": 4}

>  <energy>  (42) 
-7.97

>  <cluster_rmsd>  (42) 
0.27

>  <rmsd>  (42) 
270.35

>  <cluster>  (42) 
1

$$$$
ACXZVNHFWDZWKJ-BQYQJAHWNA-N
     RDKit          3D

 48 51  0  0  0  0  0  0  0  0999 V2000
  138.9911   72.2204  223.0106 H   0  0  0  0  0  0  0  0  0  0  0  0
  139.9980   71.8200  223.2000 C   0  0  0  0  0  0  0  0  0  0  0  0
  140.9070   71.9240  222.2230 C   0  0  0  0  0  0  0  0  0  0  0  0
  141.4558   71.0280  221.8976 H   0  0  0  0  0  0  0  0  0  0  0  0
  141.1850   73.2180  221.5760 C   0  0  0  0  0  0  0  0  0  0  0  0
  140.6530   74.3180  222.1660 N   0  0  0  0  0  0  0  0  0  0  0  0
  140.8870   75.5640  221.6970 C   0  0  0  0  0  0  0  0  0  0  0  0
  140.3160   76.6720  222.3350 C   0  0  0  0  0  0  0  0  0  0  0  0
  139.6603   76.5274  223.2063 H   0  0  0  0  0  0  0  0  0  0  0  0
  140.5790   77.9610  221.8650 C   0  0  0  0  0  0  0  0  0  0  0  0
  140.1275   78.8305  222.3652 H   0  0  0  0  0  0  0  0  0  0  0  0
  141.4150   78.1480  220.7600 C   0  0  0  0  0  0  0  0  0  0  0  0
  141.6215   79.1644  220.3935 H   0  0  0  0  0  0  0  0  0  0  0  0
  141.9890   77.0450  220.1200 C   0  0  0  0  0  0  0  0  0  0  0  0
  142.6472   77.1955  219.2516 H   0  0  0  0  0  0  0  0  0  0  0  0
  141.7260   75.7420  220.5850 C   0  0  0  0  0  0  0  0  0  0  0  0
  142.2650   74.5990  219.9700 C   0  0  0  0  0  0  0  0  0  0  0  0
  143.0470   74.7410  218.9880 O   0  0  0  0  0  0  0  0  0  0  0  0
  141.9420   73.3390  220.4260 N   0  0  0  0  0  0  0  0  0  0  0  0
  142.4430   72.1490  219.6920 C   0  0  0  0  0  0  0  0  0  0  0  0
  141.7970   71.2956  219.9458 H   0  0  0  0  0  0  0  0  0  0  0  0
  142.4191   72.4157  218.6251 H   0  0  0  0  0  0  0  0  0  0  0  0
  143.9150   71.7490  220.0050 C   0  0  0  0  0  0  0  0  0  0  0  0
  143.7781   70.7775  220.5024 H   0  0  0  0  0  0  0  0  0  0  0  0
  144.7960   71.4680  218.7650 C   0  0  0  0  0  0  0  0  0  0  0  0
  145.5301   70.6916  219.0264 H   0  0  0  0  0  0  0  0  0  0  0  0
  144.1259   71.1468  217.9540 H   0  0  0  0  0  0  0  0  0  0  0  0
  145.5520   72.7060  218.2680 C   0  0  0  0  0  0  0  0  0  0  0  0
  146.2416   72.4105  217.4636 H   0  0  0  0  0  0  0  0  0  0  0  0
  144.8245   73.4406  217.8923 H   0  0  0  0  0  0  0  0  0  0  0  0
  146.3170   73.3120  219.3610 N   0  0  0  0  0  0  0  0  0  0  0  0
  146.8320   74.1350  218.9700 H   0  0  0  0  0  0  0  0  0  0  0  0
  145.4040   73.8090  220.3950 C   0  0  0  0  0  0  0  0  0  0  0  0
  145.9839   74.3330  221.1690 H   0  0  0  0  0  0  0  0  0  0  0  0
  144.6820   74.4978  219.9321 H   0  0  0  0  0  0  0  0  0  0  0  0
  144.6390   72.6450  221.0380 C   0  0  0  0  0  0  0  0  0  0  0  0
  145.3531   72.0248  221.5996 H   0  0  0  0  0  0  0  0  0  0  0  0
  143.8684   73.0805  221.6911 H   0  0  0  0  0  0  0  0  0  0  0  0
  140.2610   71.1990  224.5230 C   0  0  0  0  0  0  0  0  0  0  0  0
  140.8640   71.8890  225.5930 C   0  0  0  0  0  0  0  0  0  0  0  0
  141.1605   72.9409  225.4686 H   0  0  0  0  0  0  0  0  0  0  0  0
  141.0810   71.2600  226.7790 N   0  0  0  0  0  0  0  0  0  0  0  0
  140.7340   69.9610  226.9760 C   0  0  0  0  0  0  0  0  0  0  0  0
  140.9176   69.4844  227.9502 H   0  0  0  0  0  0  0  0  0  0  0  0
  140.1450   69.2320  225.9430 C   0  0  0  0  0  0  0  0  0  0  0  0
  139.8663   68.1788  226.0947 H   0  0  0  0  0  0  0  0  0  0  0  0
  139.9130   69.8530  224.7150 C   0  0  0  0  0  0  0  0  0  0  0  0
  139.4546   69.2841  223.8926 H   0  0  0  0  0  0  0  0  0  0  0  0
  1  2  1  0
  2  3  2  0
  3  4  1  0
  3  5  1  0
  5  6  2  0
  6  7  1  0
  7  8  2  0
  8  9  1  0
  8 10  1  0
 10 11  1  0
 10 12  2  0
 12 13  1  0
 12 14  1  0
 14 15  1  0
 14 16  2  0
 16 17  1  0
 17 18  2  0
 17 19  1  0
 19 20  1  0
 20 21  1  0
 20 22  1  0
 20 23  1  0
 23 24  1  0
 23 25  1  0
 25 26  1  0
 25 27  1  0
 25 28  1  0
 28 29  1  0
 28 30  1  0
 28 31  1  0
 31 32  1  0
 31 33  1  0
 33 34  1  0
 33 35  1  0
 33 36  1  0
 36 37  1  0
 36 38  1  0
  2 39  1  0
 39 40  2  0
 40 41  1  0
 40 42  1  0
 42 43  2  0
 43 44  1  0
 43 45  1  0
 45 46  1  0
 45 47  2  0
 47 48  1  0
 19  5  1  0
 36 23  1  0
 47 39  1  0
 16  7  1  0
M  END
>  <UniqueID>  (43) 
501

>  <SMILES>  (43) 
O=c1c2ccccc2nc(/C=C/c2cccnc2)n1CC1CCNCC1

>  <Energy>  (43) 
71.1307890626311

>  <Genealogy>  (43) 
O=c1c2ccccc2nc(/C=C/c2cccnc2)n1CC1CCNCC1 (cis-trans isomerization)
O=c1c2ccccc2nc(/C=C/c2cccnc2)n1CC1CCNCC1 (3D coordinates assigned)
O=c1c2ccccc2nc(/C=C/c2cccnc2)n1CC1CCNCC1 (nonaromatic ring conformer: 71.1307890626311 kcal/mol)

>  <smiles>  (43) 
O=c1c2ccccc2nc(/C=C/c2cccnc2)n1CC1CCNCC1

>  <score_type>  (43) 
oracle

>  <origin>  (43) 
autodockgpu

>  <m_score__min__energy>  (43) 
-8

>  <m_primary>  (43) 
energy

>  <meeko>  (43) 
{"free_energy": -7.91, "intermolecular_energy": -9.4, "internal_energy": -1.17, "cluster_size": 10, "cluster_id": 1, "rank_in_cluster": 6}

>  <energy>  (43) 
-7.95

>  <cluster_rmsd>  (43) 
0.14

>  <rmsd>  (43) 
270.28

>  <cluster>  (43) 
1

$$$$
ACXZVNHFWDZWKJ-BQYQJAHWNA-N
     RDKit          3D

 48 51  0  0  0  0  0  0  0  0999 V2000
  139.0366   72.4106  223.1902 H   0  0  0  0  0  0  0  0  0  0  0  0
  139.9980   71.8860  223.2920 C   0  0  0  0  0  0  0  0  0  0  0  0
  140.8590   71.9520  222.2680 C   0  0  0  0  0  0  0  0  0  0  0  0
  141.3408   71.0314  221.9069 H   0  0  0  0  0  0  0  0  0  0  0  0
  141.1720   73.2360  221.6170 C   0  0  0  0  0  0  0  0  0  0  0  0
  140.6470   74.3490  222.1880 N   0  0  0  0  0  0  0  0  0  0  0  0
  140.9120   75.5880  221.7140 C   0  0  0  0  0  0  0  0  0  0  0  0
  140.3480   76.7100  222.3320 C   0  0  0  0  0  0  0  0  0  0  0  0
  139.6725   76.5834  223.1909 H   0  0  0  0  0  0  0  0  0  0  0  0
  140.6430   77.9910  221.8580 C   0  0  0  0  0  0  0  0  0  0  0  0
  140.1976   78.8722  222.3429 H   0  0  0  0  0  0  0  0  0  0  0  0
  141.5030   78.1540  220.7690 C   0  0  0  0  0  0  0  0  0  0  0  0
  141.7340   79.1638  220.3990 H   0  0  0  0  0  0  0  0  0  0  0  0
  142.0710   77.0370  220.1480 C   0  0  0  0  0  0  0  0  0  0  0  0
  142.7492   77.1695  219.2921 H   0  0  0  0  0  0  0  0  0  0  0  0
  141.7750   75.7420  220.6180 C   0  0  0  0  0  0  0  0  0  0  0  0
  142.3060   74.5860  220.0220 C   0  0  0  0  0  0  0  0  0  0  0  0
  143.1090   74.7060  219.0550 O   0  0  0  0  0  0  0  0  0  0  0  0
  141.9520   73.3350  220.4810 N   0  0  0  0  0  0  0  0  0  0  0  0
  142.4470   72.1310  219.7660 C   0  0  0  0  0  0  0  0  0  0  0  0
  141.8022   71.2831  220.0407 H   0  0  0  0  0  0  0  0  0  0  0  0
  142.4158   72.3781  218.6946 H   0  0  0  0  0  0  0  0  0  0  0  0
  143.9210   71.7350  220.0750 C   0  0  0  0  0  0  0  0  0  0  0  0
  143.7885   70.7655  220.5774 H   0  0  0  0  0  0  0  0  0  0  0  0
  144.7970   71.4500  218.8330 C   0  0  0  0  0  0  0  0  0  0  0  0
  145.5333   70.6758  219.0946 H   0  0  0  0  0  0  0  0  0  0  0  0
  144.1242   71.1242  218.0260 H   0  0  0  0  0  0  0  0  0  0  0  0
  145.5490   72.6870  218.3280 C   0  0  0  0  0  0  0  0  0  0  0  0
  146.2363   72.3890  217.5225 H   0  0  0  0  0  0  0  0  0  0  0  0
  144.8185   73.4185  217.9520 H   0  0  0  0  0  0  0  0  0  0  0  0
  146.3170   73.3000  219.4150 N   0  0  0  0  0  0  0  0  0  0  0  0
  146.8290   74.1220  219.0180 H   0  0  0  0  0  0  0  0  0  0  0  0
  145.4070   73.8000  220.4500 C   0  0  0  0  0  0  0  0  0  0  0  0
  145.9887   74.3288  221.2194 H   0  0  0  0  0  0  0  0  0  0  0  0
  144.6819   74.4854  219.9869 H   0  0  0  0  0  0  0  0  0  0  0  0
  144.6470   72.6370  221.1010 C   0  0  0  0  0  0  0  0  0  0  0  0
  145.3646   72.0208  221.6625 H   0  0  0  0  0  0  0  0  0  0  0  0
  143.8779   73.0737  221.7551 H   0  0  0  0  0  0  0  0  0  0  0  0
  140.2570   71.1510  224.5550 C   0  0  0  0  0  0  0  0  0  0  0  0
  139.9560   69.7850  224.7270 C   0  0  0  0  0  0  0  0  0  0  0  0
  139.5115   69.2133  223.8990 H   0  0  0  0  0  0  0  0  0  0  0  0
  140.2130   69.1710  225.9130 N   0  0  0  0  0  0  0  0  0  0  0  0
  140.7590   69.8390  226.9630 C   0  0  0  0  0  0  0  0  0  0  0  0
  140.9603   69.3102  227.9063 H   0  0  0  0  0  0  0  0  0  0  0  0
  141.0640   71.1940  226.8450 C   0  0  0  0  0  0  0  0  0  0  0  0
  141.5019   71.7411  227.6929 H   0  0  0  0  0  0  0  0  0  0  0  0
  140.8080   71.8490  225.6400 C   0  0  0  0  0  0  0  0  0  0  0  0
  141.0397   72.9197  225.5401 H   0  0  0  0  0  0  0  0  0  0  0  0
  1  2  1  0
  2  3  2  0
  3  4  1  0
  3  5  1  0
  5  6  2  0
  6  7  1  0
  7  8  2  0
  8  9  1  0
  8 10  1  0
 10 11  1  0
 10 12  2  0
 12 13  1  0
 12 14  1  0
 14 15  1  0
 14 16  2  0
 16 17  1  0
 17 18  2  0
 17 19  1  0
 19 20  1  0
 20 21  1  0
 20 22  1  0
 20 23  1  0
 23 24  1  0
 23 25  1  0
 25 26  1  0
 25 27  1  0
 25 28  1  0
 28 29  1  0
 28 30  1  0
 28 31  1  0
 31 32  1  0
 31 33  1  0
 33 34  1  0
 33 35  1  0
 33 36  1  0
 36 37  1  0
 36 38  1  0
  2 39  1  0
 39 40  2  0
 40 41  1  0
 40 42  1  0
 42 43  2  0
 43 44  1  0
 43 45  1  0
 45 46  1  0
 45 47  2  0
 47 48  1  0
 19  5  1  0
 36 23  1  0
 47 39  1  0
 16  7  1  0
M  END
>  <UniqueID>  (44) 
501

>  <SMILES>  (44) 
O=c1c2ccccc2nc(/C=C/c2cccnc2)n1CC1CCNCC1

>  <Energy>  (44) 
71.1307890626311

>  <Genealogy>  (44) 
O=c1c2ccccc2nc(/C=C/c2cccnc2)n1CC1CCNCC1 (cis-trans isomerization)
O=c1c2ccccc2nc(/C=C/c2cccnc2)n1CC1CCNCC1 (3D coordinates assigned)
O=c1c2ccccc2nc(/C=C/c2cccnc2)n1CC1CCNCC1 (nonaromatic ring conformer: 71.1307890626311 kcal/mol)

>  <smiles>  (44) 
O=c1c2ccccc2nc(/C=C/c2cccnc2)n1CC1CCNCC1

>  <score_type>  (44) 
oracle

>  <origin>  (44) 
autodockgpu

>  <m_score__min__energy>  (44) 
-8

>  <m_primary>  (44) 
energy

>  <meeko>  (44) 
{"free_energy": -8.0, "intermolecular_energy": -9.49, "internal_energy": -1.14, "cluster_size": 10, "cluster_id": 1, "rank_in_cluster": 1}

>  <energy>  (44) 
-7.92

>  <cluster_rmsd>  (44) 
0.33

>  <rmsd>  (44) 
270.33

>  <cluster>  (44) 
1

$$$$
ACXZVNHFWDZWKJ-BQYQJAHWNA-N
     RDKit          3D

 48 51  0  0  0  0  0  0  0  0999 V2000
  138.9176   72.2841  222.6861 H   0  0  0  0  0  0  0  0  0  0  0  0
  139.9040   71.8560  222.9180 C   0  0  0  0  0  0  0  0  0  0  0  0
  140.8730   71.9870  222.0040 C   0  0  0  0  0  0  0  0  0  0  0  0
  141.4372   71.0988  221.6834 H   0  0  0  0  0  0  0  0  0  0  0  0
  141.1970   73.3000  221.4200 C   0  0  0  0  0  0  0  0  0  0  0  0
  140.7050   74.3880  222.0640 N   0  0  0  0  0  0  0  0  0  0  0  0
  140.9820   75.6470  221.6560 C   0  0  0  0  0  0  0  0  0  0  0  0
  140.4520   76.7410  222.3470 C   0  0  0  0  0  0  0  0  0  0  0  0
  139.7915   76.5777  223.2114 H   0  0  0  0  0  0  0  0  0  0  0  0
  140.7610   78.0420  221.9400 C   0  0  0  0  0  0  0  0  0  0  0  0
  140.3411   78.9017  222.4828 H   0  0  0  0  0  0  0  0  0  0  0  0
  141.6030   78.2520  220.8440 C   0  0  0  0  0  0  0  0  0  0  0  0
  141.8459   79.2769  220.5269 H   0  0  0  0  0  0  0  0  0  0  0  0
  142.1370   77.1620  220.1500 C   0  0  0  0  0  0  0  0  0  0  0  0
  142.8002   77.3308  219.2888 H   0  0  0  0  0  0  0  0  0  0  0  0
  141.8270   75.8480  220.5520 C   0  0  0  0  0  0  0  0  0  0  0  0
  142.3250   74.7180  219.8810 C   0  0  0  0  0  0  0  0  0  0  0  0
  143.1110   74.8800  218.9060 O   0  0  0  0  0  0  0  0  0  0  0  0
  141.9570   73.4500  220.2760 N   0  0  0  0  0  0  0  0  0  0  0  0
  142.4150   72.2800  219.4840 C   0  0  0  0  0  0  0  0  0  0  0  0
  141.7322   71.4422  219.6886 H   0  0  0  0  0  0  0  0  0  0  0  0
  142.4114   72.6028  218.4324 H   0  0  0  0  0  0  0  0  0  0  0  0
  143.8670   71.8030  219.7850 C   0  0  0  0  0  0  0  0  0  0  0  0
  143.6906   70.7896  220.1747 H   0  0  0  0  0  0  0  0  0  0  0  0
  144.7690   71.6250  218.5420 C   0  0  0  0  0  0  0  0  0  0  0  0
  145.4735   70.8028  218.7360 H   0  0  0  0  0  0  0  0  0  0  0  0
  144.1100   71.4113  217.6876 H   0  0  0  0  0  0  0  0  0  0  0  0
  145.5730   72.8840  218.1940 C   0  0  0  0  0  0  0  0  0  0  0  0
  146.2734   72.6525  217.3780 H   0  0  0  0  0  0  0  0  0  0  0  0
  144.8768   73.6764  217.8819 H   0  0  0  0  0  0  0  0  0  0  0  0
  146.3280   73.3480  219.3610 N   0  0  0  0  0  0  0  0  0  0  0  0
  146.8760   74.1910  219.0700 H   0  0  0  0  0  0  0  0  0  0  0  0
  145.4040   73.7630  220.4210 C   0  0  0  0  0  0  0  0  0  0  0  0
  145.9791   74.1850  221.2584 H   0  0  0  0  0  0  0  0  0  0  0  0
  144.7142   74.5187  220.0173 H   0  0  0  0  0  0  0  0  0  0  0  0
  144.5900   72.5630  220.9210 C   0  0  0  0  0  0  0  0  0  0  0  0
  145.2716   71.8656  221.4299 H   0  0  0  0  0  0  0  0  0  0  0  0
  143.8160   72.9521  221.5989 H   0  0  0  0  0  0  0  0  0  0  0  0
  140.0730   71.1710  224.2240 C   0  0  0  0  0  0  0  0  0  0  0  0
  139.5950   69.8700  224.4810 C   0  0  0  0  0  0  0  0  0  0  0  0
  139.0708   69.3124  223.6909 H   0  0  0  0  0  0  0  0  0  0  0  0
  139.7800   69.3020  225.7030 N   0  0  0  0  0  0  0  0  0  0  0  0
  140.4180   69.9550  226.7090 C   0  0  0  0  0  0  0  0  0  0  0  0
  140.5552   69.4634  227.6834 H   0  0  0  0  0  0  0  0  0  0  0  0
  140.8990   71.2480  226.5070 C   0  0  0  0  0  0  0  0  0  0  0  0
  141.4133   71.7830  227.3190 H   0  0  0  0  0  0  0  0  0  0  0  0
  140.7210   71.8560  225.2640 C   0  0  0  0  0  0  0  0  0  0  0  0
  141.0907   72.8786  225.0978 H   0  0  0  0  0  0  0  0  0  0  0  0
  1  2  1  0
  2  3  2  0
  3  4  1  0
  3  5  1  0
  5  6  2  0
  6  7  1  0
  7  8  2  0
  8  9  1  0
  8 10  1  0
 10 11  1  0
 10 12  2  0
 12 13  1  0
 12 14  1  0
 14 15  1  0
 14 16  2  0
 16 17  1  0
 17 18  2  0
 17 19  1  0
 19 20  1  0
 20 21  1  0
 20 22  1  0
 20 23  1  0
 23 24  1  0
 23 25  1  0
 25 26  1  0
 25 27  1  0
 25 28  1  0
 28 29  1  0
 28 30  1  0
 28 31  1  0
 31 32  1  0
 31 33  1  0
 33 34  1  0
 33 35  1  0
 33 36  1  0
 36 37  1  0
 36 38  1  0
  2 39  1  0
 39 40  2  0
 40 41  1  0
 40 42  1  0
 42 43  2  0
 43 44  1  0
 43 45  1  0
 45 46  1  0
 45 47  2  0
 47 48  1  0
 19  5  1  0
 36 23  1  0
 47 39  1  0
 16  7  1  0
M  END
>  <UniqueID>  (45) 
501

>  <SMILES>  (45) 
O=c1c2ccccc2nc(/C=C/c2cccnc2)n1CC1CCNCC1

>  <Energy>  (45) 
71.1307890626311

>  <Genealogy>  (45) 
O=c1c2ccccc2nc(/C=C/c2cccnc2)n1CC1CCNCC1 (cis-trans isomerization)
O=c1c2ccccc2nc(/C=C/c2cccnc2)n1CC1CCNCC1 (3D coordinates assigned)
O=c1c2ccccc2nc(/C=C/c2cccnc2)n1CC1CCNCC1 (nonaromatic ring conformer: 71.1307890626311 kcal/mol)

>  <smiles>  (45) 
O=c1c2ccccc2nc(/C=C/c2cccnc2)n1CC1CCNCC1

>  <score_type>  (45) 
oracle

>  <origin>  (45) 
autodockgpu

>  <m_score__min__energy>  (45) 
-8

>  <m_primary>  (45) 
energy

>  <meeko>  (45) 
{"free_energy": -7.9, "intermolecular_energy": -9.39, "internal_energy": -1.22, "cluster_size": 10, "cluster_id": 1, "rank_in_cluster": 8}

>  <energy>  (45) 
-7.91

>  <cluster_rmsd>  (45) 
0.31

>  <rmsd>  (45) 
270.18

>  <cluster>  (45) 
1

$$$$
ACXZVNHFWDZWKJ-BQYQJAHWNA-N
     RDKit          3D

 48 51  0  0  0  0  0  0  0  0999 V2000
  141.6470   72.5327  221.7367 H   0  0  0  0  0  0  0  0  0  0  0  0
  140.6100   72.8380  221.9400 C   0  0  0  0  0  0  0  0  0  0  0  0
  139.7230   71.8810  222.2360 C   0  0  0  0  0  0  0  0  0  0  0  0
  138.9175   71.6517  221.5228 H   0  0  0  0  0  0  0  0  0  0  0  0
  139.8060   71.1290  223.5000 C   0  0  0  0  0  0  0  0  0  0  0  0
  140.3690   71.7730  224.5530 N   0  0  0  0  0  0  0  0  0  0  0  0
  140.4490   71.2060  225.7770 C   0  0  0  0  0  0  0  0  0  0  0  0
  141.0410   71.9050  226.8360 C   0  0  0  0  0  0  0  0  0  0  0  0
  141.4605   72.9077  226.6667 H   0  0  0  0  0  0  0  0  0  0  0  0
  141.0990   71.3290  228.1080 C   0  0  0  0  0  0  0  0  0  0  0  0
  141.5665   71.8779  228.9387 H   0  0  0  0  0  0  0  0  0  0  0  0
  140.5640   70.0570  228.3260 C   0  0  0  0  0  0  0  0  0  0  0  0
  140.6101   69.6071  229.3287 H   0  0  0  0  0  0  0  0  0  0  0  0
  139.9700   69.3540  227.2730 C   0  0  0  0  0  0  0  0  0  0  0  0
  139.5484   68.3534  227.4491 H   0  0  0  0  0  0  0  0  0  0  0  0
  139.9110   69.9260  225.9870 C   0  0  0  0  0  0  0  0  0  0  0  0
  139.3390   69.2580  224.8910 C   0  0  0  0  0  0  0  0  0  0  0  0
  138.8220   68.1200  225.0680 O   0  0  0  0  0  0  0  0  0  0  0  0
  139.3460   69.8330  223.6380 N   0  0  0  0  0  0  0  0  0  0  0  0
  138.8290   69.0600  222.4810 C   0  0  0  0  0  0  0  0  0  0  0  0
  139.4845   69.2570  221.6199 H   0  0  0  0  0  0  0  0  0  0  0  0
  138.8225   68.0062  222.7964 H   0  0  0  0  0  0  0  0  0  0  0  0
  137.3670   69.3940  222.0600 C   0  0  0  0  0  0  0  0  0  0  0  0
  137.5292   70.1602  221.2875 H   0  0  0  0  0  0  0  0  0  0  0  0
  136.6070   68.2440  221.3590 C   0  0  0  0  0  0  0  0  0  0  0  0
  135.9083   68.6801  220.6298 H   0  0  0  0  0  0  0  0  0  0  0  0
  137.3587   67.6011  220.8777 H   0  0  0  0  0  0  0  0  0  0  0  0
  135.8110   67.3650  222.3310 C   0  0  0  0  0  0  0  0  0  0  0  0
  135.2080   66.6453  221.7580 H   0  0  0  0  0  0  0  0  0  0  0  0
  136.5144   66.8313  222.9870 H   0  0  0  0  0  0  0  0  0  0  0  0
  134.9240   68.1890  223.1560 N   0  0  0  0  0  0  0  0  0  0  0  0
  134.3860   67.5460  223.7840 H   0  0  0  0  0  0  0  0  0  0  0  0
  135.7170   69.0810  224.0070 C   0  0  0  0  0  0  0  0  0  0  0  0
  135.0439   69.6346  224.6782 H   0  0  0  0  0  0  0  0  0  0  0  0
  136.4246   68.4776  224.5945 H   0  0  0  0  0  0  0  0  0  0  0  0
  136.5060   70.0770  223.1490 C   0  0  0  0  0  0  0  0  0  0  0  0
  135.7938   70.7558  222.6571 H   0  0  0  0  0  0  0  0  0  0  0  0
  137.1926   70.6144  223.8196 H   0  0  0  0  0  0  0  0  0  0  0  0
  140.2860   74.2850  221.8680 C   0  0  0  0  0  0  0  0  0  0  0  0
  138.9830   74.7930  222.0390 C   0  0  0  0  0  0  0  0  0  0  0  0
  138.1490   74.1047  222.2406 H   0  0  0  0  0  0  0  0  0  0  0  0
  138.7520   76.1300  221.9560 N   0  0  0  0  0  0  0  0  0  0  0  0
  139.7520   77.0160  221.7060 C   0  0  0  0  0  0  0  0  0  0  0  0
  139.5321   78.0924  221.6520 H   0  0  0  0  0  0  0  0  0  0  0  0
  141.0560   76.5610  221.5180 C   0  0  0  0  0  0  0  0  0  0  0  0
  141.8685   77.2730  221.3110 H   0  0  0  0  0  0  0  0  0  0  0  0
  141.3200   75.1940  221.5950 C   0  0  0  0  0  0  0  0  0  0  0  0
  142.3450   74.8257  221.4408 H   0  0  0  0  0  0  0  0  0  0  0  0
  1  2  1  0
  2  3  2  0
  3  4  1  0
  3  5  1  0
  5  6  2  0
  6  7  1  0
  7  8  2  0
  8  9  1  0
  8 10  1  0
 10 11  1  0
 10 12  2  0
 12 13  1  0
 12 14  1  0
 14 15  1  0
 14 16  2  0
 16 17  1  0
 17 18  2  0
 17 19  1  0
 19 20  1  0
 20 21  1  0
 20 22  1  0
 20 23  1  0
 23 24  1  0
 23 25  1  0
 25 26  1  0
 25 27  1  0
 25 28  1  0
 28 29  1  0
 28 30  1  0
 28 31  1  0
 31 32  1  0
 31 33  1  0
 33 34  1  0
 33 35  1  0
 33 36  1  0
 36 37  1  0
 36 38  1  0
  2 39  1  0
 39 40  2  0
 40 41  1  0
 40 42  1  0
 42 43  2  0
 43 44  1  0
 43 45  1  0
 45 46  1  0
 45 47  2  0
 47 48  1  0
 19  5  1  0
 36 23  1  0
 47 39  1  0
 16  7  1  0
M  END
>  <UniqueID>  (46) 
501

>  <SMILES>  (46) 
O=c1c2ccccc2nc(/C=C/c2cccnc2)n1CC1CCNCC1

>  <Energy>  (46) 
71.1307890626311

>  <Genealogy>  (46) 
O=c1c2ccccc2nc(/C=C/c2cccnc2)n1CC1CCNCC1 (cis-trans isomerization)
O=c1c2ccccc2nc(/C=C/c2cccnc2)n1CC1CCNCC1 (3D coordinates assigned)
O=c1c2ccccc2nc(/C=C/c2cccnc2)n1CC1CCNCC1 (nonaromatic ring conformer: 71.1307890626311 kcal/mol)

>  <smiles>  (46) 
O=c1c2ccccc2nc(/C=C/c2cccnc2)n1CC1CCNCC1

>  <score_type>  (46) 
oracle

>  <origin>  (46) 
autodockgpu

>  <m_score__min__energy>  (46) 
-8

>  <m_primary>  (46) 
energy

>  <meeko>  (46) 
{"free_energy": -7.01, "intermolecular_energy": -8.5, "internal_energy": -1.19, "cluster_size": 6, "cluster_id": 2, "rank_in_cluster": 1}

>  <energy>  (46) 
-7.91

>  <cluster_rmsd>  (46) 
0.54

>  <rmsd>  (46) 
270.29

>  <cluster>  (46) 
1

$$$$
ACXZVNHFWDZWKJ-BQYQJAHWNA-N
     RDKit          3D

 48 51  0  0  0  0  0  0  0  0999 V2000
  137.6091   72.0098  221.6993 H   0  0  0  0  0  0  0  0  0  0  0  0
  138.6830   72.1430  221.8970 C   0  0  0  0  0  0  0  0  0  0  0  0
  139.4220   71.0460  222.1020 C   0  0  0  0  0  0  0  0  0  0  0  0
  139.8814   70.5357  221.2426 H   0  0  0  0  0  0  0  0  0  0  0  0
  139.6310   70.5100  223.4580 C   0  0  0  0  0  0  0  0  0  0  0  0
  140.1870   71.3520  224.3650 N   0  0  0  0  0  0  0  0  0  0  0  0
  140.3740   70.9920  225.6540 C   0  0  0  0  0  0  0  0  0  0  0  0
  140.9540   71.8920  226.5560 C   0  0  0  0  0  0  0  0  0  0  0  0
  141.2767   72.8854  226.2111 H   0  0  0  0  0  0  0  0  0  0  0  0
  141.1230   71.5280  227.8950 C   0  0  0  0  0  0  0  0  0  0  0  0
  141.5811   72.2347  228.6026 H   0  0  0  0  0  0  0  0  0  0  0  0
  140.7110   70.2680  228.3360 C   0  0  0  0  0  0  0  0  0  0  0  0
  140.8439   69.9855  229.3907 H   0  0  0  0  0  0  0  0  0  0  0  0
  140.1300   69.3650  227.4400 C   0  0  0  0  0  0  0  0  0  0  0  0
  139.8055   68.3744  227.7911 H   0  0  0  0  0  0  0  0  0  0  0  0
  139.9600   69.7230  226.0880 C   0  0  0  0  0  0  0  0  0  0  0  0
  139.3950   68.8490  225.1430 C   0  0  0  0  0  0  0  0  0  0  0  0
  138.9880   67.7150  225.5220 O   0  0  0  0  0  0  0  0  0  0  0  0
  139.2920   69.2200  223.8200 N   0  0  0  0  0  0  0  0  0  0  0  0
  138.7880   68.2380  222.8260 C   0  0  0  0  0  0  0  0  0  0  0  0
  139.2044   68.5041  221.8433 H   0  0  0  0  0  0  0  0  0  0  0  0
  139.1075   67.2485  223.1850 H   0  0  0  0  0  0  0  0  0  0  0  0
  137.2380   68.1690  222.6900 C   0  0  0  0  0  0  0  0  0  0  0  0
  137.0459   67.1053  222.8939 H   0  0  0  0  0  0  0  0  0  0  0  0
  136.4490   68.9510  223.7650 C   0  0  0  0  0  0  0  0  0  0  0  0
  135.5046   68.4217  223.9598 H   0  0  0  0  0  0  0  0  0  0  0  0
  137.0839   69.0059  224.6616 H   0  0  0  0  0  0  0  0  0  0  0  0
  136.1240   70.3910  223.3470 C   0  0  0  0  0  0  0  0  0  0  0  0
  135.4680   70.8484  224.1023 H   0  0  0  0  0  0  0  0  0  0  0  0
  137.0621   70.9598  223.2670 H   0  0  0  0  0  0  0  0  0  0  0  0
  135.4470   70.4050  222.0470 N   0  0  0  0  0  0  0  0  0  0  0  0
  135.2250   71.4020  221.8160 H   0  0  0  0  0  0  0  0  0  0  0  0
  136.3480   69.8980  221.0080 C   0  0  0  0  0  0  0  0  0  0  0  0
  135.8583   69.9899  220.0273 H   0  0  0  0  0  0  0  0  0  0  0  0
  137.2772   70.4866  221.0233 H   0  0  0  0  0  0  0  0  0  0  0  0
  136.6880   68.4250  221.2670 C   0  0  0  0  0  0  0  0  0  0  0  0
  135.7752   67.8263  221.1318 H   0  0  0  0  0  0  0  0  0  0  0  0
  137.4769   68.1410  220.5550 H   0  0  0  0  0  0  0  0  0  0  0  0
  139.2180   73.5280  221.9190 C   0  0  0  0  0  0  0  0  0  0  0  0
  140.5960   73.8220  221.9130 C   0  0  0  0  0  0  0  0  0  0  0  0
  141.3308   73.0038  221.8864 H   0  0  0  0  0  0  0  0  0  0  0  0
  141.0210   75.1140  221.9400 N   0  0  0  0  0  0  0  0  0  0  0  0
  140.1480   76.1550  221.9760 C   0  0  0  0  0  0  0  0  0  0  0  0
  140.5250   77.1883  221.9902 H   0  0  0  0  0  0  0  0  0  0  0  0
  138.7750   75.9140  221.9950 C   0  0  0  0  0  0  0  0  0  0  0  0
  138.0640   76.7527  222.0286 H   0  0  0  0  0  0  0  0  0  0  0  0
  138.3120   74.5980  221.9710 C   0  0  0  0  0  0  0  0  0  0  0  0
  137.2305   74.3983  221.9930 H   0  0  0  0  0  0  0  0  0  0  0  0
  1  2  1  0
  2  3  2  0
  3  4  1  0
  3  5  1  0
  5  6  2  0
  6  7  1  0
  7  8  2  0
  8  9  1  0
  8 10  1  0
 10 11  1  0
 10 12  2  0
 12 13  1  0
 12 14  1  0
 14 15  1  0
 14 16  2  0
 16 17  1  0
 17 18  2  0
 17 19  1  0
 19 20  1  0
 20 21  1  0
 20 22  1  0
 20 23  1  0
 23 24  1  0
 23 25  1  0
 25 26  1  0
 25 27  1  0
 25 28  1  0
 28 29  1  0
 28 30  1  0
 28 31  1  0
 31 32  1  0
 31 33  1  0
 33 34  1  0
 33 35  1  0
 33 36  1  0
 36 37  1  0
 36 38  1  0
  2 39  1  0
 39 40  2  0
 40 41  1  0
 40 42  1  0
 42 43  2  0
 43 44  1  0
 43 45  1  0
 45 46  1  0
 45 47  2  0
 47 48  1  0
 19  5  1  0
 36 23  1  0
 47 39  1  0
 16  7  1  0
M  END
>  <UniqueID>  (47) 
501

>  <SMILES>  (47) 
O=c1c2ccccc2nc(/C=C/c2cccnc2)n1CC1CCNCC1

>  <Energy>  (47) 
71.1307890626311

>  <Genealogy>  (47) 
O=c1c2ccccc2nc(/C=C/c2cccnc2)n1CC1CCNCC1 (cis-trans isomerization)
O=c1c2ccccc2nc(/C=C/c2cccnc2)n1CC1CCNCC1 (3D coordinates assigned)
O=c1c2ccccc2nc(/C=C/c2cccnc2)n1CC1CCNCC1 (nonaromatic ring conformer: 71.1307890626311 kcal/mol)

>  <smiles>  (47) 
O=c1c2ccccc2nc(/C=C/c2cccnc2)n1CC1CCNCC1

>  <score_type>  (47) 
oracle

>  <origin>  (47) 
autodockgpu

>  <m_score__min__energy>  (47) 
-8

>  <m_primary>  (47) 
energy

>  <meeko>  (47) 
{"free_energy": -6.76, "intermolecular_energy": -8.25, "internal_energy": -1.55, "cluster_size": 6, "cluster_id": 2, "rank_in_cluster": 5}

>  <energy>  (47) 
-7.9

>  <cluster_rmsd>  (47) 
0.33

>  <rmsd>  (47) 
270.14

>  <cluster>  (47) 
1

$$$$
ACXZVNHFWDZWKJ-BQYQJAHWNA-N
     RDKit          3D

 48 51  0  0  0  0  0  0  0  0999 V2000
  139.0429   72.5291  222.9347 H   0  0  0  0  0  0  0  0  0  0  0  0
  139.9640   71.9360  223.0340 C   0  0  0  0  0  0  0  0  0  0  0  0
  140.8820   72.0380  222.0650 C   0  0  0  0  0  0  0  0  0  0  0  0
  141.3997   71.1333  221.7136 H   0  0  0  0  0  0  0  0  0  0  0  0
  141.2110   73.3410  221.4610 C   0  0  0  0  0  0  0  0  0  0  0  0
  140.7300   74.4410  222.0930 N   0  0  0  0  0  0  0  0  0  0  0  0
  141.0130   75.6920  221.6660 C   0  0  0  0  0  0  0  0  0  0  0  0
  140.4940   76.7990  222.3460 C   0  0  0  0  0  0  0  0  0  0  0  0
  139.8375   76.6518  223.2163 H   0  0  0  0  0  0  0  0  0  0  0  0
  140.8100   78.0930  221.9190 C   0  0  0  0  0  0  0  0  0  0  0  0
  140.4000   78.9630  222.4528 H   0  0  0  0  0  0  0  0  0  0  0  0
  141.6460   78.2820  220.8150 C   0  0  0  0  0  0  0  0  0  0  0  0
  141.8937   79.3007  220.4821 H   0  0  0  0  0  0  0  0  0  0  0  0
  142.1680   77.1790  220.1330 C   0  0  0  0  0  0  0  0  0  0  0  0
  142.8270   77.3317  219.2656 H   0  0  0  0  0  0  0  0  0  0  0  0
  141.8520   75.8730  220.5540 C   0  0  0  0  0  0  0  0  0  0  0  0
  142.3380   74.7310  219.8950 C   0  0  0  0  0  0  0  0  0  0  0  0
  143.1190   74.8740  218.9130 O   0  0  0  0  0  0  0  0  0  0  0  0
  141.9640   73.4700  220.3090 N   0  0  0  0  0  0  0  0  0  0  0  0
  142.4090   72.2870  219.5310 C   0  0  0  0  0  0  0  0  0  0  0  0
  141.7235   71.4560  219.7537 H   0  0  0  0  0  0  0  0  0  0  0  0
  142.3985   72.5950  218.4751 H   0  0  0  0  0  0  0  0  0  0  0  0
  143.8610   71.8060  219.8260 C   0  0  0  0  0  0  0  0  0  0  0  0
  143.6821   70.7997  220.2326 H   0  0  0  0  0  0  0  0  0  0  0  0
  144.7510   71.6030  218.5780 C   0  0  0  0  0  0  0  0  0  0  0  0
  145.4526   70.7799  218.7789 H   0  0  0  0  0  0  0  0  0  0  0  0
  144.0833   71.3794  217.7329 H   0  0  0  0  0  0  0  0  0  0  0  0
  145.5590   72.8520  218.2030 C   0  0  0  0  0  0  0  0  0  0  0  0
  146.2509   72.6037  217.3847 H   0  0  0  0  0  0  0  0  0  0  0  0
  144.8645   73.6434  217.8845 H   0  0  0  0  0  0  0  0  0  0  0  0
  146.3270   73.3300  219.3560 N   0  0  0  0  0  0  0  0  0  0  0  0
  146.8770   74.1640  219.0470 H   0  0  0  0  0  0  0  0  0  0  0  0
  145.4150   73.7670  220.4180 C   0  0  0  0  0  0  0  0  0  0  0  0
  146.0002   74.1987  221.2434 H   0  0  0  0  0  0  0  0  0  0  0  0
  144.7258   74.5204  220.0088 H   0  0  0  0  0  0  0  0  0  0  0  0
  144.5990   72.5800  220.9440 C   0  0  0  0  0  0  0  0  0  0  0  0
  145.2812   71.8867  221.4577 H   0  0  0  0  0  0  0  0  0  0  0  0
  143.8334   72.9841  221.6226 H   0  0  0  0  0  0  0  0  0  0  0  0
  140.1090   71.0740  224.2340 C   0  0  0  0  0  0  0  0  0  0  0  0
  139.5830   69.7690  224.3140 C   0  0  0  0  0  0  0  0  0  0  0  0
  139.0386   69.3441  223.4578 H   0  0  0  0  0  0  0  0  0  0  0  0
  139.7460   69.0330  225.4460 N   0  0  0  0  0  0  0  0  0  0  0  0
  140.4090   69.5180  226.5280 C   0  0  0  0  0  0  0  0  0  0  0  0
  140.5285   68.8932  227.4254 H   0  0  0  0  0  0  0  0  0  0  0  0
  140.9380   70.8080  226.5010 C   0  0  0  0  0  0  0  0  0  0  0  0
  141.4727   71.2078  227.3752 H   0  0  0  0  0  0  0  0  0  0  0  0
  140.7820   71.5860  225.3540 C   0  0  0  0  0  0  0  0  0  0  0  0
  141.1891   72.6075  225.3271 H   0  0  0  0  0  0  0  0  0  0  0  0
  1  2  1  0
  2  3  2  0
  3  4  1  0
  3  5  1  0
  5  6  2  0
  6  7  1  0
  7  8  2  0
  8  9  1  0
  8 10  1  0
 10 11  1  0
 10 12  2  0
 12 13  1  0
 12 14  1  0
 14 15  1  0
 14 16  2  0
 16 17  1  0
 17 18  2  0
 17 19  1  0
 19 20  1  0
 20 21  1  0
 20 22  1  0
 20 23  1  0
 23 24  1  0
 23 25  1  0
 25 26  1  0
 25 27  1  0
 25 28  1  0
 28 29  1  0
 28 30  1  0
 28 31  1  0
 31 32  1  0
 31 33  1  0
 33 34  1  0
 33 35  1  0
 33 36  1  0
 36 37  1  0
 36 38  1  0
  2 39  1  0
 39 40  2  0
 40 41  1  0
 40 42  1  0
 42 43  2  0
 43 44  1  0
 43 45  1  0
 45 46  1  0
 45 47  2  0
 47 48  1  0
 19  5  1  0
 36 23  1  0
 47 39  1  0
 16  7  1  0
M  END
>  <UniqueID>  (48) 
501

>  <SMILES>  (48) 
O=c1c2ccccc2nc(/C=C/c2cccnc2)n1CC1CCNCC1

>  <Energy>  (48) 
71.1307890626311

>  <Genealogy>  (48) 
O=c1c2ccccc2nc(/C=C/c2cccnc2)n1CC1CCNCC1 (cis-trans isomerization)
O=c1c2ccccc2nc(/C=C/c2cccnc2)n1CC1CCNCC1 (3D coordinates assigned)
O=c1c2ccccc2nc(/C=C/c2cccnc2)n1CC1CCNCC1 (nonaromatic ring conformer: 71.1307890626311 kcal/mol)

>  <smiles>  (48) 
O=c1c2ccccc2nc(/C=C/c2cccnc2)n1CC1CCNCC1

>  <score_type>  (48) 
oracle

>  <origin>  (48) 
autodockgpu

>  <m_score__min__energy>  (48) 
-8

>  <m_primary>  (48) 
energy

>  <meeko>  (48) 
{"free_energy": -7.91, "intermolecular_energy": -9.4, "internal_energy": -1.2, "cluster_size": 10, "cluster_id": 1, "rank_in_cluster": 5}

>  <energy>  (48) 
-7.9

>  <cluster_rmsd>  (48) 
0.28

>  <rmsd>  (48) 
270.19

>  <cluster>  (48) 
1

$$$$
ACXZVNHFWDZWKJ-BQYQJAHWNA-N
     RDKit          3D

 48 51  0  0  0  0  0  0  0  0999 V2000
  142.2698   74.6326  217.5713 H   0  0  0  0  0  0  0  0  0  0  0  0
  142.9190   75.2100  218.2460 C   0  0  0  0  0  0  0  0  0  0  0  0
  142.6310   76.5030  218.4360 C   0  0  0  0  0  0  0  0  0  0  0  0
  142.9924   77.2486  217.7125 H   0  0  0  0  0  0  0  0  0  0  0  0
  141.8390   76.9460  219.5960 C   0  0  0  0  0  0  0  0  0  0  0  0
  142.4590   77.7740  220.4740 N   0  0  0  0  0  0  0  0  0  0  0  0
  141.8170   78.2910  221.5450 C   0  0  0  0  0  0  0  0  0  0  0  0
  142.4960   79.1390  222.4270 C   0  0  0  0  0  0  0  0  0  0  0  0
  143.5589   79.3683  222.2605 H   0  0  0  0  0  0  0  0  0  0  0  0
  141.8240   79.6950  223.5200 C   0  0  0  0  0  0  0  0  0  0  0  0
  142.3593   80.3594  224.2143 H   0  0  0  0  0  0  0  0  0  0  0  0
  140.4720   79.4070  223.7310 C   0  0  0  0  0  0  0  0  0  0  0  0
  139.9447   79.8469  224.5903 H   0  0  0  0  0  0  0  0  0  0  0  0
  139.7890   78.5610  222.8520 C   0  0  0  0  0  0  0  0  0  0  0  0
  138.7252   78.3377  223.0207 H   0  0  0  0  0  0  0  0  0  0  0  0
  140.4600   77.9940  221.7510 C   0  0  0  0  0  0  0  0  0  0  0  0
  139.8240   77.1270  220.8470 C   0  0  0  0  0  0  0  0  0  0  0  0
  138.5970   76.8740  220.9980 O   0  0  0  0  0  0  0  0  0  0  0  0
  140.5310   76.5540  219.8110 N   0  0  0  0  0  0  0  0  0  0  0  0
  139.8590   75.5620  218.9330 C   0  0  0  0  0  0  0  0  0  0  0  0
  138.8382   75.9201  218.7336 H   0  0  0  0  0  0  0  0  0  0  0  0
  140.4808   75.4830  218.0291 H   0  0  0  0  0  0  0  0  0  0  0  0
  139.7590   74.1210  219.5170 C   0  0  0  0  0  0  0  0  0  0  0  0
  139.7612   73.5106  218.6019 H   0  0  0  0  0  0  0  0  0  0  0  0
  140.9880   73.6580  220.3340 C   0  0  0  0  0  0  0  0  0  0  0  0
  141.1086   72.5729  220.1999 H   0  0  0  0  0  0  0  0  0  0  0  0
  141.8583   74.2189  219.9625 H   0  0  0  0  0  0  0  0  0  0  0  0
  140.8610   73.9530  221.8340 C   0  0  0  0  0  0  0  0  0  0  0  0
  141.7091   73.4971  222.3659 H   0  0  0  0  0  0  0  0  0  0  0  0
  140.8615   75.0427  221.9841 H   0  0  0  0  0  0  0  0  0  0  0  0
  139.6090   73.4020  222.3600 N   0  0  0  0  0  0  0  0  0  0  0  0
  139.5790   73.6070  223.3860 H   0  0  0  0  0  0  0  0  0  0  0  0
  138.4660   74.0770  221.7380 C   0  0  0  0  0  0  0  0  0  0  0  0
  137.5358   73.7138  222.1993 H   0  0  0  0  0  0  0  0  0  0  0  0
  138.5659   75.1617  221.8913 H   0  0  0  0  0  0  0  0  0  0  0  0
  138.4290   73.7890  220.2320 C   0  0  0  0  0  0  0  0  0  0  0  0
  138.2100   72.7210  220.0853 H   0  0  0  0  0  0  0  0  0  0  0  0
  137.6522   74.4332  219.7943 H   0  0  0  0  0  0  0  0  0  0  0  0
  144.0570   74.5040  218.8860 C   0  0  0  0  0  0  0  0  0  0  0  0
  144.8840   73.5920  218.1990 C   0  0  0  0  0  0  0  0  0  0  0  0
  144.7000   73.3790  217.1356 H   0  0  0  0  0  0  0  0  0  0  0  0
  145.9080   72.9750  218.8460 N   0  0  0  0  0  0  0  0  0  0  0  0
  146.1710   73.2060  220.1590 C   0  0  0  0  0  0  0  0  0  0  0  0
  147.0126   72.6950  220.6494 H   0  0  0  0  0  0  0  0  0  0  0  0
  145.3740   74.0910  220.8850 C   0  0  0  0  0  0  0  0  0  0  0  0
  145.5786   74.2785  221.9494 H   0  0  0  0  0  0  0  0  0  0  0  0
  144.3140   74.7360  220.2460 C   0  0  0  0  0  0  0  0  0  0  0  0
  143.6759   75.4306  220.8120 H   0  0  0  0  0  0  0  0  0  0  0  0
  1  2  1  0
  2  3  2  0
  3  4  1  0
  3  5  1  0
  5  6  2  0
  6  7  1  0
  7  8  2  0
  8  9  1  0
  8 10  1  0
 10 11  1  0
 10 12  2  0
 12 13  1  0
 12 14  1  0
 14 15  1  0
 14 16  2  0
 16 17  1  0
 17 18  2  0
 17 19  1  0
 19 20  1  0
 20 21  1  0
 20 22  1  0
 20 23  1  0
 23 24  1  0
 23 25  1  0
 25 26  1  0
 25 27  1  0
 25 28  1  0
 28 29  1  0
 28 30  1  0
 28 31  1  0
 31 32  1  0
 31 33  1  0
 33 34  1  0
 33 35  1  0
 33 36  1  0
 36 37  1  0
 36 38  1  0
  2 39  1  0
 39 40  2  0
 40 41  1  0
 40 42  1  0
 42 43  2  0
 43 44  1  0
 43 45  1  0
 45 46  1  0
 45 47  2  0
 47 48  1  0
 19  5  1  0
 36 23  1  0
 47 39  1  0
 16  7  1  0
M  END
>  <UniqueID>  (49) 
501

>  <SMILES>  (49) 
O=c1c2ccccc2nc(/C=C/c2cccnc2)n1CC1CCNCC1

>  <Energy>  (49) 
71.1307890626311

>  <Genealogy>  (49) 
O=c1c2ccccc2nc(/C=C/c2cccnc2)n1CC1CCNCC1 (cis-trans isomerization)
O=c1c2ccccc2nc(/C=C/c2cccnc2)n1CC1CCNCC1 (3D coordinates assigned)
O=c1c2ccccc2nc(/C=C/c2cccnc2)n1CC1CCNCC1 (nonaromatic ring conformer: 71.1307890626311 kcal/mol)

>  <smiles>  (49) 
O=c1c2ccccc2nc(/C=C/c2cccnc2)n1CC1CCNCC1

>  <score_type>  (49) 
oracle

>  <origin>  (49) 
autodockgpu

>  <m_score__min__energy>  (49) 
-8

>  <m_primary>  (49) 
energy

>  <meeko>  (49) 
{"free_energy": -6.4, "intermolecular_energy": -7.89, "internal_energy": -1.75, "cluster_size": 1, "cluster_id": 4, "rank_in_cluster": 1}

>  <energy>  (49) 
-7.88

>  <cluster_rmsd>  (49) 
0.29

>  <rmsd>  (49) 
270.17

>  <cluster>  (49) 
1

$$$$
ACXZVNHFWDZWKJ-BQYQJAHWNA-N
     RDKit          3D

 48 51  0  0  0  0  0  0  0  0999 V2000
  139.0192   72.3988  222.8598 H   0  0  0  0  0  0  0  0  0  0  0  0
  139.9730   71.8730  223.0140 C   0  0  0  0  0  0  0  0  0  0  0  0
  140.9200   72.0090  222.0790 C   0  0  0  0  0  0  0  0  0  0  0  0
  141.4992   71.1282  221.7646 H   0  0  0  0  0  0  0  0  0  0  0  0
  141.2010   73.3170  221.4630 C   0  0  0  0  0  0  0  0  0  0  0  0
  140.6970   74.4060  222.0960 N   0  0  0  0  0  0  0  0  0  0  0  0
  140.9370   75.6630  221.6580 C   0  0  0  0  0  0  0  0  0  0  0  0
  140.3960   76.7580  222.3400 C   0  0  0  0  0  0  0  0  0  0  0  0
  139.7579   76.5962  223.2213 H   0  0  0  0  0  0  0  0  0  0  0  0
  140.6660   78.0580  221.9020 C   0  0  0  0  0  0  0  0  0  0  0  0
  140.2384   78.9184  222.4375 H   0  0  0  0  0  0  0  0  0  0  0  0
  141.4790   78.2650  220.7840 C   0  0  0  0  0  0  0  0  0  0  0  0
  141.6904   79.2887  220.4416 H   0  0  0  0  0  0  0  0  0  0  0  0
  142.0240   77.1750  220.1000 C   0  0  0  0  0  0  0  0  0  0  0  0
  142.6655   77.3424  219.2223 H   0  0  0  0  0  0  0  0  0  0  0  0
  141.7530   75.8620  220.5330 C   0  0  0  0  0  0  0  0  0  0  0  0
  142.2630   74.7310  219.8730 C   0  0  0  0  0  0  0  0  0  0  0  0
  143.0240   74.8920  218.8780 O   0  0  0  0  0  0  0  0  0  0  0  0
  141.9330   73.4620  220.2990 N   0  0  0  0  0  0  0  0  0  0  0  0
  142.4010   72.2880  219.5210 C   0  0  0  0  0  0  0  0  0  0  0  0
  141.7214   71.4486  219.7297 H   0  0  0  0  0  0  0  0  0  0  0  0
  142.4016   72.6012  218.4665 H   0  0  0  0  0  0  0  0  0  0  0  0
  143.8540   71.8210  219.8340 C   0  0  0  0  0  0  0  0  0  0  0  0
  143.6774   70.8249  220.2659 H   0  0  0  0  0  0  0  0  0  0  0  0
  144.7500   71.5890  218.5950 C   0  0  0  0  0  0  0  0  0  0  0  0
  145.4535   70.7739  218.8200 H   0  0  0  0  0  0  0  0  0  0  0  0
  144.0864   71.3414  217.7534 H   0  0  0  0  0  0  0  0  0  0  0  0
  145.5550   72.8300  218.1910 C   0  0  0  0  0  0  0  0  0  0  0  0
  146.2514   72.5627  217.3825 H   0  0  0  0  0  0  0  0  0  0  0  0
  144.8592   73.6102  217.8487 H   0  0  0  0  0  0  0  0  0  0  0  0
  146.3160   73.3410  219.3340 N   0  0  0  0  0  0  0  0  0  0  0  0
  146.8650   74.1690  219.0060 H   0  0  0  0  0  0  0  0  0  0  0  0
  145.3990   73.8020  220.3810 C   0  0  0  0  0  0  0  0  0  0  0  0
  145.9799   74.2561  221.1973 H   0  0  0  0  0  0  0  0  0  0  0  0
  144.7093   74.5428  219.9503 H   0  0  0  0  0  0  0  0  0  0  0  0
  144.5840   72.6260  220.9340 C   0  0  0  0  0  0  0  0  0  0  0  0
  145.2660   71.9486  221.4687 H   0  0  0  0  0  0  0  0  0  0  0  0
  143.8139   73.0453  221.5982 H   0  0  0  0  0  0  0  0  0  0  0  0
  140.1250   71.0590  224.2460 C   0  0  0  0  0  0  0  0  0  0  0  0
  139.5350   69.7890  224.4090 C   0  0  0  0  0  0  0  0  0  0  0  0
  138.9314   69.3564  223.5975 H   0  0  0  0  0  0  0  0  0  0  0  0
  139.7100   69.0970  225.5670 N   0  0  0  0  0  0  0  0  0  0  0  0
  140.4450   69.5930  226.5960 C   0  0  0  0  0  0  0  0  0  0  0  0
  140.5724   69.0028  227.5154 H   0  0  0  0  0  0  0  0  0  0  0  0
  141.0380   70.8500  226.4870 C   0  0  0  0  0  0  0  0  0  0  0  0
  141.6298   71.2592  227.3190 H   0  0  0  0  0  0  0  0  0  0  0  0
  140.8730   71.5840  225.3110 C   0  0  0  0  0  0  0  0  0  0  0  0
  141.3319   72.5794  225.2187 H   0  0  0  0  0  0  0  0  0  0  0  0
  1  2  1  0
  2  3  2  0
  3  4  1  0
  3  5  1  0
  5  6  2  0
  6  7  1  0
  7  8  2  0
  8  9  1  0
  8 10  1  0
 10 11  1  0
 10 12  2  0
 12 13  1  0
 12 14  1  0
 14 15  1  0
 14 16  2  0
 16 17  1  0
 17 18  2  0
 17 19  1  0
 19 20  1  0
 20 21  1  0
 20 22  1  0
 20 23  1  0
 23 24  1  0
 23 25  1  0
 25 26  1  0
 25 27  1  0
 25 28  1  0
 28 29  1  0
 28 30  1  0
 28 31  1  0
 31 32  1  0
 31 33  1  0
 33 34  1  0
 33 35  1  0
 33 36  1  0
 36 37  1  0
 36 38  1  0
  2 39  1  0
 39 40  2  0
 40 41  1  0
 40 42  1  0
 42 43  2  0
 43 44  1  0
 43 45  1  0
 45 46  1  0
 45 47  2  0
 47 48  1  0
 19  5  1  0
 36 23  1  0
 47 39  1  0
 16  7  1  0
M  END
>  <UniqueID>  (50) 
501

>  <SMILES>  (50) 
O=c1c2ccccc2nc(/C=C/c2cccnc2)n1CC1CCNCC1

>  <Energy>  (50) 
71.1307890626311

>  <Genealogy>  (50) 
O=c1c2ccccc2nc(/C=C/c2cccnc2)n1CC1CCNCC1 (cis-trans isomerization)
O=c1c2ccccc2nc(/C=C/c2cccnc2)n1CC1CCNCC1 (3D coordinates assigned)
O=c1c2ccccc2nc(/C=C/c2cccnc2)n1CC1CCNCC1 (nonaromatic ring conformer: 71.1307890626311 kcal/mol)

>  <smiles>  (50) 
O=c1c2ccccc2nc(/C=C/c2cccnc2)n1CC1CCNCC1

>  <score_type>  (50) 
oracle

>  <origin>  (50) 
autodockgpu

>  <m_score__min__energy>  (50) 
-8

>  <m_primary>  (50) 
energy

>  <meeko>  (50) 
{"free_energy": -7.88, "intermolecular_energy": -9.37, "internal_energy": -1.21, "cluster_size": 10, "cluster_id": 1, "rank_in_cluster": 9}

>  <energy>  (50) 
-7.42

>  <cluster_rmsd>  (50) 
0.62

>  <rmsd>  (50) 
270.11

>  <cluster>  (50) 
1

$$$$
ACXZVNHFWDZWKJ-BQYQJAHWNA-N
     RDKit          3D

 48 51  0  0  0  0  0  0  0  0999 V2000
  141.2745   70.8447  220.8228 H   0  0  0  0  0  0  0  0  0  0  0  0
  140.5380   71.4250  221.3980 C   0  0  0  0  0  0  0  0  0  0  0  0
  139.5610   70.7540  222.0210 C   0  0  0  0  0  0  0  0  0  0  0  0
  138.6375   70.5123  221.4745 H   0  0  0  0  0  0  0  0  0  0  0  0
  139.7020   70.3340  223.4260 C   0  0  0  0  0  0  0  0  0  0  0  0
  140.2840   71.2220  224.2690 N   0  0  0  0  0  0  0  0  0  0  0  0
  140.4160   70.9730  225.5910 C   0  0  0  0  0  0  0  0  0  0  0  0
  141.0250   71.9160  226.4260 C   0  0  0  0  0  0  0  0  0  0  0  0
  141.4159   72.8533  226.0033 H   0  0  0  0  0  0  0  0  0  0  0  0
  141.1370   71.6680  227.7970 C   0  0  0  0  0  0  0  0  0  0  0  0
  141.6187   72.4092  228.4517 H   0  0  0  0  0  0  0  0  0  0  0  0
  140.6380   70.4800  228.3370 C   0  0  0  0  0  0  0  0  0  0  0  0
  140.7268   70.2884  229.4165 H   0  0  0  0  0  0  0  0  0  0  0  0
  140.0260   69.5340  227.5090 C   0  0  0  0  0  0  0  0  0  0  0  0
  139.6322   68.6011  227.9386 H   0  0  0  0  0  0  0  0  0  0  0  0
  139.9130   69.7740  226.1250 C   0  0  0  0  0  0  0  0  0  0  0  0
  139.3220   68.8520  225.2460 C   0  0  0  0  0  0  0  0  0  0  0  0
  138.8370   67.7830  225.7130 O   0  0  0  0  0  0  0  0  0  0  0  0
  139.2760   69.1040  223.8920 N   0  0  0  0  0  0  0  0  0  0  0  0
  138.7390   68.0660  222.9760 C   0  0  0  0  0  0  0  0  0  0  0  0
  139.2673   68.1539  222.0152 H   0  0  0  0  0  0  0  0  0  0  0  0
  138.9004   67.1015  223.4798 H   0  0  0  0  0  0  0  0  0  0  0  0
  137.2100   68.1560  222.6950 C   0  0  0  0  0  0  0  0  0  0  0  0
  136.8784   67.1381  222.9479 H   0  0  0  0  0  0  0  0  0  0  0  0
  136.4250   69.0990  223.6350 C   0  0  0  0  0  0  0  0  0  0  0  0
  135.4124   68.6919  223.7725 H   0  0  0  0  0  0  0  0  0  0  0  0
  136.9811   69.1529  224.5825 H   0  0  0  0  0  0  0  0  0  0  0  0
  136.3060   70.5290  223.0950 C   0  0  0  0  0  0  0  0  0  0  0  0
  135.6420   71.1102  223.7517 H   0  0  0  0  0  0  0  0  0  0  0  0
  137.3068   70.9849  223.0697 H   0  0  0  0  0  0  0  0  0  0  0  0
  135.7540   70.5190  221.7370 N   0  0  0  0  0  0  0  0  0  0  0  0
  135.6700   71.5130  221.4220 H   0  0  0  0  0  0  0  0  0  0  0  0
  136.6800   69.8400  220.8260 C   0  0  0  0  0  0  0  0  0  0  0  0
  136.2947   69.9113  219.7982 H   0  0  0  0  0  0  0  0  0  0  0  0
  137.6660   70.3228  220.8946 H   0  0  0  0  0  0  0  0  0  0  0  0
  136.8220   68.3620  221.2110 C   0  0  0  0  0  0  0  0  0  0  0  0
  135.8615   67.8584  221.0271 H   0  0  0  0  0  0  0  0  0  0  0  0
  137.6322   67.9398  220.5984 H   0  0  0  0  0  0  0  0  0  0  0  0
  140.6920   72.9010  221.4330 C   0  0  0  0  0  0  0  0  0  0  0  0
  139.7400   73.7620  222.0150 C   0  0  0  0  0  0  0  0  0  0  0  0
  138.8324   73.3442  222.4751 H   0  0  0  0  0  0  0  0  0  0  0  0
  139.9390   75.1070  222.0100 N   0  0  0  0  0  0  0  0  0  0  0  0
  141.0430   75.6660  221.4500 C   0  0  0  0  0  0  0  0  0  0  0  0
  141.1757   76.7578  221.4684 H   0  0  0  0  0  0  0  0  0  0  0  0
  142.0080   74.8570  220.8520 C   0  0  0  0  0  0  0  0  0  0  0  0
  142.9020   75.3048  220.3936 H   0  0  0  0  0  0  0  0  0  0  0  0
  141.8280   73.4730  220.8410 C   0  0  0  0  0  0  0  0  0  0  0  0
  142.5810   72.8272  220.3656 H   0  0  0  0  0  0  0  0  0  0  0  0
  1  2  1  0
  2  3  2  0
  3  4  1  0
  3  5  1  0
  5  6  2  0
  6  7  1  0
  7  8  2  0
  8  9  1  0
  8 10  1  0
 10 11  1  0
 10 12  2  0
 12 13  1  0
 12 14  1  0
 14 15  1  0
 14 16  2  0
 16 17  1  0
 17 18  2  0
 17 19  1  0
 19 20  1  0
 20 21  1  0
 20 22  1  0
 20 23  1  0
 23 24  1  0
 23 25  1  0
 25 26  1  0
 25 27  1  0
 25 28  1  0
 28 29  1  0
 28 30  1  0
 28 31  1  0
 31 32  1  0
 31 33  1  0
 33 34  1  0
 33 35  1  0
 33 36  1  0
 36 37  1  0
 36 38  1  0
  2 39  1  0
 39 40  2  0
 40 41  1  0
 40 42  1  0
 42 43  2  0
 43 44  1  0
 43 45  1  0
 45 46  1  0
 45 47  2  0
 47 48  1  0
 19  5  1  0
 36 23  1  0
 47 39  1  0
 16  7  1  0
M  END
>  <UniqueID>  (51) 
501

>  <SMILES>  (51) 
O=c1c2ccccc2nc(/C=C/c2cccnc2)n1CC1CCNCC1

>  <Energy>  (51) 
71.1307890626311

>  <Genealogy>  (51) 
O=c1c2ccccc2nc(/C=C/c2cccnc2)n1CC1CCNCC1 (cis-trans isomerization)
O=c1c2ccccc2nc(/C=C/c2cccnc2)n1CC1CCNCC1 (3D coordinates assigned)
O=c1c2ccccc2nc(/C=C/c2cccnc2)n1CC1CCNCC1 (nonaromatic ring conformer: 71.1307890626311 kcal/mol)

>  <smiles>  (51) 
O=c1c2ccccc2nc(/C=C/c2cccnc2)n1CC1CCNCC1

>  <score_type>  (51) 
oracle

>  <origin>  (51) 
autodockgpu

>  <m_score__min__energy>  (51) 
-8

>  <m_primary>  (51) 
energy

>  <meeko>  (51) 
{"free_energy": -6.95, "intermolecular_energy": -8.44, "internal_energy": -1.46, "cluster_size": 6, "cluster_id": 2, "rank_in_cluster": 2}

>  <energy>  (51) 
-7.01

>  <cluster_rmsd>  (51) 
0.0

>  <rmsd>  (51) 
269.65

>  <cluster>  (51) 
2

$$$$
ACXZVNHFWDZWKJ-BQYQJAHWNA-N
     RDKit          3D

 48 51  0  0  0  0  0  0  0  0999 V2000
  138.8163   77.9131  223.9558 H   0  0  0  0  0  0  0  0  0  0  0  0
  139.4260   78.1560  223.0730 C   0  0  0  0  0  0  0  0  0  0  0  0
  139.2630   77.4080  221.9750 C   0  0  0  0  0  0  0  0  0  0  0  0
  138.3769   77.5629  221.3420 H   0  0  0  0  0  0  0  0  0  0  0  0
  140.2500   76.3810  221.6000 C   0  0  0  0  0  0  0  0  0  0  0  0
  139.9570   75.1030  221.9490 N   0  0  0  0  0  0  0  0  0  0  0  0
  140.7580   74.0680  221.6090 C   0  0  0  0  0  0  0  0  0  0  0  0
  140.4200   72.7650  221.9920 C   0  0  0  0  0  0  0  0  0  0  0  0
  139.5134   72.5850  222.5884 H   0  0  0  0  0  0  0  0  0  0  0  0
  141.2340   71.6920  221.6170 C   0  0  0  0  0  0  0  0  0  0  0  0
  140.9685   70.6685  221.9202 H   0  0  0  0  0  0  0  0  0  0  0  0
  142.3850   71.9190  220.8570 C   0  0  0  0  0  0  0  0  0  0  0  0
  143.0235   71.0730  220.5626 H   0  0  0  0  0  0  0  0  0  0  0  0
  142.7270   73.2180  220.4700 C   0  0  0  0  0  0  0  0  0  0  0  0
  143.6321   73.3918  219.8695 H   0  0  0  0  0  0  0  0  0  0  0  0
  141.9140   74.3050  220.8480 C   0  0  0  0  0  0  0  0  0  0  0  0
  142.2200   75.6310  220.4990 C   0  0  0  0  0  0  0  0  0  0  0  0
  143.2380   75.8600  219.7880 O   0  0  0  0  0  0  0  0  0  0  0  0
  141.4240   76.6710  220.9300 N   0  0  0  0  0  0  0  0  0  0  0  0
  141.8290   78.0680  220.6340 C   0  0  0  0  0  0  0  0  0  0  0  0
  141.6090   78.6812  221.5203 H   0  0  0  0  0  0  0  0  0  0  0  0
  142.8989   78.0288  220.3815 H   0  0  0  0  0  0  0  0  0  0  0  0
  141.1190   78.7190  219.4090 C   0  0  0  0  0  0  0  0  0  0  0  0
  140.0596   78.6171  219.6870 H   0  0  0  0  0  0  0  0  0  0  0  0
  141.3650   80.2360  219.2390 C   0  0  0  0  0  0  0  0  0  0  0  0
  140.4649   80.6890  218.7979 H   0  0  0  0  0  0  0  0  0  0  0  0
  141.5871   80.6450  220.2357 H   0  0  0  0  0  0  0  0  0  0  0  0
  142.5640   80.5560  218.3370 C   0  0  0  0  0  0  0  0  0  0  0  0
  142.6098   81.6418  218.1669 H   0  0  0  0  0  0  0  0  0  0  0  0
  143.4842   80.2114  218.8315 H   0  0  0  0  0  0  0  0  0  0  0  0
  142.4320   79.8710  217.0490 N   0  0  0  0  0  0  0  0  0  0  0  0
  143.2570   80.1370  216.4620 H   0  0  0  0  0  0  0  0  0  0  0  0
  142.4780   78.4190  217.2470 C   0  0  0  0  0  0  0  0  0  0  0  0
  142.4604   77.9188  216.2675 H   0  0  0  0  0  0  0  0  0  0  0  0
  143.4015   78.1612  217.7862 H   0  0  0  0  0  0  0  0  0  0  0  0
  141.2720   77.9540  218.0740 C   0  0  0  0  0  0  0  0  0  0  0  0
  140.3599   78.1048  217.4779 H   0  0  0  0  0  0  0  0  0  0  0  0
  141.4332   76.8942  218.3206 H   0  0  0  0  0  0  0  0  0  0  0  0
  140.3760   79.2920  223.1770 C   0  0  0  0  0  0  0  0  0  0  0  0
  140.0790   80.5910  222.7150 C   0  0  0  0  0  0  0  0  0  0  0  0
  139.1016   80.7989  222.2550 H   0  0  0  0  0  0  0  0  0  0  0  0
  140.9960   81.5870  222.8360 N   0  0  0  0  0  0  0  0  0  0  0  0
  142.2160   81.3750  223.3950 C   0  0  0  0  0  0  0  0  0  0  0  0
  142.9320   82.2054  223.4831 H   0  0  0  0  0  0  0  0  0  0  0  0
  142.5610   80.1060  223.8570 C   0  0  0  0  0  0  0  0  0  0  0  0
  143.5489   79.9278  224.3067 H   0  0  0  0  0  0  0  0  0  0  0  0
  141.6400   79.0640  223.7430 C   0  0  0  0  0  0  0  0  0  0  0  0
  141.9062   78.0578  224.0989 H   0  0  0  0  0  0  0  0  0  0  0  0
  1  2  1  0
  2  3  2  0
  3  4  1  0
  3  5  1  0
  5  6  2  0
  6  7  1  0
  7  8  2  0
  8  9  1  0
  8 10  1  0
 10 11  1  0
 10 12  2  0
 12 13  1  0
 12 14  1  0
 14 15  1  0
 14 16  2  0
 16 17  1  0
 17 18  2  0
 17 19  1  0
 19 20  1  0
 20 21  1  0
 20 22  1  0
 20 23  1  0
 23 24  1  0
 23 25  1  0
 25 26  1  0
 25 27  1  0
 25 28  1  0
 28 29  1  0
 28 30  1  0
 28 31  1  0
 31 32  1  0
 31 33  1  0
 33 34  1  0
 33 35  1  0
 33 36  1  0
 36 37  1  0
 36 38  1  0
  2 39  1  0
 39 40  2  0
 40 41  1  0
 40 42  1  0
 42 43  2  0
 43 44  1  0
 43 45  1  0
 45 46  1  0
 45 47  2  0
 47 48  1  0
 19  5  1  0
 36 23  1  0
 47 39  1  0
 16  7  1  0
M  END
>  <UniqueID>  (52) 
501

>  <SMILES>  (52) 
O=c1c2ccccc2nc(/C=C/c2cccnc2)n1CC1CCNCC1

>  <Energy>  (52) 
71.1307890626311

>  <Genealogy>  (52) 
O=c1c2ccccc2nc(/C=C/c2cccnc2)n1CC1CCNCC1 (cis-trans isomerization)
O=c1c2ccccc2nc(/C=C/c2cccnc2)n1CC1CCNCC1 (3D coordinates assigned)
O=c1c2ccccc2nc(/C=C/c2cccnc2)n1CC1CCNCC1 (nonaromatic ring conformer: 71.1307890626311 kcal/mol)

>  <smiles>  (52) 
O=c1c2ccccc2nc(/C=C/c2cccnc2)n1CC1CCNCC1

>  <score_type>  (52) 
oracle

>  <origin>  (52) 
autodockgpu

>  <m_score__min__energy>  (52) 
-8

>  <m_primary>  (52) 
energy

>  <meeko>  (52) 
{"free_energy": -6.8, "intermolecular_energy": -8.3, "internal_energy": -1.55, "cluster_size": 2, "cluster_id": 3, "rank_in_cluster": 2}

>  <energy>  (52) 
-6.95

>  <cluster_rmsd>  (52) 
1.42

>  <rmsd>  (52) 
269.53

>  <cluster>  (52) 
2

$$$$
ACXZVNHFWDZWKJ-BQYQJAHWNA-N
     RDKit          3D

 48 51  0  0  0  0  0  0  0  0999 V2000
  139.1200   72.6648  223.1492 H   0  0  0  0  0  0  0  0  0  0  0  0
  139.9790   71.9780  223.1300 C   0  0  0  0  0  0  0  0  0  0  0  0
  140.7960   72.0280  222.0720 C   0  0  0  0  0  0  0  0  0  0  0  0
  141.2057   71.0935  221.6612 H   0  0  0  0  0  0  0  0  0  0  0  0
  141.1570   73.3130  221.4470 C   0  0  0  0  0  0  0  0  0  0  0  0
  140.7030   74.4340  222.0610 N   0  0  0  0  0  0  0  0  0  0  0  0
  141.0160   75.6710  221.6140 C   0  0  0  0  0  0  0  0  0  0  0  0
  140.5240   76.8010  222.2770 C   0  0  0  0  0  0  0  0  0  0  0  0
  139.8649   76.6836  223.1498 H   0  0  0  0  0  0  0  0  0  0  0  0
  140.8710   78.0800  221.8290 C   0  0  0  0  0  0  0  0  0  0  0  0
  140.4823   78.9682  222.3486 H   0  0  0  0  0  0  0  0  0  0  0  0
  141.7110   78.2310  220.7220 C   0  0  0  0  0  0  0  0  0  0  0  0
  141.9833   79.2381  220.3732 H   0  0  0  0  0  0  0  0  0  0  0  0
  142.2060   77.1050  220.0570 C   0  0  0  0  0  0  0  0  0  0  0  0
  142.8677   77.2280  219.1870 H   0  0  0  0  0  0  0  0  0  0  0  0
  141.8590   75.8140  220.4990 C   0  0  0  0  0  0  0  0  0  0  0  0
  142.3160   74.6500  219.8590 C   0  0  0  0  0  0  0  0  0  0  0  0
  143.1000   74.7580  218.8750 O   0  0  0  0  0  0  0  0  0  0  0  0
  141.9120   73.4050  220.2930 N   0  0  0  0  0  0  0  0  0  0  0  0
  142.3280   72.1990  219.5340 C   0  0  0  0  0  0  0  0  0  0  0  0
  141.6540   71.3744  219.8094 H   0  0  0  0  0  0  0  0  0  0  0  0
  142.2741   72.4743  218.4704 H   0  0  0  0  0  0  0  0  0  0  0  0
  143.7920   71.7290  219.7850 C   0  0  0  0  0  0  0  0  0  0  0  0
  143.6342   70.7098  220.1676 H   0  0  0  0  0  0  0  0  0  0  0  0
  144.6570   71.5710  218.5140 C   0  0  0  0  0  0  0  0  0  0  0  0
  145.3723   70.7515  218.6776 H   0  0  0  0  0  0  0  0  0  0  0  0
  143.9738   71.3624  217.6775 H   0  0  0  0  0  0  0  0  0  0  0  0
  145.4420   72.8390  218.1560 C   0  0  0  0  0  0  0  0  0  0  0  0
  146.1198   72.6209  217.3175 H   0  0  0  0  0  0  0  0  0  0  0  0
  144.7319   73.6298  217.8726 H   0  0  0  0  0  0  0  0  0  0  0  0
  146.2280   73.2960  219.3060 N   0  0  0  0  0  0  0  0  0  0  0  0
  146.7620   74.1450  219.0080 H   0  0  0  0  0  0  0  0  0  0  0  0
  145.3350   73.6920  220.3980 C   0  0  0  0  0  0  0  0  0  0  0  0
  145.9329   74.1077  221.2225 H   0  0  0  0  0  0  0  0  0  0  0  0
  144.6285   74.4480  220.0247 H   0  0  0  0  0  0  0  0  0  0  0  0
  144.5440   72.4810  220.9080 C   0  0  0  0  0  0  0  0  0  0  0  0
  145.2449   71.7824  221.3882 H   0  0  0  0  0  0  0  0  0  0  0  0
  143.7882   72.8571  221.6132 H   0  0  0  0  0  0  0  0  0  0  0  0
  140.1560   71.0560  224.2800 C   0  0  0  0  0  0  0  0  0  0  0  0
  139.6070   69.7580  224.3190 C   0  0  0  0  0  0  0  0  0  0  0  0
  139.0188   69.3860  223.4672 H   0  0  0  0  0  0  0  0  0  0  0  0
  139.8020   68.9640  225.4060 N   0  0  0  0  0  0  0  0  0  0  0  0
  140.5190   69.3840  226.4810 C   0  0  0  0  0  0  0  0  0  0  0  0
  140.6624   68.7142  227.3417 H   0  0  0  0  0  0  0  0  0  0  0  0
  141.0730   70.6630  226.4940 C   0  0  0  0  0  0  0  0  0  0  0  0
  141.6516   71.0091  227.3631 H   0  0  0  0  0  0  0  0  0  0  0  0
  140.8860   71.5000  225.3930 C   0  0  0  0  0  0  0  0  0  0  0  0
  141.3133   72.5136  225.3978 H   0  0  0  0  0  0  0  0  0  0  0  0
  1  2  1  0
  2  3  2  0
  3  4  1  0
  3  5  1  0
  5  6  2  0
  6  7  1  0
  7  8  2  0
  8  9  1  0
  8 10  1  0
 10 11  1  0
 10 12  2  0
 12 13  1  0
 12 14  1  0
 14 15  1  0
 14 16  2  0
 16 17  1  0
 17 18  2  0
 17 19  1  0
 19 20  1  0
 20 21  1  0
 20 22  1  0
 20 23  1  0
 23 24  1  0
 23 25  1  0
 25 26  1  0
 25 27  1  0
 25 28  1  0
 28 29  1  0
 28 30  1  0
 28 31  1  0
 31 32  1  0
 31 33  1  0
 33 34  1  0
 33 35  1  0
 33 36  1  0
 36 37  1  0
 36 38  1  0
  2 39  1  0
 39 40  2  0
 40 41  1  0
 40 42  1  0
 42 43  2  0
 43 44  1  0
 43 45  1  0
 45 46  1  0
 45 47  2  0
 47 48  1  0
 19  5  1  0
 36 23  1  0
 47 39  1  0
 16  7  1  0
M  END
>  <UniqueID>  (53) 
501

>  <SMILES>  (53) 
O=c1c2ccccc2nc(/C=C/c2cccnc2)n1CC1CCNCC1

>  <Energy>  (53) 
71.1307890626311

>  <Genealogy>  (53) 
O=c1c2ccccc2nc(/C=C/c2cccnc2)n1CC1CCNCC1 (cis-trans isomerization)
O=c1c2ccccc2nc(/C=C/c2cccnc2)n1CC1CCNCC1 (3D coordinates assigned)
O=c1c2ccccc2nc(/C=C/c2cccnc2)n1CC1CCNCC1 (nonaromatic ring conformer: 71.1307890626311 kcal/mol)

>  <smiles>  (53) 
O=c1c2ccccc2nc(/C=C/c2cccnc2)n1CC1CCNCC1

>  <score_type>  (53) 
oracle

>  <origin>  (53) 
autodockgpu

>  <m_score__min__energy>  (53) 
-8

>  <m_primary>  (53) 
energy

>  <meeko>  (53) 
{"free_energy": -7.9, "intermolecular_energy": -9.39, "internal_energy": -1.17, "cluster_size": 10, "cluster_id": 1, "rank_in_cluster": 7}

>  <energy>  (53) 
-6.91

>  <cluster_rmsd>  (53) 
1.44

>  <rmsd>  (53) 
269.55

>  <cluster>  (53) 
2

$$$$
ACXZVNHFWDZWKJ-BQYQJAHWNA-N
     RDKit          3D

 48 51  0  0  0  0  0  0  0  0999 V2000
  143.1506   76.0281  219.3429 H   0  0  0  0  0  0  0  0  0  0  0  0
  142.1010   76.0960  219.6650 C   0  0  0  0  0  0  0  0  0  0  0  0
  141.4280   77.2160  219.3730 C   0  0  0  0  0  0  0  0  0  0  0  0
  141.0735   77.3811  218.3448 H   0  0  0  0  0  0  0  0  0  0  0  0
  141.1540   78.2310  220.4050 C   0  0  0  0  0  0  0  0  0  0  0  0
  142.1930   78.5770  221.2060 N   0  0  0  0  0  0  0  0  0  0  0  0
  142.0790   79.5380  222.1500 C   0  0  0  0  0  0  0  0  0  0  0  0
  143.1760   79.8620  222.9560 C   0  0  0  0  0  0  0  0  0  0  0  0
  144.1260   79.3207  222.8359 H   0  0  0  0  0  0  0  0  0  0  0  0
  143.0640   80.8740  223.9140 C   0  0  0  0  0  0  0  0  0  0  0  0
  143.9258   81.1270  224.5491 H   0  0  0  0  0  0  0  0  0  0  0  0
  141.8580   81.5650  224.0660 C   0  0  0  0  0  0  0  0  0  0  0  0
  141.7731   82.3614  224.8200 H   0  0  0  0  0  0  0  0  0  0  0  0
  140.7600   81.2460  223.2620 C   0  0  0  0  0  0  0  0  0  0  0  0
  139.8136   81.7934  223.3831 H   0  0  0  0  0  0  0  0  0  0  0  0
  140.8630   80.2250  222.2970 C   0  0  0  0  0  0  0  0  0  0  0  0
  139.7860   79.8550  221.4740 C   0  0  0  0  0  0  0  0  0  0  0  0
  138.6950   80.4830  221.5710 O   0  0  0  0  0  0  0  0  0  0  0  0
  139.9140   78.8170  220.5770 N   0  0  0  0  0  0  0  0  0  0  0  0
  138.7300   78.3800  219.7950 C   0  0  0  0  0  0  0  0  0  0  0  0
  138.2967   79.2668  219.3094 H   0  0  0  0  0  0  0  0  0  0  0  0
  139.0957   77.6243  219.0842 H   0  0  0  0  0  0  0  0  0  0  0  0
  137.6070   77.6870  220.6230 C   0  0  0  0  0  0  0  0  0  0  0  0
  136.7417   78.3295  220.4031 H   0  0  0  0  0  0  0  0  0  0  0  0
  137.2150   76.2710  220.1390 C   0  0  0  0  0  0  0  0  0  0  0  0
  136.1441   76.1174  220.3380 H   0  0  0  0  0  0  0  0  0  0  0  0
  137.4475   76.2164  219.0653 H   0  0  0  0  0  0  0  0  0  0  0  0
  138.0050   75.1550  220.8340 C   0  0  0  0  0  0  0  0  0  0  0  0
  137.5974   74.1794  220.5304 H   0  0  0  0  0  0  0  0  0  0  0  0
  139.0625   75.2309  220.5408 H   0  0  0  0  0  0  0  0  0  0  0  0
  137.9050   75.2880  222.2890 N   0  0  0  0  0  0  0  0  0  0  0  0
  138.4370   74.4940  222.7170 H   0  0  0  0  0  0  0  0  0  0  0  0
  138.5410   76.5350  222.7230 C   0  0  0  0  0  0  0  0  0  0  0  0
  138.5322   76.5831  223.8219 H   0  0  0  0  0  0  0  0  0  0  0  0
  139.5764   76.5554  222.3522 H   0  0  0  0  0  0  0  0  0  0  0  0
  137.7860   77.7450  222.1580 C   0  0  0  0  0  0  0  0  0  0  0  0
  136.7909   77.7858  222.6250 H   0  0  0  0  0  0  0  0  0  0  0  0
  138.3847   78.6396  222.3844 H   0  0  0  0  0  0  0  0  0  0  0  0
  141.5230   74.9400  220.3950 C   0  0  0  0  0  0  0  0  0  0  0  0
  141.0070   75.0330  221.7030 C   0  0  0  0  0  0  0  0  0  0  0  0
  141.0177   75.9995  222.2282 H   0  0  0  0  0  0  0  0  0  0  0  0
  140.4960   73.9340  222.3190 N   0  0  0  0  0  0  0  0  0  0  0  0
  140.4640   72.7200  221.7080 C   0  0  0  0  0  0  0  0  0  0  0  0
  140.0369   71.8522  222.2319 H   0  0  0  0  0  0  0  0  0  0  0  0
  140.9720   72.5740  220.4180 C   0  0  0  0  0  0  0  0  0  0  0  0
  140.9529   71.5931  219.9205 H   0  0  0  0  0  0  0  0  0  0  0  0
  141.5050   73.6860  219.7650 C   0  0  0  0  0  0  0  0  0  0  0  0
  141.9139   73.5790  218.7494 H   0  0  0  0  0  0  0  0  0  0  0  0
  1  2  1  0
  2  3  2  0
  3  4  1  0
  3  5  1  0
  5  6  2  0
  6  7  1  0
  7  8  2  0
  8  9  1  0
  8 10  1  0
 10 11  1  0
 10 12  2  0
 12 13  1  0
 12 14  1  0
 14 15  1  0
 14 16  2  0
 16 17  1  0
 17 18  2  0
 17 19  1  0
 19 20  1  0
 20 21  1  0
 20 22  1  0
 20 23  1  0
 23 24  1  0
 23 25  1  0
 25 26  1  0
 25 27  1  0
 25 28  1  0
 28 29  1  0
 28 30  1  0
 28 31  1  0
 31 32  1  0
 31 33  1  0
 33 34  1  0
 33 35  1  0
 33 36  1  0
 36 37  1  0
 36 38  1  0
  2 39  1  0
 39 40  2  0
 40 41  1  0
 40 42  1  0
 42 43  2  0
 43 44  1  0
 43 45  1  0
 45 46  1  0
 45 47  2  0
 47 48  1  0
 19  5  1  0
 36 23  1  0
 47 39  1  0
 16  7  1  0
M  END
>  <UniqueID>  (54) 
501

>  <SMILES>  (54) 
O=c1c2ccccc2nc(/C=C/c2cccnc2)n1CC1CCNCC1

>  <Energy>  (54) 
71.1307890626311

>  <Genealogy>  (54) 
O=c1c2ccccc2nc(/C=C/c2cccnc2)n1CC1CCNCC1 (cis-trans isomerization)
O=c1c2ccccc2nc(/C=C/c2cccnc2)n1CC1CCNCC1 (3D coordinates assigned)
O=c1c2ccccc2nc(/C=C/c2cccnc2)n1CC1CCNCC1 (nonaromatic ring conformer: 71.1307890626311 kcal/mol)

>  <smiles>  (54) 
O=c1c2ccccc2nc(/C=C/c2cccnc2)n1CC1CCNCC1

>  <score_type>  (54) 
oracle

>  <origin>  (54) 
autodockgpu

>  <m_score__min__energy>  (54) 
-8

>  <m_primary>  (54) 
energy

>  <meeko>  (54) 
{"free_energy": -5.6, "intermolecular_energy": -7.1, "internal_energy": -2.29, "cluster_size": 1, "cluster_id": 5, "rank_in_cluster": 1}

>  <energy>  (54) 
-6.89

>  <cluster_rmsd>  (54) 
1.41

>  <rmsd>  (54) 
269.57

>  <cluster>  (54) 
2

$$$$
ACXZVNHFWDZWKJ-BQYQJAHWNA-N
     RDKit          3D

 48 51  0  0  0  0  0  0  0  0999 V2000
  141.5066   70.8305  220.8668 H   0  0  0  0  0  0  0  0  0  0  0  0
  140.7140   71.3710  221.4050 C   0  0  0  0  0  0  0  0  0  0  0  0
  139.7430   70.6500  221.9790 C   0  0  0  0  0  0  0  0  0  0  0  0
  138.8758   70.3367  221.3792 H   0  0  0  0  0  0  0  0  0  0  0  0
  139.8160   70.2690  223.4000 C   0  0  0  0  0  0  0  0  0  0  0  0
  140.3940   71.1650  224.2400 N   0  0  0  0  0  0  0  0  0  0  0  0
  140.4660   70.9520  225.5730 C   0  0  0  0  0  0  0  0  0  0  0  0
  141.0740   71.9020  226.4020 C   0  0  0  0  0  0  0  0  0  0  0  0
  141.5115   72.8126  225.9668 H   0  0  0  0  0  0  0  0  0  0  0  0
  141.1250   71.6930  227.7830 C   0  0  0  0  0  0  0  0  0  0  0  0
  141.6059   72.4381  228.4339 H   0  0  0  0  0  0  0  0  0  0  0  0
  140.5660   70.5390  228.3380 C   0  0  0  0  0  0  0  0  0  0  0  0
  140.6052   70.3791  229.4256 H   0  0  0  0  0  0  0  0  0  0  0  0
  139.9570   69.5870  227.5150 C   0  0  0  0  0  0  0  0  0  0  0  0
  139.5179   68.6799  227.9559 H   0  0  0  0  0  0  0  0  0  0  0  0
  139.9050   69.7880  226.1220 C   0  0  0  0  0  0  0  0  0  0  0  0
  139.3180   68.8570  225.2480 C   0  0  0  0  0  0  0  0  0  0  0  0
  138.7800   67.8200  225.7270 O   0  0  0  0  0  0  0  0  0  0  0  0
  139.3320   69.0690  223.8860 N   0  0  0  0  0  0  0  0  0  0  0  0
  138.7970   68.0200  222.9810 C   0  0  0  0  0  0  0  0  0  0  0  0
  139.3482   68.0771  222.0308 H   0  0  0  0  0  0  0  0  0  0  0  0
  138.9297   67.0645  223.5097 H   0  0  0  0  0  0  0  0  0  0  0  0
  137.2760   68.1300  222.6630 C   0  0  0  0  0  0  0  0  0  0  0  0
  136.9298   67.1081  222.8770 H   0  0  0  0  0  0  0  0  0  0  0  0
  136.4740   69.0530  223.6100 C   0  0  0  0  0  0  0  0  0  0  0  0
  135.4551   68.6508  223.7100 H   0  0  0  0  0  0  0  0  0  0  0  0
  137.0059   69.0752  224.5726 H   0  0  0  0  0  0  0  0  0  0  0  0
  136.3800   70.4990  223.1080 C   0  0  0  0  0  0  0  0  0  0  0  0
  135.7034   71.0668  223.7635 H   0  0  0  0  0  0  0  0  0  0  0  0
  137.3845   70.9471  223.1217 H   0  0  0  0  0  0  0  0  0  0  0  0
  135.8640   70.5320  221.7370 N   0  0  0  0  0  0  0  0  0  0  0  0
  135.7950   71.5360  221.4480 H   0  0  0  0  0  0  0  0  0  0  0  0
  136.8070   69.8710  220.8310 C   0  0  0  0  0  0  0  0  0  0  0  0
  136.4480   69.9741  219.7964 H   0  0  0  0  0  0  0  0  0  0  0  0
  137.7945   70.3436  220.9382 H   0  0  0  0  0  0  0  0  0  0  0  0
  136.9290   68.3820  221.1770 C   0  0  0  0  0  0  0  0  0  0  0  0
  135.9703   67.8911  220.9534 H   0  0  0  0  0  0  0  0  0  0  0  0
  137.7527   67.9720  220.5741 H   0  0  0  0  0  0  0  0  0  0  0  0
  140.7900   72.8530  221.4480 C   0  0  0  0  0  0  0  0  0  0  0  0
  139.7990   73.6590  222.0440 C   0  0  0  0  0  0  0  0  0  0  0  0
  138.9192   73.1912  222.5099 H   0  0  0  0  0  0  0  0  0  0  0  0
  139.9270   75.0140  222.0450 N   0  0  0  0  0  0  0  0  0  0  0  0
  140.9940   75.6340  221.4770 C   0  0  0  0  0  0  0  0  0  0  0  0
  141.0685   76.7312  221.4998 H   0  0  0  0  0  0  0  0  0  0  0  0
  141.9950   74.8800  220.8650 C   0  0  0  0  0  0  0  0  0  0  0  0
  142.8599   75.3768  220.4013 H   0  0  0  0  0  0  0  0  0  0  0  0
  141.8880   73.4890  220.8470 C   0  0  0  0  0  0  0  0  0  0  0  0
  142.6686   72.8870  220.3590 H   0  0  0  0  0  0  0  0  0  0  0  0
  1  2  1  0
  2  3  2  0
  3  4  1  0
  3  5  1  0
  5  6  2  0
  6  7  1  0
  7  8  2  0
  8  9  1  0
  8 10  1  0
 10 11  1  0
 10 12  2  0
 12 13  1  0
 12 14  1  0
 14 15  1  0
 14 16  2  0
 16 17  1  0
 17 18  2  0
 17 19  1  0
 19 20  1  0
 20 21  1  0
 20 22  1  0
 20 23  1  0
 23 24  1  0
 23 25  1  0
 25 26  1  0
 25 27  1  0
 25 28  1  0
 28 29  1  0
 28 30  1  0
 28 31  1  0
 31 32  1  0
 31 33  1  0
 33 34  1  0
 33 35  1  0
 33 36  1  0
 36 37  1  0
 36 38  1  0
  2 39  1  0
 39 40  2  0
 40 41  1  0
 40 42  1  0
 42 43  2  0
 43 44  1  0
 43 45  1  0
 45 46  1  0
 45 47  2  0
 47 48  1  0
 19  5  1  0
 36 23  1  0
 47 39  1  0
 16  7  1  0
M  END
>  <UniqueID>  (55) 
501

>  <SMILES>  (55) 
O=c1c2ccccc2nc(/C=C/c2cccnc2)n1CC1CCNCC1

>  <Energy>  (55) 
71.1307890626311

>  <Genealogy>  (55) 
O=c1c2ccccc2nc(/C=C/c2cccnc2)n1CC1CCNCC1 (cis-trans isomerization)
O=c1c2ccccc2nc(/C=C/c2cccnc2)n1CC1CCNCC1 (3D coordinates assigned)
O=c1c2ccccc2nc(/C=C/c2cccnc2)n1CC1CCNCC1 (nonaromatic ring conformer: 71.1307890626311 kcal/mol)

>  <smiles>  (55) 
O=c1c2ccccc2nc(/C=C/c2cccnc2)n1CC1CCNCC1

>  <score_type>  (55) 
oracle

>  <origin>  (55) 
autodockgpu

>  <m_score__min__energy>  (55) 
-8

>  <m_primary>  (55) 
energy

>  <meeko>  (55) 
{"free_energy": -6.91, "intermolecular_energy": -8.4, "internal_energy": -1.49, "cluster_size": 6, "cluster_id": 2, "rank_in_cluster": 3}

>  <energy>  (55) 
-6.76

>  <cluster_rmsd>  (55) 
1.32

>  <rmsd>  (55) 
269.52

>  <cluster>  (55) 
2

$$$$
ACXZVNHFWDZWKJ-BQYQJAHWNA-N
     RDKit          3D

 48 51  0  0  0  0  0  0  0  0999 V2000
  138.8039   71.8533  222.8243 H   0  0  0  0  0  0  0  0  0  0  0  0
  139.8300   71.6290  223.1510 C   0  0  0  0  0  0  0  0  0  0  0  0
  140.8200   71.8050  222.2680 C   0  0  0  0  0  0  0  0  0  0  0  0
  141.4480   70.9481  221.9829 H   0  0  0  0  0  0  0  0  0  0  0  0
  141.0840   73.1250  221.6710 C   0  0  0  0  0  0  0  0  0  0  0  0
  140.4950   74.1910  222.2710 N   0  0  0  0  0  0  0  0  0  0  0  0
  140.7080   75.4570  221.8480 C   0  0  0  0  0  0  0  0  0  0  0  0
  140.0780   76.5270  222.4940 C   0  0  0  0  0  0  0  0  0  0  0  0
  139.3922   76.3361  223.3326 H   0  0  0  0  0  0  0  0  0  0  0  0
  140.3200   77.8380  222.0740 C   0  0  0  0  0  0  0  0  0  0  0  0
  139.8227   78.6782  222.5807 H   0  0  0  0  0  0  0  0  0  0  0  0
  141.1940   78.0820  221.0100 C   0  0  0  0  0  0  0  0  0  0  0  0
  141.3838   79.1147  220.6821 H   0  0  0  0  0  0  0  0  0  0  0  0
  141.8270   77.0180  220.3620 C   0  0  0  0  0  0  0  0  0  0  0  0
  142.5152   77.2147  219.5267 H   0  0  0  0  0  0  0  0  0  0  0  0
  141.5850   75.6940  220.7770 C   0  0  0  0  0  0  0  0  0  0  0  0
  142.1840   74.5870  220.1510 C   0  0  0  0  0  0  0  0  0  0  0  0
  142.9990   74.7820  219.2070 O   0  0  0  0  0  0  0  0  0  0  0  0
  141.8820   73.3040  220.5570 N   0  0  0  0  0  0  0  0  0  0  0  0
  142.4480   72.1530  219.8100 C   0  0  0  0  0  0  0  0  0  0  0  0
  141.8237   71.2717  220.0186 H   0  0  0  0  0  0  0  0  0  0  0  0
  142.4509   72.4483  218.7504 H   0  0  0  0  0  0  0  0  0  0  0  0
  143.9220   71.7940  220.1630 C   0  0  0  0  0  0  0  0  0  0  0  0
  143.7930   70.8541  220.7197 H   0  0  0  0  0  0  0  0  0  0  0  0
  144.8200   71.4480  218.9520 C   0  0  0  0  0  0  0  0  0  0  0  0
  145.5610   70.6993  219.2689 H   0  0  0  0  0  0  0  0  0  0  0  0
  144.1629   71.0679  218.1559 H   0  0  0  0  0  0  0  0  0  0  0  0
  145.5660   72.6630  218.3860 C   0  0  0  0  0  0  0  0  0  0  0  0
  146.2694   72.3270  217.6099 H   0  0  0  0  0  0  0  0  0  0  0  0
  144.8337   73.3622  217.9560 H   0  0  0  0  0  0  0  0  0  0  0  0
  146.3090   73.3470  219.4470 N   0  0  0  0  0  0  0  0  0  0  0  0
  146.8180   74.1500  219.0110 H   0  0  0  0  0  0  0  0  0  0  0  0
  145.3780   73.8950  220.4380 C   0  0  0  0  0  0  0  0  0  0  0  0
  145.9420   74.4744  221.1837 H   0  0  0  0  0  0  0  0  0  0  0  0
  144.6523   74.5436  219.9256 H   0  0  0  0  0  0  0  0  0  0  0  0
  144.6220   72.7630  221.1440 C   0  0  0  0  0  0  0  0  0  0  0  0
  145.3382   72.1894  221.7507 H   0  0  0  0  0  0  0  0  0  0  0  0
  143.8380   73.2277  221.7599 H   0  0  0  0  0  0  0  0  0  0  0  0
  140.0260   71.1510  224.5420 C   0  0  0  0  0  0  0  0  0  0  0  0
  139.3850   70.0080  225.0620 C   0  0  0  0  0  0  0  0  0  0  0  0
  138.7051   69.4236  224.4246 H   0  0  0  0  0  0  0  0  0  0  0  0
  139.6040   69.6250  226.3490 N   0  0  0  0  0  0  0  0  0  0  0  0
  140.4320   70.3190  227.1720 C   0  0  0  0  0  0  0  0  0  0  0  0
  140.5915   69.9782  228.2056 H   0  0  0  0  0  0  0  0  0  0  0  0
  141.0800   71.4630  226.7080 C   0  0  0  0  0  0  0  0  0  0  0  0
  141.7487   72.0309  227.3716 H   0  0  0  0  0  0  0  0  0  0  0  0
  140.8710   71.8800  225.3920 C   0  0  0  0  0  0  0  0  0  0  0  0
  141.3720   72.7857  225.0194 H   0  0  0  0  0  0  0  0  0  0  0  0
  1  2  1  0
  2  3  2  0
  3  4  1  0
  3  5  1  0
  5  6  2  0
  6  7  1  0
  7  8  2  0
  8  9  1  0
  8 10  1  0
 10 11  1  0
 10 12  2  0
 12 13  1  0
 12 14  1  0
 14 15  1  0
 14 16  2  0
 16 17  1  0
 17 18  2  0
 17 19  1  0
 19 20  1  0
 20 21  1  0
 20 22  1  0
 20 23  1  0
 23 24  1  0
 23 25  1  0
 25 26  1  0
 25 27  1  0
 25 28  1  0
 28 29  1  0
 28 30  1  0
 28 31  1  0
 31 32  1  0
 31 33  1  0
 33 34  1  0
 33 35  1  0
 33 36  1  0
 36 37  1  0
 36 38  1  0
  2 39  1  0
 39 40  2  0
 40 41  1  0
 40 42  1  0
 42 43  2  0
 43 44  1  0
 43 45  1  0
 45 46  1  0
 45 47  2  0
 47 48  1  0
 19  5  1  0
 36 23  1  0
 47 39  1  0
 16  7  1  0
M  END
>  <UniqueID>  (56) 
501

>  <SMILES>  (56) 
O=c1c2ccccc2nc(/C=C/c2cccnc2)n1CC1CCNCC1

>  <Energy>  (56) 
71.1307890626311

>  <Genealogy>  (56) 
O=c1c2ccccc2nc(/C=C/c2cccnc2)n1CC1CCNCC1 (cis-trans isomerization)
O=c1c2ccccc2nc(/C=C/c2cccnc2)n1CC1CCNCC1 (3D coordinates assigned)
O=c1c2ccccc2nc(/C=C/c2cccnc2)n1CC1CCNCC1 (nonaromatic ring conformer: 71.1307890626311 kcal/mol)

>  <smiles>  (56) 
O=c1c2ccccc2nc(/C=C/c2cccnc2)n1CC1CCNCC1

>  <score_type>  (56) 
oracle

>  <origin>  (56) 
autodockgpu

>  <m_score__min__energy>  (56) 
-8

>  <m_primary>  (56) 
energy

>  <meeko>  (56) 
{"free_energy": -7.92, "intermolecular_energy": -9.41, "internal_energy": -1.15, "cluster_size": 10, "cluster_id": 1, "rank_in_cluster": 4}

>  <energy>  (56) 
-6.58

>  <cluster_rmsd>  (56) 
1.33

>  <rmsd>  (56) 
269.69

>  <cluster>  (56) 
2

$$$$
ACXZVNHFWDZWKJ-BQYQJAHWNA-N
     RDKit          3D

 48 51  0  0  0  0  0  0  0  0999 V2000
  138.9580   72.2094  222.9208 H   0  0  0  0  0  0  0  0  0  0  0  0
  139.9530   71.7980  223.1460 C   0  0  0  0  0  0  0  0  0  0  0  0
  140.9040   71.9140  222.2110 C   0  0  0  0  0  0  0  0  0  0  0  0
  141.4802   71.0253  221.9139 H   0  0  0  0  0  0  0  0  0  0  0  0
  141.1930   73.2090  221.5730 C   0  0  0  0  0  0  0  0  0  0  0  0
  140.6640   74.3090  222.1660 N   0  0  0  0  0  0  0  0  0  0  0  0
  140.9070   75.5560  221.7050 C   0  0  0  0  0  0  0  0  0  0  0  0
  140.3390   76.6640  222.3470 C   0  0  0  0  0  0  0  0  0  0  0  0
  139.6784   76.5183  223.2144 H   0  0  0  0  0  0  0  0  0  0  0  0
  140.6120   77.9550  221.8850 C   0  0  0  0  0  0  0  0  0  0  0  0
  140.1633   78.8246  222.3874 H   0  0  0  0  0  0  0  0  0  0  0  0
  141.4540   78.1420  220.7860 C   0  0  0  0  0  0  0  0  0  0  0  0
  141.6684   79.1592  220.4262 H   0  0  0  0  0  0  0  0  0  0  0  0
  142.0250   77.0400  220.1420 C   0  0  0  0  0  0  0  0  0  0  0  0
  142.6884   77.1919  219.2779 H   0  0  0  0  0  0  0  0  0  0  0  0
  141.7520   75.7360  220.5980 C   0  0  0  0  0  0  0  0  0  0  0  0
  142.2870   74.5940  219.9790 C   0  0  0  0  0  0  0  0  0  0  0  0
  143.0750   74.7370  219.0020 O   0  0  0  0  0  0  0  0  0  0  0  0
  141.9550   73.3330  220.4260 N   0  0  0  0  0  0  0  0  0  0  0  0
  142.4530   72.1450  219.6890 C   0  0  0  0  0  0  0  0  0  0  0  0
  141.8080   71.2914  219.9445 H   0  0  0  0  0  0  0  0  0  0  0  0
  142.4252   72.4143  218.6228 H   0  0  0  0  0  0  0  0  0  0  0  0
  143.9270   71.7430  219.9940 C   0  0  0  0  0  0  0  0  0  0  0  0
  143.7945   70.7616  220.4729 H   0  0  0  0  0  0  0  0  0  0  0  0
  144.8080   71.4860  218.7500 C   0  0  0  0  0  0  0  0  0  0  0  0
  145.5442   70.7071  218.9976 H   0  0  0  0  0  0  0  0  0  0  0  0
  144.1390   71.1768  217.9334 H   0  0  0  0  0  0  0  0  0  0  0  0
  145.5610   72.7360  218.2750 C   0  0  0  0  0  0  0  0  0  0  0  0
  146.2523   72.4572  217.4660 H   0  0  0  0  0  0  0  0  0  0  0  0
  144.8320   73.4750  217.9113 H   0  0  0  0  0  0  0  0  0  0  0  0
  146.3230   73.3240  219.3800 N   0  0  0  0  0  0  0  0  0  0  0  0
  146.8360   74.1550  219.0030 H   0  0  0  0  0  0  0  0  0  0  0  0
  145.4090   73.8000  220.4210 C   0  0  0  0  0  0  0  0  0  0  0  0
  145.9871   74.3120  221.2044 H   0  0  0  0  0  0  0  0  0  0  0  0
  144.6854   74.4949  219.9698 H   0  0  0  0  0  0  0  0  0  0  0  0
  144.6470   72.6230  221.0430 C   0  0  0  0  0  0  0  0  0  0  0  0
  145.3624   71.9953  221.5946 H   0  0  0  0  0  0  0  0  0  0  0  0
  143.8744   73.0448  221.7027 H   0  0  0  0  0  0  0  0  0  0  0  0
  140.1530   71.1510  224.4660 C   0  0  0  0  0  0  0  0  0  0  0  0
  139.6600   69.8680  224.7790 C   0  0  0  0  0  0  0  0  0  0  0  0
  139.1004   69.2966  224.0238 H   0  0  0  0  0  0  0  0  0  0  0  0
  139.8740   69.3340  226.0120 N   0  0  0  0  0  0  0  0  0  0  0  0
  140.5570   70.0050  226.9760 C   0  0  0  0  0  0  0  0  0  0  0  0
  140.7179   69.5408  227.9602 H   0  0  0  0  0  0  0  0  0  0  0  0
  141.0540   71.2820  226.7180 C   0  0  0  0  0  0  0  0  0  0  0  0
  141.6037   71.8320  227.4961 H   0  0  0  0  0  0  0  0  0  0  0  0
  140.8470   71.8550  225.4630 C   0  0  0  0  0  0  0  0  0  0  0  0
  141.2299   72.8647  225.2532 H   0  0  0  0  0  0  0  0  0  0  0  0
  1  2  1  0
  2  3  2  0
  3  4  1  0
  3  5  1  0
  5  6  2  0
  6  7  1  0
  7  8  2  0
  8  9  1  0
  8 10  1  0
 10 11  1  0
 10 12  2  0
 12 13  1  0
 12 14  1  0
 14 15  1  0
 14 16  2  0
 16 17  1  0
 17 18  2  0
 17 19  1  0
 19 20  1  0
 20 21  1  0
 20 22  1  0
 20 23  1  0
 23 24  1  0
 23 25  1  0
 25 26  1  0
 25 27  1  0
 25 28  1  0
 28 29  1  0
 28 30  1  0
 28 31  1  0
 31 32  1  0
 31 33  1  0
 33 34  1  0
 33 35  1  0
 33 36  1  0
 36 37  1  0
 36 38  1  0
  2 39  1  0
 39 40  2  0
 40 41  1  0
 40 42  1  0
 42 43  2  0
 43 44  1  0
 43 45  1  0
 45 46  1  0
 45 47  2  0
 47 48  1  0
 19  5  1  0
 36 23  1  0
 47 39  1  0
 16  7  1  0
M  END
>  <UniqueID>  (57) 
501

>  <SMILES>  (57) 
O=c1c2ccccc2nc(/C=C/c2cccnc2)n1CC1CCNCC1

>  <Energy>  (57) 
71.1307890626311

>  <Genealogy>  (57) 
O=c1c2ccccc2nc(/C=C/c2cccnc2)n1CC1CCNCC1 (cis-trans isomerization)
O=c1c2ccccc2nc(/C=C/c2cccnc2)n1CC1CCNCC1 (3D coordinates assigned)
O=c1c2ccccc2nc(/C=C/c2cccnc2)n1CC1CCNCC1 (nonaromatic ring conformer: 71.1307890626311 kcal/mol)

>  <smiles>  (57) 
O=c1c2ccccc2nc(/C=C/c2cccnc2)n1CC1CCNCC1

>  <score_type>  (57) 
oracle

>  <origin>  (57) 
autodockgpu

>  <m_score__min__energy>  (57) 
-8

>  <m_primary>  (57) 
energy

>  <meeko>  (57) 
{"free_energy": -7.95, "intermolecular_energy": -9.44, "internal_energy": -1.17, "cluster_size": 10, "cluster_id": 1, "rank_in_cluster": 3}

>  <energy>  (57) 
-6.81

>  <cluster_rmsd>  (57) 
0.0

>  <rmsd>  (57) 
270.3

>  <cluster>  (57) 
3

$$$$
ACXZVNHFWDZWKJ-BQYQJAHWNA-N
     RDKit          3D

 48 51  0  0  0  0  0  0  0  0999 V2000
  138.8170   71.8602  222.9623 H   0  0  0  0  0  0  0  0  0  0  0  0
  139.8540   71.5860  223.2060 C   0  0  0  0  0  0  0  0  0  0  0  0
  140.7850   71.7520  222.2580 C   0  0  0  0  0  0  0  0  0  0  0  0
  141.3550   70.8812  221.9019 H   0  0  0  0  0  0  0  0  0  0  0  0
  141.0590   73.0800  221.6840 C   0  0  0  0  0  0  0  0  0  0  0  0
  140.4650   74.1380  222.2910 N   0  0  0  0  0  0  0  0  0  0  0  0
  140.6870   75.4100  221.8900 C   0  0  0  0  0  0  0  0  0  0  0  0
  140.0500   76.4720  222.5420 C   0  0  0  0  0  0  0  0  0  0  0  0
  139.3517   76.2709  223.3678 H   0  0  0  0  0  0  0  0  0  0  0  0
  140.3010   77.7880  222.1440 C   0  0  0  0  0  0  0  0  0  0  0  0
  139.7989   78.6219  222.6563 H   0  0  0  0  0  0  0  0  0  0  0  0
  141.1890   78.0460  221.0960 C   0  0  0  0  0  0  0  0  0  0  0  0
  141.3855   79.0829  220.7859 H   0  0  0  0  0  0  0  0  0  0  0  0
  141.8280   76.9890  220.4410 C   0  0  0  0  0  0  0  0  0  0  0  0
  142.5272   77.1958  219.6173 H   0  0  0  0  0  0  0  0  0  0  0  0
  141.5780   75.6600  220.8340 C   0  0  0  0  0  0  0  0  0  0  0  0
  142.1820   74.5610  220.2000 C   0  0  0  0  0  0  0  0  0  0  0  0
  143.0110   74.7680  219.2700 O   0  0  0  0  0  0  0  0  0  0  0  0
  141.8720   73.2740  220.5830 N   0  0  0  0  0  0  0  0  0  0  0  0
  142.4470   72.1320  219.8270 C   0  0  0  0  0  0  0  0  0  0  0  0
  141.8255   71.2461  220.0244 H   0  0  0  0  0  0  0  0  0  0  0  0
  142.4537   72.4384  218.7705 H   0  0  0  0  0  0  0  0  0  0  0  0
  143.9210   71.7750  220.1820 C   0  0  0  0  0  0  0  0  0  0  0  0
  143.7932   70.8365  220.7413 H   0  0  0  0  0  0  0  0  0  0  0  0
  144.8200   71.4260  218.9730 C   0  0  0  0  0  0  0  0  0  0  0  0
  145.5621   70.6798  219.2930 H   0  0  0  0  0  0  0  0  0  0  0  0
  144.1640   71.0417  218.1780 H   0  0  0  0  0  0  0  0  0  0  0  0
  145.5640   72.6400  218.4030 C   0  0  0  0  0  0  0  0  0  0  0  0
  146.2673   72.3026  217.6275 H   0  0  0  0  0  0  0  0  0  0  0  0
  144.8307   73.3371  217.9713 H   0  0  0  0  0  0  0  0  0  0  0  0
  146.3070   73.3280  219.4620 N   0  0  0  0  0  0  0  0  0  0  0  0
  146.8150   74.1310  219.0220 H   0  0  0  0  0  0  0  0  0  0  0  0
  145.3750   73.8790  220.4500 C   0  0  0  0  0  0  0  0  0  0  0  0
  145.9381   74.4617  221.1939 H   0  0  0  0  0  0  0  0  0  0  0  0
  144.6492   74.5251  219.9345 H   0  0  0  0  0  0  0  0  0  0  0  0
  144.6190   72.7490  221.1600 C   0  0  0  0  0  0  0  0  0  0  0  0
  145.3349   72.1787  221.7701 H   0  0  0  0  0  0  0  0  0  0  0  0
  143.8338   73.2156  221.7730 H   0  0  0  0  0  0  0  0  0  0  0  0
  140.1310   71.0560  224.5640 C   0  0  0  0  0  0  0  0  0  0  0  0
  139.7380   69.7700  224.9850 C   0  0  0  0  0  0  0  0  0  0  0  0
  139.2032   69.1060  224.2900 H   0  0  0  0  0  0  0  0  0  0  0  0
  140.0170   69.3460  226.2470 N   0  0  0  0  0  0  0  0  0  0  0  0
  140.6740   70.1340  227.1390 C   0  0  0  0  0  0  0  0  0  0  0  0
  140.8909   69.7578  228.1497 H   0  0  0  0  0  0  0  0  0  0  0  0
  141.0730   71.4190  226.7730 C   0  0  0  0  0  0  0  0  0  0  0  0
  141.6007   72.0630  227.4919 H   0  0  0  0  0  0  0  0  0  0  0  0
  140.7960   71.8790  225.4860 C   0  0  0  0  0  0  0  0  0  0  0  0
  141.1009   72.8940  225.1914 H   0  0  0  0  0  0  0  0  0  0  0  0
  1  2  1  0
  2  3  2  0
  3  4  1  0
  3  5  1  0
  5  6  2  0
  6  7  1  0
  7  8  2  0
  8  9  1  0
  8 10  1  0
 10 11  1  0
 10 12  2  0
 12 13  1  0
 12 14  1  0
 14 15  1  0
 14 16  2  0
 16 17  1  0
 17 18  2  0
 17 19  1  0
 19 20  1  0
 20 21  1  0
 20 22  1  0
 20 23  1  0
 23 24  1  0
 23 25  1  0
 25 26  1  0
 25 27  1  0
 25 28  1  0
 28 29  1  0
 28 30  1  0
 28 31  1  0
 31 32  1  0
 31 33  1  0
 33 34  1  0
 33 35  1  0
 33 36  1  0
 36 37  1  0
 36 38  1  0
  2 39  1  0
 39 40  2  0
 40 41  1  0
 40 42  1  0
 42 43  2  0
 43 44  1  0
 43 45  1  0
 45 46  1  0
 45 47  2  0
 47 48  1  0
 19  5  1  0
 36 23  1  0
 47 39  1  0
 16  7  1  0
M  END
>  <UniqueID>  (58) 
501

>  <SMILES>  (58) 
O=c1c2ccccc2nc(/C=C/c2cccnc2)n1CC1CCNCC1

>  <Energy>  (58) 
71.1307890626311

>  <Genealogy>  (58) 
O=c1c2ccccc2nc(/C=C/c2cccnc2)n1CC1CCNCC1 (cis-trans isomerization)
O=c1c2ccccc2nc(/C=C/c2cccnc2)n1CC1CCNCC1 (3D coordinates assigned)
O=c1c2ccccc2nc(/C=C/c2cccnc2)n1CC1CCNCC1 (nonaromatic ring conformer: 71.1307890626311 kcal/mol)

>  <smiles>  (58) 
O=c1c2ccccc2nc(/C=C/c2cccnc2)n1CC1CCNCC1

>  <score_type>  (58) 
oracle

>  <origin>  (58) 
autodockgpu

>  <m_score__min__energy>  (58) 
-8

>  <m_primary>  (58) 
energy

>  <meeko>  (58) 
{"free_energy": -7.97, "intermolecular_energy": -9.46, "internal_energy": -1.12, "cluster_size": 10, "cluster_id": 1, "rank_in_cluster": 2}

>  <energy>  (58) 
-6.8

>  <cluster_rmsd>  (58) 
0.03

>  <rmsd>  (58) 
270.31

>  <cluster>  (58) 
3

$$$$
ACXZVNHFWDZWKJ-BQYQJAHWNA-N
     RDKit          3D

 48 51  0  0  0  0  0  0  0  0999 V2000
  141.6600   72.1217  221.3626 H   0  0  0  0  0  0  0  0  0  0  0  0
  140.6350   72.3220  221.7080 C   0  0  0  0  0  0  0  0  0  0  0  0
  139.8720   71.2740  222.0430 C   0  0  0  0  0  0  0  0  0  0  0  0
  139.2025   70.8309  221.2910 H   0  0  0  0  0  0  0  0  0  0  0  0
  139.9130   70.7040  223.4000 C   0  0  0  0  0  0  0  0  0  0  0  0
  140.4820   71.4710  224.3630 N   0  0  0  0  0  0  0  0  0  0  0  0
  140.5270   71.0790  225.6560 C   0  0  0  0  0  0  0  0  0  0  0  0
  141.1260   71.9000  226.6180 C   0  0  0  0  0  0  0  0  0  0  0  0
  141.5799   72.8562  226.3187 H   0  0  0  0  0  0  0  0  0  0  0  0
  141.1480   71.5060  227.9590 C   0  0  0  0  0  0  0  0  0  0  0  0
  141.6215   72.1513  228.7136 H   0  0  0  0  0  0  0  0  0  0  0  0
  140.5690   70.2930  228.3420 C   0  0  0  0  0  0  0  0  0  0  0  0
  140.5869   69.9857  229.3981 H   0  0  0  0  0  0  0  0  0  0  0  0
  139.9670   69.4690  227.3860 C   0  0  0  0  0  0  0  0  0  0  0  0
  139.5105   68.5161  227.6918 H   0  0  0  0  0  0  0  0  0  0  0  0
  139.9440   69.8570  226.0320 C   0  0  0  0  0  0  0  0  0  0  0  0
  139.3660   69.0600  225.0290 C   0  0  0  0  0  0  0  0  0  0  0  0
  138.8100   67.9740  225.3530 O   0  0  0  0  0  0  0  0  0  0  0  0
  139.4100   69.4540  223.7090 N   0  0  0  0  0  0  0  0  0  0  0  0
  138.8830   68.5440  222.6600 C   0  0  0  0  0  0  0  0  0  0  0  0
  139.4247   68.7523  221.7256 H   0  0  0  0  0  0  0  0  0  0  0  0
  139.0350   67.5224  223.0383 H   0  0  0  0  0  0  0  0  0  0  0  0
  137.3580   68.6750  222.3720 C   0  0  0  0  0  0  0  0  0  0  0  0
  137.0927   67.6402  222.1099 H   0  0  0  0  0  0  0  0  0  0  0  0
  136.4880   69.0350  223.5990 C   0  0  0  0  0  0  0  0  0  0  0  0
  135.5034   68.5589  223.4813 H   0  0  0  0  0  0  0  0  0  0  0  0
  137.0175   68.6733  224.4928 H   0  0  0  0  0  0  0  0  0  0  0  0
  136.2820   70.5450  223.7710 C   0  0  0  0  0  0  0  0  0  0  0  0
  135.5645   70.7222  224.5857 H   0  0  0  0  0  0  0  0  0  0  0  0
  137.2490   71.0116  224.0100 H   0  0  0  0  0  0  0  0  0  0  0  0
  135.7630   71.1350  222.5340 N   0  0  0  0  0  0  0  0  0  0  0  0
  135.6170   72.1570  222.7060 H   0  0  0  0  0  0  0  0  0  0  0  0
  136.7540   71.0020  221.4620 C   0  0  0  0  0  0  0  0  0  0  0  0
  136.3874   71.5198  220.5634 H   0  0  0  0  0  0  0  0  0  0  0  0
  137.7023   71.4487  221.7955 H   0  0  0  0  0  0  0  0  0  0  0  0
  136.9900   69.5230  221.1320 C   0  0  0  0  0  0  0  0  0  0  0  0
  136.0712   69.1127  220.6876 H   0  0  0  0  0  0  0  0  0  0  0  0
  137.8415   69.4742  220.4373 H   0  0  0  0  0  0  0  0  0  0  0  0
  140.1890   73.7360  221.7720 C   0  0  0  0  0  0  0  0  0  0  0  0
  141.0720   74.8290  221.6640 C   0  0  0  0  0  0  0  0  0  0  0  0
  142.1482   74.6518  221.5209 H   0  0  0  0  0  0  0  0  0  0  0  0
  140.5990   76.1020  221.7360 N   0  0  0  0  0  0  0  0  0  0  0  0
  139.2780   76.3670  221.9140 C   0  0  0  0  0  0  0  0  0  0  0  0
  138.9276   77.4086  221.9610 H   0  0  0  0  0  0  0  0  0  0  0  0
  138.3670   75.3190  222.0370 C   0  0  0  0  0  0  0  0  0  0  0  0
  137.2972   75.5274  222.1854 H   0  0  0  0  0  0  0  0  0  0  0  0
  138.8260   74.0030  221.9700 C   0  0  0  0  0  0  0  0  0  0  0  0
  138.1150   73.1700  222.0730 H   0  0  0  0  0  0  0  0  0  0  0  0
  1  2  1  0
  2  3  2  0
  3  4  1  0
  3  5  1  0
  5  6  2  0
  6  7  1  0
  7  8  2  0
  8  9  1  0
  8 10  1  0
 10 11  1  0
 10 12  2  0
 12 13  1  0
 12 14  1  0
 14 15  1  0
 14 16  2  0
 16 17  1  0
 17 18  2  0
 17 19  1  0
 19 20  1  0
 20 21  1  0
 20 22  1  0
 20 23  1  0
 23 24  1  0
 23 25  1  0
 25 26  1  0
 25 27  1  0
 25 28  1  0
 28 29  1  0
 28 30  1  0
 28 31  1  0
 31 32  1  0
 31 33  1  0
 33 34  1  0
 33 35  1  0
 33 36  1  0
 36 37  1  0
 36 38  1  0
  2 39  1  0
 39 40  2  0
 40 41  1  0
 40 42  1  0
 42 43  2  0
 43 44  1  0
 43 45  1  0
 45 46  1  0
 45 47  2  0
 47 48  1  0
 19  5  1  0
 36 23  1  0
 47 39  1  0
 16  7  1  0
M  END
>  <UniqueID>  (59) 
501

>  <SMILES>  (59) 
O=c1c2ccccc2nc(/C=C/c2cccnc2)n1CC1CCNCC1

>  <Energy>  (59) 
71.1307890626311

>  <Genealogy>  (59) 
O=c1c2ccccc2nc(/C=C/c2cccnc2)n1CC1CCNCC1 (cis-trans isomerization)
O=c1c2ccccc2nc(/C=C/c2cccnc2)n1CC1CCNCC1 (3D coordinates assigned)
O=c1c2ccccc2nc(/C=C/c2cccnc2)n1CC1CCNCC1 (nonaromatic ring conformer: 71.1307890626311 kcal/mol)

>  <smiles>  (59) 
O=c1c2ccccc2nc(/C=C/c2cccnc2)n1CC1CCNCC1

>  <score_type>  (59) 
oracle

>  <origin>  (59) 
autodockgpu

>  <m_score__min__energy>  (59) 
-8

>  <m_primary>  (59) 
energy

>  <meeko>  (59) 
{"free_energy": -6.58, "intermolecular_energy": -8.07, "internal_energy": -1.59, "cluster_size": 6, "cluster_id": 2, "rank_in_cluster": 6}

>  <energy>  (59) 
-6.4

>  <cluster_rmsd>  (59) 
0.0

>  <rmsd>  (59) 
269.81

>  <cluster>  (59) 
4

$$$$
ACXZVNHFWDZWKJ-BQYQJAHWNA-N
     RDKit          3D

 48 51  0  0  0  0  0  0  0  0999 V2000
  142.0885   71.3670  222.5730 H   0  0  0  0  0  0  0  0  0  0  0  0
  141.0400   71.5510  222.8500 C   0  0  0  0  0  0  0  0  0  0  0  0
  140.2870   72.2680  222.0070 C   0  0  0  0  0  0  0  0  0  0  0  0
  139.3112   71.8743  221.6864 H   0  0  0  0  0  0  0  0  0  0  0  0
  140.7410   73.5740  221.5010 C   0  0  0  0  0  0  0  0  0  0  0  0
  140.3150   74.6690  222.1790 N   0  0  0  0  0  0  0  0  0  0  0  0
  140.7120   75.9170  221.8440 C   0  0  0  0  0  0  0  0  0  0  0  0
  140.2460   77.0200  222.5690 C   0  0  0  0  0  0  0  0  0  0  0  0
  139.5396   76.8736  223.3994 H   0  0  0  0  0  0  0  0  0  0  0  0
  140.6780   78.3070  222.2380 C   0  0  0  0  0  0  0  0  0  0  0  0
  140.3094   79.1734  222.8068 H   0  0  0  0  0  0  0  0  0  0  0  0
  141.5780   78.4950  221.1850 C   0  0  0  0  0  0  0  0  0  0  0  0
  141.9173   79.5092  220.9277 H   0  0  0  0  0  0  0  0  0  0  0  0
  142.0480   77.3970  220.4580 C   0  0  0  0  0  0  0  0  0  0  0  0
  142.7571   77.5489  219.6309 H   0  0  0  0  0  0  0  0  0  0  0  0
  141.6150   76.0970  220.7830 C   0  0  0  0  0  0  0  0  0  0  0  0
  142.0440   74.9610  220.0750 C   0  0  0  0  0  0  0  0  0  0  0  0
  142.8800   75.1010  219.1390 O   0  0  0  0  0  0  0  0  0  0  0  0
  141.5570   73.7120  220.3930 N   0  0  0  0  0  0  0  0  0  0  0  0
  141.9480   72.5450  219.5630 C   0  0  0  0  0  0  0  0  0  0  0  0
  141.1921   71.7584  219.7043 H   0  0  0  0  0  0  0  0  0  0  0  0
  142.0107   72.9137  218.5285 H   0  0  0  0  0  0  0  0  0  0  0  0
  143.3440   71.9360  219.8900 C   0  0  0  0  0  0  0  0  0  0  0  0
  143.0641   71.0289  220.4457 H   0  0  0  0  0  0  0  0  0  0  0  0
  144.1500   71.4470  218.6640 C   0  0  0  0  0  0  0  0  0  0  0  0
  144.7567   70.5811  218.9673 H   0  0  0  0  0  0  0  0  0  0  0  0
  143.4250   71.1887  217.8781 H   0  0  0  0  0  0  0  0  0  0  0  0
  145.0840   72.5190  218.0880 C   0  0  0  0  0  0  0  0  0  0  0  0
  145.7061   72.0715  217.2989 H   0  0  0  0  0  0  0  0  0  0  0  0
  144.4758   73.3360  217.6724 H   0  0  0  0  0  0  0  0  0  0  0  0
  145.9510   73.0590  219.1380 N   0  0  0  0  0  0  0  0  0  0  0  0
  146.5830   73.7660  218.6950 H   0  0  0  0  0  0  0  0  0  0  0  0
  145.1440   73.7540  220.1450 C   0  0  0  0  0  0  0  0  0  0  0  0
  145.8111   74.2247  220.8821 H   0  0  0  0  0  0  0  0  0  0  0  0
  144.5322   74.5195  219.6454 H   0  0  0  0  0  0  0  0  0  0  0  0
  144.2160   72.7660  220.8620 C   0  0  0  0  0  0  0  0  0  0  0  0
  144.8323   72.0751  221.4560 H   0  0  0  0  0  0  0  0  0  0  0  0
  143.5338   73.3556  221.4920 H   0  0  0  0  0  0  0  0  0  0  0  0
  140.5530   70.9880  224.1340 C   0  0  0  0  0  0  0  0  0  0  0  0
  139.5730   69.9780  224.2110 C   0  0  0  0  0  0  0  0  0  0  0  0
  139.1357   69.5675  223.2889 H   0  0  0  0  0  0  0  0  0  0  0  0
  139.1660   69.5090  225.4210 N   0  0  0  0  0  0  0  0  0  0  0  0
  139.6770   69.9880  226.5850 C   0  0  0  0  0  0  0  0  0  0  0  0
  139.3298   69.5818  227.5465 H   0  0  0  0  0  0  0  0  0  0  0  0
  140.6420   70.9950  226.5610 C   0  0  0  0  0  0  0  0  0  0  0  0
  141.0571   71.3898  227.5001 H   0  0  0  0  0  0  0  0  0  0  0  0
  141.0750   71.4960  225.3330 C   0  0  0  0  0  0  0  0  0  0  0  0
  141.8308   72.2947  225.3047 H   0  0  0  0  0  0  0  0  0  0  0  0
  1  2  1  0
  2  3  2  0
  3  4  1  0
  3  5  1  0
  5  6  2  0
  6  7  1  0
  7  8  2  0
  8  9  1  0
  8 10  1  0
 10 11  1  0
 10 12  2  0
 12 13  1  0
 12 14  1  0
 14 15  1  0
 14 16  2  0
 16 17  1  0
 17 18  2  0
 17 19  1  0
 19 20  1  0
 20 21  1  0
 20 22  1  0
 20 23  1  0
 23 24  1  0
 23 25  1  0
 25 26  1  0
 25 27  1  0
 25 28  1  0
 28 29  1  0
 28 30  1  0
 28 31  1  0
 31 32  1  0
 31 33  1  0
 33 34  1  0
 33 35  1  0
 33 36  1  0
 36 37  1  0
 36 38  1  0
  2 39  1  0
 39 40  2  0
 40 41  1  0
 40 42  1  0
 42 43  2  0
 43 44  1  0
 43 45  1  0
 45 46  1  0
 45 47  2  0
 47 48  1  0
 19  5  1  0
 36 23  1  0
 47 39  1  0
 16  7  1  0
M  END
>  <UniqueID>  (60) 
501

>  <SMILES>  (60) 
O=c1c2ccccc2nc(/C=C/c2cccnc2)n1CC1CCNCC1

>  <Energy>  (60) 
71.1307890626311

>  <Genealogy>  (60) 
O=c1c2ccccc2nc(/C=C/c2cccnc2)n1CC1CCNCC1 (cis-trans isomerization)
O=c1c2ccccc2nc(/C=C/c2cccnc2)n1CC1CCNCC1 (3D coordinates assigned)
O=c1c2ccccc2nc(/C=C/c2cccnc2)n1CC1CCNCC1 (nonaromatic ring conformer: 71.1307890626311 kcal/mol)

>  <smiles>  (60) 
O=c1c2ccccc2nc(/C=C/c2cccnc2)n1CC1CCNCC1

>  <score_type>  (60) 
oracle

>  <origin>  (60) 
autodockgpu

>  <m_score__min__energy>  (60) 
-8

>  <m_primary>  (60) 
energy

>  <meeko>  (60) 
{"free_energy": -7.42, "intermolecular_energy": -8.91, "internal_energy": -1.17, "cluster_size": 10, "cluster_id": 1, "rank_in_cluster": 10}

>  <energy>  (60) 
-5.6

>  <cluster_rmsd>  (60) 
0.0

>  <rmsd>  (60) 
270.16

>  <cluster>  (60) 
5

$$$$
ACXZVNHFWDZWKJ-IDGBLARXNA-O
     RDKit          3D

 49 52  0  0  0  0  0  0  0  0999 V2000
  138.3323   78.2623  223.8929 H   0  0  0  0  0  0  0  0  0  0  0  0
  139.0930   78.3140  223.1000 C   0  0  0  0  0  0  0  0  0  0  0  0
  138.9700   77.4880  222.0490 C   0  0  0  0  0  0  0  0  0  0  0  0
  138.0137   77.4581  221.5062 H   0  0  0  0  0  0  0  0  0  0  0  0
  140.0870   76.6080  221.5910 C   0  0  0  0  0  0  0  0  0  0  0  0
  140.0060   75.2800  221.8740 N   0  0  0  0  0  0  0  0  0  0  0  0
  140.9600   74.4000  221.5010 C   0  0  0  0  0  0  0  0  0  0  0  0
  140.8260   73.0430  221.8230 C   0  0  0  0  0  0  0  0  0  0  0  0
  139.9441   72.6942  222.3803 H   0  0  0  0  0  0  0  0  0  0  0  0
  141.8130   72.1330  221.4360 C   0  0  0  0  0  0  0  0  0  0  0  0
  141.7087   71.0681  221.6911 H   0  0  0  0  0  0  0  0  0  0  0  0
  142.9330   72.5740  220.7250 C   0  0  0  0  0  0  0  0  0  0  0  0
  143.7080   71.8552  220.4205 H   0  0  0  0  0  0  0  0  0  0  0  0
  143.0700   73.9280  220.4000 C   0  0  0  0  0  0  0  0  0  0  0  0
  143.9521   74.2720  219.8399 H   0  0  0  0  0  0  0  0  0  0  0  0
  142.0800   74.8510  220.7890 C   0  0  0  0  0  0  0  0  0  0  0  0
  142.1680   76.2210  220.4880 C   0  0  0  0  0  0  0  0  0  0  0  0
  143.1680   76.6430  219.8410 O   0  0  0  0  0  0  0  0  0  0  0  0
  141.1800   77.0930  220.8930 N   0  0  0  0  0  0  0  0  0  0  0  0
  141.3110   78.5350  220.5730 C   0  0  0  0  0  0  0  0  0  0  0  0
  140.7374   79.1172  221.3093 H   0  0  0  0  0  0  0  0  0  0  0  0
  142.3784   78.7985  220.6076 H   0  0  0  0  0  0  0  0  0  0  0  0
  140.7780   78.8580  219.1500 C   0  0  0  0  0  0  0  0  0  0  0  0
  139.6837   78.9273  219.2383 H   0  0  0  0  0  0  0  0  0  0  0  0
  141.2820   80.2210  218.6310 C   0  0  0  0  0  0  0  0  0  0  0  0
  140.6976   80.4954  217.7404 H   0  0  0  0  0  0  0  0  0  0  0  0
  141.1559   80.9511  219.4440 H   0  0  0  0  0  0  0  0  0  0  0  0
  142.7790   80.2030  218.2520 C   0  0  0  0  0  0  0  0  0  0  0  0
  142.9414   80.9338  217.4460 H   0  0  0  0  0  0  0  0  0  0  0  0
  143.3431   80.4491  219.1638 H   0  0  0  0  0  0  0  0  0  0  0  0
  143.2620   78.8850  217.7900 N   0  0  0  0  0  0  0  0  0  0  0  0
  144.0420   79.0300  217.1070 H   0  0  0  0  0  0  0  0  0  0  0  0
  143.6520   78.3430  218.5980 H   0  0  0  0  0  0  0  0  0  0  0  0
  142.2100   78.0940  217.1400 C   0  0  0  0  0  0  0  0  0  0  0  0
  141.7733   78.6821  216.3194 H   0  0  0  0  0  0  0  0  0  0  0  0
  142.6577   77.1662  216.7544 H   0  0  0  0  0  0  0  0  0  0  0  0
  141.0990   77.7230  218.1400 C   0  0  0  0  0  0  0  0  0  0  0  0
  140.1845   77.4893  217.5751 H   0  0  0  0  0  0  0  0  0  0  0  0
  141.4584   76.8612  218.7215 H   0  0  0  0  0  0  0  0  0  0  0  0
  140.1980   79.2930  223.2520 C   0  0  0  0  0  0  0  0  0  0  0  0
  139.9810   80.6260  222.8690 C   0  0  0  0  0  0  0  0  0  0  0  0
  139.0006   80.9274  222.4715 H   0  0  0  0  0  0  0  0  0  0  0  0
  140.9740   81.5470  222.9860 N   0  0  0  0  0  0  0  0  0  0  0  0
  142.2040   81.2170  223.4630 C   0  0  0  0  0  0  0  0  0  0  0  0
  142.9844   81.9872  223.5515 H   0  0  0  0  0  0  0  0  0  0  0  0
  142.4760   79.9020  223.8400 C   0  0  0  0  0  0  0  0  0  0  0  0
  143.4714   79.6281  224.2197 H   0  0  0  0  0  0  0  0  0  0  0  0
  141.4730   78.9360  223.7310 C   0  0  0  0  0  0  0  0  0  0  0  0
  141.6795   77.8949  224.0198 H   0  0  0  0  0  0  0  0  0  0  0  0
  1  2  1  0
  2  3  2  0
  3  4  1  0
  3  5  1  0
  5  6  2  0
  6  7  1  0
  7  8  2  0
  8  9  1  0
  8 10  1  0
 10 11  1  0
 10 12  2  0
 12 13  1  0
 12 14  1  0
 14 15  1  0
 14 16  2  0
 16 17  1  0
 17 18  2  0
 17 19  1  0
 19 20  1  0
 20 21  1  0
 20 22  1  0
 20 23  1  0
 23 24  1  0
 23 25  1  0
 25 26  1  0
 25 27  1  0
 25 28  1  0
 28 29  1  0
 28 30  1  0
 28 31  1  0
 31 32  1  0
 31 33  1  0
 31 34  1  0
 34 35  1  0
 34 36  1  0
 34 37  1  0
 37 38  1  0
 37 39  1  0
  2 40  1  0
 40 41  2  0
 41 42  1  0
 41 43  1  0
 43 44  2  0
 44 45  1  0
 44 46  1  0
 46 47  1  0
 46 48  2  0
 48 49  1  0
 19  5  1  0
 37 23  1  0
 48 40  1  0
 16  7  1  0
M  CHG  1  31   1
M  END
>  <UniqueID>  (61) 
502

>  <SMILES>  (61) 
O=c1c2ccccc2nc(/C=C/c2cccnc2)n1CC1CC[NH2+]CC1

>  <Energy>  (61) 
71.37294245160794

>  <Genealogy>  (61) 
O=c1c2ccccc2nc(/C=C/c2cccnc2)n1CC1CC[NH2+]CC1 (protonated)
O=c1c2ccccc2nc(/C=C/c2cccnc2)n1CC1CC[NH2+]CC1 (cis-trans isomerization)
O=c1c2ccccc2nc(/C=C/c2cccnc2)n1CC1CC[NH2+]CC1 (3D coordinates assigned)
O=c1c2ccccc2nc(/C=C/c2cccnc2)n1CC1CC[NH2+]CC1 (nonaromatic ring conformer: 71.37294245160794 kcal/mol)

>  <smiles>  (61) 
O=c1c2ccccc2nc(/C=C/c2cccnc2)n1CC1CCNCC1

>  <score_type>  (61) 
oracle

>  <origin>  (61) 
autodockgpu

>  <m_score__min__energy>  (61) 
-7.5800000000000001

>  <m_primary>  (61) 
energy

>  <meeko>  (61) 
{"free_energy": -7.54, "intermolecular_energy": -9.03, "internal_energy": -2.03, "cluster_size": 20, "cluster_id": 1, "rank_in_cluster": 6}

>  <energy>  (61) 
-7.58

>  <cluster_rmsd>  (61) 
0.0

>  <rmsd>  (61) 
271.37

>  <cluster>  (61) 
1

$$$$
ACXZVNHFWDZWKJ-IDGBLARXNA-O
     RDKit          3D

 49 52  0  0  0  0  0  0  0  0999 V2000
  138.4487   78.2603  223.9077 H   0  0  0  0  0  0  0  0  0  0  0  0
  139.1910   78.3420  223.1000 C   0  0  0  0  0  0  0  0  0  0  0  0
  139.0550   77.5410  222.0310 C   0  0  0  0  0  0  0  0  0  0  0  0
  138.0919   77.5234  221.4999 H   0  0  0  0  0  0  0  0  0  0  0  0
  140.1660   76.6730  221.5380 C   0  0  0  0  0  0  0  0  0  0  0  0
  140.1020   75.3420  221.8130 N   0  0  0  0  0  0  0  0  0  0  0  0
  141.0530   74.4720  221.4090 C   0  0  0  0  0  0  0  0  0  0  0  0
  140.9370   73.1130  221.7240 C   0  0  0  0  0  0  0  0  0  0  0  0
  140.0721   72.7536  222.3009 H   0  0  0  0  0  0  0  0  0  0  0  0
  141.9210   72.2130  221.3050 C   0  0  0  0  0  0  0  0  0  0  0  0
  141.8310   71.1454  221.5541 H   0  0  0  0  0  0  0  0  0  0  0  0
  143.0190   72.6680  220.5700 C   0  0  0  0  0  0  0  0  0  0  0  0
  143.7915   71.9574  220.2409 H   0  0  0  0  0  0  0  0  0  0  0  0
  143.1380   74.0240  220.2520 C   0  0  0  0  0  0  0  0  0  0  0  0
  144.0030   74.3783  219.6721 H   0  0  0  0  0  0  0  0  0  0  0  0
  142.1520   74.9370  220.6730 C   0  0  0  0  0  0  0  0  0  0  0  0
  142.2220   76.3100  220.3810 C   0  0  0  0  0  0  0  0  0  0  0  0
  143.2020   76.7440  219.7120 O   0  0  0  0  0  0  0  0  0  0  0  0
  141.2380   77.1720  220.8170 N   0  0  0  0  0  0  0  0  0  0  0  0
  141.3500   78.6170  220.5040 C   0  0  0  0  0  0  0  0  0  0  0  0
  140.8636   79.1936  221.3046 H   0  0  0  0  0  0  0  0  0  0  0  0
  142.4181   78.8692  220.4287 H   0  0  0  0  0  0  0  0  0  0  0  0
  140.6740   78.9670  219.1500 C   0  0  0  0  0  0  0  0  0  0  0  0
  139.6004   79.0805  219.3608 H   0  0  0  0  0  0  0  0  0  0  0  0
  141.1700   80.3100  218.5770 C   0  0  0  0  0  0  0  0  0  0  0  0
  140.5002   80.6110  217.7580 H   0  0  0  0  0  0  0  0  0  0  0  0
  141.1659   81.0413  219.3987 H   0  0  0  0  0  0  0  0  0  0  0  0
  142.6130   80.2340  218.0310 C   0  0  0  0  0  0  0  0  0  0  0  0
  142.7121   80.9603  217.2109 H   0  0  0  0  0  0  0  0  0  0  0  0
  143.2859   80.4547  218.8727 H   0  0  0  0  0  0  0  0  0  0  0  0
  142.9880   78.8990  217.5190 N   0  0  0  0  0  0  0  0  0  0  0  0
  143.6900   79.0160  216.7510 H   0  0  0  0  0  0  0  0  0  0  0  0
  143.4440   78.3390  218.2780 H   0  0  0  0  0  0  0  0  0  0  0  0
  141.8380   78.1530  216.9920 C   0  0  0  0  0  0  0  0  0  0  0  0
  141.3356   78.7613  216.2255 H   0  0  0  0  0  0  0  0  0  0  0  0
  142.2017   77.2095  216.5589 H   0  0  0  0  0  0  0  0  0  0  0  0
  140.8330   77.8230  218.1110 C   0  0  0  0  0  0  0  0  0  0  0  0
  139.8520   77.6282  217.6531 H   0  0  0  0  0  0  0  0  0  0  0  0
  141.2205   76.9453  218.6490 H   0  0  0  0  0  0  0  0  0  0  0  0
  140.2860   79.3310  223.2530 C   0  0  0  0  0  0  0  0  0  0  0  0
  140.0490   80.6680  222.8930 C   0  0  0  0  0  0  0  0  0  0  0  0
  139.0601   80.9640  222.5128 H   0  0  0  0  0  0  0  0  0  0  0  0
  141.0320   81.5980  223.0110 N   0  0  0  0  0  0  0  0  0  0  0  0
  142.2710   81.2760  223.4690 C   0  0  0  0  0  0  0  0  0  0  0  0
  143.0432   82.0541  223.5596 H   0  0  0  0  0  0  0  0  0  0  0  0
  142.5630   79.9590  223.8240 C   0  0  0  0  0  0  0  0  0  0  0  0
  143.5657   79.6919  224.1889 H   0  0  0  0  0  0  0  0  0  0  0  0
  141.5710   78.9830  223.7120 C   0  0  0  0  0  0  0  0  0  0  0  0
  141.7936   77.9403  223.9828 H   0  0  0  0  0  0  0  0  0  0  0  0
  1  2  1  0
  2  3  2  0
  3  4  1  0
  3  5  1  0
  5  6  2  0
  6  7  1  0
  7  8  2  0
  8  9  1  0
  8 10  1  0
 10 11  1  0
 10 12  2  0
 12 13  1  0
 12 14  1  0
 14 15  1  0
 14 16  2  0
 16 17  1  0
 17 18  2  0
 17 19  1  0
 19 20  1  0
 20 21  1  0
 20 22  1  0
 20 23  1  0
 23 24  1  0
 23 25  1  0
 25 26  1  0
 25 27  1  0
 25 28  1  0
 28 29  1  0
 28 30  1  0
 28 31  1  0
 31 32  1  0
 31 33  1  0
 31 34  1  0
 34 35  1  0
 34 36  1  0
 34 37  1  0
 37 38  1  0
 37 39  1  0
  2 40  1  0
 40 41  2  0
 41 42  1  0
 41 43  1  0
 43 44  2  0
 44 45  1  0
 44 46  1  0
 46 47  1  0
 46 48  2  0
 48 49  1  0
 19  5  1  0
 37 23  1  0
 48 40  1  0
 16  7  1  0
M  CHG  1  31   1
M  END
>  <UniqueID>  (62) 
502

>  <SMILES>  (62) 
O=c1c2ccccc2nc(/C=C/c2cccnc2)n1CC1CC[NH2+]CC1

>  <Energy>  (62) 
71.37294245160794

>  <Genealogy>  (62) 
O=c1c2ccccc2nc(/C=C/c2cccnc2)n1CC1CC[NH2+]CC1 (protonated)
O=c1c2ccccc2nc(/C=C/c2cccnc2)n1CC1CC[NH2+]CC1 (cis-trans isomerization)
O=c1c2ccccc2nc(/C=C/c2cccnc2)n1CC1CC[NH2+]CC1 (3D coordinates assigned)
O=c1c2ccccc2nc(/C=C/c2cccnc2)n1CC1CC[NH2+]CC1 (nonaromatic ring conformer: 71.37294245160794 kcal/mol)

>  <smiles>  (62) 
O=c1c2ccccc2nc(/C=C/c2cccnc2)n1CC1CCNCC1

>  <score_type>  (62) 
oracle

>  <origin>  (62) 
autodockgpu

>  <m_score__min__energy>  (62) 
-7.5800000000000001

>  <m_primary>  (62) 
energy

>  <meeko>  (62) 
{"free_energy": -7.39, "intermolecular_energy": -8.88, "internal_energy": -2.14, "cluster_size": 20, "cluster_id": 1, "rank_in_cluster": 15}

>  <energy>  (62) 
-7.58

>  <cluster_rmsd>  (62) 
0.04

>  <rmsd>  (62) 
271.38

>  <cluster>  (62) 
1

$$$$
ACXZVNHFWDZWKJ-IDGBLARXNA-O
     RDKit          3D

 49 52  0  0  0  0  0  0  0  0999 V2000
  138.7736   77.6936  223.5138 H   0  0  0  0  0  0  0  0  0  0  0  0
  139.5120   77.8840  222.7210 C   0  0  0  0  0  0  0  0  0  0  0  0
  139.4710   77.1170  221.6200 C   0  0  0  0  0  0  0  0  0  0  0  0
  138.5009   76.9388  221.1330 H   0  0  0  0  0  0  0  0  0  0  0  0
  140.6970   76.4970  221.0330 C   0  0  0  0  0  0  0  0  0  0  0  0
  140.9300   75.1820  221.2930 N   0  0  0  0  0  0  0  0  0  0  0  0
  142.0060   74.5260  220.8070 C   0  0  0  0  0  0  0  0  0  0  0  0
  142.1980   73.1730  221.1100 C   0  0  0  0  0  0  0  0  0  0  0  0
  141.4726   72.6434  221.7450 H   0  0  0  0  0  0  0  0  0  0  0  0
  143.3110   72.4950  220.6060 C   0  0  0  0  0  0  0  0  0  0  0  0
  143.4617   71.4320  220.8455 H   0  0  0  0  0  0  0  0  0  0  0  0
  144.2330   73.1660  219.7980 C   0  0  0  0  0  0  0  0  0  0  0  0
  145.1081   72.6300  219.4019 H   0  0  0  0  0  0  0  0  0  0  0  0
  144.0450   74.5180  219.4920 C   0  0  0  0  0  0  0  0  0  0  0  0
  144.7721   75.0432  218.8552 H   0  0  0  0  0  0  0  0  0  0  0  0
  142.9260   75.2080  219.9980 C   0  0  0  0  0  0  0  0  0  0  0  0
  142.6900   76.5650  219.7210 C   0  0  0  0  0  0  0  0  0  0  0  0
  143.5060   77.1910  218.9870 O   0  0  0  0  0  0  0  0  0  0  0  0
  141.5850   77.2050  220.2410 N   0  0  0  0  0  0  0  0  0  0  0  0
  141.3730   78.6420  219.9420 C   0  0  0  0  0  0  0  0  0  0  0  0
  140.8745   79.1151  220.8009 H   0  0  0  0  0  0  0  0  0  0  0  0
  142.3545   79.1015  219.7537 H   0  0  0  0  0  0  0  0  0  0  0  0
  140.4940   78.8420  218.6770 C   0  0  0  0  0  0  0  0  0  0  0  0
  139.4496   78.7433  219.0080 H   0  0  0  0  0  0  0  0  0  0  0  0
  140.6500   80.2520  218.0720 C   0  0  0  0  0  0  0  0  0  0  0  0
  139.8470   80.4093  217.3369 H   0  0  0  0  0  0  0  0  0  0  0  0
  140.5945   80.9744  218.8997 H   0  0  0  0  0  0  0  0  0  0  0  0
  142.0100   80.4570  217.3680 C   0  0  0  0  0  0  0  0  0  0  0  0
  141.8727   81.1827  216.5528 H   0  0  0  0  0  0  0  0  0  0  0  0
  142.7165   80.8119  218.1328 H   0  0  0  0  0  0  0  0  0  0  0  0
  142.5790   79.2180  216.7980 N   0  0  0  0  0  0  0  0  0  0  0  0
  143.1540   79.4650  215.9590 H   0  0  0  0  0  0  0  0  0  0  0  0
  143.2180   78.7640  217.4930 H   0  0  0  0  0  0  0  0  0  0  0  0
  141.5460   78.2570  216.3910 C   0  0  0  0  0  0  0  0  0  0  0  0
  140.8517   78.7490  215.6940 H   0  0  0  0  0  0  0  0  0  0  0  0
  142.0364   77.4001  215.9061 H   0  0  0  0  0  0  0  0  0  0  0  0
  140.7570   77.7450  217.6100 C   0  0  0  0  0  0  0  0  0  0  0  0
  139.7882   77.3579  217.2612 H   0  0  0  0  0  0  0  0  0  0  0  0
  141.3673   76.9650  218.0886 H   0  0  0  0  0  0  0  0  0  0  0  0
  140.4970   78.9740  222.9290 C   0  0  0  0  0  0  0  0  0  0  0  0
  141.8160   78.6400  223.2770 C   0  0  0  0  0  0  0  0  0  0  0  0
  142.1017   77.5830  223.3828 H   0  0  0  0  0  0  0  0  0  0  0  0
  142.7420   79.6130  223.4840 N   0  0  0  0  0  0  0  0  0  0  0  0
  142.4310   80.9310  223.3720 C   0  0  0  0  0  0  0  0  0  0  0  0
  143.2049   81.6945  223.5395 H   0  0  0  0  0  0  0  0  0  0  0  0
  141.1320   81.3160  223.0450 C   0  0  0  0  0  0  0  0  0  0  0  0
  140.8745   82.3820  222.9593 H   0  0  0  0  0  0  0  0  0  0  0  0
  140.1600   80.3370  222.8270 C   0  0  0  0  0  0  0  0  0  0  0  0
  139.1304   80.6312  222.5754 H   0  0  0  0  0  0  0  0  0  0  0  0
  1  2  1  0
  2  3  2  0
  3  4  1  0
  3  5  1  0
  5  6  2  0
  6  7  1  0
  7  8  2  0
  8  9  1  0
  8 10  1  0
 10 11  1  0
 10 12  2  0
 12 13  1  0
 12 14  1  0
 14 15  1  0
 14 16  2  0
 16 17  1  0
 17 18  2  0
 17 19  1  0
 19 20  1  0
 20 21  1  0
 20 22  1  0
 20 23  1  0
 23 24  1  0
 23 25  1  0
 25 26  1  0
 25 27  1  0
 25 28  1  0
 28 29  1  0
 28 30  1  0
 28 31  1  0
 31 32  1  0
 31 33  1  0
 31 34  1  0
 34 35  1  0
 34 36  1  0
 34 37  1  0
 37 38  1  0
 37 39  1  0
  2 40  1  0
 40 41  2  0
 41 42  1  0
 41 43  1  0
 43 44  2  0
 44 45  1  0
 44 46  1  0
 46 47  1  0
 46 48  2  0
 48 49  1  0
 19  5  1  0
 37 23  1  0
 48 40  1  0
 16  7  1  0
M  CHG  1  31   1
M  END
>  <UniqueID>  (63) 
502

>  <SMILES>  (63) 
O=c1c2ccccc2nc(/C=C/c2cccnc2)n1CC1CC[NH2+]CC1

>  <Energy>  (63) 
71.37294245160794

>  <Genealogy>  (63) 
O=c1c2ccccc2nc(/C=C/c2cccnc2)n1CC1CC[NH2+]CC1 (protonated)
O=c1c2ccccc2nc(/C=C/c2cccnc2)n1CC1CC[NH2+]CC1 (cis-trans isomerization)
O=c1c2ccccc2nc(/C=C/c2cccnc2)n1CC1CC[NH2+]CC1 (3D coordinates assigned)
O=c1c2ccccc2nc(/C=C/c2cccnc2)n1CC1CC[NH2+]CC1 (nonaromatic ring conformer: 71.37294245160794 kcal/mol)

>  <smiles>  (63) 
O=c1c2ccccc2nc(/C=C/c2cccnc2)n1CC1CCNCC1

>  <score_type>  (63) 
oracle

>  <origin>  (63) 
autodockgpu

>  <m_score__min__energy>  (63) 
-7.5800000000000001

>  <m_primary>  (63) 
energy

>  <meeko>  (63) 
{"free_energy": -7.05, "intermolecular_energy": -8.54, "internal_energy": -2.17, "cluster_size": 20, "cluster_id": 1, "rank_in_cluster": 20}

>  <energy>  (63) 
-7.57

>  <cluster_rmsd>  (63) 
0.06

>  <rmsd>  (63) 
271.37

>  <cluster>  (63) 
1

$$$$
ACXZVNHFWDZWKJ-IDGBLARXNA-O
     RDKit          3D

 49 52  0  0  0  0  0  0  0  0999 V2000
  138.3541   78.3219  223.8766 H   0  0  0  0  0  0  0  0  0  0  0  0
  139.1280   78.3380  223.0950 C   0  0  0  0  0  0  0  0  0  0  0  0
  138.9950   77.5010  222.0530 C   0  0  0  0  0  0  0  0  0  0  0  0
  138.0329   77.4652  221.5209 H   0  0  0  0  0  0  0  0  0  0  0  0
  140.1070   76.6170  221.5910 C   0  0  0  0  0  0  0  0  0  0  0  0
  140.0350   75.2940  221.8990 N   0  0  0  0  0  0  0  0  0  0  0  0
  140.9850   74.4100  221.5260 C   0  0  0  0  0  0  0  0  0  0  0  0
  140.8620   73.0600  221.8740 C   0  0  0  0  0  0  0  0  0  0  0  0
  139.9913   72.7185  222.4530 H   0  0  0  0  0  0  0  0  0  0  0  0
  141.8450   72.1460  221.4860 C   0  0  0  0  0  0  0  0  0  0  0  0
  141.7482   71.0853  221.7609 H   0  0  0  0  0  0  0  0  0  0  0  0
  142.9510   72.5780  220.7490 C   0  0  0  0  0  0  0  0  0  0  0  0
  143.7227   71.8561  220.4434 H   0  0  0  0  0  0  0  0  0  0  0  0
  143.0790   73.9260  220.3990 C   0  0  0  0  0  0  0  0  0  0  0  0
  143.9516   74.2627  219.8200 H   0  0  0  0  0  0  0  0  0  0  0  0
  142.0920   74.8530  220.7870 C   0  0  0  0  0  0  0  0  0  0  0  0
  142.1710   76.2170  220.4620 C   0  0  0  0  0  0  0  0  0  0  0  0
  143.1580   76.6310  219.7910 O   0  0  0  0  0  0  0  0  0  0  0  0
  141.1860   77.0930  220.8670 N   0  0  0  0  0  0  0  0  0  0  0  0
  141.3070   78.5300  220.5200 C   0  0  0  0  0  0  0  0  0  0  0  0
  140.7129   79.1203  221.2332 H   0  0  0  0  0  0  0  0  0  0  0  0
  142.3705   78.8065  220.5695 H   0  0  0  0  0  0  0  0  0  0  0  0
  140.7980   78.8180  219.0810 C   0  0  0  0  0  0  0  0  0  0  0  0
  139.7010   78.8677  219.1459 H   0  0  0  0  0  0  0  0  0  0  0  0
  141.2860   80.1810  218.5480 C   0  0  0  0  0  0  0  0  0  0  0  0
  140.7151   80.4280  217.6408 H   0  0  0  0  0  0  0  0  0  0  0  0
  141.1288   80.9227  219.3450 H   0  0  0  0  0  0  0  0  0  0  0  0
  142.7910   80.1860  218.2000 C   0  0  0  0  0  0  0  0  0  0  0  0
  142.9559   80.9053  217.3843 H   0  0  0  0  0  0  0  0  0  0  0  0
  143.3312   80.4596  219.1183 H   0  0  0  0  0  0  0  0  0  0  0  0
  143.3090   78.8690  217.7720 N   0  0  0  0  0  0  0  0  0  0  0  0
  144.0990   79.0180  217.1020 H   0  0  0  0  0  0  0  0  0  0  0  0
  143.6920   78.3500  218.5960 H   0  0  0  0  0  0  0  0  0  0  0  0
  142.2860   78.0470  217.1140 C   0  0  0  0  0  0  0  0  0  0  0  0
  141.8553   78.6126  216.2746 H   0  0  0  0  0  0  0  0  0  0  0  0
  142.7588   77.1217  216.7531 H   0  0  0  0  0  0  0  0  0  0  0  0
  141.1620   77.6720  218.0980 C   0  0  0  0  0  0  0  0  0  0  0  0
  140.2641   77.4103  217.5190 H   0  0  0  0  0  0  0  0  0  0  0  0
  141.5263   76.8281  218.7022 H   0  0  0  0  0  0  0  0  0  0  0  0
  140.2610   79.2830  223.2500 C   0  0  0  0  0  0  0  0  0  0  0  0
  140.0790   80.6270  222.8840 C   0  0  0  0  0  0  0  0  0  0  0  0
  139.1049   80.9605  222.4968 H   0  0  0  0  0  0  0  0  0  0  0  0
  141.0980   81.5180  223.0050 N   0  0  0  0  0  0  0  0  0  0  0  0
  142.3200   81.1490  223.4700 C   0  0  0  0  0  0  0  0  0  0  0  0
  143.1218   81.8963  223.5625 H   0  0  0  0  0  0  0  0  0  0  0  0
  142.5580   79.8230  223.8300 C   0  0  0  0  0  0  0  0  0  0  0  0
  143.5480   79.5178  224.1999 H   0  0  0  0  0  0  0  0  0  0  0  0
  141.5290   78.8860  223.7170 C   0  0  0  0  0  0  0  0  0  0  0  0
  141.7089   77.8365  223.9930 H   0  0  0  0  0  0  0  0  0  0  0  0
  1  2  1  0
  2  3  2  0
  3  4  1  0
  3  5  1  0
  5  6  2  0
  6  7  1  0
  7  8  2  0
  8  9  1  0
  8 10  1  0
 10 11  1  0
 10 12  2  0
 12 13  1  0
 12 14  1  0
 14 15  1  0
 14 16  2  0
 16 17  1  0
 17 18  2  0
 17 19  1  0
 19 20  1  0
 20 21  1  0
 20 22  1  0
 20 23  1  0
 23 24  1  0
 23 25  1  0
 25 26  1  0
 25 27  1  0
 25 28  1  0
 28 29  1  0
 28 30  1  0
 28 31  1  0
 31 32  1  0
 31 33  1  0
 31 34  1  0
 34 35  1  0
 34 36  1  0
 34 37  1  0
 37 38  1  0
 37 39  1  0
  2 40  1  0
 40 41  2  0
 41 42  1  0
 41 43  1  0
 43 44  2  0
 44 45  1  0
 44 46  1  0
 46 47  1  0
 46 48  2  0
 48 49  1  0
 19  5  1  0
 37 23  1  0
 48 40  1  0
 16  7  1  0
M  CHG  1  31   1
M  END
>  <UniqueID>  (64) 
502

>  <SMILES>  (64) 
O=c1c2ccccc2nc(/C=C/c2cccnc2)n1CC1CC[NH2+]CC1

>  <Energy>  (64) 
71.37294245160794

>  <Genealogy>  (64) 
O=c1c2ccccc2nc(/C=C/c2cccnc2)n1CC1CC[NH2+]CC1 (protonated)
O=c1c2ccccc2nc(/C=C/c2cccnc2)n1CC1CC[NH2+]CC1 (cis-trans isomerization)
O=c1c2ccccc2nc(/C=C/c2cccnc2)n1CC1CC[NH2+]CC1 (3D coordinates assigned)
O=c1c2ccccc2nc(/C=C/c2cccnc2)n1CC1CC[NH2+]CC1 (nonaromatic ring conformer: 71.37294245160794 kcal/mol)

>  <smiles>  (64) 
O=c1c2ccccc2nc(/C=C/c2cccnc2)n1CC1CCNCC1

>  <score_type>  (64) 
oracle

>  <origin>  (64) 
autodockgpu

>  <m_score__min__energy>  (64) 
-7.5800000000000001

>  <m_primary>  (64) 
energy

>  <meeko>  (64) 
{"free_energy": -7.57, "intermolecular_energy": -9.06, "internal_energy": -1.98, "cluster_size": 20, "cluster_id": 1, "rank_in_cluster": 4}

>  <energy>  (64) 
-7.57

>  <cluster_rmsd>  (64) 
0.03

>  <rmsd>  (64) 
271.38

>  <cluster>  (64) 
1

$$$$
ACXZVNHFWDZWKJ-IDGBLARXNA-O
     RDKit          3D

 49 52  0  0  0  0  0  0  0  0999 V2000
  138.4283   78.2610  223.9003 H   0  0  0  0  0  0  0  0  0  0  0  0
  139.1810   78.3290  223.1010 C   0  0  0  0  0  0  0  0  0  0  0  0
  139.0490   77.5230  222.0350 C   0  0  0  0  0  0  0  0  0  0  0  0
  138.0857   77.4987  221.5044 H   0  0  0  0  0  0  0  0  0  0  0  0
  140.1640   76.6580  221.5440 C   0  0  0  0  0  0  0  0  0  0  0  0
  140.1070   75.3280  221.8270 N   0  0  0  0  0  0  0  0  0  0  0  0
  141.0620   74.4610  221.4250 C   0  0  0  0  0  0  0  0  0  0  0  0
  140.9540   73.1030  221.7480 C   0  0  0  0  0  0  0  0  0  0  0  0
  140.0928   72.7424  222.3296 H   0  0  0  0  0  0  0  0  0  0  0  0
  141.9410   72.2060  221.3310 C   0  0  0  0  0  0  0  0  0  0  0  0
  141.8562   71.1390  221.5846 H   0  0  0  0  0  0  0  0  0  0  0  0
  143.0360   72.6630  220.5920 C   0  0  0  0  0  0  0  0  0  0  0  0
  143.8119   71.9549  220.2655 H   0  0  0  0  0  0  0  0  0  0  0  0
  143.1470   74.0180  220.2670 C   0  0  0  0  0  0  0  0  0  0  0  0
  144.0096   74.3742  219.6847 H   0  0  0  0  0  0  0  0  0  0  0  0
  142.1560   74.9280  220.6840 C   0  0  0  0  0  0  0  0  0  0  0  0
  142.2190   76.3000  220.3850 C   0  0  0  0  0  0  0  0  0  0  0  0
  143.1960   76.7360  219.7120 O   0  0  0  0  0  0  0  0  0  0  0  0
  141.2310   77.1580  220.8190 N   0  0  0  0  0  0  0  0  0  0  0  0
  141.3350   78.6030  220.4980 C   0  0  0  0  0  0  0  0  0  0  0  0
  140.8419   79.1811  221.2933 H   0  0  0  0  0  0  0  0  0  0  0  0
  142.4016   78.8620  220.4255 H   0  0  0  0  0  0  0  0  0  0  0  0
  140.6620   78.9400  219.1400 C   0  0  0  0  0  0  0  0  0  0  0  0
  139.5862   79.0421  219.3453 H   0  0  0  0  0  0  0  0  0  0  0  0
  141.1480   80.2860  218.5640 C   0  0  0  0  0  0  0  0  0  0  0  0
  140.4795   80.5770  217.7403 H   0  0  0  0  0  0  0  0  0  0  0  0
  141.1325   81.0201  219.3830 H   0  0  0  0  0  0  0  0  0  0  0  0
  142.5940   80.2230  218.0260 C   0  0  0  0  0  0  0  0  0  0  0  0
  142.6901   80.9478  217.2041 H   0  0  0  0  0  0  0  0  0  0  0  0
  143.2603   80.4531  218.8705 H   0  0  0  0  0  0  0  0  0  0  0  0
  142.9850   78.8900  217.5200 N   0  0  0  0  0  0  0  0  0  0  0  0
  143.6910   79.0110  216.7560 H   0  0  0  0  0  0  0  0  0  0  0  0
  143.4430   78.3380  218.2840 H   0  0  0  0  0  0  0  0  0  0  0  0
  141.8460   78.1310  216.9910 C   0  0  0  0  0  0  0  0  0  0  0  0
  141.3412   78.7313  216.2197 H   0  0  0  0  0  0  0  0  0  0  0  0
  142.2214   77.1896  216.5635 H   0  0  0  0  0  0  0  0  0  0  0  0
  140.8390   77.7950  218.1060 C   0  0  0  0  0  0  0  0  0  0  0  0
  139.8625   77.5881  217.6437 H   0  0  0  0  0  0  0  0  0  0  0  0
  141.2336   76.9238  218.6494 H   0  0  0  0  0  0  0  0  0  0  0  0
  140.2860   79.3060  223.2600 C   0  0  0  0  0  0  0  0  0  0  0  0
  140.0660   80.6450  222.8970 C   0  0  0  0  0  0  0  0  0  0  0  0
  139.0831   80.9513  222.5096 H   0  0  0  0  0  0  0  0  0  0  0  0
  141.0590   81.5650  223.0210 N   0  0  0  0  0  0  0  0  0  0  0  0
  142.2910   81.2290  223.4870 C   0  0  0  0  0  0  0  0  0  0  0  0
  143.0715   81.9983  223.5817 H   0  0  0  0  0  0  0  0  0  0  0  0
  142.5660   79.9100  223.8450 C   0  0  0  0  0  0  0  0  0  0  0  0
  143.5635   79.6324  224.2164 H   0  0  0  0  0  0  0  0  0  0  0  0
  141.5640   78.9440  223.7280 C   0  0  0  0  0  0  0  0  0  0  0  0
  141.7733   77.8994  224.0017 H   0  0  0  0  0  0  0  0  0  0  0  0
  1  2  1  0
  2  3  2  0
  3  4  1  0
  3  5  1  0
  5  6  2  0
  6  7  1  0
  7  8  2  0
  8  9  1  0
  8 10  1  0
 10 11  1  0
 10 12  2  0
 12 13  1  0
 12 14  1  0
 14 15  1  0
 14 16  2  0
 16 17  1  0
 17 18  2  0
 17 19  1  0
 19 20  1  0
 20 21  1  0
 20 22  1  0
 20 23  1  0
 23 24  1  0
 23 25  1  0
 25 26  1  0
 25 27  1  0
 25 28  1  0
 28 29  1  0
 28 30  1  0
 28 31  1  0
 31 32  1  0
 31 33  1  0
 31 34  1  0
 34 35  1  0
 34 36  1  0
 34 37  1  0
 37 38  1  0
 37 39  1  0
  2 40  1  0
 40 41  2  0
 41 42  1  0
 41 43  1  0
 43 44  2  0
 44 45  1  0
 44 46  1  0
 46 47  1  0
 46 48  2  0
 48 49  1  0
 19  5  1  0
 37 23  1  0
 48 40  1  0
 16  7  1  0
M  CHG  1  31   1
M  END
>  <UniqueID>  (65) 
502

>  <SMILES>  (65) 
O=c1c2ccccc2nc(/C=C/c2cccnc2)n1CC1CC[NH2+]CC1

>  <Energy>  (65) 
71.37294245160794

>  <Genealogy>  (65) 
O=c1c2ccccc2nc(/C=C/c2cccnc2)n1CC1CC[NH2+]CC1 (protonated)
O=c1c2ccccc2nc(/C=C/c2cccnc2)n1CC1CC[NH2+]CC1 (cis-trans isomerization)
O=c1c2ccccc2nc(/C=C/c2cccnc2)n1CC1CC[NH2+]CC1 (3D coordinates assigned)
O=c1c2ccccc2nc(/C=C/c2cccnc2)n1CC1CC[NH2+]CC1 (nonaromatic ring conformer: 71.37294245160794 kcal/mol)

>  <smiles>  (65) 
O=c1c2ccccc2nc(/C=C/c2cccnc2)n1CC1CCNCC1

>  <score_type>  (65) 
oracle

>  <origin>  (65) 
autodockgpu

>  <m_score__min__energy>  (65) 
-7.5800000000000001

>  <m_primary>  (65) 
energy

>  <meeko>  (65) 
{"free_energy": -7.39, "intermolecular_energy": -8.88, "internal_energy": -2.15, "cluster_size": 20, "cluster_id": 1, "rank_in_cluster": 13}

>  <energy>  (65) 
-7.56

>  <cluster_rmsd>  (65) 
0.06

>  <rmsd>  (65) 
271.36

>  <cluster>  (65) 
1

$$$$
ACXZVNHFWDZWKJ-IDGBLARXNA-O
     RDKit          3D

 49 52  0  0  0  0  0  0  0  0999 V2000
  138.3171   78.4273  223.8666 H   0  0  0  0  0  0  0  0  0  0  0  0
  139.0970   78.4150  223.0910 C   0  0  0  0  0  0  0  0  0  0  0  0
  138.9520   77.5680  222.0600 C   0  0  0  0  0  0  0  0  0  0  0  0
  137.9862   77.5314  221.5347 H   0  0  0  0  0  0  0  0  0  0  0  0
  140.0570   76.6730  221.6010 C   0  0  0  0  0  0  0  0  0  0  0  0
  139.9730   75.3510  221.9080 N   0  0  0  0  0  0  0  0  0  0  0  0
  140.9160   74.4580  221.5360 C   0  0  0  0  0  0  0  0  0  0  0  0
  140.7790   73.1090  221.8840 C   0  0  0  0  0  0  0  0  0  0  0  0
  139.9038   72.7756  222.4609 H   0  0  0  0  0  0  0  0  0  0  0  0
  141.7550   72.1860  221.4980 C   0  0  0  0  0  0  0  0  0  0  0  0
  141.6478   71.1261  221.7722 H   0  0  0  0  0  0  0  0  0  0  0  0
  142.8670   72.6080  220.7640 C   0  0  0  0  0  0  0  0  0  0  0  0
  143.6335   71.8795  220.4610 H   0  0  0  0  0  0  0  0  0  0  0  0
  143.0070   73.9550  220.4140 C   0  0  0  0  0  0  0  0  0  0  0  0
  143.8830   74.2839  219.8356 H   0  0  0  0  0  0  0  0  0  0  0  0
  142.0280   74.8910  220.8010 C   0  0  0  0  0  0  0  0  0  0  0  0
  142.1200   76.2540  220.4760 C   0  0  0  0  0  0  0  0  0  0  0  0
  143.1130   76.6590  219.8070 O   0  0  0  0  0  0  0  0  0  0  0  0
  141.1430   77.1390  220.8790 N   0  0  0  0  0  0  0  0  0  0  0  0
  141.2780   78.5750  220.5320 C   0  0  0  0  0  0  0  0  0  0  0  0
  140.6946   79.1713  221.2489 H   0  0  0  0  0  0  0  0  0  0  0  0
  142.3449   78.8394  220.5753 H   0  0  0  0  0  0  0  0  0  0  0  0
  140.7640   78.8700  219.0960 C   0  0  0  0  0  0  0  0  0  0  0  0
  139.6680   78.9329  219.1662 H   0  0  0  0  0  0  0  0  0  0  0  0
  141.2650   80.2270  218.5620 C   0  0  0  0  0  0  0  0  0  0  0  0
  140.6922   80.4816  217.6581 H   0  0  0  0  0  0  0  0  0  0  0  0
  141.1208   80.9696  219.3606 H   0  0  0  0  0  0  0  0  0  0  0  0
  142.7680   80.2150  218.2060 C   0  0  0  0  0  0  0  0  0  0  0  0
  142.9370   80.9338  217.3907 H   0  0  0  0  0  0  0  0  0  0  0  0
  143.3163   80.4806  219.1218 H   0  0  0  0  0  0  0  0  0  0  0  0
  143.2680   78.8930  217.7730 N   0  0  0  0  0  0  0  0  0  0  0  0
  144.0560   79.0330  217.0990 H   0  0  0  0  0  0  0  0  0  0  0  0
  143.6490   78.3680  218.5960 H   0  0  0  0  0  0  0  0  0  0  0  0
  142.2310   78.0830  217.1210 C   0  0  0  0  0  0  0  0  0  0  0  0
  141.8016   78.6541  216.2847 H   0  0  0  0  0  0  0  0  0  0  0  0
  142.6911   77.1525  216.7570 H   0  0  0  0  0  0  0  0  0  0  0  0
  141.1090   77.7200  218.1110 C   0  0  0  0  0  0  0  0  0  0  0  0
  140.2048   77.4685  217.5372 H   0  0  0  0  0  0  0  0  0  0  0  0
  141.4669   76.8716  218.7127 H   0  0  0  0  0  0  0  0  0  0  0  0
  140.2510   79.3360  223.2430 C   0  0  0  0  0  0  0  0  0  0  0  0
  140.0950   80.6840  222.8810 C   0  0  0  0  0  0  0  0  0  0  0  0
  139.1259   81.0387  222.5002 H   0  0  0  0  0  0  0  0  0  0  0  0
  141.1340   81.5540  222.9980 N   0  0  0  0  0  0  0  0  0  0  0  0
  142.3510   81.1570  223.4550 C   0  0  0  0  0  0  0  0  0  0  0  0
  143.1696   81.8863  223.5441 H   0  0  0  0  0  0  0  0  0  0  0  0
  142.5620   79.8250  223.8110 C   0  0  0  0  0  0  0  0  0  0  0  0
  143.5469   79.4974  224.1752 H   0  0  0  0  0  0  0  0  0  0  0  0
  141.5120   78.9110  223.7010 C   0  0  0  0  0  0  0  0  0  0  0  0
  141.6708   77.8570  223.9728 H   0  0  0  0  0  0  0  0  0  0  0  0
  1  2  1  0
  2  3  2  0
  3  4  1  0
  3  5  1  0
  5  6  2  0
  6  7  1  0
  7  8  2  0
  8  9  1  0
  8 10  1  0
 10 11  1  0
 10 12  2  0
 12 13  1  0
 12 14  1  0
 14 15  1  0
 14 16  2  0
 16 17  1  0
 17 18  2  0
 17 19  1  0
 19 20  1  0
 20 21  1  0
 20 22  1  0
 20 23  1  0
 23 24  1  0
 23 25  1  0
 25 26  1  0
 25 27  1  0
 25 28  1  0
 28 29  1  0
 28 30  1  0
 28 31  1  0
 31 32  1  0
 31 33  1  0
 31 34  1  0
 34 35  1  0
 34 36  1  0
 34 37  1  0
 37 38  1  0
 37 39  1  0
  2 40  1  0
 40 41  2  0
 41 42  1  0
 41 43  1  0
 43 44  2  0
 44 45  1  0
 44 46  1  0
 46 47  1  0
 46 48  2  0
 48 49  1  0
 19  5  1  0
 37 23  1  0
 48 40  1  0
 16  7  1  0
M  CHG  1  31   1
M  END
>  <UniqueID>  (66) 
502

>  <SMILES>  (66) 
O=c1c2ccccc2nc(/C=C/c2cccnc2)n1CC1CC[NH2+]CC1

>  <Energy>  (66) 
71.37294245160794

>  <Genealogy>  (66) 
O=c1c2ccccc2nc(/C=C/c2cccnc2)n1CC1CC[NH2+]CC1 (protonated)
O=c1c2ccccc2nc(/C=C/c2cccnc2)n1CC1CC[NH2+]CC1 (cis-trans isomerization)
O=c1c2ccccc2nc(/C=C/c2cccnc2)n1CC1CC[NH2+]CC1 (3D coordinates assigned)
O=c1c2ccccc2nc(/C=C/c2cccnc2)n1CC1CC[NH2+]CC1 (nonaromatic ring conformer: 71.37294245160794 kcal/mol)

>  <smiles>  (66) 
O=c1c2ccccc2nc(/C=C/c2cccnc2)n1CC1CCNCC1

>  <score_type>  (66) 
oracle

>  <origin>  (66) 
autodockgpu

>  <m_score__min__energy>  (66) 
-7.5800000000000001

>  <m_primary>  (66) 
energy

>  <meeko>  (66) 
{"free_energy": -7.57, "intermolecular_energy": -9.06, "internal_energy": -1.98, "cluster_size": 20, "cluster_id": 1, "rank_in_cluster": 3}

>  <energy>  (66) 
-7.54

>  <cluster_rmsd>  (66) 
0.07

>  <rmsd>  (66) 
271.37

>  <cluster>  (66) 
1

$$$$
ACXZVNHFWDZWKJ-IDGBLARXNA-O
     RDKit          3D

 49 52  0  0  0  0  0  0  0  0999 V2000
  138.3299   78.3506  223.8716 H   0  0  0  0  0  0  0  0  0  0  0  0
  139.1070   78.3530  223.0930 C   0  0  0  0  0  0  0  0  0  0  0  0
  138.9710   77.5070  222.0590 C   0  0  0  0  0  0  0  0  0  0  0  0
  138.0062   77.4629  221.5325 H   0  0  0  0  0  0  0  0  0  0  0  0
  140.0840   76.6240  221.5990 C   0  0  0  0  0  0  0  0  0  0  0  0
  140.0190   75.3020  221.9160 N   0  0  0  0  0  0  0  0  0  0  0  0
  140.9720   74.4200  221.5440 C   0  0  0  0  0  0  0  0  0  0  0  0
  140.8550   73.0710  221.9020 C   0  0  0  0  0  0  0  0  0  0  0  0
  139.9879   72.7303  222.4869 H   0  0  0  0  0  0  0  0  0  0  0  0
  141.8400   72.1580  221.5160 C   0  0  0  0  0  0  0  0  0  0  0  0
  141.7489   71.0988  221.7986 H   0  0  0  0  0  0  0  0  0  0  0  0
  142.9410   72.5900  220.7710 C   0  0  0  0  0  0  0  0  0  0  0  0
  143.7150   71.8696  220.4680 H   0  0  0  0  0  0  0  0  0  0  0  0
  143.0610   73.9350  220.4100 C   0  0  0  0  0  0  0  0  0  0  0  0
  143.9284   74.2707  219.8228 H   0  0  0  0  0  0  0  0  0  0  0  0
  142.0730   74.8610  220.7970 C   0  0  0  0  0  0  0  0  0  0  0  0
  142.1450   76.2240  220.4620 C   0  0  0  0  0  0  0  0  0  0  0  0
  143.1270   76.6370  219.7830 O   0  0  0  0  0  0  0  0  0  0  0  0
  141.1590   77.0990  220.8660 N   0  0  0  0  0  0  0  0  0  0  0  0
  141.2720   78.5340  220.5080 C   0  0  0  0  0  0  0  0  0  0  0  0
  140.6738   79.1263  221.2161 H   0  0  0  0  0  0  0  0  0  0  0  0
  142.3339   78.8169  220.5562 H   0  0  0  0  0  0  0  0  0  0  0  0
  140.7630   78.8080  219.0670 C   0  0  0  0  0  0  0  0  0  0  0  0
  139.6657   78.8509  219.1302 H   0  0  0  0  0  0  0  0  0  0  0  0
  141.2440   80.1700  218.5250 C   0  0  0  0  0  0  0  0  0  0  0  0
  140.6729   80.4071  217.6153 H   0  0  0  0  0  0  0  0  0  0  0  0
  141.0815   80.9162  219.3167 H   0  0  0  0  0  0  0  0  0  0  0  0
  142.7490   80.1820  218.1790 C   0  0  0  0  0  0  0  0  0  0  0  0
  142.9104   80.8966  217.3585 H   0  0  0  0  0  0  0  0  0  0  0  0
  143.2861   80.4653  219.0962 H   0  0  0  0  0  0  0  0  0  0  0  0
  143.2760   78.8660  217.7610 N   0  0  0  0  0  0  0  0  0  0  0  0
  144.0660   79.0150  217.0910 H   0  0  0  0  0  0  0  0  0  0  0  0
  143.6610   78.3540  218.5900 H   0  0  0  0  0  0  0  0  0  0  0  0
  142.2590   78.0330  217.1080 C   0  0  0  0  0  0  0  0  0  0  0  0
  141.8258   78.5901  216.2642 H   0  0  0  0  0  0  0  0  0  0  0  0
  142.7386   77.1082  216.7549 H   0  0  0  0  0  0  0  0  0  0  0  0
  141.1360   77.6570  218.0920 C   0  0  0  0  0  0  0  0  0  0  0  0
  140.2408   77.3857  217.5132 H   0  0  0  0  0  0  0  0  0  0  0  0
  141.5042   76.8192  218.7023 H   0  0  0  0  0  0  0  0  0  0  0  0
  140.2470   79.2910  223.2440 C   0  0  0  0  0  0  0  0  0  0  0  0
  140.0710   80.6360  222.8830 C   0  0  0  0  0  0  0  0  0  0  0  0
  139.0963   80.9763  222.5034 H   0  0  0  0  0  0  0  0  0  0  0  0
  141.0960   81.5210  222.9990 N   0  0  0  0  0  0  0  0  0  0  0  0
  142.3200   81.1420  223.4540 C   0  0  0  0  0  0  0  0  0  0  0  0
  143.1276   81.8837  223.5420 H   0  0  0  0  0  0  0  0  0  0  0  0
  142.5520   79.8140  223.8090 C   0  0  0  0  0  0  0  0  0  0  0  0
  143.5423   79.5015  224.1718 H   0  0  0  0  0  0  0  0  0  0  0  0
  141.5160   78.8840  223.7000 C   0  0  0  0  0  0  0  0  0  0  0  0
  141.6912   77.8323  223.9706 H   0  0  0  0  0  0  0  0  0  0  0  0
  1  2  1  0
  2  3  2  0
  3  4  1  0
  3  5  1  0
  5  6  2  0
  6  7  1  0
  7  8  2  0
  8  9  1  0
  8 10  1  0
 10 11  1  0
 10 12  2  0
 12 13  1  0
 12 14  1  0
 14 15  1  0
 14 16  2  0
 16 17  1  0
 17 18  2  0
 17 19  1  0
 19 20  1  0
 20 21  1  0
 20 22  1  0
 20 23  1  0
 23 24  1  0
 23 25  1  0
 25 26  1  0
 25 27  1  0
 25 28  1  0
 28 29  1  0
 28 30  1  0
 28 31  1  0
 31 32  1  0
 31 33  1  0
 31 34  1  0
 34 35  1  0
 34 36  1  0
 34 37  1  0
 37 38  1  0
 37 39  1  0
  2 40  1  0
 40 41  2  0
 41 42  1  0
 41 43  1  0
 43 44  2  0
 44 45  1  0
 44 46  1  0
 46 47  1  0
 46 48  2  0
 48 49  1  0
 19  5  1  0
 37 23  1  0
 48 40  1  0
 16  7  1  0
M  CHG  1  31   1
M  END
>  <UniqueID>  (67) 
502

>  <SMILES>  (67) 
O=c1c2ccccc2nc(/C=C/c2cccnc2)n1CC1CC[NH2+]CC1

>  <Energy>  (67) 
71.37294245160794

>  <Genealogy>  (67) 
O=c1c2ccccc2nc(/C=C/c2cccnc2)n1CC1CC[NH2+]CC1 (protonated)
O=c1c2ccccc2nc(/C=C/c2cccnc2)n1CC1CC[NH2+]CC1 (cis-trans isomerization)
O=c1c2ccccc2nc(/C=C/c2cccnc2)n1CC1CC[NH2+]CC1 (3D coordinates assigned)
O=c1c2ccccc2nc(/C=C/c2cccnc2)n1CC1CC[NH2+]CC1 (nonaromatic ring conformer: 71.37294245160794 kcal/mol)

>  <smiles>  (67) 
O=c1c2ccccc2nc(/C=C/c2cccnc2)n1CC1CCNCC1

>  <score_type>  (67) 
oracle

>  <origin>  (67) 
autodockgpu

>  <m_score__min__energy>  (67) 
-7.5800000000000001

>  <m_primary>  (67) 
energy

>  <meeko>  (67) 
{"free_energy": -7.58, "intermolecular_energy": -9.07, "internal_energy": -1.97, "cluster_size": 20, "cluster_id": 1, "rank_in_cluster": 1}

>  <energy>  (67) 
-7.4

>  <cluster_rmsd>  (67) 
0.2

>  <rmsd>  (67) 
271.33

>  <cluster>  (67) 
1

$$$$
ACXZVNHFWDZWKJ-IDGBLARXNA-O
     RDKit          3D

 49 52  0  0  0  0  0  0  0  0999 V2000
  138.4335   78.2499  223.8927 H   0  0  0  0  0  0  0  0  0  0  0  0
  139.1840   78.3250  223.0920 C   0  0  0  0  0  0  0  0  0  0  0  0
  139.0500   77.5270  222.0200 C   0  0  0  0  0  0  0  0  0  0  0  0
  138.0877   77.5107  221.4873 H   0  0  0  0  0  0  0  0  0  0  0  0
  140.1620   76.6610  221.5260 C   0  0  0  0  0  0  0  0  0  0  0  0
  140.0980   75.3290  221.7990 N   0  0  0  0  0  0  0  0  0  0  0  0
  141.0490   74.4600  221.3940 C   0  0  0  0  0  0  0  0  0  0  0  0
  140.9340   73.1000  221.7070 C   0  0  0  0  0  0  0  0  0  0  0  0
  140.0693   72.7394  222.2834 H   0  0  0  0  0  0  0  0  0  0  0  0
  141.9180   72.2010  221.2870 C   0  0  0  0  0  0  0  0  0  0  0  0
  141.8283   71.1329  221.5343 H   0  0  0  0  0  0  0  0  0  0  0  0
  143.0160   72.6580  220.5530 C   0  0  0  0  0  0  0  0  0  0  0  0
  143.7888   71.9482  220.2229 H   0  0  0  0  0  0  0  0  0  0  0  0
  143.1350   74.0150  220.2370 C   0  0  0  0  0  0  0  0  0  0  0  0
  144.0002   74.3706  219.6583 H   0  0  0  0  0  0  0  0  0  0  0  0
  142.1480   74.9270  220.6590 C   0  0  0  0  0  0  0  0  0  0  0  0
  142.2180   76.3000  220.3690 C   0  0  0  0  0  0  0  0  0  0  0  0
  143.1980   76.7360  219.7010 O   0  0  0  0  0  0  0  0  0  0  0  0
  141.2340   77.1610  220.8060 N   0  0  0  0  0  0  0  0  0  0  0  0
  141.3450   78.6070  220.4960 C   0  0  0  0  0  0  0  0  0  0  0  0
  140.8600   79.1818  221.2987 H   0  0  0  0  0  0  0  0  0  0  0  0
  142.4127   78.8601  220.4194 H   0  0  0  0  0  0  0  0  0  0  0  0
  140.6660   78.9590  219.1440 C   0  0  0  0  0  0  0  0  0  0  0  0
  139.5926   79.0704  219.3572 H   0  0  0  0  0  0  0  0  0  0  0  0
  141.1600   80.3040  218.5730 C   0  0  0  0  0  0  0  0  0  0  0  0
  140.4884   80.6065  217.7560 H   0  0  0  0  0  0  0  0  0  0  0  0
  141.1570   81.0335  219.3963 H   0  0  0  0  0  0  0  0  0  0  0  0
  142.6020   80.2300  218.0240 C   0  0  0  0  0  0  0  0  0  0  0  0
  142.6993   80.9583  217.2054 H   0  0  0  0  0  0  0  0  0  0  0  0
  143.2767   80.4491  218.8647 H   0  0  0  0  0  0  0  0  0  0  0  0
  142.9760   78.8960  217.5080 N   0  0  0  0  0  0  0  0  0  0  0  0
  143.6770   79.0150  216.7390 H   0  0  0  0  0  0  0  0  0  0  0  0
  143.4340   78.3350  218.2640 H   0  0  0  0  0  0  0  0  0  0  0  0
  141.8260   78.1510  216.9820 C   0  0  0  0  0  0  0  0  0  0  0  0
  141.3216   78.7608  216.2179 H   0  0  0  0  0  0  0  0  0  0  0  0
  142.1892   77.2088  216.5458 H   0  0  0  0  0  0  0  0  0  0  0  0
  140.8240   77.8180  218.1020 C   0  0  0  0  0  0  0  0  0  0  0  0
  139.8422   77.6234  217.6457 H   0  0  0  0  0  0  0  0  0  0  0  0
  141.2136   76.9395  218.6372 H   0  0  0  0  0  0  0  0  0  0  0  0
  140.2880   79.3020  223.2560 C   0  0  0  0  0  0  0  0  0  0  0  0
  140.0680   80.6420  222.8970 C   0  0  0  0  0  0  0  0  0  0  0  0
  139.0857   80.9490  222.5086 H   0  0  0  0  0  0  0  0  0  0  0  0
  141.0600   81.5620  223.0260 N   0  0  0  0  0  0  0  0  0  0  0  0
  142.2920   81.2260  223.4930 C   0  0  0  0  0  0  0  0  0  0  0  0
  143.0718   81.9956  223.5909 H   0  0  0  0  0  0  0  0  0  0  0  0
  142.5670   79.9050  223.8480 C   0  0  0  0  0  0  0  0  0  0  0  0
  143.5635   79.6263  224.2212 H   0  0  0  0  0  0  0  0  0  0  0  0
  141.5650   78.9400  223.7250 C   0  0  0  0  0  0  0  0  0  0  0  0
  141.7741   77.8944  223.9953 H   0  0  0  0  0  0  0  0  0  0  0  0
  1  2  1  0
  2  3  2  0
  3  4  1  0
  3  5  1  0
  5  6  2  0
  6  7  1  0
  7  8  2  0
  8  9  1  0
  8 10  1  0
 10 11  1  0
 10 12  2  0
 12 13  1  0
 12 14  1  0
 14 15  1  0
 14 16  2  0
 16 17  1  0
 17 18  2  0
 17 19  1  0
 19 20  1  0
 20 21  1  0
 20 22  1  0
 20 23  1  0
 23 24  1  0
 23 25  1  0
 25 26  1  0
 25 27  1  0
 25 28  1  0
 28 29  1  0
 28 30  1  0
 28 31  1  0
 31 32  1  0
 31 33  1  0
 31 34  1  0
 34 35  1  0
 34 36  1  0
 34 37  1  0
 37 38  1  0
 37 39  1  0
  2 40  1  0
 40 41  2  0
 41 42  1  0
 41 43  1  0
 43 44  2  0
 44 45  1  0
 44 46  1  0
 46 47  1  0
 46 48  2  0
 48 49  1  0
 19  5  1  0
 37 23  1  0
 48 40  1  0
 16  7  1  0
M  CHG  1  31   1
M  END
>  <UniqueID>  (68) 
502

>  <SMILES>  (68) 
O=c1c2ccccc2nc(/C=C/c2cccnc2)n1CC1CC[NH2+]CC1

>  <Energy>  (68) 
71.37294245160794

>  <Genealogy>  (68) 
O=c1c2ccccc2nc(/C=C/c2cccnc2)n1CC1CC[NH2+]CC1 (protonated)
O=c1c2ccccc2nc(/C=C/c2cccnc2)n1CC1CC[NH2+]CC1 (cis-trans isomerization)
O=c1c2ccccc2nc(/C=C/c2cccnc2)n1CC1CC[NH2+]CC1 (3D coordinates assigned)
O=c1c2ccccc2nc(/C=C/c2cccnc2)n1CC1CC[NH2+]CC1 (nonaromatic ring conformer: 71.37294245160794 kcal/mol)

>  <smiles>  (68) 
O=c1c2ccccc2nc(/C=C/c2cccnc2)n1CC1CCNCC1

>  <score_type>  (68) 
oracle

>  <origin>  (68) 
autodockgpu

>  <m_score__min__energy>  (68) 
-7.5800000000000001

>  <m_primary>  (68) 
energy

>  <meeko>  (68) 
{"free_energy": -7.38, "intermolecular_energy": -8.88, "internal_energy": -2.15, "cluster_size": 20, "cluster_id": 1, "rank_in_cluster": 18}

>  <energy>  (68) 
-7.4

>  <cluster_rmsd>  (68) 
0.21

>  <rmsd>  (68) 
271.34

>  <cluster>  (68) 
1

$$$$
ACXZVNHFWDZWKJ-IDGBLARXNA-O
     RDKit          3D

 49 52  0  0  0  0  0  0  0  0999 V2000
  138.4200   78.3059  223.9127 H   0  0  0  0  0  0  0  0  0  0  0  0
  139.1700   78.3740  223.1110 C   0  0  0  0  0  0  0  0  0  0  0  0
  139.0330   77.5690  222.0440 C   0  0  0  0  0  0  0  0  0  0  0  0
  138.0714   77.5537  221.5101 H   0  0  0  0  0  0  0  0  0  0  0  0
  140.1420   76.6940  221.5580 C   0  0  0  0  0  0  0  0  0  0  0  0
  140.0670   75.3640  221.8320 N   0  0  0  0  0  0  0  0  0  0  0  0
  141.0150   74.4880  221.4340 C   0  0  0  0  0  0  0  0  0  0  0  0
  140.8890   73.1290  221.7480 C   0  0  0  0  0  0  0  0  0  0  0  0
  140.0185   72.7750  222.3198 H   0  0  0  0  0  0  0  0  0  0  0  0
  141.8690   72.2230  221.3350 C   0  0  0  0  0  0  0  0  0  0  0  0
  141.7708   71.1560  221.5839 H   0  0  0  0  0  0  0  0  0  0  0  0
  142.9740   72.6710  220.6060 C   0  0  0  0  0  0  0  0  0  0  0  0
  143.7434   71.9553  220.2808 H   0  0  0  0  0  0  0  0  0  0  0  0
  143.1040   74.0260  220.2890 C   0  0  0  0  0  0  0  0  0  0  0  0
  143.9750   74.3746  219.7147 H   0  0  0  0  0  0  0  0  0  0  0  0
  142.1210   74.9460  220.7040 C   0  0  0  0  0  0  0  0  0  0  0  0
  142.2020   76.3180  220.4120 C   0  0  0  0  0  0  0  0  0  0  0  0
  143.1880   76.7460  219.7490 O   0  0  0  0  0  0  0  0  0  0  0  0
  141.2210   77.1860  220.8430 N   0  0  0  0  0  0  0  0  0  0  0  0
  141.3440   78.6310  220.5310 C   0  0  0  0  0  0  0  0  0  0  0  0
  140.8621   79.2109  221.3319 H   0  0  0  0  0  0  0  0  0  0  0  0
  142.4138   78.8757  220.4560 H   0  0  0  0  0  0  0  0  0  0  0  0
  140.6700   78.9860  219.1770 C   0  0  0  0  0  0  0  0  0  0  0  0
  139.5975   79.1084  219.3885 H   0  0  0  0  0  0  0  0  0  0  0  0
  141.1790   80.3240  218.6030 C   0  0  0  0  0  0  0  0  0  0  0  0
  140.5120   80.6307  217.7838 H   0  0  0  0  0  0  0  0  0  0  0  0
  141.1821   81.0554  219.4246 H   0  0  0  0  0  0  0  0  0  0  0  0
  142.6210   80.2350  218.0570 C   0  0  0  0  0  0  0  0  0  0  0  0
  142.7268   80.9603  217.2368 H   0  0  0  0  0  0  0  0  0  0  0  0
  143.2963   80.4499  218.8983 H   0  0  0  0  0  0  0  0  0  0  0  0
  142.9830   78.8960  217.5450 N   0  0  0  0  0  0  0  0  0  0  0  0
  143.6860   79.0060  216.7770 H   0  0  0  0  0  0  0  0  0  0  0  0
  143.4340   78.3320  218.3040 H   0  0  0  0  0  0  0  0  0  0  0  0
  141.8260   78.1610  217.0190 C   0  0  0  0  0  0  0  0  0  0  0  0
  141.3290   78.7738  216.2526 H   0  0  0  0  0  0  0  0  0  0  0  0
  142.1805   77.2140  216.5860 H   0  0  0  0  0  0  0  0  0  0  0  0
  140.8190   77.8410  218.1380 C   0  0  0  0  0  0  0  0  0  0  0  0
  139.8362   77.6548  217.6804 H   0  0  0  0  0  0  0  0  0  0  0  0
  141.1994   76.9603  218.6763 H   0  0  0  0  0  0  0  0  0  0  0  0
  140.2770   79.3500  223.2680 C   0  0  0  0  0  0  0  0  0  0  0  0
  140.0570   80.6890  222.9080 C   0  0  0  0  0  0  0  0  0  0  0  0
  139.0733   80.9969  222.5239 H   0  0  0  0  0  0  0  0  0  0  0  0
  141.0520   81.6080  223.0310 N   0  0  0  0  0  0  0  0  0  0  0  0
  142.2850   81.2700  223.4910 C   0  0  0  0  0  0  0  0  0  0  0  0
  143.0667   82.0383  223.5843 H   0  0  0  0  0  0  0  0  0  0  0  0
  142.5600   79.9490  223.8450 C   0  0  0  0  0  0  0  0  0  0  0  0
  143.5584   79.6691  224.2121 H   0  0  0  0  0  0  0  0  0  0  0  0
  141.5560   78.9850  223.7290 C   0  0  0  0  0  0  0  0  0  0  0  0
  141.7650   77.9391  223.9982 H   0  0  0  0  0  0  0  0  0  0  0  0
  1  2  1  0
  2  3  2  0
  3  4  1  0
  3  5  1  0
  5  6  2  0
  6  7  1  0
  7  8  2  0
  8  9  1  0
  8 10  1  0
 10 11  1  0
 10 12  2  0
 12 13  1  0
 12 14  1  0
 14 15  1  0
 14 16  2  0
 16 17  1  0
 17 18  2  0
 17 19  1  0
 19 20  1  0
 20 21  1  0
 20 22  1  0
 20 23  1  0
 23 24  1  0
 23 25  1  0
 25 26  1  0
 25 27  1  0
 25 28  1  0
 28 29  1  0
 28 30  1  0
 28 31  1  0
 31 32  1  0
 31 33  1  0
 31 34  1  0
 34 35  1  0
 34 36  1  0
 34 37  1  0
 37 38  1  0
 37 39  1  0
  2 40  1  0
 40 41  2  0
 41 42  1  0
 41 43  1  0
 43 44  2  0
 44 45  1  0
 44 46  1  0
 46 47  1  0
 46 48  2  0
 48 49  1  0
 19  5  1  0
 37 23  1  0
 48 40  1  0
 16  7  1  0
M  CHG  1  31   1
M  END
>  <UniqueID>  (69) 
502

>  <SMILES>  (69) 
O=c1c2ccccc2nc(/C=C/c2cccnc2)n1CC1CC[NH2+]CC1

>  <Energy>  (69) 
71.37294245160794

>  <Genealogy>  (69) 
O=c1c2ccccc2nc(/C=C/c2cccnc2)n1CC1CC[NH2+]CC1 (protonated)
O=c1c2ccccc2nc(/C=C/c2cccnc2)n1CC1CC[NH2+]CC1 (cis-trans isomerization)
O=c1c2ccccc2nc(/C=C/c2cccnc2)n1CC1CC[NH2+]CC1 (3D coordinates assigned)
O=c1c2ccccc2nc(/C=C/c2cccnc2)n1CC1CC[NH2+]CC1 (nonaromatic ring conformer: 71.37294245160794 kcal/mol)

>  <smiles>  (69) 
O=c1c2ccccc2nc(/C=C/c2cccnc2)n1CC1CCNCC1

>  <score_type>  (69) 
oracle

>  <origin>  (69) 
autodockgpu

>  <m_score__min__energy>  (69) 
-7.5800000000000001

>  <m_primary>  (69) 
energy

>  <meeko>  (69) 
{"free_energy": -7.39, "intermolecular_energy": -8.88, "internal_energy": -2.13, "cluster_size": 20, "cluster_id": 1, "rank_in_cluster": 14}

>  <energy>  (69) 
-7.4

>  <cluster_rmsd>  (69) 
0.21

>  <rmsd>  (69) 
271.32

>  <cluster>  (69) 
1

$$$$
ACXZVNHFWDZWKJ-IDGBLARXNA-O
     RDKit          3D

 49 52  0  0  0  0  0  0  0  0999 V2000
  138.4306   78.2615  223.8973 H   0  0  0  0  0  0  0  0  0  0  0  0
  139.1800   78.3510  223.0970 C   0  0  0  0  0  0  0  0  0  0  0  0
  139.0490   77.5660  222.0150 C   0  0  0  0  0  0  0  0  0  0  0  0
  138.0942   77.5705  221.4688 H   0  0  0  0  0  0  0  0  0  0  0  0
  140.1540   76.6870  221.5270 C   0  0  0  0  0  0  0  0  0  0  0  0
  140.0730   75.3570  221.8000 N   0  0  0  0  0  0  0  0  0  0  0  0
  141.0170   74.4770  221.4000 C   0  0  0  0  0  0  0  0  0  0  0  0
  140.8850   73.1180  221.7120 C   0  0  0  0  0  0  0  0  0  0  0  0
  140.0132   72.7667  222.2835 H   0  0  0  0  0  0  0  0  0  0  0  0
  141.8610   72.2090  221.2970 C   0  0  0  0  0  0  0  0  0  0  0  0
  141.7574   71.1418  221.5428 H   0  0  0  0  0  0  0  0  0  0  0  0
  142.9690   72.6530  220.5700 C   0  0  0  0  0  0  0  0  0  0  0  0
  143.7356   71.9345  220.2442 H   0  0  0  0  0  0  0  0  0  0  0  0
  143.1050   74.0090  220.2560 C   0  0  0  0  0  0  0  0  0  0  0  0
  143.9780   74.3552  219.6832 H   0  0  0  0  0  0  0  0  0  0  0  0
  142.1260   74.9320  220.6720 C   0  0  0  0  0  0  0  0  0  0  0  0
  142.2130   76.3040  220.3830 C   0  0  0  0  0  0  0  0  0  0  0  0
  143.2020   76.7290  219.7210 O   0  0  0  0  0  0  0  0  0  0  0  0
  141.2350   77.1750  220.8140 N   0  0  0  0  0  0  0  0  0  0  0  0
  141.3650   78.6200  220.5050 C   0  0  0  0  0  0  0  0  0  0  0  0
  140.8909   79.2008  221.3099 H   0  0  0  0  0  0  0  0  0  0  0  0
  142.4358   78.8587  220.4250 H   0  0  0  0  0  0  0  0  0  0  0  0
  140.6860   78.9820  219.1560 C   0  0  0  0  0  0  0  0  0  0  0  0
  139.6149   79.1071  219.3728 H   0  0  0  0  0  0  0  0  0  0  0  0
  141.1960   80.3210  218.5850 C   0  0  0  0  0  0  0  0  0  0  0  0
  140.5257   80.6334  217.7707 H   0  0  0  0  0  0  0  0  0  0  0  0
  141.2056   81.0492  219.4094 H   0  0  0  0  0  0  0  0  0  0  0  0
  142.6350   80.2290  218.0310 C   0  0  0  0  0  0  0  0  0  0  0  0
  142.7389   80.9571  217.2130 H   0  0  0  0  0  0  0  0  0  0  0  0
  143.3152   80.4382  218.8698 H   0  0  0  0  0  0  0  0  0  0  0  0
  142.9900   78.8910  217.5120 N   0  0  0  0  0  0  0  0  0  0  0  0
  143.6900   79.0010  216.7410 H   0  0  0  0  0  0  0  0  0  0  0  0
  143.4430   78.3230  218.2670 H   0  0  0  0  0  0  0  0  0  0  0  0
  141.8280   78.1620  216.9890 C   0  0  0  0  0  0  0  0  0  0  0  0
  141.3292   78.7794  216.2275 H   0  0  0  0  0  0  0  0  0  0  0  0
  142.1769   77.2155  216.5503 H   0  0  0  0  0  0  0  0  0  0  0  0
  140.8250   77.8410  218.1130 C   0  0  0  0  0  0  0  0  0  0  0  0
  139.8391   77.6600  217.6600 H   0  0  0  0  0  0  0  0  0  0  0  0
  141.2048   76.9569  218.6460 H   0  0  0  0  0  0  0  0  0  0  0  0
  140.2790   79.3320  223.2730 C   0  0  0  0  0  0  0  0  0  0  0  0
  140.0430   80.6790  222.9540 C   0  0  0  0  0  0  0  0  0  0  0  0
  139.0528   80.9885  222.5884 H   0  0  0  0  0  0  0  0  0  0  0  0
  141.0300   81.6030  223.0940 N   0  0  0  0  0  0  0  0  0  0  0  0
  142.2700   81.2640  223.5340 C   0  0  0  0  0  0  0  0  0  0  0  0
  143.0450   82.0371  223.6426 H   0  0  0  0  0  0  0  0  0  0  0  0
  142.5610   79.9370  223.8480 C   0  0  0  0  0  0  0  0  0  0  0  0
  143.5652   79.6567  224.1987 H   0  0  0  0  0  0  0  0  0  0  0  0
  141.5650   78.9670  223.7130 C   0  0  0  0  0  0  0  0  0  0  0  0
  141.7862   77.9161  223.9510 H   0  0  0  0  0  0  0  0  0  0  0  0
  1  2  1  0
  2  3  2  0
  3  4  1  0
  3  5  1  0
  5  6  2  0
  6  7  1  0
  7  8  2  0
  8  9  1  0
  8 10  1  0
 10 11  1  0
 10 12  2  0
 12 13  1  0
 12 14  1  0
 14 15  1  0
 14 16  2  0
 16 17  1  0
 17 18  2  0
 17 19  1  0
 19 20  1  0
 20 21  1  0
 20 22  1  0
 20 23  1  0
 23 24  1  0
 23 25  1  0
 25 26  1  0
 25 27  1  0
 25 28  1  0
 28 29  1  0
 28 30  1  0
 28 31  1  0
 31 32  1  0
 31 33  1  0
 31 34  1  0
 34 35  1  0
 34 36  1  0
 34 37  1  0
 37 38  1  0
 37 39  1  0
  2 40  1  0
 40 41  2  0
 41 42  1  0
 41 43  1  0
 43 44  2  0
 44 45  1  0
 44 46  1  0
 46 47  1  0
 46 48  2  0
 48 49  1  0
 19  5  1  0
 37 23  1  0
 48 40  1  0
 16  7  1  0
M  CHG  1  31   1
M  END
>  <UniqueID>  (70) 
502

>  <SMILES>  (70) 
O=c1c2ccccc2nc(/C=C/c2cccnc2)n1CC1CC[NH2+]CC1

>  <Energy>  (70) 
71.37294245160794

>  <Genealogy>  (70) 
O=c1c2ccccc2nc(/C=C/c2cccnc2)n1CC1CC[NH2+]CC1 (protonated)
O=c1c2ccccc2nc(/C=C/c2cccnc2)n1CC1CC[NH2+]CC1 (cis-trans isomerization)
O=c1c2ccccc2nc(/C=C/c2cccnc2)n1CC1CC[NH2+]CC1 (3D coordinates assigned)
O=c1c2ccccc2nc(/C=C/c2cccnc2)n1CC1CC[NH2+]CC1 (nonaromatic ring conformer: 71.37294245160794 kcal/mol)

>  <smiles>  (70) 
O=c1c2ccccc2nc(/C=C/c2cccnc2)n1CC1CCNCC1

>  <score_type>  (70) 
oracle

>  <origin>  (70) 
autodockgpu

>  <m_score__min__energy>  (70) 
-7.5800000000000001

>  <m_primary>  (70) 
energy

>  <meeko>  (70) 
{"free_energy": -7.38, "intermolecular_energy": -8.87, "internal_energy": -2.15, "cluster_size": 20, "cluster_id": 1, "rank_in_cluster": 19}

>  <energy>  (70) 
-7.4

>  <cluster_rmsd>  (70) 
0.21

>  <rmsd>  (70) 
271.31

>  <cluster>  (70) 
1

$$$$
ACXZVNHFWDZWKJ-IDGBLARXNA-O
     RDKit          3D

 49 52  0  0  0  0  0  0  0  0999 V2000
  138.4400   78.2308  223.8948 H   0  0  0  0  0  0  0  0  0  0  0  0
  139.1860   78.3160  223.0910 C   0  0  0  0  0  0  0  0  0  0  0  0
  139.0530   77.5220  222.0150 C   0  0  0  0  0  0  0  0  0  0  0  0
  138.0917   77.5091  221.4804 H   0  0  0  0  0  0  0  0  0  0  0  0
  140.1640   76.6570  221.5200 C   0  0  0  0  0  0  0  0  0  0  0  0
  140.0980   75.3240  221.7850 N   0  0  0  0  0  0  0  0  0  0  0  0
  141.0490   74.4550  221.3780 C   0  0  0  0  0  0  0  0  0  0  0  0
  140.9300   73.0940  221.6820 C   0  0  0  0  0  0  0  0  0  0  0  0
  140.0624   72.7314  222.2528 H   0  0  0  0  0  0  0  0  0  0  0  0
  141.9140   72.1960  221.2600 C   0  0  0  0  0  0  0  0  0  0  0  0
  141.8218   71.1267  221.5011 H   0  0  0  0  0  0  0  0  0  0  0  0
  143.0150   72.6550  220.5320 C   0  0  0  0  0  0  0  0  0  0  0  0
  143.7877   71.9458  220.2005 H   0  0  0  0  0  0  0  0  0  0  0  0
  143.1370   74.0130  220.2240 C   0  0  0  0  0  0  0  0  0  0  0  0
  144.0046   74.3705  219.6500 H   0  0  0  0  0  0  0  0  0  0  0  0
  142.1500   74.9240  220.6480 C   0  0  0  0  0  0  0  0  0  0  0  0
  142.2230   76.2990  220.3670 C   0  0  0  0  0  0  0  0  0  0  0  0
  143.2060   76.7370  219.7040 O   0  0  0  0  0  0  0  0  0  0  0  0
  141.2390   77.1590  220.8060 N   0  0  0  0  0  0  0  0  0  0  0  0
  141.3540   78.6070  220.5040 C   0  0  0  0  0  0  0  0  0  0  0  0
  140.8705   79.1787  221.3098 H   0  0  0  0  0  0  0  0  0  0  0  0
  142.4224   78.8578  220.4290 H   0  0  0  0  0  0  0  0  0  0  0  0
  140.6760   78.9680  219.1540 C   0  0  0  0  0  0  0  0  0  0  0  0
  139.6031   79.0834  219.3677 H   0  0  0  0  0  0  0  0  0  0  0  0
  141.1770   80.3130  218.5890 C   0  0  0  0  0  0  0  0  0  0  0  0
  140.5069   80.6222  217.7733 H   0  0  0  0  0  0  0  0  0  0  0  0
  141.1777   81.0382  219.4161 H   0  0  0  0  0  0  0  0  0  0  0  0
  142.6180   80.2360  218.0400 C   0  0  0  0  0  0  0  0  0  0  0  0
  142.7183   80.9675  217.2246 H   0  0  0  0  0  0  0  0  0  0  0  0
  143.2938   80.4491  218.8813 H   0  0  0  0  0  0  0  0  0  0  0  0
  142.9860   78.9020  217.5180 N   0  0  0  0  0  0  0  0  0  0  0  0
  143.6880   79.0220  216.7500 H   0  0  0  0  0  0  0  0  0  0  0  0
  143.4420   78.3350  218.2720 H   0  0  0  0  0  0  0  0  0  0  0  0
  141.8330   78.1650  216.9880 C   0  0  0  0  0  0  0  0  0  0  0  0
  141.3315   78.7808  216.2269 H   0  0  0  0  0  0  0  0  0  0  0  0
  142.1919   77.2234  216.5470 H   0  0  0  0  0  0  0  0  0  0  0  0
  140.8290   77.8310  218.1070 C   0  0  0  0  0  0  0  0  0  0  0  0
  139.8464   77.6427  217.6498 H   0  0  0  0  0  0  0  0  0  0  0  0
  141.2147   76.9484  218.6382 H   0  0  0  0  0  0  0  0  0  0  0  0
  140.2830   79.3010  223.2550 C   0  0  0  0  0  0  0  0  0  0  0  0
  140.0540   80.6390  222.8970 C   0  0  0  0  0  0  0  0  0  0  0  0
  139.0695   80.9393  222.5090 H   0  0  0  0  0  0  0  0  0  0  0  0
  141.0390   81.5660  223.0260 N   0  0  0  0  0  0  0  0  0  0  0  0
  142.2740   81.2370  223.4910 C   0  0  0  0  0  0  0  0  0  0  0  0
  143.0490   82.0115  223.5885 H   0  0  0  0  0  0  0  0  0  0  0  0
  142.5580   79.9190  223.8440 C   0  0  0  0  0  0  0  0  0  0  0  0
  143.5571   79.6475  224.2157 H   0  0  0  0  0  0  0  0  0  0  0  0
  141.5640   78.9460  223.7220 C   0  0  0  0  0  0  0  0  0  0  0  0
  141.7812   77.9017  223.9907 H   0  0  0  0  0  0  0  0  0  0  0  0
  1  2  1  0
  2  3  2  0
  3  4  1  0
  3  5  1  0
  5  6  2  0
  6  7  1  0
  7  8  2  0
  8  9  1  0
  8 10  1  0
 10 11  1  0
 10 12  2  0
 12 13  1  0
 12 14  1  0
 14 15  1  0
 14 16  2  0
 16 17  1  0
 17 18  2  0
 17 19  1  0
 19 20  1  0
 20 21  1  0
 20 22  1  0
 20 23  1  0
 23 24  1  0
 23 25  1  0
 25 26  1  0
 25 27  1  0
 25 28  1  0
 28 29  1  0
 28 30  1  0
 28 31  1  0
 31 32  1  0
 31 33  1  0
 31 34  1  0
 34 35  1  0
 34 36  1  0
 34 37  1  0
 37 38  1  0
 37 39  1  0
  2 40  1  0
 40 41  2  0
 41 42  1  0
 41 43  1  0
 43 44  2  0
 44 45  1  0
 44 46  1  0
 46 47  1  0
 46 48  2  0
 48 49  1  0
 19  5  1  0
 37 23  1  0
 48 40  1  0
 16  7  1  0
M  CHG  1  31   1
M  END
>  <UniqueID>  (71) 
502

>  <SMILES>  (71) 
O=c1c2ccccc2nc(/C=C/c2cccnc2)n1CC1CC[NH2+]CC1

>  <Energy>  (71) 
71.37294245160794

>  <Genealogy>  (71) 
O=c1c2ccccc2nc(/C=C/c2cccnc2)n1CC1CC[NH2+]CC1 (protonated)
O=c1c2ccccc2nc(/C=C/c2cccnc2)n1CC1CC[NH2+]CC1 (cis-trans isomerization)
O=c1c2ccccc2nc(/C=C/c2cccnc2)n1CC1CC[NH2+]CC1 (3D coordinates assigned)
O=c1c2ccccc2nc(/C=C/c2cccnc2)n1CC1CC[NH2+]CC1 (nonaromatic ring conformer: 71.37294245160794 kcal/mol)

>  <smiles>  (71) 
O=c1c2ccccc2nc(/C=C/c2cccnc2)n1CC1CCNCC1

>  <score_type>  (71) 
oracle

>  <origin>  (71) 
autodockgpu

>  <m_score__min__energy>  (71) 
-7.5800000000000001

>  <m_primary>  (71) 
energy

>  <meeko>  (71) 
{"free_energy": -7.38, "intermolecular_energy": -8.88, "internal_energy": -2.14, "cluster_size": 20, "cluster_id": 1, "rank_in_cluster": 17}

>  <energy>  (71) 
-7.4

>  <cluster_rmsd>  (71) 
0.21

>  <rmsd>  (71) 
271.33

>  <cluster>  (71) 
1

$$$$
ACXZVNHFWDZWKJ-IDGBLARXNA-O
     RDKit          3D

 49 52  0  0  0  0  0  0  0  0999 V2000
  138.4254   78.3054  223.9172 H   0  0  0  0  0  0  0  0  0  0  0  0
  139.1750   78.3720  223.1150 C   0  0  0  0  0  0  0  0  0  0  0  0
  139.0360   77.5670  222.0480 C   0  0  0  0  0  0  0  0  0  0  0  0
  138.0734   77.5522  221.5158 H   0  0  0  0  0  0  0  0  0  0  0  0
  140.1430   76.6920  221.5600 C   0  0  0  0  0  0  0  0  0  0  0  0
  140.0700   75.3620  221.8380 N   0  0  0  0  0  0  0  0  0  0  0  0
  141.0170   74.4850  221.4380 C   0  0  0  0  0  0  0  0  0  0  0  0
  140.8920   73.1270  221.7550 C   0  0  0  0  0  0  0  0  0  0  0  0
  140.0235   72.7740  222.3305 H   0  0  0  0  0  0  0  0  0  0  0  0
  141.8710   72.2200  221.3400 C   0  0  0  0  0  0  0  0  0  0  0  0
  141.7737   71.1535  221.5910 H   0  0  0  0  0  0  0  0  0  0  0  0
  142.9740   72.6670  220.6060 C   0  0  0  0  0  0  0  0  0  0  0  0
  143.7427   71.9510  220.2796 H   0  0  0  0  0  0  0  0  0  0  0  0
  143.1020   74.0220  220.2860 C   0  0  0  0  0  0  0  0  0  0  0  0
  143.9706   74.3702  219.7079 H   0  0  0  0  0  0  0  0  0  0  0  0
  142.1200   74.9420  220.7030 C   0  0  0  0  0  0  0  0  0  0  0  0
  142.1990   76.3140  220.4080 C   0  0  0  0  0  0  0  0  0  0  0  0
  143.1830   76.7410  219.7400 O   0  0  0  0  0  0  0  0  0  0  0  0
  141.2200   77.1820  220.8400 N   0  0  0  0  0  0  0  0  0  0  0  0
  141.3410   78.6260  220.5250 C   0  0  0  0  0  0  0  0  0  0  0  0
  140.8574   79.2069  221.3242 H   0  0  0  0  0  0  0  0  0  0  0  0
  142.4105   78.8721  220.4505 H   0  0  0  0  0  0  0  0  0  0  0  0
  140.6680   78.9770  219.1700 C   0  0  0  0  0  0  0  0  0  0  0  0
  139.5946   79.0939  219.3801 H   0  0  0  0  0  0  0  0  0  0  0  0
  141.1700   80.3180  218.5960 C   0  0  0  0  0  0  0  0  0  0  0  0
  140.5027   80.6202  217.7754 H   0  0  0  0  0  0  0  0  0  0  0  0
  141.1670   81.0501  219.4170 H   0  0  0  0  0  0  0  0  0  0  0  0
  142.6130   80.2370  218.0530 C   0  0  0  0  0  0  0  0  0  0  0  0
  142.7164   80.9632  217.2333 H   0  0  0  0  0  0  0  0  0  0  0  0
  143.2852   80.4551  218.8960 H   0  0  0  0  0  0  0  0  0  0  0  0
  142.9840   78.9000  217.5410 N   0  0  0  0  0  0  0  0  0  0  0  0
  143.6880   79.0140  216.7750 H   0  0  0  0  0  0  0  0  0  0  0  0
  143.4370   78.3390  218.3010 H   0  0  0  0  0  0  0  0  0  0  0  0
  141.8320   78.1590  217.0140 C   0  0  0  0  0  0  0  0  0  0  0  0
  141.3328   78.7691  216.2468 H   0  0  0  0  0  0  0  0  0  0  0  0
  142.1925   77.2138  216.5820 H   0  0  0  0  0  0  0  0  0  0  0  0
  140.8240   77.8330  218.1320 C   0  0  0  0  0  0  0  0  0  0  0  0
  139.8429   77.6418  217.6728 H   0  0  0  0  0  0  0  0  0  0  0  0
  141.2075   76.9539  218.6707 H   0  0  0  0  0  0  0  0  0  0  0  0
  140.2840   79.3460  223.2710 C   0  0  0  0  0  0  0  0  0  0  0  0
  140.0660   80.6860  222.9120 C   0  0  0  0  0  0  0  0  0  0  0  0
  139.0823   80.9955  222.5292 H   0  0  0  0  0  0  0  0  0  0  0  0
  141.0610   81.6030  223.0340 N   0  0  0  0  0  0  0  0  0  0  0  0
  142.2950   81.2630  223.4920 C   0  0  0  0  0  0  0  0  0  0  0  0
  143.0781   82.0300  223.5841 H   0  0  0  0  0  0  0  0  0  0  0  0
  142.5680   79.9420  223.8450 C   0  0  0  0  0  0  0  0  0  0  0  0
  143.5667   79.6607  224.2103 H   0  0  0  0  0  0  0  0  0  0  0  0
  141.5630   78.9790  223.7310 C   0  0  0  0  0  0  0  0  0  0  0  0
  141.7709   77.9330  224.0008 H   0  0  0  0  0  0  0  0  0  0  0  0
  1  2  1  0
  2  3  2  0
  3  4  1  0
  3  5  1  0
  5  6  2  0
  6  7  1  0
  7  8  2  0
  8  9  1  0
  8 10  1  0
 10 11  1  0
 10 12  2  0
 12 13  1  0
 12 14  1  0
 14 15  1  0
 14 16  2  0
 16 17  1  0
 17 18  2  0
 17 19  1  0
 19 20  1  0
 20 21  1  0
 20 22  1  0
 20 23  1  0
 23 24  1  0
 23 25  1  0
 25 26  1  0
 25 27  1  0
 25 28  1  0
 28 29  1  0
 28 30  1  0
 28 31  1  0
 31 32  1  0
 31 33  1  0
 31 34  1  0
 34 35  1  0
 34 36  1  0
 34 37  1  0
 37 38  1  0
 37 39  1  0
  2 40  1  0
 40 41  2  0
 41 42  1  0
 41 43  1  0
 43 44  2  0
 44 45  1  0
 44 46  1  0
 46 47  1  0
 46 48  2  0
 48 49  1  0
 19  5  1  0
 37 23  1  0
 48 40  1  0
 16  7  1  0
M  CHG  1  31   1
M  END
>  <UniqueID>  (72) 
502

>  <SMILES>  (72) 
O=c1c2ccccc2nc(/C=C/c2cccnc2)n1CC1CC[NH2+]CC1

>  <Energy>  (72) 
71.37294245160794

>  <Genealogy>  (72) 
O=c1c2ccccc2nc(/C=C/c2cccnc2)n1CC1CC[NH2+]CC1 (protonated)
O=c1c2ccccc2nc(/C=C/c2cccnc2)n1CC1CC[NH2+]CC1 (cis-trans isomerization)
O=c1c2ccccc2nc(/C=C/c2cccnc2)n1CC1CC[NH2+]CC1 (3D coordinates assigned)
O=c1c2ccccc2nc(/C=C/c2cccnc2)n1CC1CC[NH2+]CC1 (nonaromatic ring conformer: 71.37294245160794 kcal/mol)

>  <smiles>  (72) 
O=c1c2ccccc2nc(/C=C/c2cccnc2)n1CC1CCNCC1

>  <score_type>  (72) 
oracle

>  <origin>  (72) 
autodockgpu

>  <m_score__min__energy>  (72) 
-7.5800000000000001

>  <m_primary>  (72) 
energy

>  <meeko>  (72) 
{"free_energy": -7.4, "intermolecular_energy": -8.89, "internal_energy": -2.13, "cluster_size": 20, "cluster_id": 1, "rank_in_cluster": 9}

>  <energy>  (72) 
-7.39

>  <cluster_rmsd>  (72) 
0.21

>  <rmsd>  (72) 
271.33

>  <cluster>  (72) 
1

$$$$
ACXZVNHFWDZWKJ-IDGBLARXNA-O
     RDKit          3D

 49 52  0  0  0  0  0  0  0  0999 V2000
  138.4159   78.3451  223.9128 H   0  0  0  0  0  0  0  0  0  0  0  0
  139.1690   78.4020  223.1130 C   0  0  0  0  0  0  0  0  0  0  0  0
  139.0260   77.5950  222.0490 C   0  0  0  0  0  0  0  0  0  0  0  0
  138.0620   77.5801  221.5195 H   0  0  0  0  0  0  0  0  0  0  0  0
  140.1310   76.7170  221.5600 C   0  0  0  0  0  0  0  0  0  0  0  0
  140.0600   75.3890  221.8480 N   0  0  0  0  0  0  0  0  0  0  0  0
  141.0040   74.5090  221.4490 C   0  0  0  0  0  0  0  0  0  0  0  0
  140.8820   73.1540  221.7770 C   0  0  0  0  0  0  0  0  0  0  0  0
  140.0173   72.8050  222.3606 H   0  0  0  0  0  0  0  0  0  0  0  0
  141.8590   72.2440  221.3630 C   0  0  0  0  0  0  0  0  0  0  0  0
  141.7638   71.1794  221.6228 H   0  0  0  0  0  0  0  0  0  0  0  0
  142.9570   72.6860  220.6190 C   0  0  0  0  0  0  0  0  0  0  0  0
  143.7242   71.9681  220.2934 H   0  0  0  0  0  0  0  0  0  0  0  0
  143.0820   74.0380  220.2880 C   0  0  0  0  0  0  0  0  0  0  0  0
  143.9471   74.3818  219.7020 H   0  0  0  0  0  0  0  0  0  0  0  0
  142.1030   74.9610  220.7030 C   0  0  0  0  0  0  0  0  0  0  0  0
  142.1800   76.3300  220.3980 C   0  0  0  0  0  0  0  0  0  0  0  0
  143.1590   76.7530  219.7210 O   0  0  0  0  0  0  0  0  0  0  0  0
  141.2020   77.2020  220.8300 N   0  0  0  0  0  0  0  0  0  0  0  0
  141.3210   78.6440  220.5030 C   0  0  0  0  0  0  0  0  0  0  0  0
  140.8335   79.2306  221.2956 H   0  0  0  0  0  0  0  0  0  0  0  0
  142.3902   78.8918  220.4300 H   0  0  0  0  0  0  0  0  0  0  0  0
  140.6520   78.9820  219.1430 C   0  0  0  0  0  0  0  0  0  0  0  0
  139.5764   79.0910  219.3460 H   0  0  0  0  0  0  0  0  0  0  0  0
  141.1460   80.3240  218.5650 C   0  0  0  0  0  0  0  0  0  0  0  0
  140.4803   80.6169  217.7398 H   0  0  0  0  0  0  0  0  0  0  0  0
  141.1333   81.0599  219.3825 H   0  0  0  0  0  0  0  0  0  0  0  0
  142.5930   80.2520  218.0290 C   0  0  0  0  0  0  0  0  0  0  0  0
  142.6942   80.9741  217.2054 H   0  0  0  0  0  0  0  0  0  0  0  0
  143.2596   80.4810  218.8735 H   0  0  0  0  0  0  0  0  0  0  0  0
  142.9770   78.9150  217.5270 N   0  0  0  0  0  0  0  0  0  0  0  0
  143.6840   79.0310  216.7630 H   0  0  0  0  0  0  0  0  0  0  0  0
  143.4310   78.3620  218.2920 H   0  0  0  0  0  0  0  0  0  0  0  0
  141.8340   78.1610  216.9970 C   0  0  0  0  0  0  0  0  0  0  0  0
  141.3335   78.7627  216.2240 H   0  0  0  0  0  0  0  0  0  0  0  0
  142.2044   77.2169  216.5710 H   0  0  0  0  0  0  0  0  0  0  0  0
  140.8240   77.8330  218.1120 C   0  0  0  0  0  0  0  0  0  0  0  0
  139.8469   77.6300  217.6493 H   0  0  0  0  0  0  0  0  0  0  0  0
  141.2134   76.9611  218.6580 H   0  0  0  0  0  0  0  0  0  0  0  0
  140.2860   79.3660  223.2700 C   0  0  0  0  0  0  0  0  0  0  0  0
  140.0830   80.7060  222.9040 C   0  0  0  0  0  0  0  0  0  0  0  0
  139.1041   81.0235  222.5156 H   0  0  0  0  0  0  0  0  0  0  0  0
  141.0870   81.6140  223.0260 N   0  0  0  0  0  0  0  0  0  0  0  0
  142.3150   81.2640  223.4920 C   0  0  0  0  0  0  0  0  0  0  0  0
  143.1048   82.0240  223.5852 H   0  0  0  0  0  0  0  0  0  0  0  0
  142.5740   79.9420  223.8520 C   0  0  0  0  0  0  0  0  0  0  0  0
  143.5682   79.6525  224.2232 H   0  0  0  0  0  0  0  0  0  0  0  0
  141.5600   78.9890  223.7370 C   0  0  0  0  0  0  0  0  0  0  0  0
  141.7566   77.9421  224.0116 H   0  0  0  0  0  0  0  0  0  0  0  0
  1  2  1  0
  2  3  2  0
  3  4  1  0
  3  5  1  0
  5  6  2  0
  6  7  1  0
  7  8  2  0
  8  9  1  0
  8 10  1  0
 10 11  1  0
 10 12  2  0
 12 13  1  0
 12 14  1  0
 14 15  1  0
 14 16  2  0
 16 17  1  0
 17 18  2  0
 17 19  1  0
 19 20  1  0
 20 21  1  0
 20 22  1  0
 20 23  1  0
 23 24  1  0
 23 25  1  0
 25 26  1  0
 25 27  1  0
 25 28  1  0
 28 29  1  0
 28 30  1  0
 28 31  1  0
 31 32  1  0
 31 33  1  0
 31 34  1  0
 34 35  1  0
 34 36  1  0
 34 37  1  0
 37 38  1  0
 37 39  1  0
  2 40  1  0
 40 41  2  0
 41 42  1  0
 41 43  1  0
 43 44  2  0
 44 45  1  0
 44 46  1  0
 46 47  1  0
 46 48  2  0
 48 49  1  0
 19  5  1  0
 37 23  1  0
 48 40  1  0
 16  7  1  0
M  CHG  1  31   1
M  END
>  <UniqueID>  (73) 
502

>  <SMILES>  (73) 
O=c1c2ccccc2nc(/C=C/c2cccnc2)n1CC1CC[NH2+]CC1

>  <Energy>  (73) 
71.37294245160794

>  <Genealogy>  (73) 
O=c1c2ccccc2nc(/C=C/c2cccnc2)n1CC1CC[NH2+]CC1 (protonated)
O=c1c2ccccc2nc(/C=C/c2cccnc2)n1CC1CC[NH2+]CC1 (cis-trans isomerization)
O=c1c2ccccc2nc(/C=C/c2cccnc2)n1CC1CC[NH2+]CC1 (3D coordinates assigned)
O=c1c2ccccc2nc(/C=C/c2cccnc2)n1CC1CC[NH2+]CC1 (nonaromatic ring conformer: 71.37294245160794 kcal/mol)

>  <smiles>  (73) 
O=c1c2ccccc2nc(/C=C/c2cccnc2)n1CC1CCNCC1

>  <score_type>  (73) 
oracle

>  <origin>  (73) 
autodockgpu

>  <m_score__min__energy>  (73) 
-7.5800000000000001

>  <m_primary>  (73) 
energy

>  <meeko>  (73) 
{"free_energy": -7.39, "intermolecular_energy": -8.88, "internal_energy": -2.13, "cluster_size": 20, "cluster_id": 1, "rank_in_cluster": 16}

>  <energy>  (73) 
-7.39

>  <cluster_rmsd>  (73) 
0.21

>  <rmsd>  (73) 
271.31

>  <cluster>  (73) 
1

$$$$
ACXZVNHFWDZWKJ-IDGBLARXNA-O
     RDKit          3D

 49 52  0  0  0  0  0  0  0  0999 V2000
  138.3394   78.4597  223.9378 H   0  0  0  0  0  0  0  0  0  0  0  0
  139.1060   78.4740  223.1490 C   0  0  0  0  0  0  0  0  0  0  0  0
  138.9540   77.6460  222.1020 C   0  0  0  0  0  0  0  0  0  0  0  0
  137.9863   77.6229  221.5795 H   0  0  0  0  0  0  0  0  0  0  0  0
  140.0530   76.7560  221.6230 C   0  0  0  0  0  0  0  0  0  0  0  0
  139.9750   75.4320  221.9280 N   0  0  0  0  0  0  0  0  0  0  0  0
  140.9140   74.5430  221.5390 C   0  0  0  0  0  0  0  0  0  0  0  0
  140.7860   73.1920  221.8840 C   0  0  0  0  0  0  0  0  0  0  0  0
  139.9206   72.8547  222.4734 H   0  0  0  0  0  0  0  0  0  0  0  0
  141.7570   72.2720  221.4800 C   0  0  0  0  0  0  0  0  0  0  0  0
  141.6566   71.2112  221.7531 H   0  0  0  0  0  0  0  0  0  0  0  0
  142.8560   72.6990  220.7290 C   0  0  0  0  0  0  0  0  0  0  0  0
  143.6188   71.9729  220.4112 H   0  0  0  0  0  0  0  0  0  0  0  0
  142.9880   74.0460  220.3810 C   0  0  0  0  0  0  0  0  0  0  0  0
  143.8541   74.3780  219.7897 H   0  0  0  0  0  0  0  0  0  0  0  0
  142.0140   74.9790  220.7860 C   0  0  0  0  0  0  0  0  0  0  0  0
  142.0980   76.3440  220.4630 C   0  0  0  0  0  0  0  0  0  0  0  0
  143.0790   76.7530  219.7800 O   0  0  0  0  0  0  0  0  0  0  0  0
  141.1260   77.2260  220.8850 N   0  0  0  0  0  0  0  0  0  0  0  0
  141.2520   78.6630  220.5400 C   0  0  0  0  0  0  0  0  0  0  0  0
  140.7490   79.2610  221.3142 H   0  0  0  0  0  0  0  0  0  0  0  0
  142.3225   78.9100  220.4849 H   0  0  0  0  0  0  0  0  0  0  0  0
  140.6100   78.9810  219.1620 C   0  0  0  0  0  0  0  0  0  0  0  0
  139.5299   79.0869  219.3413 H   0  0  0  0  0  0  0  0  0  0  0  0
  141.1100   80.3190  218.5780 C   0  0  0  0  0  0  0  0  0  0  0  0
  140.4607   80.5987  217.7353 H   0  0  0  0  0  0  0  0  0  0  0  0
  141.0763   81.0650  219.3857 H   0  0  0  0  0  0  0  0  0  0  0  0
  142.5680   80.2470  218.0740 C   0  0  0  0  0  0  0  0  0  0  0  0
  142.6837   80.9598  217.2443 H   0  0  0  0  0  0  0  0  0  0  0  0
  143.2151   80.4886  218.9301 H   0  0  0  0  0  0  0  0  0  0  0  0
  142.9690   78.9060  217.5960 N   0  0  0  0  0  0  0  0  0  0  0  0
  143.6910   79.0160  216.8470 H   0  0  0  0  0  0  0  0  0  0  0  0
  143.4090   78.3650  218.3780 H   0  0  0  0  0  0  0  0  0  0  0  0
  141.8410   78.1400  217.0520 C   0  0  0  0  0  0  0  0  0  0  0  0
  141.3546   78.7294  216.2608 H   0  0  0  0  0  0  0  0  0  0  0  0
  142.2249   77.1921  216.6469 H   0  0  0  0  0  0  0  0  0  0  0  0
  140.8080   77.8210  218.1490 C   0  0  0  0  0  0  0  0  0  0  0  0
  139.8418   77.6089  217.6678 H   0  0  0  0  0  0  0  0  0  0  0  0
  141.1884   76.9569  218.7134 H   0  0  0  0  0  0  0  0  0  0  0  0
  140.2490   79.4060  223.3010 C   0  0  0  0  0  0  0  0  0  0  0  0
  140.0780   80.7540  222.9470 C   0  0  0  0  0  0  0  0  0  0  0  0
  139.1036   81.1004  222.5721 H   0  0  0  0  0  0  0  0  0  0  0  0
  141.1070   81.6340  223.0640 N   0  0  0  0  0  0  0  0  0  0  0  0
  142.3300   81.2490  223.5150 C   0  0  0  0  0  0  0  0  0  0  0  0
  143.1406   81.9871  223.6047 H   0  0  0  0  0  0  0  0  0  0  0  0
  142.5570   79.9180  223.8640 C   0  0  0  0  0  0  0  0  0  0  0  0
  143.5467   79.5997  224.2235 H   0  0  0  0  0  0  0  0  0  0  0  0
  141.5170   78.9930  223.7530 C   0  0  0  0  0  0  0  0  0  0  0  0
  141.6886   77.9396  224.0192 H   0  0  0  0  0  0  0  0  0  0  0  0
  1  2  1  0
  2  3  2  0
  3  4  1  0
  3  5  1  0
  5  6  2  0
  6  7  1  0
  7  8  2  0
  8  9  1  0
  8 10  1  0
 10 11  1  0
 10 12  2  0
 12 13  1  0
 12 14  1  0
 14 15  1  0
 14 16  2  0
 16 17  1  0
 17 18  2  0
 17 19  1  0
 19 20  1  0
 20 21  1  0
 20 22  1  0
 20 23  1  0
 23 24  1  0
 23 25  1  0
 25 26  1  0
 25 27  1  0
 25 28  1  0
 28 29  1  0
 28 30  1  0
 28 31  1  0
 31 32  1  0
 31 33  1  0
 31 34  1  0
 34 35  1  0
 34 36  1  0
 34 37  1  0
 37 38  1  0
 37 39  1  0
  2 40  1  0
 40 41  2  0
 41 42  1  0
 41 43  1  0
 43 44  2  0
 44 45  1  0
 44 46  1  0
 46 47  1  0
 46 48  2  0
 48 49  1  0
 19  5  1  0
 37 23  1  0
 48 40  1  0
 16  7  1  0
M  CHG  1  31   1
M  END
>  <UniqueID>  (74) 
502

>  <SMILES>  (74) 
O=c1c2ccccc2nc(/C=C/c2cccnc2)n1CC1CC[NH2+]CC1

>  <Energy>  (74) 
71.37294245160794

>  <Genealogy>  (74) 
O=c1c2ccccc2nc(/C=C/c2cccnc2)n1CC1CC[NH2+]CC1 (protonated)
O=c1c2ccccc2nc(/C=C/c2cccnc2)n1CC1CC[NH2+]CC1 (cis-trans isomerization)
O=c1c2ccccc2nc(/C=C/c2cccnc2)n1CC1CC[NH2+]CC1 (3D coordinates assigned)
O=c1c2ccccc2nc(/C=C/c2cccnc2)n1CC1CC[NH2+]CC1 (nonaromatic ring conformer: 71.37294245160794 kcal/mol)

>  <smiles>  (74) 
O=c1c2ccccc2nc(/C=C/c2cccnc2)n1CC1CCNCC1

>  <score_type>  (74) 
oracle

>  <origin>  (74) 
autodockgpu

>  <m_score__min__energy>  (74) 
-7.5800000000000001

>  <m_primary>  (74) 
energy

>  <meeko>  (74) 
{"free_energy": -7.4, "intermolecular_energy": -8.9, "internal_energy": -2.11, "cluster_size": 20, "cluster_id": 1, "rank_in_cluster": 8}

>  <energy>  (74) 
-7.39

>  <cluster_rmsd>  (74) 
0.22

>  <rmsd>  (74) 
271.32

>  <cluster>  (74) 
1

$$$$
ACXZVNHFWDZWKJ-IDGBLARXNA-O
     RDKit          3D

 49 52  0  0  0  0  0  0  0  0999 V2000
  138.3781   78.3942  223.9259 H   0  0  0  0  0  0  0  0  0  0  0  0
  139.1400   78.4230  223.1330 C   0  0  0  0  0  0  0  0  0  0  0  0
  138.9930   77.6000  222.0820 C   0  0  0  0  0  0  0  0  0  0  0  0
  138.0254   77.5737  221.5595 H   0  0  0  0  0  0  0  0  0  0  0  0
  140.0980   76.7190  221.5980 C   0  0  0  0  0  0  0  0  0  0  0  0
  140.0300   75.3930  221.8980 N   0  0  0  0  0  0  0  0  0  0  0  0
  140.9740   74.5120  221.5040 C   0  0  0  0  0  0  0  0  0  0  0  0
  140.8550   73.1590  221.8450 C   0  0  0  0  0  0  0  0  0  0  0  0
  139.9928   72.8140  222.4346 H   0  0  0  0  0  0  0  0  0  0  0  0
  141.8320   72.2470  221.4360 C   0  0  0  0  0  0  0  0  0  0  0  0
  141.7388   71.1844  221.7047 H   0  0  0  0  0  0  0  0  0  0  0  0
  142.9270   72.6840  220.6860 C   0  0  0  0  0  0  0  0  0  0  0  0
  143.6942   71.9642  220.3646 H   0  0  0  0  0  0  0  0  0  0  0  0
  143.0500   74.0340  220.3430 C   0  0  0  0  0  0  0  0  0  0  0  0
  143.9137   74.3741  219.7527 H   0  0  0  0  0  0  0  0  0  0  0  0
  142.0700   74.9590  220.7520 C   0  0  0  0  0  0  0  0  0  0  0  0
  142.1450   76.3260  220.4350 C   0  0  0  0  0  0  0  0  0  0  0  0
  143.1220   76.7440  219.7520 O   0  0  0  0  0  0  0  0  0  0  0  0
  141.1670   77.1990  220.8610 N   0  0  0  0  0  0  0  0  0  0  0  0
  141.2830   78.6390  220.5220 C   0  0  0  0  0  0  0  0  0  0  0  0
  140.7802   79.2305  221.3013 H   0  0  0  0  0  0  0  0  0  0  0  0
  142.3517   78.8929  220.4631 H   0  0  0  0  0  0  0  0  0  0  0  0
  140.6320   78.9590  219.1480 C   0  0  0  0  0  0  0  0  0  0  0  0
  139.5521   79.0572  219.3329 H   0  0  0  0  0  0  0  0  0  0  0  0
  141.1210   80.3020  218.5680 C   0  0  0  0  0  0  0  0  0  0  0  0
  140.4657   80.5818  217.7300 H   0  0  0  0  0  0  0  0  0  0  0  0
  141.0872   81.0439  219.3794 H   0  0  0  0  0  0  0  0  0  0  0  0
  142.5770   80.2410  218.0560 C   0  0  0  0  0  0  0  0  0  0  0  0
  142.6841   80.9583  217.2289 H   0  0  0  0  0  0  0  0  0  0  0  0
  143.2272   80.4827  218.9097 H   0  0  0  0  0  0  0  0  0  0  0  0
  142.9830   78.9050  217.5700 N   0  0  0  0  0  0  0  0  0  0  0  0
  143.7010   79.0220  216.8170 H   0  0  0  0  0  0  0  0  0  0  0  0
  143.4300   78.3620  218.3470 H   0  0  0  0  0  0  0  0  0  0  0  0
  141.8570   78.1350  217.0280 C   0  0  0  0  0  0  0  0  0  0  0  0
  141.3630   78.7252  216.2421 H   0  0  0  0  0  0  0  0  0  0  0  0
  142.2442   77.1914  216.6160 H   0  0  0  0  0  0  0  0  0  0  0  0
  140.8320   77.8050  218.1290 C   0  0  0  0  0  0  0  0  0  0  0  0
  139.8647   77.5890  217.6520 H   0  0  0  0  0  0  0  0  0  0  0  0
  141.2210   76.9410  218.6877 H   0  0  0  0  0  0  0  0  0  0  0  0
  140.2730   79.3690  223.2840 C   0  0  0  0  0  0  0  0  0  0  0  0
  140.0860   80.7150  222.9310 C   0  0  0  0  0  0  0  0  0  0  0  0
  139.1077   81.0502  222.5562 H   0  0  0  0  0  0  0  0  0  0  0  0
  141.1050   81.6070  223.0490 N   0  0  0  0  0  0  0  0  0  0  0  0
  142.3320   81.2350  223.4980 C   0  0  0  0  0  0  0  0  0  0  0  0
  143.1344   81.9821  223.5871 H   0  0  0  0  0  0  0  0  0  0  0  0
  142.5750   79.9070  223.8460 C   0  0  0  0  0  0  0  0  0  0  0  0
  143.5686   79.6002  224.2048 H   0  0  0  0  0  0  0  0  0  0  0  0
  141.5460   78.9700  223.7350 C   0  0  0  0  0  0  0  0  0  0  0  0
  141.7299   77.9184  224.0002 H   0  0  0  0  0  0  0  0  0  0  0  0
  1  2  1  0
  2  3  2  0
  3  4  1  0
  3  5  1  0
  5  6  2  0
  6  7  1  0
  7  8  2  0
  8  9  1  0
  8 10  1  0
 10 11  1  0
 10 12  2  0
 12 13  1  0
 12 14  1  0
 14 15  1  0
 14 16  2  0
 16 17  1  0
 17 18  2  0
 17 19  1  0
 19 20  1  0
 20 21  1  0
 20 22  1  0
 20 23  1  0
 23 24  1  0
 23 25  1  0
 25 26  1  0
 25 27  1  0
 25 28  1  0
 28 29  1  0
 28 30  1  0
 28 31  1  0
 31 32  1  0
 31 33  1  0
 31 34  1  0
 34 35  1  0
 34 36  1  0
 34 37  1  0
 37 38  1  0
 37 39  1  0
  2 40  1  0
 40 41  2  0
 41 42  1  0
 41 43  1  0
 43 44  2  0
 44 45  1  0
 44 46  1  0
 46 47  1  0
 46 48  2  0
 48 49  1  0
 19  5  1  0
 37 23  1  0
 48 40  1  0
 16  7  1  0
M  CHG  1  31   1
M  END
>  <UniqueID>  (75) 
502

>  <SMILES>  (75) 
O=c1c2ccccc2nc(/C=C/c2cccnc2)n1CC1CC[NH2+]CC1

>  <Energy>  (75) 
71.37294245160794

>  <Genealogy>  (75) 
O=c1c2ccccc2nc(/C=C/c2cccnc2)n1CC1CC[NH2+]CC1 (protonated)
O=c1c2ccccc2nc(/C=C/c2cccnc2)n1CC1CC[NH2+]CC1 (cis-trans isomerization)
O=c1c2ccccc2nc(/C=C/c2cccnc2)n1CC1CC[NH2+]CC1 (3D coordinates assigned)
O=c1c2ccccc2nc(/C=C/c2cccnc2)n1CC1CC[NH2+]CC1 (nonaromatic ring conformer: 71.37294245160794 kcal/mol)

>  <smiles>  (75) 
O=c1c2ccccc2nc(/C=C/c2cccnc2)n1CC1CCNCC1

>  <score_type>  (75) 
oracle

>  <origin>  (75) 
autodockgpu

>  <m_score__min__energy>  (75) 
-7.5800000000000001

>  <m_primary>  (75) 
energy

>  <meeko>  (75) 
{"free_energy": -7.4, "intermolecular_energy": -8.9, "internal_energy": -2.11, "cluster_size": 20, "cluster_id": 1, "rank_in_cluster": 7}

>  <energy>  (75) 
-7.39

>  <cluster_rmsd>  (75) 
0.22

>  <rmsd>  (75) 
271.3

>  <cluster>  (75) 
1

$$$$
ACXZVNHFWDZWKJ-IDGBLARXNA-O
     RDKit          3D

 49 52  0  0  0  0  0  0  0  0999 V2000
  138.3964   78.3789  223.9358 H   0  0  0  0  0  0  0  0  0  0  0  0
  139.1490   78.4270  223.1350 C   0  0  0  0  0  0  0  0  0  0  0  0
  139.0030   77.6120  222.0780 C   0  0  0  0  0  0  0  0  0  0  0  0
  138.0381   77.5949  221.5502 H   0  0  0  0  0  0  0  0  0  0  0  0
  140.1050   76.7280  221.5940 C   0  0  0  0  0  0  0  0  0  0  0  0
  140.0330   75.4020  221.8920 N   0  0  0  0  0  0  0  0  0  0  0  0
  140.9750   74.5180  221.4980 C   0  0  0  0  0  0  0  0  0  0  0  0
  140.8510   73.1650  221.8370 C   0  0  0  0  0  0  0  0  0  0  0  0
  139.9869   72.8218  222.4248 H   0  0  0  0  0  0  0  0  0  0  0  0
  141.8260   72.2510  221.4280 C   0  0  0  0  0  0  0  0  0  0  0  0
  141.7291   71.1884  221.6952 H   0  0  0  0  0  0  0  0  0  0  0  0
  142.9240   72.6850  220.6800 C   0  0  0  0  0  0  0  0  0  0  0  0
  143.6895   71.9632  220.3590 H   0  0  0  0  0  0  0  0  0  0  0  0
  143.0510   74.0350  220.3390 C   0  0  0  0  0  0  0  0  0  0  0  0
  143.9158   74.3731  219.7493 H   0  0  0  0  0  0  0  0  0  0  0  0
  142.0740   74.9630  220.7490 C   0  0  0  0  0  0  0  0  0  0  0  0
  142.1530   76.3300  220.4330 C   0  0  0  0  0  0  0  0  0  0  0  0
  143.1320   76.7450  219.7520 O   0  0  0  0  0  0  0  0  0  0  0  0
  141.1770   77.2060  220.8600 N   0  0  0  0  0  0  0  0  0  0  0  0
  141.2980   78.6450  220.5220 C   0  0  0  0  0  0  0  0  0  0  0  0
  140.8073   79.2381  221.3078 H   0  0  0  0  0  0  0  0  0  0  0  0
  142.3677   78.8915  220.4515 H   0  0  0  0  0  0  0  0  0  0  0  0
  140.6350   78.9730  219.1560 C   0  0  0  0  0  0  0  0  0  0  0  0
  139.5577   79.0784  219.3520 H   0  0  0  0  0  0  0  0  0  0  0  0
  141.1270   80.3140  218.5740 C   0  0  0  0  0  0  0  0  0  0  0  0
  140.4650   80.6000  217.7434 H   0  0  0  0  0  0  0  0  0  0  0  0
  141.1065   81.0541  219.3876 H   0  0  0  0  0  0  0  0  0  0  0  0
  142.5770   80.2450  218.0470 C   0  0  0  0  0  0  0  0  0  0  0  0
  142.6801   80.9634  217.2204 H   0  0  0  0  0  0  0  0  0  0  0  0
  143.2373   80.4806  218.8946 H   0  0  0  0  0  0  0  0  0  0  0  0
  142.9700   78.9080  217.5540 N   0  0  0  0  0  0  0  0  0  0  0  0
  143.6810   79.0220  216.7940 H   0  0  0  0  0  0  0  0  0  0  0  0
  143.4220   78.3610  218.3250 H   0  0  0  0  0  0  0  0  0  0  0  0
  141.8340   78.1460  217.0220 C   0  0  0  0  0  0  0  0  0  0  0  0
  141.3356   78.7410  216.2426 H   0  0  0  0  0  0  0  0  0  0  0  0
  142.2117   77.2011  216.6043 H   0  0  0  0  0  0  0  0  0  0  0  0
  140.8180   77.8190  218.1320 C   0  0  0  0  0  0  0  0  0  0  0  0
  139.8447   77.6097  217.6641 H   0  0  0  0  0  0  0  0  0  0  0  0
  141.2069   76.9511  218.6848 H   0  0  0  0  0  0  0  0  0  0  0  0
  140.2690   79.3890  223.2830 C   0  0  0  0  0  0  0  0  0  0  0  0
  140.0640   80.7300  222.9210 C   0  0  0  0  0  0  0  0  0  0  0  0
  139.0818   81.0496  222.5426 H   0  0  0  0  0  0  0  0  0  0  0  0
  141.0710   81.6360  223.0350 N   0  0  0  0  0  0  0  0  0  0  0  0
  142.3030   81.2840  223.4900 C   0  0  0  0  0  0  0  0  0  0  0  0
  143.0949   82.0425  223.5772 H   0  0  0  0  0  0  0  0  0  0  0  0
  142.5620   79.9610  223.8460 C   0  0  0  0  0  0  0  0  0  0  0  0
  143.5586   79.6695  224.2090 H   0  0  0  0  0  0  0  0  0  0  0  0
  141.5460   79.0090  223.7380 C   0  0  0  0  0  0  0  0  0  0  0  0
  141.7436   77.9613  224.0087 H   0  0  0  0  0  0  0  0  0  0  0  0
  1  2  1  0
  2  3  2  0
  3  4  1  0
  3  5  1  0
  5  6  2  0
  6  7  1  0
  7  8  2  0
  8  9  1  0
  8 10  1  0
 10 11  1  0
 10 12  2  0
 12 13  1  0
 12 14  1  0
 14 15  1  0
 14 16  2  0
 16 17  1  0
 17 18  2  0
 17 19  1  0
 19 20  1  0
 20 21  1  0
 20 22  1  0
 20 23  1  0
 23 24  1  0
 23 25  1  0
 25 26  1  0
 25 27  1  0
 25 28  1  0
 28 29  1  0
 28 30  1  0
 28 31  1  0
 31 32  1  0
 31 33  1  0
 31 34  1  0
 34 35  1  0
 34 36  1  0
 34 37  1  0
 37 38  1  0
 37 39  1  0
  2 40  1  0
 40 41  2  0
 41 42  1  0
 41 43  1  0
 43 44  2  0
 44 45  1  0
 44 46  1  0
 46 47  1  0
 46 48  2  0
 48 49  1  0
 19  5  1  0
 37 23  1  0
 48 40  1  0
 16  7  1  0
M  CHG  1  31   1
M  END
>  <UniqueID>  (76) 
502

>  <SMILES>  (76) 
O=c1c2ccccc2nc(/C=C/c2cccnc2)n1CC1CC[NH2+]CC1

>  <Energy>  (76) 
71.37294245160794

>  <Genealogy>  (76) 
O=c1c2ccccc2nc(/C=C/c2cccnc2)n1CC1CC[NH2+]CC1 (protonated)
O=c1c2ccccc2nc(/C=C/c2cccnc2)n1CC1CC[NH2+]CC1 (cis-trans isomerization)
O=c1c2ccccc2nc(/C=C/c2cccnc2)n1CC1CC[NH2+]CC1 (3D coordinates assigned)
O=c1c2ccccc2nc(/C=C/c2cccnc2)n1CC1CC[NH2+]CC1 (nonaromatic ring conformer: 71.37294245160794 kcal/mol)

>  <smiles>  (76) 
O=c1c2ccccc2nc(/C=C/c2cccnc2)n1CC1CCNCC1

>  <score_type>  (76) 
oracle

>  <origin>  (76) 
autodockgpu

>  <m_score__min__energy>  (76) 
-7.5800000000000001

>  <m_primary>  (76) 
energy

>  <meeko>  (76) 
{"free_energy": -7.4, "intermolecular_energy": -8.89, "internal_energy": -2.12, "cluster_size": 20, "cluster_id": 1, "rank_in_cluster": 11}

>  <energy>  (76) 
-7.39

>  <cluster_rmsd>  (76) 
0.22

>  <rmsd>  (76) 
271.32

>  <cluster>  (76) 
1

$$$$
ACXZVNHFWDZWKJ-IDGBLARXNA-O
     RDKit          3D

 49 52  0  0  0  0  0  0  0  0999 V2000
  138.3282   78.3546  223.8628 H   0  0  0  0  0  0  0  0  0  0  0  0
  139.1110   78.3540  223.0900 C   0  0  0  0  0  0  0  0  0  0  0  0
  138.9760   77.5120  222.0520 C   0  0  0  0  0  0  0  0  0  0  0  0
  138.0106   77.4669  221.5266 H   0  0  0  0  0  0  0  0  0  0  0  0
  140.0920   76.6350  221.5870 C   0  0  0  0  0  0  0  0  0  0  0  0
  140.0220   75.3090  221.8820 N   0  0  0  0  0  0  0  0  0  0  0  0
  140.9760   74.4310  221.5030 C   0  0  0  0  0  0  0  0  0  0  0  0
  140.8550   73.0770  221.8380 C   0  0  0  0  0  0  0  0  0  0  0  0
  139.9830   72.7279  222.4105 H   0  0  0  0  0  0  0  0  0  0  0  0
  141.8420   72.1690  221.4450 C   0  0  0  0  0  0  0  0  0  0  0  0
  141.7467   71.1054  221.7090 H   0  0  0  0  0  0  0  0  0  0  0  0
  142.9500   72.6110  220.7170 C   0  0  0  0  0  0  0  0  0  0  0  0
  143.7254   71.8944  220.4085 H   0  0  0  0  0  0  0  0  0  0  0  0
  143.0750   73.9620  220.3800 C   0  0  0  0  0  0  0  0  0  0  0  0
  143.9480   74.3063  219.8062 H   0  0  0  0  0  0  0  0  0  0  0  0
  142.0850   74.8830  220.7740 C   0  0  0  0  0  0  0  0  0  0  0  0
  142.1620   76.2510  220.4620 C   0  0  0  0  0  0  0  0  0  0  0  0
  143.1510   76.6730  219.7990 O   0  0  0  0  0  0  0  0  0  0  0  0
  141.1740   77.1210  220.8720 N   0  0  0  0  0  0  0  0  0  0  0  0
  141.2930   78.5610  220.5390 C   0  0  0  0  0  0  0  0  0  0  0  0
  140.7008   79.1438  221.2599 H   0  0  0  0  0  0  0  0  0  0  0  0
  142.3565   78.8377  220.5878 H   0  0  0  0  0  0  0  0  0  0  0  0
  140.7790   78.8630  219.1040 C   0  0  0  0  0  0  0  0  0  0  0  0
  139.6836   78.9324  219.1760 H   0  0  0  0  0  0  0  0  0  0  0  0
  141.2890   80.2190  218.5730 C   0  0  0  0  0  0  0  0  0  0  0  0
  140.7168   80.4804  217.6706 H   0  0  0  0  0  0  0  0  0  0  0  0
  141.1511   80.9604  219.3738 H   0  0  0  0  0  0  0  0  0  0  0  0
  142.7910   80.1970  218.2150 C   0  0  0  0  0  0  0  0  0  0  0  0
  142.9641   80.9165  217.4011 H   0  0  0  0  0  0  0  0  0  0  0  0
  143.3425   80.4565  219.1307 H   0  0  0  0  0  0  0  0  0  0  0  0
  143.2810   78.8720  217.7780 N   0  0  0  0  0  0  0  0  0  0  0  0
  144.0700   79.0090  217.1030 H   0  0  0  0  0  0  0  0  0  0  0  0
  143.6600   78.3430  218.5980 H   0  0  0  0  0  0  0  0  0  0  0  0
  142.2380   78.0720  217.1250 C   0  0  0  0  0  0  0  0  0  0  0  0
  141.8120   78.6488  216.2908 H   0  0  0  0  0  0  0  0  0  0  0  0
  142.6910   77.1393  216.7579 H   0  0  0  0  0  0  0  0  0  0  0  0
  141.1140   77.7140  218.1150 C   0  0  0  0  0  0  0  0  0  0  0  0
  140.2073   77.4715  217.5413 H   0  0  0  0  0  0  0  0  0  0  0  0
  141.4659   76.8607  218.7134 H   0  0  0  0  0  0  0  0  0  0  0  0
  140.2560   79.2830  223.2530 C   0  0  0  0  0  0  0  0  0  0  0  0
  140.0890   80.6340  222.9080 C   0  0  0  0  0  0  0  0  0  0  0  0
  139.1168   80.9856  222.5323 H   0  0  0  0  0  0  0  0  0  0  0  0
  141.1200   81.5100  223.0350 N   0  0  0  0  0  0  0  0  0  0  0  0
  142.3400   81.1180  223.4880 C   0  0  0  0  0  0  0  0  0  0  0  0
  143.1520   81.8534  223.5865 H   0  0  0  0  0  0  0  0  0  0  0  0
  142.5630   79.7840  223.8280 C   0  0  0  0  0  0  0  0  0  0  0  0
  143.5505   79.4606  224.1889 H   0  0  0  0  0  0  0  0  0  0  0  0
  141.5210   78.8630  223.7060 C   0  0  0  0  0  0  0  0  0  0  0  0
  141.6887   77.8070  223.9643 H   0  0  0  0  0  0  0  0  0  0  0  0
  1  2  1  0
  2  3  2  0
  3  4  1  0
  3  5  1  0
  5  6  2  0
  6  7  1  0
  7  8  2  0
  8  9  1  0
  8 10  1  0
 10 11  1  0
 10 12  2  0
 12 13  1  0
 12 14  1  0
 14 15  1  0
 14 16  2  0
 16 17  1  0
 17 18  2  0
 17 19  1  0
 19 20  1  0
 20 21  1  0
 20 22  1  0
 20 23  1  0
 23 24  1  0
 23 25  1  0
 25 26  1  0
 25 27  1  0
 25 28  1  0
 28 29  1  0
 28 30  1  0
 28 31  1  0
 31 32  1  0
 31 33  1  0
 31 34  1  0
 34 35  1  0
 34 36  1  0
 34 37  1  0
 37 38  1  0
 37 39  1  0
  2 40  1  0
 40 41  2  0
 41 42  1  0
 41 43  1  0
 43 44  2  0
 44 45  1  0
 44 46  1  0
 46 47  1  0
 46 48  2  0
 48 49  1  0
 19  5  1  0
 37 23  1  0
 48 40  1  0
 16  7  1  0
M  CHG  1  31   1
M  END
>  <UniqueID>  (77) 
502

>  <SMILES>  (77) 
O=c1c2ccccc2nc(/C=C/c2cccnc2)n1CC1CC[NH2+]CC1

>  <Energy>  (77) 
71.37294245160794

>  <Genealogy>  (77) 
O=c1c2ccccc2nc(/C=C/c2cccnc2)n1CC1CC[NH2+]CC1 (protonated)
O=c1c2ccccc2nc(/C=C/c2cccnc2)n1CC1CC[NH2+]CC1 (cis-trans isomerization)
O=c1c2ccccc2nc(/C=C/c2cccnc2)n1CC1CC[NH2+]CC1 (3D coordinates assigned)
O=c1c2ccccc2nc(/C=C/c2cccnc2)n1CC1CC[NH2+]CC1 (nonaromatic ring conformer: 71.37294245160794 kcal/mol)

>  <smiles>  (77) 
O=c1c2ccccc2nc(/C=C/c2cccnc2)n1CC1CCNCC1

>  <score_type>  (77) 
oracle

>  <origin>  (77) 
autodockgpu

>  <m_score__min__energy>  (77) 
-7.5800000000000001

>  <m_primary>  (77) 
energy

>  <meeko>  (77) 
{"free_energy": -7.58, "intermolecular_energy": -9.07, "internal_energy": -1.98, "cluster_size": 20, "cluster_id": 1, "rank_in_cluster": 2}

>  <energy>  (77) 
-7.38

>  <cluster_rmsd>  (77) 
0.23

>  <rmsd>  (77) 
271.29

>  <cluster>  (77) 
1

$$$$
ACXZVNHFWDZWKJ-IDGBLARXNA-O
     RDKit          3D

 49 52  0  0  0  0  0  0  0  0999 V2000
  138.4230   78.3647  223.9297 H   0  0  0  0  0  0  0  0  0  0  0  0
  139.1720   78.4200  223.1260 C   0  0  0  0  0  0  0  0  0  0  0  0
  139.0260   77.6080  222.0660 C   0  0  0  0  0  0  0  0  0  0  0  0
  138.0622   77.5950  221.5359 H   0  0  0  0  0  0  0  0  0  0  0  0
  140.1270   76.7220  221.5820 C   0  0  0  0  0  0  0  0  0  0  0  0
  140.0510   75.3960  221.8790 N   0  0  0  0  0  0  0  0  0  0  0  0
  140.9920   74.5110  221.4850 C   0  0  0  0  0  0  0  0  0  0  0  0
  140.8650   73.1580  221.8220 C   0  0  0  0  0  0  0  0  0  0  0  0
  139.9996   72.8161  222.4086 H   0  0  0  0  0  0  0  0  0  0  0  0
  141.8380   72.2420  221.4130 C   0  0  0  0  0  0  0  0  0  0  0  0
  141.7388   71.1793  221.6792 H   0  0  0  0  0  0  0  0  0  0  0  0
  142.9370   72.6750  220.6660 C   0  0  0  0  0  0  0  0  0  0  0  0
  143.7010   71.9518  220.3447 H   0  0  0  0  0  0  0  0  0  0  0  0
  143.0680   74.0250  220.3260 C   0  0  0  0  0  0  0  0  0  0  0  0
  143.9343   74.3618  219.7377 H   0  0  0  0  0  0  0  0  0  0  0  0
  142.0920   74.9540  220.7360 C   0  0  0  0  0  0  0  0  0  0  0  0
  142.1740   76.3210  220.4220 C   0  0  0  0  0  0  0  0  0  0  0  0
  143.1540   76.7350  219.7410 O   0  0  0  0  0  0  0  0  0  0  0  0
  141.2000   77.1980  220.8480 N   0  0  0  0  0  0  0  0  0  0  0  0
  141.3240   78.6380  220.5120 C   0  0  0  0  0  0  0  0  0  0  0  0
  140.8368   79.2312  221.2999 H   0  0  0  0  0  0  0  0  0  0  0  0
  142.3941   78.8824  220.4395 H   0  0  0  0  0  0  0  0  0  0  0  0
  140.6580   78.9690  219.1480 C   0  0  0  0  0  0  0  0  0  0  0  0
  139.5818   79.0782  219.3478 H   0  0  0  0  0  0  0  0  0  0  0  0
  141.1520   80.3080  218.5650 C   0  0  0  0  0  0  0  0  0  0  0  0
  140.4882   80.5962  217.7366 H   0  0  0  0  0  0  0  0  0  0  0  0
  141.1364   81.0478  219.3789 H   0  0  0  0  0  0  0  0  0  0  0  0
  142.6010   80.2350  218.0330 C   0  0  0  0  0  0  0  0  0  0  0  0
  142.7037   80.9530  217.2060 H   0  0  0  0  0  0  0  0  0  0  0  0
  143.2653   80.4693  218.8778 H   0  0  0  0  0  0  0  0  0  0  0  0
  142.9870   78.8960  217.5390 N   0  0  0  0  0  0  0  0  0  0  0  0
  143.6960   79.0090  216.7770 H   0  0  0  0  0  0  0  0  0  0  0  0
  143.4390   78.3470  218.3080 H   0  0  0  0  0  0  0  0  0  0  0  0
  141.8470   78.1390  217.0100 C   0  0  0  0  0  0  0  0  0  0  0  0
  141.3485   78.7365  216.2325 H   0  0  0  0  0  0  0  0  0  0  0  0
  142.2199   77.1930  216.5904 H   0  0  0  0  0  0  0  0  0  0  0  0
  140.8330   77.8150  218.1230 C   0  0  0  0  0  0  0  0  0  0  0  0
  139.8575   77.6098  217.6580 H   0  0  0  0  0  0  0  0  0  0  0  0
  141.2200   76.9451  218.6739 H   0  0  0  0  0  0  0  0  0  0  0  0
  140.2870   79.3870  223.2730 C   0  0  0  0  0  0  0  0  0  0  0  0
  140.0800   80.7250  222.9000 C   0  0  0  0  0  0  0  0  0  0  0  0
  139.0990   81.0381  222.5133 H   0  0  0  0  0  0  0  0  0  0  0  0
  141.0820   81.6360  223.0130 N   0  0  0  0  0  0  0  0  0  0  0  0
  142.3130   81.2910  223.4770 C   0  0  0  0  0  0  0  0  0  0  0  0
  143.1016   82.0531  223.5628 H   0  0  0  0  0  0  0  0  0  0  0  0
  142.5760   79.9720  223.8440 C   0  0  0  0  0  0  0  0  0  0  0  0
  143.5720   79.6870  224.2138 H   0  0  0  0  0  0  0  0  0  0  0  0
  141.5640   79.0160  223.7380 C   0  0  0  0  0  0  0  0  0  0  0  0
  141.7641   77.9713  224.0181 H   0  0  0  0  0  0  0  0  0  0  0  0
  1  2  1  0
  2  3  2  0
  3  4  1  0
  3  5  1  0
  5  6  2  0
  6  7  1  0
  7  8  2  0
  8  9  1  0
  8 10  1  0
 10 11  1  0
 10 12  2  0
 12 13  1  0
 12 14  1  0
 14 15  1  0
 14 16  2  0
 16 17  1  0
 17 18  2  0
 17 19  1  0
 19 20  1  0
 20 21  1  0
 20 22  1  0
 20 23  1  0
 23 24  1  0
 23 25  1  0
 25 26  1  0
 25 27  1  0
 25 28  1  0
 28 29  1  0
 28 30  1  0
 28 31  1  0
 31 32  1  0
 31 33  1  0
 31 34  1  0
 34 35  1  0
 34 36  1  0
 34 37  1  0
 37 38  1  0
 37 39  1  0
  2 40  1  0
 40 41  2  0
 41 42  1  0
 41 43  1  0
 43 44  2  0
 44 45  1  0
 44 46  1  0
 46 47  1  0
 46 48  2  0
 48 49  1  0
 19  5  1  0
 37 23  1  0
 48 40  1  0
 16  7  1  0
M  CHG  1  31   1
M  END
>  <UniqueID>  (78) 
502

>  <SMILES>  (78) 
O=c1c2ccccc2nc(/C=C/c2cccnc2)n1CC1CC[NH2+]CC1

>  <Energy>  (78) 
71.37294245160794

>  <Genealogy>  (78) 
O=c1c2ccccc2nc(/C=C/c2cccnc2)n1CC1CC[NH2+]CC1 (protonated)
O=c1c2ccccc2nc(/C=C/c2cccnc2)n1CC1CC[NH2+]CC1 (cis-trans isomerization)
O=c1c2ccccc2nc(/C=C/c2cccnc2)n1CC1CC[NH2+]CC1 (3D coordinates assigned)
O=c1c2ccccc2nc(/C=C/c2cccnc2)n1CC1CC[NH2+]CC1 (nonaromatic ring conformer: 71.37294245160794 kcal/mol)

>  <smiles>  (78) 
O=c1c2ccccc2nc(/C=C/c2cccnc2)n1CC1CCNCC1

>  <score_type>  (78) 
oracle

>  <origin>  (78) 
autodockgpu

>  <m_score__min__energy>  (78) 
-7.5800000000000001

>  <m_primary>  (78) 
energy

>  <meeko>  (78) 
{"free_energy": -7.39, "intermolecular_energy": -8.88, "internal_energy": -2.12, "cluster_size": 20, "cluster_id": 1, "rank_in_cluster": 12}

>  <energy>  (78) 
-7.38

>  <cluster_rmsd>  (78) 
0.23

>  <rmsd>  (78) 
271.29

>  <cluster>  (78) 
1

$$$$
ACXZVNHFWDZWKJ-IDGBLARXNA-O
     RDKit          3D

 49 52  0  0  0  0  0  0  0  0999 V2000
  138.4319   78.2676  223.9095 H   0  0  0  0  0  0  0  0  0  0  0  0
  139.1770   78.3450  223.1040 C   0  0  0  0  0  0  0  0  0  0  0  0
  139.0410   77.5430  222.0360 C   0  0  0  0  0  0  0  0  0  0  0  0
  138.0780   77.5251  221.5047 H   0  0  0  0  0  0  0  0  0  0  0  0
  140.1520   76.6740  221.5440 C   0  0  0  0  0  0  0  0  0  0  0  0
  140.0870   75.3440  221.8210 N   0  0  0  0  0  0  0  0  0  0  0  0
  141.0380   74.4730  221.4180 C   0  0  0  0  0  0  0  0  0  0  0  0
  140.9220   73.1140  221.7350 C   0  0  0  0  0  0  0  0  0  0  0  0
  140.0573   72.7558  222.3129 H   0  0  0  0  0  0  0  0  0  0  0  0
  141.9050   72.2130  221.3170 C   0  0  0  0  0  0  0  0  0  0  0  0
  141.8143   71.1458  221.5677 H   0  0  0  0  0  0  0  0  0  0  0  0
  143.0030   72.6660  220.5810 C   0  0  0  0  0  0  0  0  0  0  0  0
  143.7745   71.9543  220.2519 H   0  0  0  0  0  0  0  0  0  0  0  0
  143.1230   74.0220  220.2620 C   0  0  0  0  0  0  0  0  0  0  0  0
  143.9890   74.3757  219.6832 H   0  0  0  0  0  0  0  0  0  0  0  0
  142.1360   74.9360  220.6810 C   0  0  0  0  0  0  0  0  0  0  0  0
  142.2070   76.3080  220.3870 C   0  0  0  0  0  0  0  0  0  0  0  0
  143.1880   76.7420  219.7180 O   0  0  0  0  0  0  0  0  0  0  0  0
  141.2240   77.1710  220.8220 N   0  0  0  0  0  0  0  0  0  0  0  0
  141.3370   78.6160  220.5080 C   0  0  0  0  0  0  0  0  0  0  0  0
  140.8462   79.1935  221.3052 H   0  0  0  0  0  0  0  0  0  0  0  0
  142.4052   78.8693  220.4383 H   0  0  0  0  0  0  0  0  0  0  0  0
  140.6670   78.9630  219.1490 C   0  0  0  0  0  0  0  0  0  0  0  0
  139.5915   79.0728  219.3523 H   0  0  0  0  0  0  0  0  0  0  0  0
  141.1630   80.3070  218.5790 C   0  0  0  0  0  0  0  0  0  0  0  0
  140.4974   80.6060  217.7559 H   0  0  0  0  0  0  0  0  0  0  0  0
  141.1521   81.0379  219.4010 H   0  0  0  0  0  0  0  0  0  0  0  0
  142.6090   80.2360  218.0420 C   0  0  0  0  0  0  0  0  0  0  0  0
  142.7106   80.9627  217.2225 H   0  0  0  0  0  0  0  0  0  0  0  0
  143.2759   80.4589  218.8879 H   0  0  0  0  0  0  0  0  0  0  0  0
  142.9920   78.9020  217.5320 N   0  0  0  0  0  0  0  0  0  0  0  0
  143.6990   79.0210  216.7690 H   0  0  0  0  0  0  0  0  0  0  0  0
  143.4450   78.3440  218.2940 H   0  0  0  0  0  0  0  0  0  0  0  0
  141.8480   78.1520  216.9990 C   0  0  0  0  0  0  0  0  0  0  0  0
  141.3482   78.7581  216.2291 H   0  0  0  0  0  0  0  0  0  0  0  0
  142.2176   77.2094  216.5690 H   0  0  0  0  0  0  0  0  0  0  0  0
  140.8370   77.8190  218.1120 C   0  0  0  0  0  0  0  0  0  0  0  0
  139.8597   77.6201  217.6480 H   0  0  0  0  0  0  0  0  0  0  0  0
  141.2244   76.9432  218.6532 H   0  0  0  0  0  0  0  0  0  0  0  0
  140.2760   79.3300  223.2590 C   0  0  0  0  0  0  0  0  0  0  0  0
  140.0450   80.6670  222.8970 C   0  0  0  0  0  0  0  0  0  0  0  0
  139.0584   80.9663  222.5136 H   0  0  0  0  0  0  0  0  0  0  0  0
  141.0320   81.5940  223.0170 N   0  0  0  0  0  0  0  0  0  0  0  0
  142.2690   81.2660  223.4770 C   0  0  0  0  0  0  0  0  0  0  0  0
  143.0449   82.0403  223.5683 H   0  0  0  0  0  0  0  0  0  0  0  0
  142.5540   79.9480  223.8330 C   0  0  0  0  0  0  0  0  0  0  0  0
  143.5549   79.6765  224.1997 H   0  0  0  0  0  0  0  0  0  0  0  0
  141.5580   78.9760  223.7200 C   0  0  0  0  0  0  0  0  0  0  0  0
  141.7754   77.9324  223.9915 H   0  0  0  0  0  0  0  0  0  0  0  0
  1  2  1  0
  2  3  2  0
  3  4  1  0
  3  5  1  0
  5  6  2  0
  6  7  1  0
  7  8  2  0
  8  9  1  0
  8 10  1  0
 10 11  1  0
 10 12  2  0
 12 13  1  0
 12 14  1  0
 14 15  1  0
 14 16  2  0
 16 17  1  0
 17 18  2  0
 17 19  1  0
 19 20  1  0
 20 21  1  0
 20 22  1  0
 20 23  1  0
 23 24  1  0
 23 25  1  0
 25 26  1  0
 25 27  1  0
 25 28  1  0
 28 29  1  0
 28 30  1  0
 28 31  1  0
 31 32  1  0
 31 33  1  0
 31 34  1  0
 34 35  1  0
 34 36  1  0
 34 37  1  0
 37 38  1  0
 37 39  1  0
  2 40  1  0
 40 41  2  0
 41 42  1  0
 41 43  1  0
 43 44  2  0
 44 45  1  0
 44 46  1  0
 46 47  1  0
 46 48  2  0
 48 49  1  0
 19  5  1  0
 37 23  1  0
 48 40  1  0
 16  7  1  0
M  CHG  1  31   1
M  END
>  <UniqueID>  (79) 
502

>  <SMILES>  (79) 
O=c1c2ccccc2nc(/C=C/c2cccnc2)n1CC1CC[NH2+]CC1

>  <Energy>  (79) 
71.37294245160794

>  <Genealogy>  (79) 
O=c1c2ccccc2nc(/C=C/c2cccnc2)n1CC1CC[NH2+]CC1 (protonated)
O=c1c2ccccc2nc(/C=C/c2cccnc2)n1CC1CC[NH2+]CC1 (cis-trans isomerization)
O=c1c2ccccc2nc(/C=C/c2cccnc2)n1CC1CC[NH2+]CC1 (3D coordinates assigned)
O=c1c2ccccc2nc(/C=C/c2cccnc2)n1CC1CC[NH2+]CC1 (nonaromatic ring conformer: 71.37294245160794 kcal/mol)

>  <smiles>  (79) 
O=c1c2ccccc2nc(/C=C/c2cccnc2)n1CC1CCNCC1

>  <score_type>  (79) 
oracle

>  <origin>  (79) 
autodockgpu

>  <m_score__min__energy>  (79) 
-7.5800000000000001

>  <m_primary>  (79) 
energy

>  <meeko>  (79) 
{"free_energy": -7.4, "intermolecular_energy": -8.89, "internal_energy": -2.13, "cluster_size": 20, "cluster_id": 1, "rank_in_cluster": 10}

>  <energy>  (79) 
-7.38

>  <cluster_rmsd>  (79) 
0.23

>  <rmsd>  (79) 
271.3

>  <cluster>  (79) 
1

$$$$
ACXZVNHFWDZWKJ-IDGBLARXNA-O
     RDKit          3D

 49 52  0  0  0  0  0  0  0  0999 V2000
  138.3401   78.3168  223.8984 H   0  0  0  0  0  0  0  0  0  0  0  0
  139.0990   78.3550  223.1030 C   0  0  0  0  0  0  0  0  0  0  0  0
  138.9620   77.5260  222.0550 C   0  0  0  0  0  0  0  0  0  0  0  0
  138.0007   77.4995  221.5209 H   0  0  0  0  0  0  0  0  0  0  0  0
  140.0700   76.6390  221.5900 C   0  0  0  0  0  0  0  0  0  0  0  0
  139.9890   75.3130  221.8860 N   0  0  0  0  0  0  0  0  0  0  0  0
  140.9350   74.4270  221.5070 C   0  0  0  0  0  0  0  0  0  0  0  0
  140.8020   73.0740  221.8430 C   0  0  0  0  0  0  0  0  0  0  0  0
  139.9272   72.7329  222.4161 H   0  0  0  0  0  0  0  0  0  0  0  0
  141.7810   72.1570  221.4500 C   0  0  0  0  0  0  0  0  0  0  0  0
  141.6767   71.0945  221.7148 H   0  0  0  0  0  0  0  0  0  0  0  0
  142.8920   72.5890  220.7210 C   0  0  0  0  0  0  0  0  0  0  0  0
  143.6610   71.8653  220.4128 H   0  0  0  0  0  0  0  0  0  0  0  0
  143.0290   73.9390  220.3820 C   0  0  0  0  0  0  0  0  0  0  0  0
  143.9046   74.2749  219.8071 H   0  0  0  0  0  0  0  0  0  0  0  0
  142.0470   74.8690  220.7760 C   0  0  0  0  0  0  0  0  0  0  0  0
  142.1340   76.2360  220.4630 C   0  0  0  0  0  0  0  0  0  0  0  0
  143.1260   76.6490  219.7980 O   0  0  0  0  0  0  0  0  0  0  0  0
  141.1540   77.1140  220.8730 N   0  0  0  0  0  0  0  0  0  0  0  0
  141.2850   78.5530  220.5380 C   0  0  0  0  0  0  0  0  0  0  0  0
  140.7007   79.1418  221.2605 H   0  0  0  0  0  0  0  0  0  0  0  0
  142.3513   78.8196  220.5825 H   0  0  0  0  0  0  0  0  0  0  0  0
  140.7690   78.8590  219.1050 C   0  0  0  0  0  0  0  0  0  0  0  0
  139.6731   78.9205  219.1772 H   0  0  0  0  0  0  0  0  0  0  0  0
  141.2690   80.2210  218.5810 C   0  0  0  0  0  0  0  0  0  0  0  0
  140.6944   80.4830  217.6803 H   0  0  0  0  0  0  0  0  0  0  0  0
  141.1263   80.9570  219.3860 H   0  0  0  0  0  0  0  0  0  0  0  0
  142.7710   80.2120  218.2220 C   0  0  0  0  0  0  0  0  0  0  0  0
  142.9381   80.9363  217.4112 H   0  0  0  0  0  0  0  0  0  0  0  0
  143.3209   80.4716  219.1386 H   0  0  0  0  0  0  0  0  0  0  0  0
  143.2710   78.8930  217.7790 N   0  0  0  0  0  0  0  0  0  0  0  0
  144.0580   79.0390  217.1040 H   0  0  0  0  0  0  0  0  0  0  0  0
  143.6540   78.3620  218.5970 H   0  0  0  0  0  0  0  0  0  0  0  0
  142.2340   78.0880  217.1220 C   0  0  0  0  0  0  0  0  0  0  0  0
  141.8037   78.6654  216.2905 H   0  0  0  0  0  0  0  0  0  0  0  0
  142.6941   77.1605  216.7505 H   0  0  0  0  0  0  0  0  0  0  0  0
  141.1130   77.7170  218.1100 C   0  0  0  0  0  0  0  0  0  0  0  0
  140.2082   77.4704  217.5351 H   0  0  0  0  0  0  0  0  0  0  0  0
  141.4715   76.8637  218.7044 H   0  0  0  0  0  0  0  0  0  0  0  0
  140.2170   79.3190  223.2470 C   0  0  0  0  0  0  0  0  0  0  0  0
  140.0210   80.6520  222.8510 C   0  0  0  0  0  0  0  0  0  0  0  0
  139.0457   80.9640  222.4493 H   0  0  0  0  0  0  0  0  0  0  0  0
  141.0260   81.5590  222.9600 N   0  0  0  0  0  0  0  0  0  0  0  0
  142.2500   81.2160  223.4430 C   0  0  0  0  0  0  0  0  0  0  0  0
  143.0414   81.9756  223.5251 H   0  0  0  0  0  0  0  0  0  0  0  0
  142.5020   79.9020  223.8340 C   0  0  0  0  0  0  0  0  0  0  0  0
  143.4923   79.6181  224.2195 H   0  0  0  0  0  0  0  0  0  0  0  0
  141.4860   78.9490  223.7320 C   0  0  0  0  0  0  0  0  0  0  0  0
  141.6775   77.9079  224.0310 H   0  0  0  0  0  0  0  0  0  0  0  0
  1  2  1  0
  2  3  2  0
  3  4  1  0
  3  5  1  0
  5  6  2  0
  6  7  1  0
  7  8  2  0
  8  9  1  0
  8 10  1  0
 10 11  1  0
 10 12  2  0
 12 13  1  0
 12 14  1  0
 14 15  1  0
 14 16  2  0
 16 17  1  0
 17 18  2  0
 17 19  1  0
 19 20  1  0
 20 21  1  0
 20 22  1  0
 20 23  1  0
 23 24  1  0
 23 25  1  0
 25 26  1  0
 25 27  1  0
 25 28  1  0
 28 29  1  0
 28 30  1  0
 28 31  1  0
 31 32  1  0
 31 33  1  0
 31 34  1  0
 34 35  1  0
 34 36  1  0
 34 37  1  0
 37 38  1  0
 37 39  1  0
  2 40  1  0
 40 41  2  0
 41 42  1  0
 41 43  1  0
 43 44  2  0
 44 45  1  0
 44 46  1  0
 46 47  1  0
 46 48  2  0
 48 49  1  0
 19  5  1  0
 37 23  1  0
 48 40  1  0
 16  7  1  0
M  CHG  1  31   1
M  END
>  <UniqueID>  (80) 
502

>  <SMILES>  (80) 
O=c1c2ccccc2nc(/C=C/c2cccnc2)n1CC1CC[NH2+]CC1

>  <Energy>  (80) 
71.37294245160794

>  <Genealogy>  (80) 
O=c1c2ccccc2nc(/C=C/c2cccnc2)n1CC1CC[NH2+]CC1 (protonated)
O=c1c2ccccc2nc(/C=C/c2cccnc2)n1CC1CC[NH2+]CC1 (cis-trans isomerization)
O=c1c2ccccc2nc(/C=C/c2cccnc2)n1CC1CC[NH2+]CC1 (3D coordinates assigned)
O=c1c2ccccc2nc(/C=C/c2cccnc2)n1CC1CC[NH2+]CC1 (nonaromatic ring conformer: 71.37294245160794 kcal/mol)

>  <smiles>  (80) 
O=c1c2ccccc2nc(/C=C/c2cccnc2)n1CC1CCNCC1

>  <score_type>  (80) 
oracle

>  <origin>  (80) 
autodockgpu

>  <m_score__min__energy>  (80) 
-7.5800000000000001

>  <m_primary>  (80) 
energy

>  <meeko>  (80) 
{"free_energy": -7.56, "intermolecular_energy": -9.05, "internal_energy": -1.99, "cluster_size": 20, "cluster_id": 1, "rank_in_cluster": 5}

>  <energy>  (80) 
-7.05

>  <cluster_rmsd>  (80) 
1.05

>  <rmsd>  (80) 
271.02

>  <cluster>  (80) 
1

$$$$
