KTDBAWTUPMOUSA-RJHOSBTDNA-O
     RDKit          3D

 65 69  0  0  0  0  0  0  0  0999 V2000
  141.4685   72.8898  220.6732 H   0  0  0  0  0  0  0  0  0  0  0  0
  140.8550   73.3760  221.4460 C   0  0  0  0  0  0  0  0  0  0  0  0
  140.8560   74.7180  221.4980 C   0  0  0  0  0  0  0  0  0  0  0  0
  141.8132   75.2437  221.6300 H   0  0  0  0  0  0  0  0  0  0  0  0
  139.6040   75.5200  221.3830 C   0  0  0  0  0  0  0  0  0  0  0  0
  138.7070   75.4330  222.4030 N   0  0  0  0  0  0  0  0  0  0  0  0
  137.5600   76.1440  222.4240 C   0  0  0  0  0  0  0  0  0  0  0  0
  136.6760   76.0170  223.5010 C   0  0  0  0  0  0  0  0  0  0  0  0
  136.9134   75.3328  224.3289 H   0  0  0  0  0  0  0  0  0  0  0  0
  135.4910   76.7590  223.5260 C   0  0  0  0  0  0  0  0  0  0  0  0
  134.7971   76.6578  224.3735 H   0  0  0  0  0  0  0  0  0  0  0  0
  135.1870   77.6300  222.4740 C   0  0  0  0  0  0  0  0  0  0  0  0
  133.7000   78.5590  222.5100 Cl  0  0  0  0  0  0  0  0  0  0  0  0
  136.0680   77.7580  221.3940 C   0  0  0  0  0  0  0  0  0  0  0  0
  135.8260   78.4412  220.5666 H   0  0  0  0  0  0  0  0  0  0  0  0
  137.2640   77.0140  221.3640 C   0  0  0  0  0  0  0  0  0  0  0  0
  138.1810   77.1060  220.3060 C   0  0  0  0  0  0  0  0  0  0  0  0
  137.9250   77.8770  219.3370 O   0  0  0  0  0  0  0  0  0  0  0  0
  139.3440   76.3660  220.3160 N   0  0  0  0  0  0  0  0  0  0  0  0
  140.2650   76.4930  219.1590 C   0  0  0  0  0  0  0  0  0  0  0  0
  140.7200   75.5114  218.9602 H   0  0  0  0  0  0  0  0  0  0  0  0
  139.6768   76.8461  218.2992 H   0  0  0  0  0  0  0  0  0  0  0  0
  141.3960   77.5240  219.4140 C   0  0  0  0  0  0  0  0  0  0  0  0
  141.5670   77.5534  220.5002 H   0  0  0  0  0  0  0  0  0  0  0  0
  142.7580   77.1140  218.7950 C   0  0  0  0  0  0  0  0  0  0  0  0
  143.5688   77.4520  219.4571 H   0  0  0  0  0  0  0  0  0  0  0  0
  142.7749   76.0195  218.6868 H   0  0  0  0  0  0  0  0  0  0  0  0
  142.9510   77.7410  217.4080 C   0  0  0  0  0  0  0  0  0  0  0  0
  143.9132   77.4015  216.9970 H   0  0  0  0  0  0  0  0  0  0  0  0
  142.1096   77.4233  216.7747 H   0  0  0  0  0  0  0  0  0  0  0  0
  142.9490   79.2210  217.4560 N   0  0  0  0  0  0  0  0  0  0  0  0
  143.9370   79.5600  217.5380 H   0  0  0  0  0  0  0  0  0  0  0  0
  142.5700   79.5810  216.5480 H   0  0  0  0  0  0  0  0  0  0  0  0
  142.1600   79.8000  218.5660 C   0  0  0  0  0  0  0  0  0  0  0  0
  142.8073   79.8946  219.4503 H   0  0  0  0  0  0  0  0  0  0  0  0
  141.7852   80.7817  218.2406 H   0  0  0  0  0  0  0  0  0  0  0  0
  140.9510   78.9270  218.9280 C   0  0  0  0  0  0  0  0  0  0  0  0
  140.3802   79.4195  219.7290 H   0  0  0  0  0  0  0  0  0  0  0  0
  140.3303   78.8025  218.0284 H   0  0  0  0  0  0  0  0  0  0  0  0
  140.0770   72.5060  222.3670 C   0  0  0  0  0  0  0  0  0  0  0  0
  138.7300   72.2490  222.0640 C   0  0  0  0  0  0  0  0  0  0  0  0
  138.2874   72.6724  221.1503 H   0  0  0  0  0  0  0  0  0  0  0  0
  137.9470   71.4620  222.9100 C   0  0  0  0  0  0  0  0  0  0  0  0
  136.8935   71.2686  222.6595 H   0  0  0  0  0  0  0  0  0  0  0  0
  138.4970   70.9190  224.0740 C   0  0  0  0  0  0  0  0  0  0  0  0
  137.8748   70.2994  224.7366 H   0  0  0  0  0  0  0  0  0  0  0  0
  139.8400   71.1610  224.4010 C   0  0  0  0  0  0  0  0  0  0  0  0
  140.4030   70.6250  225.6120 N   0  0  0  0  0  0  0  0  0  0  0  0
  140.2750   69.1880  225.9010 C   0  0  0  0  0  0  0  0  0  0  0  0
  139.2412   68.8725  225.6965 H   0  0  0  0  0  0  0  0  0  0  0  0
  140.9837   68.6418  225.2611 H   0  0  0  0  0  0  0  0  0  0  0  0
  140.6110   68.8790  227.3680 C   0  0  0  0  0  0  0  0  0  0  0  0
  140.2196   67.8844  227.6281 H   0  0  0  0  0  0  0  0  0  0  0  0
  141.7032   68.8998  227.4968 H   0  0  0  0  0  0  0  0  0  0  0  0
  139.9800   69.9280  228.2910 C   0  0  0  0  0  0  0  0  0  0  0  0
  138.8870   69.8889  228.1737 H   0  0  0  0  0  0  0  0  0  0  0  0
  140.2855   69.6930  229.3213 H   0  0  0  0  0  0  0  0  0  0  0  0
  140.4610   71.3620  227.9750 C   0  0  0  0  0  0  0  0  0  0  0  0
  139.5991   72.0419  228.0450 H   0  0  0  0  0  0  0  0  0  0  0  0
  141.2464   71.6086  228.7047 H   0  0  0  0  0  0  0  0  0  0  0  0
  141.0820   71.5050  226.5750 C   0  0  0  0  0  0  0  0  0  0  0  0
  140.9841   72.5487  226.2416 H   0  0  0  0  0  0  0  0  0  0  0  0
  142.1428   71.2189  226.6281 H   0  0  0  0  0  0  0  0  0  0  0  0
  140.6210   71.9650  223.5530 C   0  0  0  0  0  0  0  0  0  0  0  0
  141.6682   72.1754  223.8160 H   0  0  0  0  0  0  0  0  0  0  0  0
  1  2  1  0
  2  3  2  0
  3  4  1  0
  3  5  1  0
  5  6  2  0
  6  7  1  0
  7  8  2  0
  8  9  1  0
  8 10  1  0
 10 11  1  0
 10 12  2  0
 12 13  1  0
 12 14  1  0
 14 15  1  0
 14 16  2  0
 16 17  1  0
 17 18  2  0
 17 19  1  0
 19 20  1  0
 20 21  1  0
 20 22  1  0
 20 23  1  0
 23 24  1  0
 23 25  1  0
 25 26  1  0
 25 27  1  0
 25 28  1  0
 28 29  1  0
 28 30  1  0
 28 31  1  0
 31 32  1  0
 31 33  1  0
 31 34  1  0
 34 35  1  0
 34 36  1  0
 34 37  1  0
 37 38  1  0
 37 39  1  0
  2 40  1  0
 40 41  2  0
 41 42  1  0
 41 43  1  0
 43 44  1  0
 43 45  2  0
 45 46  1  0
 45 47  1  0
 47 48  1  0
 48 49  1  0
 49 50  1  0
 49 51  1  0
 49 52  1  0
 52 53  1  0
 52 54  1  0
 52 55  1  0
 55 56  1  0
 55 57  1  0
 55 58  1  0
 58 59  1  0
 58 60  1  0
 58 61  1  0
 61 62  1  0
 61 63  1  0
 47 64  2  0
 64 65  1  0
 19  5  1  0
 37 23  1  0
 64 40  1  0
 16  7  1  0
 61 48  1  0
M  CHG  1  31   1
M  END
>  <UniqueID>  (1) 
418

>  <SMILES>  (1) 
O=c1c2cc(Cl)ccc2nc(/C=C/c2cccc(N3CCCCC3)c2)n1CC1CC[NH2+]CC1

>  <Energy>  (1) 
80.85445616143309

>  <Genealogy>  (1) 
O=c1c2cc(Cl)ccc2nc(/C=C/c2cccc(N3CCCCC3)c2)n1CC1CC[NH2+]CC1 (protonated)
O=c1c2cc(Cl)ccc2nc(/C=C/c2cccc(N3CCCCC3)c2)n1CC1CC[NH2+]CC1 (cis-trans isomerization)
O=c1c2cc(Cl)ccc2nc(/C=C/c2cccc(N3CCCCC3)c2)n1CC1CC[NH2+]CC1 (3D coordinates assigned)
O=c1c2cc(Cl)ccc2nc(/C=C/c2cccc(N3CCCCC3)c2)n1CC1CC[NH2+]CC1 (nonaromatic ring conformer: 80.85445616143309 kcal/mol)

>  <smiles>  (1) 
O=c1c2cc(Cl)ccc2nc(/C=C/c2cccc(N3CCCCC3)c2)n1CC1CCNCC1

>  <score_type>  (1) 
oracle

>  <origin>  (1) 
autodockgpu

>  <m_score__min__energy>  (1) 
-9.5

>  <m_primary>  (1) 
energy

>  <meeko>  (1) 
{"free_energy": -8.35, "intermolecular_energy": -10.14, "internal_energy": -1.61, "cluster_size": 2, "cluster_id": 4, "rank_in_cluster": 2}

>  <energy>  (1) 
-9.5

>  <cluster_rmsd>  (1) 
0.0

>  <rmsd>  (1) 
269.14

>  <cluster>  (1) 
1

$$$$
KTDBAWTUPMOUSA-RJHOSBTDNA-O
     RDKit          3D

 65 69  0  0  0  0  0  0  0  0999 V2000
  142.2689   73.1537  221.5975 H   0  0  0  0  0  0  0  0  0  0  0  0
  141.1820   73.3210  221.5720 C   0  0  0  0  0  0  0  0  0  0  0  0
  140.7190   74.3310  220.8180 C   0  0  0  0  0  0  0  0  0  0  0  0
  141.0635   74.4187  219.7770 H   0  0  0  0  0  0  0  0  0  0  0  0
  139.7530   75.3380  221.3450 C   0  0  0  0  0  0  0  0  0  0  0  0
  138.5590   74.8790  221.8100 N   0  0  0  0  0  0  0  0  0  0  0  0
  137.6270   75.6950  222.3460 C   0  0  0  0  0  0  0  0  0  0  0  0
  136.4170   75.1670  222.8110 C   0  0  0  0  0  0  0  0  0  0  0  0
  136.2236   74.0868  222.7350 H   0  0  0  0  0  0  0  0  0  0  0  0
  135.4540   76.0110  223.3720 C   0  0  0  0  0  0  0  0  0  0  0  0
  134.5035   75.5943  223.7367 H   0  0  0  0  0  0  0  0  0  0  0  0
  135.6980   77.3850  223.4700 C   0  0  0  0  0  0  0  0  0  0  0  0
  134.4870   78.4400  224.1750 Cl  0  0  0  0  0  0  0  0  0  0  0  0
  136.9060   77.9170  223.0030 C   0  0  0  0  0  0  0  0  0  0  0  0
  137.0948   78.9981  223.0776 H   0  0  0  0  0  0  0  0  0  0  0  0
  137.8800   77.0710  222.4380 C   0  0  0  0  0  0  0  0  0  0  0  0
  139.1070   77.5540  221.9570 C   0  0  0  0  0  0  0  0  0  0  0  0
  139.3480   78.7930  222.0230 O   0  0  0  0  0  0  0  0  0  0  0  0
  140.0380   76.6930  221.4170 N   0  0  0  0  0  0  0  0  0  0  0  0
  141.3100   77.2660  220.9070 C   0  0  0  0  0  0  0  0  0  0  0  0
  141.4635   78.2524  221.3689 H   0  0  0  0  0  0  0  0  0  0  0  0
  142.1203   76.5691  221.1671 H   0  0  0  0  0  0  0  0  0  0  0  0
  141.3060   77.4330  219.3650 C   0  0  0  0  0  0  0  0  0  0  0  0
  140.4982   76.7971  218.9737 H   0  0  0  0  0  0  0  0  0  0  0  0
  140.9590   78.8720  218.9000 C   0  0  0  0  0  0  0  0  0  0  0  0
  140.3816   78.8172  217.9653 H   0  0  0  0  0  0  0  0  0  0  0  0
  140.3721   79.3608  219.6916 H   0  0  0  0  0  0  0  0  0  0  0  0
  142.2280   79.7000  218.6560 C   0  0  0  0  0  0  0  0  0  0  0  0
  141.9351   80.7173  218.3572 H   0  0  0  0  0  0  0  0  0  0  0  0
  142.8100   79.7085  219.5894 H   0  0  0  0  0  0  0  0  0  0  0  0
  143.0810   79.1180  217.5940 N   0  0  0  0  0  0  0  0  0  0  0  0
  142.8400   79.5680  216.6790 H   0  0  0  0  0  0  0  0  0  0  0  0
  144.0790   79.3560  217.8050 H   0  0  0  0  0  0  0  0  0  0  0  0
  142.9610   77.6510  217.4430 C   0  0  0  0  0  0  0  0  0  0  0  0
  142.1461   77.4320  216.7373 H   0  0  0  0  0  0  0  0  0  0  0  0
  143.9227   77.2676  217.0712 H   0  0  0  0  0  0  0  0  0  0  0  0
  142.6590   76.9590  218.7790 C   0  0  0  0  0  0  0  0  0  0  0  0
  142.6186   75.8716  218.6182 H   0  0  0  0  0  0  0  0  0  0  0  0
  143.4558   77.2176  219.4919 H   0  0  0  0  0  0  0  0  0  0  0  0
  140.3190   72.4140  222.3750 C   0  0  0  0  0  0  0  0  0  0  0  0
  139.0470   72.0890  221.8750 C   0  0  0  0  0  0  0  0  0  0  0  0
  138.7266   72.4872  220.9009 H   0  0  0  0  0  0  0  0  0  0  0  0
  138.1860   71.2660  222.6020 C   0  0  0  0  0  0  0  0  0  0  0  0
  137.1925   71.0202  222.1988 H   0  0  0  0  0  0  0  0  0  0  0  0
  138.5810   70.7530  223.8400 C   0  0  0  0  0  0  0  0  0  0  0  0
  137.8975   70.1046  224.4078 H   0  0  0  0  0  0  0  0  0  0  0  0
  139.8470   71.0620  224.3620 C   0  0  0  0  0  0  0  0  0  0  0  0
  140.2470   70.5580  225.6490 N   0  0  0  0  0  0  0  0  0  0  0  0
  139.8390   69.2060  226.0610 C   0  0  0  0  0  0  0  0  0  0  0  0
  138.7738   69.0664  225.8249 H   0  0  0  0  0  0  0  0  0  0  0  0
  140.4588   68.4775  225.5178 H   0  0  0  0  0  0  0  0  0  0  0  0
  140.0490   68.9900  227.5670 C   0  0  0  0  0  0  0  0  0  0  0  0
  139.4665   68.1156  227.8929 H   0  0  0  0  0  0  0  0  0  0  0  0
  141.1192   68.8226  227.7587 H   0  0  0  0  0  0  0  0  0  0  0  0
  139.5890   70.2250  228.3510 C   0  0  0  0  0  0  0  0  0  0  0  0
  138.5140   70.3757  228.1730 H   0  0  0  0  0  0  0  0  0  0  0  0
  139.8010   70.0437  229.4151 H   0  0  0  0  0  0  0  0  0  0  0  0
  140.3450   71.5060  227.9330 C   0  0  0  0  0  0  0  0  0  0  0  0
  139.6250   72.3364  227.8886 H   0  0  0  0  0  0  0  0  0  0  0  0
  141.1323   71.6761  228.6822 H   0  0  0  0  0  0  0  0  0  0  0  0
  141.0390   71.3900  226.5660 C   0  0  0  0  0  0  0  0  0  0  0  0
  141.1542   72.3948  226.1333 H   0  0  0  0  0  0  0  0  0  0  0  0
  142.0233   70.9200  226.7084 H   0  0  0  0  0  0  0  0  0  0  0  0
  140.7060   71.9030  223.6330 C   0  0  0  0  0  0  0  0  0  0  0  0
  141.6905   72.1658  224.0473 H   0  0  0  0  0  0  0  0  0  0  0  0
  1  2  1  0
  2  3  2  0
  3  4  1  0
  3  5  1  0
  5  6  2  0
  6  7  1  0
  7  8  2  0
  8  9  1  0
  8 10  1  0
 10 11  1  0
 10 12  2  0
 12 13  1  0
 12 14  1  0
 14 15  1  0
 14 16  2  0
 16 17  1  0
 17 18  2  0
 17 19  1  0
 19 20  1  0
 20 21  1  0
 20 22  1  0
 20 23  1  0
 23 24  1  0
 23 25  1  0
 25 26  1  0
 25 27  1  0
 25 28  1  0
 28 29  1  0
 28 30  1  0
 28 31  1  0
 31 32  1  0
 31 33  1  0
 31 34  1  0
 34 35  1  0
 34 36  1  0
 34 37  1  0
 37 38  1  0
 37 39  1  0
  2 40  1  0
 40 41  2  0
 41 42  1  0
 41 43  1  0
 43 44  1  0
 43 45  2  0
 45 46  1  0
 45 47  1  0
 47 48  1  0
 48 49  1  0
 49 50  1  0
 49 51  1  0
 49 52  1  0
 52 53  1  0
 52 54  1  0
 52 55  1  0
 55 56  1  0
 55 57  1  0
 55 58  1  0
 58 59  1  0
 58 60  1  0
 58 61  1  0
 61 62  1  0
 61 63  1  0
 47 64  2  0
 64 65  1  0
 19  5  1  0
 37 23  1  0
 64 40  1  0
 16  7  1  0
 61 48  1  0
M  CHG  1  31   1
M  END
>  <UniqueID>  (2) 
418

>  <SMILES>  (2) 
O=c1c2cc(Cl)ccc2nc(/C=C/c2cccc(N3CCCCC3)c2)n1CC1CC[NH2+]CC1

>  <Energy>  (2) 
80.85445616143309

>  <Genealogy>  (2) 
O=c1c2cc(Cl)ccc2nc(/C=C/c2cccc(N3CCCCC3)c2)n1CC1CC[NH2+]CC1 (protonated)
O=c1c2cc(Cl)ccc2nc(/C=C/c2cccc(N3CCCCC3)c2)n1CC1CC[NH2+]CC1 (cis-trans isomerization)
O=c1c2cc(Cl)ccc2nc(/C=C/c2cccc(N3CCCCC3)c2)n1CC1CC[NH2+]CC1 (3D coordinates assigned)
O=c1c2cc(Cl)ccc2nc(/C=C/c2cccc(N3CCCCC3)c2)n1CC1CC[NH2+]CC1 (nonaromatic ring conformer: 80.85445616143309 kcal/mol)

>  <smiles>  (2) 
O=c1c2cc(Cl)ccc2nc(/C=C/c2cccc(N3CCCCC3)c2)n1CC1CCNCC1

>  <score_type>  (2) 
oracle

>  <origin>  (2) 
autodockgpu

>  <m_score__min__energy>  (2) 
-9.5

>  <m_primary>  (2) 
energy

>  <meeko>  (2) 
{"free_energy": -9.02, "intermolecular_energy": -10.81, "internal_energy": -1.52, "cluster_size": 2, "cluster_id": 4, "rank_in_cluster": 1}

>  <energy>  (2) 
-9.16

>  <cluster_rmsd>  (2) 
0.81

>  <rmsd>  (2) 
269.39

>  <cluster>  (2) 
1

$$$$
KTDBAWTUPMOUSA-RJHOSBTDNA-O
     RDKit          3D

 65 69  0  0  0  0  0  0  0  0999 V2000
  142.0346   73.0816  221.5166 H   0  0  0  0  0  0  0  0  0  0  0  0
  140.9410   73.1940  221.4800 C   0  0  0  0  0  0  0  0  0  0  0  0
  140.4270   74.0520  220.5840 C   0  0  0  0  0  0  0  0  0  0  0  0
  139.8843   73.6512  219.7151 H   0  0  0  0  0  0  0  0  0  0  0  0
  140.5670   75.5300  220.7270 C   0  0  0  0  0  0  0  0  0  0  0  0
  140.9080   76.0110  221.9530 N   0  0  0  0  0  0  0  0  0  0  0  0
  141.1010   77.3270  222.1870 C   0  0  0  0  0  0  0  0  0  0  0  0
  141.4540   77.7660  223.4680 C   0  0  0  0  0  0  0  0  0  0  0  0
  141.5687   77.0394  224.2859 H   0  0  0  0  0  0  0  0  0  0  0  0
  141.6610   79.1280  223.7090 C   0  0  0  0  0  0  0  0  0  0  0  0
  141.9392   79.4712  224.7164 H   0  0  0  0  0  0  0  0  0  0  0  0
  141.5150   80.0540  222.6720 C   0  0  0  0  0  0  0  0  0  0  0  0
  141.7750   81.7610  222.9790 Cl  0  0  0  0  0  0  0  0  0  0  0  0
  141.1600   79.6180  221.3900 C   0  0  0  0  0  0  0  0  0  0  0  0
  141.0439   80.3479  220.5753 H   0  0  0  0  0  0  0  0  0  0  0  0
  140.9510   78.2480  221.1400 C   0  0  0  0  0  0  0  0  0  0  0  0
  140.5950   77.7590  219.8740 C   0  0  0  0  0  0  0  0  0  0  0  0
  140.4450   78.5760  218.9200 O   0  0  0  0  0  0  0  0  0  0  0  0
  140.4070   76.4090  219.6680 N   0  0  0  0  0  0  0  0  0  0  0  0
  140.0120   75.9560  218.3100 C   0  0  0  0  0  0  0  0  0  0  0  0
  139.5247   74.9733  218.3929 H   0  0  0  0  0  0  0  0  0  0  0  0
  139.3294   76.7093  217.8898 H   0  0  0  0  0  0  0  0  0  0  0  0
  141.2270   75.8310  217.3530 C   0  0  0  0  0  0  0  0  0  0  0  0
  141.2312   74.8005  216.9682 H   0  0  0  0  0  0  0  0  0  0  0  0
  141.1210   76.7380  216.0990 C   0  0  0  0  0  0  0  0  0  0  0  0
  141.5726   76.2179  215.2414 H   0  0  0  0  0  0  0  0  0  0  0  0
  140.0576   76.9477  215.9111 H   0  0  0  0  0  0  0  0  0  0  0  0
  141.8470   78.0720  216.3130 C   0  0  0  0  0  0  0  0  0  0  0  0
  141.7219   78.6914  215.4126 H   0  0  0  0  0  0  0  0  0  0  0  0
  141.4078   78.5563  217.1976 H   0  0  0  0  0  0  0  0  0  0  0  0
  143.2940   77.8890  216.5680 N   0  0  0  0  0  0  0  0  0  0  0  0
  143.8120   77.9700  215.6610 H   0  0  0  0  0  0  0  0  0  0  0  0
  143.6220   78.6690  217.1850 H   0  0  0  0  0  0  0  0  0  0  0  0
  143.6490   76.5990  217.1990 C   0  0  0  0  0  0  0  0  0  0  0  0
  143.8185   75.8522  216.4094 H   0  0  0  0  0  0  0  0  0  0  0  0
  144.5561   76.7538  217.8016 H   0  0  0  0  0  0  0  0  0  0  0  0
  142.5410   76.0910  218.1320 C   0  0  0  0  0  0  0  0  0  0  0  0
  142.8705   75.1530  218.6027 H   0  0  0  0  0  0  0  0  0  0  0  0
  142.3475   76.8606  218.8938 H   0  0  0  0  0  0  0  0  0  0  0  0
  140.1260   72.3860  222.4260 C   0  0  0  0  0  0  0  0  0  0  0  0
  138.7570   72.2210  222.1540 C   0  0  0  0  0  0  0  0  0  0  0  0
  138.3246   72.6671  221.2463 H   0  0  0  0  0  0  0  0  0  0  0  0
  137.9410   71.4970  223.0240 C   0  0  0  0  0  0  0  0  0  0  0  0
  136.8715   71.3747  222.7978 H   0  0  0  0  0  0  0  0  0  0  0  0
  138.4770   70.9270  224.1810 C   0  0  0  0  0  0  0  0  0  0  0  0
  137.8280   70.3577  224.8627 H   0  0  0  0  0  0  0  0  0  0  0  0
  139.8410   71.0780  224.4770 C   0  0  0  0  0  0  0  0  0  0  0  0
  140.3920   70.5140  225.6820 N   0  0  0  0  0  0  0  0  0  0  0  0
  140.2240   69.0790  225.9570 C   0  0  0  0  0  0  0  0  0  0  0  0
  139.1811   68.7953  225.7526 H   0  0  0  0  0  0  0  0  0  0  0  0
  140.9153   68.5197  225.3095 H   0  0  0  0  0  0  0  0  0  0  0  0
  140.5550   68.7450  227.4190 C   0  0  0  0  0  0  0  0  0  0  0  0
  140.1364   67.7592  227.6698 H   0  0  0  0  0  0  0  0  0  0  0  0
  141.6477   68.7334  227.5449 H   0  0  0  0  0  0  0  0  0  0  0  0
  139.9560   69.8020  228.3550 C   0  0  0  0  0  0  0  0  0  0  0  0
  138.8619   69.7945  228.2412 H   0  0  0  0  0  0  0  0  0  0  0  0
  140.2577   69.5484  229.3819 H   0  0  0  0  0  0  0  0  0  0  0  0
  140.4760   71.2250  228.0510 C   0  0  0  0  0  0  0  0  0  0  0  0
  139.6335   71.9279  228.1301 H   0  0  0  0  0  0  0  0  0  0  0  0
  141.2702   71.4420  228.7805 H   0  0  0  0  0  0  0  0  0  0  0  0
  141.0970   71.3650  226.6510 C   0  0  0  0  0  0  0  0  0  0  0  0
  141.0268   72.4142  226.3282 H   0  0  0  0  0  0  0  0  0  0  0  0
  142.1498   71.0496  226.6982 H   0  0  0  0  0  0  0  0  0  0  0  0
  140.6570   71.8180  223.6050 C   0  0  0  0  0  0  0  0  0  0  0  0
  141.7219   71.9566  223.8433 H   0  0  0  0  0  0  0  0  0  0  0  0
  1  2  1  0
  2  3  2  0
  3  4  1  0
  3  5  1  0
  5  6  2  0
  6  7  1  0
  7  8  2  0
  8  9  1  0
  8 10  1  0
 10 11  1  0
 10 12  2  0
 12 13  1  0
 12 14  1  0
 14 15  1  0
 14 16  2  0
 16 17  1  0
 17 18  2  0
 17 19  1  0
 19 20  1  0
 20 21  1  0
 20 22  1  0
 20 23  1  0
 23 24  1  0
 23 25  1  0
 25 26  1  0
 25 27  1  0
 25 28  1  0
 28 29  1  0
 28 30  1  0
 28 31  1  0
 31 32  1  0
 31 33  1  0
 31 34  1  0
 34 35  1  0
 34 36  1  0
 34 37  1  0
 37 38  1  0
 37 39  1  0
  2 40  1  0
 40 41  2  0
 41 42  1  0
 41 43  1  0
 43 44  1  0
 43 45  2  0
 45 46  1  0
 45 47  1  0
 47 48  1  0
 48 49  1  0
 49 50  1  0
 49 51  1  0
 49 52  1  0
 52 53  1  0
 52 54  1  0
 52 55  1  0
 55 56  1  0
 55 57  1  0
 55 58  1  0
 58 59  1  0
 58 60  1  0
 58 61  1  0
 61 62  1  0
 61 63  1  0
 47 64  2  0
 64 65  1  0
 19  5  1  0
 37 23  1  0
 64 40  1  0
 16  7  1  0
 61 48  1  0
M  CHG  1  31   1
M  END
>  <UniqueID>  (3) 
418

>  <SMILES>  (3) 
O=c1c2cc(Cl)ccc2nc(/C=C/c2cccc(N3CCCCC3)c2)n1CC1CC[NH2+]CC1

>  <Energy>  (3) 
80.85445616143309

>  <Genealogy>  (3) 
O=c1c2cc(Cl)ccc2nc(/C=C/c2cccc(N3CCCCC3)c2)n1CC1CC[NH2+]CC1 (protonated)
O=c1c2cc(Cl)ccc2nc(/C=C/c2cccc(N3CCCCC3)c2)n1CC1CC[NH2+]CC1 (cis-trans isomerization)
O=c1c2cc(Cl)ccc2nc(/C=C/c2cccc(N3CCCCC3)c2)n1CC1CC[NH2+]CC1 (3D coordinates assigned)
O=c1c2cc(Cl)ccc2nc(/C=C/c2cccc(N3CCCCC3)c2)n1CC1CC[NH2+]CC1 (nonaromatic ring conformer: 80.85445616143309 kcal/mol)

>  <smiles>  (3) 
O=c1c2cc(Cl)ccc2nc(/C=C/c2cccc(N3CCCCC3)c2)n1CC1CCNCC1

>  <score_type>  (3) 
oracle

>  <origin>  (3) 
autodockgpu

>  <m_score__min__energy>  (3) 
-9.5

>  <m_primary>  (3) 
energy

>  <meeko>  (3) 
{"free_energy": -9.26, "intermolecular_energy": -11.05, "internal_energy": -1.5, "cluster_size": 1, "cluster_id": 2, "rank_in_cluster": 1}

>  <energy>  (3) 
-9.26

>  <cluster_rmsd>  (3) 
0.0

>  <rmsd>  (3) 
269.71

>  <cluster>  (3) 
2

$$$$
KTDBAWTUPMOUSA-RJHOSBTDNA-O
     RDKit          3D

 65 69  0  0  0  0  0  0  0  0999 V2000
  140.8010   74.4682  222.1351 H   0  0  0  0  0  0  0  0  0  0  0  0
  140.7850   73.5040  221.6060 C   0  0  0  0  0  0  0  0  0  0  0  0
  141.2450   73.4710  220.3450 C   0  0  0  0  0  0  0  0  0  0  0  0
  140.7687   74.1123  219.5888 H   0  0  0  0  0  0  0  0  0  0  0  0
  142.3790   72.5950  219.9350 C   0  0  0  0  0  0  0  0  0  0  0  0
  142.1950   71.2500  220.0170 N   0  0  0  0  0  0  0  0  0  0  0  0
  143.1390   70.3630  219.6350 C   0  0  0  0  0  0  0  0  0  0  0  0
  142.8930   68.9900  219.7390 C   0  0  0  0  0  0  0  0  0  0  0  0
  141.9323   68.6325  220.1379 H   0  0  0  0  0  0  0  0  0  0  0  0
  143.8680   68.0710  219.3360 C   0  0  0  0  0  0  0  0  0  0  0  0
  143.6734   66.9915  219.4187 H   0  0  0  0  0  0  0  0  0  0  0  0
  145.0900   68.5240  218.8280 C   0  0  0  0  0  0  0  0  0  0  0  0
  146.3100   67.3680  218.3240 Cl  0  0  0  0  0  0  0  0  0  0  0  0
  145.3400   69.8970  218.7250 C   0  0  0  0  0  0  0  0  0  0  0  0
  146.3030   70.2509  218.3282 H   0  0  0  0  0  0  0  0  0  0  0  0
  144.3620   70.8270  219.1280 C   0  0  0  0  0  0  0  0  0  0  0  0
  144.5620   72.2130  219.0430 C   0  0  0  0  0  0  0  0  0  0  0  0
  145.6620   72.6500  218.5990 O   0  0  0  0  0  0  0  0  0  0  0  0
  143.5770   73.0920  219.4420 N   0  0  0  0  0  0  0  0  0  0  0  0
  143.8550   74.5470  219.3460 C   0  0  0  0  0  0  0  0  0  0  0  0
  143.6314   75.0141  220.3165 H   0  0  0  0  0  0  0  0  0  0  0  0
  144.9139   74.6689  219.0744 H   0  0  0  0  0  0  0  0  0  0  0  0
  143.0030   75.2410  218.2510 C   0  0  0  0  0  0  0  0  0  0  0  0
  142.2572   74.5083  217.9091 H   0  0  0  0  0  0  0  0  0  0  0  0
  142.1820   76.4470  218.7780 C   0  0  0  0  0  0  0  0  0  0  0  0
  141.2227   76.4892  218.2415 H   0  0  0  0  0  0  0  0  0  0  0  0
  142.0189   76.3107  219.8573 H   0  0  0  0  0  0  0  0  0  0  0  0
  142.9320   77.7680  218.5650 C   0  0  0  0  0  0  0  0  0  0  0  0
  142.3271   78.5889  218.9777 H   0  0  0  0  0  0  0  0  0  0  0  0
  143.9035   77.6897  219.0749 H   0  0  0  0  0  0  0  0  0  0  0  0
  143.1920   78.0410  217.1340 N   0  0  0  0  0  0  0  0  0  0  0  0
  142.4200   78.6380  216.7550 H   0  0  0  0  0  0  0  0  0  0  0  0
  144.0790   78.5930  217.0580 H   0  0  0  0  0  0  0  0  0  0  0  0
  143.3090   76.8320  216.2880 C   0  0  0  0  0  0  0  0  0  0  0  0
  142.3081   76.5529  215.9269 H   0  0  0  0  0  0  0  0  0  0  0  0
  143.9826   77.0669  215.4507 H   0  0  0  0  0  0  0  0  0  0  0  0
  143.9060   75.6470  217.0590 C   0  0  0  0  0  0  0  0  0  0  0  0
  144.0069   74.7897  216.3772 H   0  0  0  0  0  0  0  0  0  0  0  0
  144.8881   75.9474  217.4529 H   0  0  0  0  0  0  0  0  0  0  0  0
  140.2550   72.3190  222.3330 C   0  0  0  0  0  0  0  0  0  0  0  0
  139.2350   71.5670  221.7270 C   0  0  0  0  0  0  0  0  0  0  0  0
  138.8683   71.8514  220.7297 H   0  0  0  0  0  0  0  0  0  0  0  0
  138.6820   70.4630  222.3770 C   0  0  0  0  0  0  0  0  0  0  0  0
  137.8852   69.8821  221.8894 H   0  0  0  0  0  0  0  0  0  0  0  0
  139.1370   70.0930  223.6450 C   0  0  0  0  0  0  0  0  0  0  0  0
  138.6964   69.2222  224.1525 H   0  0  0  0  0  0  0  0  0  0  0  0
  140.1540   70.8280  224.2740 C   0  0  0  0  0  0  0  0  0  0  0  0
  140.6080   70.4660  225.5910 N   0  0  0  0  0  0  0  0  0  0  0  0
  140.4580   69.0790  226.0570 C   0  0  0  0  0  0  0  0  0  0  0  0
  139.4471   68.7248  225.8066 H   0  0  0  0  0  0  0  0  0  0  0  0
  141.2220   68.4627  225.5606 H   0  0  0  0  0  0  0  0  0  0  0  0
  140.6630   68.9720  227.5760 C   0  0  0  0  0  0  0  0  0  0  0  0
  140.2532   68.0149  227.9310 H   0  0  0  0  0  0  0  0  0  0  0  0
  141.7393   69.0259  227.7967 H   0  0  0  0  0  0  0  0  0  0  0  0
  139.9490   70.1240  228.2910 C   0  0  0  0  0  0  0  0  0  0  0  0
  138.8710   70.0534  228.0840 H   0  0  0  0  0  0  0  0  0  0  0  0
  140.1616   70.0324  229.3664 H   0  0  0  0  0  0  0  0  0  0  0  0
  140.4520   71.5100  227.8300 C   0  0  0  0  0  0  0  0  0  0  0  0
  139.5853   72.1803  227.7325 H   0  0  0  0  0  0  0  0  0  0  0  0
  141.1686   71.8624  228.5865 H   0  0  0  0  0  0  0  0  0  0  0  0
  141.1950   71.4760  226.4840 C   0  0  0  0  0  0  0  0  0  0  0  0
  141.1235   72.4647  226.0071 H   0  0  0  0  0  0  0  0  0  0  0  0
  142.2479   71.2159  226.6680 H   0  0  0  0  0  0  0  0  0  0  0  0
  140.7000   71.9470  223.6210 C   0  0  0  0  0  0  0  0  0  0  0  0
  141.4822   72.5392  224.1185 H   0  0  0  0  0  0  0  0  0  0  0  0
  1  2  1  0
  2  3  2  0
  3  4  1  0
  3  5  1  0
  5  6  2  0
  6  7  1  0
  7  8  2  0
  8  9  1  0
  8 10  1  0
 10 11  1  0
 10 12  2  0
 12 13  1  0
 12 14  1  0
 14 15  1  0
 14 16  2  0
 16 17  1  0
 17 18  2  0
 17 19  1  0
 19 20  1  0
 20 21  1  0
 20 22  1  0
 20 23  1  0
 23 24  1  0
 23 25  1  0
 25 26  1  0
 25 27  1  0
 25 28  1  0
 28 29  1  0
 28 30  1  0
 28 31  1  0
 31 32  1  0
 31 33  1  0
 31 34  1  0
 34 35  1  0
 34 36  1  0
 34 37  1  0
 37 38  1  0
 37 39  1  0
  2 40  1  0
 40 41  2  0
 41 42  1  0
 41 43  1  0
 43 44  1  0
 43 45  2  0
 45 46  1  0
 45 47  1  0
 47 48  1  0
 48 49  1  0
 49 50  1  0
 49 51  1  0
 49 52  1  0
 52 53  1  0
 52 54  1  0
 52 55  1  0
 55 56  1  0
 55 57  1  0
 55 58  1  0
 58 59  1  0
 58 60  1  0
 58 61  1  0
 61 62  1  0
 61 63  1  0
 47 64  2  0
 64 65  1  0
 19  5  1  0
 37 23  1  0
 64 40  1  0
 16  7  1  0
 61 48  1  0
M  CHG  1  31   1
M  END
>  <UniqueID>  (4) 
418

>  <SMILES>  (4) 
O=c1c2cc(Cl)ccc2nc(/C=C/c2cccc(N3CCCCC3)c2)n1CC1CC[NH2+]CC1

>  <Energy>  (4) 
80.85445616143309

>  <Genealogy>  (4) 
O=c1c2cc(Cl)ccc2nc(/C=C/c2cccc(N3CCCCC3)c2)n1CC1CC[NH2+]CC1 (protonated)
O=c1c2cc(Cl)ccc2nc(/C=C/c2cccc(N3CCCCC3)c2)n1CC1CC[NH2+]CC1 (cis-trans isomerization)
O=c1c2cc(Cl)ccc2nc(/C=C/c2cccc(N3CCCCC3)c2)n1CC1CC[NH2+]CC1 (3D coordinates assigned)
O=c1c2cc(Cl)ccc2nc(/C=C/c2cccc(N3CCCCC3)c2)n1CC1CC[NH2+]CC1 (nonaromatic ring conformer: 80.85445616143309 kcal/mol)

>  <smiles>  (4) 
O=c1c2cc(Cl)ccc2nc(/C=C/c2cccc(N3CCCCC3)c2)n1CC1CCNCC1

>  <score_type>  (4) 
oracle

>  <origin>  (4) 
autodockgpu

>  <m_score__min__energy>  (4) 
-9.5

>  <m_primary>  (4) 
energy

>  <meeko>  (4) 
{"free_energy": -9.5, "intermolecular_energy": -11.29, "internal_energy": -1.53, "cluster_size": 2, "cluster_id": 1, "rank_in_cluster": 1}

>  <energy>  (4) 
-9.19

>  <cluster_rmsd>  (4) 
0.0

>  <rmsd>  (4) 
269.21

>  <cluster>  (4) 
3

$$$$
KTDBAWTUPMOUSA-RJHOSBTDNA-O
     RDKit          3D

 65 69  0  0  0  0  0  0  0  0999 V2000
  138.9044   73.2788  220.8512 H   0  0  0  0  0  0  0  0  0  0  0  0
  139.8030   72.8130  221.2820 C   0  0  0  0  0  0  0  0  0  0  0  0
  141.0000   73.3150  220.9350 C   0  0  0  0  0  0  0  0  0  0  0  0
  141.8202   72.6203  220.7013 H   0  0  0  0  0  0  0  0  0  0  0  0
  141.2540   74.7820  220.8560 C   0  0  0  0  0  0  0  0  0  0  0  0
  140.8340   75.5490  221.8980 N   0  0  0  0  0  0  0  0  0  0  0  0
  141.0470   76.8820  221.9500 C   0  0  0  0  0  0  0  0  0  0  0  0
  140.5960   77.6210  223.0490 C   0  0  0  0  0  0  0  0  0  0  0  0
  140.0628   77.1168  223.8685 H   0  0  0  0  0  0  0  0  0  0  0  0
  140.8220   78.9990  223.1070 C   0  0  0  0  0  0  0  0  0  0  0  0
  140.4665   79.5783  223.9718 H   0  0  0  0  0  0  0  0  0  0  0  0
  141.5000   79.6420  222.0660 C   0  0  0  0  0  0  0  0  0  0  0  0
  141.7820   81.3720  222.1430 Cl  0  0  0  0  0  0  0  0  0  0  0  0
  141.9510   78.9070  220.9640 C   0  0  0  0  0  0  0  0  0  0  0  0
  142.4815   79.4151  220.1452 H   0  0  0  0  0  0  0  0  0  0  0  0
  141.7270   77.5170  220.9010 C   0  0  0  0  0  0  0  0  0  0  0  0
  142.1590   76.7340  219.8200 C   0  0  0  0  0  0  0  0  0  0  0  0
  142.7640   77.2920  218.8600 O   0  0  0  0  0  0  0  0  0  0  0  0
  141.9270   75.3750  219.7980 N   0  0  0  0  0  0  0  0  0  0  0  0
  142.3910   74.6040  218.6180 C   0  0  0  0  0  0  0  0  0  0  0  0
  141.7342   73.7317  218.4852 H   0  0  0  0  0  0  0  0  0  0  0  0
  142.3545   75.2721  217.7449 H   0  0  0  0  0  0  0  0  0  0  0  0
  143.8530   74.1080  218.7740 C   0  0  0  0  0  0  0  0  0  0  0  0
  144.4368   74.5615  217.9594 H   0  0  0  0  0  0  0  0  0  0  0  0
  144.5310   74.5880  220.0840 C   0  0  0  0  0  0  0  0  0  0  0  0
  145.5970   74.7755  219.8877 H   0  0  0  0  0  0  0  0  0  0  0  0
  144.0285   75.5079  220.4176 H   0  0  0  0  0  0  0  0  0  0  0  0
  144.4050   73.5380  221.1950 C   0  0  0  0  0  0  0  0  0  0  0  0
  144.8735   73.9318  222.1090 H   0  0  0  0  0  0  0  0  0  0  0  0
  143.3346   73.3360  221.3479 H   0  0  0  0  0  0  0  0  0  0  0  0
  145.0610   72.2600  220.8360 N   0  0  0  0  0  0  0  0  0  0  0  0
  146.0390   72.2620  221.2100 H   0  0  0  0  0  0  0  0  0  0  0  0
  144.5470   71.4800  221.3100 H   0  0  0  0  0  0  0  0  0  0  0  0
  145.1150   71.9820  219.3830 C   0  0  0  0  0  0  0  0  0  0  0  0
  146.0323   72.4269  218.9699 H   0  0  0  0  0  0  0  0  0  0  0  0
  145.1056   70.8908  219.2447 H   0  0  0  0  0  0  0  0  0  0  0  0
  143.9040   72.5650  218.6420 C   0  0  0  0  0  0  0  0  0  0  0  0
  143.9732   72.2985  217.5770 H   0  0  0  0  0  0  0  0  0  0  0  0
  142.9895   72.1478  219.0888 H   0  0  0  0  0  0  0  0  0  0  0  0
  139.6160   71.6670  222.2120 C   0  0  0  0  0  0  0  0  0  0  0  0
  138.7900   70.6060  221.8030 C   0  0  0  0  0  0  0  0  0  0  0  0
  138.3226   70.6322  220.8076 H   0  0  0  0  0  0  0  0  0  0  0  0
  138.5570   69.5200  222.6470 C   0  0  0  0  0  0  0  0  0  0  0  0
  137.9094   68.6957  222.3137 H   0  0  0  0  0  0  0  0  0  0  0  0
  139.1440   69.4760  223.9150 C   0  0  0  0  0  0  0  0  0  0  0  0
  138.9561   68.6171  224.5760 H   0  0  0  0  0  0  0  0  0  0  0  0
  139.9720   70.5230  224.3480 C   0  0  0  0  0  0  0  0  0  0  0  0
  140.5560   70.4940  225.6630 N   0  0  0  0  0  0  0  0  0  0  0  0
  140.1450   69.4550  226.6200 C   0  0  0  0  0  0  0  0  0  0  0  0
  139.0487   69.3666  226.6032 H   0  0  0  0  0  0  0  0  0  0  0  0
  140.6179   68.5066  226.3252 H   0  0  0  0  0  0  0  0  0  0  0  0
  140.5970   69.7970  228.0480 C   0  0  0  0  0  0  0  0  0  0  0  0
  140.0278   69.1869  228.7647 H   0  0  0  0  0  0  0  0  0  0  0  0
  141.6722   69.5852  228.1434 H   0  0  0  0  0  0  0  0  0  0  0  0
  140.3530   71.2820  228.3420 C   0  0  0  0  0  0  0  0  0  0  0  0
  139.2743   71.4837  228.2667 H   0  0  0  0  0  0  0  0  0  0  0  0
  140.7342   71.4891  229.3528 H   0  0  0  0  0  0  0  0  0  0  0  0
  141.1000   72.2110  227.3600 C   0  0  0  0  0  0  0  0  0  0  0  0
  140.4330   73.0440  227.0932 H   0  0  0  0  0  0  0  0  0  0  0  0
  142.0125   72.5537  227.8698 H   0  0  0  0  0  0  0  0  0  0  0  0
  141.5420   71.5080  226.0660 C   0  0  0  0  0  0  0  0  0  0  0  0
  141.6401   72.2550  225.2645 H   0  0  0  0  0  0  0  0  0  0  0  0
  142.5072   71.0116  226.2449 H   0  0  0  0  0  0  0  0  0  0  0  0
  140.1930   71.6210  223.5000 C   0  0  0  0  0  0  0  0  0  0  0  0
  140.8230   72.4548  223.8434 H   0  0  0  0  0  0  0  0  0  0  0  0
  1  2  1  0
  2  3  2  0
  3  4  1  0
  3  5  1  0
  5  6  2  0
  6  7  1  0
  7  8  2  0
  8  9  1  0
  8 10  1  0
 10 11  1  0
 10 12  2  0
 12 13  1  0
 12 14  1  0
 14 15  1  0
 14 16  2  0
 16 17  1  0
 17 18  2  0
 17 19  1  0
 19 20  1  0
 20 21  1  0
 20 22  1  0
 20 23  1  0
 23 24  1  0
 23 25  1  0
 25 26  1  0
 25 27  1  0
 25 28  1  0
 28 29  1  0
 28 30  1  0
 28 31  1  0
 31 32  1  0
 31 33  1  0
 31 34  1  0
 34 35  1  0
 34 36  1  0
 34 37  1  0
 37 38  1  0
 37 39  1  0
  2 40  1  0
 40 41  2  0
 41 42  1  0
 41 43  1  0
 43 44  1  0
 43 45  2  0
 45 46  1  0
 45 47  1  0
 47 48  1  0
 48 49  1  0
 49 50  1  0
 49 51  1  0
 49 52  1  0
 52 53  1  0
 52 54  1  0
 52 55  1  0
 55 56  1  0
 55 57  1  0
 55 58  1  0
 58 59  1  0
 58 60  1  0
 58 61  1  0
 61 62  1  0
 61 63  1  0
 47 64  2  0
 64 65  1  0
 19  5  1  0
 37 23  1  0
 64 40  1  0
 16  7  1  0
 61 48  1  0
M  CHG  1  31   1
M  END
>  <UniqueID>  (5) 
418

>  <SMILES>  (5) 
O=c1c2cc(Cl)ccc2nc(/C=C/c2cccc(N3CCCCC3)c2)n1CC1CC[NH2+]CC1

>  <Energy>  (5) 
80.85445616143309

>  <Genealogy>  (5) 
O=c1c2cc(Cl)ccc2nc(/C=C/c2cccc(N3CCCCC3)c2)n1CC1CC[NH2+]CC1 (protonated)
O=c1c2cc(Cl)ccc2nc(/C=C/c2cccc(N3CCCCC3)c2)n1CC1CC[NH2+]CC1 (cis-trans isomerization)
O=c1c2cc(Cl)ccc2nc(/C=C/c2cccc(N3CCCCC3)c2)n1CC1CC[NH2+]CC1 (3D coordinates assigned)
O=c1c2cc(Cl)ccc2nc(/C=C/c2cccc(N3CCCCC3)c2)n1CC1CC[NH2+]CC1 (nonaromatic ring conformer: 80.85445616143309 kcal/mol)

>  <smiles>  (5) 
O=c1c2cc(Cl)ccc2nc(/C=C/c2cccc(N3CCCCC3)c2)n1CC1CCNCC1

>  <score_type>  (5) 
oracle

>  <origin>  (5) 
autodockgpu

>  <m_score__min__energy>  (5) 
-9.5

>  <m_primary>  (5) 
energy

>  <meeko>  (5) 
{"free_energy": -8.97, "intermolecular_energy": -10.76, "internal_energy": -1.45, "cluster_size": 1, "cluster_id": 5, "rank_in_cluster": 1}

>  <energy>  (5) 
-9.02

>  <cluster_rmsd>  (5) 
0.0

>  <rmsd>  (5) 
269.64

>  <cluster>  (5) 
4

$$$$
KTDBAWTUPMOUSA-RJHOSBTDNA-O
     RDKit          3D

 65 69  0  0  0  0  0  0  0  0999 V2000
  138.9261   74.1711  222.5186 H   0  0  0  0  0  0  0  0  0  0  0  0
  139.8070   73.9190  221.9100 C   0  0  0  0  0  0  0  0  0  0  0  0
  140.1000   72.6200  221.7360 C   0  0  0  0  0  0  0  0  0  0  0  0
  140.4163   72.2753  220.7404 H   0  0  0  0  0  0  0  0  0  0  0  0
  140.0110   71.6290  222.8470 C   0  0  0  0  0  0  0  0  0  0  0  0
  140.7200   71.8890  223.9780 N   0  0  0  0  0  0  0  0  0  0  0  0
  140.6810   71.0820  225.0600 C   0  0  0  0  0  0  0  0  0  0  0  0
  141.4290   71.4010  226.1990 C   0  0  0  0  0  0  0  0  0  0  0  0
  142.0534   72.3066  226.2109 H   0  0  0  0  0  0  0  0  0  0  0  0
  141.3830   70.5690  227.3220 C   0  0  0  0  0  0  0  0  0  0  0  0
  141.9716   70.8210  228.2165 H   0  0  0  0  0  0  0  0  0  0  0  0
  140.5900   69.4170  227.3100 C   0  0  0  0  0  0  0  0  0  0  0  0
  140.5360   68.3770  228.7210 Cl  0  0  0  0  0  0  0  0  0  0  0  0
  139.8420   69.0940  226.1710 C   0  0  0  0  0  0  0  0  0  0  0  0
  139.2209   68.1861  226.1617 H   0  0  0  0  0  0  0  0  0  0  0  0
  139.8830   69.9290  225.0370 C   0  0  0  0  0  0  0  0  0  0  0  0
  139.1520   69.6510  223.8720 C   0  0  0  0  0  0  0  0  0  0  0  0
  138.4360   68.6100  223.8300 O   0  0  0  0  0  0  0  0  0  0  0  0
  139.2130   70.4970  222.7850 N   0  0  0  0  0  0  0  0  0  0  0  0
  138.4320   70.1380  221.5740 C   0  0  0  0  0  0  0  0  0  0  0  0
  138.9862   70.4713  220.6842 H   0  0  0  0  0  0  0  0  0  0  0  0
  138.2922   69.0469  221.5754 H   0  0  0  0  0  0  0  0  0  0  0  0
  137.0270   70.7960  221.5620 C   0  0  0  0  0  0  0  0  0  0  0  0
  136.4200   70.2464  220.8275 H   0  0  0  0  0  0  0  0  0  0  0  0
  136.2680   70.6590  222.9080 C   0  0  0  0  0  0  0  0  0  0  0  0
  135.1936   70.5419  222.7031 H   0  0  0  0  0  0  0  0  0  0  0  0
  136.6610   69.7801  223.4401 H   0  0  0  0  0  0  0  0  0  0  0  0
  136.4760   71.8940  223.7940 C   0  0  0  0  0  0  0  0  0  0  0  0
  135.9453   71.7406  224.7452 H   0  0  0  0  0  0  0  0  0  0  0  0
  137.5575   72.0162  223.9533 H   0  0  0  0  0  0  0  0  0  0  0  0
  135.9680   73.1320  223.1590 N   0  0  0  0  0  0  0  0  0  0  0  0
  134.9850   73.3010  223.4810 H   0  0  0  0  0  0  0  0  0  0  0  0
  136.5480   73.9370  223.4930 H   0  0  0  0  0  0  0  0  0  0  0  0
  135.9810   73.1150  221.6800 C   0  0  0  0  0  0  0  0  0  0  0  0
  135.0328   72.6881  221.3214 H   0  0  0  0  0  0  0  0  0  0  0  0
  136.1093   74.1497  221.3294 H   0  0  0  0  0  0  0  0  0  0  0  0
  137.1420   72.2790  221.1250 C   0  0  0  0  0  0  0  0  0  0  0  0
  137.1280   72.3310  220.0263 H   0  0  0  0  0  0  0  0  0  0  0  0
  138.0838   72.6860  221.5217 H   0  0  0  0  0  0  0  0  0  0  0  0
  140.5980   75.0390  221.3320 C   0  0  0  0  0  0  0  0  0  0  0  0
  141.4860   74.7540  220.2820 C   0  0  0  0  0  0  0  0  0  0  0  0
  141.5623   73.7266  219.8964 H   0  0  0  0  0  0  0  0  0  0  0  0
  142.2730   75.7630  219.7230 C   0  0  0  0  0  0  0  0  0  0  0  0
  142.9634   75.5267  218.8999 H   0  0  0  0  0  0  0  0  0  0  0  0
  142.1870   77.0710  220.2050 C   0  0  0  0  0  0  0  0  0  0  0  0
  142.8107   77.8606  219.7607 H   0  0  0  0  0  0  0  0  0  0  0  0
  141.3080   77.3820  221.2540 C   0  0  0  0  0  0  0  0  0  0  0  0
  141.2350   78.7230  221.7710 N   0  0  0  0  0  0  0  0  0  0  0  0
  141.5460   79.8600  220.8910 C   0  0  0  0  0  0  0  0  0  0  0  0
  142.4625   79.6347  220.3259 H   0  0  0  0  0  0  0  0  0  0  0  0
  140.6953   80.0136  220.2108 H   0  0  0  0  0  0  0  0  0  0  0  0
  141.7600   81.1510  221.6960 C   0  0  0  0  0  0  0  0  0  0  0  0
  142.2797   81.8889  221.0671 H   0  0  0  0  0  0  0  0  0  0  0  0
  140.7814   81.5446  222.0080 H   0  0  0  0  0  0  0  0  0  0  0  0
  142.6040   80.8660  222.9440 C   0  0  0  0  0  0  0  0  0  0  0  0
  143.5889   80.4934  222.6261 H   0  0  0  0  0  0  0  0  0  0  0  0
  142.6901   81.8049  223.5106 H   0  0  0  0  0  0  0  0  0  0  0  0
  141.9530   79.8160  223.8720 C   0  0  0  0  0  0  0  0  0  0  0  0
  142.7407   79.1450  224.2451 H   0  0  0  0  0  0  0  0  0  0  0  0
  141.4547   80.3662  224.6838 H   0  0  0  0  0  0  0  0  0  0  0  0
  140.8780   78.9650  223.1760 C   0  0  0  0  0  0  0  0  0  0  0  0
  140.7882   78.0003  223.6969 H   0  0  0  0  0  0  0  0  0  0  0  0
  139.9217   79.5076  223.2091 H   0  0  0  0  0  0  0  0  0  0  0  0
  140.5270   76.3610  221.8230 C   0  0  0  0  0  0  0  0  0  0  0  0
  139.8529   76.5946  222.6603 H   0  0  0  0  0  0  0  0  0  0  0  0
  1  2  1  0
  2  3  2  0
  3  4  1  0
  3  5  1  0
  5  6  2  0
  6  7  1  0
  7  8  2  0
  8  9  1  0
  8 10  1  0
 10 11  1  0
 10 12  2  0
 12 13  1  0
 12 14  1  0
 14 15  1  0
 14 16  2  0
 16 17  1  0
 17 18  2  0
 17 19  1  0
 19 20  1  0
 20 21  1  0
 20 22  1  0
 20 23  1  0
 23 24  1  0
 23 25  1  0
 25 26  1  0
 25 27  1  0
 25 28  1  0
 28 29  1  0
 28 30  1  0
 28 31  1  0
 31 32  1  0
 31 33  1  0
 31 34  1  0
 34 35  1  0
 34 36  1  0
 34 37  1  0
 37 38  1  0
 37 39  1  0
  2 40  1  0
 40 41  2  0
 41 42  1  0
 41 43  1  0
 43 44  1  0
 43 45  2  0
 45 46  1  0
 45 47  1  0
 47 48  1  0
 48 49  1  0
 49 50  1  0
 49 51  1  0
 49 52  1  0
 52 53  1  0
 52 54  1  0
 52 55  1  0
 55 56  1  0
 55 57  1  0
 55 58  1  0
 58 59  1  0
 58 60  1  0
 58 61  1  0
 61 62  1  0
 61 63  1  0
 47 64  2  0
 64 65  1  0
 19  5  1  0
 37 23  1  0
 64 40  1  0
 16  7  1  0
 61 48  1  0
M  CHG  1  31   1
M  END
>  <UniqueID>  (6) 
418

>  <SMILES>  (6) 
O=c1c2cc(Cl)ccc2nc(/C=C/c2cccc(N3CCCCC3)c2)n1CC1CC[NH2+]CC1

>  <Energy>  (6) 
80.85445616143309

>  <Genealogy>  (6) 
O=c1c2cc(Cl)ccc2nc(/C=C/c2cccc(N3CCCCC3)c2)n1CC1CC[NH2+]CC1 (protonated)
O=c1c2cc(Cl)ccc2nc(/C=C/c2cccc(N3CCCCC3)c2)n1CC1CC[NH2+]CC1 (cis-trans isomerization)
O=c1c2cc(Cl)ccc2nc(/C=C/c2cccc(N3CCCCC3)c2)n1CC1CC[NH2+]CC1 (3D coordinates assigned)
O=c1c2cc(Cl)ccc2nc(/C=C/c2cccc(N3CCCCC3)c2)n1CC1CC[NH2+]CC1 (nonaromatic ring conformer: 80.85445616143309 kcal/mol)

>  <smiles>  (6) 
O=c1c2cc(Cl)ccc2nc(/C=C/c2cccc(N3CCCCC3)c2)n1CC1CCNCC1

>  <score_type>  (6) 
oracle

>  <origin>  (6) 
autodockgpu

>  <m_score__min__energy>  (6) 
-9.5

>  <m_primary>  (6) 
energy

>  <meeko>  (6) 
{"free_energy": -8.67, "intermolecular_energy": -10.46, "internal_energy": -1.45, "cluster_size": 7, "cluster_id": 6, "rank_in_cluster": 6}

>  <energy>  (6) 
-8.35

>  <cluster_rmsd>  (6) 
0.96

>  <rmsd>  (6) 
269.31

>  <cluster>  (6) 
4

$$$$
KTDBAWTUPMOUSA-RJHOSBTDNA-O
     RDKit          3D

 65 69  0  0  0  0  0  0  0  0999 V2000
  141.7666   73.7236  221.3849 H   0  0  0  0  0  0  0  0  0  0  0  0
  140.6950   73.8480  221.6000 C   0  0  0  0  0  0  0  0  0  0  0  0
  139.9090   72.7610  221.5280 C   0  0  0  0  0  0  0  0  0  0  0  0
  139.3395   72.5766  220.6051 H   0  0  0  0  0  0  0  0  0  0  0  0
  139.7830   71.7960  222.6580 C   0  0  0  0  0  0  0  0  0  0  0  0
  140.5890   71.9840  223.7370 N   0  0  0  0  0  0  0  0  0  0  0  0
  140.5310   71.1950  224.8320 C   0  0  0  0  0  0  0  0  0  0  0  0
  141.3830   71.4370  225.9150 C   0  0  0  0  0  0  0  0  0  0  0  0
  142.1039   72.2667  225.8722 H   0  0  0  0  0  0  0  0  0  0  0  0
  141.3190   70.6250  227.0520 C   0  0  0  0  0  0  0  0  0  0  0  0
  141.9896   70.8164  227.9026 H   0  0  0  0  0  0  0  0  0  0  0  0
  140.4030   69.5700  227.1080 C   0  0  0  0  0  0  0  0  0  0  0  0
  140.3260   68.5540  228.5360 Cl  0  0  0  0  0  0  0  0  0  0  0  0
  139.5510   69.3230  226.0250 C   0  0  0  0  0  0  0  0  0  0  0  0
  138.8335   68.4904  226.0696 H   0  0  0  0  0  0  0  0  0  0  0  0
  139.6110   70.1390  224.8780 C   0  0  0  0  0  0  0  0  0  0  0  0
  138.7780   69.9350  223.7670 C   0  0  0  0  0  0  0  0  0  0  0  0
  137.9490   68.9810  223.7860 O   0  0  0  0  0  0  0  0  0  0  0  0
  138.8620   70.7590  222.6650 N   0  0  0  0  0  0  0  0  0  0  0  0
  137.9680   70.4810  221.5120 C   0  0  0  0  0  0  0  0  0  0  0  0
  138.4860   70.7695  220.5855 H   0  0  0  0  0  0  0  0  0  0  0  0
  137.7304   69.4070  221.5224 H   0  0  0  0  0  0  0  0  0  0  0  0
  136.6310   71.2630  221.6000 C   0  0  0  0  0  0  0  0  0  0  0  0
  135.9675   70.8570  220.8223 H   0  0  0  0  0  0  0  0  0  0  0  0
  135.8750   71.0480  222.9370 C   0  0  0  0  0  0  0  0  0  0  0  0
  134.7925   71.0538  222.7414 H   0  0  0  0  0  0  0  0  0  0  0  0
  136.1887   70.0830  223.3618 H   0  0  0  0  0  0  0  0  0  0  0  0
  136.2060   72.1530  223.9490 C   0  0  0  0  0  0  0  0  0  0  0  0
  135.6718   71.9446  224.8878 H   0  0  0  0  0  0  0  0  0  0  0  0
  137.2957   72.1565  224.0994 H   0  0  0  0  0  0  0  0  0  0  0  0
  135.8110   73.4950  223.4640 N   0  0  0  0  0  0  0  0  0  0  0  0
  134.8520   73.7170  223.8210 H   0  0  0  0  0  0  0  0  0  0  0  0
  136.4670   74.2010  223.8730 H   0  0  0  0  0  0  0  0  0  0  0  0
  135.8090   73.6410  221.9910 C   0  0  0  0  0  0  0  0  0  0  0  0
  134.8218   73.3455  221.6060 H   0  0  0  0  0  0  0  0  0  0  0  0
  136.0302   74.6919  221.7531 H   0  0  0  0  0  0  0  0  0  0  0  0
  136.8820   72.7680  221.3260 C   0  0  0  0  0  0  0  0  0  0  0  0
  136.8640   72.9426  220.2401 H   0  0  0  0  0  0  0  0  0  0  0  0
  137.8613   73.0395  221.7470 H   0  0  0  0  0  0  0  0  0  0  0  0
  140.2090   75.2090  221.9520 C   0  0  0  0  0  0  0  0  0  0  0  0
  138.8270   75.3990  222.1220 C   0  0  0  0  0  0  0  0  0  0  0  0
  138.1424   74.5445  222.0161 H   0  0  0  0  0  0  0  0  0  0  0  0
  138.3150   76.6620  222.4240 C   0  0  0  0  0  0  0  0  0  0  0  0
  137.2312   76.7971  222.5546 H   0  0  0  0  0  0  0  0  0  0  0  0
  139.1740   77.7550  222.5610 C   0  0  0  0  0  0  0  0  0  0  0  0
  138.7640   78.7474  222.8000 H   0  0  0  0  0  0  0  0  0  0  0  0
  140.5580   77.5920  222.3950 C   0  0  0  0  0  0  0  0  0  0  0  0
  141.4440   78.7210  222.5090 N   0  0  0  0  0  0  0  0  0  0  0  0
  141.9690   79.1050  223.8290 C   0  0  0  0  0  0  0  0  0  0  0  0
  141.1461   79.0917  224.5589 H   0  0  0  0  0  0  0  0  0  0  0  0
  142.7535   78.3874  224.1111 H   0  0  0  0  0  0  0  0  0  0  0  0
  142.5880   80.5100  223.8000 C   0  0  0  0  0  0  0  0  0  0  0  0
  142.6867   80.8843  224.8296 H   0  0  0  0  0  0  0  0  0  0  0  0
  143.5774   80.4552  223.3224 H   0  0  0  0  0  0  0  0  0  0  0  0
  141.6990   81.4670  222.9970 C   0  0  0  0  0  0  0  0  0  0  0  0
  140.7182   81.5350  223.4904 H   0  0  0  0  0  0  0  0  0  0  0  0
  142.2040   82.4437  222.9640 H   0  0  0  0  0  0  0  0  0  0  0  0
  141.4890   80.9980  221.5400 C   0  0  0  0  0  0  0  0  0  0  0  0
  140.4380   81.1723  221.2661 H   0  0  0  0  0  0  0  0  0  0  0  0
  142.1847   81.5732  220.9114 H   0  0  0  0  0  0  0  0  0  0  0  0
  141.8080   79.5100  221.3230 C   0  0  0  0  0  0  0  0  0  0  0  0
  141.2396   79.1417  220.4562 H   0  0  0  0  0  0  0  0  0  0  0  0
  142.8882   79.4027  221.1453 H   0  0  0  0  0  0  0  0  0  0  0  0
  141.0690   76.3220  222.0780 C   0  0  0  0  0  0  0  0  0  0  0  0
  142.1509   76.1934  221.9263 H   0  0  0  0  0  0  0  0  0  0  0  0
  1  2  1  0
  2  3  2  0
  3  4  1  0
  3  5  1  0
  5  6  2  0
  6  7  1  0
  7  8  2  0
  8  9  1  0
  8 10  1  0
 10 11  1  0
 10 12  2  0
 12 13  1  0
 12 14  1  0
 14 15  1  0
 14 16  2  0
 16 17  1  0
 17 18  2  0
 17 19  1  0
 19 20  1  0
 20 21  1  0
 20 22  1  0
 20 23  1  0
 23 24  1  0
 23 25  1  0
 25 26  1  0
 25 27  1  0
 25 28  1  0
 28 29  1  0
 28 30  1  0
 28 31  1  0
 31 32  1  0
 31 33  1  0
 31 34  1  0
 34 35  1  0
 34 36  1  0
 34 37  1  0
 37 38  1  0
 37 39  1  0
  2 40  1  0
 40 41  2  0
 41 42  1  0
 41 43  1  0
 43 44  1  0
 43 45  2  0
 45 46  1  0
 45 47  1  0
 47 48  1  0
 48 49  1  0
 49 50  1  0
 49 51  1  0
 49 52  1  0
 52 53  1  0
 52 54  1  0
 52 55  1  0
 55 56  1  0
 55 57  1  0
 55 58  1  0
 58 59  1  0
 58 60  1  0
 58 61  1  0
 61 62  1  0
 61 63  1  0
 47 64  2  0
 64 65  1  0
 19  5  1  0
 37 23  1  0
 64 40  1  0
 16  7  1  0
 61 48  1  0
M  CHG  1  31   1
M  END
>  <UniqueID>  (7) 
418

>  <SMILES>  (7) 
O=c1c2cc(Cl)ccc2nc(/C=C/c2cccc(N3CCCCC3)c2)n1CC1CC[NH2+]CC1

>  <Energy>  (7) 
80.85445616143309

>  <Genealogy>  (7) 
O=c1c2cc(Cl)ccc2nc(/C=C/c2cccc(N3CCCCC3)c2)n1CC1CC[NH2+]CC1 (protonated)
O=c1c2cc(Cl)ccc2nc(/C=C/c2cccc(N3CCCCC3)c2)n1CC1CC[NH2+]CC1 (cis-trans isomerization)
O=c1c2cc(Cl)ccc2nc(/C=C/c2cccc(N3CCCCC3)c2)n1CC1CC[NH2+]CC1 (3D coordinates assigned)
O=c1c2cc(Cl)ccc2nc(/C=C/c2cccc(N3CCCCC3)c2)n1CC1CC[NH2+]CC1 (nonaromatic ring conformer: 80.85445616143309 kcal/mol)

>  <smiles>  (7) 
O=c1c2cc(Cl)ccc2nc(/C=C/c2cccc(N3CCCCC3)c2)n1CC1CCNCC1

>  <score_type>  (7) 
oracle

>  <origin>  (7) 
autodockgpu

>  <m_score__min__energy>  (7) 
-9.5

>  <m_primary>  (7) 
energy

>  <meeko>  (7) 
{"free_energy": -8.93, "intermolecular_energy": -10.72, "internal_energy": -1.7, "cluster_size": 7, "cluster_id": 6, "rank_in_cluster": 3}

>  <energy>  (7) 
-8.97

>  <cluster_rmsd>  (7) 
0.0

>  <rmsd>  (7) 
270.23

>  <cluster>  (7) 
5

$$$$
KTDBAWTUPMOUSA-RJHOSBTDNA-O
     RDKit          3D

 65 69  0  0  0  0  0  0  0  0999 V2000
  141.6762   73.9152  221.3396 H   0  0  0  0  0  0  0  0  0  0  0  0
  140.6130   74.0580  221.5830 C   0  0  0  0  0  0  0  0  0  0  0  0
  139.8020   72.9900  221.5070 C   0  0  0  0  0  0  0  0  0  0  0  0
  139.2075   72.8383  220.5940 H   0  0  0  0  0  0  0  0  0  0  0  0
  139.6800   72.0030  222.6180 C   0  0  0  0  0  0  0  0  0  0  0  0
  140.5450   72.1230  223.6620 N   0  0  0  0  0  0  0  0  0  0  0  0
  140.5000   71.3110  224.7390 C   0  0  0  0  0  0  0  0  0  0  0  0
  141.4130   71.4830  225.7850 C   0  0  0  0  0  0  0  0  0  0  0  0
  142.1721   72.2770  225.7272 H   0  0  0  0  0  0  0  0  0  0  0  0
  141.3610   70.6460  226.9040 C   0  0  0  0  0  0  0  0  0  0  0  0
  142.0799   70.7824  227.7253 H   0  0  0  0  0  0  0  0  0  0  0  0
  140.3970   69.6360  226.9810 C   0  0  0  0  0  0  0  0  0  0  0  0
  140.3360   68.5890  228.3860 Cl  0  0  0  0  0  0  0  0  0  0  0  0
  139.4830   69.4600  225.9350 C   0  0  0  0  0  0  0  0  0  0  0  0
  138.7265   68.6637  225.9954 H   0  0  0  0  0  0  0  0  0  0  0  0
  139.5300   70.3000  224.8060 C   0  0  0  0  0  0  0  0  0  0  0  0
  138.6360   70.1670  223.7310 C   0  0  0  0  0  0  0  0  0  0  0  0
  137.7620   69.2550  223.7690 O   0  0  0  0  0  0  0  0  0  0  0  0
  138.7090   71.0140  222.6460 N   0  0  0  0  0  0  0  0  0  0  0  0
  137.7490   70.8100  221.5320 C   0  0  0  0  0  0  0  0  0  0  0  0
  138.2185   71.1441  220.5950 H   0  0  0  0  0  0  0  0  0  0  0  0
  137.4977   69.7397  221.4967 H   0  0  0  0  0  0  0  0  0  0  0  0
  136.4300   71.6000  221.7380 C   0  0  0  0  0  0  0  0  0  0  0  0
  135.7795   71.3705  220.8812 H   0  0  0  0  0  0  0  0  0  0  0  0
  135.6310   71.1550  222.9910 C   0  0  0  0  0  0  0  0  0  0  0  0
  134.5550   71.2307  222.7752 H   0  0  0  0  0  0  0  0  0  0  0  0
  135.9086   70.1176  223.2290 H   0  0  0  0  0  0  0  0  0  0  0  0
  135.9600   72.0340  224.2040 C   0  0  0  0  0  0  0  0  0  0  0  0
  135.3943   71.6653  225.0723 H   0  0  0  0  0  0  0  0  0  0  0  0
  137.0446   71.9761  224.3782 H   0  0  0  0  0  0  0  0  0  0  0  0
  135.6120   73.4550  223.9770 N   0  0  0  0  0  0  0  0  0  0  0  0
  134.6490   73.6330  224.3490 H   0  0  0  0  0  0  0  0  0  0  0  0
  136.2740   74.0500  224.5300 H   0  0  0  0  0  0  0  0  0  0  0  0
  135.6550   73.8820  222.5610 C   0  0  0  0  0  0  0  0  0  0  0  0
  134.6721   73.6958  222.1035 H   0  0  0  0  0  0  0  0  0  0  0  0
  135.9083   74.9521  222.5355 H   0  0  0  0  0  0  0  0  0  0  0  0
  136.7250   73.1210  221.7650 C   0  0  0  0  0  0  0  0  0  0  0  0
  136.7420   73.5012  220.7329 H   0  0  0  0  0  0  0  0  0  0  0  0
  137.6982   73.2776  222.2531 H   0  0  0  0  0  0  0  0  0  0  0  0
  140.1660   75.4210  221.9750 C   0  0  0  0  0  0  0  0  0  0  0  0
  138.7950   75.6330  222.2010 C   0  0  0  0  0  0  0  0  0  0  0  0
  138.0912   74.7928  222.1074 H   0  0  0  0  0  0  0  0  0  0  0  0
  138.3180   76.8990  222.5430 C   0  0  0  0  0  0  0  0  0  0  0  0
  137.2425   77.0508  222.7171 H   0  0  0  0  0  0  0  0  0  0  0  0
  139.2010   77.9740  222.6650 C   0  0  0  0  0  0  0  0  0  0  0  0
  138.8184   78.9695  222.9345 H   0  0  0  0  0  0  0  0  0  0  0  0
  140.5750   77.7890  222.4450 C   0  0  0  0  0  0  0  0  0  0  0  0
  141.4850   78.9000  222.5440 N   0  0  0  0  0  0  0  0  0  0  0  0
  142.1080   79.2180  223.8380 C   0  0  0  0  0  0  0  0  0  0  0  0
  141.3386   79.1834  224.6234 H   0  0  0  0  0  0  0  0  0  0  0  0
  142.8985   78.4781  224.0320 H   0  0  0  0  0  0  0  0  0  0  0  0
  142.7470   80.6150  223.8260 C   0  0  0  0  0  0  0  0  0  0  0  0
  142.9246   80.9418  224.8612 H   0  0  0  0  0  0  0  0  0  0  0  0
  143.6992   80.5685  223.2772 H   0  0  0  0  0  0  0  0  0  0  0  0
  141.8190   81.6180  223.1310 C   0  0  0  0  0  0  0  0  0  0  0  0
  140.8768   81.6765  223.6956 H   0  0  0  0  0  0  0  0  0  0  0  0
  142.3359   82.5886  223.1047 H   0  0  0  0  0  0  0  0  0  0  0  0
  141.4990   81.2170  221.6730 C   0  0  0  0  0  0  0  0  0  0  0  0
  140.4344   81.4177  221.4823 H   0  0  0  0  0  0  0  0  0  0  0  0
  142.1582   81.8100  221.0220 H   0  0  0  0  0  0  0  0  0  0  0  0
  141.7770   79.7360  221.3700 C   0  0  0  0  0  0  0  0  0  0  0  0
  141.1425   79.4141  220.5310 H   0  0  0  0  0  0  0  0  0  0  0  0
  142.8400   79.6222  221.1112 H   0  0  0  0  0  0  0  0  0  0  0  0
  141.0500   76.5160  222.0870 C   0  0  0  0  0  0  0  0  0  0  0  0
  142.1228   76.3710  221.8918 H   0  0  0  0  0  0  0  0  0  0  0  0
  1  2  1  0
  2  3  2  0
  3  4  1  0
  3  5  1  0
  5  6  2  0
  6  7  1  0
  7  8  2  0
  8  9  1  0
  8 10  1  0
 10 11  1  0
 10 12  2  0
 12 13  1  0
 12 14  1  0
 14 15  1  0
 14 16  2  0
 16 17  1  0
 17 18  2  0
 17 19  1  0
 19 20  1  0
 20 21  1  0
 20 22  1  0
 20 23  1  0
 23 24  1  0
 23 25  1  0
 25 26  1  0
 25 27  1  0
 25 28  1  0
 28 29  1  0
 28 30  1  0
 28 31  1  0
 31 32  1  0
 31 33  1  0
 31 34  1  0
 34 35  1  0
 34 36  1  0
 34 37  1  0
 37 38  1  0
 37 39  1  0
  2 40  1  0
 40 41  2  0
 41 42  1  0
 41 43  1  0
 43 44  1  0
 43 45  2  0
 45 46  1  0
 45 47  1  0
 47 48  1  0
 48 49  1  0
 49 50  1  0
 49 51  1  0
 49 52  1  0
 52 53  1  0
 52 54  1  0
 52 55  1  0
 55 56  1  0
 55 57  1  0
 55 58  1  0
 58 59  1  0
 58 60  1  0
 58 61  1  0
 61 62  1  0
 61 63  1  0
 47 64  2  0
 64 65  1  0
 19  5  1  0
 37 23  1  0
 64 40  1  0
 16  7  1  0
 61 48  1  0
M  CHG  1  31   1
M  END
>  <UniqueID>  (8) 
418

>  <SMILES>  (8) 
O=c1c2cc(Cl)ccc2nc(/C=C/c2cccc(N3CCCCC3)c2)n1CC1CC[NH2+]CC1

>  <Energy>  (8) 
80.85445616143309

>  <Genealogy>  (8) 
O=c1c2cc(Cl)ccc2nc(/C=C/c2cccc(N3CCCCC3)c2)n1CC1CC[NH2+]CC1 (protonated)
O=c1c2cc(Cl)ccc2nc(/C=C/c2cccc(N3CCCCC3)c2)n1CC1CC[NH2+]CC1 (cis-trans isomerization)
O=c1c2cc(Cl)ccc2nc(/C=C/c2cccc(N3CCCCC3)c2)n1CC1CC[NH2+]CC1 (3D coordinates assigned)
O=c1c2cc(Cl)ccc2nc(/C=C/c2cccc(N3CCCCC3)c2)n1CC1CC[NH2+]CC1 (nonaromatic ring conformer: 80.85445616143309 kcal/mol)

>  <smiles>  (8) 
O=c1c2cc(Cl)ccc2nc(/C=C/c2cccc(N3CCCCC3)c2)n1CC1CCNCC1

>  <score_type>  (8) 
oracle

>  <origin>  (8) 
autodockgpu

>  <m_score__min__energy>  (8) 
-9.5

>  <m_primary>  (8) 
energy

>  <meeko>  (8) 
{"free_energy": -8.97, "intermolecular_energy": -10.76, "internal_energy": -1.67, "cluster_size": 7, "cluster_id": 6, "rank_in_cluster": 1}

>  <energy>  (8) 
-8.97

>  <cluster_rmsd>  (8) 
0.0

>  <rmsd>  (8) 
270.04

>  <cluster>  (8) 
6

$$$$
KTDBAWTUPMOUSA-RJHOSBTDNA-O
     RDKit          3D

 65 69  0  0  0  0  0  0  0  0999 V2000
  141.8133   73.8657  221.4060 H   0  0  0  0  0  0  0  0  0  0  0  0
  140.7320   73.8160  221.6020 C   0  0  0  0  0  0  0  0  0  0  0  0
  140.1270   72.6220  221.4910 C   0  0  0  0  0  0  0  0  0  0  0  0
  139.7339   72.3147  220.5106 H   0  0  0  0  0  0  0  0  0  0  0  0
  139.9700   71.6990  222.6510 C   0  0  0  0  0  0  0  0  0  0  0  0
  140.7250   71.9460  223.7560 N   0  0  0  0  0  0  0  0  0  0  0  0
  140.6350   71.2000  224.8780 C   0  0  0  0  0  0  0  0  0  0  0  0
  141.4330   71.5030  225.9860 C   0  0  0  0  0  0  0  0  0  0  0  0
  142.1383   72.3460  225.9412 H   0  0  0  0  0  0  0  0  0  0  0  0
  141.3350   70.7350  227.1510 C   0  0  0  0  0  0  0  0  0  0  0  0
  141.9633   70.9745  228.0215 H   0  0  0  0  0  0  0  0  0  0  0  0
  140.4390   69.6630  227.2100 C   0  0  0  0  0  0  0  0  0  0  0  0
  140.3190   68.7020  228.6720 Cl  0  0  0  0  0  0  0  0  0  0  0  0
  139.6400   69.3560  226.1020 C   0  0  0  0  0  0  0  0  0  0  0  0
  138.9374   68.5109  226.1492 H   0  0  0  0  0  0  0  0  0  0  0  0
  139.7340   70.1270  224.9270 C   0  0  0  0  0  0  0  0  0  0  0  0
  138.9550   69.8620  223.7900 C   0  0  0  0  0  0  0  0  0  0  0  0
  138.1450   68.8920  223.8120 O   0  0  0  0  0  0  0  0  0  0  0  0
  139.0700   70.6440  222.6600 N   0  0  0  0  0  0  0  0  0  0  0  0
  138.2330   70.3020  221.4830 C   0  0  0  0  0  0  0  0  0  0  0  0
  138.7683   70.6011  220.5698 H   0  0  0  0  0  0  0  0  0  0  0  0
  138.0494   69.2177  221.5053 H   0  0  0  0  0  0  0  0  0  0  0  0
  136.8560   71.0160  221.5100 C   0  0  0  0  0  0  0  0  0  0  0  0
  136.2180   70.5150  220.7670 H   0  0  0  0  0  0  0  0  0  0  0  0
  136.1080   70.8670  222.8600 C   0  0  0  0  0  0  0  0  0  0  0  0
  135.0274   70.8004  222.6654 H   0  0  0  0  0  0  0  0  0  0  0  0
  136.4706   69.9562  223.3590 H   0  0  0  0  0  0  0  0  0  0  0  0
  136.3770   72.0640  223.7820 C   0  0  0  0  0  0  0  0  0  0  0  0
  135.8522   71.9019  224.7350 H   0  0  0  0  0  0  0  0  0  0  0  0
  137.4644   72.1376  223.9308 H   0  0  0  0  0  0  0  0  0  0  0  0
  135.9120   73.3400  223.1930 N   0  0  0  0  0  0  0  0  0  0  0  0
  134.9410   73.5380  223.5330 H   0  0  0  0  0  0  0  0  0  0  0  0
  136.5280   74.1100  223.5440 H   0  0  0  0  0  0  0  0  0  0  0  0
  135.9070   73.3700  221.7130 C   0  0  0  0  0  0  0  0  0  0  0  0
  134.9382   72.9932  221.3532 H   0  0  0  0  0  0  0  0  0  0  0  0
  136.0726   74.4094  221.3931 H   0  0  0  0  0  0  0  0  0  0  0  0
  137.0270   72.5060  221.1180 C   0  0  0  0  0  0  0  0  0  0  0  0
  137.0032   72.5933  220.0217 H   0  0  0  0  0  0  0  0  0  0  0  0
  137.9890   72.8619  221.5154 H   0  0  0  0  0  0  0  0  0  0  0  0
  140.0330   75.0750  221.9730 C   0  0  0  0  0  0  0  0  0  0  0  0
  138.6560   75.0170  222.2480 C   0  0  0  0  0  0  0  0  0  0  0  0
  138.1326   74.0504  222.2067 H   0  0  0  0  0  0  0  0  0  0  0  0
  137.9460   76.1740  222.5730 C   0  0  0  0  0  0  0  0  0  0  0  0
  136.8684   76.1141  222.7858 H   0  0  0  0  0  0  0  0  0  0  0  0
  138.5990   77.4080  222.6290 C   0  0  0  0  0  0  0  0  0  0  0  0
  138.0336   78.3158  222.8864 H   0  0  0  0  0  0  0  0  0  0  0  0
  139.9740   77.4940  222.3580 C   0  0  0  0  0  0  0  0  0  0  0  0
  140.6450   78.7660  222.3890 N   0  0  0  0  0  0  0  0  0  0  0  0
  141.2650   79.2920  221.1630 C   0  0  0  0  0  0  0  0  0  0  0  0
  141.8327   78.4860  220.6750 H   0  0  0  0  0  0  0  0  0  0  0  0
  140.4666   79.6624  220.5032 H   0  0  0  0  0  0  0  0  0  0  0  0
  142.2170   80.4580  221.4710 C   0  0  0  0  0  0  0  0  0  0  0  0
  142.8801   80.6227  220.6089 H   0  0  0  0  0  0  0  0  0  0  0  0
  141.6232   81.3629  221.6674 H   0  0  0  0  0  0  0  0  0  0  0  0
  143.0650   80.1390  222.7080 C   0  0  0  0  0  0  0  0  0  0  0  0
  143.6715   79.2454  222.4991 H   0  0  0  0  0  0  0  0  0  0  0  0
  143.6956   81.0159  222.9164 H   0  0  0  0  0  0  0  0  0  0  0  0
  142.2030   79.8710  223.9630 C   0  0  0  0  0  0  0  0  0  0  0  0
  142.6422   79.0257  224.5131 H   0  0  0  0  0  0  0  0  0  0  0  0
  142.1982   80.7974  224.5561 H   0  0  0  0  0  0  0  0  0  0  0  0
  140.7380   79.5330  223.6400 C   0  0  0  0  0  0  0  0  0  0  0  0
  140.3156   78.9361  224.4617 H   0  0  0  0  0  0  0  0  0  0  0  0
  140.1764   80.4714  223.5219 H   0  0  0  0  0  0  0  0  0  0  0  0
  140.6820   76.3290  222.0180 C   0  0  0  0  0  0  0  0  0  0  0  0
  141.7548   76.3941  221.7840 H   0  0  0  0  0  0  0  0  0  0  0  0
  1  2  1  0
  2  3  2  0
  3  4  1  0
  3  5  1  0
  5  6  2  0
  6  7  1  0
  7  8  2  0
  8  9  1  0
  8 10  1  0
 10 11  1  0
 10 12  2  0
 12 13  1  0
 12 14  1  0
 14 15  1  0
 14 16  2  0
 16 17  1  0
 17 18  2  0
 17 19  1  0
 19 20  1  0
 20 21  1  0
 20 22  1  0
 20 23  1  0
 23 24  1  0
 23 25  1  0
 25 26  1  0
 25 27  1  0
 25 28  1  0
 28 29  1  0
 28 30  1  0
 28 31  1  0
 31 32  1  0
 31 33  1  0
 31 34  1  0
 34 35  1  0
 34 36  1  0
 34 37  1  0
 37 38  1  0
 37 39  1  0
  2 40  1  0
 40 41  2  0
 41 42  1  0
 41 43  1  0
 43 44  1  0
 43 45  2  0
 45 46  1  0
 45 47  1  0
 47 48  1  0
 48 49  1  0
 49 50  1  0
 49 51  1  0
 49 52  1  0
 52 53  1  0
 52 54  1  0
 52 55  1  0
 55 56  1  0
 55 57  1  0
 55 58  1  0
 58 59  1  0
 58 60  1  0
 58 61  1  0
 61 62  1  0
 61 63  1  0
 47 64  2  0
 64 65  1  0
 19  5  1  0
 37 23  1  0
 64 40  1  0
 16  7  1  0
 61 48  1  0
M  CHG  1  31   1
M  END
>  <UniqueID>  (9) 
418

>  <SMILES>  (9) 
O=c1c2cc(Cl)ccc2nc(/C=C/c2cccc(N3CCCCC3)c2)n1CC1CC[NH2+]CC1

>  <Energy>  (9) 
80.85445616143309

>  <Genealogy>  (9) 
O=c1c2cc(Cl)ccc2nc(/C=C/c2cccc(N3CCCCC3)c2)n1CC1CC[NH2+]CC1 (protonated)
O=c1c2cc(Cl)ccc2nc(/C=C/c2cccc(N3CCCCC3)c2)n1CC1CC[NH2+]CC1 (cis-trans isomerization)
O=c1c2cc(Cl)ccc2nc(/C=C/c2cccc(N3CCCCC3)c2)n1CC1CC[NH2+]CC1 (3D coordinates assigned)
O=c1c2cc(Cl)ccc2nc(/C=C/c2cccc(N3CCCCC3)c2)n1CC1CC[NH2+]CC1 (nonaromatic ring conformer: 80.85445616143309 kcal/mol)

>  <smiles>  (9) 
O=c1c2cc(Cl)ccc2nc(/C=C/c2cccc(N3CCCCC3)c2)n1CC1CCNCC1

>  <score_type>  (9) 
oracle

>  <origin>  (9) 
autodockgpu

>  <m_score__min__energy>  (9) 
-9.5

>  <m_primary>  (9) 
energy

>  <meeko>  (9) 
{"free_energy": -8.52, "intermolecular_energy": -10.31, "internal_energy": -1.78, "cluster_size": 7, "cluster_id": 6, "rank_in_cluster": 7}

>  <energy>  (9) 
-8.95

>  <cluster_rmsd>  (9) 
0.15

>  <rmsd>  (9) 
270.06

>  <cluster>  (9) 
6

$$$$
KTDBAWTUPMOUSA-RJHOSBTDNA-O
     RDKit          3D

 65 69  0  0  0  0  0  0  0  0999 V2000
  139.2486   76.9048  223.5907 H   0  0  0  0  0  0  0  0  0  0  0  0
  139.8040   77.2790  222.7180 C   0  0  0  0  0  0  0  0  0  0  0  0
  139.7970   76.5330  221.6010 C   0  0  0  0  0  0  0  0  0  0  0  0
  138.8612   76.4398  221.0304 H   0  0  0  0  0  0  0  0  0  0  0  0
  141.0140   75.8270  221.1080 C   0  0  0  0  0  0  0  0  0  0  0  0
  141.0780   74.4810  221.2940 N   0  0  0  0  0  0  0  0  0  0  0  0
  142.1140   73.7360  220.8520 C   0  0  0  0  0  0  0  0  0  0  0  0
  142.1240   72.3530  221.0690 C   0  0  0  0  0  0  0  0  0  0  0  0
  141.2905   71.8743  221.6040 H   0  0  0  0  0  0  0  0  0  0  0  0
  143.1930   71.5800  220.6060 C   0  0  0  0  0  0  0  0  0  0  0  0
  143.2000   70.4934  220.7773 H   0  0  0  0  0  0  0  0  0  0  0  0
  144.2540   72.1870  219.9250 C   0  0  0  0  0  0  0  0  0  0  0  0
  145.5920   71.2130  219.3460 Cl  0  0  0  0  0  0  0  0  0  0  0  0
  144.2470   73.5700  219.7090 C   0  0  0  0  0  0  0  0  0  0  0  0
  145.0831   74.0461  219.1760 H   0  0  0  0  0  0  0  0  0  0  0  0
  143.1730   74.3530  220.1720 C   0  0  0  0  0  0  0  0  0  0  0  0
  143.1170   75.7430  219.9790 C   0  0  0  0  0  0  0  0  0  0  0  0
  144.0680   76.3180  219.3770 O   0  0  0  0  0  0  0  0  0  0  0  0
  142.0440   76.4750  220.4420 N   0  0  0  0  0  0  0  0  0  0  0  0
  142.0520   77.9430  220.2250 C   0  0  0  0  0  0  0  0  0  0  0  0
  141.5430   78.4280  221.0710 H   0  0  0  0  0  0  0  0  0  0  0  0
  143.1009   78.2651  220.1476 H   0  0  0  0  0  0  0  0  0  0  0  0
  141.3340   78.3500  218.9120 C   0  0  0  0  0  0  0  0  0  0  0  0
  140.3380   77.8835  218.9316 H   0  0  0  0  0  0  0  0  0  0  0  0
  141.0710   79.8740  218.7970 C   0  0  0  0  0  0  0  0  0  0  0  0
  140.1148   80.0344  218.2775 H   0  0  0  0  0  0  0  0  0  0  0  0
  141.0387   80.2983  219.8113 H   0  0  0  0  0  0  0  0  0  0  0  0
  142.1890   80.5750  218.0140 C   0  0  0  0  0  0  0  0  0  0  0  0
  141.9766   81.6538  217.9828 H   0  0  0  0  0  0  0  0  0  0  0  0
  143.1402   80.3684  218.5263 H   0  0  0  0  0  0  0  0  0  0  0  0
  142.3020   80.0710  216.6260 N   0  0  0  0  0  0  0  0  0  0  0  0
  141.7350   80.6840  215.9940 H   0  0  0  0  0  0  0  0  0  0  0  0
  143.3020   80.1540  216.3250 H   0  0  0  0  0  0  0  0  0  0  0  0
  141.8630   78.6700  216.4420 C   0  0  0  0  0  0  0  0  0  0  0  0
  140.7845   78.6613  216.2259 H   0  0  0  0  0  0  0  0  0  0  0  0
  142.4391   78.2400  215.6095 H   0  0  0  0  0  0  0  0  0  0  0  0
  142.1250   77.8170  217.6900 C   0  0  0  0  0  0  0  0  0  0  0  0
  141.8161   76.7809  217.4873 H   0  0  0  0  0  0  0  0  0  0  0  0
  143.1988   77.8640  217.9238 H   0  0  0  0  0  0  0  0  0  0  0  0
  140.5150   78.5790  222.8500 C   0  0  0  0  0  0  0  0  0  0  0  0
  141.6920   78.6200  223.6170 C   0  0  0  0  0  0  0  0  0  0  0  0
  142.0728   77.6977  224.0799 H   0  0  0  0  0  0  0  0  0  0  0  0
  142.3820   79.8190  223.7970 C   0  0  0  0  0  0  0  0  0  0  0  0
  143.3024   79.8366  224.3991 H   0  0  0  0  0  0  0  0  0  0  0  0
  141.9080   80.9980  223.2150 C   0  0  0  0  0  0  0  0  0  0  0  0
  142.4565   81.9403  223.3611 H   0  0  0  0  0  0  0  0  0  0  0  0
  140.7350   80.9840  222.4450 C   0  0  0  0  0  0  0  0  0  0  0  0
  140.2290   82.2010  221.8660 N   0  0  0  0  0  0  0  0  0  0  0  0
  138.7850   82.4770  221.8980 C   0  0  0  0  0  0  0  0  0  0  0  0
  138.2405   81.5674  221.6044 H   0  0  0  0  0  0  0  0  0  0  0  0
  138.5142   82.7825  222.9194 H   0  0  0  0  0  0  0  0  0  0  0  0
  138.4090   83.6160  220.9380 C   0  0  0  0  0  0  0  0  0  0  0  0
  137.3248   83.5925  220.7539 H   0  0  0  0  0  0  0  0  0  0  0  0
  138.6930   84.5763  221.3932 H   0  0  0  0  0  0  0  0  0  0  0  0
  139.1520   83.4560  219.6060 C   0  0  0  0  0  0  0  0  0  0  0  0
  138.8477   82.5050  219.1446 H   0  0  0  0  0  0  0  0  0  0  0  0
  138.8897   84.3160  218.9722 H   0  0  0  0  0  0  0  0  0  0  0  0
  140.6870   83.4530  219.7800 C   0  0  0  0  0  0  0  0  0  0  0  0
  141.1112   82.6851  219.1164 H   0  0  0  0  0  0  0  0  0  0  0  0
  141.0432   84.4632  219.5298 H   0  0  0  0  0  0  0  0  0  0  0  0
  141.1400   83.1570  221.2190 C   0  0  0  0  0  0  0  0  0  0  0  0
  142.1540   82.7313  221.1977 H   0  0  0  0  0  0  0  0  0  0  0  0
  141.1314   84.0959  221.7920 H   0  0  0  0  0  0  0  0  0  0  0  0
  140.0360   79.7770  222.2770 C   0  0  0  0  0  0  0  0  0  0  0  0
  139.1045   79.7653  221.6921 H   0  0  0  0  0  0  0  0  0  0  0  0
  1  2  1  0
  2  3  2  0
  3  4  1  0
  3  5  1  0
  5  6  2  0
  6  7  1  0
  7  8  2  0
  8  9  1  0
  8 10  1  0
 10 11  1  0
 10 12  2  0
 12 13  1  0
 12 14  1  0
 14 15  1  0
 14 16  2  0
 16 17  1  0
 17 18  2  0
 17 19  1  0
 19 20  1  0
 20 21  1  0
 20 22  1  0
 20 23  1  0
 23 24  1  0
 23 25  1  0
 25 26  1  0
 25 27  1  0
 25 28  1  0
 28 29  1  0
 28 30  1  0
 28 31  1  0
 31 32  1  0
 31 33  1  0
 31 34  1  0
 34 35  1  0
 34 36  1  0
 34 37  1  0
 37 38  1  0
 37 39  1  0
  2 40  1  0
 40 41  2  0
 41 42  1  0
 41 43  1  0
 43 44  1  0
 43 45  2  0
 45 46  1  0
 45 47  1  0
 47 48  1  0
 48 49  1  0
 49 50  1  0
 49 51  1  0
 49 52  1  0
 52 53  1  0
 52 54  1  0
 52 55  1  0
 55 56  1  0
 55 57  1  0
 55 58  1  0
 58 59  1  0
 58 60  1  0
 58 61  1  0
 61 62  1  0
 61 63  1  0
 47 64  2  0
 64 65  1  0
 19  5  1  0
 37 23  1  0
 64 40  1  0
 16  7  1  0
 61 48  1  0
M  CHG  1  31   1
M  END
>  <UniqueID>  (10) 
418

>  <SMILES>  (10) 
O=c1c2cc(Cl)ccc2nc(/C=C/c2cccc(N3CCCCC3)c2)n1CC1CC[NH2+]CC1

>  <Energy>  (10) 
80.85445616143309

>  <Genealogy>  (10) 
O=c1c2cc(Cl)ccc2nc(/C=C/c2cccc(N3CCCCC3)c2)n1CC1CC[NH2+]CC1 (protonated)
O=c1c2cc(Cl)ccc2nc(/C=C/c2cccc(N3CCCCC3)c2)n1CC1CC[NH2+]CC1 (cis-trans isomerization)
O=c1c2cc(Cl)ccc2nc(/C=C/c2cccc(N3CCCCC3)c2)n1CC1CC[NH2+]CC1 (3D coordinates assigned)
O=c1c2cc(Cl)ccc2nc(/C=C/c2cccc(N3CCCCC3)c2)n1CC1CC[NH2+]CC1 (nonaromatic ring conformer: 80.85445616143309 kcal/mol)

>  <smiles>  (10) 
O=c1c2cc(Cl)ccc2nc(/C=C/c2cccc(N3CCCCC3)c2)n1CC1CCNCC1

>  <score_type>  (10) 
oracle

>  <origin>  (10) 
autodockgpu

>  <m_score__min__energy>  (10) 
-9.5

>  <m_primary>  (10) 
energy

>  <meeko>  (10) 
{"free_energy": -8.49, "intermolecular_energy": -10.28, "internal_energy": -2.14, "cluster_size": 2, "cluster_id": 8, "rank_in_cluster": 1}

>  <energy>  (10) 
-8.93

>  <cluster_rmsd>  (10) 
0.32

>  <rmsd>  (10) 
269.97

>  <cluster>  (10) 
6

$$$$
KTDBAWTUPMOUSA-RJHOSBTDNA-O
     RDKit          3D

 65 69  0  0  0  0  0  0  0  0999 V2000
  139.3930   76.9676  223.6412 H   0  0  0  0  0  0  0  0  0  0  0  0
  139.9010   77.2620  222.7110 C   0  0  0  0  0  0  0  0  0  0  0  0
  139.8280   76.4250  221.6620 C   0  0  0  0  0  0  0  0  0  0  0  0
  138.8516   76.2544  221.1851 H   0  0  0  0  0  0  0  0  0  0  0  0
  141.0260   75.7200  221.1230 C   0  0  0  0  0  0  0  0  0  0  0  0
  141.1260   74.3840  221.3580 N   0  0  0  0  0  0  0  0  0  0  0  0
  142.1470   73.6380  220.8830 C   0  0  0  0  0  0  0  0  0  0  0  0
  142.1970   72.2660  221.1540 C   0  0  0  0  0  0  0  0  0  0  0  0
  141.4077   71.7961  221.7591 H   0  0  0  0  0  0  0  0  0  0  0  0
  143.2500   71.4920  220.6560 C   0  0  0  0  0  0  0  0  0  0  0  0
  143.2874   70.4135  220.8690 H   0  0  0  0  0  0  0  0  0  0  0  0
  144.2550   72.0870  219.8880 C   0  0  0  0  0  0  0  0  0  0  0  0
  145.5740   71.1130  219.2650 Cl  0  0  0  0  0  0  0  0  0  0  0  0
  144.2100   73.4600  219.6170 C   0  0  0  0  0  0  0  0  0  0  0  0
  145.0028   73.9271  219.0143 H   0  0  0  0  0  0  0  0  0  0  0  0
  143.1510   74.2440  220.1150 C   0  0  0  0  0  0  0  0  0  0  0  0
  143.0570   75.6230  219.8710 C   0  0  0  0  0  0  0  0  0  0  0  0
  143.9590   76.1890  219.1890 O   0  0  0  0  0  0  0  0  0  0  0  0
  142.0010   76.3560  220.3700 N   0  0  0  0  0  0  0  0  0  0  0  0
  141.9690   77.8150  220.0950 C   0  0  0  0  0  0  0  0  0  0  0  0
  141.3785   78.3098  220.8802 H   0  0  0  0  0  0  0  0  0  0  0  0
  143.0075   78.1775  220.0837 H   0  0  0  0  0  0  0  0  0  0  0  0
  141.3380   78.1420  218.7160 C   0  0  0  0  0  0  0  0  0  0  0  0
  140.4185   77.5441  218.6314 H   0  0  0  0  0  0  0  0  0  0  0  0
  140.8810   79.6170  218.5790 C   0  0  0  0  0  0  0  0  0  0  0  0
  139.9691   79.6542  217.9649 H   0  0  0  0  0  0  0  0  0  0  0  0
  140.6883   80.0160  219.5858 H   0  0  0  0  0  0  0  0  0  0  0  0
  141.9660   80.4770  217.9160 C   0  0  0  0  0  0  0  0  0  0  0  0
  141.6118   81.5172  217.8662 H   0  0  0  0  0  0  0  0  0  0  0  0
  142.8799   80.3929  218.5224 H   0  0  0  0  0  0  0  0  0  0  0  0
  142.2870   80.0170  216.5460 N   0  0  0  0  0  0  0  0  0  0  0  0
  141.7080   80.5570  215.8610 H   0  0  0  0  0  0  0  0  0  0  0  0
  143.2910   80.2410  216.3500 H   0  0  0  0  0  0  0  0  0  0  0  0
  142.0650   78.5730  216.3140 C   0  0  0  0  0  0  0  0  0  0  0  0
  141.0251   78.4212  215.9891 H   0  0  0  0  0  0  0  0  0  0  0  0
  142.7753   78.2395  215.5431 H   0  0  0  0  0  0  0  0  0  0  0  0
  142.3150   77.7420  217.5810 C   0  0  0  0  0  0  0  0  0  0  0  0
  142.1740   76.6769  217.3450 H   0  0  0  0  0  0  0  0  0  0  0  0
  143.3430   77.9307  217.9239 H   0  0  0  0  0  0  0  0  0  0  0  0
  140.6250   78.5610  222.6940 C   0  0  0  0  0  0  0  0  0  0  0  0
  141.8080   78.6750  223.4430 C   0  0  0  0  0  0  0  0  0  0  0  0
  142.1848   77.8056  224.0018 H   0  0  0  0  0  0  0  0  0  0  0  0
  142.5100   79.8810  223.4850 C   0  0  0  0  0  0  0  0  0  0  0  0
  143.4356   79.9563  224.0746 H   0  0  0  0  0  0  0  0  0  0  0  0
  142.0410   80.9920  222.7810 C   0  0  0  0  0  0  0  0  0  0  0  0
  142.5989   81.9393  222.8187 H   0  0  0  0  0  0  0  0  0  0  0  0
  140.8620   80.9060  222.0260 C   0  0  0  0  0  0  0  0  0  0  0  0
  140.3620   82.0560  221.3200 N   0  0  0  0  0  0  0  0  0  0  0  0
  141.0830   83.3350  221.4090 C   0  0  0  0  0  0  0  0  0  0  0  0
  141.3515   83.5220  222.4592 H   0  0  0  0  0  0  0  0  0  0  0  0
  141.9838   83.2686  220.7812 H   0  0  0  0  0  0  0  0  0  0  0  0
  140.2230   84.5010  220.8980 C   0  0  0  0  0  0  0  0  0  0  0  0
  140.6509   85.4502  221.2528 H   0  0  0  0  0  0  0  0  0  0  0  0
  140.2103   84.4812  219.7982 H   0  0  0  0  0  0  0  0  0  0  0  0
  138.7860   84.3690  221.4160 C   0  0  0  0  0  0  0  0  0  0  0  0
  138.8021   84.4104  222.5151 H   0  0  0  0  0  0  0  0  0  0  0  0
  138.1995   85.1956  220.9885 H   0  0  0  0  0  0  0  0  0  0  0  0
  138.1190   83.0460  220.9800 C   0  0  0  0  0  0  0  0  0  0  0  0
  137.5417   82.6509  221.8289 H   0  0  0  0  0  0  0  0  0  0  0  0
  137.4823   83.2753  220.1128 H   0  0  0  0  0  0  0  0  0  0  0  0
  139.1230   81.9710  220.5320 C   0  0  0  0  0  0  0  0  0  0  0  0
  138.6737   80.9767  220.6717 H   0  0  0  0  0  0  0  0  0  0  0  0
  139.3663   82.1343  219.4718 H   0  0  0  0  0  0  0  0  0  0  0  0
  140.1500   79.6940  221.9960 C   0  0  0  0  0  0  0  0  0  0  0  0
  139.2133   79.6271  221.4231 H   0  0  0  0  0  0  0  0  0  0  0  0
  1  2  1  0
  2  3  2  0
  3  4  1  0
  3  5  1  0
  5  6  2  0
  6  7  1  0
  7  8  2  0
  8  9  1  0
  8 10  1  0
 10 11  1  0
 10 12  2  0
 12 13  1  0
 12 14  1  0
 14 15  1  0
 14 16  2  0
 16 17  1  0
 17 18  2  0
 17 19  1  0
 19 20  1  0
 20 21  1  0
 20 22  1  0
 20 23  1  0
 23 24  1  0
 23 25  1  0
 25 26  1  0
 25 27  1  0
 25 28  1  0
 28 29  1  0
 28 30  1  0
 28 31  1  0
 31 32  1  0
 31 33  1  0
 31 34  1  0
 34 35  1  0
 34 36  1  0
 34 37  1  0
 37 38  1  0
 37 39  1  0
  2 40  1  0
 40 41  2  0
 41 42  1  0
 41 43  1  0
 43 44  1  0
 43 45  2  0
 45 46  1  0
 45 47  1  0
 47 48  1  0
 48 49  1  0
 49 50  1  0
 49 51  1  0
 49 52  1  0
 52 53  1  0
 52 54  1  0
 52 55  1  0
 55 56  1  0
 55 57  1  0
 55 58  1  0
 58 59  1  0
 58 60  1  0
 58 61  1  0
 61 62  1  0
 61 63  1  0
 47 64  2  0
 64 65  1  0
 19  5  1  0
 37 23  1  0
 64 40  1  0
 16  7  1  0
 61 48  1  0
M  CHG  1  31   1
M  END
>  <UniqueID>  (11) 
418

>  <SMILES>  (11) 
O=c1c2cc(Cl)ccc2nc(/C=C/c2cccc(N3CCCCC3)c2)n1CC1CC[NH2+]CC1

>  <Energy>  (11) 
80.85445616143309

>  <Genealogy>  (11) 
O=c1c2cc(Cl)ccc2nc(/C=C/c2cccc(N3CCCCC3)c2)n1CC1CC[NH2+]CC1 (protonated)
O=c1c2cc(Cl)ccc2nc(/C=C/c2cccc(N3CCCCC3)c2)n1CC1CC[NH2+]CC1 (cis-trans isomerization)
O=c1c2cc(Cl)ccc2nc(/C=C/c2cccc(N3CCCCC3)c2)n1CC1CC[NH2+]CC1 (3D coordinates assigned)
O=c1c2cc(Cl)ccc2nc(/C=C/c2cccc(N3CCCCC3)c2)n1CC1CC[NH2+]CC1 (nonaromatic ring conformer: 80.85445616143309 kcal/mol)

>  <smiles>  (11) 
O=c1c2cc(Cl)ccc2nc(/C=C/c2cccc(N3CCCCC3)c2)n1CC1CCNCC1

>  <score_type>  (11) 
oracle

>  <origin>  (11) 
autodockgpu

>  <m_score__min__energy>  (11) 
-9.5

>  <m_primary>  (11) 
energy

>  <meeko>  (11) 
{"free_energy": -8.42, "intermolecular_energy": -10.21, "internal_energy": -1.93, "cluster_size": 2, "cluster_id": 8, "rank_in_cluster": 2}

>  <energy>  (11) 
-8.93

>  <cluster_rmsd>  (11) 
0.57

>  <rmsd>  (11) 
269.97

>  <cluster>  (11) 
6

$$$$
KTDBAWTUPMOUSA-RJHOSBTDNA-O
     RDKit          3D

 65 69  0  0  0  0  0  0  0  0999 V2000
  141.7005   73.8934  221.2640 H   0  0  0  0  0  0  0  0  0  0  0  0
  140.6440   74.0240  221.5410 C   0  0  0  0  0  0  0  0  0  0  0  0
  139.8390   72.9510  221.4730 C   0  0  0  0  0  0  0  0  0  0  0  0
  139.2974   72.7511  220.5366 H   0  0  0  0  0  0  0  0  0  0  0  0
  139.6550   72.0220  222.6240 C   0  0  0  0  0  0  0  0  0  0  0  0
  140.5170   72.1390  223.6700 N   0  0  0  0  0  0  0  0  0  0  0  0
  140.4190   71.3770  224.7800 C   0  0  0  0  0  0  0  0  0  0  0  0
  141.3320   71.5430  225.8270 C   0  0  0  0  0  0  0  0  0  0  0  0
  142.1344   72.2907  225.7427 H   0  0  0  0  0  0  0  0  0  0  0  0
  141.2260   70.7600  226.9800 C   0  0  0  0  0  0  0  0  0  0  0  0
  141.9448   70.8926  227.8020 H   0  0  0  0  0  0  0  0  0  0  0  0
  140.2070   69.8080  227.0900 C   0  0  0  0  0  0  0  0  0  0  0  0
  140.0780   68.8280  228.5380 Cl  0  0  0  0  0  0  0  0  0  0  0  0
  139.2930   69.6380  226.0440 C   0  0  0  0  0  0  0  0  0  0  0  0
  138.4934   68.8877  226.1310 H   0  0  0  0  0  0  0  0  0  0  0  0
  139.3940   70.4250  224.8800 C   0  0  0  0  0  0  0  0  0  0  0  0
  138.5030   70.2950  223.8040 C   0  0  0  0  0  0  0  0  0  0  0  0
  137.5790   69.4340  223.8720 O   0  0  0  0  0  0  0  0  0  0  0  0
  138.6310   71.0890  222.6840 N   0  0  0  0  0  0  0  0  0  0  0  0
  137.6690   70.8900  221.5710 C   0  0  0  0  0  0  0  0  0  0  0  0
  138.1532   71.1847  220.6283 H   0  0  0  0  0  0  0  0  0  0  0  0
  137.3818   69.8282  221.5611 H   0  0  0  0  0  0  0  0  0  0  0  0
  136.3760   71.7290  221.7510 C   0  0  0  0  0  0  0  0  0  0  0  0
  135.7480   71.5482  220.8662 H   0  0  0  0  0  0  0  0  0  0  0  0
  135.5160   71.2860  222.9630 C   0  0  0  0  0  0  0  0  0  0  0  0
  134.4522   71.4104  222.7122 H   0  0  0  0  0  0  0  0  0  0  0  0
  135.7430   70.2325  223.1835 H   0  0  0  0  0  0  0  0  0  0  0  0
  135.8370   72.1220  224.2090 C   0  0  0  0  0  0  0  0  0  0  0  0
  135.2275   71.7552  225.0480 H   0  0  0  0  0  0  0  0  0  0  0  0
  136.9118   72.0166  224.4180 H   0  0  0  0  0  0  0  0  0  0  0  0
  135.5530   73.5610  224.0070 N   0  0  0  0  0  0  0  0  0  0  0  0
  134.5860   73.7690  224.3490 H   0  0  0  0  0  0  0  0  0  0  0  0
  136.2190   74.1150  224.5970 H   0  0  0  0  0  0  0  0  0  0  0  0
  135.6640   74.0190  222.6050 C   0  0  0  0  0  0  0  0  0  0  0  0
  134.6914   73.8840  222.1092 H   0  0  0  0  0  0  0  0  0  0  0  0
  135.9613   75.0780  222.6159 H   0  0  0  0  0  0  0  0  0  0  0  0
  136.7300   73.2350  221.8270 C   0  0  0  0  0  0  0  0  0  0  0  0
  136.7984   73.6391  220.8062 H   0  0  0  0  0  0  0  0  0  0  0  0
  137.6909   73.3401  222.3519 H   0  0  0  0  0  0  0  0  0  0  0  0
  140.1980   75.3780  221.9670 C   0  0  0  0  0  0  0  0  0  0  0  0
  138.8330   75.5760  222.2330 C   0  0  0  0  0  0  0  0  0  0  0  0
  138.1326   74.7324  222.1441 H   0  0  0  0  0  0  0  0  0  0  0  0
  138.3570   76.8330  222.6090 C   0  0  0  0  0  0  0  0  0  0  0  0
  137.2861   76.9738  222.8171 H   0  0  0  0  0  0  0  0  0  0  0  0
  139.2360   77.9130  222.7220 C   0  0  0  0  0  0  0  0  0  0  0  0
  138.8542   78.9014  223.0175 H   0  0  0  0  0  0  0  0  0  0  0  0
  140.6040   77.7420  222.4600 C   0  0  0  0  0  0  0  0  0  0  0  0
  141.5090   78.8580  222.5500 N   0  0  0  0  0  0  0  0  0  0  0  0
  142.1040   79.2100  223.8490 C   0  0  0  0  0  0  0  0  0  0  0  0
  141.3185   79.1925  224.6188 H   0  0  0  0  0  0  0  0  0  0  0  0
  142.8921   78.4777  224.0782 H   0  0  0  0  0  0  0  0  0  0  0  0
  142.7390   80.6080  223.8150 C   0  0  0  0  0  0  0  0  0  0  0  0
  142.8943   80.9611  224.8451 H   0  0  0  0  0  0  0  0  0  0  0  0
  143.7023   80.5506  223.2870 H   0  0  0  0  0  0  0  0  0  0  0  0
  141.8230   81.5910  223.0760 C   0  0  0  0  0  0  0  0  0  0  0  0
  140.8692   81.6610  223.6196 H   0  0  0  0  0  0  0  0  0  0  0  0
  142.3382   82.5621  223.0359 H   0  0  0  0  0  0  0  0  0  0  0  0
  141.5340   81.1530  221.6230 C   0  0  0  0  0  0  0  0  0  0  0  0
  140.4728   81.3448  221.4061 H   0  0  0  0  0  0  0  0  0  0  0  0
  142.2043   81.7322  220.9710 H   0  0  0  0  0  0  0  0  0  0  0  0
  141.8230   79.6660  221.3620 C   0  0  0  0  0  0  0  0  0  0  0  0
  141.2073   79.3214  220.5181 H   0  0  0  0  0  0  0  0  0  0  0  0
  142.8915   79.5496  221.1281 H   0  0  0  0  0  0  0  0  0  0  0  0
  141.0780   76.4780  222.0700 C   0  0  0  0  0  0  0  0  0  0  0  0
  142.1458   76.3437  221.8425 H   0  0  0  0  0  0  0  0  0  0  0  0
  1  2  1  0
  2  3  2  0
  3  4  1  0
  3  5  1  0
  5  6  2  0
  6  7  1  0
  7  8  2  0
  8  9  1  0
  8 10  1  0
 10 11  1  0
 10 12  2  0
 12 13  1  0
 12 14  1  0
 14 15  1  0
 14 16  2  0
 16 17  1  0
 17 18  2  0
 17 19  1  0
 19 20  1  0
 20 21  1  0
 20 22  1  0
 20 23  1  0
 23 24  1  0
 23 25  1  0
 25 26  1  0
 25 27  1  0
 25 28  1  0
 28 29  1  0
 28 30  1  0
 28 31  1  0
 31 32  1  0
 31 33  1  0
 31 34  1  0
 34 35  1  0
 34 36  1  0
 34 37  1  0
 37 38  1  0
 37 39  1  0
  2 40  1  0
 40 41  2  0
 41 42  1  0
 41 43  1  0
 43 44  1  0
 43 45  2  0
 45 46  1  0
 45 47  1  0
 47 48  1  0
 48 49  1  0
 49 50  1  0
 49 51  1  0
 49 52  1  0
 52 53  1  0
 52 54  1  0
 52 55  1  0
 55 56  1  0
 55 57  1  0
 55 58  1  0
 58 59  1  0
 58 60  1  0
 58 61  1  0
 61 62  1  0
 61 63  1  0
 47 64  2  0
 64 65  1  0
 19  5  1  0
 37 23  1  0
 64 40  1  0
 16  7  1  0
 61 48  1  0
M  CHG  1  31   1
M  END
>  <UniqueID>  (12) 
418

>  <SMILES>  (12) 
O=c1c2cc(Cl)ccc2nc(/C=C/c2cccc(N3CCCCC3)c2)n1CC1CC[NH2+]CC1

>  <Energy>  (12) 
80.85445616143309

>  <Genealogy>  (12) 
O=c1c2cc(Cl)ccc2nc(/C=C/c2cccc(N3CCCCC3)c2)n1CC1CC[NH2+]CC1 (protonated)
O=c1c2cc(Cl)ccc2nc(/C=C/c2cccc(N3CCCCC3)c2)n1CC1CC[NH2+]CC1 (cis-trans isomerization)
O=c1c2cc(Cl)ccc2nc(/C=C/c2cccc(N3CCCCC3)c2)n1CC1CC[NH2+]CC1 (3D coordinates assigned)
O=c1c2cc(Cl)ccc2nc(/C=C/c2cccc(N3CCCCC3)c2)n1CC1CC[NH2+]CC1 (nonaromatic ring conformer: 80.85445616143309 kcal/mol)

>  <smiles>  (12) 
O=c1c2cc(Cl)ccc2nc(/C=C/c2cccc(N3CCCCC3)c2)n1CC1CCNCC1

>  <score_type>  (12) 
oracle

>  <origin>  (12) 
autodockgpu

>  <m_score__min__energy>  (12) 
-9.5

>  <m_primary>  (12) 
energy

>  <meeko>  (12) 
{"free_energy": -8.95, "intermolecular_energy": -10.74, "internal_energy": -1.68, "cluster_size": 7, "cluster_id": 6, "rank_in_cluster": 2}

>  <energy>  (12) 
-8.91

>  <cluster_rmsd>  (12) 
0.54

>  <rmsd>  (12) 
269.94

>  <cluster>  (12) 
6

$$$$
KTDBAWTUPMOUSA-RJHOSBTDNA-O
     RDKit          3D

 65 69  0  0  0  0  0  0  0  0999 V2000
  140.9789   73.9770  222.5089 H   0  0  0  0  0  0  0  0  0  0  0  0
  140.8250   73.0260  221.9780 C   0  0  0  0  0  0  0  0  0  0  0  0
  141.2010   72.9570  220.6900 C   0  0  0  0  0  0  0  0  0  0  0  0
  140.6450   73.5410  219.9418 H   0  0  0  0  0  0  0  0  0  0  0  0
  142.3470   72.1150  220.2410 C   0  0  0  0  0  0  0  0  0  0  0  0
  142.1550   70.7700  220.1880 N   0  0  0  0  0  0  0  0  0  0  0  0
  143.1100   69.9170  219.7580 C   0  0  0  0  0  0  0  0  0  0  0  0
  142.8560   68.5410  219.7220 C   0  0  0  0  0  0  0  0  0  0  0  0
  141.8800   68.1534  220.0495 H   0  0  0  0  0  0  0  0  0  0  0  0
  143.8420   67.6590  219.2700 C   0  0  0  0  0  0  0  0  0  0  0  0
  143.6406   66.5780  219.2415 H   0  0  0  0  0  0  0  0  0  0  0  0
  145.0840   68.1490  218.8540 C   0  0  0  0  0  0  0  0  0  0  0  0
  146.3170   67.0380  218.2880 Cl  0  0  0  0  0  0  0  0  0  0  0  0
  145.3420   69.5240  218.8910 C   0  0  0  0  0  0  0  0  0  0  0  0
  146.3202   69.9074  218.5653 H   0  0  0  0  0  0  0  0  0  0  0  0
  144.3530   70.4180  219.3440 C   0  0  0  0  0  0  0  0  0  0  0  0
  144.5600   71.8050  219.4000 C   0  0  0  0  0  0  0  0  0  0  0  0
  145.6780   72.2730  219.0400 O   0  0  0  0  0  0  0  0  0  0  0  0
  143.5640   72.6480  219.8430 N   0  0  0  0  0  0  0  0  0  0  0  0
  143.8510   74.1040  219.8970 C   0  0  0  0  0  0  0  0  0  0  0  0
  143.7470   74.4464  220.9372 H   0  0  0  0  0  0  0  0  0  0  0  0
  144.8737   74.2588  219.5226 H   0  0  0  0  0  0  0  0  0  0  0  0
  142.8890   74.9290  219.0020 C   0  0  0  0  0  0  0  0  0  0  0  0
  142.2140   74.2143  218.5085 H   0  0  0  0  0  0  0  0  0  0  0  0
  141.9650   75.8820  219.8040 C   0  0  0  0  0  0  0  0  0  0  0  0
  140.9867   75.9372  219.3040 H   0  0  0  0  0  0  0  0  0  0  0  0
  141.8590   75.4851  220.8244 H   0  0  0  0  0  0  0  0  0  0  0  0
  142.5610   77.2930  219.8930 C   0  0  0  0  0  0  0  0  0  0  0  0
  141.8880   77.9242  220.4918 H   0  0  0  0  0  0  0  0  0  0  0  0
  143.5541   77.2102  220.3588 H   0  0  0  0  0  0  0  0  0  0  0  0
  142.7360   77.9140  218.5600 N   0  0  0  0  0  0  0  0  0  0  0  0
  141.8900   78.4910  218.3400 H   0  0  0  0  0  0  0  0  0  0  0  0
  143.5550   78.5650  218.6040 H   0  0  0  0  0  0  0  0  0  0  0  0
  142.9490   76.9510  217.4560 C   0  0  0  0  0  0  0  0  0  0  0  0
  141.9706   76.6513  217.0523 H   0  0  0  0  0  0  0  0  0  0  0  0
  143.5619   77.4448  216.6876 H   0  0  0  0  0  0  0  0  0  0  0  0
  143.6970   75.6960  217.9250 C   0  0  0  0  0  0  0  0  0  0  0  0
  143.8626   75.0341  217.0622 H   0  0  0  0  0  0  0  0  0  0  0  0
  144.6554   76.0074  218.3660 H   0  0  0  0  0  0  0  0  0  0  0  0
  140.2140   71.8990  222.7320 C   0  0  0  0  0  0  0  0  0  0  0  0
  139.1130   71.2370  222.1640 C   0  0  0  0  0  0  0  0  0  0  0  0
  138.7430   71.5453  221.1751 H   0  0  0  0  0  0  0  0  0  0  0  0
  138.4840   70.1920  222.8420 C   0  0  0  0  0  0  0  0  0  0  0  0
  137.6229   69.6821  222.3852 H   0  0  0  0  0  0  0  0  0  0  0  0
  138.9440   69.7910  224.0990 C   0  0  0  0  0  0  0  0  0  0  0  0
  138.4441   68.9663  224.6281 H   0  0  0  0  0  0  0  0  0  0  0  0
  140.0420   70.4370  224.6890 C   0  0  0  0  0  0  0  0  0  0  0  0
  140.5030   70.0440  225.9950 N   0  0  0  0  0  0  0  0  0  0  0  0
  140.6260   68.6160  226.3250 C   0  0  0  0  0  0  0  0  0  0  0  0
  139.7238   68.0900  225.9795 H   0  0  0  0  0  0  0  0  0  0  0  0
  141.5235   68.2217  225.8259 H   0  0  0  0  0  0  0  0  0  0  0  0
  140.7810   68.4010  227.8380 C   0  0  0  0  0  0  0  0  0  0  0  0
  140.5637   67.3500  228.0793 H   0  0  0  0  0  0  0  0  0  0  0  0
  141.8117   68.6495  228.1310 H   0  0  0  0  0  0  0  0  0  0  0  0
  139.8120   69.3070  228.6060 C   0  0  0  0  0  0  0  0  0  0  0  0
  138.7824   69.0400  228.3255 H   0  0  0  0  0  0  0  0  0  0  0  0
  139.9919   69.1534  229.6803 H   0  0  0  0  0  0  0  0  0  0  0  0
  140.0350   70.8050  228.3030 C   0  0  0  0  0  0  0  0  0  0  0  0
  139.0528   71.2916  228.2103 H   0  0  0  0  0  0  0  0  0  0  0  0
  140.6283   71.2183  229.1320 H   0  0  0  0  0  0  0  0  0  0  0  0
  140.8270   71.0570  227.0100 C   0  0  0  0  0  0  0  0  0  0  0  0
  140.5727   72.0534  226.6194 H   0  0  0  0  0  0  0  0  0  0  0  0
  141.9017   70.9983  227.2370 H   0  0  0  0  0  0  0  0  0  0  0  0
  140.6640   71.4970  224.0090 C   0  0  0  0  0  0  0  0  0  0  0  0
  141.5113   72.0201  224.4764 H   0  0  0  0  0  0  0  0  0  0  0  0
  1  2  1  0
  2  3  2  0
  3  4  1  0
  3  5  1  0
  5  6  2  0
  6  7  1  0
  7  8  2  0
  8  9  1  0
  8 10  1  0
 10 11  1  0
 10 12  2  0
 12 13  1  0
 12 14  1  0
 14 15  1  0
 14 16  2  0
 16 17  1  0
 17 18  2  0
 17 19  1  0
 19 20  1  0
 20 21  1  0
 20 22  1  0
 20 23  1  0
 23 24  1  0
 23 25  1  0
 25 26  1  0
 25 27  1  0
 25 28  1  0
 28 29  1  0
 28 30  1  0
 28 31  1  0
 31 32  1  0
 31 33  1  0
 31 34  1  0
 34 35  1  0
 34 36  1  0
 34 37  1  0
 37 38  1  0
 37 39  1  0
  2 40  1  0
 40 41  2  0
 41 42  1  0
 41 43  1  0
 43 44  1  0
 43 45  2  0
 45 46  1  0
 45 47  1  0
 47 48  1  0
 48 49  1  0
 49 50  1  0
 49 51  1  0
 49 52  1  0
 52 53  1  0
 52 54  1  0
 52 55  1  0
 55 56  1  0
 55 57  1  0
 55 58  1  0
 58 59  1  0
 58 60  1  0
 58 61  1  0
 61 62  1  0
 61 63  1  0
 47 64  2  0
 64 65  1  0
 19  5  1  0
 37 23  1  0
 64 40  1  0
 16  7  1  0
 61 48  1  0
M  CHG  1  31   1
M  END
>  <UniqueID>  (13) 
418

>  <SMILES>  (13) 
O=c1c2cc(Cl)ccc2nc(/C=C/c2cccc(N3CCCCC3)c2)n1CC1CC[NH2+]CC1

>  <Energy>  (13) 
80.85445616143309

>  <Genealogy>  (13) 
O=c1c2cc(Cl)ccc2nc(/C=C/c2cccc(N3CCCCC3)c2)n1CC1CC[NH2+]CC1 (protonated)
O=c1c2cc(Cl)ccc2nc(/C=C/c2cccc(N3CCCCC3)c2)n1CC1CC[NH2+]CC1 (cis-trans isomerization)
O=c1c2cc(Cl)ccc2nc(/C=C/c2cccc(N3CCCCC3)c2)n1CC1CC[NH2+]CC1 (3D coordinates assigned)
O=c1c2cc(Cl)ccc2nc(/C=C/c2cccc(N3CCCCC3)c2)n1CC1CC[NH2+]CC1 (nonaromatic ring conformer: 80.85445616143309 kcal/mol)

>  <smiles>  (13) 
O=c1c2cc(Cl)ccc2nc(/C=C/c2cccc(N3CCCCC3)c2)n1CC1CCNCC1

>  <score_type>  (13) 
oracle

>  <origin>  (13) 
autodockgpu

>  <m_score__min__energy>  (13) 
-9.5

>  <m_primary>  (13) 
energy

>  <meeko>  (13) 
{"free_energy": -9.16, "intermolecular_energy": -10.95, "internal_energy": -1.37, "cluster_size": 2, "cluster_id": 1, "rank_in_cluster": 2}

>  <energy>  (13) 
-8.67

>  <cluster_rmsd>  (13) 
1.03

>  <rmsd>  (13) 
269.87

>  <cluster>  (13) 
6

$$$$
KTDBAWTUPMOUSA-RJHOSBTDNA-O
     RDKit          3D

 65 69  0  0  0  0  0  0  0  0999 V2000
  140.7247   72.9962  222.0207 H   0  0  0  0  0  0  0  0  0  0  0  0
  140.7150   73.8280  221.3010 C   0  0  0  0  0  0  0  0  0  0  0  0
  141.1420   73.5830  220.0510 C   0  0  0  0  0  0  0  0  0  0  0  0
  140.6206   74.0601  219.2081 H   0  0  0  0  0  0  0  0  0  0  0  0
  142.2990   72.6860  219.7680 C   0  0  0  0  0  0  0  0  0  0  0  0
  142.0960   71.3460  219.8760 N   0  0  0  0  0  0  0  0  0  0  0  0
  143.0600   70.4410  219.6040 C   0  0  0  0  0  0  0  0  0  0  0  0
  142.7930   69.0730  219.7300 C   0  0  0  0  0  0  0  0  0  0  0  0
  141.7983   68.7348  220.0558 H   0  0  0  0  0  0  0  0  0  0  0  0
  143.7900   68.1360  219.4420 C   0  0  0  0  0  0  0  0  0  0  0  0
  143.5788   67.0611  219.5421 H   0  0  0  0  0  0  0  0  0  0  0  0
  145.0550   68.5630  219.0270 C   0  0  0  0  0  0  0  0  0  0  0  0
  146.3020   67.3840  218.6670 Cl  0  0  0  0  0  0  0  0  0  0  0  0
  145.3260   69.9310  218.9030 C   0  0  0  0  0  0  0  0  0  0  0  0
  146.3230   70.2655  218.5804 H   0  0  0  0  0  0  0  0  0  0  0  0
  144.3260   70.8800  219.1900 C   0  0  0  0  0  0  0  0  0  0  0  0
  144.5460   72.2610  219.0800 C   0  0  0  0  0  0  0  0  0  0  0  0
  145.6840   72.6750  218.7180 O   0  0  0  0  0  0  0  0  0  0  0  0
  143.5390   73.1590  219.3640 N   0  0  0  0  0  0  0  0  0  0  0  0
  143.8390   74.6080  219.2470 C   0  0  0  0  0  0  0  0  0  0  0  0
  143.6439   75.0888  220.2169 H   0  0  0  0  0  0  0  0  0  0  0  0
  144.8939   74.7098  218.9522 H   0  0  0  0  0  0  0  0  0  0  0  0
  142.9750   75.3040  218.1630 C   0  0  0  0  0  0  0  0  0  0  0  0
  142.2121   74.5786  217.8441 H   0  0  0  0  0  0  0  0  0  0  0  0
  142.1830   76.5270  218.6940 C   0  0  0  0  0  0  0  0  0  0  0  0
  141.2141   76.5786  218.1758 H   0  0  0  0  0  0  0  0  0  0  0  0
  142.0394   76.4032  219.7775 H   0  0  0  0  0  0  0  0  0  0  0  0
  142.9480   77.8350  218.4540 C   0  0  0  0  0  0  0  0  0  0  0  0
  142.3637   78.6685  218.8710 H   0  0  0  0  0  0  0  0  0  0  0  0
  143.9283   77.7472  218.9452 H   0  0  0  0  0  0  0  0  0  0  0  0
  143.1830   78.0910  217.0150 N   0  0  0  0  0  0  0  0  0  0  0  0
  142.4110   78.6960  216.6460 H   0  0  0  0  0  0  0  0  0  0  0  0
  144.0760   78.6290  216.9160 H   0  0  0  0  0  0  0  0  0  0  0  0
  143.2650   76.8730  216.1780 C   0  0  0  0  0  0  0  0  0  0  0  0
  142.2532   76.6060  215.8389 H   0  0  0  0  0  0  0  0  0  0  0  0
  143.9254   77.0898  215.3254 H   0  0  0  0  0  0  0  0  0  0  0  0
  143.8590   75.6860  216.9490 C   0  0  0  0  0  0  0  0  0  0  0  0
  143.9332   74.8210  216.2735 H   0  0  0  0  0  0  0  0  0  0  0  0
  144.8528   75.9759  217.3208 H   0  0  0  0  0  0  0  0  0  0  0  0
  140.2300   75.1520  221.7740 C   0  0  0  0  0  0  0  0  0  0  0  0
  138.8580   75.3050  222.0320 C   0  0  0  0  0  0  0  0  0  0  0  0
  138.1808   74.4479  221.9026 H   0  0  0  0  0  0  0  0  0  0  0  0
  138.3450   76.5340  222.4510 C   0  0  0  0  0  0  0  0  0  0  0  0
  137.2685   76.6393  222.6511 H   0  0  0  0  0  0  0  0  0  0  0  0
  139.1950   77.6310  222.6170 C   0  0  0  0  0  0  0  0  0  0  0  0
  138.7850   78.5972  222.9463 H   0  0  0  0  0  0  0  0  0  0  0  0
  140.5700   77.5040  222.3650 C   0  0  0  0  0  0  0  0  0  0  0  0
  141.4450   78.6380  222.5090 N   0  0  0  0  0  0  0  0  0  0  0  0
  141.9420   79.0090  223.8430 C   0  0  0  0  0  0  0  0  0  0  0  0
  141.1056   78.9803  224.5569 H   0  0  0  0  0  0  0  0  0  0  0  0
  142.7266   78.2937  224.1305 H   0  0  0  0  0  0  0  0  0  0  0  0
  142.5510   80.4190  223.8440 C   0  0  0  0  0  0  0  0  0  0  0  0
  142.6269   80.7809  224.8800 H   0  0  0  0  0  0  0  0  0  0  0  0
  143.5500   80.3779  223.3854 H   0  0  0  0  0  0  0  0  0  0  0  0
  141.6700   81.3790  223.0360 C   0  0  0  0  0  0  0  0  0  0  0  0
  140.6796   81.4333  223.5115 H   0  0  0  0  0  0  0  0  0  0  0  0
  142.1682   82.3596  223.0246 H   0  0  0  0  0  0  0  0  0  0  0  0
  141.4910   80.9270  221.5690 C   0  0  0  0  0  0  0  0  0  0  0  0
  140.4440   81.0967  221.2775 H   0  0  0  0  0  0  0  0  0  0  0  0
  142.1935   81.5155  220.9606 H   0  0  0  0  0  0  0  0  0  0  0  0
  141.8260   79.4440  221.3400 C   0  0  0  0  0  0  0  0  0  0  0  0
  141.2776   79.0821  220.4578 H   0  0  0  0  0  0  0  0  0  0  0  0
  142.9103   79.3470  221.1821 H   0  0  0  0  0  0  0  0  0  0  0  0
  141.0800   76.2690  221.9310 C   0  0  0  0  0  0  0  0  0  0  0  0
  142.1533   76.1709  221.7110 H   0  0  0  0  0  0  0  0  0  0  0  0
  1  2  1  0
  2  3  2  0
  3  4  1  0
  3  5  1  0
  5  6  2  0
  6  7  1  0
  7  8  2  0
  8  9  1  0
  8 10  1  0
 10 11  1  0
 10 12  2  0
 12 13  1  0
 12 14  1  0
 14 15  1  0
 14 16  2  0
 16 17  1  0
 17 18  2  0
 17 19  1  0
 19 20  1  0
 20 21  1  0
 20 22  1  0
 20 23  1  0
 23 24  1  0
 23 25  1  0
 25 26  1  0
 25 27  1  0
 25 28  1  0
 28 29  1  0
 28 30  1  0
 28 31  1  0
 31 32  1  0
 31 33  1  0
 31 34  1  0
 34 35  1  0
 34 36  1  0
 34 37  1  0
 37 38  1  0
 37 39  1  0
  2 40  1  0
 40 41  2  0
 41 42  1  0
 41 43  1  0
 43 44  1  0
 43 45  2  0
 45 46  1  0
 45 47  1  0
 47 48  1  0
 48 49  1  0
 49 50  1  0
 49 51  1  0
 49 52  1  0
 52 53  1  0
 52 54  1  0
 52 55  1  0
 55 56  1  0
 55 57  1  0
 55 58  1  0
 58 59  1  0
 58 60  1  0
 58 61  1  0
 61 62  1  0
 61 63  1  0
 47 64  2  0
 64 65  1  0
 19  5  1  0
 37 23  1  0
 64 40  1  0
 16  7  1  0
 61 48  1  0
M  CHG  1  31   1
M  END
>  <UniqueID>  (14) 
418

>  <SMILES>  (14) 
O=c1c2cc(Cl)ccc2nc(/C=C/c2cccc(N3CCCCC3)c2)n1CC1CC[NH2+]CC1

>  <Energy>  (14) 
80.85445616143309

>  <Genealogy>  (14) 
O=c1c2cc(Cl)ccc2nc(/C=C/c2cccc(N3CCCCC3)c2)n1CC1CC[NH2+]CC1 (protonated)
O=c1c2cc(Cl)ccc2nc(/C=C/c2cccc(N3CCCCC3)c2)n1CC1CC[NH2+]CC1 (cis-trans isomerization)
O=c1c2cc(Cl)ccc2nc(/C=C/c2cccc(N3CCCCC3)c2)n1CC1CC[NH2+]CC1 (3D coordinates assigned)
O=c1c2cc(Cl)ccc2nc(/C=C/c2cccc(N3CCCCC3)c2)n1CC1CC[NH2+]CC1 (nonaromatic ring conformer: 80.85445616143309 kcal/mol)

>  <smiles>  (14) 
O=c1c2cc(Cl)ccc2nc(/C=C/c2cccc(N3CCCCC3)c2)n1CC1CCNCC1

>  <score_type>  (14) 
oracle

>  <origin>  (14) 
autodockgpu

>  <m_score__min__energy>  (14) 
-9.5

>  <m_primary>  (14) 
energy

>  <meeko>  (14) 
{"free_energy": -9.19, "intermolecular_energy": -10.98, "internal_energy": -1.61, "cluster_size": 1, "cluster_id": 3, "rank_in_cluster": 1}

>  <energy>  (14) 
-8.52

>  <cluster_rmsd>  (14) 
0.67

>  <rmsd>  (14) 
269.88

>  <cluster>  (14) 
6

$$$$
KTDBAWTUPMOUSA-RJHOSBTDNA-O
     RDKit          3D

 65 69  0  0  0  0  0  0  0  0999 V2000
  141.8048   73.5887  221.5199 H   0  0  0  0  0  0  0  0  0  0  0  0
  140.7260   73.7100  221.6970 C   0  0  0  0  0  0  0  0  0  0  0  0
  139.9560   72.6110  221.6610 C   0  0  0  0  0  0  0  0  0  0  0  0
  139.3481   72.4171  220.7650 H   0  0  0  0  0  0  0  0  0  0  0  0
  139.8970   71.6440  222.7950 C   0  0  0  0  0  0  0  0  0  0  0  0
  140.6470   71.9210  223.8950 N   0  0  0  0  0  0  0  0  0  0  0  0
  140.6390   71.1360  224.9950 C   0  0  0  0  0  0  0  0  0  0  0  0
  141.4300   71.4720  226.1000 C   0  0  0  0  0  0  0  0  0  0  0  0
  142.0624   72.3715  226.0707 H   0  0  0  0  0  0  0  0  0  0  0  0
  141.4160   70.6640  227.2410 C   0  0  0  0  0  0  0  0  0  0  0  0
  142.0379   70.9288  228.1088 H   0  0  0  0  0  0  0  0  0  0  0  0
  140.6130   69.5200  227.2810 C   0  0  0  0  0  0  0  0  0  0  0  0
  140.5990   68.5100  228.7140 Cl  0  0  0  0  0  0  0  0  0  0  0  0
  139.8230   69.1800  226.1760 C   0  0  0  0  0  0  0  0  0  0  0  0
  139.1947   68.2776  226.2075 H   0  0  0  0  0  0  0  0  0  0  0  0
  139.8310   69.9910  225.0240 C   0  0  0  0  0  0  0  0  0  0  0  0
  139.0570   69.6960  223.8910 C   0  0  0  0  0  0  0  0  0  0  0  0
  138.3310   68.6610  223.8960 O   0  0  0  0  0  0  0  0  0  0  0  0
  139.0870   70.5180  222.7850 N   0  0  0  0  0  0  0  0  0  0  0  0
  138.2610   70.1420  221.6100 C   0  0  0  0  0  0  0  0  0  0  0  0
  138.7934   70.4380  220.6941 H   0  0  0  0  0  0  0  0  0  0  0  0
  138.0988   69.0547  221.6470 H   0  0  0  0  0  0  0  0  0  0  0  0
  136.8700   70.8300  221.6230 C   0  0  0  0  0  0  0  0  0  0  0  0
  136.2400   70.2972  220.8955 H   0  0  0  0  0  0  0  0  0  0  0  0
  136.1290   70.7020  222.9790 C   0  0  0  0  0  0  0  0  0  0  0  0
  135.0494   70.6090  222.7899 H   0  0  0  0  0  0  0  0  0  0  0  0
  136.5109   69.8120  223.5006 H   0  0  0  0  0  0  0  0  0  0  0  0
  136.3770   71.9280  223.8680 C   0  0  0  0  0  0  0  0  0  0  0  0
  135.8583   71.7809  224.8268 H   0  0  0  0  0  0  0  0  0  0  0  0
  137.4632   72.0269  224.0109 H   0  0  0  0  0  0  0  0  0  0  0  0
  135.8850   73.1790  223.2470 N   0  0  0  0  0  0  0  0  0  0  0  0
  134.9120   73.3670  223.5840 H   0  0  0  0  0  0  0  0  0  0  0  0
  136.4880   73.9700  223.5750 H   0  0  0  0  0  0  0  0  0  0  0  0
  135.8750   73.1700  221.7670 C   0  0  0  0  0  0  0  0  0  0  0  0
  134.9126   72.7653  221.4205 H   0  0  0  0  0  0  0  0  0  0  0  0
  136.0195   74.2036  221.4193 H   0  0  0  0  0  0  0  0  0  0  0  0
  137.0100   72.3120  221.1910 C   0  0  0  0  0  0  0  0  0  0  0  0
  136.9809   72.3695  220.0929 H   0  0  0  0  0  0  0  0  0  0  0  0
  137.9660   72.6971  221.5754 H   0  0  0  0  0  0  0  0  0  0  0  0
  140.2140   75.0810  221.9610 C   0  0  0  0  0  0  0  0  0  0  0  0
  138.8230   75.2720  222.0280 C   0  0  0  0  0  0  0  0  0  0  0  0
  138.1488   74.4111  221.9081 H   0  0  0  0  0  0  0  0  0  0  0  0
  138.2890   76.5420  222.2450 C   0  0  0  0  0  0  0  0  0  0  0  0
  137.1985   76.6763  222.2974 H   0  0  0  0  0  0  0  0  0  0  0  0
  139.1340   77.6440  222.3960 C   0  0  0  0  0  0  0  0  0  0  0  0
  138.7061   78.6431  222.5650 H   0  0  0  0  0  0  0  0  0  0  0  0
  140.5260   77.4820  222.3330 C   0  0  0  0  0  0  0  0  0  0  0  0
  141.3990   78.6190  222.4630 N   0  0  0  0  0  0  0  0  0  0  0  0
  141.9090   78.9980  223.7900 C   0  0  0  0  0  0  0  0  0  0  0  0
  141.0803   78.9706  224.5129 H   0  0  0  0  0  0  0  0  0  0  0  0
  142.6985   78.2863  224.0731 H   0  0  0  0  0  0  0  0  0  0  0  0
  142.5140   80.4100  223.7770 C   0  0  0  0  0  0  0  0  0  0  0  0
  142.5997   80.7776  224.8102 H   0  0  0  0  0  0  0  0  0  0  0  0
  143.5081   80.3690  223.3079 H   0  0  0  0  0  0  0  0  0  0  0  0
  141.6220   81.3640  222.9730 C   0  0  0  0  0  0  0  0  0  0  0  0
  140.6364   81.4185  223.4585 H   0  0  0  0  0  0  0  0  0  0  0  0
  142.1176   82.3458  222.9514 H   0  0  0  0  0  0  0  0  0  0  0  0
  141.4290   80.9040  221.5110 C   0  0  0  0  0  0  0  0  0  0  0  0
  140.3785   81.0692  221.2296 H   0  0  0  0  0  0  0  0  0  0  0  0
  142.1234   81.4913  220.8923 H   0  0  0  0  0  0  0  0  0  0  0  0
  141.7660   79.4200  221.2860 C   0  0  0  0  0  0  0  0  0  0  0  0
  141.2097   79.0521  220.4112 H   0  0  0  0  0  0  0  0  0  0  0  0
  142.8489   79.3251  221.1175 H   0  0  0  0  0  0  0  0  0  0  0  0
  141.0600   76.2030  222.1020 C   0  0  0  0  0  0  0  0  0  0  0  0
  142.1501   76.0741  222.0301 H   0  0  0  0  0  0  0  0  0  0  0  0
  1  2  1  0
  2  3  2  0
  3  4  1  0
  3  5  1  0
  5  6  2  0
  6  7  1  0
  7  8  2  0
  8  9  1  0
  8 10  1  0
 10 11  1  0
 10 12  2  0
 12 13  1  0
 12 14  1  0
 14 15  1  0
 14 16  2  0
 16 17  1  0
 17 18  2  0
 17 19  1  0
 19 20  1  0
 20 21  1  0
 20 22  1  0
 20 23  1  0
 23 24  1  0
 23 25  1  0
 25 26  1  0
 25 27  1  0
 25 28  1  0
 28 29  1  0
 28 30  1  0
 28 31  1  0
 31 32  1  0
 31 33  1  0
 31 34  1  0
 34 35  1  0
 34 36  1  0
 34 37  1  0
 37 38  1  0
 37 39  1  0
  2 40  1  0
 40 41  2  0
 41 42  1  0
 41 43  1  0
 43 44  1  0
 43 45  2  0
 45 46  1  0
 45 47  1  0
 47 48  1  0
 48 49  1  0
 49 50  1  0
 49 51  1  0
 49 52  1  0
 52 53  1  0
 52 54  1  0
 52 55  1  0
 55 56  1  0
 55 57  1  0
 55 58  1  0
 58 59  1  0
 58 60  1  0
 58 61  1  0
 61 62  1  0
 61 63  1  0
 47 64  2  0
 64 65  1  0
 19  5  1  0
 37 23  1  0
 64 40  1  0
 16  7  1  0
 61 48  1  0
M  CHG  1  31   1
M  END
>  <UniqueID>  (15) 
418

>  <SMILES>  (15) 
O=c1c2cc(Cl)ccc2nc(/C=C/c2cccc(N3CCCCC3)c2)n1CC1CC[NH2+]CC1

>  <Energy>  (15) 
80.85445616143309

>  <Genealogy>  (15) 
O=c1c2cc(Cl)ccc2nc(/C=C/c2cccc(N3CCCCC3)c2)n1CC1CC[NH2+]CC1 (protonated)
O=c1c2cc(Cl)ccc2nc(/C=C/c2cccc(N3CCCCC3)c2)n1CC1CC[NH2+]CC1 (cis-trans isomerization)
O=c1c2cc(Cl)ccc2nc(/C=C/c2cccc(N3CCCCC3)c2)n1CC1CC[NH2+]CC1 (3D coordinates assigned)
O=c1c2cc(Cl)ccc2nc(/C=C/c2cccc(N3CCCCC3)c2)n1CC1CC[NH2+]CC1 (nonaromatic ring conformer: 80.85445616143309 kcal/mol)

>  <smiles>  (15) 
O=c1c2cc(Cl)ccc2nc(/C=C/c2cccc(N3CCCCC3)c2)n1CC1CCNCC1

>  <score_type>  (15) 
oracle

>  <origin>  (15) 
autodockgpu

>  <m_score__min__energy>  (15) 
-9.5

>  <m_primary>  (15) 
energy

>  <meeko>  (15) 
{"free_energy": -8.93, "intermolecular_energy": -10.72, "internal_energy": -1.68, "cluster_size": 7, "cluster_id": 6, "rank_in_cluster": 4}

>  <energy>  (15) 
-8.79

>  <cluster_rmsd>  (15) 
0.0

>  <rmsd>  (15) 
269.89

>  <cluster>  (15) 
7

$$$$
KTDBAWTUPMOUSA-RJHOSBTDNA-O
     RDKit          3D

 65 69  0  0  0  0  0  0  0  0999 V2000
  140.5136   73.3276  221.0437 H   0  0  0  0  0  0  0  0  0  0  0  0
  139.4960   73.1400  221.4170 C   0  0  0  0  0  0  0  0  0  0  0  0
  138.5220   73.9860  221.0420 C   0  0  0  0  0  0  0  0  0  0  0  0
  138.4516   74.2800  219.9844 H   0  0  0  0  0  0  0  0  0  0  0  0
  137.5330   74.5400  222.0110 C   0  0  0  0  0  0  0  0  0  0  0  0
  136.7520   73.6530  222.6860 N   0  0  0  0  0  0  0  0  0  0  0  0
  135.8520   74.0400  223.6150 C   0  0  0  0  0  0  0  0  0  0  0  0
  135.0780   73.0840  224.2810 C   0  0  0  0  0  0  0  0  0  0  0  0
  135.1985   72.0168  224.0433 H   0  0  0  0  0  0  0  0  0  0  0  0
  134.1510   73.4840  225.2490 C   0  0  0  0  0  0  0  0  0  0  0  0
  133.5439   72.7308  225.7726 H   0  0  0  0  0  0  0  0  0  0  0  0
  133.9950   74.8400  225.5520 C   0  0  0  0  0  0  0  0  0  0  0  0
  132.8310   75.3370  226.7660 Cl  0  0  0  0  0  0  0  0  0  0  0  0
  134.7670   75.8000  224.8860 C   0  0  0  0  0  0  0  0  0  0  0  0
  134.6419   76.8666  225.1243 H   0  0  0  0  0  0  0  0  0  0  0  0
  135.7030   75.4030  223.9120 C   0  0  0  0  0  0  0  0  0  0  0  0
  136.5020   76.3240  223.2160 C   0  0  0  0  0  0  0  0  0  0  0  0
  136.3730   77.5570  223.4630 O   0  0  0  0  0  0  0  0  0  0  0  0
  137.4120   75.8960  222.2740 N   0  0  0  0  0  0  0  0  0  0  0  0
  138.2140   76.9200  221.5580 C   0  0  0  0  0  0  0  0  0  0  0  0
  138.4593   76.5394  220.5555 H   0  0  0  0  0  0  0  0  0  0  0  0
  137.6129   77.8396  221.5034 H   0  0  0  0  0  0  0  0  0  0  0  0
  139.5340   77.2600  222.2990 C   0  0  0  0  0  0  0  0  0  0  0  0
  139.3574   77.0836  223.3703 H   0  0  0  0  0  0  0  0  0  0  0  0
  140.7140   76.3290  221.9190 C   0  0  0  0  0  0  0  0  0  0  0  0
  141.3441   76.1688  222.8063 H   0  0  0  0  0  0  0  0  0  0  0  0
  140.3014   75.3756  221.5573 H   0  0  0  0  0  0  0  0  0  0  0  0
  141.5700   76.9410  220.8020 C   0  0  0  0  0  0  0  0  0  0  0  0
  142.3747   76.2360  220.5462 H   0  0  0  0  0  0  0  0  0  0  0  0
  140.9134   77.1306  219.9401 H   0  0  0  0  0  0  0  0  0  0  0  0
  142.1760   78.2300  221.2020 N   0  0  0  0  0  0  0  0  0  0  0  0
  143.1360   78.0520  221.5810 H   0  0  0  0  0  0  0  0  0  0  0  0
  142.2830   78.8250  220.3470 H   0  0  0  0  0  0  0  0  0  0  0  0
  141.4050   78.9850  222.2150 C   0  0  0  0  0  0  0  0  0  0  0  0
  141.7249   78.6636  223.2172 H   0  0  0  0  0  0  0  0  0  0  0  0
  141.5987   80.0568  222.0607 H   0  0  0  0  0  0  0  0  0  0  0  0
  139.8940   78.7510  222.0780 C   0  0  0  0  0  0  0  0  0  0  0  0
  139.3673   79.3617  222.8261 H   0  0  0  0  0  0  0  0  0  0  0  0
  139.5890   79.0351  221.0600 H   0  0  0  0  0  0  0  0  0  0  0  0
  139.2850   71.9660  222.3050 C   0  0  0  0  0  0  0  0  0  0  0  0
  138.3950   70.9630  221.8840 C   0  0  0  0  0  0  0  0  0  0  0  0
  137.8947   71.0529  220.9085 H   0  0  0  0  0  0  0  0  0  0  0  0
  138.1400   69.8540  222.6920 C   0  0  0  0  0  0  0  0  0  0  0  0
  137.4426   69.0753  222.3495 H   0  0  0  0  0  0  0  0  0  0  0  0
  138.7670   69.7290  223.9340 C   0  0  0  0  0  0  0  0  0  0  0  0
  138.5603   68.8527  224.5659 H   0  0  0  0  0  0  0  0  0  0  0  0
  139.6590   70.7160  224.3790 C   0  0  0  0  0  0  0  0  0  0  0  0
  140.2870   70.6040  225.6690 N   0  0  0  0  0  0  0  0  0  0  0  0
  139.7640   69.6430  226.6520 C   0  0  0  0  0  0  0  0  0  0  0  0
  138.6672   69.7217  226.6808 H   0  0  0  0  0  0  0  0  0  0  0  0
  140.0751   68.6327  226.3477 H   0  0  0  0  0  0  0  0  0  0  0  0
  140.3220   69.9180  228.0570 C   0  0  0  0  0  0  0  0  0  0  0  0
  139.6981   69.4029  228.8023 H   0  0  0  0  0  0  0  0  0  0  0  0
  141.3563   69.5472  228.1098 H   0  0  0  0  0  0  0  0  0  0  0  0
  140.3170   71.4230  228.3470 C   0  0  0  0  0  0  0  0  0  0  0  0
  139.2788   71.7850  228.3142 H   0  0  0  0  0  0  0  0  0  0  0  0
  140.7670   71.5733  229.3394 H   0  0  0  0  0  0  0  0  0  0  0  0
  141.1540   72.2260  227.3260 C   0  0  0  0  0  0  0  0  0  0  0  0
  140.6092   73.1489  227.0782 H   0  0  0  0  0  0  0  0  0  0  0  0
  142.1280   72.4299  227.7948 H   0  0  0  0  0  0  0  0  0  0  0  0
  141.4310   71.4590  226.0220 C   0  0  0  0  0  0  0  0  0  0  0  0
  141.6076   72.1795  225.2098 H   0  0  0  0  0  0  0  0  0  0  0  0
  142.3167   70.8229  226.1670 H   0  0  0  0  0  0  0  0  0  0  0  0
  139.9040   71.8380  223.5680 C   0  0  0  0  0  0  0  0  0  0  0  0
  140.5859   72.6255  223.9213 H   0  0  0  0  0  0  0  0  0  0  0  0
  1  2  1  0
  2  3  2  0
  3  4  1  0
  3  5  1  0
  5  6  2  0
  6  7  1  0
  7  8  2  0
  8  9  1  0
  8 10  1  0
 10 11  1  0
 10 12  2  0
 12 13  1  0
 12 14  1  0
 14 15  1  0
 14 16  2  0
 16 17  1  0
 17 18  2  0
 17 19  1  0
 19 20  1  0
 20 21  1  0
 20 22  1  0
 20 23  1  0
 23 24  1  0
 23 25  1  0
 25 26  1  0
 25 27  1  0
 25 28  1  0
 28 29  1  0
 28 30  1  0
 28 31  1  0
 31 32  1  0
 31 33  1  0
 31 34  1  0
 34 35  1  0
 34 36  1  0
 34 37  1  0
 37 38  1  0
 37 39  1  0
  2 40  1  0
 40 41  2  0
 41 42  1  0
 41 43  1  0
 43 44  1  0
 43 45  2  0
 45 46  1  0
 45 47  1  0
 47 48  1  0
 48 49  1  0
 49 50  1  0
 49 51  1  0
 49 52  1  0
 52 53  1  0
 52 54  1  0
 52 55  1  0
 55 56  1  0
 55 57  1  0
 55 58  1  0
 58 59  1  0
 58 60  1  0
 58 61  1  0
 61 62  1  0
 61 63  1  0
 47 64  2  0
 64 65  1  0
 19  5  1  0
 37 23  1  0
 64 40  1  0
 16  7  1  0
 61 48  1  0
M  CHG  1  31   1
M  END
>  <UniqueID>  (16) 
418

>  <SMILES>  (16) 
O=c1c2cc(Cl)ccc2nc(/C=C/c2cccc(N3CCCCC3)c2)n1CC1CC[NH2+]CC1

>  <Energy>  (16) 
80.85445616143309

>  <Genealogy>  (16) 
O=c1c2cc(Cl)ccc2nc(/C=C/c2cccc(N3CCCCC3)c2)n1CC1CC[NH2+]CC1 (protonated)
O=c1c2cc(Cl)ccc2nc(/C=C/c2cccc(N3CCCCC3)c2)n1CC1CC[NH2+]CC1 (cis-trans isomerization)
O=c1c2cc(Cl)ccc2nc(/C=C/c2cccc(N3CCCCC3)c2)n1CC1CC[NH2+]CC1 (3D coordinates assigned)
O=c1c2cc(Cl)ccc2nc(/C=C/c2cccc(N3CCCCC3)c2)n1CC1CC[NH2+]CC1 (nonaromatic ring conformer: 80.85445616143309 kcal/mol)

>  <smiles>  (16) 
O=c1c2cc(Cl)ccc2nc(/C=C/c2cccc(N3CCCCC3)c2)n1CC1CCNCC1

>  <score_type>  (16) 
oracle

>  <origin>  (16) 
autodockgpu

>  <m_score__min__energy>  (16) 
-9.5

>  <m_primary>  (16) 
energy

>  <meeko>  (16) 
{"free_energy": -8.77, "intermolecular_energy": -10.56, "internal_energy": -1.82, "cluster_size": 2, "cluster_id": 7, "rank_in_cluster": 2}

>  <energy>  (16) 
-8.77

>  <cluster_rmsd>  (16) 
0.54

>  <rmsd>  (16) 
269.89

>  <cluster>  (16) 
7

$$$$
KTDBAWTUPMOUSA-RJHOSBTDNA-O
     RDKit          3D

 65 69  0  0  0  0  0  0  0  0999 V2000
  141.8218   73.5247  221.4413 H   0  0  0  0  0  0  0  0  0  0  0  0
  140.7460   73.6340  221.6430 C   0  0  0  0  0  0  0  0  0  0  0  0
  139.9810   72.5310  221.5880 C   0  0  0  0  0  0  0  0  0  0  0  0
  139.4264   72.3147  220.6630 H   0  0  0  0  0  0  0  0  0  0  0  0
  139.8580   71.5900  222.7380 C   0  0  0  0  0  0  0  0  0  0  0  0
  140.6280   71.8340  223.8330 N   0  0  0  0  0  0  0  0  0  0  0  0
  140.5690   71.0710  224.9460 C   0  0  0  0  0  0  0  0  0  0  0  0
  141.3830   71.3700  226.0440 C   0  0  0  0  0  0  0  0  0  0  0  0
  142.0755   72.2235  225.9985 H   0  0  0  0  0  0  0  0  0  0  0  0
  141.3170   70.5850  227.1990 C   0  0  0  0  0  0  0  0  0  0  0  0
  141.9576   70.8214  228.0614 H   0  0  0  0  0  0  0  0  0  0  0  0
  140.4370   69.4990  227.2590 C   0  0  0  0  0  0  0  0  0  0  0  0
  140.3570   68.5170  228.7100 Cl  0  0  0  0  0  0  0  0  0  0  0  0
  139.6230   69.1960  226.1610 C   0  0  0  0  0  0  0  0  0  0  0  0
  138.9334   68.3403  226.2086 H   0  0  0  0  0  0  0  0  0  0  0  0
  139.6850   69.9840  224.9960 C   0  0  0  0  0  0  0  0  0  0  0  0
  138.8900   69.7240  223.8690 C   0  0  0  0  0  0  0  0  0  0  0  0
  138.0940   68.7410  223.8920 O   0  0  0  0  0  0  0  0  0  0  0  0
  138.9740   70.5220  222.7480 N   0  0  0  0  0  0  0  0  0  0  0  0
  138.1210   70.1840  221.5810 C   0  0  0  0  0  0  0  0  0  0  0  0
  138.6616   70.4477  220.6600 H   0  0  0  0  0  0  0  0  0  0  0  0
  137.9028   69.1068  221.6255 H   0  0  0  0  0  0  0  0  0  0  0  0
  136.7680   70.9420  221.5990 C   0  0  0  0  0  0  0  0  0  0  0  0
  136.1126   70.4496  220.8655 H   0  0  0  0  0  0  0  0  0  0  0  0
  136.0190   70.8390  222.9530 C   0  0  0  0  0  0  0  0  0  0  0  0
  134.9363   70.8033  222.7618 H   0  0  0  0  0  0  0  0  0  0  0  0
  136.3539   69.9256  223.4664 H   0  0  0  0  0  0  0  0  0  0  0  0
  136.3280   72.0420  223.8540 C   0  0  0  0  0  0  0  0  0  0  0  0
  135.8007   71.9123  224.8106 H   0  0  0  0  0  0  0  0  0  0  0  0
  137.4177   72.0833  223.9987 H   0  0  0  0  0  0  0  0  0  0  0  0
  135.9030   73.3220  223.2460 N   0  0  0  0  0  0  0  0  0  0  0  0
  134.9390   73.5570  223.5840 H   0  0  0  0  0  0  0  0  0  0  0  0
  136.5440   74.0780  223.5830 H   0  0  0  0  0  0  0  0  0  0  0  0
  135.8950   73.3280  221.7660 C   0  0  0  0  0  0  0  0  0  0  0  0
  134.9136   72.9767  221.4146 H   0  0  0  0  0  0  0  0  0  0  0  0
  136.0933   74.3562  221.4291 H   0  0  0  0  0  0  0  0  0  0  0  0
  136.9850   72.4190  221.1820 C   0  0  0  0  0  0  0  0  0  0  0  0
  136.9602   72.4890  220.0845 H   0  0  0  0  0  0  0  0  0  0  0  0
  137.9592   72.7505  221.5707 H   0  0  0  0  0  0  0  0  0  0  0  0
  140.2320   74.9930  221.9590 C   0  0  0  0  0  0  0  0  0  0  0  0
  138.8430   75.1690  222.0770 C   0  0  0  0  0  0  0  0  0  0  0  0
  138.1727   74.3050  221.9577 H   0  0  0  0  0  0  0  0  0  0  0  0
  138.3050   76.4290  222.3440 C   0  0  0  0  0  0  0  0  0  0  0  0
  137.2157   76.5522  222.4350 H   0  0  0  0  0  0  0  0  0  0  0  0
  139.1460   77.5340  222.4960 C   0  0  0  0  0  0  0  0  0  0  0  0
  138.7162   78.5244  222.7067 H   0  0  0  0  0  0  0  0  0  0  0  0
  140.5370   77.3860  222.3810 C   0  0  0  0  0  0  0  0  0  0  0  0
  141.4050   78.5270  222.5110 N   0  0  0  0  0  0  0  0  0  0  0  0
  141.8530   78.9530  223.8450 C   0  0  0  0  0  0  0  0  0  0  0  0
  140.9916   78.9511  224.5291 H   0  0  0  0  0  0  0  0  0  0  0  0
  142.6275   78.2520  224.1896 H   0  0  0  0  0  0  0  0  0  0  0  0
  142.4600   80.3640  223.8100 C   0  0  0  0  0  0  0  0  0  0  0  0
  142.4988   80.7679  224.8324 H   0  0  0  0  0  0  0  0  0  0  0  0
  143.4746   80.3069  223.3889 H   0  0  0  0  0  0  0  0  0  0  0  0
  141.6070   81.2880  222.9330 C   0  0  0  0  0  0  0  0  0  0  0  0
  140.6002   81.3587  223.3705 H   0  0  0  0  0  0  0  0  0  0  0  0
  142.1039   82.2688  222.8996 H   0  0  0  0  0  0  0  0  0  0  0  0
  141.4810   80.7770  221.4810 C   0  0  0  0  0  0  0  0  0  0  0  0
  140.4450   80.9326  221.1456 H   0  0  0  0  0  0  0  0  0  0  0  0
  142.2046   81.3419  220.8749 H   0  0  0  0  0  0  0  0  0  0  0  0
  141.8250   79.2860  221.3240 C   0  0  0  0  0  0  0  0  0  0  0  0
  141.3074   78.8874  220.4390 H   0  0  0  0  0  0  0  0  0  0  0  0
  142.9141   79.1852  221.2074 H   0  0  0  0  0  0  0  0  0  0  0  0
  141.0740   76.1180  222.1000 C   0  0  0  0  0  0  0  0  0  0  0  0
  142.1620   76.0005  221.9887 H   0  0  0  0  0  0  0  0  0  0  0  0
  1  2  1  0
  2  3  2  0
  3  4  1  0
  3  5  1  0
  5  6  2  0
  6  7  1  0
  7  8  2  0
  8  9  1  0
  8 10  1  0
 10 11  1  0
 10 12  2  0
 12 13  1  0
 12 14  1  0
 14 15  1  0
 14 16  2  0
 16 17  1  0
 17 18  2  0
 17 19  1  0
 19 20  1  0
 20 21  1  0
 20 22  1  0
 20 23  1  0
 23 24  1  0
 23 25  1  0
 25 26  1  0
 25 27  1  0
 25 28  1  0
 28 29  1  0
 28 30  1  0
 28 31  1  0
 31 32  1  0
 31 33  1  0
 31 34  1  0
 34 35  1  0
 34 36  1  0
 34 37  1  0
 37 38  1  0
 37 39  1  0
  2 40  1  0
 40 41  2  0
 41 42  1  0
 41 43  1  0
 43 44  1  0
 43 45  2  0
 45 46  1  0
 45 47  1  0
 47 48  1  0
 48 49  1  0
 49 50  1  0
 49 51  1  0
 49 52  1  0
 52 53  1  0
 52 54  1  0
 52 55  1  0
 55 56  1  0
 55 57  1  0
 55 58  1  0
 58 59  1  0
 58 60  1  0
 58 61  1  0
 61 62  1  0
 61 63  1  0
 47 64  2  0
 64 65  1  0
 19  5  1  0
 37 23  1  0
 64 40  1  0
 16  7  1  0
 61 48  1  0
M  CHG  1  31   1
M  END
>  <UniqueID>  (17) 
418

>  <SMILES>  (17) 
O=c1c2cc(Cl)ccc2nc(/C=C/c2cccc(N3CCCCC3)c2)n1CC1CC[NH2+]CC1

>  <Energy>  (17) 
80.85445616143309

>  <Genealogy>  (17) 
O=c1c2cc(Cl)ccc2nc(/C=C/c2cccc(N3CCCCC3)c2)n1CC1CC[NH2+]CC1 (protonated)
O=c1c2cc(Cl)ccc2nc(/C=C/c2cccc(N3CCCCC3)c2)n1CC1CC[NH2+]CC1 (cis-trans isomerization)
O=c1c2cc(Cl)ccc2nc(/C=C/c2cccc(N3CCCCC3)c2)n1CC1CC[NH2+]CC1 (3D coordinates assigned)
O=c1c2cc(Cl)ccc2nc(/C=C/c2cccc(N3CCCCC3)c2)n1CC1CC[NH2+]CC1 (nonaromatic ring conformer: 80.85445616143309 kcal/mol)

>  <smiles>  (17) 
O=c1c2cc(Cl)ccc2nc(/C=C/c2cccc(N3CCCCC3)c2)n1CC1CCNCC1

>  <score_type>  (17) 
oracle

>  <origin>  (17) 
autodockgpu

>  <m_score__min__energy>  (17) 
-9.5

>  <m_primary>  (17) 
energy

>  <meeko>  (17) 
{"free_energy": -8.91, "intermolecular_energy": -10.7, "internal_energy": -1.73, "cluster_size": 7, "cluster_id": 6, "rank_in_cluster": 5}

>  <energy>  (17) 
-8.49

>  <cluster_rmsd>  (17) 
0.0

>  <rmsd>  (17) 
269.89

>  <cluster>  (17) 
8

$$$$
KTDBAWTUPMOUSA-RJHOSBTDNA-O
     RDKit          3D

 65 69  0  0  0  0  0  0  0  0999 V2000
  140.2485   72.8913  221.0367 H   0  0  0  0  0  0  0  0  0  0  0  0
  139.2850   72.5450  221.4390 C   0  0  0  0  0  0  0  0  0  0  0  0
  138.1750   73.1990  221.0620 C   0  0  0  0  0  0  0  0  0  0  0  0
  137.8506   73.1343  220.0129 H   0  0  0  0  0  0  0  0  0  0  0  0
  137.3670   74.0100  222.0170 C   0  0  0  0  0  0  0  0  0  0  0  0
  136.4670   73.3500  222.7960 N   0  0  0  0  0  0  0  0  0  0  0  0
  135.7120   73.9780  223.7230 C   0  0  0  0  0  0  0  0  0  0  0  0
  134.8050   73.2470  224.4980 C   0  0  0  0  0  0  0  0  0  0  0  0
  134.7032   72.1620  224.3480 H   0  0  0  0  0  0  0  0  0  0  0  0
  134.0280   73.8950  225.4630 C   0  0  0  0  0  0  0  0  0  0  0  0
  133.3158   73.3190  226.0721 H   0  0  0  0  0  0  0  0  0  0  0  0
  134.1550   75.2750  225.6550 C   0  0  0  0  0  0  0  0  0  0  0  0
  133.1780   76.0840  226.8660 Cl  0  0  0  0  0  0  0  0  0  0  0  0
  135.0600   76.0090  224.8790 C   0  0  0  0  0  0  0  0  0  0  0  0
  135.1567   77.0945  225.0287 H   0  0  0  0  0  0  0  0  0  0  0  0
  135.8470   75.3610  223.9070 C   0  0  0  0  0  0  0  0  0  0  0  0
  136.7690   76.0500  223.1040 C   0  0  0  0  0  0  0  0  0  0  0  0
  136.8960   77.3000  223.2490 O   0  0  0  0  0  0  0  0  0  0  0  0
  137.5260   75.3790  222.1670 N   0  0  0  0  0  0  0  0  0  0  0  0
  138.4700   76.1670  221.3360 C   0  0  0  0  0  0  0  0  0  0  0  0
  138.7142   75.5879  220.4332 H   0  0  0  0  0  0  0  0  0  0  0  0
  137.9806   77.1192  221.0836 H   0  0  0  0  0  0  0  0  0  0  0  0
  139.7860   76.4960  222.0880 C   0  0  0  0  0  0  0  0  0  0  0  0
  139.7183   76.0216  223.0781 H   0  0  0  0  0  0  0  0  0  0  0  0
  141.0480   75.8840  221.4250 C   0  0  0  0  0  0  0  0  0  0  0  0
  141.7612   75.5948  222.2109 H   0  0  0  0  0  0  0  0  0  0  0  0
  140.7406   75.0068  220.8368 H   0  0  0  0  0  0  0  0  0  0  0  0
  141.7240   76.8880  220.4810 C   0  0  0  0  0  0  0  0  0  0  0  0
  142.5935   76.4035  220.0128 H   0  0  0  0  0  0  0  0  0  0  0  0
  140.9825   77.1951  219.7287 H   0  0  0  0  0  0  0  0  0  0  0  0
  142.1810   78.1040  221.1900 N   0  0  0  0  0  0  0  0  0  0  0  0
  143.1830   77.9790  221.4690 H   0  0  0  0  0  0  0  0  0  0  0  0
  142.1410   78.9100  220.5230 H   0  0  0  0  0  0  0  0  0  0  0  0
  141.3970   78.4440  222.3980 C   0  0  0  0  0  0  0  0  0  0  0  0
  141.8343   77.9242  223.2632 H   0  0  0  0  0  0  0  0  0  0  0  0
  141.4324   79.5354  222.5302 H   0  0  0  0  0  0  0  0  0  0  0  0
  139.9250   78.0300  222.2630 C   0  0  0  0  0  0  0  0  0  0  0  0
  139.3815   78.3382  223.1683 H   0  0  0  0  0  0  0  0  0  0  0  0
  139.5062   78.5208  221.3721 H   0  0  0  0  0  0  0  0  0  0  0  0
  139.2950   71.3820  222.3660 C   0  0  0  0  0  0  0  0  0  0  0  0
  138.6870   70.1880  221.9440 C   0  0  0  0  0  0  0  0  0  0  0  0
  138.2412   70.1290  220.9401 H   0  0  0  0  0  0  0  0  0  0  0  0
  138.6430   69.0760  222.7860 C   0  0  0  0  0  0  0  0  0  0  0  0
  138.1642   68.1472  222.4425 H   0  0  0  0  0  0  0  0  0  0  0  0
  139.2050   69.1380  224.0640 C   0  0  0  0  0  0  0  0  0  0  0  0
  139.1674   68.2577  224.7226 H   0  0  0  0  0  0  0  0  0  0  0  0
  139.8170   70.3190  224.5100 C   0  0  0  0  0  0  0  0  0  0  0  0
  140.3740   70.3960  225.8360 N   0  0  0  0  0  0  0  0  0  0  0  0
  139.8270   69.5470  226.9050 C   0  0  0  0  0  0  0  0  0  0  0  0
  138.7284   69.5852  226.8654 H   0  0  0  0  0  0  0  0  0  0  0  0
  140.1879   68.5196  226.7497 H   0  0  0  0  0  0  0  0  0  0  0  0
  140.2940   70.0190  228.2910 C   0  0  0  0  0  0  0  0  0  0  0  0
  139.6453   69.5780  229.0622 H   0  0  0  0  0  0  0  0  0  0  0  0
  141.3349   69.6989  228.4462 H   0  0  0  0  0  0  0  0  0  0  0  0
  140.2230   71.5480  228.3840 C   0  0  0  0  0  0  0  0  0  0  0  0
  139.1772   71.8614  228.2496 H   0  0  0  0  0  0  0  0  0  0  0  0
  140.6094   71.8410  229.3713 H   0  0  0  0  0  0  0  0  0  0  0  0
  141.0910   72.2470  227.3140 C   0  0  0  0  0  0  0  0  0  0  0  0
  140.5324   73.1095  226.9215 H   0  0  0  0  0  0  0  0  0  0  0  0
  142.0297   72.5458  227.8034 H   0  0  0  0  0  0  0  0  0  0  0  0
  141.4660   71.3330  226.1360 C   0  0  0  0  0  0  0  0  0  0  0  0
  141.6649   71.9515  225.2484 H   0  0  0  0  0  0  0  0  0  0  0  0
  142.3620   70.7558  226.4081 H   0  0  0  0  0  0  0  0  0  0  0  0
  139.8480   71.4410  223.6640 C   0  0  0  0  0  0  0  0  0  0  0  0
  140.3083   72.3756  224.0170 H   0  0  0  0  0  0  0  0  0  0  0  0
  1  2  1  0
  2  3  2  0
  3  4  1  0
  3  5  1  0
  5  6  2  0
  6  7  1  0
  7  8  2  0
  8  9  1  0
  8 10  1  0
 10 11  1  0
 10 12  2  0
 12 13  1  0
 12 14  1  0
 14 15  1  0
 14 16  2  0
 16 17  1  0
 17 18  2  0
 17 19  1  0
 19 20  1  0
 20 21  1  0
 20 22  1  0
 20 23  1  0
 23 24  1  0
 23 25  1  0
 25 26  1  0
 25 27  1  0
 25 28  1  0
 28 29  1  0
 28 30  1  0
 28 31  1  0
 31 32  1  0
 31 33  1  0
 31 34  1  0
 34 35  1  0
 34 36  1  0
 34 37  1  0
 37 38  1  0
 37 39  1  0
  2 40  1  0
 40 41  2  0
 41 42  1  0
 41 43  1  0
 43 44  1  0
 43 45  2  0
 45 46  1  0
 45 47  1  0
 47 48  1  0
 48 49  1  0
 49 50  1  0
 49 51  1  0
 49 52  1  0
 52 53  1  0
 52 54  1  0
 52 55  1  0
 55 56  1  0
 55 57  1  0
 55 58  1  0
 58 59  1  0
 58 60  1  0
 58 61  1  0
 61 62  1  0
 61 63  1  0
 47 64  2  0
 64 65  1  0
 19  5  1  0
 37 23  1  0
 64 40  1  0
 16  7  1  0
 61 48  1  0
M  CHG  1  31   1
M  END
>  <UniqueID>  (18) 
418

>  <SMILES>  (18) 
O=c1c2cc(Cl)ccc2nc(/C=C/c2cccc(N3CCCCC3)c2)n1CC1CC[NH2+]CC1

>  <Energy>  (18) 
80.85445616143309

>  <Genealogy>  (18) 
O=c1c2cc(Cl)ccc2nc(/C=C/c2cccc(N3CCCCC3)c2)n1CC1CC[NH2+]CC1 (protonated)
O=c1c2cc(Cl)ccc2nc(/C=C/c2cccc(N3CCCCC3)c2)n1CC1CC[NH2+]CC1 (cis-trans isomerization)
O=c1c2cc(Cl)ccc2nc(/C=C/c2cccc(N3CCCCC3)c2)n1CC1CC[NH2+]CC1 (3D coordinates assigned)
O=c1c2cc(Cl)ccc2nc(/C=C/c2cccc(N3CCCCC3)c2)n1CC1CC[NH2+]CC1 (nonaromatic ring conformer: 80.85445616143309 kcal/mol)

>  <smiles>  (18) 
O=c1c2cc(Cl)ccc2nc(/C=C/c2cccc(N3CCCCC3)c2)n1CC1CCNCC1

>  <score_type>  (18) 
oracle

>  <origin>  (18) 
autodockgpu

>  <m_score__min__energy>  (18) 
-9.5

>  <m_primary>  (18) 
energy

>  <meeko>  (18) 
{"free_energy": -8.79, "intermolecular_energy": -10.58, "internal_energy": -1.69, "cluster_size": 2, "cluster_id": 7, "rank_in_cluster": 1}

>  <energy>  (18) 
-8.42

>  <cluster_rmsd>  (18) 
0.48

>  <rmsd>  (18) 
269.83

>  <cluster>  (18) 
8

$$$$
KTDBAWTUPMOUSA-RJHOSBTDNA-O
     RDKit          3D

 65 69  0  0  0  0  0  0  0  0999 V2000
  137.0694   74.8784  221.8245 H   0  0  0  0  0  0  0  0  0  0  0  0
  137.7430   75.6550  221.4330 C   0  0  0  0  0  0  0  0  0  0  0  0
  138.4700   75.3650  220.3410 C   0  0  0  0  0  0  0  0  0  0  0  0
  137.9507   75.1956  219.3862 H   0  0  0  0  0  0  0  0  0  0  0  0
  139.9580   75.2650  220.3800 C   0  0  0  0  0  0  0  0  0  0  0  0
  140.4980   74.0370  220.6060 N   0  0  0  0  0  0  0  0  0  0  0  0
  141.8310   73.8230  220.6220 C   0  0  0  0  0  0  0  0  0  0  0  0
  142.3310   72.5370  220.8560 C   0  0  0  0  0  0  0  0  0  0  0  0
  141.6376   71.7016  221.0330 H   0  0  0  0  0  0  0  0  0  0  0  0
  143.7110   72.3130  220.8650 C   0  0  0  0  0  0  0  0  0  0  0  0
  144.1022   71.3014  221.0484 H   0  0  0  0  0  0  0  0  0  0  0  0
  144.5950   73.3740  220.6410 C   0  0  0  0  0  0  0  0  0  0  0  0
  146.3250   73.0890  220.6540 Cl  0  0  0  0  0  0  0  0  0  0  0  0
  144.0980   74.6620  220.4090 C   0  0  0  0  0  0  0  0  0  0  0  0
  144.7943   75.4957  220.2356 H   0  0  0  0  0  0  0  0  0  0  0  0
  142.7090   74.8930  220.3970 C   0  0  0  0  0  0  0  0  0  0  0  0
  142.1590   76.1640  220.1680 C   0  0  0  0  0  0  0  0  0  0  0  0
  142.9350   77.1430  219.9740 O   0  0  0  0  0  0  0  0  0  0  0  0
  140.7930   76.3490  220.1570 N   0  0  0  0  0  0  0  0  0  0  0  0
  140.2730   77.7200  219.9280 C   0  0  0  0  0  0  0  0  0  0  0  0
  139.2067   77.7431  220.1972 H   0  0  0  0  0  0  0  0  0  0  0  0
  140.8606   78.4103  220.5510 H   0  0  0  0  0  0  0  0  0  0  0  0
  140.4240   78.1700  218.4510 C   0  0  0  0  0  0  0  0  0  0  0  0
  139.4095   78.2588  218.0353 H   0  0  0  0  0  0  0  0  0  0  0  0
  141.0570   79.5780  218.2950 C   0  0  0  0  0  0  0  0  0  0  0  0
  140.6005   80.0824  217.4306 H   0  0  0  0  0  0  0  0  0  0  0  0
  140.8727   80.1461  219.2187 H   0  0  0  0  0  0  0  0  0  0  0  0
  142.5730   79.4860  218.0770 C   0  0  0  0  0  0  0  0  0  0  0  0
  142.9822   80.5043  218.0012 H   0  0  0  0  0  0  0  0  0  0  0  0
  143.0040   78.9431  218.9311 H   0  0  0  0  0  0  0  0  0  0  0  0
  142.9180   78.7410  216.8450 N   0  0  0  0  0  0  0  0  0  0  0  0
  143.0360   79.4210  216.0570 H   0  0  0  0  0  0  0  0  0  0  0  0
  143.8420   78.2700  216.9920 H   0  0  0  0  0  0  0  0  0  0  0  0
  141.9220   77.7240  216.4410 C   0  0  0  0  0  0  0  0  0  0  0  0
  141.1698   78.2003  215.7949 H   0  0  0  0  0  0  0  0  0  0  0  0
  142.4526   76.9212  215.9081 H   0  0  0  0  0  0  0  0  0  0  0  0
  141.2130   77.1020  217.6520 C   0  0  0  0  0  0  0  0  0  0  0  0
  140.5142   76.3288  217.3001 H   0  0  0  0  0  0  0  0  0  0  0  0
  141.9749   76.6650  218.3142 H   0  0  0  0  0  0  0  0  0  0  0  0
  137.7910   76.9590  222.1460 C   0  0  0  0  0  0  0  0  0  0  0  0
  136.5770   77.5980  222.4500 C   0  0  0  0  0  0  0  0  0  0  0  0
  135.6257   77.1172  222.1782 H   0  0  0  0  0  0  0  0  0  0  0  0
  136.5660   78.8360  223.0930 C   0  0  0  0  0  0  0  0  0  0  0  0
  135.6080   79.3234  223.3269 H   0  0  0  0  0  0  0  0  0  0  0  0
  137.7670   79.4590  223.4410 C   0  0  0  0  0  0  0  0  0  0  0  0
  137.7512   80.4359  223.9465 H   0  0  0  0  0  0  0  0  0  0  0  0
  138.9940   78.8430  223.1480 C   0  0  0  0  0  0  0  0  0  0  0  0
  140.2330   79.4940  223.4820 N   0  0  0  0  0  0  0  0  0  0  0  0
  140.2830   80.9610  223.5790 C   0  0  0  0  0  0  0  0  0  0  0  0
  139.7552   81.3947  222.7168 H   0  0  0  0  0  0  0  0  0  0  0  0
  139.8037   81.2617  224.5223 H   0  0  0  0  0  0  0  0  0  0  0  0
  141.7310   81.4740  223.5880 C   0  0  0  0  0  0  0  0  0  0  0  0
  141.7365   82.5488  223.3542 H   0  0  0  0  0  0  0  0  0  0  0  0
  142.1649   81.3026  224.5841 H   0  0  0  0  0  0  0  0  0  0  0  0
  142.5680   80.7250  222.5440 C   0  0  0  0  0  0  0  0  0  0  0  0
  142.1430   80.9166  221.5477 H   0  0  0  0  0  0  0  0  0  0  0  0
  143.6025   81.0912  222.6197 H   0  0  0  0  0  0  0  0  0  0  0  0
  142.5910   79.1990  222.7880 C   0  0  0  0  0  0  0  0  0  0  0  0
  142.5024   78.6897  221.8170 H   0  0  0  0  0  0  0  0  0  0  0  0
  143.5387   78.9667  223.2958 H   0  0  0  0  0  0  0  0  0  0  0  0
  141.4560   78.7070  223.7010 C   0  0  0  0  0  0  0  0  0  0  0  0
  141.2487   77.6493  223.4811 H   0  0  0  0  0  0  0  0  0  0  0  0
  141.7692   78.8253  224.7488 H   0  0  0  0  0  0  0  0  0  0  0  0
  139.0010   77.6020  222.4890 C   0  0  0  0  0  0  0  0  0  0  0  0
  139.9600   77.1256  222.2373 H   0  0  0  0  0  0  0  0  0  0  0  0
  1  2  1  0
  2  3  2  0
  3  4  1  0
  3  5  1  0
  5  6  2  0
  6  7  1  0
  7  8  2  0
  8  9  1  0
  8 10  1  0
 10 11  1  0
 10 12  2  0
 12 13  1  0
 12 14  1  0
 14 15  1  0
 14 16  2  0
 16 17  1  0
 17 18  2  0
 17 19  1  0
 19 20  1  0
 20 21  1  0
 20 22  1  0
 20 23  1  0
 23 24  1  0
 23 25  1  0
 25 26  1  0
 25 27  1  0
 25 28  1  0
 28 29  1  0
 28 30  1  0
 28 31  1  0
 31 32  1  0
 31 33  1  0
 31 34  1  0
 34 35  1  0
 34 36  1  0
 34 37  1  0
 37 38  1  0
 37 39  1  0
  2 40  1  0
 40 41  2  0
 41 42  1  0
 41 43  1  0
 43 44  1  0
 43 45  2  0
 45 46  1  0
 45 47  1  0
 47 48  1  0
 48 49  1  0
 49 50  1  0
 49 51  1  0
 49 52  1  0
 52 53  1  0
 52 54  1  0
 52 55  1  0
 55 56  1  0
 55 57  1  0
 55 58  1  0
 58 59  1  0
 58 60  1  0
 58 61  1  0
 61 62  1  0
 61 63  1  0
 47 64  2  0
 64 65  1  0
 19  5  1  0
 37 23  1  0
 64 40  1  0
 16  7  1  0
 61 48  1  0
M  CHG  1  31   1
M  END
>  <UniqueID>  (19) 
418

>  <SMILES>  (19) 
O=c1c2cc(Cl)ccc2nc(/C=C/c2cccc(N3CCCCC3)c2)n1CC1CC[NH2+]CC1

>  <Energy>  (19) 
80.85445616143309

>  <Genealogy>  (19) 
O=c1c2cc(Cl)ccc2nc(/C=C/c2cccc(N3CCCCC3)c2)n1CC1CC[NH2+]CC1 (protonated)
O=c1c2cc(Cl)ccc2nc(/C=C/c2cccc(N3CCCCC3)c2)n1CC1CC[NH2+]CC1 (cis-trans isomerization)
O=c1c2cc(Cl)ccc2nc(/C=C/c2cccc(N3CCCCC3)c2)n1CC1CC[NH2+]CC1 (3D coordinates assigned)
O=c1c2cc(Cl)ccc2nc(/C=C/c2cccc(N3CCCCC3)c2)n1CC1CC[NH2+]CC1 (nonaromatic ring conformer: 80.85445616143309 kcal/mol)

>  <smiles>  (19) 
O=c1c2cc(Cl)ccc2nc(/C=C/c2cccc(N3CCCCC3)c2)n1CC1CCNCC1

>  <score_type>  (19) 
oracle

>  <origin>  (19) 
autodockgpu

>  <m_score__min__energy>  (19) 
-9.5

>  <m_primary>  (19) 
energy

>  <meeko>  (19) 
{"free_energy": -8.28, "intermolecular_energy": -10.07, "internal_energy": -1.97, "cluster_size": 1, "cluster_id": 9, "rank_in_cluster": 1}

>  <energy>  (19) 
-8.28

>  <cluster_rmsd>  (19) 
0.0

>  <rmsd>  (19) 
269.63

>  <cluster>  (19) 
9

$$$$
KTDBAWTUPMOUSA-RJHOSBTDNA-O
     RDKit          3D

 65 69  0  0  0  0  0  0  0  0999 V2000
  142.8464   78.2605  222.8618 H   0  0  0  0  0  0  0  0  0  0  0  0
  141.8090   78.5940  223.0120 C   0  0  0  0  0  0  0  0  0  0  0  0
  141.6100   79.8300  223.5000 C   0  0  0  0  0  0  0  0  0  0  0  0
  142.3726   80.2706  224.1590 H   0  0  0  0  0  0  0  0  0  0  0  0
  140.3900   80.6240  223.1780 C   0  0  0  0  0  0  0  0  0  0  0  0
  139.3440   80.5470  224.0440 N   0  0  0  0  0  0  0  0  0  0  0  0
  138.2070   81.2540  223.8740 C   0  0  0  0  0  0  0  0  0  0  0  0
  137.1640   81.1380  224.7990 C   0  0  0  0  0  0  0  0  0  0  0  0
  137.2687   80.4660  225.6635 H   0  0  0  0  0  0  0  0  0  0  0  0
  135.9890   81.8750  224.6260 C   0  0  0  0  0  0  0  0  0  0  0  0
  135.1700   81.7817  225.3544 H   0  0  0  0  0  0  0  0  0  0  0  0
  135.8530   82.7310  223.5280 C   0  0  0  0  0  0  0  0  0  0  0  0
  134.3770   83.6540  223.3160 Cl  0  0  0  0  0  0  0  0  0  0  0  0
  136.8940   82.8480  222.6000 C   0  0  0  0  0  0  0  0  0  0  0  0
  136.7850   83.5197  221.7357 H   0  0  0  0  0  0  0  0  0  0  0  0
  138.0800   82.1090  222.7690 C   0  0  0  0  0  0  0  0  0  0  0  0
  139.1530   82.1910  221.8680 C   0  0  0  0  0  0  0  0  0  0  0  0
  139.0530   82.9480  220.8610 O   0  0  0  0  0  0  0  0  0  0  0  0
  140.3020   81.4560  222.0720 N   0  0  0  0  0  0  0  0  0  0  0  0
  141.3940   81.5710  221.0730 C   0  0  0  0  0  0  0  0  0  0  0  0
  141.5270   82.6321  220.8154 H   0  0  0  0  0  0  0  0  0  0  0  0
  142.3051   81.1482  221.5215 H   0  0  0  0  0  0  0  0  0  0  0  0
  141.0930   80.7770  219.7750 C   0  0  0  0  0  0  0  0  0  0  0  0
  140.0190   80.5396  219.7832 H   0  0  0  0  0  0  0  0  0  0  0  0
  141.3210   81.5990  218.4800 C   0  0  0  0  0  0  0  0  0  0  0  0
  140.5731   81.3013  217.7303 H   0  0  0  0  0  0  0  0  0  0  0  0
  141.2228   82.6669  218.7247 H   0  0  0  0  0  0  0  0  0  0  0  0
  142.7250   81.3600  217.9080 C   0  0  0  0  0  0  0  0  0  0  0  0
  142.8523   81.9829  217.0104 H   0  0  0  0  0  0  0  0  0  0  0  0
  143.4556   81.6244  218.6867 H   0  0  0  0  0  0  0  0  0  0  0  0
  142.9470   79.9430  217.5400 N   0  0  0  0  0  0  0  0  0  0  0  0
  142.7180   79.8140  216.5260 H   0  0  0  0  0  0  0  0  0  0  0  0
  143.9640   79.7260  217.6610 H   0  0  0  0  0  0  0  0  0  0  0  0
  142.1560   78.9710  218.3270 C   0  0  0  0  0  0  0  0  0  0  0  0
  141.1858   78.8186  217.8316 H   0  0  0  0  0  0  0  0  0  0  0  0
  142.7268   78.0322  218.3806 H   0  0  0  0  0  0  0  0  0  0  0  0
  141.9090   79.4590  219.7620 C   0  0  0  0  0  0  0  0  0  0  0  0
  141.3515   78.6868  220.3123 H   0  0  0  0  0  0  0  0  0  0  0  0
  142.8828   79.6483  220.2373 H   0  0  0  0  0  0  0  0  0  0  0  0
  140.7160   77.6480  222.6620 C   0  0  0  0  0  0  0  0  0  0  0  0
  141.0640   76.3500  222.2530 C   0  0  0  0  0  0  0  0  0  0  0  0
  142.1232   76.0548  222.2208 H   0  0  0  0  0  0  0  0  0  0  0  0
  140.0790   75.4310  221.8870 C   0  0  0  0  0  0  0  0  0  0  0  0
  140.3653   74.4173  221.5701 H   0  0  0  0  0  0  0  0  0  0  0  0
  138.7310   75.7950  221.9220 C   0  0  0  0  0  0  0  0  0  0  0  0
  137.9597   75.0666  221.6314 H   0  0  0  0  0  0  0  0  0  0  0  0
  138.3560   77.0850  222.3260 C   0  0  0  0  0  0  0  0  0  0  0  0
  136.9700   77.4720  222.3380 N   0  0  0  0  0  0  0  0  0  0  0  0
  136.5980   78.8590  222.0180 C   0  0  0  0  0  0  0  0  0  0  0  0
  137.2700   79.5431  222.5569 H   0  0  0  0  0  0  0  0  0  0  0  0
  136.6879   78.9994  220.9307 H   0  0  0  0  0  0  0  0  0  0  0  0
  135.1470   79.1590  222.4260 C   0  0  0  0  0  0  0  0  0  0  0  0
  134.9981   80.2483  222.4625 H   0  0  0  0  0  0  0  0  0  0  0  0
  134.4673   78.7104  221.6866 H   0  0  0  0  0  0  0  0  0  0  0  0
  134.8480   78.5610  223.8060 C   0  0  0  0  0  0  0  0  0  0  0  0
  135.5159   79.0280  224.5448 H   0  0  0  0  0  0  0  0  0  0  0  0
  133.7903   78.7595  224.0337 H   0  0  0  0  0  0  0  0  0  0  0  0
  135.0570   77.0310  223.8470 C   0  0  0  0  0  0  0  0  0  0  0  0
  135.5451   76.7714  224.7980 H   0  0  0  0  0  0  0  0  0  0  0  0
  134.0653   76.5657  223.7471 H   0  0  0  0  0  0  0  0  0  0  0  0
  135.9250   76.5000  222.6930 C   0  0  0  0  0  0  0  0  0  0  0  0
  136.3993   75.5569  223.0024 H   0  0  0  0  0  0  0  0  0  0  0  0
  135.2831   76.3347  221.8151 H   0  0  0  0  0  0  0  0  0  0  0  0
  139.3520   78.0110  222.6820 C   0  0  0  0  0  0  0  0  0  0  0  0
  139.0651   79.0304  222.9796 H   0  0  0  0  0  0  0  0  0  0  0  0
  1  2  1  0
  2  3  2  0
  3  4  1  0
  3  5  1  0
  5  6  2  0
  6  7  1  0
  7  8  2  0
  8  9  1  0
  8 10  1  0
 10 11  1  0
 10 12  2  0
 12 13  1  0
 12 14  1  0
 14 15  1  0
 14 16  2  0
 16 17  1  0
 17 18  2  0
 17 19  1  0
 19 20  1  0
 20 21  1  0
 20 22  1  0
 20 23  1  0
 23 24  1  0
 23 25  1  0
 25 26  1  0
 25 27  1  0
 25 28  1  0
 28 29  1  0
 28 30  1  0
 28 31  1  0
 31 32  1  0
 31 33  1  0
 31 34  1  0
 34 35  1  0
 34 36  1  0
 34 37  1  0
 37 38  1  0
 37 39  1  0
  2 40  1  0
 40 41  2  0
 41 42  1  0
 41 43  1  0
 43 44  1  0
 43 45  2  0
 45 46  1  0
 45 47  1  0
 47 48  1  0
 48 49  1  0
 49 50  1  0
 49 51  1  0
 49 52  1  0
 52 53  1  0
 52 54  1  0
 52 55  1  0
 55 56  1  0
 55 57  1  0
 55 58  1  0
 58 59  1  0
 58 60  1  0
 58 61  1  0
 61 62  1  0
 61 63  1  0
 47 64  2  0
 64 65  1  0
 19  5  1  0
 37 23  1  0
 64 40  1  0
 16  7  1  0
 61 48  1  0
M  CHG  1  31   1
M  END
>  <UniqueID>  (20) 
418

>  <SMILES>  (20) 
O=c1c2cc(Cl)ccc2nc(/C=C/c2cccc(N3CCCCC3)c2)n1CC1CC[NH2+]CC1

>  <Energy>  (20) 
80.85445616143309

>  <Genealogy>  (20) 
O=c1c2cc(Cl)ccc2nc(/C=C/c2cccc(N3CCCCC3)c2)n1CC1CC[NH2+]CC1 (protonated)
O=c1c2cc(Cl)ccc2nc(/C=C/c2cccc(N3CCCCC3)c2)n1CC1CC[NH2+]CC1 (cis-trans isomerization)
O=c1c2cc(Cl)ccc2nc(/C=C/c2cccc(N3CCCCC3)c2)n1CC1CC[NH2+]CC1 (3D coordinates assigned)
O=c1c2cc(Cl)ccc2nc(/C=C/c2cccc(N3CCCCC3)c2)n1CC1CC[NH2+]CC1 (nonaromatic ring conformer: 80.85445616143309 kcal/mol)

>  <smiles>  (20) 
O=c1c2cc(Cl)ccc2nc(/C=C/c2cccc(N3CCCCC3)c2)n1CC1CCNCC1

>  <score_type>  (20) 
oracle

>  <origin>  (20) 
autodockgpu

>  <m_score__min__energy>  (20) 
-9.5

>  <m_primary>  (20) 
energy

>  <meeko>  (20) 
{"free_energy": -7.59, "intermolecular_energy": -9.38, "internal_energy": -2.56, "cluster_size": 1, "cluster_id": 10, "rank_in_cluster": 1}

>  <energy>  (20) 
-7.59

>  <cluster_rmsd>  (20) 
0.0

>  <rmsd>  (20) 
270.27

>  <cluster>  (20) 
10

$$$$
KTDBAWTUPMOUSA-RJHOSBTDNA-O
     RDKit          3D

 65 69  0  0  0  0  0  0  0  0999 V2000
  141.4685   72.8898  220.6732 H   0  0  0  0  0  0  0  0  0  0  0  0
  140.8550   73.3760  221.4460 C   0  0  0  0  0  0  0  0  0  0  0  0
  140.8560   74.7180  221.4980 C   0  0  0  0  0  0  0  0  0  0  0  0
  141.8132   75.2437  221.6300 H   0  0  0  0  0  0  0  0  0  0  0  0
  139.6040   75.5200  221.3830 C   0  0  0  0  0  0  0  0  0  0  0  0
  138.7070   75.4330  222.4030 N   0  0  0  0  0  0  0  0  0  0  0  0
  137.5600   76.1440  222.4240 C   0  0  0  0  0  0  0  0  0  0  0  0
  136.6760   76.0170  223.5010 C   0  0  0  0  0  0  0  0  0  0  0  0
  136.9134   75.3328  224.3289 H   0  0  0  0  0  0  0  0  0  0  0  0
  135.4910   76.7590  223.5260 C   0  0  0  0  0  0  0  0  0  0  0  0
  134.7971   76.6578  224.3735 H   0  0  0  0  0  0  0  0  0  0  0  0
  135.1870   77.6300  222.4740 C   0  0  0  0  0  0  0  0  0  0  0  0
  133.7000   78.5590  222.5100 Cl  0  0  0  0  0  0  0  0  0  0  0  0
  136.0680   77.7580  221.3940 C   0  0  0  0  0  0  0  0  0  0  0  0
  135.8260   78.4412  220.5666 H   0  0  0  0  0  0  0  0  0  0  0  0
  137.2640   77.0140  221.3640 C   0  0  0  0  0  0  0  0  0  0  0  0
  138.1810   77.1060  220.3060 C   0  0  0  0  0  0  0  0  0  0  0  0
  137.9250   77.8770  219.3370 O   0  0  0  0  0  0  0  0  0  0  0  0
  139.3440   76.3660  220.3160 N   0  0  0  0  0  0  0  0  0  0  0  0
  140.2650   76.4930  219.1590 C   0  0  0  0  0  0  0  0  0  0  0  0
  140.7200   75.5114  218.9602 H   0  0  0  0  0  0  0  0  0  0  0  0
  139.6768   76.8461  218.2992 H   0  0  0  0  0  0  0  0  0  0  0  0
  141.3960   77.5240  219.4140 C   0  0  0  0  0  0  0  0  0  0  0  0
  141.5670   77.5534  220.5002 H   0  0  0  0  0  0  0  0  0  0  0  0
  142.7580   77.1140  218.7950 C   0  0  0  0  0  0  0  0  0  0  0  0
  143.5688   77.4520  219.4571 H   0  0  0  0  0  0  0  0  0  0  0  0
  142.7749   76.0195  218.6868 H   0  0  0  0  0  0  0  0  0  0  0  0
  142.9510   77.7410  217.4080 C   0  0  0  0  0  0  0  0  0  0  0  0
  143.9132   77.4015  216.9970 H   0  0  0  0  0  0  0  0  0  0  0  0
  142.1096   77.4233  216.7747 H   0  0  0  0  0  0  0  0  0  0  0  0
  142.9490   79.2210  217.4560 N   0  0  0  0  0  0  0  0  0  0  0  0
  143.9370   79.5600  217.5380 H   0  0  0  0  0  0  0  0  0  0  0  0
  142.5700   79.5810  216.5480 H   0  0  0  0  0  0  0  0  0  0  0  0
  142.1600   79.8000  218.5660 C   0  0  0  0  0  0  0  0  0  0  0  0
  142.8073   79.8946  219.4503 H   0  0  0  0  0  0  0  0  0  0  0  0
  141.7852   80.7817  218.2406 H   0  0  0  0  0  0  0  0  0  0  0  0
  140.9510   78.9270  218.9280 C   0  0  0  0  0  0  0  0  0  0  0  0
  140.3802   79.4195  219.7290 H   0  0  0  0  0  0  0  0  0  0  0  0
  140.3303   78.8025  218.0284 H   0  0  0  0  0  0  0  0  0  0  0  0
  140.0770   72.5060  222.3670 C   0  0  0  0  0  0  0  0  0  0  0  0
  138.7300   72.2490  222.0640 C   0  0  0  0  0  0  0  0  0  0  0  0
  138.2874   72.6724  221.1503 H   0  0  0  0  0  0  0  0  0  0  0  0
  137.9470   71.4620  222.9100 C   0  0  0  0  0  0  0  0  0  0  0  0
  136.8935   71.2686  222.6595 H   0  0  0  0  0  0  0  0  0  0  0  0
  138.4970   70.9190  224.0740 C   0  0  0  0  0  0  0  0  0  0  0  0
  137.8748   70.2994  224.7366 H   0  0  0  0  0  0  0  0  0  0  0  0
  139.8400   71.1610  224.4010 C   0  0  0  0  0  0  0  0  0  0  0  0
  140.4030   70.6250  225.6120 N   0  0  0  0  0  0  0  0  0  0  0  0
  140.2750   69.1880  225.9010 C   0  0  0  0  0  0  0  0  0  0  0  0
  139.2412   68.8725  225.6965 H   0  0  0  0  0  0  0  0  0  0  0  0
  140.9837   68.6418  225.2611 H   0  0  0  0  0  0  0  0  0  0  0  0
  140.6110   68.8790  227.3680 C   0  0  0  0  0  0  0  0  0  0  0  0
  140.2196   67.8844  227.6281 H   0  0  0  0  0  0  0  0  0  0  0  0
  141.7032   68.8998  227.4968 H   0  0  0  0  0  0  0  0  0  0  0  0
  139.9800   69.9280  228.2910 C   0  0  0  0  0  0  0  0  0  0  0  0
  138.8870   69.8889  228.1737 H   0  0  0  0  0  0  0  0  0  0  0  0
  140.2855   69.6930  229.3213 H   0  0  0  0  0  0  0  0  0  0  0  0
  140.4610   71.3620  227.9750 C   0  0  0  0  0  0  0  0  0  0  0  0
  139.5991   72.0419  228.0450 H   0  0  0  0  0  0  0  0  0  0  0  0
  141.2464   71.6086  228.7047 H   0  0  0  0  0  0  0  0  0  0  0  0
  141.0820   71.5050  226.5750 C   0  0  0  0  0  0  0  0  0  0  0  0
  140.9841   72.5487  226.2416 H   0  0  0  0  0  0  0  0  0  0  0  0
  142.1428   71.2189  226.6281 H   0  0  0  0  0  0  0  0  0  0  0  0
  140.6210   71.9650  223.5530 C   0  0  0  0  0  0  0  0  0  0  0  0
  141.6682   72.1754  223.8160 H   0  0  0  0  0  0  0  0  0  0  0  0
  1  2  1  0
  2  3  2  0
  3  4  1  0
  3  5  1  0
  5  6  2  0
  6  7  1  0
  7  8  2  0
  8  9  1  0
  8 10  1  0
 10 11  1  0
 10 12  2  0
 12 13  1  0
 12 14  1  0
 14 15  1  0
 14 16  2  0
 16 17  1  0
 17 18  2  0
 17 19  1  0
 19 20  1  0
 20 21  1  0
 20 22  1  0
 20 23  1  0
 23 24  1  0
 23 25  1  0
 25 26  1  0
 25 27  1  0
 25 28  1  0
 28 29  1  0
 28 30  1  0
 28 31  1  0
 31 32  1  0
 31 33  1  0
 31 34  1  0
 34 35  1  0
 34 36  1  0
 34 37  1  0
 37 38  1  0
 37 39  1  0
  2 40  1  0
 40 41  2  0
 41 42  1  0
 41 43  1  0
 43 44  1  0
 43 45  2  0
 45 46  1  0
 45 47  1  0
 47 48  1  0
 48 49  1  0
 49 50  1  0
 49 51  1  0
 49 52  1  0
 52 53  1  0
 52 54  1  0
 52 55  1  0
 55 56  1  0
 55 57  1  0
 55 58  1  0
 58 59  1  0
 58 60  1  0
 58 61  1  0
 61 62  1  0
 61 63  1  0
 47 64  2  0
 64 65  1  0
 19  5  1  0
 37 23  1  0
 64 40  1  0
 16  7  1  0
 61 48  1  0
M  CHG  1  31   1
M  END
>  <UniqueID>  (21) 
419

>  <SMILES>  (21) 
O=c1c2cc(Cl)ccc2nc(/C=C/c2cccc(N3CCCCC3)c2)n1CC1CC[NH2+]CC1

>  <Energy>  (21) 
88.43498537460377

>  <Genealogy>  (21) 
O=c1c2cc(Cl)ccc2nc(/C=C/c2cccc(N3CCCCC3)c2)n1CC1CC[NH2+]CC1 (protonated)
O=c1c2cc(Cl)ccc2nc(/C=C/c2cccc(N3CCCCC3)c2)n1CC1CC[NH2+]CC1 (cis-trans isomerization)
O=c1c2cc(Cl)ccc2nc(/C=C/c2cccc(N3CCCCC3)c2)n1CC1CC[NH2+]CC1 (3D coordinates assigned)
O=c1c2cc(Cl)ccc2nc(/C=C/c2cccc(N3CCCCC3)c2)n1CC1CC[NH2+]CC1 (nonaromatic ring conformer: 88.43498537460377 kcal/mol)

>  <smiles>  (21) 
O=c1c2cc(Cl)ccc2nc(/C=C/c2cccc(N3CCCCC3)c2)n1CC1CCNCC1

>  <score_type>  (21) 
oracle

>  <origin>  (21) 
autodockgpu

>  <m_score__min__energy>  (21) 
-9.5

>  <m_primary>  (21) 
energy

>  <meeko>  (21) 
{"free_energy": -8.35, "intermolecular_energy": -10.14, "internal_energy": -1.61, "cluster_size": 2, "cluster_id": 4, "rank_in_cluster": 2}

>  <energy>  (21) 
-9.5

>  <cluster_rmsd>  (21) 
0.0

>  <rmsd>  (21) 
269.14

>  <cluster>  (21) 
1

$$$$
KTDBAWTUPMOUSA-RJHOSBTDNA-O
     RDKit          3D

 65 69  0  0  0  0  0  0  0  0999 V2000
  142.2689   73.1537  221.5975 H   0  0  0  0  0  0  0  0  0  0  0  0
  141.1820   73.3210  221.5720 C   0  0  0  0  0  0  0  0  0  0  0  0
  140.7190   74.3310  220.8180 C   0  0  0  0  0  0  0  0  0  0  0  0
  141.0635   74.4187  219.7770 H   0  0  0  0  0  0  0  0  0  0  0  0
  139.7530   75.3380  221.3450 C   0  0  0  0  0  0  0  0  0  0  0  0
  138.5590   74.8790  221.8100 N   0  0  0  0  0  0  0  0  0  0  0  0
  137.6270   75.6950  222.3460 C   0  0  0  0  0  0  0  0  0  0  0  0
  136.4170   75.1670  222.8110 C   0  0  0  0  0  0  0  0  0  0  0  0
  136.2236   74.0868  222.7350 H   0  0  0  0  0  0  0  0  0  0  0  0
  135.4540   76.0110  223.3720 C   0  0  0  0  0  0  0  0  0  0  0  0
  134.5035   75.5943  223.7367 H   0  0  0  0  0  0  0  0  0  0  0  0
  135.6980   77.3850  223.4700 C   0  0  0  0  0  0  0  0  0  0  0  0
  134.4870   78.4400  224.1750 Cl  0  0  0  0  0  0  0  0  0  0  0  0
  136.9060   77.9170  223.0030 C   0  0  0  0  0  0  0  0  0  0  0  0
  137.0948   78.9981  223.0776 H   0  0  0  0  0  0  0  0  0  0  0  0
  137.8800   77.0710  222.4380 C   0  0  0  0  0  0  0  0  0  0  0  0
  139.1070   77.5540  221.9570 C   0  0  0  0  0  0  0  0  0  0  0  0
  139.3480   78.7930  222.0230 O   0  0  0  0  0  0  0  0  0  0  0  0
  140.0380   76.6930  221.4170 N   0  0  0  0  0  0  0  0  0  0  0  0
  141.3100   77.2660  220.9070 C   0  0  0  0  0  0  0  0  0  0  0  0
  141.4635   78.2524  221.3689 H   0  0  0  0  0  0  0  0  0  0  0  0
  142.1203   76.5691  221.1671 H   0  0  0  0  0  0  0  0  0  0  0  0
  141.3060   77.4330  219.3650 C   0  0  0  0  0  0  0  0  0  0  0  0
  140.4982   76.7971  218.9737 H   0  0  0  0  0  0  0  0  0  0  0  0
  140.9590   78.8720  218.9000 C   0  0  0  0  0  0  0  0  0  0  0  0
  140.3816   78.8172  217.9653 H   0  0  0  0  0  0  0  0  0  0  0  0
  140.3721   79.3608  219.6916 H   0  0  0  0  0  0  0  0  0  0  0  0
  142.2280   79.7000  218.6560 C   0  0  0  0  0  0  0  0  0  0  0  0
  141.9351   80.7173  218.3572 H   0  0  0  0  0  0  0  0  0  0  0  0
  142.8100   79.7085  219.5894 H   0  0  0  0  0  0  0  0  0  0  0  0
  143.0810   79.1180  217.5940 N   0  0  0  0  0  0  0  0  0  0  0  0
  142.8400   79.5680  216.6790 H   0  0  0  0  0  0  0  0  0  0  0  0
  144.0790   79.3560  217.8050 H   0  0  0  0  0  0  0  0  0  0  0  0
  142.9610   77.6510  217.4430 C   0  0  0  0  0  0  0  0  0  0  0  0
  142.1461   77.4320  216.7373 H   0  0  0  0  0  0  0  0  0  0  0  0
  143.9227   77.2676  217.0712 H   0  0  0  0  0  0  0  0  0  0  0  0
  142.6590   76.9590  218.7790 C   0  0  0  0  0  0  0  0  0  0  0  0
  142.6186   75.8716  218.6182 H   0  0  0  0  0  0  0  0  0  0  0  0
  143.4558   77.2176  219.4919 H   0  0  0  0  0  0  0  0  0  0  0  0
  140.3190   72.4140  222.3750 C   0  0  0  0  0  0  0  0  0  0  0  0
  139.0470   72.0890  221.8750 C   0  0  0  0  0  0  0  0  0  0  0  0
  138.7266   72.4872  220.9009 H   0  0  0  0  0  0  0  0  0  0  0  0
  138.1860   71.2660  222.6020 C   0  0  0  0  0  0  0  0  0  0  0  0
  137.1925   71.0202  222.1988 H   0  0  0  0  0  0  0  0  0  0  0  0
  138.5810   70.7530  223.8400 C   0  0  0  0  0  0  0  0  0  0  0  0
  137.8975   70.1046  224.4078 H   0  0  0  0  0  0  0  0  0  0  0  0
  139.8470   71.0620  224.3620 C   0  0  0  0  0  0  0  0  0  0  0  0
  140.2470   70.5580  225.6490 N   0  0  0  0  0  0  0  0  0  0  0  0
  139.8390   69.2060  226.0610 C   0  0  0  0  0  0  0  0  0  0  0  0
  138.7738   69.0664  225.8249 H   0  0  0  0  0  0  0  0  0  0  0  0
  140.4588   68.4775  225.5178 H   0  0  0  0  0  0  0  0  0  0  0  0
  140.0490   68.9900  227.5670 C   0  0  0  0  0  0  0  0  0  0  0  0
  139.4665   68.1156  227.8929 H   0  0  0  0  0  0  0  0  0  0  0  0
  141.1192   68.8226  227.7587 H   0  0  0  0  0  0  0  0  0  0  0  0
  139.5890   70.2250  228.3510 C   0  0  0  0  0  0  0  0  0  0  0  0
  138.5140   70.3757  228.1730 H   0  0  0  0  0  0  0  0  0  0  0  0
  139.8010   70.0437  229.4151 H   0  0  0  0  0  0  0  0  0  0  0  0
  140.3450   71.5060  227.9330 C   0  0  0  0  0  0  0  0  0  0  0  0
  139.6250   72.3364  227.8886 H   0  0  0  0  0  0  0  0  0  0  0  0
  141.1323   71.6761  228.6822 H   0  0  0  0  0  0  0  0  0  0  0  0
  141.0390   71.3900  226.5660 C   0  0  0  0  0  0  0  0  0  0  0  0
  141.1542   72.3948  226.1333 H   0  0  0  0  0  0  0  0  0  0  0  0
  142.0233   70.9200  226.7084 H   0  0  0  0  0  0  0  0  0  0  0  0
  140.7060   71.9030  223.6330 C   0  0  0  0  0  0  0  0  0  0  0  0
  141.6905   72.1658  224.0473 H   0  0  0  0  0  0  0  0  0  0  0  0
  1  2  1  0
  2  3  2  0
  3  4  1  0
  3  5  1  0
  5  6  2  0
  6  7  1  0
  7  8  2  0
  8  9  1  0
  8 10  1  0
 10 11  1  0
 10 12  2  0
 12 13  1  0
 12 14  1  0
 14 15  1  0
 14 16  2  0
 16 17  1  0
 17 18  2  0
 17 19  1  0
 19 20  1  0
 20 21  1  0
 20 22  1  0
 20 23  1  0
 23 24  1  0
 23 25  1  0
 25 26  1  0
 25 27  1  0
 25 28  1  0
 28 29  1  0
 28 30  1  0
 28 31  1  0
 31 32  1  0
 31 33  1  0
 31 34  1  0
 34 35  1  0
 34 36  1  0
 34 37  1  0
 37 38  1  0
 37 39  1  0
  2 40  1  0
 40 41  2  0
 41 42  1  0
 41 43  1  0
 43 44  1  0
 43 45  2  0
 45 46  1  0
 45 47  1  0
 47 48  1  0
 48 49  1  0
 49 50  1  0
 49 51  1  0
 49 52  1  0
 52 53  1  0
 52 54  1  0
 52 55  1  0
 55 56  1  0
 55 57  1  0
 55 58  1  0
 58 59  1  0
 58 60  1  0
 58 61  1  0
 61 62  1  0
 61 63  1  0
 47 64  2  0
 64 65  1  0
 19  5  1  0
 37 23  1  0
 64 40  1  0
 16  7  1  0
 61 48  1  0
M  CHG  1  31   1
M  END
>  <UniqueID>  (22) 
419

>  <SMILES>  (22) 
O=c1c2cc(Cl)ccc2nc(/C=C/c2cccc(N3CCCCC3)c2)n1CC1CC[NH2+]CC1

>  <Energy>  (22) 
88.43498537460377

>  <Genealogy>  (22) 
O=c1c2cc(Cl)ccc2nc(/C=C/c2cccc(N3CCCCC3)c2)n1CC1CC[NH2+]CC1 (protonated)
O=c1c2cc(Cl)ccc2nc(/C=C/c2cccc(N3CCCCC3)c2)n1CC1CC[NH2+]CC1 (cis-trans isomerization)
O=c1c2cc(Cl)ccc2nc(/C=C/c2cccc(N3CCCCC3)c2)n1CC1CC[NH2+]CC1 (3D coordinates assigned)
O=c1c2cc(Cl)ccc2nc(/C=C/c2cccc(N3CCCCC3)c2)n1CC1CC[NH2+]CC1 (nonaromatic ring conformer: 88.43498537460377 kcal/mol)

>  <smiles>  (22) 
O=c1c2cc(Cl)ccc2nc(/C=C/c2cccc(N3CCCCC3)c2)n1CC1CCNCC1

>  <score_type>  (22) 
oracle

>  <origin>  (22) 
autodockgpu

>  <m_score__min__energy>  (22) 
-9.5

>  <m_primary>  (22) 
energy

>  <meeko>  (22) 
{"free_energy": -9.02, "intermolecular_energy": -10.81, "internal_energy": -1.52, "cluster_size": 2, "cluster_id": 4, "rank_in_cluster": 1}

>  <energy>  (22) 
-9.16

>  <cluster_rmsd>  (22) 
0.81

>  <rmsd>  (22) 
269.39

>  <cluster>  (22) 
1

$$$$
KTDBAWTUPMOUSA-RJHOSBTDNA-O
     RDKit          3D

 65 69  0  0  0  0  0  0  0  0999 V2000
  142.0346   73.0816  221.5166 H   0  0  0  0  0  0  0  0  0  0  0  0
  140.9410   73.1940  221.4800 C   0  0  0  0  0  0  0  0  0  0  0  0
  140.4270   74.0520  220.5840 C   0  0  0  0  0  0  0  0  0  0  0  0
  139.8843   73.6512  219.7151 H   0  0  0  0  0  0  0  0  0  0  0  0
  140.5670   75.5300  220.7270 C   0  0  0  0  0  0  0  0  0  0  0  0
  140.9080   76.0110  221.9530 N   0  0  0  0  0  0  0  0  0  0  0  0
  141.1010   77.3270  222.1870 C   0  0  0  0  0  0  0  0  0  0  0  0
  141.4540   77.7660  223.4680 C   0  0  0  0  0  0  0  0  0  0  0  0
  141.5687   77.0394  224.2859 H   0  0  0  0  0  0  0  0  0  0  0  0
  141.6610   79.1280  223.7090 C   0  0  0  0  0  0  0  0  0  0  0  0
  141.9392   79.4712  224.7164 H   0  0  0  0  0  0  0  0  0  0  0  0
  141.5150   80.0540  222.6720 C   0  0  0  0  0  0  0  0  0  0  0  0
  141.7750   81.7610  222.9790 Cl  0  0  0  0  0  0  0  0  0  0  0  0
  141.1600   79.6180  221.3900 C   0  0  0  0  0  0  0  0  0  0  0  0
  141.0439   80.3479  220.5753 H   0  0  0  0  0  0  0  0  0  0  0  0
  140.9510   78.2480  221.1400 C   0  0  0  0  0  0  0  0  0  0  0  0
  140.5950   77.7590  219.8740 C   0  0  0  0  0  0  0  0  0  0  0  0
  140.4450   78.5760  218.9200 O   0  0  0  0  0  0  0  0  0  0  0  0
  140.4070   76.4090  219.6680 N   0  0  0  0  0  0  0  0  0  0  0  0
  140.0120   75.9560  218.3100 C   0  0  0  0  0  0  0  0  0  0  0  0
  139.5247   74.9733  218.3929 H   0  0  0  0  0  0  0  0  0  0  0  0
  139.3294   76.7093  217.8898 H   0  0  0  0  0  0  0  0  0  0  0  0
  141.2270   75.8310  217.3530 C   0  0  0  0  0  0  0  0  0  0  0  0
  141.2312   74.8005  216.9682 H   0  0  0  0  0  0  0  0  0  0  0  0
  141.1210   76.7380  216.0990 C   0  0  0  0  0  0  0  0  0  0  0  0
  141.5726   76.2179  215.2414 H   0  0  0  0  0  0  0  0  0  0  0  0
  140.0576   76.9477  215.9111 H   0  0  0  0  0  0  0  0  0  0  0  0
  141.8470   78.0720  216.3130 C   0  0  0  0  0  0  0  0  0  0  0  0
  141.7219   78.6914  215.4126 H   0  0  0  0  0  0  0  0  0  0  0  0
  141.4078   78.5563  217.1976 H   0  0  0  0  0  0  0  0  0  0  0  0
  143.2940   77.8890  216.5680 N   0  0  0  0  0  0  0  0  0  0  0  0
  143.8120   77.9700  215.6610 H   0  0  0  0  0  0  0  0  0  0  0  0
  143.6220   78.6690  217.1850 H   0  0  0  0  0  0  0  0  0  0  0  0
  143.6490   76.5990  217.1990 C   0  0  0  0  0  0  0  0  0  0  0  0
  143.8185   75.8522  216.4094 H   0  0  0  0  0  0  0  0  0  0  0  0
  144.5561   76.7538  217.8016 H   0  0  0  0  0  0  0  0  0  0  0  0
  142.5410   76.0910  218.1320 C   0  0  0  0  0  0  0  0  0  0  0  0
  142.8705   75.1530  218.6027 H   0  0  0  0  0  0  0  0  0  0  0  0
  142.3475   76.8606  218.8938 H   0  0  0  0  0  0  0  0  0  0  0  0
  140.1260   72.3860  222.4260 C   0  0  0  0  0  0  0  0  0  0  0  0
  138.7570   72.2210  222.1540 C   0  0  0  0  0  0  0  0  0  0  0  0
  138.3246   72.6671  221.2463 H   0  0  0  0  0  0  0  0  0  0  0  0
  137.9410   71.4970  223.0240 C   0  0  0  0  0  0  0  0  0  0  0  0
  136.8715   71.3747  222.7978 H   0  0  0  0  0  0  0  0  0  0  0  0
  138.4770   70.9270  224.1810 C   0  0  0  0  0  0  0  0  0  0  0  0
  137.8280   70.3577  224.8627 H   0  0  0  0  0  0  0  0  0  0  0  0
  139.8410   71.0780  224.4770 C   0  0  0  0  0  0  0  0  0  0  0  0
  140.3920   70.5140  225.6820 N   0  0  0  0  0  0  0  0  0  0  0  0
  140.2240   69.0790  225.9570 C   0  0  0  0  0  0  0  0  0  0  0  0
  139.1811   68.7953  225.7526 H   0  0  0  0  0  0  0  0  0  0  0  0
  140.9153   68.5197  225.3095 H   0  0  0  0  0  0  0  0  0  0  0  0
  140.5550   68.7450  227.4190 C   0  0  0  0  0  0  0  0  0  0  0  0
  140.1364   67.7592  227.6698 H   0  0  0  0  0  0  0  0  0  0  0  0
  141.6477   68.7334  227.5449 H   0  0  0  0  0  0  0  0  0  0  0  0
  139.9560   69.8020  228.3550 C   0  0  0  0  0  0  0  0  0  0  0  0
  138.8619   69.7945  228.2412 H   0  0  0  0  0  0  0  0  0  0  0  0
  140.2577   69.5484  229.3819 H   0  0  0  0  0  0  0  0  0  0  0  0
  140.4760   71.2250  228.0510 C   0  0  0  0  0  0  0  0  0  0  0  0
  139.6335   71.9279  228.1301 H   0  0  0  0  0  0  0  0  0  0  0  0
  141.2702   71.4420  228.7805 H   0  0  0  0  0  0  0  0  0  0  0  0
  141.0970   71.3650  226.6510 C   0  0  0  0  0  0  0  0  0  0  0  0
  141.0268   72.4142  226.3282 H   0  0  0  0  0  0  0  0  0  0  0  0
  142.1498   71.0496  226.6982 H   0  0  0  0  0  0  0  0  0  0  0  0
  140.6570   71.8180  223.6050 C   0  0  0  0  0  0  0  0  0  0  0  0
  141.7219   71.9566  223.8433 H   0  0  0  0  0  0  0  0  0  0  0  0
  1  2  1  0
  2  3  2  0
  3  4  1  0
  3  5  1  0
  5  6  2  0
  6  7  1  0
  7  8  2  0
  8  9  1  0
  8 10  1  0
 10 11  1  0
 10 12  2  0
 12 13  1  0
 12 14  1  0
 14 15  1  0
 14 16  2  0
 16 17  1  0
 17 18  2  0
 17 19  1  0
 19 20  1  0
 20 21  1  0
 20 22  1  0
 20 23  1  0
 23 24  1  0
 23 25  1  0
 25 26  1  0
 25 27  1  0
 25 28  1  0
 28 29  1  0
 28 30  1  0
 28 31  1  0
 31 32  1  0
 31 33  1  0
 31 34  1  0
 34 35  1  0
 34 36  1  0
 34 37  1  0
 37 38  1  0
 37 39  1  0
  2 40  1  0
 40 41  2  0
 41 42  1  0
 41 43  1  0
 43 44  1  0
 43 45  2  0
 45 46  1  0
 45 47  1  0
 47 48  1  0
 48 49  1  0
 49 50  1  0
 49 51  1  0
 49 52  1  0
 52 53  1  0
 52 54  1  0
 52 55  1  0
 55 56  1  0
 55 57  1  0
 55 58  1  0
 58 59  1  0
 58 60  1  0
 58 61  1  0
 61 62  1  0
 61 63  1  0
 47 64  2  0
 64 65  1  0
 19  5  1  0
 37 23  1  0
 64 40  1  0
 16  7  1  0
 61 48  1  0
M  CHG  1  31   1
M  END
>  <UniqueID>  (23) 
419

>  <SMILES>  (23) 
O=c1c2cc(Cl)ccc2nc(/C=C/c2cccc(N3CCCCC3)c2)n1CC1CC[NH2+]CC1

>  <Energy>  (23) 
88.43498537460377

>  <Genealogy>  (23) 
O=c1c2cc(Cl)ccc2nc(/C=C/c2cccc(N3CCCCC3)c2)n1CC1CC[NH2+]CC1 (protonated)
O=c1c2cc(Cl)ccc2nc(/C=C/c2cccc(N3CCCCC3)c2)n1CC1CC[NH2+]CC1 (cis-trans isomerization)
O=c1c2cc(Cl)ccc2nc(/C=C/c2cccc(N3CCCCC3)c2)n1CC1CC[NH2+]CC1 (3D coordinates assigned)
O=c1c2cc(Cl)ccc2nc(/C=C/c2cccc(N3CCCCC3)c2)n1CC1CC[NH2+]CC1 (nonaromatic ring conformer: 88.43498537460377 kcal/mol)

>  <smiles>  (23) 
O=c1c2cc(Cl)ccc2nc(/C=C/c2cccc(N3CCCCC3)c2)n1CC1CCNCC1

>  <score_type>  (23) 
oracle

>  <origin>  (23) 
autodockgpu

>  <m_score__min__energy>  (23) 
-9.5

>  <m_primary>  (23) 
energy

>  <meeko>  (23) 
{"free_energy": -9.26, "intermolecular_energy": -11.05, "internal_energy": -1.5, "cluster_size": 1, "cluster_id": 2, "rank_in_cluster": 1}

>  <energy>  (23) 
-9.26

>  <cluster_rmsd>  (23) 
0.0

>  <rmsd>  (23) 
269.71

>  <cluster>  (23) 
2

$$$$
KTDBAWTUPMOUSA-RJHOSBTDNA-O
     RDKit          3D

 65 69  0  0  0  0  0  0  0  0999 V2000
  140.8010   74.4682  222.1351 H   0  0  0  0  0  0  0  0  0  0  0  0
  140.7850   73.5040  221.6060 C   0  0  0  0  0  0  0  0  0  0  0  0
  141.2450   73.4710  220.3450 C   0  0  0  0  0  0  0  0  0  0  0  0
  140.7687   74.1123  219.5888 H   0  0  0  0  0  0  0  0  0  0  0  0
  142.3790   72.5950  219.9350 C   0  0  0  0  0  0  0  0  0  0  0  0
  142.1950   71.2500  220.0170 N   0  0  0  0  0  0  0  0  0  0  0  0
  143.1390   70.3630  219.6350 C   0  0  0  0  0  0  0  0  0  0  0  0
  142.8930   68.9900  219.7390 C   0  0  0  0  0  0  0  0  0  0  0  0
  141.9323   68.6325  220.1379 H   0  0  0  0  0  0  0  0  0  0  0  0
  143.8680   68.0710  219.3360 C   0  0  0  0  0  0  0  0  0  0  0  0
  143.6734   66.9915  219.4187 H   0  0  0  0  0  0  0  0  0  0  0  0
  145.0900   68.5240  218.8280 C   0  0  0  0  0  0  0  0  0  0  0  0
  146.3100   67.3680  218.3240 Cl  0  0  0  0  0  0  0  0  0  0  0  0
  145.3400   69.8970  218.7250 C   0  0  0  0  0  0  0  0  0  0  0  0
  146.3030   70.2509  218.3282 H   0  0  0  0  0  0  0  0  0  0  0  0
  144.3620   70.8270  219.1280 C   0  0  0  0  0  0  0  0  0  0  0  0
  144.5620   72.2130  219.0430 C   0  0  0  0  0  0  0  0  0  0  0  0
  145.6620   72.6500  218.5990 O   0  0  0  0  0  0  0  0  0  0  0  0
  143.5770   73.0920  219.4420 N   0  0  0  0  0  0  0  0  0  0  0  0
  143.8550   74.5470  219.3460 C   0  0  0  0  0  0  0  0  0  0  0  0
  143.6314   75.0141  220.3165 H   0  0  0  0  0  0  0  0  0  0  0  0
  144.9139   74.6689  219.0744 H   0  0  0  0  0  0  0  0  0  0  0  0
  143.0030   75.2410  218.2510 C   0  0  0  0  0  0  0  0  0  0  0  0
  142.2572   74.5083  217.9091 H   0  0  0  0  0  0  0  0  0  0  0  0
  142.1820   76.4470  218.7780 C   0  0  0  0  0  0  0  0  0  0  0  0
  141.2227   76.4892  218.2415 H   0  0  0  0  0  0  0  0  0  0  0  0
  142.0189   76.3107  219.8573 H   0  0  0  0  0  0  0  0  0  0  0  0
  142.9320   77.7680  218.5650 C   0  0  0  0  0  0  0  0  0  0  0  0
  142.3271   78.5889  218.9777 H   0  0  0  0  0  0  0  0  0  0  0  0
  143.9035   77.6897  219.0749 H   0  0  0  0  0  0  0  0  0  0  0  0
  143.1920   78.0410  217.1340 N   0  0  0  0  0  0  0  0  0  0  0  0
  142.4200   78.6380  216.7550 H   0  0  0  0  0  0  0  0  0  0  0  0
  144.0790   78.5930  217.0580 H   0  0  0  0  0  0  0  0  0  0  0  0
  143.3090   76.8320  216.2880 C   0  0  0  0  0  0  0  0  0  0  0  0
  142.3081   76.5529  215.9269 H   0  0  0  0  0  0  0  0  0  0  0  0
  143.9826   77.0669  215.4507 H   0  0  0  0  0  0  0  0  0  0  0  0
  143.9060   75.6470  217.0590 C   0  0  0  0  0  0  0  0  0  0  0  0
  144.0069   74.7897  216.3772 H   0  0  0  0  0  0  0  0  0  0  0  0
  144.8881   75.9474  217.4529 H   0  0  0  0  0  0  0  0  0  0  0  0
  140.2550   72.3190  222.3330 C   0  0  0  0  0  0  0  0  0  0  0  0
  139.2350   71.5670  221.7270 C   0  0  0  0  0  0  0  0  0  0  0  0
  138.8683   71.8514  220.7297 H   0  0  0  0  0  0  0  0  0  0  0  0
  138.6820   70.4630  222.3770 C   0  0  0  0  0  0  0  0  0  0  0  0
  137.8852   69.8821  221.8894 H   0  0  0  0  0  0  0  0  0  0  0  0
  139.1370   70.0930  223.6450 C   0  0  0  0  0  0  0  0  0  0  0  0
  138.6964   69.2222  224.1525 H   0  0  0  0  0  0  0  0  0  0  0  0
  140.1540   70.8280  224.2740 C   0  0  0  0  0  0  0  0  0  0  0  0
  140.6080   70.4660  225.5910 N   0  0  0  0  0  0  0  0  0  0  0  0
  140.4580   69.0790  226.0570 C   0  0  0  0  0  0  0  0  0  0  0  0
  139.4471   68.7248  225.8066 H   0  0  0  0  0  0  0  0  0  0  0  0
  141.2220   68.4627  225.5606 H   0  0  0  0  0  0  0  0  0  0  0  0
  140.6630   68.9720  227.5760 C   0  0  0  0  0  0  0  0  0  0  0  0
  140.2532   68.0149  227.9310 H   0  0  0  0  0  0  0  0  0  0  0  0
  141.7393   69.0259  227.7967 H   0  0  0  0  0  0  0  0  0  0  0  0
  139.9490   70.1240  228.2910 C   0  0  0  0  0  0  0  0  0  0  0  0
  138.8710   70.0534  228.0840 H   0  0  0  0  0  0  0  0  0  0  0  0
  140.1616   70.0324  229.3664 H   0  0  0  0  0  0  0  0  0  0  0  0
  140.4520   71.5100  227.8300 C   0  0  0  0  0  0  0  0  0  0  0  0
  139.5853   72.1803  227.7325 H   0  0  0  0  0  0  0  0  0  0  0  0
  141.1686   71.8624  228.5865 H   0  0  0  0  0  0  0  0  0  0  0  0
  141.1950   71.4760  226.4840 C   0  0  0  0  0  0  0  0  0  0  0  0
  141.1235   72.4647  226.0071 H   0  0  0  0  0  0  0  0  0  0  0  0
  142.2479   71.2159  226.6680 H   0  0  0  0  0  0  0  0  0  0  0  0
  140.7000   71.9470  223.6210 C   0  0  0  0  0  0  0  0  0  0  0  0
  141.4822   72.5392  224.1185 H   0  0  0  0  0  0  0  0  0  0  0  0
  1  2  1  0
  2  3  2  0
  3  4  1  0
  3  5  1  0
  5  6  2  0
  6  7  1  0
  7  8  2  0
  8  9  1  0
  8 10  1  0
 10 11  1  0
 10 12  2  0
 12 13  1  0
 12 14  1  0
 14 15  1  0
 14 16  2  0
 16 17  1  0
 17 18  2  0
 17 19  1  0
 19 20  1  0
 20 21  1  0
 20 22  1  0
 20 23  1  0
 23 24  1  0
 23 25  1  0
 25 26  1  0
 25 27  1  0
 25 28  1  0
 28 29  1  0
 28 30  1  0
 28 31  1  0
 31 32  1  0
 31 33  1  0
 31 34  1  0
 34 35  1  0
 34 36  1  0
 34 37  1  0
 37 38  1  0
 37 39  1  0
  2 40  1  0
 40 41  2  0
 41 42  1  0
 41 43  1  0
 43 44  1  0
 43 45  2  0
 45 46  1  0
 45 47  1  0
 47 48  1  0
 48 49  1  0
 49 50  1  0
 49 51  1  0
 49 52  1  0
 52 53  1  0
 52 54  1  0
 52 55  1  0
 55 56  1  0
 55 57  1  0
 55 58  1  0
 58 59  1  0
 58 60  1  0
 58 61  1  0
 61 62  1  0
 61 63  1  0
 47 64  2  0
 64 65  1  0
 19  5  1  0
 37 23  1  0
 64 40  1  0
 16  7  1  0
 61 48  1  0
M  CHG  1  31   1
M  END
>  <UniqueID>  (24) 
419

>  <SMILES>  (24) 
O=c1c2cc(Cl)ccc2nc(/C=C/c2cccc(N3CCCCC3)c2)n1CC1CC[NH2+]CC1

>  <Energy>  (24) 
88.43498537460377

>  <Genealogy>  (24) 
O=c1c2cc(Cl)ccc2nc(/C=C/c2cccc(N3CCCCC3)c2)n1CC1CC[NH2+]CC1 (protonated)
O=c1c2cc(Cl)ccc2nc(/C=C/c2cccc(N3CCCCC3)c2)n1CC1CC[NH2+]CC1 (cis-trans isomerization)
O=c1c2cc(Cl)ccc2nc(/C=C/c2cccc(N3CCCCC3)c2)n1CC1CC[NH2+]CC1 (3D coordinates assigned)
O=c1c2cc(Cl)ccc2nc(/C=C/c2cccc(N3CCCCC3)c2)n1CC1CC[NH2+]CC1 (nonaromatic ring conformer: 88.43498537460377 kcal/mol)

>  <smiles>  (24) 
O=c1c2cc(Cl)ccc2nc(/C=C/c2cccc(N3CCCCC3)c2)n1CC1CCNCC1

>  <score_type>  (24) 
oracle

>  <origin>  (24) 
autodockgpu

>  <m_score__min__energy>  (24) 
-9.5

>  <m_primary>  (24) 
energy

>  <meeko>  (24) 
{"free_energy": -9.5, "intermolecular_energy": -11.29, "internal_energy": -1.53, "cluster_size": 2, "cluster_id": 1, "rank_in_cluster": 1}

>  <energy>  (24) 
-9.19

>  <cluster_rmsd>  (24) 
0.0

>  <rmsd>  (24) 
269.21

>  <cluster>  (24) 
3

$$$$
KTDBAWTUPMOUSA-RJHOSBTDNA-O
     RDKit          3D

 65 69  0  0  0  0  0  0  0  0999 V2000
  138.9044   73.2788  220.8512 H   0  0  0  0  0  0  0  0  0  0  0  0
  139.8030   72.8130  221.2820 C   0  0  0  0  0  0  0  0  0  0  0  0
  141.0000   73.3150  220.9350 C   0  0  0  0  0  0  0  0  0  0  0  0
  141.8202   72.6203  220.7013 H   0  0  0  0  0  0  0  0  0  0  0  0
  141.2540   74.7820  220.8560 C   0  0  0  0  0  0  0  0  0  0  0  0
  140.8340   75.5490  221.8980 N   0  0  0  0  0  0  0  0  0  0  0  0
  141.0470   76.8820  221.9500 C   0  0  0  0  0  0  0  0  0  0  0  0
  140.5960   77.6210  223.0490 C   0  0  0  0  0  0  0  0  0  0  0  0
  140.0628   77.1168  223.8685 H   0  0  0  0  0  0  0  0  0  0  0  0
  140.8220   78.9990  223.1070 C   0  0  0  0  0  0  0  0  0  0  0  0
  140.4665   79.5783  223.9718 H   0  0  0  0  0  0  0  0  0  0  0  0
  141.5000   79.6420  222.0660 C   0  0  0  0  0  0  0  0  0  0  0  0
  141.7820   81.3720  222.1430 Cl  0  0  0  0  0  0  0  0  0  0  0  0
  141.9510   78.9070  220.9640 C   0  0  0  0  0  0  0  0  0  0  0  0
  142.4815   79.4151  220.1452 H   0  0  0  0  0  0  0  0  0  0  0  0
  141.7270   77.5170  220.9010 C   0  0  0  0  0  0  0  0  0  0  0  0
  142.1590   76.7340  219.8200 C   0  0  0  0  0  0  0  0  0  0  0  0
  142.7640   77.2920  218.8600 O   0  0  0  0  0  0  0  0  0  0  0  0
  141.9270   75.3750  219.7980 N   0  0  0  0  0  0  0  0  0  0  0  0
  142.3910   74.6040  218.6180 C   0  0  0  0  0  0  0  0  0  0  0  0
  141.7342   73.7317  218.4852 H   0  0  0  0  0  0  0  0  0  0  0  0
  142.3545   75.2721  217.7449 H   0  0  0  0  0  0  0  0  0  0  0  0
  143.8530   74.1080  218.7740 C   0  0  0  0  0  0  0  0  0  0  0  0
  144.4368   74.5615  217.9594 H   0  0  0  0  0  0  0  0  0  0  0  0
  144.5310   74.5880  220.0840 C   0  0  0  0  0  0  0  0  0  0  0  0
  145.5970   74.7755  219.8877 H   0  0  0  0  0  0  0  0  0  0  0  0
  144.0285   75.5079  220.4176 H   0  0  0  0  0  0  0  0  0  0  0  0
  144.4050   73.5380  221.1950 C   0  0  0  0  0  0  0  0  0  0  0  0
  144.8735   73.9318  222.1090 H   0  0  0  0  0  0  0  0  0  0  0  0
  143.3346   73.3360  221.3479 H   0  0  0  0  0  0  0  0  0  0  0  0
  145.0610   72.2600  220.8360 N   0  0  0  0  0  0  0  0  0  0  0  0
  146.0390   72.2620  221.2100 H   0  0  0  0  0  0  0  0  0  0  0  0
  144.5470   71.4800  221.3100 H   0  0  0  0  0  0  0  0  0  0  0  0
  145.1150   71.9820  219.3830 C   0  0  0  0  0  0  0  0  0  0  0  0
  146.0323   72.4269  218.9699 H   0  0  0  0  0  0  0  0  0  0  0  0
  145.1056   70.8908  219.2447 H   0  0  0  0  0  0  0  0  0  0  0  0
  143.9040   72.5650  218.6420 C   0  0  0  0  0  0  0  0  0  0  0  0
  143.9732   72.2985  217.5770 H   0  0  0  0  0  0  0  0  0  0  0  0
  142.9895   72.1478  219.0888 H   0  0  0  0  0  0  0  0  0  0  0  0
  139.6160   71.6670  222.2120 C   0  0  0  0  0  0  0  0  0  0  0  0
  138.7900   70.6060  221.8030 C   0  0  0  0  0  0  0  0  0  0  0  0
  138.3226   70.6322  220.8076 H   0  0  0  0  0  0  0  0  0  0  0  0
  138.5570   69.5200  222.6470 C   0  0  0  0  0  0  0  0  0  0  0  0
  137.9094   68.6957  222.3137 H   0  0  0  0  0  0  0  0  0  0  0  0
  139.1440   69.4760  223.9150 C   0  0  0  0  0  0  0  0  0  0  0  0
  138.9561   68.6171  224.5760 H   0  0  0  0  0  0  0  0  0  0  0  0
  139.9720   70.5230  224.3480 C   0  0  0  0  0  0  0  0  0  0  0  0
  140.5560   70.4940  225.6630 N   0  0  0  0  0  0  0  0  0  0  0  0
  140.1450   69.4550  226.6200 C   0  0  0  0  0  0  0  0  0  0  0  0
  139.0487   69.3666  226.6032 H   0  0  0  0  0  0  0  0  0  0  0  0
  140.6179   68.5066  226.3252 H   0  0  0  0  0  0  0  0  0  0  0  0
  140.5970   69.7970  228.0480 C   0  0  0  0  0  0  0  0  0  0  0  0
  140.0278   69.1869  228.7647 H   0  0  0  0  0  0  0  0  0  0  0  0
  141.6722   69.5852  228.1434 H   0  0  0  0  0  0  0  0  0  0  0  0
  140.3530   71.2820  228.3420 C   0  0  0  0  0  0  0  0  0  0  0  0
  139.2743   71.4837  228.2667 H   0  0  0  0  0  0  0  0  0  0  0  0
  140.7342   71.4891  229.3528 H   0  0  0  0  0  0  0  0  0  0  0  0
  141.1000   72.2110  227.3600 C   0  0  0  0  0  0  0  0  0  0  0  0
  140.4330   73.0440  227.0932 H   0  0  0  0  0  0  0  0  0  0  0  0
  142.0125   72.5537  227.8698 H   0  0  0  0  0  0  0  0  0  0  0  0
  141.5420   71.5080  226.0660 C   0  0  0  0  0  0  0  0  0  0  0  0
  141.6401   72.2550  225.2645 H   0  0  0  0  0  0  0  0  0  0  0  0
  142.5072   71.0116  226.2449 H   0  0  0  0  0  0  0  0  0  0  0  0
  140.1930   71.6210  223.5000 C   0  0  0  0  0  0  0  0  0  0  0  0
  140.8230   72.4548  223.8434 H   0  0  0  0  0  0  0  0  0  0  0  0
  1  2  1  0
  2  3  2  0
  3  4  1  0
  3  5  1  0
  5  6  2  0
  6  7  1  0
  7  8  2  0
  8  9  1  0
  8 10  1  0
 10 11  1  0
 10 12  2  0
 12 13  1  0
 12 14  1  0
 14 15  1  0
 14 16  2  0
 16 17  1  0
 17 18  2  0
 17 19  1  0
 19 20  1  0
 20 21  1  0
 20 22  1  0
 20 23  1  0
 23 24  1  0
 23 25  1  0
 25 26  1  0
 25 27  1  0
 25 28  1  0
 28 29  1  0
 28 30  1  0
 28 31  1  0
 31 32  1  0
 31 33  1  0
 31 34  1  0
 34 35  1  0
 34 36  1  0
 34 37  1  0
 37 38  1  0
 37 39  1  0
  2 40  1  0
 40 41  2  0
 41 42  1  0
 41 43  1  0
 43 44  1  0
 43 45  2  0
 45 46  1  0
 45 47  1  0
 47 48  1  0
 48 49  1  0
 49 50  1  0
 49 51  1  0
 49 52  1  0
 52 53  1  0
 52 54  1  0
 52 55  1  0
 55 56  1  0
 55 57  1  0
 55 58  1  0
 58 59  1  0
 58 60  1  0
 58 61  1  0
 61 62  1  0
 61 63  1  0
 47 64  2  0
 64 65  1  0
 19  5  1  0
 37 23  1  0
 64 40  1  0
 16  7  1  0
 61 48  1  0
M  CHG  1  31   1
M  END
>  <UniqueID>  (25) 
419

>  <SMILES>  (25) 
O=c1c2cc(Cl)ccc2nc(/C=C/c2cccc(N3CCCCC3)c2)n1CC1CC[NH2+]CC1

>  <Energy>  (25) 
88.43498537460377

>  <Genealogy>  (25) 
O=c1c2cc(Cl)ccc2nc(/C=C/c2cccc(N3CCCCC3)c2)n1CC1CC[NH2+]CC1 (protonated)
O=c1c2cc(Cl)ccc2nc(/C=C/c2cccc(N3CCCCC3)c2)n1CC1CC[NH2+]CC1 (cis-trans isomerization)
O=c1c2cc(Cl)ccc2nc(/C=C/c2cccc(N3CCCCC3)c2)n1CC1CC[NH2+]CC1 (3D coordinates assigned)
O=c1c2cc(Cl)ccc2nc(/C=C/c2cccc(N3CCCCC3)c2)n1CC1CC[NH2+]CC1 (nonaromatic ring conformer: 88.43498537460377 kcal/mol)

>  <smiles>  (25) 
O=c1c2cc(Cl)ccc2nc(/C=C/c2cccc(N3CCCCC3)c2)n1CC1CCNCC1

>  <score_type>  (25) 
oracle

>  <origin>  (25) 
autodockgpu

>  <m_score__min__energy>  (25) 
-9.5

>  <m_primary>  (25) 
energy

>  <meeko>  (25) 
{"free_energy": -8.97, "intermolecular_energy": -10.76, "internal_energy": -1.45, "cluster_size": 1, "cluster_id": 5, "rank_in_cluster": 1}

>  <energy>  (25) 
-9.02

>  <cluster_rmsd>  (25) 
0.0

>  <rmsd>  (25) 
269.64

>  <cluster>  (25) 
4

$$$$
KTDBAWTUPMOUSA-RJHOSBTDNA-O
     RDKit          3D

 65 69  0  0  0  0  0  0  0  0999 V2000
  138.9261   74.1711  222.5186 H   0  0  0  0  0  0  0  0  0  0  0  0
  139.8070   73.9190  221.9100 C   0  0  0  0  0  0  0  0  0  0  0  0
  140.1000   72.6200  221.7360 C   0  0  0  0  0  0  0  0  0  0  0  0
  140.4163   72.2753  220.7404 H   0  0  0  0  0  0  0  0  0  0  0  0
  140.0110   71.6290  222.8470 C   0  0  0  0  0  0  0  0  0  0  0  0
  140.7200   71.8890  223.9780 N   0  0  0  0  0  0  0  0  0  0  0  0
  140.6810   71.0820  225.0600 C   0  0  0  0  0  0  0  0  0  0  0  0
  141.4290   71.4010  226.1990 C   0  0  0  0  0  0  0  0  0  0  0  0
  142.0534   72.3066  226.2109 H   0  0  0  0  0  0  0  0  0  0  0  0
  141.3830   70.5690  227.3220 C   0  0  0  0  0  0  0  0  0  0  0  0
  141.9716   70.8210  228.2165 H   0  0  0  0  0  0  0  0  0  0  0  0
  140.5900   69.4170  227.3100 C   0  0  0  0  0  0  0  0  0  0  0  0
  140.5360   68.3770  228.7210 Cl  0  0  0  0  0  0  0  0  0  0  0  0
  139.8420   69.0940  226.1710 C   0  0  0  0  0  0  0  0  0  0  0  0
  139.2209   68.1861  226.1617 H   0  0  0  0  0  0  0  0  0  0  0  0
  139.8830   69.9290  225.0370 C   0  0  0  0  0  0  0  0  0  0  0  0
  139.1520   69.6510  223.8720 C   0  0  0  0  0  0  0  0  0  0  0  0
  138.4360   68.6100  223.8300 O   0  0  0  0  0  0  0  0  0  0  0  0
  139.2130   70.4970  222.7850 N   0  0  0  0  0  0  0  0  0  0  0  0
  138.4320   70.1380  221.5740 C   0  0  0  0  0  0  0  0  0  0  0  0
  138.9862   70.4713  220.6842 H   0  0  0  0  0  0  0  0  0  0  0  0
  138.2922   69.0469  221.5754 H   0  0  0  0  0  0  0  0  0  0  0  0
  137.0270   70.7960  221.5620 C   0  0  0  0  0  0  0  0  0  0  0  0
  136.4200   70.2464  220.8275 H   0  0  0  0  0  0  0  0  0  0  0  0
  136.2680   70.6590  222.9080 C   0  0  0  0  0  0  0  0  0  0  0  0
  135.1936   70.5419  222.7031 H   0  0  0  0  0  0  0  0  0  0  0  0
  136.6610   69.7801  223.4401 H   0  0  0  0  0  0  0  0  0  0  0  0
  136.4760   71.8940  223.7940 C   0  0  0  0  0  0  0  0  0  0  0  0
  135.9453   71.7406  224.7452 H   0  0  0  0  0  0  0  0  0  0  0  0
  137.5575   72.0162  223.9533 H   0  0  0  0  0  0  0  0  0  0  0  0
  135.9680   73.1320  223.1590 N   0  0  0  0  0  0  0  0  0  0  0  0
  134.9850   73.3010  223.4810 H   0  0  0  0  0  0  0  0  0  0  0  0
  136.5480   73.9370  223.4930 H   0  0  0  0  0  0  0  0  0  0  0  0
  135.9810   73.1150  221.6800 C   0  0  0  0  0  0  0  0  0  0  0  0
  135.0328   72.6881  221.3214 H   0  0  0  0  0  0  0  0  0  0  0  0
  136.1093   74.1497  221.3294 H   0  0  0  0  0  0  0  0  0  0  0  0
  137.1420   72.2790  221.1250 C   0  0  0  0  0  0  0  0  0  0  0  0
  137.1280   72.3310  220.0263 H   0  0  0  0  0  0  0  0  0  0  0  0
  138.0838   72.6860  221.5217 H   0  0  0  0  0  0  0  0  0  0  0  0
  140.5980   75.0390  221.3320 C   0  0  0  0  0  0  0  0  0  0  0  0
  141.4860   74.7540  220.2820 C   0  0  0  0  0  0  0  0  0  0  0  0
  141.5623   73.7266  219.8964 H   0  0  0  0  0  0  0  0  0  0  0  0
  142.2730   75.7630  219.7230 C   0  0  0  0  0  0  0  0  0  0  0  0
  142.9634   75.5267  218.8999 H   0  0  0  0  0  0  0  0  0  0  0  0
  142.1870   77.0710  220.2050 C   0  0  0  0  0  0  0  0  0  0  0  0
  142.8107   77.8606  219.7607 H   0  0  0  0  0  0  0  0  0  0  0  0
  141.3080   77.3820  221.2540 C   0  0  0  0  0  0  0  0  0  0  0  0
  141.2350   78.7230  221.7710 N   0  0  0  0  0  0  0  0  0  0  0  0
  141.5460   79.8600  220.8910 C   0  0  0  0  0  0  0  0  0  0  0  0
  142.4625   79.6347  220.3259 H   0  0  0  0  0  0  0  0  0  0  0  0
  140.6953   80.0136  220.2108 H   0  0  0  0  0  0  0  0  0  0  0  0
  141.7600   81.1510  221.6960 C   0  0  0  0  0  0  0  0  0  0  0  0
  142.2797   81.8889  221.0671 H   0  0  0  0  0  0  0  0  0  0  0  0
  140.7814   81.5446  222.0080 H   0  0  0  0  0  0  0  0  0  0  0  0
  142.6040   80.8660  222.9440 C   0  0  0  0  0  0  0  0  0  0  0  0
  143.5889   80.4934  222.6261 H   0  0  0  0  0  0  0  0  0  0  0  0
  142.6901   81.8049  223.5106 H   0  0  0  0  0  0  0  0  0  0  0  0
  141.9530   79.8160  223.8720 C   0  0  0  0  0  0  0  0  0  0  0  0
  142.7407   79.1450  224.2451 H   0  0  0  0  0  0  0  0  0  0  0  0
  141.4547   80.3662  224.6838 H   0  0  0  0  0  0  0  0  0  0  0  0
  140.8780   78.9650  223.1760 C   0  0  0  0  0  0  0  0  0  0  0  0
  140.7882   78.0003  223.6969 H   0  0  0  0  0  0  0  0  0  0  0  0
  139.9217   79.5076  223.2091 H   0  0  0  0  0  0  0  0  0  0  0  0
  140.5270   76.3610  221.8230 C   0  0  0  0  0  0  0  0  0  0  0  0
  139.8529   76.5946  222.6603 H   0  0  0  0  0  0  0  0  0  0  0  0
  1  2  1  0
  2  3  2  0
  3  4  1  0
  3  5  1  0
  5  6  2  0
  6  7  1  0
  7  8  2  0
  8  9  1  0
  8 10  1  0
 10 11  1  0
 10 12  2  0
 12 13  1  0
 12 14  1  0
 14 15  1  0
 14 16  2  0
 16 17  1  0
 17 18  2  0
 17 19  1  0
 19 20  1  0
 20 21  1  0
 20 22  1  0
 20 23  1  0
 23 24  1  0
 23 25  1  0
 25 26  1  0
 25 27  1  0
 25 28  1  0
 28 29  1  0
 28 30  1  0
 28 31  1  0
 31 32  1  0
 31 33  1  0
 31 34  1  0
 34 35  1  0
 34 36  1  0
 34 37  1  0
 37 38  1  0
 37 39  1  0
  2 40  1  0
 40 41  2  0
 41 42  1  0
 41 43  1  0
 43 44  1  0
 43 45  2  0
 45 46  1  0
 45 47  1  0
 47 48  1  0
 48 49  1  0
 49 50  1  0
 49 51  1  0
 49 52  1  0
 52 53  1  0
 52 54  1  0
 52 55  1  0
 55 56  1  0
 55 57  1  0
 55 58  1  0
 58 59  1  0
 58 60  1  0
 58 61  1  0
 61 62  1  0
 61 63  1  0
 47 64  2  0
 64 65  1  0
 19  5  1  0
 37 23  1  0
 64 40  1  0
 16  7  1  0
 61 48  1  0
M  CHG  1  31   1
M  END
>  <UniqueID>  (26) 
419

>  <SMILES>  (26) 
O=c1c2cc(Cl)ccc2nc(/C=C/c2cccc(N3CCCCC3)c2)n1CC1CC[NH2+]CC1

>  <Energy>  (26) 
88.43498537460377

>  <Genealogy>  (26) 
O=c1c2cc(Cl)ccc2nc(/C=C/c2cccc(N3CCCCC3)c2)n1CC1CC[NH2+]CC1 (protonated)
O=c1c2cc(Cl)ccc2nc(/C=C/c2cccc(N3CCCCC3)c2)n1CC1CC[NH2+]CC1 (cis-trans isomerization)
O=c1c2cc(Cl)ccc2nc(/C=C/c2cccc(N3CCCCC3)c2)n1CC1CC[NH2+]CC1 (3D coordinates assigned)
O=c1c2cc(Cl)ccc2nc(/C=C/c2cccc(N3CCCCC3)c2)n1CC1CC[NH2+]CC1 (nonaromatic ring conformer: 88.43498537460377 kcal/mol)

>  <smiles>  (26) 
O=c1c2cc(Cl)ccc2nc(/C=C/c2cccc(N3CCCCC3)c2)n1CC1CCNCC1

>  <score_type>  (26) 
oracle

>  <origin>  (26) 
autodockgpu

>  <m_score__min__energy>  (26) 
-9.5

>  <m_primary>  (26) 
energy

>  <meeko>  (26) 
{"free_energy": -8.67, "intermolecular_energy": -10.46, "internal_energy": -1.45, "cluster_size": 7, "cluster_id": 6, "rank_in_cluster": 6}

>  <energy>  (26) 
-8.35

>  <cluster_rmsd>  (26) 
0.96

>  <rmsd>  (26) 
269.31

>  <cluster>  (26) 
4

$$$$
KTDBAWTUPMOUSA-RJHOSBTDNA-O
     RDKit          3D

 65 69  0  0  0  0  0  0  0  0999 V2000
  141.7666   73.7236  221.3849 H   0  0  0  0  0  0  0  0  0  0  0  0
  140.6950   73.8480  221.6000 C   0  0  0  0  0  0  0  0  0  0  0  0
  139.9090   72.7610  221.5280 C   0  0  0  0  0  0  0  0  0  0  0  0
  139.3395   72.5766  220.6051 H   0  0  0  0  0  0  0  0  0  0  0  0
  139.7830   71.7960  222.6580 C   0  0  0  0  0  0  0  0  0  0  0  0
  140.5890   71.9840  223.7370 N   0  0  0  0  0  0  0  0  0  0  0  0
  140.5310   71.1950  224.8320 C   0  0  0  0  0  0  0  0  0  0  0  0
  141.3830   71.4370  225.9150 C   0  0  0  0  0  0  0  0  0  0  0  0
  142.1039   72.2667  225.8722 H   0  0  0  0  0  0  0  0  0  0  0  0
  141.3190   70.6250  227.0520 C   0  0  0  0  0  0  0  0  0  0  0  0
  141.9896   70.8164  227.9026 H   0  0  0  0  0  0  0  0  0  0  0  0
  140.4030   69.5700  227.1080 C   0  0  0  0  0  0  0  0  0  0  0  0
  140.3260   68.5540  228.5360 Cl  0  0  0  0  0  0  0  0  0  0  0  0
  139.5510   69.3230  226.0250 C   0  0  0  0  0  0  0  0  0  0  0  0
  138.8335   68.4904  226.0696 H   0  0  0  0  0  0  0  0  0  0  0  0
  139.6110   70.1390  224.8780 C   0  0  0  0  0  0  0  0  0  0  0  0
  138.7780   69.9350  223.7670 C   0  0  0  0  0  0  0  0  0  0  0  0
  137.9490   68.9810  223.7860 O   0  0  0  0  0  0  0  0  0  0  0  0
  138.8620   70.7590  222.6650 N   0  0  0  0  0  0  0  0  0  0  0  0
  137.9680   70.4810  221.5120 C   0  0  0  0  0  0  0  0  0  0  0  0
  138.4860   70.7695  220.5855 H   0  0  0  0  0  0  0  0  0  0  0  0
  137.7304   69.4070  221.5224 H   0  0  0  0  0  0  0  0  0  0  0  0
  136.6310   71.2630  221.6000 C   0  0  0  0  0  0  0  0  0  0  0  0
  135.9675   70.8570  220.8223 H   0  0  0  0  0  0  0  0  0  0  0  0
  135.8750   71.0480  222.9370 C   0  0  0  0  0  0  0  0  0  0  0  0
  134.7925   71.0538  222.7414 H   0  0  0  0  0  0  0  0  0  0  0  0
  136.1887   70.0830  223.3618 H   0  0  0  0  0  0  0  0  0  0  0  0
  136.2060   72.1530  223.9490 C   0  0  0  0  0  0  0  0  0  0  0  0
  135.6718   71.9446  224.8878 H   0  0  0  0  0  0  0  0  0  0  0  0
  137.2957   72.1565  224.0994 H   0  0  0  0  0  0  0  0  0  0  0  0
  135.8110   73.4950  223.4640 N   0  0  0  0  0  0  0  0  0  0  0  0
  134.8520   73.7170  223.8210 H   0  0  0  0  0  0  0  0  0  0  0  0
  136.4670   74.2010  223.8730 H   0  0  0  0  0  0  0  0  0  0  0  0
  135.8090   73.6410  221.9910 C   0  0  0  0  0  0  0  0  0  0  0  0
  134.8218   73.3455  221.6060 H   0  0  0  0  0  0  0  0  0  0  0  0
  136.0302   74.6919  221.7531 H   0  0  0  0  0  0  0  0  0  0  0  0
  136.8820   72.7680  221.3260 C   0  0  0  0  0  0  0  0  0  0  0  0
  136.8640   72.9426  220.2401 H   0  0  0  0  0  0  0  0  0  0  0  0
  137.8613   73.0395  221.7470 H   0  0  0  0  0  0  0  0  0  0  0  0
  140.2090   75.2090  221.9520 C   0  0  0  0  0  0  0  0  0  0  0  0
  138.8270   75.3990  222.1220 C   0  0  0  0  0  0  0  0  0  0  0  0
  138.1424   74.5445  222.0161 H   0  0  0  0  0  0  0  0  0  0  0  0
  138.3150   76.6620  222.4240 C   0  0  0  0  0  0  0  0  0  0  0  0
  137.2312   76.7971  222.5546 H   0  0  0  0  0  0  0  0  0  0  0  0
  139.1740   77.7550  222.5610 C   0  0  0  0  0  0  0  0  0  0  0  0
  138.7640   78.7474  222.8000 H   0  0  0  0  0  0  0  0  0  0  0  0
  140.5580   77.5920  222.3950 C   0  0  0  0  0  0  0  0  0  0  0  0
  141.4440   78.7210  222.5090 N   0  0  0  0  0  0  0  0  0  0  0  0
  141.9690   79.1050  223.8290 C   0  0  0  0  0  0  0  0  0  0  0  0
  141.1461   79.0917  224.5589 H   0  0  0  0  0  0  0  0  0  0  0  0
  142.7535   78.3874  224.1111 H   0  0  0  0  0  0  0  0  0  0  0  0
  142.5880   80.5100  223.8000 C   0  0  0  0  0  0  0  0  0  0  0  0
  142.6867   80.8843  224.8296 H   0  0  0  0  0  0  0  0  0  0  0  0
  143.5774   80.4552  223.3224 H   0  0  0  0  0  0  0  0  0  0  0  0
  141.6990   81.4670  222.9970 C   0  0  0  0  0  0  0  0  0  0  0  0
  140.7182   81.5350  223.4904 H   0  0  0  0  0  0  0  0  0  0  0  0
  142.2040   82.4437  222.9640 H   0  0  0  0  0  0  0  0  0  0  0  0
  141.4890   80.9980  221.5400 C   0  0  0  0  0  0  0  0  0  0  0  0
  140.4380   81.1723  221.2661 H   0  0  0  0  0  0  0  0  0  0  0  0
  142.1847   81.5732  220.9114 H   0  0  0  0  0  0  0  0  0  0  0  0
  141.8080   79.5100  221.3230 C   0  0  0  0  0  0  0  0  0  0  0  0
  141.2396   79.1417  220.4562 H   0  0  0  0  0  0  0  0  0  0  0  0
  142.8882   79.4027  221.1453 H   0  0  0  0  0  0  0  0  0  0  0  0
  141.0690   76.3220  222.0780 C   0  0  0  0  0  0  0  0  0  0  0  0
  142.1509   76.1934  221.9263 H   0  0  0  0  0  0  0  0  0  0  0  0
  1  2  1  0
  2  3  2  0
  3  4  1  0
  3  5  1  0
  5  6  2  0
  6  7  1  0
  7  8  2  0
  8  9  1  0
  8 10  1  0
 10 11  1  0
 10 12  2  0
 12 13  1  0
 12 14  1  0
 14 15  1  0
 14 16  2  0
 16 17  1  0
 17 18  2  0
 17 19  1  0
 19 20  1  0
 20 21  1  0
 20 22  1  0
 20 23  1  0
 23 24  1  0
 23 25  1  0
 25 26  1  0
 25 27  1  0
 25 28  1  0
 28 29  1  0
 28 30  1  0
 28 31  1  0
 31 32  1  0
 31 33  1  0
 31 34  1  0
 34 35  1  0
 34 36  1  0
 34 37  1  0
 37 38  1  0
 37 39  1  0
  2 40  1  0
 40 41  2  0
 41 42  1  0
 41 43  1  0
 43 44  1  0
 43 45  2  0
 45 46  1  0
 45 47  1  0
 47 48  1  0
 48 49  1  0
 49 50  1  0
 49 51  1  0
 49 52  1  0
 52 53  1  0
 52 54  1  0
 52 55  1  0
 55 56  1  0
 55 57  1  0
 55 58  1  0
 58 59  1  0
 58 60  1  0
 58 61  1  0
 61 62  1  0
 61 63  1  0
 47 64  2  0
 64 65  1  0
 19  5  1  0
 37 23  1  0
 64 40  1  0
 16  7  1  0
 61 48  1  0
M  CHG  1  31   1
M  END
>  <UniqueID>  (27) 
419

>  <SMILES>  (27) 
O=c1c2cc(Cl)ccc2nc(/C=C/c2cccc(N3CCCCC3)c2)n1CC1CC[NH2+]CC1

>  <Energy>  (27) 
88.43498537460377

>  <Genealogy>  (27) 
O=c1c2cc(Cl)ccc2nc(/C=C/c2cccc(N3CCCCC3)c2)n1CC1CC[NH2+]CC1 (protonated)
O=c1c2cc(Cl)ccc2nc(/C=C/c2cccc(N3CCCCC3)c2)n1CC1CC[NH2+]CC1 (cis-trans isomerization)
O=c1c2cc(Cl)ccc2nc(/C=C/c2cccc(N3CCCCC3)c2)n1CC1CC[NH2+]CC1 (3D coordinates assigned)
O=c1c2cc(Cl)ccc2nc(/C=C/c2cccc(N3CCCCC3)c2)n1CC1CC[NH2+]CC1 (nonaromatic ring conformer: 88.43498537460377 kcal/mol)

>  <smiles>  (27) 
O=c1c2cc(Cl)ccc2nc(/C=C/c2cccc(N3CCCCC3)c2)n1CC1CCNCC1

>  <score_type>  (27) 
oracle

>  <origin>  (27) 
autodockgpu

>  <m_score__min__energy>  (27) 
-9.5

>  <m_primary>  (27) 
energy

>  <meeko>  (27) 
{"free_energy": -8.93, "intermolecular_energy": -10.72, "internal_energy": -1.7, "cluster_size": 7, "cluster_id": 6, "rank_in_cluster": 3}

>  <energy>  (27) 
-8.97

>  <cluster_rmsd>  (27) 
0.0

>  <rmsd>  (27) 
270.23

>  <cluster>  (27) 
5

$$$$
KTDBAWTUPMOUSA-RJHOSBTDNA-O
     RDKit          3D

 65 69  0  0  0  0  0  0  0  0999 V2000
  141.6762   73.9152  221.3396 H   0  0  0  0  0  0  0  0  0  0  0  0
  140.6130   74.0580  221.5830 C   0  0  0  0  0  0  0  0  0  0  0  0
  139.8020   72.9900  221.5070 C   0  0  0  0  0  0  0  0  0  0  0  0
  139.2075   72.8383  220.5940 H   0  0  0  0  0  0  0  0  0  0  0  0
  139.6800   72.0030  222.6180 C   0  0  0  0  0  0  0  0  0  0  0  0
  140.5450   72.1230  223.6620 N   0  0  0  0  0  0  0  0  0  0  0  0
  140.5000   71.3110  224.7390 C   0  0  0  0  0  0  0  0  0  0  0  0
  141.4130   71.4830  225.7850 C   0  0  0  0  0  0  0  0  0  0  0  0
  142.1721   72.2770  225.7272 H   0  0  0  0  0  0  0  0  0  0  0  0
  141.3610   70.6460  226.9040 C   0  0  0  0  0  0  0  0  0  0  0  0
  142.0799   70.7824  227.7253 H   0  0  0  0  0  0  0  0  0  0  0  0
  140.3970   69.6360  226.9810 C   0  0  0  0  0  0  0  0  0  0  0  0
  140.3360   68.5890  228.3860 Cl  0  0  0  0  0  0  0  0  0  0  0  0
  139.4830   69.4600  225.9350 C   0  0  0  0  0  0  0  0  0  0  0  0
  138.7265   68.6637  225.9954 H   0  0  0  0  0  0  0  0  0  0  0  0
  139.5300   70.3000  224.8060 C   0  0  0  0  0  0  0  0  0  0  0  0
  138.6360   70.1670  223.7310 C   0  0  0  0  0  0  0  0  0  0  0  0
  137.7620   69.2550  223.7690 O   0  0  0  0  0  0  0  0  0  0  0  0
  138.7090   71.0140  222.6460 N   0  0  0  0  0  0  0  0  0  0  0  0
  137.7490   70.8100  221.5320 C   0  0  0  0  0  0  0  0  0  0  0  0
  138.2185   71.1441  220.5950 H   0  0  0  0  0  0  0  0  0  0  0  0
  137.4977   69.7397  221.4967 H   0  0  0  0  0  0  0  0  0  0  0  0
  136.4300   71.6000  221.7380 C   0  0  0  0  0  0  0  0  0  0  0  0
  135.7795   71.3705  220.8812 H   0  0  0  0  0  0  0  0  0  0  0  0
  135.6310   71.1550  222.9910 C   0  0  0  0  0  0  0  0  0  0  0  0
  134.5550   71.2307  222.7752 H   0  0  0  0  0  0  0  0  0  0  0  0
  135.9086   70.1176  223.2290 H   0  0  0  0  0  0  0  0  0  0  0  0
  135.9600   72.0340  224.2040 C   0  0  0  0  0  0  0  0  0  0  0  0
  135.3943   71.6653  225.0723 H   0  0  0  0  0  0  0  0  0  0  0  0
  137.0446   71.9761  224.3782 H   0  0  0  0  0  0  0  0  0  0  0  0
  135.6120   73.4550  223.9770 N   0  0  0  0  0  0  0  0  0  0  0  0
  134.6490   73.6330  224.3490 H   0  0  0  0  0  0  0  0  0  0  0  0
  136.2740   74.0500  224.5300 H   0  0  0  0  0  0  0  0  0  0  0  0
  135.6550   73.8820  222.5610 C   0  0  0  0  0  0  0  0  0  0  0  0
  134.6721   73.6958  222.1035 H   0  0  0  0  0  0  0  0  0  0  0  0
  135.9083   74.9521  222.5355 H   0  0  0  0  0  0  0  0  0  0  0  0
  136.7250   73.1210  221.7650 C   0  0  0  0  0  0  0  0  0  0  0  0
  136.7420   73.5012  220.7329 H   0  0  0  0  0  0  0  0  0  0  0  0
  137.6982   73.2776  222.2531 H   0  0  0  0  0  0  0  0  0  0  0  0
  140.1660   75.4210  221.9750 C   0  0  0  0  0  0  0  0  0  0  0  0
  138.7950   75.6330  222.2010 C   0  0  0  0  0  0  0  0  0  0  0  0
  138.0912   74.7928  222.1074 H   0  0  0  0  0  0  0  0  0  0  0  0
  138.3180   76.8990  222.5430 C   0  0  0  0  0  0  0  0  0  0  0  0
  137.2425   77.0508  222.7171 H   0  0  0  0  0  0  0  0  0  0  0  0
  139.2010   77.9740  222.6650 C   0  0  0  0  0  0  0  0  0  0  0  0
  138.8184   78.9695  222.9345 H   0  0  0  0  0  0  0  0  0  0  0  0
  140.5750   77.7890  222.4450 C   0  0  0  0  0  0  0  0  0  0  0  0
  141.4850   78.9000  222.5440 N   0  0  0  0  0  0  0  0  0  0  0  0
  142.1080   79.2180  223.8380 C   0  0  0  0  0  0  0  0  0  0  0  0
  141.3386   79.1834  224.6234 H   0  0  0  0  0  0  0  0  0  0  0  0
  142.8985   78.4781  224.0320 H   0  0  0  0  0  0  0  0  0  0  0  0
  142.7470   80.6150  223.8260 C   0  0  0  0  0  0  0  0  0  0  0  0
  142.9246   80.9418  224.8612 H   0  0  0  0  0  0  0  0  0  0  0  0
  143.6992   80.5685  223.2772 H   0  0  0  0  0  0  0  0  0  0  0  0
  141.8190   81.6180  223.1310 C   0  0  0  0  0  0  0  0  0  0  0  0
  140.8768   81.6765  223.6956 H   0  0  0  0  0  0  0  0  0  0  0  0
  142.3359   82.5886  223.1047 H   0  0  0  0  0  0  0  0  0  0  0  0
  141.4990   81.2170  221.6730 C   0  0  0  0  0  0  0  0  0  0  0  0
  140.4344   81.4177  221.4823 H   0  0  0  0  0  0  0  0  0  0  0  0
  142.1582   81.8100  221.0220 H   0  0  0  0  0  0  0  0  0  0  0  0
  141.7770   79.7360  221.3700 C   0  0  0  0  0  0  0  0  0  0  0  0
  141.1425   79.4141  220.5310 H   0  0  0  0  0  0  0  0  0  0  0  0
  142.8400   79.6222  221.1112 H   0  0  0  0  0  0  0  0  0  0  0  0
  141.0500   76.5160  222.0870 C   0  0  0  0  0  0  0  0  0  0  0  0
  142.1228   76.3710  221.8918 H   0  0  0  0  0  0  0  0  0  0  0  0
  1  2  1  0
  2  3  2  0
  3  4  1  0
  3  5  1  0
  5  6  2  0
  6  7  1  0
  7  8  2  0
  8  9  1  0
  8 10  1  0
 10 11  1  0
 10 12  2  0
 12 13  1  0
 12 14  1  0
 14 15  1  0
 14 16  2  0
 16 17  1  0
 17 18  2  0
 17 19  1  0
 19 20  1  0
 20 21  1  0
 20 22  1  0
 20 23  1  0
 23 24  1  0
 23 25  1  0
 25 26  1  0
 25 27  1  0
 25 28  1  0
 28 29  1  0
 28 30  1  0
 28 31  1  0
 31 32  1  0
 31 33  1  0
 31 34  1  0
 34 35  1  0
 34 36  1  0
 34 37  1  0
 37 38  1  0
 37 39  1  0
  2 40  1  0
 40 41  2  0
 41 42  1  0
 41 43  1  0
 43 44  1  0
 43 45  2  0
 45 46  1  0
 45 47  1  0
 47 48  1  0
 48 49  1  0
 49 50  1  0
 49 51  1  0
 49 52  1  0
 52 53  1  0
 52 54  1  0
 52 55  1  0
 55 56  1  0
 55 57  1  0
 55 58  1  0
 58 59  1  0
 58 60  1  0
 58 61  1  0
 61 62  1  0
 61 63  1  0
 47 64  2  0
 64 65  1  0
 19  5  1  0
 37 23  1  0
 64 40  1  0
 16  7  1  0
 61 48  1  0
M  CHG  1  31   1
M  END
>  <UniqueID>  (28) 
419

>  <SMILES>  (28) 
O=c1c2cc(Cl)ccc2nc(/C=C/c2cccc(N3CCCCC3)c2)n1CC1CC[NH2+]CC1

>  <Energy>  (28) 
88.43498537460377

>  <Genealogy>  (28) 
O=c1c2cc(Cl)ccc2nc(/C=C/c2cccc(N3CCCCC3)c2)n1CC1CC[NH2+]CC1 (protonated)
O=c1c2cc(Cl)ccc2nc(/C=C/c2cccc(N3CCCCC3)c2)n1CC1CC[NH2+]CC1 (cis-trans isomerization)
O=c1c2cc(Cl)ccc2nc(/C=C/c2cccc(N3CCCCC3)c2)n1CC1CC[NH2+]CC1 (3D coordinates assigned)
O=c1c2cc(Cl)ccc2nc(/C=C/c2cccc(N3CCCCC3)c2)n1CC1CC[NH2+]CC1 (nonaromatic ring conformer: 88.43498537460377 kcal/mol)

>  <smiles>  (28) 
O=c1c2cc(Cl)ccc2nc(/C=C/c2cccc(N3CCCCC3)c2)n1CC1CCNCC1

>  <score_type>  (28) 
oracle

>  <origin>  (28) 
autodockgpu

>  <m_score__min__energy>  (28) 
-9.5

>  <m_primary>  (28) 
energy

>  <meeko>  (28) 
{"free_energy": -8.97, "intermolecular_energy": -10.76, "internal_energy": -1.67, "cluster_size": 7, "cluster_id": 6, "rank_in_cluster": 1}

>  <energy>  (28) 
-8.97

>  <cluster_rmsd>  (28) 
0.0

>  <rmsd>  (28) 
270.04

>  <cluster>  (28) 
6

$$$$
KTDBAWTUPMOUSA-RJHOSBTDNA-O
     RDKit          3D

 65 69  0  0  0  0  0  0  0  0999 V2000
  141.8133   73.8657  221.4060 H   0  0  0  0  0  0  0  0  0  0  0  0
  140.7320   73.8160  221.6020 C   0  0  0  0  0  0  0  0  0  0  0  0
  140.1270   72.6220  221.4910 C   0  0  0  0  0  0  0  0  0  0  0  0
  139.7339   72.3147  220.5106 H   0  0  0  0  0  0  0  0  0  0  0  0
  139.9700   71.6990  222.6510 C   0  0  0  0  0  0  0  0  0  0  0  0
  140.7250   71.9460  223.7560 N   0  0  0  0  0  0  0  0  0  0  0  0
  140.6350   71.2000  224.8780 C   0  0  0  0  0  0  0  0  0  0  0  0
  141.4330   71.5030  225.9860 C   0  0  0  0  0  0  0  0  0  0  0  0
  142.1383   72.3460  225.9412 H   0  0  0  0  0  0  0  0  0  0  0  0
  141.3350   70.7350  227.1510 C   0  0  0  0  0  0  0  0  0  0  0  0
  141.9633   70.9745  228.0215 H   0  0  0  0  0  0  0  0  0  0  0  0
  140.4390   69.6630  227.2100 C   0  0  0  0  0  0  0  0  0  0  0  0
  140.3190   68.7020  228.6720 Cl  0  0  0  0  0  0  0  0  0  0  0  0
  139.6400   69.3560  226.1020 C   0  0  0  0  0  0  0  0  0  0  0  0
  138.9374   68.5109  226.1492 H   0  0  0  0  0  0  0  0  0  0  0  0
  139.7340   70.1270  224.9270 C   0  0  0  0  0  0  0  0  0  0  0  0
  138.9550   69.8620  223.7900 C   0  0  0  0  0  0  0  0  0  0  0  0
  138.1450   68.8920  223.8120 O   0  0  0  0  0  0  0  0  0  0  0  0
  139.0700   70.6440  222.6600 N   0  0  0  0  0  0  0  0  0  0  0  0
  138.2330   70.3020  221.4830 C   0  0  0  0  0  0  0  0  0  0  0  0
  138.7683   70.6011  220.5698 H   0  0  0  0  0  0  0  0  0  0  0  0
  138.0494   69.2177  221.5053 H   0  0  0  0  0  0  0  0  0  0  0  0
  136.8560   71.0160  221.5100 C   0  0  0  0  0  0  0  0  0  0  0  0
  136.2180   70.5150  220.7670 H   0  0  0  0  0  0  0  0  0  0  0  0
  136.1080   70.8670  222.8600 C   0  0  0  0  0  0  0  0  0  0  0  0
  135.0274   70.8004  222.6654 H   0  0  0  0  0  0  0  0  0  0  0  0
  136.4706   69.9562  223.3590 H   0  0  0  0  0  0  0  0  0  0  0  0
  136.3770   72.0640  223.7820 C   0  0  0  0  0  0  0  0  0  0  0  0
  135.8522   71.9019  224.7350 H   0  0  0  0  0  0  0  0  0  0  0  0
  137.4644   72.1376  223.9308 H   0  0  0  0  0  0  0  0  0  0  0  0
  135.9120   73.3400  223.1930 N   0  0  0  0  0  0  0  0  0  0  0  0
  134.9410   73.5380  223.5330 H   0  0  0  0  0  0  0  0  0  0  0  0
  136.5280   74.1100  223.5440 H   0  0  0  0  0  0  0  0  0  0  0  0
  135.9070   73.3700  221.7130 C   0  0  0  0  0  0  0  0  0  0  0  0
  134.9382   72.9932  221.3532 H   0  0  0  0  0  0  0  0  0  0  0  0
  136.0726   74.4094  221.3931 H   0  0  0  0  0  0  0  0  0  0  0  0
  137.0270   72.5060  221.1180 C   0  0  0  0  0  0  0  0  0  0  0  0
  137.0032   72.5933  220.0217 H   0  0  0  0  0  0  0  0  0  0  0  0
  137.9890   72.8619  221.5154 H   0  0  0  0  0  0  0  0  0  0  0  0
  140.0330   75.0750  221.9730 C   0  0  0  0  0  0  0  0  0  0  0  0
  138.6560   75.0170  222.2480 C   0  0  0  0  0  0  0  0  0  0  0  0
  138.1326   74.0504  222.2067 H   0  0  0  0  0  0  0  0  0  0  0  0
  137.9460   76.1740  222.5730 C   0  0  0  0  0  0  0  0  0  0  0  0
  136.8684   76.1141  222.7858 H   0  0  0  0  0  0  0  0  0  0  0  0
  138.5990   77.4080  222.6290 C   0  0  0  0  0  0  0  0  0  0  0  0
  138.0336   78.3158  222.8864 H   0  0  0  0  0  0  0  0  0  0  0  0
  139.9740   77.4940  222.3580 C   0  0  0  0  0  0  0  0  0  0  0  0
  140.6450   78.7660  222.3890 N   0  0  0  0  0  0  0  0  0  0  0  0
  141.2650   79.2920  221.1630 C   0  0  0  0  0  0  0  0  0  0  0  0
  141.8327   78.4860  220.6750 H   0  0  0  0  0  0  0  0  0  0  0  0
  140.4666   79.6624  220.5032 H   0  0  0  0  0  0  0  0  0  0  0  0
  142.2170   80.4580  221.4710 C   0  0  0  0  0  0  0  0  0  0  0  0
  142.8801   80.6227  220.6089 H   0  0  0  0  0  0  0  0  0  0  0  0
  141.6232   81.3629  221.6674 H   0  0  0  0  0  0  0  0  0  0  0  0
  143.0650   80.1390  222.7080 C   0  0  0  0  0  0  0  0  0  0  0  0
  143.6715   79.2454  222.4991 H   0  0  0  0  0  0  0  0  0  0  0  0
  143.6956   81.0159  222.9164 H   0  0  0  0  0  0  0  0  0  0  0  0
  142.2030   79.8710  223.9630 C   0  0  0  0  0  0  0  0  0  0  0  0
  142.6422   79.0257  224.5131 H   0  0  0  0  0  0  0  0  0  0  0  0
  142.1982   80.7974  224.5561 H   0  0  0  0  0  0  0  0  0  0  0  0
  140.7380   79.5330  223.6400 C   0  0  0  0  0  0  0  0  0  0  0  0
  140.3156   78.9361  224.4617 H   0  0  0  0  0  0  0  0  0  0  0  0
  140.1764   80.4714  223.5219 H   0  0  0  0  0  0  0  0  0  0  0  0
  140.6820   76.3290  222.0180 C   0  0  0  0  0  0  0  0  0  0  0  0
  141.7548   76.3941  221.7840 H   0  0  0  0  0  0  0  0  0  0  0  0
  1  2  1  0
  2  3  2  0
  3  4  1  0
  3  5  1  0
  5  6  2  0
  6  7  1  0
  7  8  2  0
  8  9  1  0
  8 10  1  0
 10 11  1  0
 10 12  2  0
 12 13  1  0
 12 14  1  0
 14 15  1  0
 14 16  2  0
 16 17  1  0
 17 18  2  0
 17 19  1  0
 19 20  1  0
 20 21  1  0
 20 22  1  0
 20 23  1  0
 23 24  1  0
 23 25  1  0
 25 26  1  0
 25 27  1  0
 25 28  1  0
 28 29  1  0
 28 30  1  0
 28 31  1  0
 31 32  1  0
 31 33  1  0
 31 34  1  0
 34 35  1  0
 34 36  1  0
 34 37  1  0
 37 38  1  0
 37 39  1  0
  2 40  1  0
 40 41  2  0
 41 42  1  0
 41 43  1  0
 43 44  1  0
 43 45  2  0
 45 46  1  0
 45 47  1  0
 47 48  1  0
 48 49  1  0
 49 50  1  0
 49 51  1  0
 49 52  1  0
 52 53  1  0
 52 54  1  0
 52 55  1  0
 55 56  1  0
 55 57  1  0
 55 58  1  0
 58 59  1  0
 58 60  1  0
 58 61  1  0
 61 62  1  0
 61 63  1  0
 47 64  2  0
 64 65  1  0
 19  5  1  0
 37 23  1  0
 64 40  1  0
 16  7  1  0
 61 48  1  0
M  CHG  1  31   1
M  END
>  <UniqueID>  (29) 
419

>  <SMILES>  (29) 
O=c1c2cc(Cl)ccc2nc(/C=C/c2cccc(N3CCCCC3)c2)n1CC1CC[NH2+]CC1

>  <Energy>  (29) 
88.43498537460377

>  <Genealogy>  (29) 
O=c1c2cc(Cl)ccc2nc(/C=C/c2cccc(N3CCCCC3)c2)n1CC1CC[NH2+]CC1 (protonated)
O=c1c2cc(Cl)ccc2nc(/C=C/c2cccc(N3CCCCC3)c2)n1CC1CC[NH2+]CC1 (cis-trans isomerization)
O=c1c2cc(Cl)ccc2nc(/C=C/c2cccc(N3CCCCC3)c2)n1CC1CC[NH2+]CC1 (3D coordinates assigned)
O=c1c2cc(Cl)ccc2nc(/C=C/c2cccc(N3CCCCC3)c2)n1CC1CC[NH2+]CC1 (nonaromatic ring conformer: 88.43498537460377 kcal/mol)

>  <smiles>  (29) 
O=c1c2cc(Cl)ccc2nc(/C=C/c2cccc(N3CCCCC3)c2)n1CC1CCNCC1

>  <score_type>  (29) 
oracle

>  <origin>  (29) 
autodockgpu

>  <m_score__min__energy>  (29) 
-9.5

>  <m_primary>  (29) 
energy

>  <meeko>  (29) 
{"free_energy": -8.52, "intermolecular_energy": -10.31, "internal_energy": -1.78, "cluster_size": 7, "cluster_id": 6, "rank_in_cluster": 7}

>  <energy>  (29) 
-8.95

>  <cluster_rmsd>  (29) 
0.15

>  <rmsd>  (29) 
270.06

>  <cluster>  (29) 
6

$$$$
KTDBAWTUPMOUSA-RJHOSBTDNA-O
     RDKit          3D

 65 69  0  0  0  0  0  0  0  0999 V2000
  139.2486   76.9048  223.5907 H   0  0  0  0  0  0  0  0  0  0  0  0
  139.8040   77.2790  222.7180 C   0  0  0  0  0  0  0  0  0  0  0  0
  139.7970   76.5330  221.6010 C   0  0  0  0  0  0  0  0  0  0  0  0
  138.8612   76.4398  221.0304 H   0  0  0  0  0  0  0  0  0  0  0  0
  141.0140   75.8270  221.1080 C   0  0  0  0  0  0  0  0  0  0  0  0
  141.0780   74.4810  221.2940 N   0  0  0  0  0  0  0  0  0  0  0  0
  142.1140   73.7360  220.8520 C   0  0  0  0  0  0  0  0  0  0  0  0
  142.1240   72.3530  221.0690 C   0  0  0  0  0  0  0  0  0  0  0  0
  141.2905   71.8743  221.6040 H   0  0  0  0  0  0  0  0  0  0  0  0
  143.1930   71.5800  220.6060 C   0  0  0  0  0  0  0  0  0  0  0  0
  143.2000   70.4934  220.7773 H   0  0  0  0  0  0  0  0  0  0  0  0
  144.2540   72.1870  219.9250 C   0  0  0  0  0  0  0  0  0  0  0  0
  145.5920   71.2130  219.3460 Cl  0  0  0  0  0  0  0  0  0  0  0  0
  144.2470   73.5700  219.7090 C   0  0  0  0  0  0  0  0  0  0  0  0
  145.0831   74.0461  219.1760 H   0  0  0  0  0  0  0  0  0  0  0  0
  143.1730   74.3530  220.1720 C   0  0  0  0  0  0  0  0  0  0  0  0
  143.1170   75.7430  219.9790 C   0  0  0  0  0  0  0  0  0  0  0  0
  144.0680   76.3180  219.3770 O   0  0  0  0  0  0  0  0  0  0  0  0
  142.0440   76.4750  220.4420 N   0  0  0  0  0  0  0  0  0  0  0  0
  142.0520   77.9430  220.2250 C   0  0  0  0  0  0  0  0  0  0  0  0
  141.5430   78.4280  221.0710 H   0  0  0  0  0  0  0  0  0  0  0  0
  143.1009   78.2651  220.1476 H   0  0  0  0  0  0  0  0  0  0  0  0
  141.3340   78.3500  218.9120 C   0  0  0  0  0  0  0  0  0  0  0  0
  140.3380   77.8835  218.9316 H   0  0  0  0  0  0  0  0  0  0  0  0
  141.0710   79.8740  218.7970 C   0  0  0  0  0  0  0  0  0  0  0  0
  140.1148   80.0344  218.2775 H   0  0  0  0  0  0  0  0  0  0  0  0
  141.0387   80.2983  219.8113 H   0  0  0  0  0  0  0  0  0  0  0  0
  142.1890   80.5750  218.0140 C   0  0  0  0  0  0  0  0  0  0  0  0
  141.9766   81.6538  217.9828 H   0  0  0  0  0  0  0  0  0  0  0  0
  143.1402   80.3684  218.5263 H   0  0  0  0  0  0  0  0  0  0  0  0
  142.3020   80.0710  216.6260 N   0  0  0  0  0  0  0  0  0  0  0  0
  141.7350   80.6840  215.9940 H   0  0  0  0  0  0  0  0  0  0  0  0
  143.3020   80.1540  216.3250 H   0  0  0  0  0  0  0  0  0  0  0  0
  141.8630   78.6700  216.4420 C   0  0  0  0  0  0  0  0  0  0  0  0
  140.7845   78.6613  216.2259 H   0  0  0  0  0  0  0  0  0  0  0  0
  142.4391   78.2400  215.6095 H   0  0  0  0  0  0  0  0  0  0  0  0
  142.1250   77.8170  217.6900 C   0  0  0  0  0  0  0  0  0  0  0  0
  141.8161   76.7809  217.4873 H   0  0  0  0  0  0  0  0  0  0  0  0
  143.1988   77.8640  217.9238 H   0  0  0  0  0  0  0  0  0  0  0  0
  140.5150   78.5790  222.8500 C   0  0  0  0  0  0  0  0  0  0  0  0
  141.6920   78.6200  223.6170 C   0  0  0  0  0  0  0  0  0  0  0  0
  142.0728   77.6977  224.0799 H   0  0  0  0  0  0  0  0  0  0  0  0
  142.3820   79.8190  223.7970 C   0  0  0  0  0  0  0  0  0  0  0  0
  143.3024   79.8366  224.3991 H   0  0  0  0  0  0  0  0  0  0  0  0
  141.9080   80.9980  223.2150 C   0  0  0  0  0  0  0  0  0  0  0  0
  142.4565   81.9403  223.3611 H   0  0  0  0  0  0  0  0  0  0  0  0
  140.7350   80.9840  222.4450 C   0  0  0  0  0  0  0  0  0  0  0  0
  140.2290   82.2010  221.8660 N   0  0  0  0  0  0  0  0  0  0  0  0
  138.7850   82.4770  221.8980 C   0  0  0  0  0  0  0  0  0  0  0  0
  138.2405   81.5674  221.6044 H   0  0  0  0  0  0  0  0  0  0  0  0
  138.5142   82.7825  222.9194 H   0  0  0  0  0  0  0  0  0  0  0  0
  138.4090   83.6160  220.9380 C   0  0  0  0  0  0  0  0  0  0  0  0
  137.3248   83.5925  220.7539 H   0  0  0  0  0  0  0  0  0  0  0  0
  138.6930   84.5763  221.3932 H   0  0  0  0  0  0  0  0  0  0  0  0
  139.1520   83.4560  219.6060 C   0  0  0  0  0  0  0  0  0  0  0  0
  138.8477   82.5050  219.1446 H   0  0  0  0  0  0  0  0  0  0  0  0
  138.8897   84.3160  218.9722 H   0  0  0  0  0  0  0  0  0  0  0  0
  140.6870   83.4530  219.7800 C   0  0  0  0  0  0  0  0  0  0  0  0
  141.1112   82.6851  219.1164 H   0  0  0  0  0  0  0  0  0  0  0  0
  141.0432   84.4632  219.5298 H   0  0  0  0  0  0  0  0  0  0  0  0
  141.1400   83.1570  221.2190 C   0  0  0  0  0  0  0  0  0  0  0  0
  142.1540   82.7313  221.1977 H   0  0  0  0  0  0  0  0  0  0  0  0
  141.1314   84.0959  221.7920 H   0  0  0  0  0  0  0  0  0  0  0  0
  140.0360   79.7770  222.2770 C   0  0  0  0  0  0  0  0  0  0  0  0
  139.1045   79.7653  221.6921 H   0  0  0  0  0  0  0  0  0  0  0  0
  1  2  1  0
  2  3  2  0
  3  4  1  0
  3  5  1  0
  5  6  2  0
  6  7  1  0
  7  8  2  0
  8  9  1  0
  8 10  1  0
 10 11  1  0
 10 12  2  0
 12 13  1  0
 12 14  1  0
 14 15  1  0
 14 16  2  0
 16 17  1  0
 17 18  2  0
 17 19  1  0
 19 20  1  0
 20 21  1  0
 20 22  1  0
 20 23  1  0
 23 24  1  0
 23 25  1  0
 25 26  1  0
 25 27  1  0
 25 28  1  0
 28 29  1  0
 28 30  1  0
 28 31  1  0
 31 32  1  0
 31 33  1  0
 31 34  1  0
 34 35  1  0
 34 36  1  0
 34 37  1  0
 37 38  1  0
 37 39  1  0
  2 40  1  0
 40 41  2  0
 41 42  1  0
 41 43  1  0
 43 44  1  0
 43 45  2  0
 45 46  1  0
 45 47  1  0
 47 48  1  0
 48 49  1  0
 49 50  1  0
 49 51  1  0
 49 52  1  0
 52 53  1  0
 52 54  1  0
 52 55  1  0
 55 56  1  0
 55 57  1  0
 55 58  1  0
 58 59  1  0
 58 60  1  0
 58 61  1  0
 61 62  1  0
 61 63  1  0
 47 64  2  0
 64 65  1  0
 19  5  1  0
 37 23  1  0
 64 40  1  0
 16  7  1  0
 61 48  1  0
M  CHG  1  31   1
M  END
>  <UniqueID>  (30) 
419

>  <SMILES>  (30) 
O=c1c2cc(Cl)ccc2nc(/C=C/c2cccc(N3CCCCC3)c2)n1CC1CC[NH2+]CC1

>  <Energy>  (30) 
88.43498537460377

>  <Genealogy>  (30) 
O=c1c2cc(Cl)ccc2nc(/C=C/c2cccc(N3CCCCC3)c2)n1CC1CC[NH2+]CC1 (protonated)
O=c1c2cc(Cl)ccc2nc(/C=C/c2cccc(N3CCCCC3)c2)n1CC1CC[NH2+]CC1 (cis-trans isomerization)
O=c1c2cc(Cl)ccc2nc(/C=C/c2cccc(N3CCCCC3)c2)n1CC1CC[NH2+]CC1 (3D coordinates assigned)
O=c1c2cc(Cl)ccc2nc(/C=C/c2cccc(N3CCCCC3)c2)n1CC1CC[NH2+]CC1 (nonaromatic ring conformer: 88.43498537460377 kcal/mol)

>  <smiles>  (30) 
O=c1c2cc(Cl)ccc2nc(/C=C/c2cccc(N3CCCCC3)c2)n1CC1CCNCC1

>  <score_type>  (30) 
oracle

>  <origin>  (30) 
autodockgpu

>  <m_score__min__energy>  (30) 
-9.5

>  <m_primary>  (30) 
energy

>  <meeko>  (30) 
{"free_energy": -8.49, "intermolecular_energy": -10.28, "internal_energy": -2.14, "cluster_size": 2, "cluster_id": 8, "rank_in_cluster": 1}

>  <energy>  (30) 
-8.93

>  <cluster_rmsd>  (30) 
0.32

>  <rmsd>  (30) 
269.97

>  <cluster>  (30) 
6

$$$$
KTDBAWTUPMOUSA-RJHOSBTDNA-O
     RDKit          3D

 65 69  0  0  0  0  0  0  0  0999 V2000
  139.3930   76.9676  223.6412 H   0  0  0  0  0  0  0  0  0  0  0  0
  139.9010   77.2620  222.7110 C   0  0  0  0  0  0  0  0  0  0  0  0
  139.8280   76.4250  221.6620 C   0  0  0  0  0  0  0  0  0  0  0  0
  138.8516   76.2544  221.1851 H   0  0  0  0  0  0  0  0  0  0  0  0
  141.0260   75.7200  221.1230 C   0  0  0  0  0  0  0  0  0  0  0  0
  141.1260   74.3840  221.3580 N   0  0  0  0  0  0  0  0  0  0  0  0
  142.1470   73.6380  220.8830 C   0  0  0  0  0  0  0  0  0  0  0  0
  142.1970   72.2660  221.1540 C   0  0  0  0  0  0  0  0  0  0  0  0
  141.4077   71.7961  221.7591 H   0  0  0  0  0  0  0  0  0  0  0  0
  143.2500   71.4920  220.6560 C   0  0  0  0  0  0  0  0  0  0  0  0
  143.2874   70.4135  220.8690 H   0  0  0  0  0  0  0  0  0  0  0  0
  144.2550   72.0870  219.8880 C   0  0  0  0  0  0  0  0  0  0  0  0
  145.5740   71.1130  219.2650 Cl  0  0  0  0  0  0  0  0  0  0  0  0
  144.2100   73.4600  219.6170 C   0  0  0  0  0  0  0  0  0  0  0  0
  145.0028   73.9271  219.0143 H   0  0  0  0  0  0  0  0  0  0  0  0
  143.1510   74.2440  220.1150 C   0  0  0  0  0  0  0  0  0  0  0  0
  143.0570   75.6230  219.8710 C   0  0  0  0  0  0  0  0  0  0  0  0
  143.9590   76.1890  219.1890 O   0  0  0  0  0  0  0  0  0  0  0  0
  142.0010   76.3560  220.3700 N   0  0  0  0  0  0  0  0  0  0  0  0
  141.9690   77.8150  220.0950 C   0  0  0  0  0  0  0  0  0  0  0  0
  141.3785   78.3098  220.8802 H   0  0  0  0  0  0  0  0  0  0  0  0
  143.0075   78.1775  220.0837 H   0  0  0  0  0  0  0  0  0  0  0  0
  141.3380   78.1420  218.7160 C   0  0  0  0  0  0  0  0  0  0  0  0
  140.4185   77.5441  218.6314 H   0  0  0  0  0  0  0  0  0  0  0  0
  140.8810   79.6170  218.5790 C   0  0  0  0  0  0  0  0  0  0  0  0
  139.9691   79.6542  217.9649 H   0  0  0  0  0  0  0  0  0  0  0  0
  140.6883   80.0160  219.5858 H   0  0  0  0  0  0  0  0  0  0  0  0
  141.9660   80.4770  217.9160 C   0  0  0  0  0  0  0  0  0  0  0  0
  141.6118   81.5172  217.8662 H   0  0  0  0  0  0  0  0  0  0  0  0
  142.8799   80.3929  218.5224 H   0  0  0  0  0  0  0  0  0  0  0  0
  142.2870   80.0170  216.5460 N   0  0  0  0  0  0  0  0  0  0  0  0
  141.7080   80.5570  215.8610 H   0  0  0  0  0  0  0  0  0  0  0  0
  143.2910   80.2410  216.3500 H   0  0  0  0  0  0  0  0  0  0  0  0
  142.0650   78.5730  216.3140 C   0  0  0  0  0  0  0  0  0  0  0  0
  141.0251   78.4212  215.9891 H   0  0  0  0  0  0  0  0  0  0  0  0
  142.7753   78.2395  215.5431 H   0  0  0  0  0  0  0  0  0  0  0  0
  142.3150   77.7420  217.5810 C   0  0  0  0  0  0  0  0  0  0  0  0
  142.1740   76.6769  217.3450 H   0  0  0  0  0  0  0  0  0  0  0  0
  143.3430   77.9307  217.9239 H   0  0  0  0  0  0  0  0  0  0  0  0
  140.6250   78.5610  222.6940 C   0  0  0  0  0  0  0  0  0  0  0  0
  141.8080   78.6750  223.4430 C   0  0  0  0  0  0  0  0  0  0  0  0
  142.1848   77.8056  224.0018 H   0  0  0  0  0  0  0  0  0  0  0  0
  142.5100   79.8810  223.4850 C   0  0  0  0  0  0  0  0  0  0  0  0
  143.4356   79.9563  224.0746 H   0  0  0  0  0  0  0  0  0  0  0  0
  142.0410   80.9920  222.7810 C   0  0  0  0  0  0  0  0  0  0  0  0
  142.5989   81.9393  222.8187 H   0  0  0  0  0  0  0  0  0  0  0  0
  140.8620   80.9060  222.0260 C   0  0  0  0  0  0  0  0  0  0  0  0
  140.3620   82.0560  221.3200 N   0  0  0  0  0  0  0  0  0  0  0  0
  141.0830   83.3350  221.4090 C   0  0  0  0  0  0  0  0  0  0  0  0
  141.3515   83.5220  222.4592 H   0  0  0  0  0  0  0  0  0  0  0  0
  141.9838   83.2686  220.7812 H   0  0  0  0  0  0  0  0  0  0  0  0
  140.2230   84.5010  220.8980 C   0  0  0  0  0  0  0  0  0  0  0  0
  140.6509   85.4502  221.2528 H   0  0  0  0  0  0  0  0  0  0  0  0
  140.2103   84.4812  219.7982 H   0  0  0  0  0  0  0  0  0  0  0  0
  138.7860   84.3690  221.4160 C   0  0  0  0  0  0  0  0  0  0  0  0
  138.8021   84.4104  222.5151 H   0  0  0  0  0  0  0  0  0  0  0  0
  138.1995   85.1956  220.9885 H   0  0  0  0  0  0  0  0  0  0  0  0
  138.1190   83.0460  220.9800 C   0  0  0  0  0  0  0  0  0  0  0  0
  137.5417   82.6509  221.8289 H   0  0  0  0  0  0  0  0  0  0  0  0
  137.4823   83.2753  220.1128 H   0  0  0  0  0  0  0  0  0  0  0  0
  139.1230   81.9710  220.5320 C   0  0  0  0  0  0  0  0  0  0  0  0
  138.6737   80.9767  220.6717 H   0  0  0  0  0  0  0  0  0  0  0  0
  139.3663   82.1343  219.4718 H   0  0  0  0  0  0  0  0  0  0  0  0
  140.1500   79.6940  221.9960 C   0  0  0  0  0  0  0  0  0  0  0  0
  139.2133   79.6271  221.4231 H   0  0  0  0  0  0  0  0  0  0  0  0
  1  2  1  0
  2  3  2  0
  3  4  1  0
  3  5  1  0
  5  6  2  0
  6  7  1  0
  7  8  2  0
  8  9  1  0
  8 10  1  0
 10 11  1  0
 10 12  2  0
 12 13  1  0
 12 14  1  0
 14 15  1  0
 14 16  2  0
 16 17  1  0
 17 18  2  0
 17 19  1  0
 19 20  1  0
 20 21  1  0
 20 22  1  0
 20 23  1  0
 23 24  1  0
 23 25  1  0
 25 26  1  0
 25 27  1  0
 25 28  1  0
 28 29  1  0
 28 30  1  0
 28 31  1  0
 31 32  1  0
 31 33  1  0
 31 34  1  0
 34 35  1  0
 34 36  1  0
 34 37  1  0
 37 38  1  0
 37 39  1  0
  2 40  1  0
 40 41  2  0
 41 42  1  0
 41 43  1  0
 43 44  1  0
 43 45  2  0
 45 46  1  0
 45 47  1  0
 47 48  1  0
 48 49  1  0
 49 50  1  0
 49 51  1  0
 49 52  1  0
 52 53  1  0
 52 54  1  0
 52 55  1  0
 55 56  1  0
 55 57  1  0
 55 58  1  0
 58 59  1  0
 58 60  1  0
 58 61  1  0
 61 62  1  0
 61 63  1  0
 47 64  2  0
 64 65  1  0
 19  5  1  0
 37 23  1  0
 64 40  1  0
 16  7  1  0
 61 48  1  0
M  CHG  1  31   1
M  END
>  <UniqueID>  (31) 
419

>  <SMILES>  (31) 
O=c1c2cc(Cl)ccc2nc(/C=C/c2cccc(N3CCCCC3)c2)n1CC1CC[NH2+]CC1

>  <Energy>  (31) 
88.43498537460377

>  <Genealogy>  (31) 
O=c1c2cc(Cl)ccc2nc(/C=C/c2cccc(N3CCCCC3)c2)n1CC1CC[NH2+]CC1 (protonated)
O=c1c2cc(Cl)ccc2nc(/C=C/c2cccc(N3CCCCC3)c2)n1CC1CC[NH2+]CC1 (cis-trans isomerization)
O=c1c2cc(Cl)ccc2nc(/C=C/c2cccc(N3CCCCC3)c2)n1CC1CC[NH2+]CC1 (3D coordinates assigned)
O=c1c2cc(Cl)ccc2nc(/C=C/c2cccc(N3CCCCC3)c2)n1CC1CC[NH2+]CC1 (nonaromatic ring conformer: 88.43498537460377 kcal/mol)

>  <smiles>  (31) 
O=c1c2cc(Cl)ccc2nc(/C=C/c2cccc(N3CCCCC3)c2)n1CC1CCNCC1

>  <score_type>  (31) 
oracle

>  <origin>  (31) 
autodockgpu

>  <m_score__min__energy>  (31) 
-9.5

>  <m_primary>  (31) 
energy

>  <meeko>  (31) 
{"free_energy": -8.42, "intermolecular_energy": -10.21, "internal_energy": -1.93, "cluster_size": 2, "cluster_id": 8, "rank_in_cluster": 2}

>  <energy>  (31) 
-8.93

>  <cluster_rmsd>  (31) 
0.57

>  <rmsd>  (31) 
269.97

>  <cluster>  (31) 
6

$$$$
KTDBAWTUPMOUSA-RJHOSBTDNA-O
     RDKit          3D

 65 69  0  0  0  0  0  0  0  0999 V2000
  141.7005   73.8934  221.2640 H   0  0  0  0  0  0  0  0  0  0  0  0
  140.6440   74.0240  221.5410 C   0  0  0  0  0  0  0  0  0  0  0  0
  139.8390   72.9510  221.4730 C   0  0  0  0  0  0  0  0  0  0  0  0
  139.2974   72.7511  220.5366 H   0  0  0  0  0  0  0  0  0  0  0  0
  139.6550   72.0220  222.6240 C   0  0  0  0  0  0  0  0  0  0  0  0
  140.5170   72.1390  223.6700 N   0  0  0  0  0  0  0  0  0  0  0  0
  140.4190   71.3770  224.7800 C   0  0  0  0  0  0  0  0  0  0  0  0
  141.3320   71.5430  225.8270 C   0  0  0  0  0  0  0  0  0  0  0  0
  142.1344   72.2907  225.7427 H   0  0  0  0  0  0  0  0  0  0  0  0
  141.2260   70.7600  226.9800 C   0  0  0  0  0  0  0  0  0  0  0  0
  141.9448   70.8926  227.8020 H   0  0  0  0  0  0  0  0  0  0  0  0
  140.2070   69.8080  227.0900 C   0  0  0  0  0  0  0  0  0  0  0  0
  140.0780   68.8280  228.5380 Cl  0  0  0  0  0  0  0  0  0  0  0  0
  139.2930   69.6380  226.0440 C   0  0  0  0  0  0  0  0  0  0  0  0
  138.4934   68.8877  226.1310 H   0  0  0  0  0  0  0  0  0  0  0  0
  139.3940   70.4250  224.8800 C   0  0  0  0  0  0  0  0  0  0  0  0
  138.5030   70.2950  223.8040 C   0  0  0  0  0  0  0  0  0  0  0  0
  137.5790   69.4340  223.8720 O   0  0  0  0  0  0  0  0  0  0  0  0
  138.6310   71.0890  222.6840 N   0  0  0  0  0  0  0  0  0  0  0  0
  137.6690   70.8900  221.5710 C   0  0  0  0  0  0  0  0  0  0  0  0
  138.1532   71.1847  220.6283 H   0  0  0  0  0  0  0  0  0  0  0  0
  137.3818   69.8282  221.5611 H   0  0  0  0  0  0  0  0  0  0  0  0
  136.3760   71.7290  221.7510 C   0  0  0  0  0  0  0  0  0  0  0  0
  135.7480   71.5482  220.8662 H   0  0  0  0  0  0  0  0  0  0  0  0
  135.5160   71.2860  222.9630 C   0  0  0  0  0  0  0  0  0  0  0  0
  134.4522   71.4104  222.7122 H   0  0  0  0  0  0  0  0  0  0  0  0
  135.7430   70.2325  223.1835 H   0  0  0  0  0  0  0  0  0  0  0  0
  135.8370   72.1220  224.2090 C   0  0  0  0  0  0  0  0  0  0  0  0
  135.2275   71.7552  225.0480 H   0  0  0  0  0  0  0  0  0  0  0  0
  136.9118   72.0166  224.4180 H   0  0  0  0  0  0  0  0  0  0  0  0
  135.5530   73.5610  224.0070 N   0  0  0  0  0  0  0  0  0  0  0  0
  134.5860   73.7690  224.3490 H   0  0  0  0  0  0  0  0  0  0  0  0
  136.2190   74.1150  224.5970 H   0  0  0  0  0  0  0  0  0  0  0  0
  135.6640   74.0190  222.6050 C   0  0  0  0  0  0  0  0  0  0  0  0
  134.6914   73.8840  222.1092 H   0  0  0  0  0  0  0  0  0  0  0  0
  135.9613   75.0780  222.6159 H   0  0  0  0  0  0  0  0  0  0  0  0
  136.7300   73.2350  221.8270 C   0  0  0  0  0  0  0  0  0  0  0  0
  136.7984   73.6391  220.8062 H   0  0  0  0  0  0  0  0  0  0  0  0
  137.6909   73.3401  222.3519 H   0  0  0  0  0  0  0  0  0  0  0  0
  140.1980   75.3780  221.9670 C   0  0  0  0  0  0  0  0  0  0  0  0
  138.8330   75.5760  222.2330 C   0  0  0  0  0  0  0  0  0  0  0  0
  138.1326   74.7324  222.1441 H   0  0  0  0  0  0  0  0  0  0  0  0
  138.3570   76.8330  222.6090 C   0  0  0  0  0  0  0  0  0  0  0  0
  137.2861   76.9738  222.8171 H   0  0  0  0  0  0  0  0  0  0  0  0
  139.2360   77.9130  222.7220 C   0  0  0  0  0  0  0  0  0  0  0  0
  138.8542   78.9014  223.0175 H   0  0  0  0  0  0  0  0  0  0  0  0
  140.6040   77.7420  222.4600 C   0  0  0  0  0  0  0  0  0  0  0  0
  141.5090   78.8580  222.5500 N   0  0  0  0  0  0  0  0  0  0  0  0
  142.1040   79.2100  223.8490 C   0  0  0  0  0  0  0  0  0  0  0  0
  141.3185   79.1925  224.6188 H   0  0  0  0  0  0  0  0  0  0  0  0
  142.8921   78.4777  224.0782 H   0  0  0  0  0  0  0  0  0  0  0  0
  142.7390   80.6080  223.8150 C   0  0  0  0  0  0  0  0  0  0  0  0
  142.8943   80.9611  224.8451 H   0  0  0  0  0  0  0  0  0  0  0  0
  143.7023   80.5506  223.2870 H   0  0  0  0  0  0  0  0  0  0  0  0
  141.8230   81.5910  223.0760 C   0  0  0  0  0  0  0  0  0  0  0  0
  140.8692   81.6610  223.6196 H   0  0  0  0  0  0  0  0  0  0  0  0
  142.3382   82.5621  223.0359 H   0  0  0  0  0  0  0  0  0  0  0  0
  141.5340   81.1530  221.6230 C   0  0  0  0  0  0  0  0  0  0  0  0
  140.4728   81.3448  221.4061 H   0  0  0  0  0  0  0  0  0  0  0  0
  142.2043   81.7322  220.9710 H   0  0  0  0  0  0  0  0  0  0  0  0
  141.8230   79.6660  221.3620 C   0  0  0  0  0  0  0  0  0  0  0  0
  141.2073   79.3214  220.5181 H   0  0  0  0  0  0  0  0  0  0  0  0
  142.8915   79.5496  221.1281 H   0  0  0  0  0  0  0  0  0  0  0  0
  141.0780   76.4780  222.0700 C   0  0  0  0  0  0  0  0  0  0  0  0
  142.1458   76.3437  221.8425 H   0  0  0  0  0  0  0  0  0  0  0  0
  1  2  1  0
  2  3  2  0
  3  4  1  0
  3  5  1  0
  5  6  2  0
  6  7  1  0
  7  8  2  0
  8  9  1  0
  8 10  1  0
 10 11  1  0
 10 12  2  0
 12 13  1  0
 12 14  1  0
 14 15  1  0
 14 16  2  0
 16 17  1  0
 17 18  2  0
 17 19  1  0
 19 20  1  0
 20 21  1  0
 20 22  1  0
 20 23  1  0
 23 24  1  0
 23 25  1  0
 25 26  1  0
 25 27  1  0
 25 28  1  0
 28 29  1  0
 28 30  1  0
 28 31  1  0
 31 32  1  0
 31 33  1  0
 31 34  1  0
 34 35  1  0
 34 36  1  0
 34 37  1  0
 37 38  1  0
 37 39  1  0
  2 40  1  0
 40 41  2  0
 41 42  1  0
 41 43  1  0
 43 44  1  0
 43 45  2  0
 45 46  1  0
 45 47  1  0
 47 48  1  0
 48 49  1  0
 49 50  1  0
 49 51  1  0
 49 52  1  0
 52 53  1  0
 52 54  1  0
 52 55  1  0
 55 56  1  0
 55 57  1  0
 55 58  1  0
 58 59  1  0
 58 60  1  0
 58 61  1  0
 61 62  1  0
 61 63  1  0
 47 64  2  0
 64 65  1  0
 19  5  1  0
 37 23  1  0
 64 40  1  0
 16  7  1  0
 61 48  1  0
M  CHG  1  31   1
M  END
>  <UniqueID>  (32) 
419

>  <SMILES>  (32) 
O=c1c2cc(Cl)ccc2nc(/C=C/c2cccc(N3CCCCC3)c2)n1CC1CC[NH2+]CC1

>  <Energy>  (32) 
88.43498537460377

>  <Genealogy>  (32) 
O=c1c2cc(Cl)ccc2nc(/C=C/c2cccc(N3CCCCC3)c2)n1CC1CC[NH2+]CC1 (protonated)
O=c1c2cc(Cl)ccc2nc(/C=C/c2cccc(N3CCCCC3)c2)n1CC1CC[NH2+]CC1 (cis-trans isomerization)
O=c1c2cc(Cl)ccc2nc(/C=C/c2cccc(N3CCCCC3)c2)n1CC1CC[NH2+]CC1 (3D coordinates assigned)
O=c1c2cc(Cl)ccc2nc(/C=C/c2cccc(N3CCCCC3)c2)n1CC1CC[NH2+]CC1 (nonaromatic ring conformer: 88.43498537460377 kcal/mol)

>  <smiles>  (32) 
O=c1c2cc(Cl)ccc2nc(/C=C/c2cccc(N3CCCCC3)c2)n1CC1CCNCC1

>  <score_type>  (32) 
oracle

>  <origin>  (32) 
autodockgpu

>  <m_score__min__energy>  (32) 
-9.5

>  <m_primary>  (32) 
energy

>  <meeko>  (32) 
{"free_energy": -8.95, "intermolecular_energy": -10.74, "internal_energy": -1.68, "cluster_size": 7, "cluster_id": 6, "rank_in_cluster": 2}

>  <energy>  (32) 
-8.91

>  <cluster_rmsd>  (32) 
0.54

>  <rmsd>  (32) 
269.94

>  <cluster>  (32) 
6

$$$$
KTDBAWTUPMOUSA-RJHOSBTDNA-O
     RDKit          3D

 65 69  0  0  0  0  0  0  0  0999 V2000
  140.9789   73.9770  222.5089 H   0  0  0  0  0  0  0  0  0  0  0  0
  140.8250   73.0260  221.9780 C   0  0  0  0  0  0  0  0  0  0  0  0
  141.2010   72.9570  220.6900 C   0  0  0  0  0  0  0  0  0  0  0  0
  140.6450   73.5410  219.9418 H   0  0  0  0  0  0  0  0  0  0  0  0
  142.3470   72.1150  220.2410 C   0  0  0  0  0  0  0  0  0  0  0  0
  142.1550   70.7700  220.1880 N   0  0  0  0  0  0  0  0  0  0  0  0
  143.1100   69.9170  219.7580 C   0  0  0  0  0  0  0  0  0  0  0  0
  142.8560   68.5410  219.7220 C   0  0  0  0  0  0  0  0  0  0  0  0
  141.8800   68.1534  220.0495 H   0  0  0  0  0  0  0  0  0  0  0  0
  143.8420   67.6590  219.2700 C   0  0  0  0  0  0  0  0  0  0  0  0
  143.6406   66.5780  219.2415 H   0  0  0  0  0  0  0  0  0  0  0  0
  145.0840   68.1490  218.8540 C   0  0  0  0  0  0  0  0  0  0  0  0
  146.3170   67.0380  218.2880 Cl  0  0  0  0  0  0  0  0  0  0  0  0
  145.3420   69.5240  218.8910 C   0  0  0  0  0  0  0  0  0  0  0  0
  146.3202   69.9074  218.5653 H   0  0  0  0  0  0  0  0  0  0  0  0
  144.3530   70.4180  219.3440 C   0  0  0  0  0  0  0  0  0  0  0  0
  144.5600   71.8050  219.4000 C   0  0  0  0  0  0  0  0  0  0  0  0
  145.6780   72.2730  219.0400 O   0  0  0  0  0  0  0  0  0  0  0  0
  143.5640   72.6480  219.8430 N   0  0  0  0  0  0  0  0  0  0  0  0
  143.8510   74.1040  219.8970 C   0  0  0  0  0  0  0  0  0  0  0  0
  143.7470   74.4464  220.9372 H   0  0  0  0  0  0  0  0  0  0  0  0
  144.8737   74.2588  219.5226 H   0  0  0  0  0  0  0  0  0  0  0  0
  142.8890   74.9290  219.0020 C   0  0  0  0  0  0  0  0  0  0  0  0
  142.2140   74.2143  218.5085 H   0  0  0  0  0  0  0  0  0  0  0  0
  141.9650   75.8820  219.8040 C   0  0  0  0  0  0  0  0  0  0  0  0
  140.9867   75.9372  219.3040 H   0  0  0  0  0  0  0  0  0  0  0  0
  141.8590   75.4851  220.8244 H   0  0  0  0  0  0  0  0  0  0  0  0
  142.5610   77.2930  219.8930 C   0  0  0  0  0  0  0  0  0  0  0  0
  141.8880   77.9242  220.4918 H   0  0  0  0  0  0  0  0  0  0  0  0
  143.5541   77.2102  220.3588 H   0  0  0  0  0  0  0  0  0  0  0  0
  142.7360   77.9140  218.5600 N   0  0  0  0  0  0  0  0  0  0  0  0
  141.8900   78.4910  218.3400 H   0  0  0  0  0  0  0  0  0  0  0  0
  143.5550   78.5650  218.6040 H   0  0  0  0  0  0  0  0  0  0  0  0
  142.9490   76.9510  217.4560 C   0  0  0  0  0  0  0  0  0  0  0  0
  141.9706   76.6513  217.0523 H   0  0  0  0  0  0  0  0  0  0  0  0
  143.5619   77.4448  216.6876 H   0  0  0  0  0  0  0  0  0  0  0  0
  143.6970   75.6960  217.9250 C   0  0  0  0  0  0  0  0  0  0  0  0
  143.8626   75.0341  217.0622 H   0  0  0  0  0  0  0  0  0  0  0  0
  144.6554   76.0074  218.3660 H   0  0  0  0  0  0  0  0  0  0  0  0
  140.2140   71.8990  222.7320 C   0  0  0  0  0  0  0  0  0  0  0  0
  139.1130   71.2370  222.1640 C   0  0  0  0  0  0  0  0  0  0  0  0
  138.7430   71.5453  221.1751 H   0  0  0  0  0  0  0  0  0  0  0  0
  138.4840   70.1920  222.8420 C   0  0  0  0  0  0  0  0  0  0  0  0
  137.6229   69.6821  222.3852 H   0  0  0  0  0  0  0  0  0  0  0  0
  138.9440   69.7910  224.0990 C   0  0  0  0  0  0  0  0  0  0  0  0
  138.4441   68.9663  224.6281 H   0  0  0  0  0  0  0  0  0  0  0  0
  140.0420   70.4370  224.6890 C   0  0  0  0  0  0  0  0  0  0  0  0
  140.5030   70.0440  225.9950 N   0  0  0  0  0  0  0  0  0  0  0  0
  140.6260   68.6160  226.3250 C   0  0  0  0  0  0  0  0  0  0  0  0
  139.7238   68.0900  225.9795 H   0  0  0  0  0  0  0  0  0  0  0  0
  141.5235   68.2217  225.8259 H   0  0  0  0  0  0  0  0  0  0  0  0
  140.7810   68.4010  227.8380 C   0  0  0  0  0  0  0  0  0  0  0  0
  140.5637   67.3500  228.0793 H   0  0  0  0  0  0  0  0  0  0  0  0
  141.8117   68.6495  228.1310 H   0  0  0  0  0  0  0  0  0  0  0  0
  139.8120   69.3070  228.6060 C   0  0  0  0  0  0  0  0  0  0  0  0
  138.7824   69.0400  228.3255 H   0  0  0  0  0  0  0  0  0  0  0  0
  139.9919   69.1534  229.6803 H   0  0  0  0  0  0  0  0  0  0  0  0
  140.0350   70.8050  228.3030 C   0  0  0  0  0  0  0  0  0  0  0  0
  139.0528   71.2916  228.2103 H   0  0  0  0  0  0  0  0  0  0  0  0
  140.6283   71.2183  229.1320 H   0  0  0  0  0  0  0  0  0  0  0  0
  140.8270   71.0570  227.0100 C   0  0  0  0  0  0  0  0  0  0  0  0
  140.5727   72.0534  226.6194 H   0  0  0  0  0  0  0  0  0  0  0  0
  141.9017   70.9983  227.2370 H   0  0  0  0  0  0  0  0  0  0  0  0
  140.6640   71.4970  224.0090 C   0  0  0  0  0  0  0  0  0  0  0  0
  141.5113   72.0201  224.4764 H   0  0  0  0  0  0  0  0  0  0  0  0
  1  2  1  0
  2  3  2  0
  3  4  1  0
  3  5  1  0
  5  6  2  0
  6  7  1  0
  7  8  2  0
  8  9  1  0
  8 10  1  0
 10 11  1  0
 10 12  2  0
 12 13  1  0
 12 14  1  0
 14 15  1  0
 14 16  2  0
 16 17  1  0
 17 18  2  0
 17 19  1  0
 19 20  1  0
 20 21  1  0
 20 22  1  0
 20 23  1  0
 23 24  1  0
 23 25  1  0
 25 26  1  0
 25 27  1  0
 25 28  1  0
 28 29  1  0
 28 30  1  0
 28 31  1  0
 31 32  1  0
 31 33  1  0
 31 34  1  0
 34 35  1  0
 34 36  1  0
 34 37  1  0
 37 38  1  0
 37 39  1  0
  2 40  1  0
 40 41  2  0
 41 42  1  0
 41 43  1  0
 43 44  1  0
 43 45  2  0
 45 46  1  0
 45 47  1  0
 47 48  1  0
 48 49  1  0
 49 50  1  0
 49 51  1  0
 49 52  1  0
 52 53  1  0
 52 54  1  0
 52 55  1  0
 55 56  1  0
 55 57  1  0
 55 58  1  0
 58 59  1  0
 58 60  1  0
 58 61  1  0
 61 62  1  0
 61 63  1  0
 47 64  2  0
 64 65  1  0
 19  5  1  0
 37 23  1  0
 64 40  1  0
 16  7  1  0
 61 48  1  0
M  CHG  1  31   1
M  END
>  <UniqueID>  (33) 
419

>  <SMILES>  (33) 
O=c1c2cc(Cl)ccc2nc(/C=C/c2cccc(N3CCCCC3)c2)n1CC1CC[NH2+]CC1

>  <Energy>  (33) 
88.43498537460377

>  <Genealogy>  (33) 
O=c1c2cc(Cl)ccc2nc(/C=C/c2cccc(N3CCCCC3)c2)n1CC1CC[NH2+]CC1 (protonated)
O=c1c2cc(Cl)ccc2nc(/C=C/c2cccc(N3CCCCC3)c2)n1CC1CC[NH2+]CC1 (cis-trans isomerization)
O=c1c2cc(Cl)ccc2nc(/C=C/c2cccc(N3CCCCC3)c2)n1CC1CC[NH2+]CC1 (3D coordinates assigned)
O=c1c2cc(Cl)ccc2nc(/C=C/c2cccc(N3CCCCC3)c2)n1CC1CC[NH2+]CC1 (nonaromatic ring conformer: 88.43498537460377 kcal/mol)

>  <smiles>  (33) 
O=c1c2cc(Cl)ccc2nc(/C=C/c2cccc(N3CCCCC3)c2)n1CC1CCNCC1

>  <score_type>  (33) 
oracle

>  <origin>  (33) 
autodockgpu

>  <m_score__min__energy>  (33) 
-9.5

>  <m_primary>  (33) 
energy

>  <meeko>  (33) 
{"free_energy": -9.16, "intermolecular_energy": -10.95, "internal_energy": -1.37, "cluster_size": 2, "cluster_id": 1, "rank_in_cluster": 2}

>  <energy>  (33) 
-8.67

>  <cluster_rmsd>  (33) 
1.03

>  <rmsd>  (33) 
269.87

>  <cluster>  (33) 
6

$$$$
KTDBAWTUPMOUSA-RJHOSBTDNA-O
     RDKit          3D

 65 69  0  0  0  0  0  0  0  0999 V2000
  140.7247   72.9962  222.0207 H   0  0  0  0  0  0  0  0  0  0  0  0
  140.7150   73.8280  221.3010 C   0  0  0  0  0  0  0  0  0  0  0  0
  141.1420   73.5830  220.0510 C   0  0  0  0  0  0  0  0  0  0  0  0
  140.6206   74.0601  219.2081 H   0  0  0  0  0  0  0  0  0  0  0  0
  142.2990   72.6860  219.7680 C   0  0  0  0  0  0  0  0  0  0  0  0
  142.0960   71.3460  219.8760 N   0  0  0  0  0  0  0  0  0  0  0  0
  143.0600   70.4410  219.6040 C   0  0  0  0  0  0  0  0  0  0  0  0
  142.7930   69.0730  219.7300 C   0  0  0  0  0  0  0  0  0  0  0  0
  141.7983   68.7348  220.0558 H   0  0  0  0  0  0  0  0  0  0  0  0
  143.7900   68.1360  219.4420 C   0  0  0  0  0  0  0  0  0  0  0  0
  143.5788   67.0611  219.5421 H   0  0  0  0  0  0  0  0  0  0  0  0
  145.0550   68.5630  219.0270 C   0  0  0  0  0  0  0  0  0  0  0  0
  146.3020   67.3840  218.6670 Cl  0  0  0  0  0  0  0  0  0  0  0  0
  145.3260   69.9310  218.9030 C   0  0  0  0  0  0  0  0  0  0  0  0
  146.3230   70.2655  218.5804 H   0  0  0  0  0  0  0  0  0  0  0  0
  144.3260   70.8800  219.1900 C   0  0  0  0  0  0  0  0  0  0  0  0
  144.5460   72.2610  219.0800 C   0  0  0  0  0  0  0  0  0  0  0  0
  145.6840   72.6750  218.7180 O   0  0  0  0  0  0  0  0  0  0  0  0
  143.5390   73.1590  219.3640 N   0  0  0  0  0  0  0  0  0  0  0  0
  143.8390   74.6080  219.2470 C   0  0  0  0  0  0  0  0  0  0  0  0
  143.6439   75.0888  220.2169 H   0  0  0  0  0  0  0  0  0  0  0  0
  144.8939   74.7098  218.9522 H   0  0  0  0  0  0  0  0  0  0  0  0
  142.9750   75.3040  218.1630 C   0  0  0  0  0  0  0  0  0  0  0  0
  142.2121   74.5786  217.8441 H   0  0  0  0  0  0  0  0  0  0  0  0
  142.1830   76.5270  218.6940 C   0  0  0  0  0  0  0  0  0  0  0  0
  141.2141   76.5786  218.1758 H   0  0  0  0  0  0  0  0  0  0  0  0
  142.0394   76.4032  219.7775 H   0  0  0  0  0  0  0  0  0  0  0  0
  142.9480   77.8350  218.4540 C   0  0  0  0  0  0  0  0  0  0  0  0
  142.3637   78.6685  218.8710 H   0  0  0  0  0  0  0  0  0  0  0  0
  143.9283   77.7472  218.9452 H   0  0  0  0  0  0  0  0  0  0  0  0
  143.1830   78.0910  217.0150 N   0  0  0  0  0  0  0  0  0  0  0  0
  142.4110   78.6960  216.6460 H   0  0  0  0  0  0  0  0  0  0  0  0
  144.0760   78.6290  216.9160 H   0  0  0  0  0  0  0  0  0  0  0  0
  143.2650   76.8730  216.1780 C   0  0  0  0  0  0  0  0  0  0  0  0
  142.2532   76.6060  215.8389 H   0  0  0  0  0  0  0  0  0  0  0  0
  143.9254   77.0898  215.3254 H   0  0  0  0  0  0  0  0  0  0  0  0
  143.8590   75.6860  216.9490 C   0  0  0  0  0  0  0  0  0  0  0  0
  143.9332   74.8210  216.2735 H   0  0  0  0  0  0  0  0  0  0  0  0
  144.8528   75.9759  217.3208 H   0  0  0  0  0  0  0  0  0  0  0  0
  140.2300   75.1520  221.7740 C   0  0  0  0  0  0  0  0  0  0  0  0
  138.8580   75.3050  222.0320 C   0  0  0  0  0  0  0  0  0  0  0  0
  138.1808   74.4479  221.9026 H   0  0  0  0  0  0  0  0  0  0  0  0
  138.3450   76.5340  222.4510 C   0  0  0  0  0  0  0  0  0  0  0  0
  137.2685   76.6393  222.6511 H   0  0  0  0  0  0  0  0  0  0  0  0
  139.1950   77.6310  222.6170 C   0  0  0  0  0  0  0  0  0  0  0  0
  138.7850   78.5972  222.9463 H   0  0  0  0  0  0  0  0  0  0  0  0
  140.5700   77.5040  222.3650 C   0  0  0  0  0  0  0  0  0  0  0  0
  141.4450   78.6380  222.5090 N   0  0  0  0  0  0  0  0  0  0  0  0
  141.9420   79.0090  223.8430 C   0  0  0  0  0  0  0  0  0  0  0  0
  141.1056   78.9803  224.5569 H   0  0  0  0  0  0  0  0  0  0  0  0
  142.7266   78.2937  224.1305 H   0  0  0  0  0  0  0  0  0  0  0  0
  142.5510   80.4190  223.8440 C   0  0  0  0  0  0  0  0  0  0  0  0
  142.6269   80.7809  224.8800 H   0  0  0  0  0  0  0  0  0  0  0  0
  143.5500   80.3779  223.3854 H   0  0  0  0  0  0  0  0  0  0  0  0
  141.6700   81.3790  223.0360 C   0  0  0  0  0  0  0  0  0  0  0  0
  140.6796   81.4333  223.5115 H   0  0  0  0  0  0  0  0  0  0  0  0
  142.1682   82.3596  223.0246 H   0  0  0  0  0  0  0  0  0  0  0  0
  141.4910   80.9270  221.5690 C   0  0  0  0  0  0  0  0  0  0  0  0
  140.4440   81.0967  221.2775 H   0  0  0  0  0  0  0  0  0  0  0  0
  142.1935   81.5155  220.9606 H   0  0  0  0  0  0  0  0  0  0  0  0
  141.8260   79.4440  221.3400 C   0  0  0  0  0  0  0  0  0  0  0  0
  141.2776   79.0821  220.4578 H   0  0  0  0  0  0  0  0  0  0  0  0
  142.9103   79.3470  221.1821 H   0  0  0  0  0  0  0  0  0  0  0  0
  141.0800   76.2690  221.9310 C   0  0  0  0  0  0  0  0  0  0  0  0
  142.1533   76.1709  221.7110 H   0  0  0  0  0  0  0  0  0  0  0  0
  1  2  1  0
  2  3  2  0
  3  4  1  0
  3  5  1  0
  5  6  2  0
  6  7  1  0
  7  8  2  0
  8  9  1  0
  8 10  1  0
 10 11  1  0
 10 12  2  0
 12 13  1  0
 12 14  1  0
 14 15  1  0
 14 16  2  0
 16 17  1  0
 17 18  2  0
 17 19  1  0
 19 20  1  0
 20 21  1  0
 20 22  1  0
 20 23  1  0
 23 24  1  0
 23 25  1  0
 25 26  1  0
 25 27  1  0
 25 28  1  0
 28 29  1  0
 28 30  1  0
 28 31  1  0
 31 32  1  0
 31 33  1  0
 31 34  1  0
 34 35  1  0
 34 36  1  0
 34 37  1  0
 37 38  1  0
 37 39  1  0
  2 40  1  0
 40 41  2  0
 41 42  1  0
 41 43  1  0
 43 44  1  0
 43 45  2  0
 45 46  1  0
 45 47  1  0
 47 48  1  0
 48 49  1  0
 49 50  1  0
 49 51  1  0
 49 52  1  0
 52 53  1  0
 52 54  1  0
 52 55  1  0
 55 56  1  0
 55 57  1  0
 55 58  1  0
 58 59  1  0
 58 60  1  0
 58 61  1  0
 61 62  1  0
 61 63  1  0
 47 64  2  0
 64 65  1  0
 19  5  1  0
 37 23  1  0
 64 40  1  0
 16  7  1  0
 61 48  1  0
M  CHG  1  31   1
M  END
>  <UniqueID>  (34) 
419

>  <SMILES>  (34) 
O=c1c2cc(Cl)ccc2nc(/C=C/c2cccc(N3CCCCC3)c2)n1CC1CC[NH2+]CC1

>  <Energy>  (34) 
88.43498537460377

>  <Genealogy>  (34) 
O=c1c2cc(Cl)ccc2nc(/C=C/c2cccc(N3CCCCC3)c2)n1CC1CC[NH2+]CC1 (protonated)
O=c1c2cc(Cl)ccc2nc(/C=C/c2cccc(N3CCCCC3)c2)n1CC1CC[NH2+]CC1 (cis-trans isomerization)
O=c1c2cc(Cl)ccc2nc(/C=C/c2cccc(N3CCCCC3)c2)n1CC1CC[NH2+]CC1 (3D coordinates assigned)
O=c1c2cc(Cl)ccc2nc(/C=C/c2cccc(N3CCCCC3)c2)n1CC1CC[NH2+]CC1 (nonaromatic ring conformer: 88.43498537460377 kcal/mol)

>  <smiles>  (34) 
O=c1c2cc(Cl)ccc2nc(/C=C/c2cccc(N3CCCCC3)c2)n1CC1CCNCC1

>  <score_type>  (34) 
oracle

>  <origin>  (34) 
autodockgpu

>  <m_score__min__energy>  (34) 
-9.5

>  <m_primary>  (34) 
energy

>  <meeko>  (34) 
{"free_energy": -9.19, "intermolecular_energy": -10.98, "internal_energy": -1.61, "cluster_size": 1, "cluster_id": 3, "rank_in_cluster": 1}

>  <energy>  (34) 
-8.52

>  <cluster_rmsd>  (34) 
0.67

>  <rmsd>  (34) 
269.88

>  <cluster>  (34) 
6

$$$$
KTDBAWTUPMOUSA-RJHOSBTDNA-O
     RDKit          3D

 65 69  0  0  0  0  0  0  0  0999 V2000
  141.8048   73.5887  221.5199 H   0  0  0  0  0  0  0  0  0  0  0  0
  140.7260   73.7100  221.6970 C   0  0  0  0  0  0  0  0  0  0  0  0
  139.9560   72.6110  221.6610 C   0  0  0  0  0  0  0  0  0  0  0  0
  139.3481   72.4171  220.7650 H   0  0  0  0  0  0  0  0  0  0  0  0
  139.8970   71.6440  222.7950 C   0  0  0  0  0  0  0  0  0  0  0  0
  140.6470   71.9210  223.8950 N   0  0  0  0  0  0  0  0  0  0  0  0
  140.6390   71.1360  224.9950 C   0  0  0  0  0  0  0  0  0  0  0  0
  141.4300   71.4720  226.1000 C   0  0  0  0  0  0  0  0  0  0  0  0
  142.0624   72.3715  226.0707 H   0  0  0  0  0  0  0  0  0  0  0  0
  141.4160   70.6640  227.2410 C   0  0  0  0  0  0  0  0  0  0  0  0
  142.0379   70.9288  228.1088 H   0  0  0  0  0  0  0  0  0  0  0  0
  140.6130   69.5200  227.2810 C   0  0  0  0  0  0  0  0  0  0  0  0
  140.5990   68.5100  228.7140 Cl  0  0  0  0  0  0  0  0  0  0  0  0
  139.8230   69.1800  226.1760 C   0  0  0  0  0  0  0  0  0  0  0  0
  139.1947   68.2776  226.2075 H   0  0  0  0  0  0  0  0  0  0  0  0
  139.8310   69.9910  225.0240 C   0  0  0  0  0  0  0  0  0  0  0  0
  139.0570   69.6960  223.8910 C   0  0  0  0  0  0  0  0  0  0  0  0
  138.3310   68.6610  223.8960 O   0  0  0  0  0  0  0  0  0  0  0  0
  139.0870   70.5180  222.7850 N   0  0  0  0  0  0  0  0  0  0  0  0
  138.2610   70.1420  221.6100 C   0  0  0  0  0  0  0  0  0  0  0  0
  138.7934   70.4380  220.6941 H   0  0  0  0  0  0  0  0  0  0  0  0
  138.0988   69.0547  221.6470 H   0  0  0  0  0  0  0  0  0  0  0  0
  136.8700   70.8300  221.6230 C   0  0  0  0  0  0  0  0  0  0  0  0
  136.2400   70.2972  220.8955 H   0  0  0  0  0  0  0  0  0  0  0  0
  136.1290   70.7020  222.9790 C   0  0  0  0  0  0  0  0  0  0  0  0
  135.0494   70.6090  222.7899 H   0  0  0  0  0  0  0  0  0  0  0  0
  136.5109   69.8120  223.5006 H   0  0  0  0  0  0  0  0  0  0  0  0
  136.3770   71.9280  223.8680 C   0  0  0  0  0  0  0  0  0  0  0  0
  135.8583   71.7809  224.8268 H   0  0  0  0  0  0  0  0  0  0  0  0
  137.4632   72.0269  224.0109 H   0  0  0  0  0  0  0  0  0  0  0  0
  135.8850   73.1790  223.2470 N   0  0  0  0  0  0  0  0  0  0  0  0
  134.9120   73.3670  223.5840 H   0  0  0  0  0  0  0  0  0  0  0  0
  136.4880   73.9700  223.5750 H   0  0  0  0  0  0  0  0  0  0  0  0
  135.8750   73.1700  221.7670 C   0  0  0  0  0  0  0  0  0  0  0  0
  134.9126   72.7653  221.4205 H   0  0  0  0  0  0  0  0  0  0  0  0
  136.0195   74.2036  221.4193 H   0  0  0  0  0  0  0  0  0  0  0  0
  137.0100   72.3120  221.1910 C   0  0  0  0  0  0  0  0  0  0  0  0
  136.9809   72.3695  220.0929 H   0  0  0  0  0  0  0  0  0  0  0  0
  137.9660   72.6971  221.5754 H   0  0  0  0  0  0  0  0  0  0  0  0
  140.2140   75.0810  221.9610 C   0  0  0  0  0  0  0  0  0  0  0  0
  138.8230   75.2720  222.0280 C   0  0  0  0  0  0  0  0  0  0  0  0
  138.1488   74.4111  221.9081 H   0  0  0  0  0  0  0  0  0  0  0  0
  138.2890   76.5420  222.2450 C   0  0  0  0  0  0  0  0  0  0  0  0
  137.1985   76.6763  222.2974 H   0  0  0  0  0  0  0  0  0  0  0  0
  139.1340   77.6440  222.3960 C   0  0  0  0  0  0  0  0  0  0  0  0
  138.7061   78.6431  222.5650 H   0  0  0  0  0  0  0  0  0  0  0  0
  140.5260   77.4820  222.3330 C   0  0  0  0  0  0  0  0  0  0  0  0
  141.3990   78.6190  222.4630 N   0  0  0  0  0  0  0  0  0  0  0  0
  141.9090   78.9980  223.7900 C   0  0  0  0  0  0  0  0  0  0  0  0
  141.0803   78.9706  224.5129 H   0  0  0  0  0  0  0  0  0  0  0  0
  142.6985   78.2863  224.0731 H   0  0  0  0  0  0  0  0  0  0  0  0
  142.5140   80.4100  223.7770 C   0  0  0  0  0  0  0  0  0  0  0  0
  142.5997   80.7776  224.8102 H   0  0  0  0  0  0  0  0  0  0  0  0
  143.5081   80.3690  223.3079 H   0  0  0  0  0  0  0  0  0  0  0  0
  141.6220   81.3640  222.9730 C   0  0  0  0  0  0  0  0  0  0  0  0
  140.6364   81.4185  223.4585 H   0  0  0  0  0  0  0  0  0  0  0  0
  142.1176   82.3458  222.9514 H   0  0  0  0  0  0  0  0  0  0  0  0
  141.4290   80.9040  221.5110 C   0  0  0  0  0  0  0  0  0  0  0  0
  140.3785   81.0692  221.2296 H   0  0  0  0  0  0  0  0  0  0  0  0
  142.1234   81.4913  220.8923 H   0  0  0  0  0  0  0  0  0  0  0  0
  141.7660   79.4200  221.2860 C   0  0  0  0  0  0  0  0  0  0  0  0
  141.2097   79.0521  220.4112 H   0  0  0  0  0  0  0  0  0  0  0  0
  142.8489   79.3251  221.1175 H   0  0  0  0  0  0  0  0  0  0  0  0
  141.0600   76.2030  222.1020 C   0  0  0  0  0  0  0  0  0  0  0  0
  142.1501   76.0741  222.0301 H   0  0  0  0  0  0  0  0  0  0  0  0
  1  2  1  0
  2  3  2  0
  3  4  1  0
  3  5  1  0
  5  6  2  0
  6  7  1  0
  7  8  2  0
  8  9  1  0
  8 10  1  0
 10 11  1  0
 10 12  2  0
 12 13  1  0
 12 14  1  0
 14 15  1  0
 14 16  2  0
 16 17  1  0
 17 18  2  0
 17 19  1  0
 19 20  1  0
 20 21  1  0
 20 22  1  0
 20 23  1  0
 23 24  1  0
 23 25  1  0
 25 26  1  0
 25 27  1  0
 25 28  1  0
 28 29  1  0
 28 30  1  0
 28 31  1  0
 31 32  1  0
 31 33  1  0
 31 34  1  0
 34 35  1  0
 34 36  1  0
 34 37  1  0
 37 38  1  0
 37 39  1  0
  2 40  1  0
 40 41  2  0
 41 42  1  0
 41 43  1  0
 43 44  1  0
 43 45  2  0
 45 46  1  0
 45 47  1  0
 47 48  1  0
 48 49  1  0
 49 50  1  0
 49 51  1  0
 49 52  1  0
 52 53  1  0
 52 54  1  0
 52 55  1  0
 55 56  1  0
 55 57  1  0
 55 58  1  0
 58 59  1  0
 58 60  1  0
 58 61  1  0
 61 62  1  0
 61 63  1  0
 47 64  2  0
 64 65  1  0
 19  5  1  0
 37 23  1  0
 64 40  1  0
 16  7  1  0
 61 48  1  0
M  CHG  1  31   1
M  END
>  <UniqueID>  (35) 
419

>  <SMILES>  (35) 
O=c1c2cc(Cl)ccc2nc(/C=C/c2cccc(N3CCCCC3)c2)n1CC1CC[NH2+]CC1

>  <Energy>  (35) 
88.43498537460377

>  <Genealogy>  (35) 
O=c1c2cc(Cl)ccc2nc(/C=C/c2cccc(N3CCCCC3)c2)n1CC1CC[NH2+]CC1 (protonated)
O=c1c2cc(Cl)ccc2nc(/C=C/c2cccc(N3CCCCC3)c2)n1CC1CC[NH2+]CC1 (cis-trans isomerization)
O=c1c2cc(Cl)ccc2nc(/C=C/c2cccc(N3CCCCC3)c2)n1CC1CC[NH2+]CC1 (3D coordinates assigned)
O=c1c2cc(Cl)ccc2nc(/C=C/c2cccc(N3CCCCC3)c2)n1CC1CC[NH2+]CC1 (nonaromatic ring conformer: 88.43498537460377 kcal/mol)

>  <smiles>  (35) 
O=c1c2cc(Cl)ccc2nc(/C=C/c2cccc(N3CCCCC3)c2)n1CC1CCNCC1

>  <score_type>  (35) 
oracle

>  <origin>  (35) 
autodockgpu

>  <m_score__min__energy>  (35) 
-9.5

>  <m_primary>  (35) 
energy

>  <meeko>  (35) 
{"free_energy": -8.93, "intermolecular_energy": -10.72, "internal_energy": -1.68, "cluster_size": 7, "cluster_id": 6, "rank_in_cluster": 4}

>  <energy>  (35) 
-8.79

>  <cluster_rmsd>  (35) 
0.0

>  <rmsd>  (35) 
269.89

>  <cluster>  (35) 
7

$$$$
KTDBAWTUPMOUSA-RJHOSBTDNA-O
     RDKit          3D

 65 69  0  0  0  0  0  0  0  0999 V2000
  140.5136   73.3276  221.0437 H   0  0  0  0  0  0  0  0  0  0  0  0
  139.4960   73.1400  221.4170 C   0  0  0  0  0  0  0  0  0  0  0  0
  138.5220   73.9860  221.0420 C   0  0  0  0  0  0  0  0  0  0  0  0
  138.4516   74.2800  219.9844 H   0  0  0  0  0  0  0  0  0  0  0  0
  137.5330   74.5400  222.0110 C   0  0  0  0  0  0  0  0  0  0  0  0
  136.7520   73.6530  222.6860 N   0  0  0  0  0  0  0  0  0  0  0  0
  135.8520   74.0400  223.6150 C   0  0  0  0  0  0  0  0  0  0  0  0
  135.0780   73.0840  224.2810 C   0  0  0  0  0  0  0  0  0  0  0  0
  135.1985   72.0168  224.0433 H   0  0  0  0  0  0  0  0  0  0  0  0
  134.1510   73.4840  225.2490 C   0  0  0  0  0  0  0  0  0  0  0  0
  133.5439   72.7308  225.7726 H   0  0  0  0  0  0  0  0  0  0  0  0
  133.9950   74.8400  225.5520 C   0  0  0  0  0  0  0  0  0  0  0  0
  132.8310   75.3370  226.7660 Cl  0  0  0  0  0  0  0  0  0  0  0  0
  134.7670   75.8000  224.8860 C   0  0  0  0  0  0  0  0  0  0  0  0
  134.6419   76.8666  225.1243 H   0  0  0  0  0  0  0  0  0  0  0  0
  135.7030   75.4030  223.9120 C   0  0  0  0  0  0  0  0  0  0  0  0
  136.5020   76.3240  223.2160 C   0  0  0  0  0  0  0  0  0  0  0  0
  136.3730   77.5570  223.4630 O   0  0  0  0  0  0  0  0  0  0  0  0
  137.4120   75.8960  222.2740 N   0  0  0  0  0  0  0  0  0  0  0  0
  138.2140   76.9200  221.5580 C   0  0  0  0  0  0  0  0  0  0  0  0
  138.4593   76.5394  220.5555 H   0  0  0  0  0  0  0  0  0  0  0  0
  137.6129   77.8396  221.5034 H   0  0  0  0  0  0  0  0  0  0  0  0
  139.5340   77.2600  222.2990 C   0  0  0  0  0  0  0  0  0  0  0  0
  139.3574   77.0836  223.3703 H   0  0  0  0  0  0  0  0  0  0  0  0
  140.7140   76.3290  221.9190 C   0  0  0  0  0  0  0  0  0  0  0  0
  141.3441   76.1688  222.8063 H   0  0  0  0  0  0  0  0  0  0  0  0
  140.3014   75.3756  221.5573 H   0  0  0  0  0  0  0  0  0  0  0  0
  141.5700   76.9410  220.8020 C   0  0  0  0  0  0  0  0  0  0  0  0
  142.3747   76.2360  220.5462 H   0  0  0  0  0  0  0  0  0  0  0  0
  140.9134   77.1306  219.9401 H   0  0  0  0  0  0  0  0  0  0  0  0
  142.1760   78.2300  221.2020 N   0  0  0  0  0  0  0  0  0  0  0  0
  143.1360   78.0520  221.5810 H   0  0  0  0  0  0  0  0  0  0  0  0
  142.2830   78.8250  220.3470 H   0  0  0  0  0  0  0  0  0  0  0  0
  141.4050   78.9850  222.2150 C   0  0  0  0  0  0  0  0  0  0  0  0
  141.7249   78.6636  223.2172 H   0  0  0  0  0  0  0  0  0  0  0  0
  141.5987   80.0568  222.0607 H   0  0  0  0  0  0  0  0  0  0  0  0
  139.8940   78.7510  222.0780 C   0  0  0  0  0  0  0  0  0  0  0  0
  139.3673   79.3617  222.8261 H   0  0  0  0  0  0  0  0  0  0  0  0
  139.5890   79.0351  221.0600 H   0  0  0  0  0  0  0  0  0  0  0  0
  139.2850   71.9660  222.3050 C   0  0  0  0  0  0  0  0  0  0  0  0
  138.3950   70.9630  221.8840 C   0  0  0  0  0  0  0  0  0  0  0  0
  137.8947   71.0529  220.9085 H   0  0  0  0  0  0  0  0  0  0  0  0
  138.1400   69.8540  222.6920 C   0  0  0  0  0  0  0  0  0  0  0  0
  137.4426   69.0753  222.3495 H   0  0  0  0  0  0  0  0  0  0  0  0
  138.7670   69.7290  223.9340 C   0  0  0  0  0  0  0  0  0  0  0  0
  138.5603   68.8527  224.5659 H   0  0  0  0  0  0  0  0  0  0  0  0
  139.6590   70.7160  224.3790 C   0  0  0  0  0  0  0  0  0  0  0  0
  140.2870   70.6040  225.6690 N   0  0  0  0  0  0  0  0  0  0  0  0
  139.7640   69.6430  226.6520 C   0  0  0  0  0  0  0  0  0  0  0  0
  138.6672   69.7217  226.6808 H   0  0  0  0  0  0  0  0  0  0  0  0
  140.0751   68.6327  226.3477 H   0  0  0  0  0  0  0  0  0  0  0  0
  140.3220   69.9180  228.0570 C   0  0  0  0  0  0  0  0  0  0  0  0
  139.6981   69.4029  228.8023 H   0  0  0  0  0  0  0  0  0  0  0  0
  141.3563   69.5472  228.1098 H   0  0  0  0  0  0  0  0  0  0  0  0
  140.3170   71.4230  228.3470 C   0  0  0  0  0  0  0  0  0  0  0  0
  139.2788   71.7850  228.3142 H   0  0  0  0  0  0  0  0  0  0  0  0
  140.7670   71.5733  229.3394 H   0  0  0  0  0  0  0  0  0  0  0  0
  141.1540   72.2260  227.3260 C   0  0  0  0  0  0  0  0  0  0  0  0
  140.6092   73.1489  227.0782 H   0  0  0  0  0  0  0  0  0  0  0  0
  142.1280   72.4299  227.7948 H   0  0  0  0  0  0  0  0  0  0  0  0
  141.4310   71.4590  226.0220 C   0  0  0  0  0  0  0  0  0  0  0  0
  141.6076   72.1795  225.2098 H   0  0  0  0  0  0  0  0  0  0  0  0
  142.3167   70.8229  226.1670 H   0  0  0  0  0  0  0  0  0  0  0  0
  139.9040   71.8380  223.5680 C   0  0  0  0  0  0  0  0  0  0  0  0
  140.5859   72.6255  223.9213 H   0  0  0  0  0  0  0  0  0  0  0  0
  1  2  1  0
  2  3  2  0
  3  4  1  0
  3  5  1  0
  5  6  2  0
  6  7  1  0
  7  8  2  0
  8  9  1  0
  8 10  1  0
 10 11  1  0
 10 12  2  0
 12 13  1  0
 12 14  1  0
 14 15  1  0
 14 16  2  0
 16 17  1  0
 17 18  2  0
 17 19  1  0
 19 20  1  0
 20 21  1  0
 20 22  1  0
 20 23  1  0
 23 24  1  0
 23 25  1  0
 25 26  1  0
 25 27  1  0
 25 28  1  0
 28 29  1  0
 28 30  1  0
 28 31  1  0
 31 32  1  0
 31 33  1  0
 31 34  1  0
 34 35  1  0
 34 36  1  0
 34 37  1  0
 37 38  1  0
 37 39  1  0
  2 40  1  0
 40 41  2  0
 41 42  1  0
 41 43  1  0
 43 44  1  0
 43 45  2  0
 45 46  1  0
 45 47  1  0
 47 48  1  0
 48 49  1  0
 49 50  1  0
 49 51  1  0
 49 52  1  0
 52 53  1  0
 52 54  1  0
 52 55  1  0
 55 56  1  0
 55 57  1  0
 55 58  1  0
 58 59  1  0
 58 60  1  0
 58 61  1  0
 61 62  1  0
 61 63  1  0
 47 64  2  0
 64 65  1  0
 19  5  1  0
 37 23  1  0
 64 40  1  0
 16  7  1  0
 61 48  1  0
M  CHG  1  31   1
M  END
>  <UniqueID>  (36) 
419

>  <SMILES>  (36) 
O=c1c2cc(Cl)ccc2nc(/C=C/c2cccc(N3CCCCC3)c2)n1CC1CC[NH2+]CC1

>  <Energy>  (36) 
88.43498537460377

>  <Genealogy>  (36) 
O=c1c2cc(Cl)ccc2nc(/C=C/c2cccc(N3CCCCC3)c2)n1CC1CC[NH2+]CC1 (protonated)
O=c1c2cc(Cl)ccc2nc(/C=C/c2cccc(N3CCCCC3)c2)n1CC1CC[NH2+]CC1 (cis-trans isomerization)
O=c1c2cc(Cl)ccc2nc(/C=C/c2cccc(N3CCCCC3)c2)n1CC1CC[NH2+]CC1 (3D coordinates assigned)
O=c1c2cc(Cl)ccc2nc(/C=C/c2cccc(N3CCCCC3)c2)n1CC1CC[NH2+]CC1 (nonaromatic ring conformer: 88.43498537460377 kcal/mol)

>  <smiles>  (36) 
O=c1c2cc(Cl)ccc2nc(/C=C/c2cccc(N3CCCCC3)c2)n1CC1CCNCC1

>  <score_type>  (36) 
oracle

>  <origin>  (36) 
autodockgpu

>  <m_score__min__energy>  (36) 
-9.5

>  <m_primary>  (36) 
energy

>  <meeko>  (36) 
{"free_energy": -8.77, "intermolecular_energy": -10.56, "internal_energy": -1.82, "cluster_size": 2, "cluster_id": 7, "rank_in_cluster": 2}

>  <energy>  (36) 
-8.77

>  <cluster_rmsd>  (36) 
0.54

>  <rmsd>  (36) 
269.89

>  <cluster>  (36) 
7

$$$$
KTDBAWTUPMOUSA-RJHOSBTDNA-O
     RDKit          3D

 65 69  0  0  0  0  0  0  0  0999 V2000
  141.8218   73.5247  221.4413 H   0  0  0  0  0  0  0  0  0  0  0  0
  140.7460   73.6340  221.6430 C   0  0  0  0  0  0  0  0  0  0  0  0
  139.9810   72.5310  221.5880 C   0  0  0  0  0  0  0  0  0  0  0  0
  139.4264   72.3147  220.6630 H   0  0  0  0  0  0  0  0  0  0  0  0
  139.8580   71.5900  222.7380 C   0  0  0  0  0  0  0  0  0  0  0  0
  140.6280   71.8340  223.8330 N   0  0  0  0  0  0  0  0  0  0  0  0
  140.5690   71.0710  224.9460 C   0  0  0  0  0  0  0  0  0  0  0  0
  141.3830   71.3700  226.0440 C   0  0  0  0  0  0  0  0  0  0  0  0
  142.0755   72.2235  225.9985 H   0  0  0  0  0  0  0  0  0  0  0  0
  141.3170   70.5850  227.1990 C   0  0  0  0  0  0  0  0  0  0  0  0
  141.9576   70.8214  228.0614 H   0  0  0  0  0  0  0  0  0  0  0  0
  140.4370   69.4990  227.2590 C   0  0  0  0  0  0  0  0  0  0  0  0
  140.3570   68.5170  228.7100 Cl  0  0  0  0  0  0  0  0  0  0  0  0
  139.6230   69.1960  226.1610 C   0  0  0  0  0  0  0  0  0  0  0  0
  138.9334   68.3403  226.2086 H   0  0  0  0  0  0  0  0  0  0  0  0
  139.6850   69.9840  224.9960 C   0  0  0  0  0  0  0  0  0  0  0  0
  138.8900   69.7240  223.8690 C   0  0  0  0  0  0  0  0  0  0  0  0
  138.0940   68.7410  223.8920 O   0  0  0  0  0  0  0  0  0  0  0  0
  138.9740   70.5220  222.7480 N   0  0  0  0  0  0  0  0  0  0  0  0
  138.1210   70.1840  221.5810 C   0  0  0  0  0  0  0  0  0  0  0  0
  138.6616   70.4477  220.6600 H   0  0  0  0  0  0  0  0  0  0  0  0
  137.9028   69.1068  221.6255 H   0  0  0  0  0  0  0  0  0  0  0  0
  136.7680   70.9420  221.5990 C   0  0  0  0  0  0  0  0  0  0  0  0
  136.1126   70.4496  220.8655 H   0  0  0  0  0  0  0  0  0  0  0  0
  136.0190   70.8390  222.9530 C   0  0  0  0  0  0  0  0  0  0  0  0
  134.9363   70.8033  222.7618 H   0  0  0  0  0  0  0  0  0  0  0  0
  136.3539   69.9256  223.4664 H   0  0  0  0  0  0  0  0  0  0  0  0
  136.3280   72.0420  223.8540 C   0  0  0  0  0  0  0  0  0  0  0  0
  135.8007   71.9123  224.8106 H   0  0  0  0  0  0  0  0  0  0  0  0
  137.4177   72.0833  223.9987 H   0  0  0  0  0  0  0  0  0  0  0  0
  135.9030   73.3220  223.2460 N   0  0  0  0  0  0  0  0  0  0  0  0
  134.9390   73.5570  223.5840 H   0  0  0  0  0  0  0  0  0  0  0  0
  136.5440   74.0780  223.5830 H   0  0  0  0  0  0  0  0  0  0  0  0
  135.8950   73.3280  221.7660 C   0  0  0  0  0  0  0  0  0  0  0  0
  134.9136   72.9767  221.4146 H   0  0  0  0  0  0  0  0  0  0  0  0
  136.0933   74.3562  221.4291 H   0  0  0  0  0  0  0  0  0  0  0  0
  136.9850   72.4190  221.1820 C   0  0  0  0  0  0  0  0  0  0  0  0
  136.9602   72.4890  220.0845 H   0  0  0  0  0  0  0  0  0  0  0  0
  137.9592   72.7505  221.5707 H   0  0  0  0  0  0  0  0  0  0  0  0
  140.2320   74.9930  221.9590 C   0  0  0  0  0  0  0  0  0  0  0  0
  138.8430   75.1690  222.0770 C   0  0  0  0  0  0  0  0  0  0  0  0
  138.1727   74.3050  221.9577 H   0  0  0  0  0  0  0  0  0  0  0  0
  138.3050   76.4290  222.3440 C   0  0  0  0  0  0  0  0  0  0  0  0
  137.2157   76.5522  222.4350 H   0  0  0  0  0  0  0  0  0  0  0  0
  139.1460   77.5340  222.4960 C   0  0  0  0  0  0  0  0  0  0  0  0
  138.7162   78.5244  222.7067 H   0  0  0  0  0  0  0  0  0  0  0  0
  140.5370   77.3860  222.3810 C   0  0  0  0  0  0  0  0  0  0  0  0
  141.4050   78.5270  222.5110 N   0  0  0  0  0  0  0  0  0  0  0  0
  141.8530   78.9530  223.8450 C   0  0  0  0  0  0  0  0  0  0  0  0
  140.9916   78.9511  224.5291 H   0  0  0  0  0  0  0  0  0  0  0  0
  142.6275   78.2520  224.1896 H   0  0  0  0  0  0  0  0  0  0  0  0
  142.4600   80.3640  223.8100 C   0  0  0  0  0  0  0  0  0  0  0  0
  142.4988   80.7679  224.8324 H   0  0  0  0  0  0  0  0  0  0  0  0
  143.4746   80.3069  223.3889 H   0  0  0  0  0  0  0  0  0  0  0  0
  141.6070   81.2880  222.9330 C   0  0  0  0  0  0  0  0  0  0  0  0
  140.6002   81.3587  223.3705 H   0  0  0  0  0  0  0  0  0  0  0  0
  142.1039   82.2688  222.8996 H   0  0  0  0  0  0  0  0  0  0  0  0
  141.4810   80.7770  221.4810 C   0  0  0  0  0  0  0  0  0  0  0  0
  140.4450   80.9326  221.1456 H   0  0  0  0  0  0  0  0  0  0  0  0
  142.2046   81.3419  220.8749 H   0  0  0  0  0  0  0  0  0  0  0  0
  141.8250   79.2860  221.3240 C   0  0  0  0  0  0  0  0  0  0  0  0
  141.3074   78.8874  220.4390 H   0  0  0  0  0  0  0  0  0  0  0  0
  142.9141   79.1852  221.2074 H   0  0  0  0  0  0  0  0  0  0  0  0
  141.0740   76.1180  222.1000 C   0  0  0  0  0  0  0  0  0  0  0  0
  142.1620   76.0005  221.9887 H   0  0  0  0  0  0  0  0  0  0  0  0
  1  2  1  0
  2  3  2  0
  3  4  1  0
  3  5  1  0
  5  6  2  0
  6  7  1  0
  7  8  2  0
  8  9  1  0
  8 10  1  0
 10 11  1  0
 10 12  2  0
 12 13  1  0
 12 14  1  0
 14 15  1  0
 14 16  2  0
 16 17  1  0
 17 18  2  0
 17 19  1  0
 19 20  1  0
 20 21  1  0
 20 22  1  0
 20 23  1  0
 23 24  1  0
 23 25  1  0
 25 26  1  0
 25 27  1  0
 25 28  1  0
 28 29  1  0
 28 30  1  0
 28 31  1  0
 31 32  1  0
 31 33  1  0
 31 34  1  0
 34 35  1  0
 34 36  1  0
 34 37  1  0
 37 38  1  0
 37 39  1  0
  2 40  1  0
 40 41  2  0
 41 42  1  0
 41 43  1  0
 43 44  1  0
 43 45  2  0
 45 46  1  0
 45 47  1  0
 47 48  1  0
 48 49  1  0
 49 50  1  0
 49 51  1  0
 49 52  1  0
 52 53  1  0
 52 54  1  0
 52 55  1  0
 55 56  1  0
 55 57  1  0
 55 58  1  0
 58 59  1  0
 58 60  1  0
 58 61  1  0
 61 62  1  0
 61 63  1  0
 47 64  2  0
 64 65  1  0
 19  5  1  0
 37 23  1  0
 64 40  1  0
 16  7  1  0
 61 48  1  0
M  CHG  1  31   1
M  END
>  <UniqueID>  (37) 
419

>  <SMILES>  (37) 
O=c1c2cc(Cl)ccc2nc(/C=C/c2cccc(N3CCCCC3)c2)n1CC1CC[NH2+]CC1

>  <Energy>  (37) 
88.43498537460377

>  <Genealogy>  (37) 
O=c1c2cc(Cl)ccc2nc(/C=C/c2cccc(N3CCCCC3)c2)n1CC1CC[NH2+]CC1 (protonated)
O=c1c2cc(Cl)ccc2nc(/C=C/c2cccc(N3CCCCC3)c2)n1CC1CC[NH2+]CC1 (cis-trans isomerization)
O=c1c2cc(Cl)ccc2nc(/C=C/c2cccc(N3CCCCC3)c2)n1CC1CC[NH2+]CC1 (3D coordinates assigned)
O=c1c2cc(Cl)ccc2nc(/C=C/c2cccc(N3CCCCC3)c2)n1CC1CC[NH2+]CC1 (nonaromatic ring conformer: 88.43498537460377 kcal/mol)

>  <smiles>  (37) 
O=c1c2cc(Cl)ccc2nc(/C=C/c2cccc(N3CCCCC3)c2)n1CC1CCNCC1

>  <score_type>  (37) 
oracle

>  <origin>  (37) 
autodockgpu

>  <m_score__min__energy>  (37) 
-9.5

>  <m_primary>  (37) 
energy

>  <meeko>  (37) 
{"free_energy": -8.91, "intermolecular_energy": -10.7, "internal_energy": -1.73, "cluster_size": 7, "cluster_id": 6, "rank_in_cluster": 5}

>  <energy>  (37) 
-8.49

>  <cluster_rmsd>  (37) 
0.0

>  <rmsd>  (37) 
269.89

>  <cluster>  (37) 
8

$$$$
KTDBAWTUPMOUSA-RJHOSBTDNA-O
     RDKit          3D

 65 69  0  0  0  0  0  0  0  0999 V2000
  140.2485   72.8913  221.0367 H   0  0  0  0  0  0  0  0  0  0  0  0
  139.2850   72.5450  221.4390 C   0  0  0  0  0  0  0  0  0  0  0  0
  138.1750   73.1990  221.0620 C   0  0  0  0  0  0  0  0  0  0  0  0
  137.8506   73.1343  220.0129 H   0  0  0  0  0  0  0  0  0  0  0  0
  137.3670   74.0100  222.0170 C   0  0  0  0  0  0  0  0  0  0  0  0
  136.4670   73.3500  222.7960 N   0  0  0  0  0  0  0  0  0  0  0  0
  135.7120   73.9780  223.7230 C   0  0  0  0  0  0  0  0  0  0  0  0
  134.8050   73.2470  224.4980 C   0  0  0  0  0  0  0  0  0  0  0  0
  134.7032   72.1620  224.3480 H   0  0  0  0  0  0  0  0  0  0  0  0
  134.0280   73.8950  225.4630 C   0  0  0  0  0  0  0  0  0  0  0  0
  133.3158   73.3190  226.0721 H   0  0  0  0  0  0  0  0  0  0  0  0
  134.1550   75.2750  225.6550 C   0  0  0  0  0  0  0  0  0  0  0  0
  133.1780   76.0840  226.8660 Cl  0  0  0  0  0  0  0  0  0  0  0  0
  135.0600   76.0090  224.8790 C   0  0  0  0  0  0  0  0  0  0  0  0
  135.1567   77.0945  225.0287 H   0  0  0  0  0  0  0  0  0  0  0  0
  135.8470   75.3610  223.9070 C   0  0  0  0  0  0  0  0  0  0  0  0
  136.7690   76.0500  223.1040 C   0  0  0  0  0  0  0  0  0  0  0  0
  136.8960   77.3000  223.2490 O   0  0  0  0  0  0  0  0  0  0  0  0
  137.5260   75.3790  222.1670 N   0  0  0  0  0  0  0  0  0  0  0  0
  138.4700   76.1670  221.3360 C   0  0  0  0  0  0  0  0  0  0  0  0
  138.7142   75.5879  220.4332 H   0  0  0  0  0  0  0  0  0  0  0  0
  137.9806   77.1192  221.0836 H   0  0  0  0  0  0  0  0  0  0  0  0
  139.7860   76.4960  222.0880 C   0  0  0  0  0  0  0  0  0  0  0  0
  139.7183   76.0216  223.0781 H   0  0  0  0  0  0  0  0  0  0  0  0
  141.0480   75.8840  221.4250 C   0  0  0  0  0  0  0  0  0  0  0  0
  141.7612   75.5948  222.2109 H   0  0  0  0  0  0  0  0  0  0  0  0
  140.7406   75.0068  220.8368 H   0  0  0  0  0  0  0  0  0  0  0  0
  141.7240   76.8880  220.4810 C   0  0  0  0  0  0  0  0  0  0  0  0
  142.5935   76.4035  220.0128 H   0  0  0  0  0  0  0  0  0  0  0  0
  140.9825   77.1951  219.7287 H   0  0  0  0  0  0  0  0  0  0  0  0
  142.1810   78.1040  221.1900 N   0  0  0  0  0  0  0  0  0  0  0  0
  143.1830   77.9790  221.4690 H   0  0  0  0  0  0  0  0  0  0  0  0
  142.1410   78.9100  220.5230 H   0  0  0  0  0  0  0  0  0  0  0  0
  141.3970   78.4440  222.3980 C   0  0  0  0  0  0  0  0  0  0  0  0
  141.8343   77.9242  223.2632 H   0  0  0  0  0  0  0  0  0  0  0  0
  141.4324   79.5354  222.5302 H   0  0  0  0  0  0  0  0  0  0  0  0
  139.9250   78.0300  222.2630 C   0  0  0  0  0  0  0  0  0  0  0  0
  139.3815   78.3382  223.1683 H   0  0  0  0  0  0  0  0  0  0  0  0
  139.5062   78.5208  221.3721 H   0  0  0  0  0  0  0  0  0  0  0  0
  139.2950   71.3820  222.3660 C   0  0  0  0  0  0  0  0  0  0  0  0
  138.6870   70.1880  221.9440 C   0  0  0  0  0  0  0  0  0  0  0  0
  138.2412   70.1290  220.9401 H   0  0  0  0  0  0  0  0  0  0  0  0
  138.6430   69.0760  222.7860 C   0  0  0  0  0  0  0  0  0  0  0  0
  138.1642   68.1472  222.4425 H   0  0  0  0  0  0  0  0  0  0  0  0
  139.2050   69.1380  224.0640 C   0  0  0  0  0  0  0  0  0  0  0  0
  139.1674   68.2577  224.7226 H   0  0  0  0  0  0  0  0  0  0  0  0
  139.8170   70.3190  224.5100 C   0  0  0  0  0  0  0  0  0  0  0  0
  140.3740   70.3960  225.8360 N   0  0  0  0  0  0  0  0  0  0  0  0
  139.8270   69.5470  226.9050 C   0  0  0  0  0  0  0  0  0  0  0  0
  138.7284   69.5852  226.8654 H   0  0  0  0  0  0  0  0  0  0  0  0
  140.1879   68.5196  226.7497 H   0  0  0  0  0  0  0  0  0  0  0  0
  140.2940   70.0190  228.2910 C   0  0  0  0  0  0  0  0  0  0  0  0
  139.6453   69.5780  229.0622 H   0  0  0  0  0  0  0  0  0  0  0  0
  141.3349   69.6989  228.4462 H   0  0  0  0  0  0  0  0  0  0  0  0
  140.2230   71.5480  228.3840 C   0  0  0  0  0  0  0  0  0  0  0  0
  139.1772   71.8614  228.2496 H   0  0  0  0  0  0  0  0  0  0  0  0
  140.6094   71.8410  229.3713 H   0  0  0  0  0  0  0  0  0  0  0  0
  141.0910   72.2470  227.3140 C   0  0  0  0  0  0  0  0  0  0  0  0
  140.5324   73.1095  226.9215 H   0  0  0  0  0  0  0  0  0  0  0  0
  142.0297   72.5458  227.8034 H   0  0  0  0  0  0  0  0  0  0  0  0
  141.4660   71.3330  226.1360 C   0  0  0  0  0  0  0  0  0  0  0  0
  141.6649   71.9515  225.2484 H   0  0  0  0  0  0  0  0  0  0  0  0
  142.3620   70.7558  226.4081 H   0  0  0  0  0  0  0  0  0  0  0  0
  139.8480   71.4410  223.6640 C   0  0  0  0  0  0  0  0  0  0  0  0
  140.3083   72.3756  224.0170 H   0  0  0  0  0  0  0  0  0  0  0  0
  1  2  1  0
  2  3  2  0
  3  4  1  0
  3  5  1  0
  5  6  2  0
  6  7  1  0
  7  8  2  0
  8  9  1  0
  8 10  1  0
 10 11  1  0
 10 12  2  0
 12 13  1  0
 12 14  1  0
 14 15  1  0
 14 16  2  0
 16 17  1  0
 17 18  2  0
 17 19  1  0
 19 20  1  0
 20 21  1  0
 20 22  1  0
 20 23  1  0
 23 24  1  0
 23 25  1  0
 25 26  1  0
 25 27  1  0
 25 28  1  0
 28 29  1  0
 28 30  1  0
 28 31  1  0
 31 32  1  0
 31 33  1  0
 31 34  1  0
 34 35  1  0
 34 36  1  0
 34 37  1  0
 37 38  1  0
 37 39  1  0
  2 40  1  0
 40 41  2  0
 41 42  1  0
 41 43  1  0
 43 44  1  0
 43 45  2  0
 45 46  1  0
 45 47  1  0
 47 48  1  0
 48 49  1  0
 49 50  1  0
 49 51  1  0
 49 52  1  0
 52 53  1  0
 52 54  1  0
 52 55  1  0
 55 56  1  0
 55 57  1  0
 55 58  1  0
 58 59  1  0
 58 60  1  0
 58 61  1  0
 61 62  1  0
 61 63  1  0
 47 64  2  0
 64 65  1  0
 19  5  1  0
 37 23  1  0
 64 40  1  0
 16  7  1  0
 61 48  1  0
M  CHG  1  31   1
M  END
>  <UniqueID>  (38) 
419

>  <SMILES>  (38) 
O=c1c2cc(Cl)ccc2nc(/C=C/c2cccc(N3CCCCC3)c2)n1CC1CC[NH2+]CC1

>  <Energy>  (38) 
88.43498537460377

>  <Genealogy>  (38) 
O=c1c2cc(Cl)ccc2nc(/C=C/c2cccc(N3CCCCC3)c2)n1CC1CC[NH2+]CC1 (protonated)
O=c1c2cc(Cl)ccc2nc(/C=C/c2cccc(N3CCCCC3)c2)n1CC1CC[NH2+]CC1 (cis-trans isomerization)
O=c1c2cc(Cl)ccc2nc(/C=C/c2cccc(N3CCCCC3)c2)n1CC1CC[NH2+]CC1 (3D coordinates assigned)
O=c1c2cc(Cl)ccc2nc(/C=C/c2cccc(N3CCCCC3)c2)n1CC1CC[NH2+]CC1 (nonaromatic ring conformer: 88.43498537460377 kcal/mol)

>  <smiles>  (38) 
O=c1c2cc(Cl)ccc2nc(/C=C/c2cccc(N3CCCCC3)c2)n1CC1CCNCC1

>  <score_type>  (38) 
oracle

>  <origin>  (38) 
autodockgpu

>  <m_score__min__energy>  (38) 
-9.5

>  <m_primary>  (38) 
energy

>  <meeko>  (38) 
{"free_energy": -8.79, "intermolecular_energy": -10.58, "internal_energy": -1.69, "cluster_size": 2, "cluster_id": 7, "rank_in_cluster": 1}

>  <energy>  (38) 
-8.42

>  <cluster_rmsd>  (38) 
0.48

>  <rmsd>  (38) 
269.83

>  <cluster>  (38) 
8

$$$$
KTDBAWTUPMOUSA-RJHOSBTDNA-O
     RDKit          3D

 65 69  0  0  0  0  0  0  0  0999 V2000
  137.0694   74.8784  221.8245 H   0  0  0  0  0  0  0  0  0  0  0  0
  137.7430   75.6550  221.4330 C   0  0  0  0  0  0  0  0  0  0  0  0
  138.4700   75.3650  220.3410 C   0  0  0  0  0  0  0  0  0  0  0  0
  137.9507   75.1956  219.3862 H   0  0  0  0  0  0  0  0  0  0  0  0
  139.9580   75.2650  220.3800 C   0  0  0  0  0  0  0  0  0  0  0  0
  140.4980   74.0370  220.6060 N   0  0  0  0  0  0  0  0  0  0  0  0
  141.8310   73.8230  220.6220 C   0  0  0  0  0  0  0  0  0  0  0  0
  142.3310   72.5370  220.8560 C   0  0  0  0  0  0  0  0  0  0  0  0
  141.6376   71.7016  221.0330 H   0  0  0  0  0  0  0  0  0  0  0  0
  143.7110   72.3130  220.8650 C   0  0  0  0  0  0  0  0  0  0  0  0
  144.1022   71.3014  221.0484 H   0  0  0  0  0  0  0  0  0  0  0  0
  144.5950   73.3740  220.6410 C   0  0  0  0  0  0  0  0  0  0  0  0
  146.3250   73.0890  220.6540 Cl  0  0  0  0  0  0  0  0  0  0  0  0
  144.0980   74.6620  220.4090 C   0  0  0  0  0  0  0  0  0  0  0  0
  144.7943   75.4957  220.2356 H   0  0  0  0  0  0  0  0  0  0  0  0
  142.7090   74.8930  220.3970 C   0  0  0  0  0  0  0  0  0  0  0  0
  142.1590   76.1640  220.1680 C   0  0  0  0  0  0  0  0  0  0  0  0
  142.9350   77.1430  219.9740 O   0  0  0  0  0  0  0  0  0  0  0  0
  140.7930   76.3490  220.1570 N   0  0  0  0  0  0  0  0  0  0  0  0
  140.2730   77.7200  219.9280 C   0  0  0  0  0  0  0  0  0  0  0  0
  139.2067   77.7431  220.1972 H   0  0  0  0  0  0  0  0  0  0  0  0
  140.8606   78.4103  220.5510 H   0  0  0  0  0  0  0  0  0  0  0  0
  140.4240   78.1700  218.4510 C   0  0  0  0  0  0  0  0  0  0  0  0
  139.4095   78.2588  218.0353 H   0  0  0  0  0  0  0  0  0  0  0  0
  141.0570   79.5780  218.2950 C   0  0  0  0  0  0  0  0  0  0  0  0
  140.6005   80.0824  217.4306 H   0  0  0  0  0  0  0  0  0  0  0  0
  140.8727   80.1461  219.2187 H   0  0  0  0  0  0  0  0  0  0  0  0
  142.5730   79.4860  218.0770 C   0  0  0  0  0  0  0  0  0  0  0  0
  142.9822   80.5043  218.0012 H   0  0  0  0  0  0  0  0  0  0  0  0
  143.0040   78.9431  218.9311 H   0  0  0  0  0  0  0  0  0  0  0  0
  142.9180   78.7410  216.8450 N   0  0  0  0  0  0  0  0  0  0  0  0
  143.0360   79.4210  216.0570 H   0  0  0  0  0  0  0  0  0  0  0  0
  143.8420   78.2700  216.9920 H   0  0  0  0  0  0  0  0  0  0  0  0
  141.9220   77.7240  216.4410 C   0  0  0  0  0  0  0  0  0  0  0  0
  141.1698   78.2003  215.7949 H   0  0  0  0  0  0  0  0  0  0  0  0
  142.4526   76.9212  215.9081 H   0  0  0  0  0  0  0  0  0  0  0  0
  141.2130   77.1020  217.6520 C   0  0  0  0  0  0  0  0  0  0  0  0
  140.5142   76.3288  217.3001 H   0  0  0  0  0  0  0  0  0  0  0  0
  141.9749   76.6650  218.3142 H   0  0  0  0  0  0  0  0  0  0  0  0
  137.7910   76.9590  222.1460 C   0  0  0  0  0  0  0  0  0  0  0  0
  136.5770   77.5980  222.4500 C   0  0  0  0  0  0  0  0  0  0  0  0
  135.6257   77.1172  222.1782 H   0  0  0  0  0  0  0  0  0  0  0  0
  136.5660   78.8360  223.0930 C   0  0  0  0  0  0  0  0  0  0  0  0
  135.6080   79.3234  223.3269 H   0  0  0  0  0  0  0  0  0  0  0  0
  137.7670   79.4590  223.4410 C   0  0  0  0  0  0  0  0  0  0  0  0
  137.7512   80.4359  223.9465 H   0  0  0  0  0  0  0  0  0  0  0  0
  138.9940   78.8430  223.1480 C   0  0  0  0  0  0  0  0  0  0  0  0
  140.2330   79.4940  223.4820 N   0  0  0  0  0  0  0  0  0  0  0  0
  140.2830   80.9610  223.5790 C   0  0  0  0  0  0  0  0  0  0  0  0
  139.7552   81.3947  222.7168 H   0  0  0  0  0  0  0  0  0  0  0  0
  139.8037   81.2617  224.5223 H   0  0  0  0  0  0  0  0  0  0  0  0
  141.7310   81.4740  223.5880 C   0  0  0  0  0  0  0  0  0  0  0  0
  141.7365   82.5488  223.3542 H   0  0  0  0  0  0  0  0  0  0  0  0
  142.1649   81.3026  224.5841 H   0  0  0  0  0  0  0  0  0  0  0  0
  142.5680   80.7250  222.5440 C   0  0  0  0  0  0  0  0  0  0  0  0
  142.1430   80.9166  221.5477 H   0  0  0  0  0  0  0  0  0  0  0  0
  143.6025   81.0912  222.6197 H   0  0  0  0  0  0  0  0  0  0  0  0
  142.5910   79.1990  222.7880 C   0  0  0  0  0  0  0  0  0  0  0  0
  142.5024   78.6897  221.8170 H   0  0  0  0  0  0  0  0  0  0  0  0
  143.5387   78.9667  223.2958 H   0  0  0  0  0  0  0  0  0  0  0  0
  141.4560   78.7070  223.7010 C   0  0  0  0  0  0  0  0  0  0  0  0
  141.2487   77.6493  223.4811 H   0  0  0  0  0  0  0  0  0  0  0  0
  141.7692   78.8253  224.7488 H   0  0  0  0  0  0  0  0  0  0  0  0
  139.0010   77.6020  222.4890 C   0  0  0  0  0  0  0  0  0  0  0  0
  139.9600   77.1256  222.2373 H   0  0  0  0  0  0  0  0  0  0  0  0
  1  2  1  0
  2  3  2  0
  3  4  1  0
  3  5  1  0
  5  6  2  0
  6  7  1  0
  7  8  2  0
  8  9  1  0
  8 10  1  0
 10 11  1  0
 10 12  2  0
 12 13  1  0
 12 14  1  0
 14 15  1  0
 14 16  2  0
 16 17  1  0
 17 18  2  0
 17 19  1  0
 19 20  1  0
 20 21  1  0
 20 22  1  0
 20 23  1  0
 23 24  1  0
 23 25  1  0
 25 26  1  0
 25 27  1  0
 25 28  1  0
 28 29  1  0
 28 30  1  0
 28 31  1  0
 31 32  1  0
 31 33  1  0
 31 34  1  0
 34 35  1  0
 34 36  1  0
 34 37  1  0
 37 38  1  0
 37 39  1  0
  2 40  1  0
 40 41  2  0
 41 42  1  0
 41 43  1  0
 43 44  1  0
 43 45  2  0
 45 46  1  0
 45 47  1  0
 47 48  1  0
 48 49  1  0
 49 50  1  0
 49 51  1  0
 49 52  1  0
 52 53  1  0
 52 54  1  0
 52 55  1  0
 55 56  1  0
 55 57  1  0
 55 58  1  0
 58 59  1  0
 58 60  1  0
 58 61  1  0
 61 62  1  0
 61 63  1  0
 47 64  2  0
 64 65  1  0
 19  5  1  0
 37 23  1  0
 64 40  1  0
 16  7  1  0
 61 48  1  0
M  CHG  1  31   1
M  END
>  <UniqueID>  (39) 
419

>  <SMILES>  (39) 
O=c1c2cc(Cl)ccc2nc(/C=C/c2cccc(N3CCCCC3)c2)n1CC1CC[NH2+]CC1

>  <Energy>  (39) 
88.43498537460377

>  <Genealogy>  (39) 
O=c1c2cc(Cl)ccc2nc(/C=C/c2cccc(N3CCCCC3)c2)n1CC1CC[NH2+]CC1 (protonated)
O=c1c2cc(Cl)ccc2nc(/C=C/c2cccc(N3CCCCC3)c2)n1CC1CC[NH2+]CC1 (cis-trans isomerization)
O=c1c2cc(Cl)ccc2nc(/C=C/c2cccc(N3CCCCC3)c2)n1CC1CC[NH2+]CC1 (3D coordinates assigned)
O=c1c2cc(Cl)ccc2nc(/C=C/c2cccc(N3CCCCC3)c2)n1CC1CC[NH2+]CC1 (nonaromatic ring conformer: 88.43498537460377 kcal/mol)

>  <smiles>  (39) 
O=c1c2cc(Cl)ccc2nc(/C=C/c2cccc(N3CCCCC3)c2)n1CC1CCNCC1

>  <score_type>  (39) 
oracle

>  <origin>  (39) 
autodockgpu

>  <m_score__min__energy>  (39) 
-9.5

>  <m_primary>  (39) 
energy

>  <meeko>  (39) 
{"free_energy": -8.28, "intermolecular_energy": -10.07, "internal_energy": -1.97, "cluster_size": 1, "cluster_id": 9, "rank_in_cluster": 1}

>  <energy>  (39) 
-8.28

>  <cluster_rmsd>  (39) 
0.0

>  <rmsd>  (39) 
269.63

>  <cluster>  (39) 
9

$$$$
KTDBAWTUPMOUSA-RJHOSBTDNA-O
     RDKit          3D

 65 69  0  0  0  0  0  0  0  0999 V2000
  142.8464   78.2605  222.8618 H   0  0  0  0  0  0  0  0  0  0  0  0
  141.8090   78.5940  223.0120 C   0  0  0  0  0  0  0  0  0  0  0  0
  141.6100   79.8300  223.5000 C   0  0  0  0  0  0  0  0  0  0  0  0
  142.3726   80.2706  224.1590 H   0  0  0  0  0  0  0  0  0  0  0  0
  140.3900   80.6240  223.1780 C   0  0  0  0  0  0  0  0  0  0  0  0
  139.3440   80.5470  224.0440 N   0  0  0  0  0  0  0  0  0  0  0  0
  138.2070   81.2540  223.8740 C   0  0  0  0  0  0  0  0  0  0  0  0
  137.1640   81.1380  224.7990 C   0  0  0  0  0  0  0  0  0  0  0  0
  137.2687   80.4660  225.6635 H   0  0  0  0  0  0  0  0  0  0  0  0
  135.9890   81.8750  224.6260 C   0  0  0  0  0  0  0  0  0  0  0  0
  135.1700   81.7817  225.3544 H   0  0  0  0  0  0  0  0  0  0  0  0
  135.8530   82.7310  223.5280 C   0  0  0  0  0  0  0  0  0  0  0  0
  134.3770   83.6540  223.3160 Cl  0  0  0  0  0  0  0  0  0  0  0  0
  136.8940   82.8480  222.6000 C   0  0  0  0  0  0  0  0  0  0  0  0
  136.7850   83.5197  221.7357 H   0  0  0  0  0  0  0  0  0  0  0  0
  138.0800   82.1090  222.7690 C   0  0  0  0  0  0  0  0  0  0  0  0
  139.1530   82.1910  221.8680 C   0  0  0  0  0  0  0  0  0  0  0  0
  139.0530   82.9480  220.8610 O   0  0  0  0  0  0  0  0  0  0  0  0
  140.3020   81.4560  222.0720 N   0  0  0  0  0  0  0  0  0  0  0  0
  141.3940   81.5710  221.0730 C   0  0  0  0  0  0  0  0  0  0  0  0
  141.5270   82.6321  220.8154 H   0  0  0  0  0  0  0  0  0  0  0  0
  142.3051   81.1482  221.5215 H   0  0  0  0  0  0  0  0  0  0  0  0
  141.0930   80.7770  219.7750 C   0  0  0  0  0  0  0  0  0  0  0  0
  140.0190   80.5396  219.7832 H   0  0  0  0  0  0  0  0  0  0  0  0
  141.3210   81.5990  218.4800 C   0  0  0  0  0  0  0  0  0  0  0  0
  140.5731   81.3013  217.7303 H   0  0  0  0  0  0  0  0  0  0  0  0
  141.2228   82.6669  218.7247 H   0  0  0  0  0  0  0  0  0  0  0  0
  142.7250   81.3600  217.9080 C   0  0  0  0  0  0  0  0  0  0  0  0
  142.8523   81.9829  217.0104 H   0  0  0  0  0  0  0  0  0  0  0  0
  143.4556   81.6244  218.6867 H   0  0  0  0  0  0  0  0  0  0  0  0
  142.9470   79.9430  217.5400 N   0  0  0  0  0  0  0  0  0  0  0  0
  142.7180   79.8140  216.5260 H   0  0  0  0  0  0  0  0  0  0  0  0
  143.9640   79.7260  217.6610 H   0  0  0  0  0  0  0  0  0  0  0  0
  142.1560   78.9710  218.3270 C   0  0  0  0  0  0  0  0  0  0  0  0
  141.1858   78.8186  217.8316 H   0  0  0  0  0  0  0  0  0  0  0  0
  142.7268   78.0322  218.3806 H   0  0  0  0  0  0  0  0  0  0  0  0
  141.9090   79.4590  219.7620 C   0  0  0  0  0  0  0  0  0  0  0  0
  141.3515   78.6868  220.3123 H   0  0  0  0  0  0  0  0  0  0  0  0
  142.8828   79.6483  220.2373 H   0  0  0  0  0  0  0  0  0  0  0  0
  140.7160   77.6480  222.6620 C   0  0  0  0  0  0  0  0  0  0  0  0
  141.0640   76.3500  222.2530 C   0  0  0  0  0  0  0  0  0  0  0  0
  142.1232   76.0548  222.2208 H   0  0  0  0  0  0  0  0  0  0  0  0
  140.0790   75.4310  221.8870 C   0  0  0  0  0  0  0  0  0  0  0  0
  140.3653   74.4173  221.5701 H   0  0  0  0  0  0  0  0  0  0  0  0
  138.7310   75.7950  221.9220 C   0  0  0  0  0  0  0  0  0  0  0  0
  137.9597   75.0666  221.6314 H   0  0  0  0  0  0  0  0  0  0  0  0
  138.3560   77.0850  222.3260 C   0  0  0  0  0  0  0  0  0  0  0  0
  136.9700   77.4720  222.3380 N   0  0  0  0  0  0  0  0  0  0  0  0
  136.5980   78.8590  222.0180 C   0  0  0  0  0  0  0  0  0  0  0  0
  137.2700   79.5431  222.5569 H   0  0  0  0  0  0  0  0  0  0  0  0
  136.6879   78.9994  220.9307 H   0  0  0  0  0  0  0  0  0  0  0  0
  135.1470   79.1590  222.4260 C   0  0  0  0  0  0  0  0  0  0  0  0
  134.9981   80.2483  222.4625 H   0  0  0  0  0  0  0  0  0  0  0  0
  134.4673   78.7104  221.6866 H   0  0  0  0  0  0  0  0  0  0  0  0
  134.8480   78.5610  223.8060 C   0  0  0  0  0  0  0  0  0  0  0  0
  135.5159   79.0280  224.5448 H   0  0  0  0  0  0  0  0  0  0  0  0
  133.7903   78.7595  224.0337 H   0  0  0  0  0  0  0  0  0  0  0  0
  135.0570   77.0310  223.8470 C   0  0  0  0  0  0  0  0  0  0  0  0
  135.5451   76.7714  224.7980 H   0  0  0  0  0  0  0  0  0  0  0  0
  134.0653   76.5657  223.7471 H   0  0  0  0  0  0  0  0  0  0  0  0
  135.9250   76.5000  222.6930 C   0  0  0  0  0  0  0  0  0  0  0  0
  136.3993   75.5569  223.0024 H   0  0  0  0  0  0  0  0  0  0  0  0
  135.2831   76.3347  221.8151 H   0  0  0  0  0  0  0  0  0  0  0  0
  139.3520   78.0110  222.6820 C   0  0  0  0  0  0  0  0  0  0  0  0
  139.0651   79.0304  222.9796 H   0  0  0  0  0  0  0  0  0  0  0  0
  1  2  1  0
  2  3  2  0
  3  4  1  0
  3  5  1  0
  5  6  2  0
  6  7  1  0
  7  8  2  0
  8  9  1  0
  8 10  1  0
 10 11  1  0
 10 12  2  0
 12 13  1  0
 12 14  1  0
 14 15  1  0
 14 16  2  0
 16 17  1  0
 17 18  2  0
 17 19  1  0
 19 20  1  0
 20 21  1  0
 20 22  1  0
 20 23  1  0
 23 24  1  0
 23 25  1  0
 25 26  1  0
 25 27  1  0
 25 28  1  0
 28 29  1  0
 28 30  1  0
 28 31  1  0
 31 32  1  0
 31 33  1  0
 31 34  1  0
 34 35  1  0
 34 36  1  0
 34 37  1  0
 37 38  1  0
 37 39  1  0
  2 40  1  0
 40 41  2  0
 41 42  1  0
 41 43  1  0
 43 44  1  0
 43 45  2  0
 45 46  1  0
 45 47  1  0
 47 48  1  0
 48 49  1  0
 49 50  1  0
 49 51  1  0
 49 52  1  0
 52 53  1  0
 52 54  1  0
 52 55  1  0
 55 56  1  0
 55 57  1  0
 55 58  1  0
 58 59  1  0
 58 60  1  0
 58 61  1  0
 61 62  1  0
 61 63  1  0
 47 64  2  0
 64 65  1  0
 19  5  1  0
 37 23  1  0
 64 40  1  0
 16  7  1  0
 61 48  1  0
M  CHG  1  31   1
M  END
>  <UniqueID>  (40) 
419

>  <SMILES>  (40) 
O=c1c2cc(Cl)ccc2nc(/C=C/c2cccc(N3CCCCC3)c2)n1CC1CC[NH2+]CC1

>  <Energy>  (40) 
88.43498537460377

>  <Genealogy>  (40) 
O=c1c2cc(Cl)ccc2nc(/C=C/c2cccc(N3CCCCC3)c2)n1CC1CC[NH2+]CC1 (protonated)
O=c1c2cc(Cl)ccc2nc(/C=C/c2cccc(N3CCCCC3)c2)n1CC1CC[NH2+]CC1 (cis-trans isomerization)
O=c1c2cc(Cl)ccc2nc(/C=C/c2cccc(N3CCCCC3)c2)n1CC1CC[NH2+]CC1 (3D coordinates assigned)
O=c1c2cc(Cl)ccc2nc(/C=C/c2cccc(N3CCCCC3)c2)n1CC1CC[NH2+]CC1 (nonaromatic ring conformer: 88.43498537460377 kcal/mol)

>  <smiles>  (40) 
O=c1c2cc(Cl)ccc2nc(/C=C/c2cccc(N3CCCCC3)c2)n1CC1CCNCC1

>  <score_type>  (40) 
oracle

>  <origin>  (40) 
autodockgpu

>  <m_score__min__energy>  (40) 
-9.5

>  <m_primary>  (40) 
energy

>  <meeko>  (40) 
{"free_energy": -7.59, "intermolecular_energy": -9.38, "internal_energy": -2.56, "cluster_size": 1, "cluster_id": 10, "rank_in_cluster": 1}

>  <energy>  (40) 
-7.59

>  <cluster_rmsd>  (40) 
0.0

>  <rmsd>  (40) 
270.27

>  <cluster>  (40) 
10

$$$$
KTDBAWTUPMOUSA-RJHOSBTDNA-O
     RDKit          3D

 65 69  0  0  0  0  0  0  0  0999 V2000
  141.4685   72.8898  220.6732 H   0  0  0  0  0  0  0  0  0  0  0  0
  140.8550   73.3760  221.4460 C   0  0  0  0  0  0  0  0  0  0  0  0
  140.8560   74.7180  221.4980 C   0  0  0  0  0  0  0  0  0  0  0  0
  141.8132   75.2437  221.6300 H   0  0  0  0  0  0  0  0  0  0  0  0
  139.6040   75.5200  221.3830 C   0  0  0  0  0  0  0  0  0  0  0  0
  138.7070   75.4330  222.4030 N   0  0  0  0  0  0  0  0  0  0  0  0
  137.5600   76.1440  222.4240 C   0  0  0  0  0  0  0  0  0  0  0  0
  136.6760   76.0170  223.5010 C   0  0  0  0  0  0  0  0  0  0  0  0
  136.9134   75.3328  224.3289 H   0  0  0  0  0  0  0  0  0  0  0  0
  135.4910   76.7590  223.5260 C   0  0  0  0  0  0  0  0  0  0  0  0
  134.7971   76.6578  224.3735 H   0  0  0  0  0  0  0  0  0  0  0  0
  135.1870   77.6300  222.4740 C   0  0  0  0  0  0  0  0  0  0  0  0
  133.7000   78.5590  222.5100 Cl  0  0  0  0  0  0  0  0  0  0  0  0
  136.0680   77.7580  221.3940 C   0  0  0  0  0  0  0  0  0  0  0  0
  135.8260   78.4412  220.5666 H   0  0  0  0  0  0  0  0  0  0  0  0
  137.2640   77.0140  221.3640 C   0  0  0  0  0  0  0  0  0  0  0  0
  138.1810   77.1060  220.3060 C   0  0  0  0  0  0  0  0  0  0  0  0
  137.9250   77.8770  219.3370 O   0  0  0  0  0  0  0  0  0  0  0  0
  139.3440   76.3660  220.3160 N   0  0  0  0  0  0  0  0  0  0  0  0
  140.2650   76.4930  219.1590 C   0  0  0  0  0  0  0  0  0  0  0  0
  140.7200   75.5114  218.9602 H   0  0  0  0  0  0  0  0  0  0  0  0
  139.6768   76.8461  218.2992 H   0  0  0  0  0  0  0  0  0  0  0  0
  141.3960   77.5240  219.4140 C   0  0  0  0  0  0  0  0  0  0  0  0
  141.5670   77.5534  220.5002 H   0  0  0  0  0  0  0  0  0  0  0  0
  142.7580   77.1140  218.7950 C   0  0  0  0  0  0  0  0  0  0  0  0
  143.5688   77.4520  219.4571 H   0  0  0  0  0  0  0  0  0  0  0  0
  142.7749   76.0195  218.6868 H   0  0  0  0  0  0  0  0  0  0  0  0
  142.9510   77.7410  217.4080 C   0  0  0  0  0  0  0  0  0  0  0  0
  143.9132   77.4015  216.9970 H   0  0  0  0  0  0  0  0  0  0  0  0
  142.1096   77.4233  216.7747 H   0  0  0  0  0  0  0  0  0  0  0  0
  142.9490   79.2210  217.4560 N   0  0  0  0  0  0  0  0  0  0  0  0
  143.9370   79.5600  217.5380 H   0  0  0  0  0  0  0  0  0  0  0  0
  142.5700   79.5810  216.5480 H   0  0  0  0  0  0  0  0  0  0  0  0
  142.1600   79.8000  218.5660 C   0  0  0  0  0  0  0  0  0  0  0  0
  142.8073   79.8946  219.4503 H   0  0  0  0  0  0  0  0  0  0  0  0
  141.7852   80.7817  218.2406 H   0  0  0  0  0  0  0  0  0  0  0  0
  140.9510   78.9270  218.9280 C   0  0  0  0  0  0  0  0  0  0  0  0
  140.3802   79.4195  219.7290 H   0  0  0  0  0  0  0  0  0  0  0  0
  140.3303   78.8025  218.0284 H   0  0  0  0  0  0  0  0  0  0  0  0
  140.0770   72.5060  222.3670 C   0  0  0  0  0  0  0  0  0  0  0  0
  138.7300   72.2490  222.0640 C   0  0  0  0  0  0  0  0  0  0  0  0
  138.2874   72.6724  221.1503 H   0  0  0  0  0  0  0  0  0  0  0  0
  137.9470   71.4620  222.9100 C   0  0  0  0  0  0  0  0  0  0  0  0
  136.8935   71.2686  222.6595 H   0  0  0  0  0  0  0  0  0  0  0  0
  138.4970   70.9190  224.0740 C   0  0  0  0  0  0  0  0  0  0  0  0
  137.8748   70.2994  224.7366 H   0  0  0  0  0  0  0  0  0  0  0  0
  139.8400   71.1610  224.4010 C   0  0  0  0  0  0  0  0  0  0  0  0
  140.4030   70.6250  225.6120 N   0  0  0  0  0  0  0  0  0  0  0  0
  140.2750   69.1880  225.9010 C   0  0  0  0  0  0  0  0  0  0  0  0
  139.2412   68.8725  225.6965 H   0  0  0  0  0  0  0  0  0  0  0  0
  140.9837   68.6418  225.2611 H   0  0  0  0  0  0  0  0  0  0  0  0
  140.6110   68.8790  227.3680 C   0  0  0  0  0  0  0  0  0  0  0  0
  140.2196   67.8844  227.6281 H   0  0  0  0  0  0  0  0  0  0  0  0
  141.7032   68.8998  227.4968 H   0  0  0  0  0  0  0  0  0  0  0  0
  139.9800   69.9280  228.2910 C   0  0  0  0  0  0  0  0  0  0  0  0
  138.8870   69.8889  228.1737 H   0  0  0  0  0  0  0  0  0  0  0  0
  140.2855   69.6930  229.3213 H   0  0  0  0  0  0  0  0  0  0  0  0
  140.4610   71.3620  227.9750 C   0  0  0  0  0  0  0  0  0  0  0  0
  139.5991   72.0419  228.0450 H   0  0  0  0  0  0  0  0  0  0  0  0
  141.2464   71.6086  228.7047 H   0  0  0  0  0  0  0  0  0  0  0  0
  141.0820   71.5050  226.5750 C   0  0  0  0  0  0  0  0  0  0  0  0
  140.9841   72.5487  226.2416 H   0  0  0  0  0  0  0  0  0  0  0  0
  142.1428   71.2189  226.6281 H   0  0  0  0  0  0  0  0  0  0  0  0
  140.6210   71.9650  223.5530 C   0  0  0  0  0  0  0  0  0  0  0  0
  141.6682   72.1754  223.8160 H   0  0  0  0  0  0  0  0  0  0  0  0
  1  2  1  0
  2  3  2  0
  3  4  1  0
  3  5  1  0
  5  6  2  0
  6  7  1  0
  7  8  2  0
  8  9  1  0
  8 10  1  0
 10 11  1  0
 10 12  2  0
 12 13  1  0
 12 14  1  0
 14 15  1  0
 14 16  2  0
 16 17  1  0
 17 18  2  0
 17 19  1  0
 19 20  1  0
 20 21  1  0
 20 22  1  0
 20 23  1  0
 23 24  1  0
 23 25  1  0
 25 26  1  0
 25 27  1  0
 25 28  1  0
 28 29  1  0
 28 30  1  0
 28 31  1  0
 31 32  1  0
 31 33  1  0
 31 34  1  0
 34 35  1  0
 34 36  1  0
 34 37  1  0
 37 38  1  0
 37 39  1  0
  2 40  1  0
 40 41  2  0
 41 42  1  0
 41 43  1  0
 43 44  1  0
 43 45  2  0
 45 46  1  0
 45 47  1  0
 47 48  1  0
 48 49  1  0
 49 50  1  0
 49 51  1  0
 49 52  1  0
 52 53  1  0
 52 54  1  0
 52 55  1  0
 55 56  1  0
 55 57  1  0
 55 58  1  0
 58 59  1  0
 58 60  1  0
 58 61  1  0
 61 62  1  0
 61 63  1  0
 47 64  2  0
 64 65  1  0
 19  5  1  0
 37 23  1  0
 64 40  1  0
 16  7  1  0
 61 48  1  0
M  CHG  1  31   1
M  END
>  <UniqueID>  (41) 
420

>  <SMILES>  (41) 
O=c1c2cc(Cl)ccc2nc(/C=C/c2cccc(N3CCCCC3)c2)n1CC1CC[NH2+]CC1

>  <Energy>  (41) 
91.29702256205324

>  <Genealogy>  (41) 
O=c1c2cc(Cl)ccc2nc(/C=C/c2cccc(N3CCCCC3)c2)n1CC1CC[NH2+]CC1 (protonated)
O=c1c2cc(Cl)ccc2nc(/C=C/c2cccc(N3CCCCC3)c2)n1CC1CC[NH2+]CC1 (cis-trans isomerization)
O=c1c2cc(Cl)ccc2nc(/C=C/c2cccc(N3CCCCC3)c2)n1CC1CC[NH2+]CC1 (3D coordinates assigned)
O=c1c2cc(Cl)ccc2nc(/C=C/c2cccc(N3CCCCC3)c2)n1CC1CC[NH2+]CC1 (nonaromatic ring conformer: 91.29702256205324 kcal/mol)

>  <smiles>  (41) 
O=c1c2cc(Cl)ccc2nc(/C=C/c2cccc(N3CCCCC3)c2)n1CC1CCNCC1

>  <score_type>  (41) 
oracle

>  <origin>  (41) 
autodockgpu

>  <m_score__min__energy>  (41) 
-9.5

>  <m_primary>  (41) 
energy

>  <meeko>  (41) 
{"free_energy": -8.35, "intermolecular_energy": -10.14, "internal_energy": -1.61, "cluster_size": 2, "cluster_id": 4, "rank_in_cluster": 2}

>  <energy>  (41) 
-9.5

>  <cluster_rmsd>  (41) 
0.0

>  <rmsd>  (41) 
269.14

>  <cluster>  (41) 
1

$$$$
KTDBAWTUPMOUSA-RJHOSBTDNA-O
     RDKit          3D

 65 69  0  0  0  0  0  0  0  0999 V2000
  142.2689   73.1537  221.5975 H   0  0  0  0  0  0  0  0  0  0  0  0
  141.1820   73.3210  221.5720 C   0  0  0  0  0  0  0  0  0  0  0  0
  140.7190   74.3310  220.8180 C   0  0  0  0  0  0  0  0  0  0  0  0
  141.0635   74.4187  219.7770 H   0  0  0  0  0  0  0  0  0  0  0  0
  139.7530   75.3380  221.3450 C   0  0  0  0  0  0  0  0  0  0  0  0
  138.5590   74.8790  221.8100 N   0  0  0  0  0  0  0  0  0  0  0  0
  137.6270   75.6950  222.3460 C   0  0  0  0  0  0  0  0  0  0  0  0
  136.4170   75.1670  222.8110 C   0  0  0  0  0  0  0  0  0  0  0  0
  136.2236   74.0868  222.7350 H   0  0  0  0  0  0  0  0  0  0  0  0
  135.4540   76.0110  223.3720 C   0  0  0  0  0  0  0  0  0  0  0  0
  134.5035   75.5943  223.7367 H   0  0  0  0  0  0  0  0  0  0  0  0
  135.6980   77.3850  223.4700 C   0  0  0  0  0  0  0  0  0  0  0  0
  134.4870   78.4400  224.1750 Cl  0  0  0  0  0  0  0  0  0  0  0  0
  136.9060   77.9170  223.0030 C   0  0  0  0  0  0  0  0  0  0  0  0
  137.0948   78.9981  223.0776 H   0  0  0  0  0  0  0  0  0  0  0  0
  137.8800   77.0710  222.4380 C   0  0  0  0  0  0  0  0  0  0  0  0
  139.1070   77.5540  221.9570 C   0  0  0  0  0  0  0  0  0  0  0  0
  139.3480   78.7930  222.0230 O   0  0  0  0  0  0  0  0  0  0  0  0
  140.0380   76.6930  221.4170 N   0  0  0  0  0  0  0  0  0  0  0  0
  141.3100   77.2660  220.9070 C   0  0  0  0  0  0  0  0  0  0  0  0
  141.4635   78.2524  221.3689 H   0  0  0  0  0  0  0  0  0  0  0  0
  142.1203   76.5691  221.1671 H   0  0  0  0  0  0  0  0  0  0  0  0
  141.3060   77.4330  219.3650 C   0  0  0  0  0  0  0  0  0  0  0  0
  140.4982   76.7971  218.9737 H   0  0  0  0  0  0  0  0  0  0  0  0
  140.9590   78.8720  218.9000 C   0  0  0  0  0  0  0  0  0  0  0  0
  140.3816   78.8172  217.9653 H   0  0  0  0  0  0  0  0  0  0  0  0
  140.3721   79.3608  219.6916 H   0  0  0  0  0  0  0  0  0  0  0  0
  142.2280   79.7000  218.6560 C   0  0  0  0  0  0  0  0  0  0  0  0
  141.9351   80.7173  218.3572 H   0  0  0  0  0  0  0  0  0  0  0  0
  142.8100   79.7085  219.5894 H   0  0  0  0  0  0  0  0  0  0  0  0
  143.0810   79.1180  217.5940 N   0  0  0  0  0  0  0  0  0  0  0  0
  142.8400   79.5680  216.6790 H   0  0  0  0  0  0  0  0  0  0  0  0
  144.0790   79.3560  217.8050 H   0  0  0  0  0  0  0  0  0  0  0  0
  142.9610   77.6510  217.4430 C   0  0  0  0  0  0  0  0  0  0  0  0
  142.1461   77.4320  216.7373 H   0  0  0  0  0  0  0  0  0  0  0  0
  143.9227   77.2676  217.0712 H   0  0  0  0  0  0  0  0  0  0  0  0
  142.6590   76.9590  218.7790 C   0  0  0  0  0  0  0  0  0  0  0  0
  142.6186   75.8716  218.6182 H   0  0  0  0  0  0  0  0  0  0  0  0
  143.4558   77.2176  219.4919 H   0  0  0  0  0  0  0  0  0  0  0  0
  140.3190   72.4140  222.3750 C   0  0  0  0  0  0  0  0  0  0  0  0
  139.0470   72.0890  221.8750 C   0  0  0  0  0  0  0  0  0  0  0  0
  138.7266   72.4872  220.9009 H   0  0  0  0  0  0  0  0  0  0  0  0
  138.1860   71.2660  222.6020 C   0  0  0  0  0  0  0  0  0  0  0  0
  137.1925   71.0202  222.1988 H   0  0  0  0  0  0  0  0  0  0  0  0
  138.5810   70.7530  223.8400 C   0  0  0  0  0  0  0  0  0  0  0  0
  137.8975   70.1046  224.4078 H   0  0  0  0  0  0  0  0  0  0  0  0
  139.8470   71.0620  224.3620 C   0  0  0  0  0  0  0  0  0  0  0  0
  140.2470   70.5580  225.6490 N   0  0  0  0  0  0  0  0  0  0  0  0
  139.8390   69.2060  226.0610 C   0  0  0  0  0  0  0  0  0  0  0  0
  138.7738   69.0664  225.8249 H   0  0  0  0  0  0  0  0  0  0  0  0
  140.4588   68.4775  225.5178 H   0  0  0  0  0  0  0  0  0  0  0  0
  140.0490   68.9900  227.5670 C   0  0  0  0  0  0  0  0  0  0  0  0
  139.4665   68.1156  227.8929 H   0  0  0  0  0  0  0  0  0  0  0  0
  141.1192   68.8226  227.7587 H   0  0  0  0  0  0  0  0  0  0  0  0
  139.5890   70.2250  228.3510 C   0  0  0  0  0  0  0  0  0  0  0  0
  138.5140   70.3757  228.1730 H   0  0  0  0  0  0  0  0  0  0  0  0
  139.8010   70.0437  229.4151 H   0  0  0  0  0  0  0  0  0  0  0  0
  140.3450   71.5060  227.9330 C   0  0  0  0  0  0  0  0  0  0  0  0
  139.6250   72.3364  227.8886 H   0  0  0  0  0  0  0  0  0  0  0  0
  141.1323   71.6761  228.6822 H   0  0  0  0  0  0  0  0  0  0  0  0
  141.0390   71.3900  226.5660 C   0  0  0  0  0  0  0  0  0  0  0  0
  141.1542   72.3948  226.1333 H   0  0  0  0  0  0  0  0  0  0  0  0
  142.0233   70.9200  226.7084 H   0  0  0  0  0  0  0  0  0  0  0  0
  140.7060   71.9030  223.6330 C   0  0  0  0  0  0  0  0  0  0  0  0
  141.6905   72.1658  224.0473 H   0  0  0  0  0  0  0  0  0  0  0  0
  1  2  1  0
  2  3  2  0
  3  4  1  0
  3  5  1  0
  5  6  2  0
  6  7  1  0
  7  8  2  0
  8  9  1  0
  8 10  1  0
 10 11  1  0
 10 12  2  0
 12 13  1  0
 12 14  1  0
 14 15  1  0
 14 16  2  0
 16 17  1  0
 17 18  2  0
 17 19  1  0
 19 20  1  0
 20 21  1  0
 20 22  1  0
 20 23  1  0
 23 24  1  0
 23 25  1  0
 25 26  1  0
 25 27  1  0
 25 28  1  0
 28 29  1  0
 28 30  1  0
 28 31  1  0
 31 32  1  0
 31 33  1  0
 31 34  1  0
 34 35  1  0
 34 36  1  0
 34 37  1  0
 37 38  1  0
 37 39  1  0
  2 40  1  0
 40 41  2  0
 41 42  1  0
 41 43  1  0
 43 44  1  0
 43 45  2  0
 45 46  1  0
 45 47  1  0
 47 48  1  0
 48 49  1  0
 49 50  1  0
 49 51  1  0
 49 52  1  0
 52 53  1  0
 52 54  1  0
 52 55  1  0
 55 56  1  0
 55 57  1  0
 55 58  1  0
 58 59  1  0
 58 60  1  0
 58 61  1  0
 61 62  1  0
 61 63  1  0
 47 64  2  0
 64 65  1  0
 19  5  1  0
 37 23  1  0
 64 40  1  0
 16  7  1  0
 61 48  1  0
M  CHG  1  31   1
M  END
>  <UniqueID>  (42) 
420

>  <SMILES>  (42) 
O=c1c2cc(Cl)ccc2nc(/C=C/c2cccc(N3CCCCC3)c2)n1CC1CC[NH2+]CC1

>  <Energy>  (42) 
91.29702256205324

>  <Genealogy>  (42) 
O=c1c2cc(Cl)ccc2nc(/C=C/c2cccc(N3CCCCC3)c2)n1CC1CC[NH2+]CC1 (protonated)
O=c1c2cc(Cl)ccc2nc(/C=C/c2cccc(N3CCCCC3)c2)n1CC1CC[NH2+]CC1 (cis-trans isomerization)
O=c1c2cc(Cl)ccc2nc(/C=C/c2cccc(N3CCCCC3)c2)n1CC1CC[NH2+]CC1 (3D coordinates assigned)
O=c1c2cc(Cl)ccc2nc(/C=C/c2cccc(N3CCCCC3)c2)n1CC1CC[NH2+]CC1 (nonaromatic ring conformer: 91.29702256205324 kcal/mol)

>  <smiles>  (42) 
O=c1c2cc(Cl)ccc2nc(/C=C/c2cccc(N3CCCCC3)c2)n1CC1CCNCC1

>  <score_type>  (42) 
oracle

>  <origin>  (42) 
autodockgpu

>  <m_score__min__energy>  (42) 
-9.5

>  <m_primary>  (42) 
energy

>  <meeko>  (42) 
{"free_energy": -9.02, "intermolecular_energy": -10.81, "internal_energy": -1.52, "cluster_size": 2, "cluster_id": 4, "rank_in_cluster": 1}

>  <energy>  (42) 
-9.16

>  <cluster_rmsd>  (42) 
0.81

>  <rmsd>  (42) 
269.39

>  <cluster>  (42) 
1

$$$$
KTDBAWTUPMOUSA-RJHOSBTDNA-O
     RDKit          3D

 65 69  0  0  0  0  0  0  0  0999 V2000
  142.0346   73.0816  221.5166 H   0  0  0  0  0  0  0  0  0  0  0  0
  140.9410   73.1940  221.4800 C   0  0  0  0  0  0  0  0  0  0  0  0
  140.4270   74.0520  220.5840 C   0  0  0  0  0  0  0  0  0  0  0  0
  139.8843   73.6512  219.7151 H   0  0  0  0  0  0  0  0  0  0  0  0
  140.5670   75.5300  220.7270 C   0  0  0  0  0  0  0  0  0  0  0  0
  140.9080   76.0110  221.9530 N   0  0  0  0  0  0  0  0  0  0  0  0
  141.1010   77.3270  222.1870 C   0  0  0  0  0  0  0  0  0  0  0  0
  141.4540   77.7660  223.4680 C   0  0  0  0  0  0  0  0  0  0  0  0
  141.5687   77.0394  224.2859 H   0  0  0  0  0  0  0  0  0  0  0  0
  141.6610   79.1280  223.7090 C   0  0  0  0  0  0  0  0  0  0  0  0
  141.9392   79.4712  224.7164 H   0  0  0  0  0  0  0  0  0  0  0  0
  141.5150   80.0540  222.6720 C   0  0  0  0  0  0  0  0  0  0  0  0
  141.7750   81.7610  222.9790 Cl  0  0  0  0  0  0  0  0  0  0  0  0
  141.1600   79.6180  221.3900 C   0  0  0  0  0  0  0  0  0  0  0  0
  141.0439   80.3479  220.5753 H   0  0  0  0  0  0  0  0  0  0  0  0
  140.9510   78.2480  221.1400 C   0  0  0  0  0  0  0  0  0  0  0  0
  140.5950   77.7590  219.8740 C   0  0  0  0  0  0  0  0  0  0  0  0
  140.4450   78.5760  218.9200 O   0  0  0  0  0  0  0  0  0  0  0  0
  140.4070   76.4090  219.6680 N   0  0  0  0  0  0  0  0  0  0  0  0
  140.0120   75.9560  218.3100 C   0  0  0  0  0  0  0  0  0  0  0  0
  139.5247   74.9733  218.3929 H   0  0  0  0  0  0  0  0  0  0  0  0
  139.3294   76.7093  217.8898 H   0  0  0  0  0  0  0  0  0  0  0  0
  141.2270   75.8310  217.3530 C   0  0  0  0  0  0  0  0  0  0  0  0
  141.2312   74.8005  216.9682 H   0  0  0  0  0  0  0  0  0  0  0  0
  141.1210   76.7380  216.0990 C   0  0  0  0  0  0  0  0  0  0  0  0
  141.5726   76.2179  215.2414 H   0  0  0  0  0  0  0  0  0  0  0  0
  140.0576   76.9477  215.9111 H   0  0  0  0  0  0  0  0  0  0  0  0
  141.8470   78.0720  216.3130 C   0  0  0  0  0  0  0  0  0  0  0  0
  141.7219   78.6914  215.4126 H   0  0  0  0  0  0  0  0  0  0  0  0
  141.4078   78.5563  217.1976 H   0  0  0  0  0  0  0  0  0  0  0  0
  143.2940   77.8890  216.5680 N   0  0  0  0  0  0  0  0  0  0  0  0
  143.8120   77.9700  215.6610 H   0  0  0  0  0  0  0  0  0  0  0  0
  143.6220   78.6690  217.1850 H   0  0  0  0  0  0  0  0  0  0  0  0
  143.6490   76.5990  217.1990 C   0  0  0  0  0  0  0  0  0  0  0  0
  143.8185   75.8522  216.4094 H   0  0  0  0  0  0  0  0  0  0  0  0
  144.5561   76.7538  217.8016 H   0  0  0  0  0  0  0  0  0  0  0  0
  142.5410   76.0910  218.1320 C   0  0  0  0  0  0  0  0  0  0  0  0
  142.8705   75.1530  218.6027 H   0  0  0  0  0  0  0  0  0  0  0  0
  142.3475   76.8606  218.8938 H   0  0  0  0  0  0  0  0  0  0  0  0
  140.1260   72.3860  222.4260 C   0  0  0  0  0  0  0  0  0  0  0  0
  138.7570   72.2210  222.1540 C   0  0  0  0  0  0  0  0  0  0  0  0
  138.3246   72.6671  221.2463 H   0  0  0  0  0  0  0  0  0  0  0  0
  137.9410   71.4970  223.0240 C   0  0  0  0  0  0  0  0  0  0  0  0
  136.8715   71.3747  222.7978 H   0  0  0  0  0  0  0  0  0  0  0  0
  138.4770   70.9270  224.1810 C   0  0  0  0  0  0  0  0  0  0  0  0
  137.8280   70.3577  224.8627 H   0  0  0  0  0  0  0  0  0  0  0  0
  139.8410   71.0780  224.4770 C   0  0  0  0  0  0  0  0  0  0  0  0
  140.3920   70.5140  225.6820 N   0  0  0  0  0  0  0  0  0  0  0  0
  140.2240   69.0790  225.9570 C   0  0  0  0  0  0  0  0  0  0  0  0
  139.1811   68.7953  225.7526 H   0  0  0  0  0  0  0  0  0  0  0  0
  140.9153   68.5197  225.3095 H   0  0  0  0  0  0  0  0  0  0  0  0
  140.5550   68.7450  227.4190 C   0  0  0  0  0  0  0  0  0  0  0  0
  140.1364   67.7592  227.6698 H   0  0  0  0  0  0  0  0  0  0  0  0
  141.6477   68.7334  227.5449 H   0  0  0  0  0  0  0  0  0  0  0  0
  139.9560   69.8020  228.3550 C   0  0  0  0  0  0  0  0  0  0  0  0
  138.8619   69.7945  228.2412 H   0  0  0  0  0  0  0  0  0  0  0  0
  140.2577   69.5484  229.3819 H   0  0  0  0  0  0  0  0  0  0  0  0
  140.4760   71.2250  228.0510 C   0  0  0  0  0  0  0  0  0  0  0  0
  139.6335   71.9279  228.1301 H   0  0  0  0  0  0  0  0  0  0  0  0
  141.2702   71.4420  228.7805 H   0  0  0  0  0  0  0  0  0  0  0  0
  141.0970   71.3650  226.6510 C   0  0  0  0  0  0  0  0  0  0  0  0
  141.0268   72.4142  226.3282 H   0  0  0  0  0  0  0  0  0  0  0  0
  142.1498   71.0496  226.6982 H   0  0  0  0  0  0  0  0  0  0  0  0
  140.6570   71.8180  223.6050 C   0  0  0  0  0  0  0  0  0  0  0  0
  141.7219   71.9566  223.8433 H   0  0  0  0  0  0  0  0  0  0  0  0
  1  2  1  0
  2  3  2  0
  3  4  1  0
  3  5  1  0
  5  6  2  0
  6  7  1  0
  7  8  2  0
  8  9  1  0
  8 10  1  0
 10 11  1  0
 10 12  2  0
 12 13  1  0
 12 14  1  0
 14 15  1  0
 14 16  2  0
 16 17  1  0
 17 18  2  0
 17 19  1  0
 19 20  1  0
 20 21  1  0
 20 22  1  0
 20 23  1  0
 23 24  1  0
 23 25  1  0
 25 26  1  0
 25 27  1  0
 25 28  1  0
 28 29  1  0
 28 30  1  0
 28 31  1  0
 31 32  1  0
 31 33  1  0
 31 34  1  0
 34 35  1  0
 34 36  1  0
 34 37  1  0
 37 38  1  0
 37 39  1  0
  2 40  1  0
 40 41  2  0
 41 42  1  0
 41 43  1  0
 43 44  1  0
 43 45  2  0
 45 46  1  0
 45 47  1  0
 47 48  1  0
 48 49  1  0
 49 50  1  0
 49 51  1  0
 49 52  1  0
 52 53  1  0
 52 54  1  0
 52 55  1  0
 55 56  1  0
 55 57  1  0
 55 58  1  0
 58 59  1  0
 58 60  1  0
 58 61  1  0
 61 62  1  0
 61 63  1  0
 47 64  2  0
 64 65  1  0
 19  5  1  0
 37 23  1  0
 64 40  1  0
 16  7  1  0
 61 48  1  0
M  CHG  1  31   1
M  END
>  <UniqueID>  (43) 
420

>  <SMILES>  (43) 
O=c1c2cc(Cl)ccc2nc(/C=C/c2cccc(N3CCCCC3)c2)n1CC1CC[NH2+]CC1

>  <Energy>  (43) 
91.29702256205324

>  <Genealogy>  (43) 
O=c1c2cc(Cl)ccc2nc(/C=C/c2cccc(N3CCCCC3)c2)n1CC1CC[NH2+]CC1 (protonated)
O=c1c2cc(Cl)ccc2nc(/C=C/c2cccc(N3CCCCC3)c2)n1CC1CC[NH2+]CC1 (cis-trans isomerization)
O=c1c2cc(Cl)ccc2nc(/C=C/c2cccc(N3CCCCC3)c2)n1CC1CC[NH2+]CC1 (3D coordinates assigned)
O=c1c2cc(Cl)ccc2nc(/C=C/c2cccc(N3CCCCC3)c2)n1CC1CC[NH2+]CC1 (nonaromatic ring conformer: 91.29702256205324 kcal/mol)

>  <smiles>  (43) 
O=c1c2cc(Cl)ccc2nc(/C=C/c2cccc(N3CCCCC3)c2)n1CC1CCNCC1

>  <score_type>  (43) 
oracle

>  <origin>  (43) 
autodockgpu

>  <m_score__min__energy>  (43) 
-9.5

>  <m_primary>  (43) 
energy

>  <meeko>  (43) 
{"free_energy": -9.26, "intermolecular_energy": -11.05, "internal_energy": -1.5, "cluster_size": 1, "cluster_id": 2, "rank_in_cluster": 1}

>  <energy>  (43) 
-9.26

>  <cluster_rmsd>  (43) 
0.0

>  <rmsd>  (43) 
269.71

>  <cluster>  (43) 
2

$$$$
KTDBAWTUPMOUSA-RJHOSBTDNA-O
     RDKit          3D

 65 69  0  0  0  0  0  0  0  0999 V2000
  140.8010   74.4682  222.1351 H   0  0  0  0  0  0  0  0  0  0  0  0
  140.7850   73.5040  221.6060 C   0  0  0  0  0  0  0  0  0  0  0  0
  141.2450   73.4710  220.3450 C   0  0  0  0  0  0  0  0  0  0  0  0
  140.7687   74.1123  219.5888 H   0  0  0  0  0  0  0  0  0  0  0  0
  142.3790   72.5950  219.9350 C   0  0  0  0  0  0  0  0  0  0  0  0
  142.1950   71.2500  220.0170 N   0  0  0  0  0  0  0  0  0  0  0  0
  143.1390   70.3630  219.6350 C   0  0  0  0  0  0  0  0  0  0  0  0
  142.8930   68.9900  219.7390 C   0  0  0  0  0  0  0  0  0  0  0  0
  141.9323   68.6325  220.1379 H   0  0  0  0  0  0  0  0  0  0  0  0
  143.8680   68.0710  219.3360 C   0  0  0  0  0  0  0  0  0  0  0  0
  143.6734   66.9915  219.4187 H   0  0  0  0  0  0  0  0  0  0  0  0
  145.0900   68.5240  218.8280 C   0  0  0  0  0  0  0  0  0  0  0  0
  146.3100   67.3680  218.3240 Cl  0  0  0  0  0  0  0  0  0  0  0  0
  145.3400   69.8970  218.7250 C   0  0  0  0  0  0  0  0  0  0  0  0
  146.3030   70.2509  218.3282 H   0  0  0  0  0  0  0  0  0  0  0  0
  144.3620   70.8270  219.1280 C   0  0  0  0  0  0  0  0  0  0  0  0
  144.5620   72.2130  219.0430 C   0  0  0  0  0  0  0  0  0  0  0  0
  145.6620   72.6500  218.5990 O   0  0  0  0  0  0  0  0  0  0  0  0
  143.5770   73.0920  219.4420 N   0  0  0  0  0  0  0  0  0  0  0  0
  143.8550   74.5470  219.3460 C   0  0  0  0  0  0  0  0  0  0  0  0
  143.6314   75.0141  220.3165 H   0  0  0  0  0  0  0  0  0  0  0  0
  144.9139   74.6689  219.0744 H   0  0  0  0  0  0  0  0  0  0  0  0
  143.0030   75.2410  218.2510 C   0  0  0  0  0  0  0  0  0  0  0  0
  142.2572   74.5083  217.9091 H   0  0  0  0  0  0  0  0  0  0  0  0
  142.1820   76.4470  218.7780 C   0  0  0  0  0  0  0  0  0  0  0  0
  141.2227   76.4892  218.2415 H   0  0  0  0  0  0  0  0  0  0  0  0
  142.0189   76.3107  219.8573 H   0  0  0  0  0  0  0  0  0  0  0  0
  142.9320   77.7680  218.5650 C   0  0  0  0  0  0  0  0  0  0  0  0
  142.3271   78.5889  218.9777 H   0  0  0  0  0  0  0  0  0  0  0  0
  143.9035   77.6897  219.0749 H   0  0  0  0  0  0  0  0  0  0  0  0
  143.1920   78.0410  217.1340 N   0  0  0  0  0  0  0  0  0  0  0  0
  142.4200   78.6380  216.7550 H   0  0  0  0  0  0  0  0  0  0  0  0
  144.0790   78.5930  217.0580 H   0  0  0  0  0  0  0  0  0  0  0  0
  143.3090   76.8320  216.2880 C   0  0  0  0  0  0  0  0  0  0  0  0
  142.3081   76.5529  215.9269 H   0  0  0  0  0  0  0  0  0  0  0  0
  143.9826   77.0669  215.4507 H   0  0  0  0  0  0  0  0  0  0  0  0
  143.9060   75.6470  217.0590 C   0  0  0  0  0  0  0  0  0  0  0  0
  144.0069   74.7897  216.3772 H   0  0  0  0  0  0  0  0  0  0  0  0
  144.8881   75.9474  217.4529 H   0  0  0  0  0  0  0  0  0  0  0  0
  140.2550   72.3190  222.3330 C   0  0  0  0  0  0  0  0  0  0  0  0
  139.2350   71.5670  221.7270 C   0  0  0  0  0  0  0  0  0  0  0  0
  138.8683   71.8514  220.7297 H   0  0  0  0  0  0  0  0  0  0  0  0
  138.6820   70.4630  222.3770 C   0  0  0  0  0  0  0  0  0  0  0  0
  137.8852   69.8821  221.8894 H   0  0  0  0  0  0  0  0  0  0  0  0
  139.1370   70.0930  223.6450 C   0  0  0  0  0  0  0  0  0  0  0  0
  138.6964   69.2222  224.1525 H   0  0  0  0  0  0  0  0  0  0  0  0
  140.1540   70.8280  224.2740 C   0  0  0  0  0  0  0  0  0  0  0  0
  140.6080   70.4660  225.5910 N   0  0  0  0  0  0  0  0  0  0  0  0
  140.4580   69.0790  226.0570 C   0  0  0  0  0  0  0  0  0  0  0  0
  139.4471   68.7248  225.8066 H   0  0  0  0  0  0  0  0  0  0  0  0
  141.2220   68.4627  225.5606 H   0  0  0  0  0  0  0  0  0  0  0  0
  140.6630   68.9720  227.5760 C   0  0  0  0  0  0  0  0  0  0  0  0
  140.2532   68.0149  227.9310 H   0  0  0  0  0  0  0  0  0  0  0  0
  141.7393   69.0259  227.7967 H   0  0  0  0  0  0  0  0  0  0  0  0
  139.9490   70.1240  228.2910 C   0  0  0  0  0  0  0  0  0  0  0  0
  138.8710   70.0534  228.0840 H   0  0  0  0  0  0  0  0  0  0  0  0
  140.1616   70.0324  229.3664 H   0  0  0  0  0  0  0  0  0  0  0  0
  140.4520   71.5100  227.8300 C   0  0  0  0  0  0  0  0  0  0  0  0
  139.5853   72.1803  227.7325 H   0  0  0  0  0  0  0  0  0  0  0  0
  141.1686   71.8624  228.5865 H   0  0  0  0  0  0  0  0  0  0  0  0
  141.1950   71.4760  226.4840 C   0  0  0  0  0  0  0  0  0  0  0  0
  141.1235   72.4647  226.0071 H   0  0  0  0  0  0  0  0  0  0  0  0
  142.2479   71.2159  226.6680 H   0  0  0  0  0  0  0  0  0  0  0  0
  140.7000   71.9470  223.6210 C   0  0  0  0  0  0  0  0  0  0  0  0
  141.4822   72.5392  224.1185 H   0  0  0  0  0  0  0  0  0  0  0  0
  1  2  1  0
  2  3  2  0
  3  4  1  0
  3  5  1  0
  5  6  2  0
  6  7  1  0
  7  8  2  0
  8  9  1  0
  8 10  1  0
 10 11  1  0
 10 12  2  0
 12 13  1  0
 12 14  1  0
 14 15  1  0
 14 16  2  0
 16 17  1  0
 17 18  2  0
 17 19  1  0
 19 20  1  0
 20 21  1  0
 20 22  1  0
 20 23  1  0
 23 24  1  0
 23 25  1  0
 25 26  1  0
 25 27  1  0
 25 28  1  0
 28 29  1  0
 28 30  1  0
 28 31  1  0
 31 32  1  0
 31 33  1  0
 31 34  1  0
 34 35  1  0
 34 36  1  0
 34 37  1  0
 37 38  1  0
 37 39  1  0
  2 40  1  0
 40 41  2  0
 41 42  1  0
 41 43  1  0
 43 44  1  0
 43 45  2  0
 45 46  1  0
 45 47  1  0
 47 48  1  0
 48 49  1  0
 49 50  1  0
 49 51  1  0
 49 52  1  0
 52 53  1  0
 52 54  1  0
 52 55  1  0
 55 56  1  0
 55 57  1  0
 55 58  1  0
 58 59  1  0
 58 60  1  0
 58 61  1  0
 61 62  1  0
 61 63  1  0
 47 64  2  0
 64 65  1  0
 19  5  1  0
 37 23  1  0
 64 40  1  0
 16  7  1  0
 61 48  1  0
M  CHG  1  31   1
M  END
>  <UniqueID>  (44) 
420

>  <SMILES>  (44) 
O=c1c2cc(Cl)ccc2nc(/C=C/c2cccc(N3CCCCC3)c2)n1CC1CC[NH2+]CC1

>  <Energy>  (44) 
91.29702256205324

>  <Genealogy>  (44) 
O=c1c2cc(Cl)ccc2nc(/C=C/c2cccc(N3CCCCC3)c2)n1CC1CC[NH2+]CC1 (protonated)
O=c1c2cc(Cl)ccc2nc(/C=C/c2cccc(N3CCCCC3)c2)n1CC1CC[NH2+]CC1 (cis-trans isomerization)
O=c1c2cc(Cl)ccc2nc(/C=C/c2cccc(N3CCCCC3)c2)n1CC1CC[NH2+]CC1 (3D coordinates assigned)
O=c1c2cc(Cl)ccc2nc(/C=C/c2cccc(N3CCCCC3)c2)n1CC1CC[NH2+]CC1 (nonaromatic ring conformer: 91.29702256205324 kcal/mol)

>  <smiles>  (44) 
O=c1c2cc(Cl)ccc2nc(/C=C/c2cccc(N3CCCCC3)c2)n1CC1CCNCC1

>  <score_type>  (44) 
oracle

>  <origin>  (44) 
autodockgpu

>  <m_score__min__energy>  (44) 
-9.5

>  <m_primary>  (44) 
energy

>  <meeko>  (44) 
{"free_energy": -9.5, "intermolecular_energy": -11.29, "internal_energy": -1.53, "cluster_size": 2, "cluster_id": 1, "rank_in_cluster": 1}

>  <energy>  (44) 
-9.19

>  <cluster_rmsd>  (44) 
0.0

>  <rmsd>  (44) 
269.21

>  <cluster>  (44) 
3

$$$$
KTDBAWTUPMOUSA-RJHOSBTDNA-O
     RDKit          3D

 65 69  0  0  0  0  0  0  0  0999 V2000
  138.9044   73.2788  220.8512 H   0  0  0  0  0  0  0  0  0  0  0  0
  139.8030   72.8130  221.2820 C   0  0  0  0  0  0  0  0  0  0  0  0
  141.0000   73.3150  220.9350 C   0  0  0  0  0  0  0  0  0  0  0  0
  141.8202   72.6203  220.7013 H   0  0  0  0  0  0  0  0  0  0  0  0
  141.2540   74.7820  220.8560 C   0  0  0  0  0  0  0  0  0  0  0  0
  140.8340   75.5490  221.8980 N   0  0  0  0  0  0  0  0  0  0  0  0
  141.0470   76.8820  221.9500 C   0  0  0  0  0  0  0  0  0  0  0  0
  140.5960   77.6210  223.0490 C   0  0  0  0  0  0  0  0  0  0  0  0
  140.0628   77.1168  223.8685 H   0  0  0  0  0  0  0  0  0  0  0  0
  140.8220   78.9990  223.1070 C   0  0  0  0  0  0  0  0  0  0  0  0
  140.4665   79.5783  223.9718 H   0  0  0  0  0  0  0  0  0  0  0  0
  141.5000   79.6420  222.0660 C   0  0  0  0  0  0  0  0  0  0  0  0
  141.7820   81.3720  222.1430 Cl  0  0  0  0  0  0  0  0  0  0  0  0
  141.9510   78.9070  220.9640 C   0  0  0  0  0  0  0  0  0  0  0  0
  142.4815   79.4151  220.1452 H   0  0  0  0  0  0  0  0  0  0  0  0
  141.7270   77.5170  220.9010 C   0  0  0  0  0  0  0  0  0  0  0  0
  142.1590   76.7340  219.8200 C   0  0  0  0  0  0  0  0  0  0  0  0
  142.7640   77.2920  218.8600 O   0  0  0  0  0  0  0  0  0  0  0  0
  141.9270   75.3750  219.7980 N   0  0  0  0  0  0  0  0  0  0  0  0
  142.3910   74.6040  218.6180 C   0  0  0  0  0  0  0  0  0  0  0  0
  141.7342   73.7317  218.4852 H   0  0  0  0  0  0  0  0  0  0  0  0
  142.3545   75.2721  217.7449 H   0  0  0  0  0  0  0  0  0  0  0  0
  143.8530   74.1080  218.7740 C   0  0  0  0  0  0  0  0  0  0  0  0
  144.4368   74.5615  217.9594 H   0  0  0  0  0  0  0  0  0  0  0  0
  144.5310   74.5880  220.0840 C   0  0  0  0  0  0  0  0  0  0  0  0
  145.5970   74.7755  219.8877 H   0  0  0  0  0  0  0  0  0  0  0  0
  144.0285   75.5079  220.4176 H   0  0  0  0  0  0  0  0  0  0  0  0
  144.4050   73.5380  221.1950 C   0  0  0  0  0  0  0  0  0  0  0  0
  144.8735   73.9318  222.1090 H   0  0  0  0  0  0  0  0  0  0  0  0
  143.3346   73.3360  221.3479 H   0  0  0  0  0  0  0  0  0  0  0  0
  145.0610   72.2600  220.8360 N   0  0  0  0  0  0  0  0  0  0  0  0
  146.0390   72.2620  221.2100 H   0  0  0  0  0  0  0  0  0  0  0  0
  144.5470   71.4800  221.3100 H   0  0  0  0  0  0  0  0  0  0  0  0
  145.1150   71.9820  219.3830 C   0  0  0  0  0  0  0  0  0  0  0  0
  146.0323   72.4269  218.9699 H   0  0  0  0  0  0  0  0  0  0  0  0
  145.1056   70.8908  219.2447 H   0  0  0  0  0  0  0  0  0  0  0  0
  143.9040   72.5650  218.6420 C   0  0  0  0  0  0  0  0  0  0  0  0
  143.9732   72.2985  217.5770 H   0  0  0  0  0  0  0  0  0  0  0  0
  142.9895   72.1478  219.0888 H   0  0  0  0  0  0  0  0  0  0  0  0
  139.6160   71.6670  222.2120 C   0  0  0  0  0  0  0  0  0  0  0  0
  138.7900   70.6060  221.8030 C   0  0  0  0  0  0  0  0  0  0  0  0
  138.3226   70.6322  220.8076 H   0  0  0  0  0  0  0  0  0  0  0  0
  138.5570   69.5200  222.6470 C   0  0  0  0  0  0  0  0  0  0  0  0
  137.9094   68.6957  222.3137 H   0  0  0  0  0  0  0  0  0  0  0  0
  139.1440   69.4760  223.9150 C   0  0  0  0  0  0  0  0  0  0  0  0
  138.9561   68.6171  224.5760 H   0  0  0  0  0  0  0  0  0  0  0  0
  139.9720   70.5230  224.3480 C   0  0  0  0  0  0  0  0  0  0  0  0
  140.5560   70.4940  225.6630 N   0  0  0  0  0  0  0  0  0  0  0  0
  140.1450   69.4550  226.6200 C   0  0  0  0  0  0  0  0  0  0  0  0
  139.0487   69.3666  226.6032 H   0  0  0  0  0  0  0  0  0  0  0  0
  140.6179   68.5066  226.3252 H   0  0  0  0  0  0  0  0  0  0  0  0
  140.5970   69.7970  228.0480 C   0  0  0  0  0  0  0  0  0  0  0  0
  140.0278   69.1869  228.7647 H   0  0  0  0  0  0  0  0  0  0  0  0
  141.6722   69.5852  228.1434 H   0  0  0  0  0  0  0  0  0  0  0  0
  140.3530   71.2820  228.3420 C   0  0  0  0  0  0  0  0  0  0  0  0
  139.2743   71.4837  228.2667 H   0  0  0  0  0  0  0  0  0  0  0  0
  140.7342   71.4891  229.3528 H   0  0  0  0  0  0  0  0  0  0  0  0
  141.1000   72.2110  227.3600 C   0  0  0  0  0  0  0  0  0  0  0  0
  140.4330   73.0440  227.0932 H   0  0  0  0  0  0  0  0  0  0  0  0
  142.0125   72.5537  227.8698 H   0  0  0  0  0  0  0  0  0  0  0  0
  141.5420   71.5080  226.0660 C   0  0  0  0  0  0  0  0  0  0  0  0
  141.6401   72.2550  225.2645 H   0  0  0  0  0  0  0  0  0  0  0  0
  142.5072   71.0116  226.2449 H   0  0  0  0  0  0  0  0  0  0  0  0
  140.1930   71.6210  223.5000 C   0  0  0  0  0  0  0  0  0  0  0  0
  140.8230   72.4548  223.8434 H   0  0  0  0  0  0  0  0  0  0  0  0
  1  2  1  0
  2  3  2  0
  3  4  1  0
  3  5  1  0
  5  6  2  0
  6  7  1  0
  7  8  2  0
  8  9  1  0
  8 10  1  0
 10 11  1  0
 10 12  2  0
 12 13  1  0
 12 14  1  0
 14 15  1  0
 14 16  2  0
 16 17  1  0
 17 18  2  0
 17 19  1  0
 19 20  1  0
 20 21  1  0
 20 22  1  0
 20 23  1  0
 23 24  1  0
 23 25  1  0
 25 26  1  0
 25 27  1  0
 25 28  1  0
 28 29  1  0
 28 30  1  0
 28 31  1  0
 31 32  1  0
 31 33  1  0
 31 34  1  0
 34 35  1  0
 34 36  1  0
 34 37  1  0
 37 38  1  0
 37 39  1  0
  2 40  1  0
 40 41  2  0
 41 42  1  0
 41 43  1  0
 43 44  1  0
 43 45  2  0
 45 46  1  0
 45 47  1  0
 47 48  1  0
 48 49  1  0
 49 50  1  0
 49 51  1  0
 49 52  1  0
 52 53  1  0
 52 54  1  0
 52 55  1  0
 55 56  1  0
 55 57  1  0
 55 58  1  0
 58 59  1  0
 58 60  1  0
 58 61  1  0
 61 62  1  0
 61 63  1  0
 47 64  2  0
 64 65  1  0
 19  5  1  0
 37 23  1  0
 64 40  1  0
 16  7  1  0
 61 48  1  0
M  CHG  1  31   1
M  END
>  <UniqueID>  (45) 
420

>  <SMILES>  (45) 
O=c1c2cc(Cl)ccc2nc(/C=C/c2cccc(N3CCCCC3)c2)n1CC1CC[NH2+]CC1

>  <Energy>  (45) 
91.29702256205324

>  <Genealogy>  (45) 
O=c1c2cc(Cl)ccc2nc(/C=C/c2cccc(N3CCCCC3)c2)n1CC1CC[NH2+]CC1 (protonated)
O=c1c2cc(Cl)ccc2nc(/C=C/c2cccc(N3CCCCC3)c2)n1CC1CC[NH2+]CC1 (cis-trans isomerization)
O=c1c2cc(Cl)ccc2nc(/C=C/c2cccc(N3CCCCC3)c2)n1CC1CC[NH2+]CC1 (3D coordinates assigned)
O=c1c2cc(Cl)ccc2nc(/C=C/c2cccc(N3CCCCC3)c2)n1CC1CC[NH2+]CC1 (nonaromatic ring conformer: 91.29702256205324 kcal/mol)

>  <smiles>  (45) 
O=c1c2cc(Cl)ccc2nc(/C=C/c2cccc(N3CCCCC3)c2)n1CC1CCNCC1

>  <score_type>  (45) 
oracle

>  <origin>  (45) 
autodockgpu

>  <m_score__min__energy>  (45) 
-9.5

>  <m_primary>  (45) 
energy

>  <meeko>  (45) 
{"free_energy": -8.97, "intermolecular_energy": -10.76, "internal_energy": -1.45, "cluster_size": 1, "cluster_id": 5, "rank_in_cluster": 1}

>  <energy>  (45) 
-9.02

>  <cluster_rmsd>  (45) 
0.0

>  <rmsd>  (45) 
269.64

>  <cluster>  (45) 
4

$$$$
KTDBAWTUPMOUSA-RJHOSBTDNA-O
     RDKit          3D

 65 69  0  0  0  0  0  0  0  0999 V2000
  138.9261   74.1711  222.5186 H   0  0  0  0  0  0  0  0  0  0  0  0
  139.8070   73.9190  221.9100 C   0  0  0  0  0  0  0  0  0  0  0  0
  140.1000   72.6200  221.7360 C   0  0  0  0  0  0  0  0  0  0  0  0
  140.4163   72.2753  220.7404 H   0  0  0  0  0  0  0  0  0  0  0  0
  140.0110   71.6290  222.8470 C   0  0  0  0  0  0  0  0  0  0  0  0
  140.7200   71.8890  223.9780 N   0  0  0  0  0  0  0  0  0  0  0  0
  140.6810   71.0820  225.0600 C   0  0  0  0  0  0  0  0  0  0  0  0
  141.4290   71.4010  226.1990 C   0  0  0  0  0  0  0  0  0  0  0  0
  142.0534   72.3066  226.2109 H   0  0  0  0  0  0  0  0  0  0  0  0
  141.3830   70.5690  227.3220 C   0  0  0  0  0  0  0  0  0  0  0  0
  141.9716   70.8210  228.2165 H   0  0  0  0  0  0  0  0  0  0  0  0
  140.5900   69.4170  227.3100 C   0  0  0  0  0  0  0  0  0  0  0  0
  140.5360   68.3770  228.7210 Cl  0  0  0  0  0  0  0  0  0  0  0  0
  139.8420   69.0940  226.1710 C   0  0  0  0  0  0  0  0  0  0  0  0
  139.2209   68.1861  226.1617 H   0  0  0  0  0  0  0  0  0  0  0  0
  139.8830   69.9290  225.0370 C   0  0  0  0  0  0  0  0  0  0  0  0
  139.1520   69.6510  223.8720 C   0  0  0  0  0  0  0  0  0  0  0  0
  138.4360   68.6100  223.8300 O   0  0  0  0  0  0  0  0  0  0  0  0
  139.2130   70.4970  222.7850 N   0  0  0  0  0  0  0  0  0  0  0  0
  138.4320   70.1380  221.5740 C   0  0  0  0  0  0  0  0  0  0  0  0
  138.9862   70.4713  220.6842 H   0  0  0  0  0  0  0  0  0  0  0  0
  138.2922   69.0469  221.5754 H   0  0  0  0  0  0  0  0  0  0  0  0
  137.0270   70.7960  221.5620 C   0  0  0  0  0  0  0  0  0  0  0  0
  136.4200   70.2464  220.8275 H   0  0  0  0  0  0  0  0  0  0  0  0
  136.2680   70.6590  222.9080 C   0  0  0  0  0  0  0  0  0  0  0  0
  135.1936   70.5419  222.7031 H   0  0  0  0  0  0  0  0  0  0  0  0
  136.6610   69.7801  223.4401 H   0  0  0  0  0  0  0  0  0  0  0  0
  136.4760   71.8940  223.7940 C   0  0  0  0  0  0  0  0  0  0  0  0
  135.9453   71.7406  224.7452 H   0  0  0  0  0  0  0  0  0  0  0  0
  137.5575   72.0162  223.9533 H   0  0  0  0  0  0  0  0  0  0  0  0
  135.9680   73.1320  223.1590 N   0  0  0  0  0  0  0  0  0  0  0  0
  134.9850   73.3010  223.4810 H   0  0  0  0  0  0  0  0  0  0  0  0
  136.5480   73.9370  223.4930 H   0  0  0  0  0  0  0  0  0  0  0  0
  135.9810   73.1150  221.6800 C   0  0  0  0  0  0  0  0  0  0  0  0
  135.0328   72.6881  221.3214 H   0  0  0  0  0  0  0  0  0  0  0  0
  136.1093   74.1497  221.3294 H   0  0  0  0  0  0  0  0  0  0  0  0
  137.1420   72.2790  221.1250 C   0  0  0  0  0  0  0  0  0  0  0  0
  137.1280   72.3310  220.0263 H   0  0  0  0  0  0  0  0  0  0  0  0
  138.0838   72.6860  221.5217 H   0  0  0  0  0  0  0  0  0  0  0  0
  140.5980   75.0390  221.3320 C   0  0  0  0  0  0  0  0  0  0  0  0
  141.4860   74.7540  220.2820 C   0  0  0  0  0  0  0  0  0  0  0  0
  141.5623   73.7266  219.8964 H   0  0  0  0  0  0  0  0  0  0  0  0
  142.2730   75.7630  219.7230 C   0  0  0  0  0  0  0  0  0  0  0  0
  142.9634   75.5267  218.8999 H   0  0  0  0  0  0  0  0  0  0  0  0
  142.1870   77.0710  220.2050 C   0  0  0  0  0  0  0  0  0  0  0  0
  142.8107   77.8606  219.7607 H   0  0  0  0  0  0  0  0  0  0  0  0
  141.3080   77.3820  221.2540 C   0  0  0  0  0  0  0  0  0  0  0  0
  141.2350   78.7230  221.7710 N   0  0  0  0  0  0  0  0  0  0  0  0
  141.5460   79.8600  220.8910 C   0  0  0  0  0  0  0  0  0  0  0  0
  142.4625   79.6347  220.3259 H   0  0  0  0  0  0  0  0  0  0  0  0
  140.6953   80.0136  220.2108 H   0  0  0  0  0  0  0  0  0  0  0  0
  141.7600   81.1510  221.6960 C   0  0  0  0  0  0  0  0  0  0  0  0
  142.2797   81.8889  221.0671 H   0  0  0  0  0  0  0  0  0  0  0  0
  140.7814   81.5446  222.0080 H   0  0  0  0  0  0  0  0  0  0  0  0
  142.6040   80.8660  222.9440 C   0  0  0  0  0  0  0  0  0  0  0  0
  143.5889   80.4934  222.6261 H   0  0  0  0  0  0  0  0  0  0  0  0
  142.6901   81.8049  223.5106 H   0  0  0  0  0  0  0  0  0  0  0  0
  141.9530   79.8160  223.8720 C   0  0  0  0  0  0  0  0  0  0  0  0
  142.7407   79.1450  224.2451 H   0  0  0  0  0  0  0  0  0  0  0  0
  141.4547   80.3662  224.6838 H   0  0  0  0  0  0  0  0  0  0  0  0
  140.8780   78.9650  223.1760 C   0  0  0  0  0  0  0  0  0  0  0  0
  140.7882   78.0003  223.6969 H   0  0  0  0  0  0  0  0  0  0  0  0
  139.9217   79.5076  223.2091 H   0  0  0  0  0  0  0  0  0  0  0  0
  140.5270   76.3610  221.8230 C   0  0  0  0  0  0  0  0  0  0  0  0
  139.8529   76.5946  222.6603 H   0  0  0  0  0  0  0  0  0  0  0  0
  1  2  1  0
  2  3  2  0
  3  4  1  0
  3  5  1  0
  5  6  2  0
  6  7  1  0
  7  8  2  0
  8  9  1  0
  8 10  1  0
 10 11  1  0
 10 12  2  0
 12 13  1  0
 12 14  1  0
 14 15  1  0
 14 16  2  0
 16 17  1  0
 17 18  2  0
 17 19  1  0
 19 20  1  0
 20 21  1  0
 20 22  1  0
 20 23  1  0
 23 24  1  0
 23 25  1  0
 25 26  1  0
 25 27  1  0
 25 28  1  0
 28 29  1  0
 28 30  1  0
 28 31  1  0
 31 32  1  0
 31 33  1  0
 31 34  1  0
 34 35  1  0
 34 36  1  0
 34 37  1  0
 37 38  1  0
 37 39  1  0
  2 40  1  0
 40 41  2  0
 41 42  1  0
 41 43  1  0
 43 44  1  0
 43 45  2  0
 45 46  1  0
 45 47  1  0
 47 48  1  0
 48 49  1  0
 49 50  1  0
 49 51  1  0
 49 52  1  0
 52 53  1  0
 52 54  1  0
 52 55  1  0
 55 56  1  0
 55 57  1  0
 55 58  1  0
 58 59  1  0
 58 60  1  0
 58 61  1  0
 61 62  1  0
 61 63  1  0
 47 64  2  0
 64 65  1  0
 19  5  1  0
 37 23  1  0
 64 40  1  0
 16  7  1  0
 61 48  1  0
M  CHG  1  31   1
M  END
>  <UniqueID>  (46) 
420

>  <SMILES>  (46) 
O=c1c2cc(Cl)ccc2nc(/C=C/c2cccc(N3CCCCC3)c2)n1CC1CC[NH2+]CC1

>  <Energy>  (46) 
91.29702256205324

>  <Genealogy>  (46) 
O=c1c2cc(Cl)ccc2nc(/C=C/c2cccc(N3CCCCC3)c2)n1CC1CC[NH2+]CC1 (protonated)
O=c1c2cc(Cl)ccc2nc(/C=C/c2cccc(N3CCCCC3)c2)n1CC1CC[NH2+]CC1 (cis-trans isomerization)
O=c1c2cc(Cl)ccc2nc(/C=C/c2cccc(N3CCCCC3)c2)n1CC1CC[NH2+]CC1 (3D coordinates assigned)
O=c1c2cc(Cl)ccc2nc(/C=C/c2cccc(N3CCCCC3)c2)n1CC1CC[NH2+]CC1 (nonaromatic ring conformer: 91.29702256205324 kcal/mol)

>  <smiles>  (46) 
O=c1c2cc(Cl)ccc2nc(/C=C/c2cccc(N3CCCCC3)c2)n1CC1CCNCC1

>  <score_type>  (46) 
oracle

>  <origin>  (46) 
autodockgpu

>  <m_score__min__energy>  (46) 
-9.5

>  <m_primary>  (46) 
energy

>  <meeko>  (46) 
{"free_energy": -8.67, "intermolecular_energy": -10.46, "internal_energy": -1.45, "cluster_size": 7, "cluster_id": 6, "rank_in_cluster": 6}

>  <energy>  (46) 
-8.35

>  <cluster_rmsd>  (46) 
0.96

>  <rmsd>  (46) 
269.31

>  <cluster>  (46) 
4

$$$$
KTDBAWTUPMOUSA-RJHOSBTDNA-O
     RDKit          3D

 65 69  0  0  0  0  0  0  0  0999 V2000
  141.7666   73.7236  221.3849 H   0  0  0  0  0  0  0  0  0  0  0  0
  140.6950   73.8480  221.6000 C   0  0  0  0  0  0  0  0  0  0  0  0
  139.9090   72.7610  221.5280 C   0  0  0  0  0  0  0  0  0  0  0  0
  139.3395   72.5766  220.6051 H   0  0  0  0  0  0  0  0  0  0  0  0
  139.7830   71.7960  222.6580 C   0  0  0  0  0  0  0  0  0  0  0  0
  140.5890   71.9840  223.7370 N   0  0  0  0  0  0  0  0  0  0  0  0
  140.5310   71.1950  224.8320 C   0  0  0  0  0  0  0  0  0  0  0  0
  141.3830   71.4370  225.9150 C   0  0  0  0  0  0  0  0  0  0  0  0
  142.1039   72.2667  225.8722 H   0  0  0  0  0  0  0  0  0  0  0  0
  141.3190   70.6250  227.0520 C   0  0  0  0  0  0  0  0  0  0  0  0
  141.9896   70.8164  227.9026 H   0  0  0  0  0  0  0  0  0  0  0  0
  140.4030   69.5700  227.1080 C   0  0  0  0  0  0  0  0  0  0  0  0
  140.3260   68.5540  228.5360 Cl  0  0  0  0  0  0  0  0  0  0  0  0
  139.5510   69.3230  226.0250 C   0  0  0  0  0  0  0  0  0  0  0  0
  138.8335   68.4904  226.0696 H   0  0  0  0  0  0  0  0  0  0  0  0
  139.6110   70.1390  224.8780 C   0  0  0  0  0  0  0  0  0  0  0  0
  138.7780   69.9350  223.7670 C   0  0  0  0  0  0  0  0  0  0  0  0
  137.9490   68.9810  223.7860 O   0  0  0  0  0  0  0  0  0  0  0  0
  138.8620   70.7590  222.6650 N   0  0  0  0  0  0  0  0  0  0  0  0
  137.9680   70.4810  221.5120 C   0  0  0  0  0  0  0  0  0  0  0  0
  138.4860   70.7695  220.5855 H   0  0  0  0  0  0  0  0  0  0  0  0
  137.7304   69.4070  221.5224 H   0  0  0  0  0  0  0  0  0  0  0  0
  136.6310   71.2630  221.6000 C   0  0  0  0  0  0  0  0  0  0  0  0
  135.9675   70.8570  220.8223 H   0  0  0  0  0  0  0  0  0  0  0  0
  135.8750   71.0480  222.9370 C   0  0  0  0  0  0  0  0  0  0  0  0
  134.7925   71.0538  222.7414 H   0  0  0  0  0  0  0  0  0  0  0  0
  136.1887   70.0830  223.3618 H   0  0  0  0  0  0  0  0  0  0  0  0
  136.2060   72.1530  223.9490 C   0  0  0  0  0  0  0  0  0  0  0  0
  135.6718   71.9446  224.8878 H   0  0  0  0  0  0  0  0  0  0  0  0
  137.2957   72.1565  224.0994 H   0  0  0  0  0  0  0  0  0  0  0  0
  135.8110   73.4950  223.4640 N   0  0  0  0  0  0  0  0  0  0  0  0
  134.8520   73.7170  223.8210 H   0  0  0  0  0  0  0  0  0  0  0  0
  136.4670   74.2010  223.8730 H   0  0  0  0  0  0  0  0  0  0  0  0
  135.8090   73.6410  221.9910 C   0  0  0  0  0  0  0  0  0  0  0  0
  134.8218   73.3455  221.6060 H   0  0  0  0  0  0  0  0  0  0  0  0
  136.0302   74.6919  221.7531 H   0  0  0  0  0  0  0  0  0  0  0  0
  136.8820   72.7680  221.3260 C   0  0  0  0  0  0  0  0  0  0  0  0
  136.8640   72.9426  220.2401 H   0  0  0  0  0  0  0  0  0  0  0  0
  137.8613   73.0395  221.7470 H   0  0  0  0  0  0  0  0  0  0  0  0
  140.2090   75.2090  221.9520 C   0  0  0  0  0  0  0  0  0  0  0  0
  138.8270   75.3990  222.1220 C   0  0  0  0  0  0  0  0  0  0  0  0
  138.1424   74.5445  222.0161 H   0  0  0  0  0  0  0  0  0  0  0  0
  138.3150   76.6620  222.4240 C   0  0  0  0  0  0  0  0  0  0  0  0
  137.2312   76.7971  222.5546 H   0  0  0  0  0  0  0  0  0  0  0  0
  139.1740   77.7550  222.5610 C   0  0  0  0  0  0  0  0  0  0  0  0
  138.7640   78.7474  222.8000 H   0  0  0  0  0  0  0  0  0  0  0  0
  140.5580   77.5920  222.3950 C   0  0  0  0  0  0  0  0  0  0  0  0
  141.4440   78.7210  222.5090 N   0  0  0  0  0  0  0  0  0  0  0  0
  141.9690   79.1050  223.8290 C   0  0  0  0  0  0  0  0  0  0  0  0
  141.1461   79.0917  224.5589 H   0  0  0  0  0  0  0  0  0  0  0  0
  142.7535   78.3874  224.1111 H   0  0  0  0  0  0  0  0  0  0  0  0
  142.5880   80.5100  223.8000 C   0  0  0  0  0  0  0  0  0  0  0  0
  142.6867   80.8843  224.8296 H   0  0  0  0  0  0  0  0  0  0  0  0
  143.5774   80.4552  223.3224 H   0  0  0  0  0  0  0  0  0  0  0  0
  141.6990   81.4670  222.9970 C   0  0  0  0  0  0  0  0  0  0  0  0
  140.7182   81.5350  223.4904 H   0  0  0  0  0  0  0  0  0  0  0  0
  142.2040   82.4437  222.9640 H   0  0  0  0  0  0  0  0  0  0  0  0
  141.4890   80.9980  221.5400 C   0  0  0  0  0  0  0  0  0  0  0  0
  140.4380   81.1723  221.2661 H   0  0  0  0  0  0  0  0  0  0  0  0
  142.1847   81.5732  220.9114 H   0  0  0  0  0  0  0  0  0  0  0  0
  141.8080   79.5100  221.3230 C   0  0  0  0  0  0  0  0  0  0  0  0
  141.2396   79.1417  220.4562 H   0  0  0  0  0  0  0  0  0  0  0  0
  142.8882   79.4027  221.1453 H   0  0  0  0  0  0  0  0  0  0  0  0
  141.0690   76.3220  222.0780 C   0  0  0  0  0  0  0  0  0  0  0  0
  142.1509   76.1934  221.9263 H   0  0  0  0  0  0  0  0  0  0  0  0
  1  2  1  0
  2  3  2  0
  3  4  1  0
  3  5  1  0
  5  6  2  0
  6  7  1  0
  7  8  2  0
  8  9  1  0
  8 10  1  0
 10 11  1  0
 10 12  2  0
 12 13  1  0
 12 14  1  0
 14 15  1  0
 14 16  2  0
 16 17  1  0
 17 18  2  0
 17 19  1  0
 19 20  1  0
 20 21  1  0
 20 22  1  0
 20 23  1  0
 23 24  1  0
 23 25  1  0
 25 26  1  0
 25 27  1  0
 25 28  1  0
 28 29  1  0
 28 30  1  0
 28 31  1  0
 31 32  1  0
 31 33  1  0
 31 34  1  0
 34 35  1  0
 34 36  1  0
 34 37  1  0
 37 38  1  0
 37 39  1  0
  2 40  1  0
 40 41  2  0
 41 42  1  0
 41 43  1  0
 43 44  1  0
 43 45  2  0
 45 46  1  0
 45 47  1  0
 47 48  1  0
 48 49  1  0
 49 50  1  0
 49 51  1  0
 49 52  1  0
 52 53  1  0
 52 54  1  0
 52 55  1  0
 55 56  1  0
 55 57  1  0
 55 58  1  0
 58 59  1  0
 58 60  1  0
 58 61  1  0
 61 62  1  0
 61 63  1  0
 47 64  2  0
 64 65  1  0
 19  5  1  0
 37 23  1  0
 64 40  1  0
 16  7  1  0
 61 48  1  0
M  CHG  1  31   1
M  END
>  <UniqueID>  (47) 
420

>  <SMILES>  (47) 
O=c1c2cc(Cl)ccc2nc(/C=C/c2cccc(N3CCCCC3)c2)n1CC1CC[NH2+]CC1

>  <Energy>  (47) 
91.29702256205324

>  <Genealogy>  (47) 
O=c1c2cc(Cl)ccc2nc(/C=C/c2cccc(N3CCCCC3)c2)n1CC1CC[NH2+]CC1 (protonated)
O=c1c2cc(Cl)ccc2nc(/C=C/c2cccc(N3CCCCC3)c2)n1CC1CC[NH2+]CC1 (cis-trans isomerization)
O=c1c2cc(Cl)ccc2nc(/C=C/c2cccc(N3CCCCC3)c2)n1CC1CC[NH2+]CC1 (3D coordinates assigned)
O=c1c2cc(Cl)ccc2nc(/C=C/c2cccc(N3CCCCC3)c2)n1CC1CC[NH2+]CC1 (nonaromatic ring conformer: 91.29702256205324 kcal/mol)

>  <smiles>  (47) 
O=c1c2cc(Cl)ccc2nc(/C=C/c2cccc(N3CCCCC3)c2)n1CC1CCNCC1

>  <score_type>  (47) 
oracle

>  <origin>  (47) 
autodockgpu

>  <m_score__min__energy>  (47) 
-9.5

>  <m_primary>  (47) 
energy

>  <meeko>  (47) 
{"free_energy": -8.93, "intermolecular_energy": -10.72, "internal_energy": -1.7, "cluster_size": 7, "cluster_id": 6, "rank_in_cluster": 3}

>  <energy>  (47) 
-8.97

>  <cluster_rmsd>  (47) 
0.0

>  <rmsd>  (47) 
270.23

>  <cluster>  (47) 
5

$$$$
KTDBAWTUPMOUSA-RJHOSBTDNA-O
     RDKit          3D

 65 69  0  0  0  0  0  0  0  0999 V2000
  141.6762   73.9152  221.3396 H   0  0  0  0  0  0  0  0  0  0  0  0
  140.6130   74.0580  221.5830 C   0  0  0  0  0  0  0  0  0  0  0  0
  139.8020   72.9900  221.5070 C   0  0  0  0  0  0  0  0  0  0  0  0
  139.2075   72.8383  220.5940 H   0  0  0  0  0  0  0  0  0  0  0  0
  139.6800   72.0030  222.6180 C   0  0  0  0  0  0  0  0  0  0  0  0
  140.5450   72.1230  223.6620 N   0  0  0  0  0  0  0  0  0  0  0  0
  140.5000   71.3110  224.7390 C   0  0  0  0  0  0  0  0  0  0  0  0
  141.4130   71.4830  225.7850 C   0  0  0  0  0  0  0  0  0  0  0  0
  142.1721   72.2770  225.7272 H   0  0  0  0  0  0  0  0  0  0  0  0
  141.3610   70.6460  226.9040 C   0  0  0  0  0  0  0  0  0  0  0  0
  142.0799   70.7824  227.7253 H   0  0  0  0  0  0  0  0  0  0  0  0
  140.3970   69.6360  226.9810 C   0  0  0  0  0  0  0  0  0  0  0  0
  140.3360   68.5890  228.3860 Cl  0  0  0  0  0  0  0  0  0  0  0  0
  139.4830   69.4600  225.9350 C   0  0  0  0  0  0  0  0  0  0  0  0
  138.7265   68.6637  225.9954 H   0  0  0  0  0  0  0  0  0  0  0  0
  139.5300   70.3000  224.8060 C   0  0  0  0  0  0  0  0  0  0  0  0
  138.6360   70.1670  223.7310 C   0  0  0  0  0  0  0  0  0  0  0  0
  137.7620   69.2550  223.7690 O   0  0  0  0  0  0  0  0  0  0  0  0
  138.7090   71.0140  222.6460 N   0  0  0  0  0  0  0  0  0  0  0  0
  137.7490   70.8100  221.5320 C   0  0  0  0  0  0  0  0  0  0  0  0
  138.2185   71.1441  220.5950 H   0  0  0  0  0  0  0  0  0  0  0  0
  137.4977   69.7397  221.4967 H   0  0  0  0  0  0  0  0  0  0  0  0
  136.4300   71.6000  221.7380 C   0  0  0  0  0  0  0  0  0  0  0  0
  135.7795   71.3705  220.8812 H   0  0  0  0  0  0  0  0  0  0  0  0
  135.6310   71.1550  222.9910 C   0  0  0  0  0  0  0  0  0  0  0  0
  134.5550   71.2307  222.7752 H   0  0  0  0  0  0  0  0  0  0  0  0
  135.9086   70.1176  223.2290 H   0  0  0  0  0  0  0  0  0  0  0  0
  135.9600   72.0340  224.2040 C   0  0  0  0  0  0  0  0  0  0  0  0
  135.3943   71.6653  225.0723 H   0  0  0  0  0  0  0  0  0  0  0  0
  137.0446   71.9761  224.3782 H   0  0  0  0  0  0  0  0  0  0  0  0
  135.6120   73.4550  223.9770 N   0  0  0  0  0  0  0  0  0  0  0  0
  134.6490   73.6330  224.3490 H   0  0  0  0  0  0  0  0  0  0  0  0
  136.2740   74.0500  224.5300 H   0  0  0  0  0  0  0  0  0  0  0  0
  135.6550   73.8820  222.5610 C   0  0  0  0  0  0  0  0  0  0  0  0
  134.6721   73.6958  222.1035 H   0  0  0  0  0  0  0  0  0  0  0  0
  135.9083   74.9521  222.5355 H   0  0  0  0  0  0  0  0  0  0  0  0
  136.7250   73.1210  221.7650 C   0  0  0  0  0  0  0  0  0  0  0  0
  136.7420   73.5012  220.7329 H   0  0  0  0  0  0  0  0  0  0  0  0
  137.6982   73.2776  222.2531 H   0  0  0  0  0  0  0  0  0  0  0  0
  140.1660   75.4210  221.9750 C   0  0  0  0  0  0  0  0  0  0  0  0
  138.7950   75.6330  222.2010 C   0  0  0  0  0  0  0  0  0  0  0  0
  138.0912   74.7928  222.1074 H   0  0  0  0  0  0  0  0  0  0  0  0
  138.3180   76.8990  222.5430 C   0  0  0  0  0  0  0  0  0  0  0  0
  137.2425   77.0508  222.7171 H   0  0  0  0  0  0  0  0  0  0  0  0
  139.2010   77.9740  222.6650 C   0  0  0  0  0  0  0  0  0  0  0  0
  138.8184   78.9695  222.9345 H   0  0  0  0  0  0  0  0  0  0  0  0
  140.5750   77.7890  222.4450 C   0  0  0  0  0  0  0  0  0  0  0  0
  141.4850   78.9000  222.5440 N   0  0  0  0  0  0  0  0  0  0  0  0
  142.1080   79.2180  223.8380 C   0  0  0  0  0  0  0  0  0  0  0  0
  141.3386   79.1834  224.6234 H   0  0  0  0  0  0  0  0  0  0  0  0
  142.8985   78.4781  224.0320 H   0  0  0  0  0  0  0  0  0  0  0  0
  142.7470   80.6150  223.8260 C   0  0  0  0  0  0  0  0  0  0  0  0
  142.9246   80.9418  224.8612 H   0  0  0  0  0  0  0  0  0  0  0  0
  143.6992   80.5685  223.2772 H   0  0  0  0  0  0  0  0  0  0  0  0
  141.8190   81.6180  223.1310 C   0  0  0  0  0  0  0  0  0  0  0  0
  140.8768   81.6765  223.6956 H   0  0  0  0  0  0  0  0  0  0  0  0
  142.3359   82.5886  223.1047 H   0  0  0  0  0  0  0  0  0  0  0  0
  141.4990   81.2170  221.6730 C   0  0  0  0  0  0  0  0  0  0  0  0
  140.4344   81.4177  221.4823 H   0  0  0  0  0  0  0  0  0  0  0  0
  142.1582   81.8100  221.0220 H   0  0  0  0  0  0  0  0  0  0  0  0
  141.7770   79.7360  221.3700 C   0  0  0  0  0  0  0  0  0  0  0  0
  141.1425   79.4141  220.5310 H   0  0  0  0  0  0  0  0  0  0  0  0
  142.8400   79.6222  221.1112 H   0  0  0  0  0  0  0  0  0  0  0  0
  141.0500   76.5160  222.0870 C   0  0  0  0  0  0  0  0  0  0  0  0
  142.1228   76.3710  221.8918 H   0  0  0  0  0  0  0  0  0  0  0  0
  1  2  1  0
  2  3  2  0
  3  4  1  0
  3  5  1  0
  5  6  2  0
  6  7  1  0
  7  8  2  0
  8  9  1  0
  8 10  1  0
 10 11  1  0
 10 12  2  0
 12 13  1  0
 12 14  1  0
 14 15  1  0
 14 16  2  0
 16 17  1  0
 17 18  2  0
 17 19  1  0
 19 20  1  0
 20 21  1  0
 20 22  1  0
 20 23  1  0
 23 24  1  0
 23 25  1  0
 25 26  1  0
 25 27  1  0
 25 28  1  0
 28 29  1  0
 28 30  1  0
 28 31  1  0
 31 32  1  0
 31 33  1  0
 31 34  1  0
 34 35  1  0
 34 36  1  0
 34 37  1  0
 37 38  1  0
 37 39  1  0
  2 40  1  0
 40 41  2  0
 41 42  1  0
 41 43  1  0
 43 44  1  0
 43 45  2  0
 45 46  1  0
 45 47  1  0
 47 48  1  0
 48 49  1  0
 49 50  1  0
 49 51  1  0
 49 52  1  0
 52 53  1  0
 52 54  1  0
 52 55  1  0
 55 56  1  0
 55 57  1  0
 55 58  1  0
 58 59  1  0
 58 60  1  0
 58 61  1  0
 61 62  1  0
 61 63  1  0
 47 64  2  0
 64 65  1  0
 19  5  1  0
 37 23  1  0
 64 40  1  0
 16  7  1  0
 61 48  1  0
M  CHG  1  31   1
M  END
>  <UniqueID>  (48) 
420

>  <SMILES>  (48) 
O=c1c2cc(Cl)ccc2nc(/C=C/c2cccc(N3CCCCC3)c2)n1CC1CC[NH2+]CC1

>  <Energy>  (48) 
91.29702256205324

>  <Genealogy>  (48) 
O=c1c2cc(Cl)ccc2nc(/C=C/c2cccc(N3CCCCC3)c2)n1CC1CC[NH2+]CC1 (protonated)
O=c1c2cc(Cl)ccc2nc(/C=C/c2cccc(N3CCCCC3)c2)n1CC1CC[NH2+]CC1 (cis-trans isomerization)
O=c1c2cc(Cl)ccc2nc(/C=C/c2cccc(N3CCCCC3)c2)n1CC1CC[NH2+]CC1 (3D coordinates assigned)
O=c1c2cc(Cl)ccc2nc(/C=C/c2cccc(N3CCCCC3)c2)n1CC1CC[NH2+]CC1 (nonaromatic ring conformer: 91.29702256205324 kcal/mol)

>  <smiles>  (48) 
O=c1c2cc(Cl)ccc2nc(/C=C/c2cccc(N3CCCCC3)c2)n1CC1CCNCC1

>  <score_type>  (48) 
oracle

>  <origin>  (48) 
autodockgpu

>  <m_score__min__energy>  (48) 
-9.5

>  <m_primary>  (48) 
energy

>  <meeko>  (48) 
{"free_energy": -8.97, "intermolecular_energy": -10.76, "internal_energy": -1.67, "cluster_size": 7, "cluster_id": 6, "rank_in_cluster": 1}

>  <energy>  (48) 
-8.97

>  <cluster_rmsd>  (48) 
0.0

>  <rmsd>  (48) 
270.04

>  <cluster>  (48) 
6

$$$$
KTDBAWTUPMOUSA-RJHOSBTDNA-O
     RDKit          3D

 65 69  0  0  0  0  0  0  0  0999 V2000
  141.8133   73.8657  221.4060 H   0  0  0  0  0  0  0  0  0  0  0  0
  140.7320   73.8160  221.6020 C   0  0  0  0  0  0  0  0  0  0  0  0
  140.1270   72.6220  221.4910 C   0  0  0  0  0  0  0  0  0  0  0  0
  139.7339   72.3147  220.5106 H   0  0  0  0  0  0  0  0  0  0  0  0
  139.9700   71.6990  222.6510 C   0  0  0  0  0  0  0  0  0  0  0  0
  140.7250   71.9460  223.7560 N   0  0  0  0  0  0  0  0  0  0  0  0
  140.6350   71.2000  224.8780 C   0  0  0  0  0  0  0  0  0  0  0  0
  141.4330   71.5030  225.9860 C   0  0  0  0  0  0  0  0  0  0  0  0
  142.1383   72.3460  225.9412 H   0  0  0  0  0  0  0  0  0  0  0  0
  141.3350   70.7350  227.1510 C   0  0  0  0  0  0  0  0  0  0  0  0
  141.9633   70.9745  228.0215 H   0  0  0  0  0  0  0  0  0  0  0  0
  140.4390   69.6630  227.2100 C   0  0  0  0  0  0  0  0  0  0  0  0
  140.3190   68.7020  228.6720 Cl  0  0  0  0  0  0  0  0  0  0  0  0
  139.6400   69.3560  226.1020 C   0  0  0  0  0  0  0  0  0  0  0  0
  138.9374   68.5109  226.1492 H   0  0  0  0  0  0  0  0  0  0  0  0
  139.7340   70.1270  224.9270 C   0  0  0  0  0  0  0  0  0  0  0  0
  138.9550   69.8620  223.7900 C   0  0  0  0  0  0  0  0  0  0  0  0
  138.1450   68.8920  223.8120 O   0  0  0  0  0  0  0  0  0  0  0  0
  139.0700   70.6440  222.6600 N   0  0  0  0  0  0  0  0  0  0  0  0
  138.2330   70.3020  221.4830 C   0  0  0  0  0  0  0  0  0  0  0  0
  138.7683   70.6011  220.5698 H   0  0  0  0  0  0  0  0  0  0  0  0
  138.0494   69.2177  221.5053 H   0  0  0  0  0  0  0  0  0  0  0  0
  136.8560   71.0160  221.5100 C   0  0  0  0  0  0  0  0  0  0  0  0
  136.2180   70.5150  220.7670 H   0  0  0  0  0  0  0  0  0  0  0  0
  136.1080   70.8670  222.8600 C   0  0  0  0  0  0  0  0  0  0  0  0
  135.0274   70.8004  222.6654 H   0  0  0  0  0  0  0  0  0  0  0  0
  136.4706   69.9562  223.3590 H   0  0  0  0  0  0  0  0  0  0  0  0
  136.3770   72.0640  223.7820 C   0  0  0  0  0  0  0  0  0  0  0  0
  135.8522   71.9019  224.7350 H   0  0  0  0  0  0  0  0  0  0  0  0
  137.4644   72.1376  223.9308 H   0  0  0  0  0  0  0  0  0  0  0  0
  135.9120   73.3400  223.1930 N   0  0  0  0  0  0  0  0  0  0  0  0
  134.9410   73.5380  223.5330 H   0  0  0  0  0  0  0  0  0  0  0  0
  136.5280   74.1100  223.5440 H   0  0  0  0  0  0  0  0  0  0  0  0
  135.9070   73.3700  221.7130 C   0  0  0  0  0  0  0  0  0  0  0  0
  134.9382   72.9932  221.3532 H   0  0  0  0  0  0  0  0  0  0  0  0
  136.0726   74.4094  221.3931 H   0  0  0  0  0  0  0  0  0  0  0  0
  137.0270   72.5060  221.1180 C   0  0  0  0  0  0  0  0  0  0  0  0
  137.0032   72.5933  220.0217 H   0  0  0  0  0  0  0  0  0  0  0  0
  137.9890   72.8619  221.5154 H   0  0  0  0  0  0  0  0  0  0  0  0
  140.0330   75.0750  221.9730 C   0  0  0  0  0  0  0  0  0  0  0  0
  138.6560   75.0170  222.2480 C   0  0  0  0  0  0  0  0  0  0  0  0
  138.1326   74.0504  222.2067 H   0  0  0  0  0  0  0  0  0  0  0  0
  137.9460   76.1740  222.5730 C   0  0  0  0  0  0  0  0  0  0  0  0
  136.8684   76.1141  222.7858 H   0  0  0  0  0  0  0  0  0  0  0  0
  138.5990   77.4080  222.6290 C   0  0  0  0  0  0  0  0  0  0  0  0
  138.0336   78.3158  222.8864 H   0  0  0  0  0  0  0  0  0  0  0  0
  139.9740   77.4940  222.3580 C   0  0  0  0  0  0  0  0  0  0  0  0
  140.6450   78.7660  222.3890 N   0  0  0  0  0  0  0  0  0  0  0  0
  141.2650   79.2920  221.1630 C   0  0  0  0  0  0  0  0  0  0  0  0
  141.8327   78.4860  220.6750 H   0  0  0  0  0  0  0  0  0  0  0  0
  140.4666   79.6624  220.5032 H   0  0  0  0  0  0  0  0  0  0  0  0
  142.2170   80.4580  221.4710 C   0  0  0  0  0  0  0  0  0  0  0  0
  142.8801   80.6227  220.6089 H   0  0  0  0  0  0  0  0  0  0  0  0
  141.6232   81.3629  221.6674 H   0  0  0  0  0  0  0  0  0  0  0  0
  143.0650   80.1390  222.7080 C   0  0  0  0  0  0  0  0  0  0  0  0
  143.6715   79.2454  222.4991 H   0  0  0  0  0  0  0  0  0  0  0  0
  143.6956   81.0159  222.9164 H   0  0  0  0  0  0  0  0  0  0  0  0
  142.2030   79.8710  223.9630 C   0  0  0  0  0  0  0  0  0  0  0  0
  142.6422   79.0257  224.5131 H   0  0  0  0  0  0  0  0  0  0  0  0
  142.1982   80.7974  224.5561 H   0  0  0  0  0  0  0  0  0  0  0  0
  140.7380   79.5330  223.6400 C   0  0  0  0  0  0  0  0  0  0  0  0
  140.3156   78.9361  224.4617 H   0  0  0  0  0  0  0  0  0  0  0  0
  140.1764   80.4714  223.5219 H   0  0  0  0  0  0  0  0  0  0  0  0
  140.6820   76.3290  222.0180 C   0  0  0  0  0  0  0  0  0  0  0  0
  141.7548   76.3941  221.7840 H   0  0  0  0  0  0  0  0  0  0  0  0
  1  2  1  0
  2  3  2  0
  3  4  1  0
  3  5  1  0
  5  6  2  0
  6  7  1  0
  7  8  2  0
  8  9  1  0
  8 10  1  0
 10 11  1  0
 10 12  2  0
 12 13  1  0
 12 14  1  0
 14 15  1  0
 14 16  2  0
 16 17  1  0
 17 18  2  0
 17 19  1  0
 19 20  1  0
 20 21  1  0
 20 22  1  0
 20 23  1  0
 23 24  1  0
 23 25  1  0
 25 26  1  0
 25 27  1  0
 25 28  1  0
 28 29  1  0
 28 30  1  0
 28 31  1  0
 31 32  1  0
 31 33  1  0
 31 34  1  0
 34 35  1  0
 34 36  1  0
 34 37  1  0
 37 38  1  0
 37 39  1  0
  2 40  1  0
 40 41  2  0
 41 42  1  0
 41 43  1  0
 43 44  1  0
 43 45  2  0
 45 46  1  0
 45 47  1  0
 47 48  1  0
 48 49  1  0
 49 50  1  0
 49 51  1  0
 49 52  1  0
 52 53  1  0
 52 54  1  0
 52 55  1  0
 55 56  1  0
 55 57  1  0
 55 58  1  0
 58 59  1  0
 58 60  1  0
 58 61  1  0
 61 62  1  0
 61 63  1  0
 47 64  2  0
 64 65  1  0
 19  5  1  0
 37 23  1  0
 64 40  1  0
 16  7  1  0
 61 48  1  0
M  CHG  1  31   1
M  END
>  <UniqueID>  (49) 
420

>  <SMILES>  (49) 
O=c1c2cc(Cl)ccc2nc(/C=C/c2cccc(N3CCCCC3)c2)n1CC1CC[NH2+]CC1

>  <Energy>  (49) 
91.29702256205324

>  <Genealogy>  (49) 
O=c1c2cc(Cl)ccc2nc(/C=C/c2cccc(N3CCCCC3)c2)n1CC1CC[NH2+]CC1 (protonated)
O=c1c2cc(Cl)ccc2nc(/C=C/c2cccc(N3CCCCC3)c2)n1CC1CC[NH2+]CC1 (cis-trans isomerization)
O=c1c2cc(Cl)ccc2nc(/C=C/c2cccc(N3CCCCC3)c2)n1CC1CC[NH2+]CC1 (3D coordinates assigned)
O=c1c2cc(Cl)ccc2nc(/C=C/c2cccc(N3CCCCC3)c2)n1CC1CC[NH2+]CC1 (nonaromatic ring conformer: 91.29702256205324 kcal/mol)

>  <smiles>  (49) 
O=c1c2cc(Cl)ccc2nc(/C=C/c2cccc(N3CCCCC3)c2)n1CC1CCNCC1

>  <score_type>  (49) 
oracle

>  <origin>  (49) 
autodockgpu

>  <m_score__min__energy>  (49) 
-9.5

>  <m_primary>  (49) 
energy

>  <meeko>  (49) 
{"free_energy": -8.52, "intermolecular_energy": -10.31, "internal_energy": -1.78, "cluster_size": 7, "cluster_id": 6, "rank_in_cluster": 7}

>  <energy>  (49) 
-8.95

>  <cluster_rmsd>  (49) 
0.15

>  <rmsd>  (49) 
270.06

>  <cluster>  (49) 
6

$$$$
KTDBAWTUPMOUSA-RJHOSBTDNA-O
     RDKit          3D

 65 69  0  0  0  0  0  0  0  0999 V2000
  139.2486   76.9048  223.5907 H   0  0  0  0  0  0  0  0  0  0  0  0
  139.8040   77.2790  222.7180 C   0  0  0  0  0  0  0  0  0  0  0  0
  139.7970   76.5330  221.6010 C   0  0  0  0  0  0  0  0  0  0  0  0
  138.8612   76.4398  221.0304 H   0  0  0  0  0  0  0  0  0  0  0  0
  141.0140   75.8270  221.1080 C   0  0  0  0  0  0  0  0  0  0  0  0
  141.0780   74.4810  221.2940 N   0  0  0  0  0  0  0  0  0  0  0  0
  142.1140   73.7360  220.8520 C   0  0  0  0  0  0  0  0  0  0  0  0
  142.1240   72.3530  221.0690 C   0  0  0  0  0  0  0  0  0  0  0  0
  141.2905   71.8743  221.6040 H   0  0  0  0  0  0  0  0  0  0  0  0
  143.1930   71.5800  220.6060 C   0  0  0  0  0  0  0  0  0  0  0  0
  143.2000   70.4934  220.7773 H   0  0  0  0  0  0  0  0  0  0  0  0
  144.2540   72.1870  219.9250 C   0  0  0  0  0  0  0  0  0  0  0  0
  145.5920   71.2130  219.3460 Cl  0  0  0  0  0  0  0  0  0  0  0  0
  144.2470   73.5700  219.7090 C   0  0  0  0  0  0  0  0  0  0  0  0
  145.0831   74.0461  219.1760 H   0  0  0  0  0  0  0  0  0  0  0  0
  143.1730   74.3530  220.1720 C   0  0  0  0  0  0  0  0  0  0  0  0
  143.1170   75.7430  219.9790 C   0  0  0  0  0  0  0  0  0  0  0  0
  144.0680   76.3180  219.3770 O   0  0  0  0  0  0  0  0  0  0  0  0
  142.0440   76.4750  220.4420 N   0  0  0  0  0  0  0  0  0  0  0  0
  142.0520   77.9430  220.2250 C   0  0  0  0  0  0  0  0  0  0  0  0
  141.5430   78.4280  221.0710 H   0  0  0  0  0  0  0  0  0  0  0  0
  143.1009   78.2651  220.1476 H   0  0  0  0  0  0  0  0  0  0  0  0
  141.3340   78.3500  218.9120 C   0  0  0  0  0  0  0  0  0  0  0  0
  140.3380   77.8835  218.9316 H   0  0  0  0  0  0  0  0  0  0  0  0
  141.0710   79.8740  218.7970 C   0  0  0  0  0  0  0  0  0  0  0  0
  140.1148   80.0344  218.2775 H   0  0  0  0  0  0  0  0  0  0  0  0
  141.0387   80.2983  219.8113 H   0  0  0  0  0  0  0  0  0  0  0  0
  142.1890   80.5750  218.0140 C   0  0  0  0  0  0  0  0  0  0  0  0
  141.9766   81.6538  217.9828 H   0  0  0  0  0  0  0  0  0  0  0  0
  143.1402   80.3684  218.5263 H   0  0  0  0  0  0  0  0  0  0  0  0
  142.3020   80.0710  216.6260 N   0  0  0  0  0  0  0  0  0  0  0  0
  141.7350   80.6840  215.9940 H   0  0  0  0  0  0  0  0  0  0  0  0
  143.3020   80.1540  216.3250 H   0  0  0  0  0  0  0  0  0  0  0  0
  141.8630   78.6700  216.4420 C   0  0  0  0  0  0  0  0  0  0  0  0
  140.7845   78.6613  216.2259 H   0  0  0  0  0  0  0  0  0  0  0  0
  142.4391   78.2400  215.6095 H   0  0  0  0  0  0  0  0  0  0  0  0
  142.1250   77.8170  217.6900 C   0  0  0  0  0  0  0  0  0  0  0  0
  141.8161   76.7809  217.4873 H   0  0  0  0  0  0  0  0  0  0  0  0
  143.1988   77.8640  217.9238 H   0  0  0  0  0  0  0  0  0  0  0  0
  140.5150   78.5790  222.8500 C   0  0  0  0  0  0  0  0  0  0  0  0
  141.6920   78.6200  223.6170 C   0  0  0  0  0  0  0  0  0  0  0  0
  142.0728   77.6977  224.0799 H   0  0  0  0  0  0  0  0  0  0  0  0
  142.3820   79.8190  223.7970 C   0  0  0  0  0  0  0  0  0  0  0  0
  143.3024   79.8366  224.3991 H   0  0  0  0  0  0  0  0  0  0  0  0
  141.9080   80.9980  223.2150 C   0  0  0  0  0  0  0  0  0  0  0  0
  142.4565   81.9403  223.3611 H   0  0  0  0  0  0  0  0  0  0  0  0
  140.7350   80.9840  222.4450 C   0  0  0  0  0  0  0  0  0  0  0  0
  140.2290   82.2010  221.8660 N   0  0  0  0  0  0  0  0  0  0  0  0
  138.7850   82.4770  221.8980 C   0  0  0  0  0  0  0  0  0  0  0  0
  138.2405   81.5674  221.6044 H   0  0  0  0  0  0  0  0  0  0  0  0
  138.5142   82.7825  222.9194 H   0  0  0  0  0  0  0  0  0  0  0  0
  138.4090   83.6160  220.9380 C   0  0  0  0  0  0  0  0  0  0  0  0
  137.3248   83.5925  220.7539 H   0  0  0  0  0  0  0  0  0  0  0  0
  138.6930   84.5763  221.3932 H   0  0  0  0  0  0  0  0  0  0  0  0
  139.1520   83.4560  219.6060 C   0  0  0  0  0  0  0  0  0  0  0  0
  138.8477   82.5050  219.1446 H   0  0  0  0  0  0  0  0  0  0  0  0
  138.8897   84.3160  218.9722 H   0  0  0  0  0  0  0  0  0  0  0  0
  140.6870   83.4530  219.7800 C   0  0  0  0  0  0  0  0  0  0  0  0
  141.1112   82.6851  219.1164 H   0  0  0  0  0  0  0  0  0  0  0  0
  141.0432   84.4632  219.5298 H   0  0  0  0  0  0  0  0  0  0  0  0
  141.1400   83.1570  221.2190 C   0  0  0  0  0  0  0  0  0  0  0  0
  142.1540   82.7313  221.1977 H   0  0  0  0  0  0  0  0  0  0  0  0
  141.1314   84.0959  221.7920 H   0  0  0  0  0  0  0  0  0  0  0  0
  140.0360   79.7770  222.2770 C   0  0  0  0  0  0  0  0  0  0  0  0
  139.1045   79.7653  221.6921 H   0  0  0  0  0  0  0  0  0  0  0  0
  1  2  1  0
  2  3  2  0
  3  4  1  0
  3  5  1  0
  5  6  2  0
  6  7  1  0
  7  8  2  0
  8  9  1  0
  8 10  1  0
 10 11  1  0
 10 12  2  0
 12 13  1  0
 12 14  1  0
 14 15  1  0
 14 16  2  0
 16 17  1  0
 17 18  2  0
 17 19  1  0
 19 20  1  0
 20 21  1  0
 20 22  1  0
 20 23  1  0
 23 24  1  0
 23 25  1  0
 25 26  1  0
 25 27  1  0
 25 28  1  0
 28 29  1  0
 28 30  1  0
 28 31  1  0
 31 32  1  0
 31 33  1  0
 31 34  1  0
 34 35  1  0
 34 36  1  0
 34 37  1  0
 37 38  1  0
 37 39  1  0
  2 40  1  0
 40 41  2  0
 41 42  1  0
 41 43  1  0
 43 44  1  0
 43 45  2  0
 45 46  1  0
 45 47  1  0
 47 48  1  0
 48 49  1  0
 49 50  1  0
 49 51  1  0
 49 52  1  0
 52 53  1  0
 52 54  1  0
 52 55  1  0
 55 56  1  0
 55 57  1  0
 55 58  1  0
 58 59  1  0
 58 60  1  0
 58 61  1  0
 61 62  1  0
 61 63  1  0
 47 64  2  0
 64 65  1  0
 19  5  1  0
 37 23  1  0
 64 40  1  0
 16  7  1  0
 61 48  1  0
M  CHG  1  31   1
M  END
>  <UniqueID>  (50) 
420

>  <SMILES>  (50) 
O=c1c2cc(Cl)ccc2nc(/C=C/c2cccc(N3CCCCC3)c2)n1CC1CC[NH2+]CC1

>  <Energy>  (50) 
91.29702256205324

>  <Genealogy>  (50) 
O=c1c2cc(Cl)ccc2nc(/C=C/c2cccc(N3CCCCC3)c2)n1CC1CC[NH2+]CC1 (protonated)
O=c1c2cc(Cl)ccc2nc(/C=C/c2cccc(N3CCCCC3)c2)n1CC1CC[NH2+]CC1 (cis-trans isomerization)
O=c1c2cc(Cl)ccc2nc(/C=C/c2cccc(N3CCCCC3)c2)n1CC1CC[NH2+]CC1 (3D coordinates assigned)
O=c1c2cc(Cl)ccc2nc(/C=C/c2cccc(N3CCCCC3)c2)n1CC1CC[NH2+]CC1 (nonaromatic ring conformer: 91.29702256205324 kcal/mol)

>  <smiles>  (50) 
O=c1c2cc(Cl)ccc2nc(/C=C/c2cccc(N3CCCCC3)c2)n1CC1CCNCC1

>  <score_type>  (50) 
oracle

>  <origin>  (50) 
autodockgpu

>  <m_score__min__energy>  (50) 
-9.5

>  <m_primary>  (50) 
energy

>  <meeko>  (50) 
{"free_energy": -8.49, "intermolecular_energy": -10.28, "internal_energy": -2.14, "cluster_size": 2, "cluster_id": 8, "rank_in_cluster": 1}

>  <energy>  (50) 
-8.93

>  <cluster_rmsd>  (50) 
0.32

>  <rmsd>  (50) 
269.97

>  <cluster>  (50) 
6

$$$$
KTDBAWTUPMOUSA-RJHOSBTDNA-O
     RDKit          3D

 65 69  0  0  0  0  0  0  0  0999 V2000
  139.3930   76.9676  223.6412 H   0  0  0  0  0  0  0  0  0  0  0  0
  139.9010   77.2620  222.7110 C   0  0  0  0  0  0  0  0  0  0  0  0
  139.8280   76.4250  221.6620 C   0  0  0  0  0  0  0  0  0  0  0  0
  138.8516   76.2544  221.1851 H   0  0  0  0  0  0  0  0  0  0  0  0
  141.0260   75.7200  221.1230 C   0  0  0  0  0  0  0  0  0  0  0  0
  141.1260   74.3840  221.3580 N   0  0  0  0  0  0  0  0  0  0  0  0
  142.1470   73.6380  220.8830 C   0  0  0  0  0  0  0  0  0  0  0  0
  142.1970   72.2660  221.1540 C   0  0  0  0  0  0  0  0  0  0  0  0
  141.4077   71.7961  221.7591 H   0  0  0  0  0  0  0  0  0  0  0  0
  143.2500   71.4920  220.6560 C   0  0  0  0  0  0  0  0  0  0  0  0
  143.2874   70.4135  220.8690 H   0  0  0  0  0  0  0  0  0  0  0  0
  144.2550   72.0870  219.8880 C   0  0  0  0  0  0  0  0  0  0  0  0
  145.5740   71.1130  219.2650 Cl  0  0  0  0  0  0  0  0  0  0  0  0
  144.2100   73.4600  219.6170 C   0  0  0  0  0  0  0  0  0  0  0  0
  145.0028   73.9271  219.0143 H   0  0  0  0  0  0  0  0  0  0  0  0
  143.1510   74.2440  220.1150 C   0  0  0  0  0  0  0  0  0  0  0  0
  143.0570   75.6230  219.8710 C   0  0  0  0  0  0  0  0  0  0  0  0
  143.9590   76.1890  219.1890 O   0  0  0  0  0  0  0  0  0  0  0  0
  142.0010   76.3560  220.3700 N   0  0  0  0  0  0  0  0  0  0  0  0
  141.9690   77.8150  220.0950 C   0  0  0  0  0  0  0  0  0  0  0  0
  141.3785   78.3098  220.8802 H   0  0  0  0  0  0  0  0  0  0  0  0
  143.0075   78.1775  220.0837 H   0  0  0  0  0  0  0  0  0  0  0  0
  141.3380   78.1420  218.7160 C   0  0  0  0  0  0  0  0  0  0  0  0
  140.4185   77.5441  218.6314 H   0  0  0  0  0  0  0  0  0  0  0  0
  140.8810   79.6170  218.5790 C   0  0  0  0  0  0  0  0  0  0  0  0
  139.9691   79.6542  217.9649 H   0  0  0  0  0  0  0  0  0  0  0  0
  140.6883   80.0160  219.5858 H   0  0  0  0  0  0  0  0  0  0  0  0
  141.9660   80.4770  217.9160 C   0  0  0  0  0  0  0  0  0  0  0  0
  141.6118   81.5172  217.8662 H   0  0  0  0  0  0  0  0  0  0  0  0
  142.8799   80.3929  218.5224 H   0  0  0  0  0  0  0  0  0  0  0  0
  142.2870   80.0170  216.5460 N   0  0  0  0  0  0  0  0  0  0  0  0
  141.7080   80.5570  215.8610 H   0  0  0  0  0  0  0  0  0  0  0  0
  143.2910   80.2410  216.3500 H   0  0  0  0  0  0  0  0  0  0  0  0
  142.0650   78.5730  216.3140 C   0  0  0  0  0  0  0  0  0  0  0  0
  141.0251   78.4212  215.9891 H   0  0  0  0  0  0  0  0  0  0  0  0
  142.7753   78.2395  215.5431 H   0  0  0  0  0  0  0  0  0  0  0  0
  142.3150   77.7420  217.5810 C   0  0  0  0  0  0  0  0  0  0  0  0
  142.1740   76.6769  217.3450 H   0  0  0  0  0  0  0  0  0  0  0  0
  143.3430   77.9307  217.9239 H   0  0  0  0  0  0  0  0  0  0  0  0
  140.6250   78.5610  222.6940 C   0  0  0  0  0  0  0  0  0  0  0  0
  141.8080   78.6750  223.4430 C   0  0  0  0  0  0  0  0  0  0  0  0
  142.1848   77.8056  224.0018 H   0  0  0  0  0  0  0  0  0  0  0  0
  142.5100   79.8810  223.4850 C   0  0  0  0  0  0  0  0  0  0  0  0
  143.4356   79.9563  224.0746 H   0  0  0  0  0  0  0  0  0  0  0  0
  142.0410   80.9920  222.7810 C   0  0  0  0  0  0  0  0  0  0  0  0
  142.5989   81.9393  222.8187 H   0  0  0  0  0  0  0  0  0  0  0  0
  140.8620   80.9060  222.0260 C   0  0  0  0  0  0  0  0  0  0  0  0
  140.3620   82.0560  221.3200 N   0  0  0  0  0  0  0  0  0  0  0  0
  141.0830   83.3350  221.4090 C   0  0  0  0  0  0  0  0  0  0  0  0
  141.3515   83.5220  222.4592 H   0  0  0  0  0  0  0  0  0  0  0  0
  141.9838   83.2686  220.7812 H   0  0  0  0  0  0  0  0  0  0  0  0
  140.2230   84.5010  220.8980 C   0  0  0  0  0  0  0  0  0  0  0  0
  140.6509   85.4502  221.2528 H   0  0  0  0  0  0  0  0  0  0  0  0
  140.2103   84.4812  219.7982 H   0  0  0  0  0  0  0  0  0  0  0  0
  138.7860   84.3690  221.4160 C   0  0  0  0  0  0  0  0  0  0  0  0
  138.8021   84.4104  222.5151 H   0  0  0  0  0  0  0  0  0  0  0  0
  138.1995   85.1956  220.9885 H   0  0  0  0  0  0  0  0  0  0  0  0
  138.1190   83.0460  220.9800 C   0  0  0  0  0  0  0  0  0  0  0  0
  137.5417   82.6509  221.8289 H   0  0  0  0  0  0  0  0  0  0  0  0
  137.4823   83.2753  220.1128 H   0  0  0  0  0  0  0  0  0  0  0  0
  139.1230   81.9710  220.5320 C   0  0  0  0  0  0  0  0  0  0  0  0
  138.6737   80.9767  220.6717 H   0  0  0  0  0  0  0  0  0  0  0  0
  139.3663   82.1343  219.4718 H   0  0  0  0  0  0  0  0  0  0  0  0
  140.1500   79.6940  221.9960 C   0  0  0  0  0  0  0  0  0  0  0  0
  139.2133   79.6271  221.4231 H   0  0  0  0  0  0  0  0  0  0  0  0
  1  2  1  0
  2  3  2  0
  3  4  1  0
  3  5  1  0
  5  6  2  0
  6  7  1  0
  7  8  2  0
  8  9  1  0
  8 10  1  0
 10 11  1  0
 10 12  2  0
 12 13  1  0
 12 14  1  0
 14 15  1  0
 14 16  2  0
 16 17  1  0
 17 18  2  0
 17 19  1  0
 19 20  1  0
 20 21  1  0
 20 22  1  0
 20 23  1  0
 23 24  1  0
 23 25  1  0
 25 26  1  0
 25 27  1  0
 25 28  1  0
 28 29  1  0
 28 30  1  0
 28 31  1  0
 31 32  1  0
 31 33  1  0
 31 34  1  0
 34 35  1  0
 34 36  1  0
 34 37  1  0
 37 38  1  0
 37 39  1  0
  2 40  1  0
 40 41  2  0
 41 42  1  0
 41 43  1  0
 43 44  1  0
 43 45  2  0
 45 46  1  0
 45 47  1  0
 47 48  1  0
 48 49  1  0
 49 50  1  0
 49 51  1  0
 49 52  1  0
 52 53  1  0
 52 54  1  0
 52 55  1  0
 55 56  1  0
 55 57  1  0
 55 58  1  0
 58 59  1  0
 58 60  1  0
 58 61  1  0
 61 62  1  0
 61 63  1  0
 47 64  2  0
 64 65  1  0
 19  5  1  0
 37 23  1  0
 64 40  1  0
 16  7  1  0
 61 48  1  0
M  CHG  1  31   1
M  END
>  <UniqueID>  (51) 
420

>  <SMILES>  (51) 
O=c1c2cc(Cl)ccc2nc(/C=C/c2cccc(N3CCCCC3)c2)n1CC1CC[NH2+]CC1

>  <Energy>  (51) 
91.29702256205324

>  <Genealogy>  (51) 
O=c1c2cc(Cl)ccc2nc(/C=C/c2cccc(N3CCCCC3)c2)n1CC1CC[NH2+]CC1 (protonated)
O=c1c2cc(Cl)ccc2nc(/C=C/c2cccc(N3CCCCC3)c2)n1CC1CC[NH2+]CC1 (cis-trans isomerization)
O=c1c2cc(Cl)ccc2nc(/C=C/c2cccc(N3CCCCC3)c2)n1CC1CC[NH2+]CC1 (3D coordinates assigned)
O=c1c2cc(Cl)ccc2nc(/C=C/c2cccc(N3CCCCC3)c2)n1CC1CC[NH2+]CC1 (nonaromatic ring conformer: 91.29702256205324 kcal/mol)

>  <smiles>  (51) 
O=c1c2cc(Cl)ccc2nc(/C=C/c2cccc(N3CCCCC3)c2)n1CC1CCNCC1

>  <score_type>  (51) 
oracle

>  <origin>  (51) 
autodockgpu

>  <m_score__min__energy>  (51) 
-9.5

>  <m_primary>  (51) 
energy

>  <meeko>  (51) 
{"free_energy": -8.42, "intermolecular_energy": -10.21, "internal_energy": -1.93, "cluster_size": 2, "cluster_id": 8, "rank_in_cluster": 2}

>  <energy>  (51) 
-8.93

>  <cluster_rmsd>  (51) 
0.57

>  <rmsd>  (51) 
269.97

>  <cluster>  (51) 
6

$$$$
KTDBAWTUPMOUSA-RJHOSBTDNA-O
     RDKit          3D

 65 69  0  0  0  0  0  0  0  0999 V2000
  141.7005   73.8934  221.2640 H   0  0  0  0  0  0  0  0  0  0  0  0
  140.6440   74.0240  221.5410 C   0  0  0  0  0  0  0  0  0  0  0  0
  139.8390   72.9510  221.4730 C   0  0  0  0  0  0  0  0  0  0  0  0
  139.2974   72.7511  220.5366 H   0  0  0  0  0  0  0  0  0  0  0  0
  139.6550   72.0220  222.6240 C   0  0  0  0  0  0  0  0  0  0  0  0
  140.5170   72.1390  223.6700 N   0  0  0  0  0  0  0  0  0  0  0  0
  140.4190   71.3770  224.7800 C   0  0  0  0  0  0  0  0  0  0  0  0
  141.3320   71.5430  225.8270 C   0  0  0  0  0  0  0  0  0  0  0  0
  142.1344   72.2907  225.7427 H   0  0  0  0  0  0  0  0  0  0  0  0
  141.2260   70.7600  226.9800 C   0  0  0  0  0  0  0  0  0  0  0  0
  141.9448   70.8926  227.8020 H   0  0  0  0  0  0  0  0  0  0  0  0
  140.2070   69.8080  227.0900 C   0  0  0  0  0  0  0  0  0  0  0  0
  140.0780   68.8280  228.5380 Cl  0  0  0  0  0  0  0  0  0  0  0  0
  139.2930   69.6380  226.0440 C   0  0  0  0  0  0  0  0  0  0  0  0
  138.4934   68.8877  226.1310 H   0  0  0  0  0  0  0  0  0  0  0  0
  139.3940   70.4250  224.8800 C   0  0  0  0  0  0  0  0  0  0  0  0
  138.5030   70.2950  223.8040 C   0  0  0  0  0  0  0  0  0  0  0  0
  137.5790   69.4340  223.8720 O   0  0  0  0  0  0  0  0  0  0  0  0
  138.6310   71.0890  222.6840 N   0  0  0  0  0  0  0  0  0  0  0  0
  137.6690   70.8900  221.5710 C   0  0  0  0  0  0  0  0  0  0  0  0
  138.1532   71.1847  220.6283 H   0  0  0  0  0  0  0  0  0  0  0  0
  137.3818   69.8282  221.5611 H   0  0  0  0  0  0  0  0  0  0  0  0
  136.3760   71.7290  221.7510 C   0  0  0  0  0  0  0  0  0  0  0  0
  135.7480   71.5482  220.8662 H   0  0  0  0  0  0  0  0  0  0  0  0
  135.5160   71.2860  222.9630 C   0  0  0  0  0  0  0  0  0  0  0  0
  134.4522   71.4104  222.7122 H   0  0  0  0  0  0  0  0  0  0  0  0
  135.7430   70.2325  223.1835 H   0  0  0  0  0  0  0  0  0  0  0  0
  135.8370   72.1220  224.2090 C   0  0  0  0  0  0  0  0  0  0  0  0
  135.2275   71.7552  225.0480 H   0  0  0  0  0  0  0  0  0  0  0  0
  136.9118   72.0166  224.4180 H   0  0  0  0  0  0  0  0  0  0  0  0
  135.5530   73.5610  224.0070 N   0  0  0  0  0  0  0  0  0  0  0  0
  134.5860   73.7690  224.3490 H   0  0  0  0  0  0  0  0  0  0  0  0
  136.2190   74.1150  224.5970 H   0  0  0  0  0  0  0  0  0  0  0  0
  135.6640   74.0190  222.6050 C   0  0  0  0  0  0  0  0  0  0  0  0
  134.6914   73.8840  222.1092 H   0  0  0  0  0  0  0  0  0  0  0  0
  135.9613   75.0780  222.6159 H   0  0  0  0  0  0  0  0  0  0  0  0
  136.7300   73.2350  221.8270 C   0  0  0  0  0  0  0  0  0  0  0  0
  136.7984   73.6391  220.8062 H   0  0  0  0  0  0  0  0  0  0  0  0
  137.6909   73.3401  222.3519 H   0  0  0  0  0  0  0  0  0  0  0  0
  140.1980   75.3780  221.9670 C   0  0  0  0  0  0  0  0  0  0  0  0
  138.8330   75.5760  222.2330 C   0  0  0  0  0  0  0  0  0  0  0  0
  138.1326   74.7324  222.1441 H   0  0  0  0  0  0  0  0  0  0  0  0
  138.3570   76.8330  222.6090 C   0  0  0  0  0  0  0  0  0  0  0  0
  137.2861   76.9738  222.8171 H   0  0  0  0  0  0  0  0  0  0  0  0
  139.2360   77.9130  222.7220 C   0  0  0  0  0  0  0  0  0  0  0  0
  138.8542   78.9014  223.0175 H   0  0  0  0  0  0  0  0  0  0  0  0
  140.6040   77.7420  222.4600 C   0  0  0  0  0  0  0  0  0  0  0  0
  141.5090   78.8580  222.5500 N   0  0  0  0  0  0  0  0  0  0  0  0
  142.1040   79.2100  223.8490 C   0  0  0  0  0  0  0  0  0  0  0  0
  141.3185   79.1925  224.6188 H   0  0  0  0  0  0  0  0  0  0  0  0
  142.8921   78.4777  224.0782 H   0  0  0  0  0  0  0  0  0  0  0  0
  142.7390   80.6080  223.8150 C   0  0  0  0  0  0  0  0  0  0  0  0
  142.8943   80.9611  224.8451 H   0  0  0  0  0  0  0  0  0  0  0  0
  143.7023   80.5506  223.2870 H   0  0  0  0  0  0  0  0  0  0  0  0
  141.8230   81.5910  223.0760 C   0  0  0  0  0  0  0  0  0  0  0  0
  140.8692   81.6610  223.6196 H   0  0  0  0  0  0  0  0  0  0  0  0
  142.3382   82.5621  223.0359 H   0  0  0  0  0  0  0  0  0  0  0  0
  141.5340   81.1530  221.6230 C   0  0  0  0  0  0  0  0  0  0  0  0
  140.4728   81.3448  221.4061 H   0  0  0  0  0  0  0  0  0  0  0  0
  142.2043   81.7322  220.9710 H   0  0  0  0  0  0  0  0  0  0  0  0
  141.8230   79.6660  221.3620 C   0  0  0  0  0  0  0  0  0  0  0  0
  141.2073   79.3214  220.5181 H   0  0  0  0  0  0  0  0  0  0  0  0
  142.8915   79.5496  221.1281 H   0  0  0  0  0  0  0  0  0  0  0  0
  141.0780   76.4780  222.0700 C   0  0  0  0  0  0  0  0  0  0  0  0
  142.1458   76.3437  221.8425 H   0  0  0  0  0  0  0  0  0  0  0  0
  1  2  1  0
  2  3  2  0
  3  4  1  0
  3  5  1  0
  5  6  2  0
  6  7  1  0
  7  8  2  0
  8  9  1  0
  8 10  1  0
 10 11  1  0
 10 12  2  0
 12 13  1  0
 12 14  1  0
 14 15  1  0
 14 16  2  0
 16 17  1  0
 17 18  2  0
 17 19  1  0
 19 20  1  0
 20 21  1  0
 20 22  1  0
 20 23  1  0
 23 24  1  0
 23 25  1  0
 25 26  1  0
 25 27  1  0
 25 28  1  0
 28 29  1  0
 28 30  1  0
 28 31  1  0
 31 32  1  0
 31 33  1  0
 31 34  1  0
 34 35  1  0
 34 36  1  0
 34 37  1  0
 37 38  1  0
 37 39  1  0
  2 40  1  0
 40 41  2  0
 41 42  1  0
 41 43  1  0
 43 44  1  0
 43 45  2  0
 45 46  1  0
 45 47  1  0
 47 48  1  0
 48 49  1  0
 49 50  1  0
 49 51  1  0
 49 52  1  0
 52 53  1  0
 52 54  1  0
 52 55  1  0
 55 56  1  0
 55 57  1  0
 55 58  1  0
 58 59  1  0
 58 60  1  0
 58 61  1  0
 61 62  1  0
 61 63  1  0
 47 64  2  0
 64 65  1  0
 19  5  1  0
 37 23  1  0
 64 40  1  0
 16  7  1  0
 61 48  1  0
M  CHG  1  31   1
M  END
>  <UniqueID>  (52) 
420

>  <SMILES>  (52) 
O=c1c2cc(Cl)ccc2nc(/C=C/c2cccc(N3CCCCC3)c2)n1CC1CC[NH2+]CC1

>  <Energy>  (52) 
91.29702256205324

>  <Genealogy>  (52) 
O=c1c2cc(Cl)ccc2nc(/C=C/c2cccc(N3CCCCC3)c2)n1CC1CC[NH2+]CC1 (protonated)
O=c1c2cc(Cl)ccc2nc(/C=C/c2cccc(N3CCCCC3)c2)n1CC1CC[NH2+]CC1 (cis-trans isomerization)
O=c1c2cc(Cl)ccc2nc(/C=C/c2cccc(N3CCCCC3)c2)n1CC1CC[NH2+]CC1 (3D coordinates assigned)
O=c1c2cc(Cl)ccc2nc(/C=C/c2cccc(N3CCCCC3)c2)n1CC1CC[NH2+]CC1 (nonaromatic ring conformer: 91.29702256205324 kcal/mol)

>  <smiles>  (52) 
O=c1c2cc(Cl)ccc2nc(/C=C/c2cccc(N3CCCCC3)c2)n1CC1CCNCC1

>  <score_type>  (52) 
oracle

>  <origin>  (52) 
autodockgpu

>  <m_score__min__energy>  (52) 
-9.5

>  <m_primary>  (52) 
energy

>  <meeko>  (52) 
{"free_energy": -8.95, "intermolecular_energy": -10.74, "internal_energy": -1.68, "cluster_size": 7, "cluster_id": 6, "rank_in_cluster": 2}

>  <energy>  (52) 
-8.91

>  <cluster_rmsd>  (52) 
0.54

>  <rmsd>  (52) 
269.94

>  <cluster>  (52) 
6

$$$$
KTDBAWTUPMOUSA-RJHOSBTDNA-O
     RDKit          3D

 65 69  0  0  0  0  0  0  0  0999 V2000
  140.9789   73.9770  222.5089 H   0  0  0  0  0  0  0  0  0  0  0  0
  140.8250   73.0260  221.9780 C   0  0  0  0  0  0  0  0  0  0  0  0
  141.2010   72.9570  220.6900 C   0  0  0  0  0  0  0  0  0  0  0  0
  140.6450   73.5410  219.9418 H   0  0  0  0  0  0  0  0  0  0  0  0
  142.3470   72.1150  220.2410 C   0  0  0  0  0  0  0  0  0  0  0  0
  142.1550   70.7700  220.1880 N   0  0  0  0  0  0  0  0  0  0  0  0
  143.1100   69.9170  219.7580 C   0  0  0  0  0  0  0  0  0  0  0  0
  142.8560   68.5410  219.7220 C   0  0  0  0  0  0  0  0  0  0  0  0
  141.8800   68.1534  220.0495 H   0  0  0  0  0  0  0  0  0  0  0  0
  143.8420   67.6590  219.2700 C   0  0  0  0  0  0  0  0  0  0  0  0
  143.6406   66.5780  219.2415 H   0  0  0  0  0  0  0  0  0  0  0  0
  145.0840   68.1490  218.8540 C   0  0  0  0  0  0  0  0  0  0  0  0
  146.3170   67.0380  218.2880 Cl  0  0  0  0  0  0  0  0  0  0  0  0
  145.3420   69.5240  218.8910 C   0  0  0  0  0  0  0  0  0  0  0  0
  146.3202   69.9074  218.5653 H   0  0  0  0  0  0  0  0  0  0  0  0
  144.3530   70.4180  219.3440 C   0  0  0  0  0  0  0  0  0  0  0  0
  144.5600   71.8050  219.4000 C   0  0  0  0  0  0  0  0  0  0  0  0
  145.6780   72.2730  219.0400 O   0  0  0  0  0  0  0  0  0  0  0  0
  143.5640   72.6480  219.8430 N   0  0  0  0  0  0  0  0  0  0  0  0
  143.8510   74.1040  219.8970 C   0  0  0  0  0  0  0  0  0  0  0  0
  143.7470   74.4464  220.9372 H   0  0  0  0  0  0  0  0  0  0  0  0
  144.8737   74.2588  219.5226 H   0  0  0  0  0  0  0  0  0  0  0  0
  142.8890   74.9290  219.0020 C   0  0  0  0  0  0  0  0  0  0  0  0
  142.2140   74.2143  218.5085 H   0  0  0  0  0  0  0  0  0  0  0  0
  141.9650   75.8820  219.8040 C   0  0  0  0  0  0  0  0  0  0  0  0
  140.9867   75.9372  219.3040 H   0  0  0  0  0  0  0  0  0  0  0  0
  141.8590   75.4851  220.8244 H   0  0  0  0  0  0  0  0  0  0  0  0
  142.5610   77.2930  219.8930 C   0  0  0  0  0  0  0  0  0  0  0  0
  141.8880   77.9242  220.4918 H   0  0  0  0  0  0  0  0  0  0  0  0
  143.5541   77.2102  220.3588 H   0  0  0  0  0  0  0  0  0  0  0  0
  142.7360   77.9140  218.5600 N   0  0  0  0  0  0  0  0  0  0  0  0
  141.8900   78.4910  218.3400 H   0  0  0  0  0  0  0  0  0  0  0  0
  143.5550   78.5650  218.6040 H   0  0  0  0  0  0  0  0  0  0  0  0
  142.9490   76.9510  217.4560 C   0  0  0  0  0  0  0  0  0  0  0  0
  141.9706   76.6513  217.0523 H   0  0  0  0  0  0  0  0  0  0  0  0
  143.5619   77.4448  216.6876 H   0  0  0  0  0  0  0  0  0  0  0  0
  143.6970   75.6960  217.9250 C   0  0  0  0  0  0  0  0  0  0  0  0
  143.8626   75.0341  217.0622 H   0  0  0  0  0  0  0  0  0  0  0  0
  144.6554   76.0074  218.3660 H   0  0  0  0  0  0  0  0  0  0  0  0
  140.2140   71.8990  222.7320 C   0  0  0  0  0  0  0  0  0  0  0  0
  139.1130   71.2370  222.1640 C   0  0  0  0  0  0  0  0  0  0  0  0
  138.7430   71.5453  221.1751 H   0  0  0  0  0  0  0  0  0  0  0  0
  138.4840   70.1920  222.8420 C   0  0  0  0  0  0  0  0  0  0  0  0
  137.6229   69.6821  222.3852 H   0  0  0  0  0  0  0  0  0  0  0  0
  138.9440   69.7910  224.0990 C   0  0  0  0  0  0  0  0  0  0  0  0
  138.4441   68.9663  224.6281 H   0  0  0  0  0  0  0  0  0  0  0  0
  140.0420   70.4370  224.6890 C   0  0  0  0  0  0  0  0  0  0  0  0
  140.5030   70.0440  225.9950 N   0  0  0  0  0  0  0  0  0  0  0  0
  140.6260   68.6160  226.3250 C   0  0  0  0  0  0  0  0  0  0  0  0
  139.7238   68.0900  225.9795 H   0  0  0  0  0  0  0  0  0  0  0  0
  141.5235   68.2217  225.8259 H   0  0  0  0  0  0  0  0  0  0  0  0
  140.7810   68.4010  227.8380 C   0  0  0  0  0  0  0  0  0  0  0  0
  140.5637   67.3500  228.0793 H   0  0  0  0  0  0  0  0  0  0  0  0
  141.8117   68.6495  228.1310 H   0  0  0  0  0  0  0  0  0  0  0  0
  139.8120   69.3070  228.6060 C   0  0  0  0  0  0  0  0  0  0  0  0
  138.7824   69.0400  228.3255 H   0  0  0  0  0  0  0  0  0  0  0  0
  139.9919   69.1534  229.6803 H   0  0  0  0  0  0  0  0  0  0  0  0
  140.0350   70.8050  228.3030 C   0  0  0  0  0  0  0  0  0  0  0  0
  139.0528   71.2916  228.2103 H   0  0  0  0  0  0  0  0  0  0  0  0
  140.6283   71.2183  229.1320 H   0  0  0  0  0  0  0  0  0  0  0  0
  140.8270   71.0570  227.0100 C   0  0  0  0  0  0  0  0  0  0  0  0
  140.5727   72.0534  226.6194 H   0  0  0  0  0  0  0  0  0  0  0  0
  141.9017   70.9983  227.2370 H   0  0  0  0  0  0  0  0  0  0  0  0
  140.6640   71.4970  224.0090 C   0  0  0  0  0  0  0  0  0  0  0  0
  141.5113   72.0201  224.4764 H   0  0  0  0  0  0  0  0  0  0  0  0
  1  2  1  0
  2  3  2  0
  3  4  1  0
  3  5  1  0
  5  6  2  0
  6  7  1  0
  7  8  2  0
  8  9  1  0
  8 10  1  0
 10 11  1  0
 10 12  2  0
 12 13  1  0
 12 14  1  0
 14 15  1  0
 14 16  2  0
 16 17  1  0
 17 18  2  0
 17 19  1  0
 19 20  1  0
 20 21  1  0
 20 22  1  0
 20 23  1  0
 23 24  1  0
 23 25  1  0
 25 26  1  0
 25 27  1  0
 25 28  1  0
 28 29  1  0
 28 30  1  0
 28 31  1  0
 31 32  1  0
 31 33  1  0
 31 34  1  0
 34 35  1  0
 34 36  1  0
 34 37  1  0
 37 38  1  0
 37 39  1  0
  2 40  1  0
 40 41  2  0
 41 42  1  0
 41 43  1  0
 43 44  1  0
 43 45  2  0
 45 46  1  0
 45 47  1  0
 47 48  1  0
 48 49  1  0
 49 50  1  0
 49 51  1  0
 49 52  1  0
 52 53  1  0
 52 54  1  0
 52 55  1  0
 55 56  1  0
 55 57  1  0
 55 58  1  0
 58 59  1  0
 58 60  1  0
 58 61  1  0
 61 62  1  0
 61 63  1  0
 47 64  2  0
 64 65  1  0
 19  5  1  0
 37 23  1  0
 64 40  1  0
 16  7  1  0
 61 48  1  0
M  CHG  1  31   1
M  END
>  <UniqueID>  (53) 
420

>  <SMILES>  (53) 
O=c1c2cc(Cl)ccc2nc(/C=C/c2cccc(N3CCCCC3)c2)n1CC1CC[NH2+]CC1

>  <Energy>  (53) 
91.29702256205324

>  <Genealogy>  (53) 
O=c1c2cc(Cl)ccc2nc(/C=C/c2cccc(N3CCCCC3)c2)n1CC1CC[NH2+]CC1 (protonated)
O=c1c2cc(Cl)ccc2nc(/C=C/c2cccc(N3CCCCC3)c2)n1CC1CC[NH2+]CC1 (cis-trans isomerization)
O=c1c2cc(Cl)ccc2nc(/C=C/c2cccc(N3CCCCC3)c2)n1CC1CC[NH2+]CC1 (3D coordinates assigned)
O=c1c2cc(Cl)ccc2nc(/C=C/c2cccc(N3CCCCC3)c2)n1CC1CC[NH2+]CC1 (nonaromatic ring conformer: 91.29702256205324 kcal/mol)

>  <smiles>  (53) 
O=c1c2cc(Cl)ccc2nc(/C=C/c2cccc(N3CCCCC3)c2)n1CC1CCNCC1

>  <score_type>  (53) 
oracle

>  <origin>  (53) 
autodockgpu

>  <m_score__min__energy>  (53) 
-9.5

>  <m_primary>  (53) 
energy

>  <meeko>  (53) 
{"free_energy": -9.16, "intermolecular_energy": -10.95, "internal_energy": -1.37, "cluster_size": 2, "cluster_id": 1, "rank_in_cluster": 2}

>  <energy>  (53) 
-8.67

>  <cluster_rmsd>  (53) 
1.03

>  <rmsd>  (53) 
269.87

>  <cluster>  (53) 
6

$$$$
KTDBAWTUPMOUSA-RJHOSBTDNA-O
     RDKit          3D

 65 69  0  0  0  0  0  0  0  0999 V2000
  140.7247   72.9962  222.0207 H   0  0  0  0  0  0  0  0  0  0  0  0
  140.7150   73.8280  221.3010 C   0  0  0  0  0  0  0  0  0  0  0  0
  141.1420   73.5830  220.0510 C   0  0  0  0  0  0  0  0  0  0  0  0
  140.6206   74.0601  219.2081 H   0  0  0  0  0  0  0  0  0  0  0  0
  142.2990   72.6860  219.7680 C   0  0  0  0  0  0  0  0  0  0  0  0
  142.0960   71.3460  219.8760 N   0  0  0  0  0  0  0  0  0  0  0  0
  143.0600   70.4410  219.6040 C   0  0  0  0  0  0  0  0  0  0  0  0
  142.7930   69.0730  219.7300 C   0  0  0  0  0  0  0  0  0  0  0  0
  141.7983   68.7348  220.0558 H   0  0  0  0  0  0  0  0  0  0  0  0
  143.7900   68.1360  219.4420 C   0  0  0  0  0  0  0  0  0  0  0  0
  143.5788   67.0611  219.5421 H   0  0  0  0  0  0  0  0  0  0  0  0
  145.0550   68.5630  219.0270 C   0  0  0  0  0  0  0  0  0  0  0  0
  146.3020   67.3840  218.6670 Cl  0  0  0  0  0  0  0  0  0  0  0  0
  145.3260   69.9310  218.9030 C   0  0  0  0  0  0  0  0  0  0  0  0
  146.3230   70.2655  218.5804 H   0  0  0  0  0  0  0  0  0  0  0  0
  144.3260   70.8800  219.1900 C   0  0  0  0  0  0  0  0  0  0  0  0
  144.5460   72.2610  219.0800 C   0  0  0  0  0  0  0  0  0  0  0  0
  145.6840   72.6750  218.7180 O   0  0  0  0  0  0  0  0  0  0  0  0
  143.5390   73.1590  219.3640 N   0  0  0  0  0  0  0  0  0  0  0  0
  143.8390   74.6080  219.2470 C   0  0  0  0  0  0  0  0  0  0  0  0
  143.6439   75.0888  220.2169 H   0  0  0  0  0  0  0  0  0  0  0  0
  144.8939   74.7098  218.9522 H   0  0  0  0  0  0  0  0  0  0  0  0
  142.9750   75.3040  218.1630 C   0  0  0  0  0  0  0  0  0  0  0  0
  142.2121   74.5786  217.8441 H   0  0  0  0  0  0  0  0  0  0  0  0
  142.1830   76.5270  218.6940 C   0  0  0  0  0  0  0  0  0  0  0  0
  141.2141   76.5786  218.1758 H   0  0  0  0  0  0  0  0  0  0  0  0
  142.0394   76.4032  219.7775 H   0  0  0  0  0  0  0  0  0  0  0  0
  142.9480   77.8350  218.4540 C   0  0  0  0  0  0  0  0  0  0  0  0
  142.3637   78.6685  218.8710 H   0  0  0  0  0  0  0  0  0  0  0  0
  143.9283   77.7472  218.9452 H   0  0  0  0  0  0  0  0  0  0  0  0
  143.1830   78.0910  217.0150 N   0  0  0  0  0  0  0  0  0  0  0  0
  142.4110   78.6960  216.6460 H   0  0  0  0  0  0  0  0  0  0  0  0
  144.0760   78.6290  216.9160 H   0  0  0  0  0  0  0  0  0  0  0  0
  143.2650   76.8730  216.1780 C   0  0  0  0  0  0  0  0  0  0  0  0
  142.2532   76.6060  215.8389 H   0  0  0  0  0  0  0  0  0  0  0  0
  143.9254   77.0898  215.3254 H   0  0  0  0  0  0  0  0  0  0  0  0
  143.8590   75.6860  216.9490 C   0  0  0  0  0  0  0  0  0  0  0  0
  143.9332   74.8210  216.2735 H   0  0  0  0  0  0  0  0  0  0  0  0
  144.8528   75.9759  217.3208 H   0  0  0  0  0  0  0  0  0  0  0  0
  140.2300   75.1520  221.7740 C   0  0  0  0  0  0  0  0  0  0  0  0
  138.8580   75.3050  222.0320 C   0  0  0  0  0  0  0  0  0  0  0  0
  138.1808   74.4479  221.9026 H   0  0  0  0  0  0  0  0  0  0  0  0
  138.3450   76.5340  222.4510 C   0  0  0  0  0  0  0  0  0  0  0  0
  137.2685   76.6393  222.6511 H   0  0  0  0  0  0  0  0  0  0  0  0
  139.1950   77.6310  222.6170 C   0  0  0  0  0  0  0  0  0  0  0  0
  138.7850   78.5972  222.9463 H   0  0  0  0  0  0  0  0  0  0  0  0
  140.5700   77.5040  222.3650 C   0  0  0  0  0  0  0  0  0  0  0  0
  141.4450   78.6380  222.5090 N   0  0  0  0  0  0  0  0  0  0  0  0
  141.9420   79.0090  223.8430 C   0  0  0  0  0  0  0  0  0  0  0  0
  141.1056   78.9803  224.5569 H   0  0  0  0  0  0  0  0  0  0  0  0
  142.7266   78.2937  224.1305 H   0  0  0  0  0  0  0  0  0  0  0  0
  142.5510   80.4190  223.8440 C   0  0  0  0  0  0  0  0  0  0  0  0
  142.6269   80.7809  224.8800 H   0  0  0  0  0  0  0  0  0  0  0  0
  143.5500   80.3779  223.3854 H   0  0  0  0  0  0  0  0  0  0  0  0
  141.6700   81.3790  223.0360 C   0  0  0  0  0  0  0  0  0  0  0  0
  140.6796   81.4333  223.5115 H   0  0  0  0  0  0  0  0  0  0  0  0
  142.1682   82.3596  223.0246 H   0  0  0  0  0  0  0  0  0  0  0  0
  141.4910   80.9270  221.5690 C   0  0  0  0  0  0  0  0  0  0  0  0
  140.4440   81.0967  221.2775 H   0  0  0  0  0  0  0  0  0  0  0  0
  142.1935   81.5155  220.9606 H   0  0  0  0  0  0  0  0  0  0  0  0
  141.8260   79.4440  221.3400 C   0  0  0  0  0  0  0  0  0  0  0  0
  141.2776   79.0821  220.4578 H   0  0  0  0  0  0  0  0  0  0  0  0
  142.9103   79.3470  221.1821 H   0  0  0  0  0  0  0  0  0  0  0  0
  141.0800   76.2690  221.9310 C   0  0  0  0  0  0  0  0  0  0  0  0
  142.1533   76.1709  221.7110 H   0  0  0  0  0  0  0  0  0  0  0  0
  1  2  1  0
  2  3  2  0
  3  4  1  0
  3  5  1  0
  5  6  2  0
  6  7  1  0
  7  8  2  0
  8  9  1  0
  8 10  1  0
 10 11  1  0
 10 12  2  0
 12 13  1  0
 12 14  1  0
 14 15  1  0
 14 16  2  0
 16 17  1  0
 17 18  2  0
 17 19  1  0
 19 20  1  0
 20 21  1  0
 20 22  1  0
 20 23  1  0
 23 24  1  0
 23 25  1  0
 25 26  1  0
 25 27  1  0
 25 28  1  0
 28 29  1  0
 28 30  1  0
 28 31  1  0
 31 32  1  0
 31 33  1  0
 31 34  1  0
 34 35  1  0
 34 36  1  0
 34 37  1  0
 37 38  1  0
 37 39  1  0
  2 40  1  0
 40 41  2  0
 41 42  1  0
 41 43  1  0
 43 44  1  0
 43 45  2  0
 45 46  1  0
 45 47  1  0
 47 48  1  0
 48 49  1  0
 49 50  1  0
 49 51  1  0
 49 52  1  0
 52 53  1  0
 52 54  1  0
 52 55  1  0
 55 56  1  0
 55 57  1  0
 55 58  1  0
 58 59  1  0
 58 60  1  0
 58 61  1  0
 61 62  1  0
 61 63  1  0
 47 64  2  0
 64 65  1  0
 19  5  1  0
 37 23  1  0
 64 40  1  0
 16  7  1  0
 61 48  1  0
M  CHG  1  31   1
M  END
>  <UniqueID>  (54) 
420

>  <SMILES>  (54) 
O=c1c2cc(Cl)ccc2nc(/C=C/c2cccc(N3CCCCC3)c2)n1CC1CC[NH2+]CC1

>  <Energy>  (54) 
91.29702256205324

>  <Genealogy>  (54) 
O=c1c2cc(Cl)ccc2nc(/C=C/c2cccc(N3CCCCC3)c2)n1CC1CC[NH2+]CC1 (protonated)
O=c1c2cc(Cl)ccc2nc(/C=C/c2cccc(N3CCCCC3)c2)n1CC1CC[NH2+]CC1 (cis-trans isomerization)
O=c1c2cc(Cl)ccc2nc(/C=C/c2cccc(N3CCCCC3)c2)n1CC1CC[NH2+]CC1 (3D coordinates assigned)
O=c1c2cc(Cl)ccc2nc(/C=C/c2cccc(N3CCCCC3)c2)n1CC1CC[NH2+]CC1 (nonaromatic ring conformer: 91.29702256205324 kcal/mol)

>  <smiles>  (54) 
O=c1c2cc(Cl)ccc2nc(/C=C/c2cccc(N3CCCCC3)c2)n1CC1CCNCC1

>  <score_type>  (54) 
oracle

>  <origin>  (54) 
autodockgpu

>  <m_score__min__energy>  (54) 
-9.5

>  <m_primary>  (54) 
energy

>  <meeko>  (54) 
{"free_energy": -9.19, "intermolecular_energy": -10.98, "internal_energy": -1.61, "cluster_size": 1, "cluster_id": 3, "rank_in_cluster": 1}

>  <energy>  (54) 
-8.52

>  <cluster_rmsd>  (54) 
0.67

>  <rmsd>  (54) 
269.88

>  <cluster>  (54) 
6

$$$$
KTDBAWTUPMOUSA-RJHOSBTDNA-O
     RDKit          3D

 65 69  0  0  0  0  0  0  0  0999 V2000
  141.8048   73.5887  221.5199 H   0  0  0  0  0  0  0  0  0  0  0  0
  140.7260   73.7100  221.6970 C   0  0  0  0  0  0  0  0  0  0  0  0
  139.9560   72.6110  221.6610 C   0  0  0  0  0  0  0  0  0  0  0  0
  139.3481   72.4171  220.7650 H   0  0  0  0  0  0  0  0  0  0  0  0
  139.8970   71.6440  222.7950 C   0  0  0  0  0  0  0  0  0  0  0  0
  140.6470   71.9210  223.8950 N   0  0  0  0  0  0  0  0  0  0  0  0
  140.6390   71.1360  224.9950 C   0  0  0  0  0  0  0  0  0  0  0  0
  141.4300   71.4720  226.1000 C   0  0  0  0  0  0  0  0  0  0  0  0
  142.0624   72.3715  226.0707 H   0  0  0  0  0  0  0  0  0  0  0  0
  141.4160   70.6640  227.2410 C   0  0  0  0  0  0  0  0  0  0  0  0
  142.0379   70.9288  228.1088 H   0  0  0  0  0  0  0  0  0  0  0  0
  140.6130   69.5200  227.2810 C   0  0  0  0  0  0  0  0  0  0  0  0
  140.5990   68.5100  228.7140 Cl  0  0  0  0  0  0  0  0  0  0  0  0
  139.8230   69.1800  226.1760 C   0  0  0  0  0  0  0  0  0  0  0  0
  139.1947   68.2776  226.2075 H   0  0  0  0  0  0  0  0  0  0  0  0
  139.8310   69.9910  225.0240 C   0  0  0  0  0  0  0  0  0  0  0  0
  139.0570   69.6960  223.8910 C   0  0  0  0  0  0  0  0  0  0  0  0
  138.3310   68.6610  223.8960 O   0  0  0  0  0  0  0  0  0  0  0  0
  139.0870   70.5180  222.7850 N   0  0  0  0  0  0  0  0  0  0  0  0
  138.2610   70.1420  221.6100 C   0  0  0  0  0  0  0  0  0  0  0  0
  138.7934   70.4380  220.6941 H   0  0  0  0  0  0  0  0  0  0  0  0
  138.0988   69.0547  221.6470 H   0  0  0  0  0  0  0  0  0  0  0  0
  136.8700   70.8300  221.6230 C   0  0  0  0  0  0  0  0  0  0  0  0
  136.2400   70.2972  220.8955 H   0  0  0  0  0  0  0  0  0  0  0  0
  136.1290   70.7020  222.9790 C   0  0  0  0  0  0  0  0  0  0  0  0
  135.0494   70.6090  222.7899 H   0  0  0  0  0  0  0  0  0  0  0  0
  136.5109   69.8120  223.5006 H   0  0  0  0  0  0  0  0  0  0  0  0
  136.3770   71.9280  223.8680 C   0  0  0  0  0  0  0  0  0  0  0  0
  135.8583   71.7809  224.8268 H   0  0  0  0  0  0  0  0  0  0  0  0
  137.4632   72.0269  224.0109 H   0  0  0  0  0  0  0  0  0  0  0  0
  135.8850   73.1790  223.2470 N   0  0  0  0  0  0  0  0  0  0  0  0
  134.9120   73.3670  223.5840 H   0  0  0  0  0  0  0  0  0  0  0  0
  136.4880   73.9700  223.5750 H   0  0  0  0  0  0  0  0  0  0  0  0
  135.8750   73.1700  221.7670 C   0  0  0  0  0  0  0  0  0  0  0  0
  134.9126   72.7653  221.4205 H   0  0  0  0  0  0  0  0  0  0  0  0
  136.0195   74.2036  221.4193 H   0  0  0  0  0  0  0  0  0  0  0  0
  137.0100   72.3120  221.1910 C   0  0  0  0  0  0  0  0  0  0  0  0
  136.9809   72.3695  220.0929 H   0  0  0  0  0  0  0  0  0  0  0  0
  137.9660   72.6971  221.5754 H   0  0  0  0  0  0  0  0  0  0  0  0
  140.2140   75.0810  221.9610 C   0  0  0  0  0  0  0  0  0  0  0  0
  138.8230   75.2720  222.0280 C   0  0  0  0  0  0  0  0  0  0  0  0
  138.1488   74.4111  221.9081 H   0  0  0  0  0  0  0  0  0  0  0  0
  138.2890   76.5420  222.2450 C   0  0  0  0  0  0  0  0  0  0  0  0
  137.1985   76.6763  222.2974 H   0  0  0  0  0  0  0  0  0  0  0  0
  139.1340   77.6440  222.3960 C   0  0  0  0  0  0  0  0  0  0  0  0
  138.7061   78.6431  222.5650 H   0  0  0  0  0  0  0  0  0  0  0  0
  140.5260   77.4820  222.3330 C   0  0  0  0  0  0  0  0  0  0  0  0
  141.3990   78.6190  222.4630 N   0  0  0  0  0  0  0  0  0  0  0  0
  141.9090   78.9980  223.7900 C   0  0  0  0  0  0  0  0  0  0  0  0
  141.0803   78.9706  224.5129 H   0  0  0  0  0  0  0  0  0  0  0  0
  142.6985   78.2863  224.0731 H   0  0  0  0  0  0  0  0  0  0  0  0
  142.5140   80.4100  223.7770 C   0  0  0  0  0  0  0  0  0  0  0  0
  142.5997   80.7776  224.8102 H   0  0  0  0  0  0  0  0  0  0  0  0
  143.5081   80.3690  223.3079 H   0  0  0  0  0  0  0  0  0  0  0  0
  141.6220   81.3640  222.9730 C   0  0  0  0  0  0  0  0  0  0  0  0
  140.6364   81.4185  223.4585 H   0  0  0  0  0  0  0  0  0  0  0  0
  142.1176   82.3458  222.9514 H   0  0  0  0  0  0  0  0  0  0  0  0
  141.4290   80.9040  221.5110 C   0  0  0  0  0  0  0  0  0  0  0  0
  140.3785   81.0692  221.2296 H   0  0  0  0  0  0  0  0  0  0  0  0
  142.1234   81.4913  220.8923 H   0  0  0  0  0  0  0  0  0  0  0  0
  141.7660   79.4200  221.2860 C   0  0  0  0  0  0  0  0  0  0  0  0
  141.2097   79.0521  220.4112 H   0  0  0  0  0  0  0  0  0  0  0  0
  142.8489   79.3251  221.1175 H   0  0  0  0  0  0  0  0  0  0  0  0
  141.0600   76.2030  222.1020 C   0  0  0  0  0  0  0  0  0  0  0  0
  142.1501   76.0741  222.0301 H   0  0  0  0  0  0  0  0  0  0  0  0
  1  2  1  0
  2  3  2  0
  3  4  1  0
  3  5  1  0
  5  6  2  0
  6  7  1  0
  7  8  2  0
  8  9  1  0
  8 10  1  0
 10 11  1  0
 10 12  2  0
 12 13  1  0
 12 14  1  0
 14 15  1  0
 14 16  2  0
 16 17  1  0
 17 18  2  0
 17 19  1  0
 19 20  1  0
 20 21  1  0
 20 22  1  0
 20 23  1  0
 23 24  1  0
 23 25  1  0
 25 26  1  0
 25 27  1  0
 25 28  1  0
 28 29  1  0
 28 30  1  0
 28 31  1  0
 31 32  1  0
 31 33  1  0
 31 34  1  0
 34 35  1  0
 34 36  1  0
 34 37  1  0
 37 38  1  0
 37 39  1  0
  2 40  1  0
 40 41  2  0
 41 42  1  0
 41 43  1  0
 43 44  1  0
 43 45  2  0
 45 46  1  0
 45 47  1  0
 47 48  1  0
 48 49  1  0
 49 50  1  0
 49 51  1  0
 49 52  1  0
 52 53  1  0
 52 54  1  0
 52 55  1  0
 55 56  1  0
 55 57  1  0
 55 58  1  0
 58 59  1  0
 58 60  1  0
 58 61  1  0
 61 62  1  0
 61 63  1  0
 47 64  2  0
 64 65  1  0
 19  5  1  0
 37 23  1  0
 64 40  1  0
 16  7  1  0
 61 48  1  0
M  CHG  1  31   1
M  END
>  <UniqueID>  (55) 
420

>  <SMILES>  (55) 
O=c1c2cc(Cl)ccc2nc(/C=C/c2cccc(N3CCCCC3)c2)n1CC1CC[NH2+]CC1

>  <Energy>  (55) 
91.29702256205324

>  <Genealogy>  (55) 
O=c1c2cc(Cl)ccc2nc(/C=C/c2cccc(N3CCCCC3)c2)n1CC1CC[NH2+]CC1 (protonated)
O=c1c2cc(Cl)ccc2nc(/C=C/c2cccc(N3CCCCC3)c2)n1CC1CC[NH2+]CC1 (cis-trans isomerization)
O=c1c2cc(Cl)ccc2nc(/C=C/c2cccc(N3CCCCC3)c2)n1CC1CC[NH2+]CC1 (3D coordinates assigned)
O=c1c2cc(Cl)ccc2nc(/C=C/c2cccc(N3CCCCC3)c2)n1CC1CC[NH2+]CC1 (nonaromatic ring conformer: 91.29702256205324 kcal/mol)

>  <smiles>  (55) 
O=c1c2cc(Cl)ccc2nc(/C=C/c2cccc(N3CCCCC3)c2)n1CC1CCNCC1

>  <score_type>  (55) 
oracle

>  <origin>  (55) 
autodockgpu

>  <m_score__min__energy>  (55) 
-9.5

>  <m_primary>  (55) 
energy

>  <meeko>  (55) 
{"free_energy": -8.93, "intermolecular_energy": -10.72, "internal_energy": -1.68, "cluster_size": 7, "cluster_id": 6, "rank_in_cluster": 4}

>  <energy>  (55) 
-8.79

>  <cluster_rmsd>  (55) 
0.0

>  <rmsd>  (55) 
269.89

>  <cluster>  (55) 
7

$$$$
KTDBAWTUPMOUSA-RJHOSBTDNA-O
     RDKit          3D

 65 69  0  0  0  0  0  0  0  0999 V2000
  140.5136   73.3276  221.0437 H   0  0  0  0  0  0  0  0  0  0  0  0
  139.4960   73.1400  221.4170 C   0  0  0  0  0  0  0  0  0  0  0  0
  138.5220   73.9860  221.0420 C   0  0  0  0  0  0  0  0  0  0  0  0
  138.4516   74.2800  219.9844 H   0  0  0  0  0  0  0  0  0  0  0  0
  137.5330   74.5400  222.0110 C   0  0  0  0  0  0  0  0  0  0  0  0
  136.7520   73.6530  222.6860 N   0  0  0  0  0  0  0  0  0  0  0  0
  135.8520   74.0400  223.6150 C   0  0  0  0  0  0  0  0  0  0  0  0
  135.0780   73.0840  224.2810 C   0  0  0  0  0  0  0  0  0  0  0  0
  135.1985   72.0168  224.0433 H   0  0  0  0  0  0  0  0  0  0  0  0
  134.1510   73.4840  225.2490 C   0  0  0  0  0  0  0  0  0  0  0  0
  133.5439   72.7308  225.7726 H   0  0  0  0  0  0  0  0  0  0  0  0
  133.9950   74.8400  225.5520 C   0  0  0  0  0  0  0  0  0  0  0  0
  132.8310   75.3370  226.7660 Cl  0  0  0  0  0  0  0  0  0  0  0  0
  134.7670   75.8000  224.8860 C   0  0  0  0  0  0  0  0  0  0  0  0
  134.6419   76.8666  225.1243 H   0  0  0  0  0  0  0  0  0  0  0  0
  135.7030   75.4030  223.9120 C   0  0  0  0  0  0  0  0  0  0  0  0
  136.5020   76.3240  223.2160 C   0  0  0  0  0  0  0  0  0  0  0  0
  136.3730   77.5570  223.4630 O   0  0  0  0  0  0  0  0  0  0  0  0
  137.4120   75.8960  222.2740 N   0  0  0  0  0  0  0  0  0  0  0  0
  138.2140   76.9200  221.5580 C   0  0  0  0  0  0  0  0  0  0  0  0
  138.4593   76.5394  220.5555 H   0  0  0  0  0  0  0  0  0  0  0  0
  137.6129   77.8396  221.5034 H   0  0  0  0  0  0  0  0  0  0  0  0
  139.5340   77.2600  222.2990 C   0  0  0  0  0  0  0  0  0  0  0  0
  139.3574   77.0836  223.3703 H   0  0  0  0  0  0  0  0  0  0  0  0
  140.7140   76.3290  221.9190 C   0  0  0  0  0  0  0  0  0  0  0  0
  141.3441   76.1688  222.8063 H   0  0  0  0  0  0  0  0  0  0  0  0
  140.3014   75.3756  221.5573 H   0  0  0  0  0  0  0  0  0  0  0  0
  141.5700   76.9410  220.8020 C   0  0  0  0  0  0  0  0  0  0  0  0
  142.3747   76.2360  220.5462 H   0  0  0  0  0  0  0  0  0  0  0  0
  140.9134   77.1306  219.9401 H   0  0  0  0  0  0  0  0  0  0  0  0
  142.1760   78.2300  221.2020 N   0  0  0  0  0  0  0  0  0  0  0  0
  143.1360   78.0520  221.5810 H   0  0  0  0  0  0  0  0  0  0  0  0
  142.2830   78.8250  220.3470 H   0  0  0  0  0  0  0  0  0  0  0  0
  141.4050   78.9850  222.2150 C   0  0  0  0  0  0  0  0  0  0  0  0
  141.7249   78.6636  223.2172 H   0  0  0  0  0  0  0  0  0  0  0  0
  141.5987   80.0568  222.0607 H   0  0  0  0  0  0  0  0  0  0  0  0
  139.8940   78.7510  222.0780 C   0  0  0  0  0  0  0  0  0  0  0  0
  139.3673   79.3617  222.8261 H   0  0  0  0  0  0  0  0  0  0  0  0
  139.5890   79.0351  221.0600 H   0  0  0  0  0  0  0  0  0  0  0  0
  139.2850   71.9660  222.3050 C   0  0  0  0  0  0  0  0  0  0  0  0
  138.3950   70.9630  221.8840 C   0  0  0  0  0  0  0  0  0  0  0  0
  137.8947   71.0529  220.9085 H   0  0  0  0  0  0  0  0  0  0  0  0
  138.1400   69.8540  222.6920 C   0  0  0  0  0  0  0  0  0  0  0  0
  137.4426   69.0753  222.3495 H   0  0  0  0  0  0  0  0  0  0  0  0
  138.7670   69.7290  223.9340 C   0  0  0  0  0  0  0  0  0  0  0  0
  138.5603   68.8527  224.5659 H   0  0  0  0  0  0  0  0  0  0  0  0
  139.6590   70.7160  224.3790 C   0  0  0  0  0  0  0  0  0  0  0  0
  140.2870   70.6040  225.6690 N   0  0  0  0  0  0  0  0  0  0  0  0
  139.7640   69.6430  226.6520 C   0  0  0  0  0  0  0  0  0  0  0  0
  138.6672   69.7217  226.6808 H   0  0  0  0  0  0  0  0  0  0  0  0
  140.0751   68.6327  226.3477 H   0  0  0  0  0  0  0  0  0  0  0  0
  140.3220   69.9180  228.0570 C   0  0  0  0  0  0  0  0  0  0  0  0
  139.6981   69.4029  228.8023 H   0  0  0  0  0  0  0  0  0  0  0  0
  141.3563   69.5472  228.1098 H   0  0  0  0  0  0  0  0  0  0  0  0
  140.3170   71.4230  228.3470 C   0  0  0  0  0  0  0  0  0  0  0  0
  139.2788   71.7850  228.3142 H   0  0  0  0  0  0  0  0  0  0  0  0
  140.7670   71.5733  229.3394 H   0  0  0  0  0  0  0  0  0  0  0  0
  141.1540   72.2260  227.3260 C   0  0  0  0  0  0  0  0  0  0  0  0
  140.6092   73.1489  227.0782 H   0  0  0  0  0  0  0  0  0  0  0  0
  142.1280   72.4299  227.7948 H   0  0  0  0  0  0  0  0  0  0  0  0
  141.4310   71.4590  226.0220 C   0  0  0  0  0  0  0  0  0  0  0  0
  141.6076   72.1795  225.2098 H   0  0  0  0  0  0  0  0  0  0  0  0
  142.3167   70.8229  226.1670 H   0  0  0  0  0  0  0  0  0  0  0  0
  139.9040   71.8380  223.5680 C   0  0  0  0  0  0  0  0  0  0  0  0
  140.5859   72.6255  223.9213 H   0  0  0  0  0  0  0  0  0  0  0  0
  1  2  1  0
  2  3  2  0
  3  4  1  0
  3  5  1  0
  5  6  2  0
  6  7  1  0
  7  8  2  0
  8  9  1  0
  8 10  1  0
 10 11  1  0
 10 12  2  0
 12 13  1  0
 12 14  1  0
 14 15  1  0
 14 16  2  0
 16 17  1  0
 17 18  2  0
 17 19  1  0
 19 20  1  0
 20 21  1  0
 20 22  1  0
 20 23  1  0
 23 24  1  0
 23 25  1  0
 25 26  1  0
 25 27  1  0
 25 28  1  0
 28 29  1  0
 28 30  1  0
 28 31  1  0
 31 32  1  0
 31 33  1  0
 31 34  1  0
 34 35  1  0
 34 36  1  0
 34 37  1  0
 37 38  1  0
 37 39  1  0
  2 40  1  0
 40 41  2  0
 41 42  1  0
 41 43  1  0
 43 44  1  0
 43 45  2  0
 45 46  1  0
 45 47  1  0
 47 48  1  0
 48 49  1  0
 49 50  1  0
 49 51  1  0
 49 52  1  0
 52 53  1  0
 52 54  1  0
 52 55  1  0
 55 56  1  0
 55 57  1  0
 55 58  1  0
 58 59  1  0
 58 60  1  0
 58 61  1  0
 61 62  1  0
 61 63  1  0
 47 64  2  0
 64 65  1  0
 19  5  1  0
 37 23  1  0
 64 40  1  0
 16  7  1  0
 61 48  1  0
M  CHG  1  31   1
M  END
>  <UniqueID>  (56) 
420

>  <SMILES>  (56) 
O=c1c2cc(Cl)ccc2nc(/C=C/c2cccc(N3CCCCC3)c2)n1CC1CC[NH2+]CC1

>  <Energy>  (56) 
91.29702256205324

>  <Genealogy>  (56) 
O=c1c2cc(Cl)ccc2nc(/C=C/c2cccc(N3CCCCC3)c2)n1CC1CC[NH2+]CC1 (protonated)
O=c1c2cc(Cl)ccc2nc(/C=C/c2cccc(N3CCCCC3)c2)n1CC1CC[NH2+]CC1 (cis-trans isomerization)
O=c1c2cc(Cl)ccc2nc(/C=C/c2cccc(N3CCCCC3)c2)n1CC1CC[NH2+]CC1 (3D coordinates assigned)
O=c1c2cc(Cl)ccc2nc(/C=C/c2cccc(N3CCCCC3)c2)n1CC1CC[NH2+]CC1 (nonaromatic ring conformer: 91.29702256205324 kcal/mol)

>  <smiles>  (56) 
O=c1c2cc(Cl)ccc2nc(/C=C/c2cccc(N3CCCCC3)c2)n1CC1CCNCC1

>  <score_type>  (56) 
oracle

>  <origin>  (56) 
autodockgpu

>  <m_score__min__energy>  (56) 
-9.5

>  <m_primary>  (56) 
energy

>  <meeko>  (56) 
{"free_energy": -8.77, "intermolecular_energy": -10.56, "internal_energy": -1.82, "cluster_size": 2, "cluster_id": 7, "rank_in_cluster": 2}

>  <energy>  (56) 
-8.77

>  <cluster_rmsd>  (56) 
0.54

>  <rmsd>  (56) 
269.89

>  <cluster>  (56) 
7

$$$$
KTDBAWTUPMOUSA-RJHOSBTDNA-O
     RDKit          3D

 65 69  0  0  0  0  0  0  0  0999 V2000
  141.8218   73.5247  221.4413 H   0  0  0  0  0  0  0  0  0  0  0  0
  140.7460   73.6340  221.6430 C   0  0  0  0  0  0  0  0  0  0  0  0
  139.9810   72.5310  221.5880 C   0  0  0  0  0  0  0  0  0  0  0  0
  139.4264   72.3147  220.6630 H   0  0  0  0  0  0  0  0  0  0  0  0
  139.8580   71.5900  222.7380 C   0  0  0  0  0  0  0  0  0  0  0  0
  140.6280   71.8340  223.8330 N   0  0  0  0  0  0  0  0  0  0  0  0
  140.5690   71.0710  224.9460 C   0  0  0  0  0  0  0  0  0  0  0  0
  141.3830   71.3700  226.0440 C   0  0  0  0  0  0  0  0  0  0  0  0
  142.0755   72.2235  225.9985 H   0  0  0  0  0  0  0  0  0  0  0  0
  141.3170   70.5850  227.1990 C   0  0  0  0  0  0  0  0  0  0  0  0
  141.9576   70.8214  228.0614 H   0  0  0  0  0  0  0  0  0  0  0  0
  140.4370   69.4990  227.2590 C   0  0  0  0  0  0  0  0  0  0  0  0
  140.3570   68.5170  228.7100 Cl  0  0  0  0  0  0  0  0  0  0  0  0
  139.6230   69.1960  226.1610 C   0  0  0  0  0  0  0  0  0  0  0  0
  138.9334   68.3403  226.2086 H   0  0  0  0  0  0  0  0  0  0  0  0
  139.6850   69.9840  224.9960 C   0  0  0  0  0  0  0  0  0  0  0  0
  138.8900   69.7240  223.8690 C   0  0  0  0  0  0  0  0  0  0  0  0
  138.0940   68.7410  223.8920 O   0  0  0  0  0  0  0  0  0  0  0  0
  138.9740   70.5220  222.7480 N   0  0  0  0  0  0  0  0  0  0  0  0
  138.1210   70.1840  221.5810 C   0  0  0  0  0  0  0  0  0  0  0  0
  138.6616   70.4477  220.6600 H   0  0  0  0  0  0  0  0  0  0  0  0
  137.9028   69.1068  221.6255 H   0  0  0  0  0  0  0  0  0  0  0  0
  136.7680   70.9420  221.5990 C   0  0  0  0  0  0  0  0  0  0  0  0
  136.1126   70.4496  220.8655 H   0  0  0  0  0  0  0  0  0  0  0  0
  136.0190   70.8390  222.9530 C   0  0  0  0  0  0  0  0  0  0  0  0
  134.9363   70.8033  222.7618 H   0  0  0  0  0  0  0  0  0  0  0  0
  136.3539   69.9256  223.4664 H   0  0  0  0  0  0  0  0  0  0  0  0
  136.3280   72.0420  223.8540 C   0  0  0  0  0  0  0  0  0  0  0  0
  135.8007   71.9123  224.8106 H   0  0  0  0  0  0  0  0  0  0  0  0
  137.4177   72.0833  223.9987 H   0  0  0  0  0  0  0  0  0  0  0  0
  135.9030   73.3220  223.2460 N   0  0  0  0  0  0  0  0  0  0  0  0
  134.9390   73.5570  223.5840 H   0  0  0  0  0  0  0  0  0  0  0  0
  136.5440   74.0780  223.5830 H   0  0  0  0  0  0  0  0  0  0  0  0
  135.8950   73.3280  221.7660 C   0  0  0  0  0  0  0  0  0  0  0  0
  134.9136   72.9767  221.4146 H   0  0  0  0  0  0  0  0  0  0  0  0
  136.0933   74.3562  221.4291 H   0  0  0  0  0  0  0  0  0  0  0  0
  136.9850   72.4190  221.1820 C   0  0  0  0  0  0  0  0  0  0  0  0
  136.9602   72.4890  220.0845 H   0  0  0  0  0  0  0  0  0  0  0  0
  137.9592   72.7505  221.5707 H   0  0  0  0  0  0  0  0  0  0  0  0
  140.2320   74.9930  221.9590 C   0  0  0  0  0  0  0  0  0  0  0  0
  138.8430   75.1690  222.0770 C   0  0  0  0  0  0  0  0  0  0  0  0
  138.1727   74.3050  221.9577 H   0  0  0  0  0  0  0  0  0  0  0  0
  138.3050   76.4290  222.3440 C   0  0  0  0  0  0  0  0  0  0  0  0
  137.2157   76.5522  222.4350 H   0  0  0  0  0  0  0  0  0  0  0  0
  139.1460   77.5340  222.4960 C   0  0  0  0  0  0  0  0  0  0  0  0
  138.7162   78.5244  222.7067 H   0  0  0  0  0  0  0  0  0  0  0  0
  140.5370   77.3860  222.3810 C   0  0  0  0  0  0  0  0  0  0  0  0
  141.4050   78.5270  222.5110 N   0  0  0  0  0  0  0  0  0  0  0  0
  141.8530   78.9530  223.8450 C   0  0  0  0  0  0  0  0  0  0  0  0
  140.9916   78.9511  224.5291 H   0  0  0  0  0  0  0  0  0  0  0  0
  142.6275   78.2520  224.1896 H   0  0  0  0  0  0  0  0  0  0  0  0
  142.4600   80.3640  223.8100 C   0  0  0  0  0  0  0  0  0  0  0  0
  142.4988   80.7679  224.8324 H   0  0  0  0  0  0  0  0  0  0  0  0
  143.4746   80.3069  223.3889 H   0  0  0  0  0  0  0  0  0  0  0  0
  141.6070   81.2880  222.9330 C   0  0  0  0  0  0  0  0  0  0  0  0
  140.6002   81.3587  223.3705 H   0  0  0  0  0  0  0  0  0  0  0  0
  142.1039   82.2688  222.8996 H   0  0  0  0  0  0  0  0  0  0  0  0
  141.4810   80.7770  221.4810 C   0  0  0  0  0  0  0  0  0  0  0  0
  140.4450   80.9326  221.1456 H   0  0  0  0  0  0  0  0  0  0  0  0
  142.2046   81.3419  220.8749 H   0  0  0  0  0  0  0  0  0  0  0  0
  141.8250   79.2860  221.3240 C   0  0  0  0  0  0  0  0  0  0  0  0
  141.3074   78.8874  220.4390 H   0  0  0  0  0  0  0  0  0  0  0  0
  142.9141   79.1852  221.2074 H   0  0  0  0  0  0  0  0  0  0  0  0
  141.0740   76.1180  222.1000 C   0  0  0  0  0  0  0  0  0  0  0  0
  142.1620   76.0005  221.9887 H   0  0  0  0  0  0  0  0  0  0  0  0
  1  2  1  0
  2  3  2  0
  3  4  1  0
  3  5  1  0
  5  6  2  0
  6  7  1  0
  7  8  2  0
  8  9  1  0
  8 10  1  0
 10 11  1  0
 10 12  2  0
 12 13  1  0
 12 14  1  0
 14 15  1  0
 14 16  2  0
 16 17  1  0
 17 18  2  0
 17 19  1  0
 19 20  1  0
 20 21  1  0
 20 22  1  0
 20 23  1  0
 23 24  1  0
 23 25  1  0
 25 26  1  0
 25 27  1  0
 25 28  1  0
 28 29  1  0
 28 30  1  0
 28 31  1  0
 31 32  1  0
 31 33  1  0
 31 34  1  0
 34 35  1  0
 34 36  1  0
 34 37  1  0
 37 38  1  0
 37 39  1  0
  2 40  1  0
 40 41  2  0
 41 42  1  0
 41 43  1  0
 43 44  1  0
 43 45  2  0
 45 46  1  0
 45 47  1  0
 47 48  1  0
 48 49  1  0
 49 50  1  0
 49 51  1  0
 49 52  1  0
 52 53  1  0
 52 54  1  0
 52 55  1  0
 55 56  1  0
 55 57  1  0
 55 58  1  0
 58 59  1  0
 58 60  1  0
 58 61  1  0
 61 62  1  0
 61 63  1  0
 47 64  2  0
 64 65  1  0
 19  5  1  0
 37 23  1  0
 64 40  1  0
 16  7  1  0
 61 48  1  0
M  CHG  1  31   1
M  END
>  <UniqueID>  (57) 
420

>  <SMILES>  (57) 
O=c1c2cc(Cl)ccc2nc(/C=C/c2cccc(N3CCCCC3)c2)n1CC1CC[NH2+]CC1

>  <Energy>  (57) 
91.29702256205324

>  <Genealogy>  (57) 
O=c1c2cc(Cl)ccc2nc(/C=C/c2cccc(N3CCCCC3)c2)n1CC1CC[NH2+]CC1 (protonated)
O=c1c2cc(Cl)ccc2nc(/C=C/c2cccc(N3CCCCC3)c2)n1CC1CC[NH2+]CC1 (cis-trans isomerization)
O=c1c2cc(Cl)ccc2nc(/C=C/c2cccc(N3CCCCC3)c2)n1CC1CC[NH2+]CC1 (3D coordinates assigned)
O=c1c2cc(Cl)ccc2nc(/C=C/c2cccc(N3CCCCC3)c2)n1CC1CC[NH2+]CC1 (nonaromatic ring conformer: 91.29702256205324 kcal/mol)

>  <smiles>  (57) 
O=c1c2cc(Cl)ccc2nc(/C=C/c2cccc(N3CCCCC3)c2)n1CC1CCNCC1

>  <score_type>  (57) 
oracle

>  <origin>  (57) 
autodockgpu

>  <m_score__min__energy>  (57) 
-9.5

>  <m_primary>  (57) 
energy

>  <meeko>  (57) 
{"free_energy": -8.91, "intermolecular_energy": -10.7, "internal_energy": -1.73, "cluster_size": 7, "cluster_id": 6, "rank_in_cluster": 5}

>  <energy>  (57) 
-8.49

>  <cluster_rmsd>  (57) 
0.0

>  <rmsd>  (57) 
269.89

>  <cluster>  (57) 
8

$$$$
KTDBAWTUPMOUSA-RJHOSBTDNA-O
     RDKit          3D

 65 69  0  0  0  0  0  0  0  0999 V2000
  140.2485   72.8913  221.0367 H   0  0  0  0  0  0  0  0  0  0  0  0
  139.2850   72.5450  221.4390 C   0  0  0  0  0  0  0  0  0  0  0  0
  138.1750   73.1990  221.0620 C   0  0  0  0  0  0  0  0  0  0  0  0
  137.8506   73.1343  220.0129 H   0  0  0  0  0  0  0  0  0  0  0  0
  137.3670   74.0100  222.0170 C   0  0  0  0  0  0  0  0  0  0  0  0
  136.4670   73.3500  222.7960 N   0  0  0  0  0  0  0  0  0  0  0  0
  135.7120   73.9780  223.7230 C   0  0  0  0  0  0  0  0  0  0  0  0
  134.8050   73.2470  224.4980 C   0  0  0  0  0  0  0  0  0  0  0  0
  134.7032   72.1620  224.3480 H   0  0  0  0  0  0  0  0  0  0  0  0
  134.0280   73.8950  225.4630 C   0  0  0  0  0  0  0  0  0  0  0  0
  133.3158   73.3190  226.0721 H   0  0  0  0  0  0  0  0  0  0  0  0
  134.1550   75.2750  225.6550 C   0  0  0  0  0  0  0  0  0  0  0  0
  133.1780   76.0840  226.8660 Cl  0  0  0  0  0  0  0  0  0  0  0  0
  135.0600   76.0090  224.8790 C   0  0  0  0  0  0  0  0  0  0  0  0
  135.1567   77.0945  225.0287 H   0  0  0  0  0  0  0  0  0  0  0  0
  135.8470   75.3610  223.9070 C   0  0  0  0  0  0  0  0  0  0  0  0
  136.7690   76.0500  223.1040 C   0  0  0  0  0  0  0  0  0  0  0  0
  136.8960   77.3000  223.2490 O   0  0  0  0  0  0  0  0  0  0  0  0
  137.5260   75.3790  222.1670 N   0  0  0  0  0  0  0  0  0  0  0  0
  138.4700   76.1670  221.3360 C   0  0  0  0  0  0  0  0  0  0  0  0
  138.7142   75.5879  220.4332 H   0  0  0  0  0  0  0  0  0  0  0  0
  137.9806   77.1192  221.0836 H   0  0  0  0  0  0  0  0  0  0  0  0
  139.7860   76.4960  222.0880 C   0  0  0  0  0  0  0  0  0  0  0  0
  139.7183   76.0216  223.0781 H   0  0  0  0  0  0  0  0  0  0  0  0
  141.0480   75.8840  221.4250 C   0  0  0  0  0  0  0  0  0  0  0  0
  141.7612   75.5948  222.2109 H   0  0  0  0  0  0  0  0  0  0  0  0
  140.7406   75.0068  220.8368 H   0  0  0  0  0  0  0  0  0  0  0  0
  141.7240   76.8880  220.4810 C   0  0  0  0  0  0  0  0  0  0  0  0
  142.5935   76.4035  220.0128 H   0  0  0  0  0  0  0  0  0  0  0  0
  140.9825   77.1951  219.7287 H   0  0  0  0  0  0  0  0  0  0  0  0
  142.1810   78.1040  221.1900 N   0  0  0  0  0  0  0  0  0  0  0  0
  143.1830   77.9790  221.4690 H   0  0  0  0  0  0  0  0  0  0  0  0
  142.1410   78.9100  220.5230 H   0  0  0  0  0  0  0  0  0  0  0  0
  141.3970   78.4440  222.3980 C   0  0  0  0  0  0  0  0  0  0  0  0
  141.8343   77.9242  223.2632 H   0  0  0  0  0  0  0  0  0  0  0  0
  141.4324   79.5354  222.5302 H   0  0  0  0  0  0  0  0  0  0  0  0
  139.9250   78.0300  222.2630 C   0  0  0  0  0  0  0  0  0  0  0  0
  139.3815   78.3382  223.1683 H   0  0  0  0  0  0  0  0  0  0  0  0
  139.5062   78.5208  221.3721 H   0  0  0  0  0  0  0  0  0  0  0  0
  139.2950   71.3820  222.3660 C   0  0  0  0  0  0  0  0  0  0  0  0
  138.6870   70.1880  221.9440 C   0  0  0  0  0  0  0  0  0  0  0  0
  138.2412   70.1290  220.9401 H   0  0  0  0  0  0  0  0  0  0  0  0
  138.6430   69.0760  222.7860 C   0  0  0  0  0  0  0  0  0  0  0  0
  138.1642   68.1472  222.4425 H   0  0  0  0  0  0  0  0  0  0  0  0
  139.2050   69.1380  224.0640 C   0  0  0  0  0  0  0  0  0  0  0  0
  139.1674   68.2577  224.7226 H   0  0  0  0  0  0  0  0  0  0  0  0
  139.8170   70.3190  224.5100 C   0  0  0  0  0  0  0  0  0  0  0  0
  140.3740   70.3960  225.8360 N   0  0  0  0  0  0  0  0  0  0  0  0
  139.8270   69.5470  226.9050 C   0  0  0  0  0  0  0  0  0  0  0  0
  138.7284   69.5852  226.8654 H   0  0  0  0  0  0  0  0  0  0  0  0
  140.1879   68.5196  226.7497 H   0  0  0  0  0  0  0  0  0  0  0  0
  140.2940   70.0190  228.2910 C   0  0  0  0  0  0  0  0  0  0  0  0
  139.6453   69.5780  229.0622 H   0  0  0  0  0  0  0  0  0  0  0  0
  141.3349   69.6989  228.4462 H   0  0  0  0  0  0  0  0  0  0  0  0
  140.2230   71.5480  228.3840 C   0  0  0  0  0  0  0  0  0  0  0  0
  139.1772   71.8614  228.2496 H   0  0  0  0  0  0  0  0  0  0  0  0
  140.6094   71.8410  229.3713 H   0  0  0  0  0  0  0  0  0  0  0  0
  141.0910   72.2470  227.3140 C   0  0  0  0  0  0  0  0  0  0  0  0
  140.5324   73.1095  226.9215 H   0  0  0  0  0  0  0  0  0  0  0  0
  142.0297   72.5458  227.8034 H   0  0  0  0  0  0  0  0  0  0  0  0
  141.4660   71.3330  226.1360 C   0  0  0  0  0  0  0  0  0  0  0  0
  141.6649   71.9515  225.2484 H   0  0  0  0  0  0  0  0  0  0  0  0
  142.3620   70.7558  226.4081 H   0  0  0  0  0  0  0  0  0  0  0  0
  139.8480   71.4410  223.6640 C   0  0  0  0  0  0  0  0  0  0  0  0
  140.3083   72.3756  224.0170 H   0  0  0  0  0  0  0  0  0  0  0  0
  1  2  1  0
  2  3  2  0
  3  4  1  0
  3  5  1  0
  5  6  2  0
  6  7  1  0
  7  8  2  0
  8  9  1  0
  8 10  1  0
 10 11  1  0
 10 12  2  0
 12 13  1  0
 12 14  1  0
 14 15  1  0
 14 16  2  0
 16 17  1  0
 17 18  2  0
 17 19  1  0
 19 20  1  0
 20 21  1  0
 20 22  1  0
 20 23  1  0
 23 24  1  0
 23 25  1  0
 25 26  1  0
 25 27  1  0
 25 28  1  0
 28 29  1  0
 28 30  1  0
 28 31  1  0
 31 32  1  0
 31 33  1  0
 31 34  1  0
 34 35  1  0
 34 36  1  0
 34 37  1  0
 37 38  1  0
 37 39  1  0
  2 40  1  0
 40 41  2  0
 41 42  1  0
 41 43  1  0
 43 44  1  0
 43 45  2  0
 45 46  1  0
 45 47  1  0
 47 48  1  0
 48 49  1  0
 49 50  1  0
 49 51  1  0
 49 52  1  0
 52 53  1  0
 52 54  1  0
 52 55  1  0
 55 56  1  0
 55 57  1  0
 55 58  1  0
 58 59  1  0
 58 60  1  0
 58 61  1  0
 61 62  1  0
 61 63  1  0
 47 64  2  0
 64 65  1  0
 19  5  1  0
 37 23  1  0
 64 40  1  0
 16  7  1  0
 61 48  1  0
M  CHG  1  31   1
M  END
>  <UniqueID>  (58) 
420

>  <SMILES>  (58) 
O=c1c2cc(Cl)ccc2nc(/C=C/c2cccc(N3CCCCC3)c2)n1CC1CC[NH2+]CC1

>  <Energy>  (58) 
91.29702256205324

>  <Genealogy>  (58) 
O=c1c2cc(Cl)ccc2nc(/C=C/c2cccc(N3CCCCC3)c2)n1CC1CC[NH2+]CC1 (protonated)
O=c1c2cc(Cl)ccc2nc(/C=C/c2cccc(N3CCCCC3)c2)n1CC1CC[NH2+]CC1 (cis-trans isomerization)
O=c1c2cc(Cl)ccc2nc(/C=C/c2cccc(N3CCCCC3)c2)n1CC1CC[NH2+]CC1 (3D coordinates assigned)
O=c1c2cc(Cl)ccc2nc(/C=C/c2cccc(N3CCCCC3)c2)n1CC1CC[NH2+]CC1 (nonaromatic ring conformer: 91.29702256205324 kcal/mol)

>  <smiles>  (58) 
O=c1c2cc(Cl)ccc2nc(/C=C/c2cccc(N3CCCCC3)c2)n1CC1CCNCC1

>  <score_type>  (58) 
oracle

>  <origin>  (58) 
autodockgpu

>  <m_score__min__energy>  (58) 
-9.5

>  <m_primary>  (58) 
energy

>  <meeko>  (58) 
{"free_energy": -8.79, "intermolecular_energy": -10.58, "internal_energy": -1.69, "cluster_size": 2, "cluster_id": 7, "rank_in_cluster": 1}

>  <energy>  (58) 
-8.42

>  <cluster_rmsd>  (58) 
0.48

>  <rmsd>  (58) 
269.83

>  <cluster>  (58) 
8

$$$$
KTDBAWTUPMOUSA-RJHOSBTDNA-O
     RDKit          3D

 65 69  0  0  0  0  0  0  0  0999 V2000
  137.0694   74.8784  221.8245 H   0  0  0  0  0  0  0  0  0  0  0  0
  137.7430   75.6550  221.4330 C   0  0  0  0  0  0  0  0  0  0  0  0
  138.4700   75.3650  220.3410 C   0  0  0  0  0  0  0  0  0  0  0  0
  137.9507   75.1956  219.3862 H   0  0  0  0  0  0  0  0  0  0  0  0
  139.9580   75.2650  220.3800 C   0  0  0  0  0  0  0  0  0  0  0  0
  140.4980   74.0370  220.6060 N   0  0  0  0  0  0  0  0  0  0  0  0
  141.8310   73.8230  220.6220 C   0  0  0  0  0  0  0  0  0  0  0  0
  142.3310   72.5370  220.8560 C   0  0  0  0  0  0  0  0  0  0  0  0
  141.6376   71.7016  221.0330 H   0  0  0  0  0  0  0  0  0  0  0  0
  143.7110   72.3130  220.8650 C   0  0  0  0  0  0  0  0  0  0  0  0
  144.1022   71.3014  221.0484 H   0  0  0  0  0  0  0  0  0  0  0  0
  144.5950   73.3740  220.6410 C   0  0  0  0  0  0  0  0  0  0  0  0
  146.3250   73.0890  220.6540 Cl  0  0  0  0  0  0  0  0  0  0  0  0
  144.0980   74.6620  220.4090 C   0  0  0  0  0  0  0  0  0  0  0  0
  144.7943   75.4957  220.2356 H   0  0  0  0  0  0  0  0  0  0  0  0
  142.7090   74.8930  220.3970 C   0  0  0  0  0  0  0  0  0  0  0  0
  142.1590   76.1640  220.1680 C   0  0  0  0  0  0  0  0  0  0  0  0
  142.9350   77.1430  219.9740 O   0  0  0  0  0  0  0  0  0  0  0  0
  140.7930   76.3490  220.1570 N   0  0  0  0  0  0  0  0  0  0  0  0
  140.2730   77.7200  219.9280 C   0  0  0  0  0  0  0  0  0  0  0  0
  139.2067   77.7431  220.1972 H   0  0  0  0  0  0  0  0  0  0  0  0
  140.8606   78.4103  220.5510 H   0  0  0  0  0  0  0  0  0  0  0  0
  140.4240   78.1700  218.4510 C   0  0  0  0  0  0  0  0  0  0  0  0
  139.4095   78.2588  218.0353 H   0  0  0  0  0  0  0  0  0  0  0  0
  141.0570   79.5780  218.2950 C   0  0  0  0  0  0  0  0  0  0  0  0
  140.6005   80.0824  217.4306 H   0  0  0  0  0  0  0  0  0  0  0  0
  140.8727   80.1461  219.2187 H   0  0  0  0  0  0  0  0  0  0  0  0
  142.5730   79.4860  218.0770 C   0  0  0  0  0  0  0  0  0  0  0  0
  142.9822   80.5043  218.0012 H   0  0  0  0  0  0  0  0  0  0  0  0
  143.0040   78.9431  218.9311 H   0  0  0  0  0  0  0  0  0  0  0  0
  142.9180   78.7410  216.8450 N   0  0  0  0  0  0  0  0  0  0  0  0
  143.0360   79.4210  216.0570 H   0  0  0  0  0  0  0  0  0  0  0  0
  143.8420   78.2700  216.9920 H   0  0  0  0  0  0  0  0  0  0  0  0
  141.9220   77.7240  216.4410 C   0  0  0  0  0  0  0  0  0  0  0  0
  141.1698   78.2003  215.7949 H   0  0  0  0  0  0  0  0  0  0  0  0
  142.4526   76.9212  215.9081 H   0  0  0  0  0  0  0  0  0  0  0  0
  141.2130   77.1020  217.6520 C   0  0  0  0  0  0  0  0  0  0  0  0
  140.5142   76.3288  217.3001 H   0  0  0  0  0  0  0  0  0  0  0  0
  141.9749   76.6650  218.3142 H   0  0  0  0  0  0  0  0  0  0  0  0
  137.7910   76.9590  222.1460 C   0  0  0  0  0  0  0  0  0  0  0  0
  136.5770   77.5980  222.4500 C   0  0  0  0  0  0  0  0  0  0  0  0
  135.6257   77.1172  222.1782 H   0  0  0  0  0  0  0  0  0  0  0  0
  136.5660   78.8360  223.0930 C   0  0  0  0  0  0  0  0  0  0  0  0
  135.6080   79.3234  223.3269 H   0  0  0  0  0  0  0  0  0  0  0  0
  137.7670   79.4590  223.4410 C   0  0  0  0  0  0  0  0  0  0  0  0
  137.7512   80.4359  223.9465 H   0  0  0  0  0  0  0  0  0  0  0  0
  138.9940   78.8430  223.1480 C   0  0  0  0  0  0  0  0  0  0  0  0
  140.2330   79.4940  223.4820 N   0  0  0  0  0  0  0  0  0  0  0  0
  140.2830   80.9610  223.5790 C   0  0  0  0  0  0  0  0  0  0  0  0
  139.7552   81.3947  222.7168 H   0  0  0  0  0  0  0  0  0  0  0  0
  139.8037   81.2617  224.5223 H   0  0  0  0  0  0  0  0  0  0  0  0
  141.7310   81.4740  223.5880 C   0  0  0  0  0  0  0  0  0  0  0  0
  141.7365   82.5488  223.3542 H   0  0  0  0  0  0  0  0  0  0  0  0
  142.1649   81.3026  224.5841 H   0  0  0  0  0  0  0  0  0  0  0  0
  142.5680   80.7250  222.5440 C   0  0  0  0  0  0  0  0  0  0  0  0
  142.1430   80.9166  221.5477 H   0  0  0  0  0  0  0  0  0  0  0  0
  143.6025   81.0912  222.6197 H   0  0  0  0  0  0  0  0  0  0  0  0
  142.5910   79.1990  222.7880 C   0  0  0  0  0  0  0  0  0  0  0  0
  142.5024   78.6897  221.8170 H   0  0  0  0  0  0  0  0  0  0  0  0
  143.5387   78.9667  223.2958 H   0  0  0  0  0  0  0  0  0  0  0  0
  141.4560   78.7070  223.7010 C   0  0  0  0  0  0  0  0  0  0  0  0
  141.2487   77.6493  223.4811 H   0  0  0  0  0  0  0  0  0  0  0  0
  141.7692   78.8253  224.7488 H   0  0  0  0  0  0  0  0  0  0  0  0
  139.0010   77.6020  222.4890 C   0  0  0  0  0  0  0  0  0  0  0  0
  139.9600   77.1256  222.2373 H   0  0  0  0  0  0  0  0  0  0  0  0
  1  2  1  0
  2  3  2  0
  3  4  1  0
  3  5  1  0
  5  6  2  0
  6  7  1  0
  7  8  2  0
  8  9  1  0
  8 10  1  0
 10 11  1  0
 10 12  2  0
 12 13  1  0
 12 14  1  0
 14 15  1  0
 14 16  2  0
 16 17  1  0
 17 18  2  0
 17 19  1  0
 19 20  1  0
 20 21  1  0
 20 22  1  0
 20 23  1  0
 23 24  1  0
 23 25  1  0
 25 26  1  0
 25 27  1  0
 25 28  1  0
 28 29  1  0
 28 30  1  0
 28 31  1  0
 31 32  1  0
 31 33  1  0
 31 34  1  0
 34 35  1  0
 34 36  1  0
 34 37  1  0
 37 38  1  0
 37 39  1  0
  2 40  1  0
 40 41  2  0
 41 42  1  0
 41 43  1  0
 43 44  1  0
 43 45  2  0
 45 46  1  0
 45 47  1  0
 47 48  1  0
 48 49  1  0
 49 50  1  0
 49 51  1  0
 49 52  1  0
 52 53  1  0
 52 54  1  0
 52 55  1  0
 55 56  1  0
 55 57  1  0
 55 58  1  0
 58 59  1  0
 58 60  1  0
 58 61  1  0
 61 62  1  0
 61 63  1  0
 47 64  2  0
 64 65  1  0
 19  5  1  0
 37 23  1  0
 64 40  1  0
 16  7  1  0
 61 48  1  0
M  CHG  1  31   1
M  END
>  <UniqueID>  (59) 
420

>  <SMILES>  (59) 
O=c1c2cc(Cl)ccc2nc(/C=C/c2cccc(N3CCCCC3)c2)n1CC1CC[NH2+]CC1

>  <Energy>  (59) 
91.29702256205324

>  <Genealogy>  (59) 
O=c1c2cc(Cl)ccc2nc(/C=C/c2cccc(N3CCCCC3)c2)n1CC1CC[NH2+]CC1 (protonated)
O=c1c2cc(Cl)ccc2nc(/C=C/c2cccc(N3CCCCC3)c2)n1CC1CC[NH2+]CC1 (cis-trans isomerization)
O=c1c2cc(Cl)ccc2nc(/C=C/c2cccc(N3CCCCC3)c2)n1CC1CC[NH2+]CC1 (3D coordinates assigned)
O=c1c2cc(Cl)ccc2nc(/C=C/c2cccc(N3CCCCC3)c2)n1CC1CC[NH2+]CC1 (nonaromatic ring conformer: 91.29702256205324 kcal/mol)

>  <smiles>  (59) 
O=c1c2cc(Cl)ccc2nc(/C=C/c2cccc(N3CCCCC3)c2)n1CC1CCNCC1

>  <score_type>  (59) 
oracle

>  <origin>  (59) 
autodockgpu

>  <m_score__min__energy>  (59) 
-9.5

>  <m_primary>  (59) 
energy

>  <meeko>  (59) 
{"free_energy": -8.28, "intermolecular_energy": -10.07, "internal_energy": -1.97, "cluster_size": 1, "cluster_id": 9, "rank_in_cluster": 1}

>  <energy>  (59) 
-8.28

>  <cluster_rmsd>  (59) 
0.0

>  <rmsd>  (59) 
269.63

>  <cluster>  (59) 
9

$$$$
KTDBAWTUPMOUSA-RJHOSBTDNA-O
     RDKit          3D

 65 69  0  0  0  0  0  0  0  0999 V2000
  142.8464   78.2605  222.8618 H   0  0  0  0  0  0  0  0  0  0  0  0
  141.8090   78.5940  223.0120 C   0  0  0  0  0  0  0  0  0  0  0  0
  141.6100   79.8300  223.5000 C   0  0  0  0  0  0  0  0  0  0  0  0
  142.3726   80.2706  224.1590 H   0  0  0  0  0  0  0  0  0  0  0  0
  140.3900   80.6240  223.1780 C   0  0  0  0  0  0  0  0  0  0  0  0
  139.3440   80.5470  224.0440 N   0  0  0  0  0  0  0  0  0  0  0  0
  138.2070   81.2540  223.8740 C   0  0  0  0  0  0  0  0  0  0  0  0
  137.1640   81.1380  224.7990 C   0  0  0  0  0  0  0  0  0  0  0  0
  137.2687   80.4660  225.6635 H   0  0  0  0  0  0  0  0  0  0  0  0
  135.9890   81.8750  224.6260 C   0  0  0  0  0  0  0  0  0  0  0  0
  135.1700   81.7817  225.3544 H   0  0  0  0  0  0  0  0  0  0  0  0
  135.8530   82.7310  223.5280 C   0  0  0  0  0  0  0  0  0  0  0  0
  134.3770   83.6540  223.3160 Cl  0  0  0  0  0  0  0  0  0  0  0  0
  136.8940   82.8480  222.6000 C   0  0  0  0  0  0  0  0  0  0  0  0
  136.7850   83.5197  221.7357 H   0  0  0  0  0  0  0  0  0  0  0  0
  138.0800   82.1090  222.7690 C   0  0  0  0  0  0  0  0  0  0  0  0
  139.1530   82.1910  221.8680 C   0  0  0  0  0  0  0  0  0  0  0  0
  139.0530   82.9480  220.8610 O   0  0  0  0  0  0  0  0  0  0  0  0
  140.3020   81.4560  222.0720 N   0  0  0  0  0  0  0  0  0  0  0  0
  141.3940   81.5710  221.0730 C   0  0  0  0  0  0  0  0  0  0  0  0
  141.5270   82.6321  220.8154 H   0  0  0  0  0  0  0  0  0  0  0  0
  142.3051   81.1482  221.5215 H   0  0  0  0  0  0  0  0  0  0  0  0
  141.0930   80.7770  219.7750 C   0  0  0  0  0  0  0  0  0  0  0  0
  140.0190   80.5396  219.7832 H   0  0  0  0  0  0  0  0  0  0  0  0
  141.3210   81.5990  218.4800 C   0  0  0  0  0  0  0  0  0  0  0  0
  140.5731   81.3013  217.7303 H   0  0  0  0  0  0  0  0  0  0  0  0
  141.2228   82.6669  218.7247 H   0  0  0  0  0  0  0  0  0  0  0  0
  142.7250   81.3600  217.9080 C   0  0  0  0  0  0  0  0  0  0  0  0
  142.8523   81.9829  217.0104 H   0  0  0  0  0  0  0  0  0  0  0  0
  143.4556   81.6244  218.6867 H   0  0  0  0  0  0  0  0  0  0  0  0
  142.9470   79.9430  217.5400 N   0  0  0  0  0  0  0  0  0  0  0  0
  142.7180   79.8140  216.5260 H   0  0  0  0  0  0  0  0  0  0  0  0
  143.9640   79.7260  217.6610 H   0  0  0  0  0  0  0  0  0  0  0  0
  142.1560   78.9710  218.3270 C   0  0  0  0  0  0  0  0  0  0  0  0
  141.1858   78.8186  217.8316 H   0  0  0  0  0  0  0  0  0  0  0  0
  142.7268   78.0322  218.3806 H   0  0  0  0  0  0  0  0  0  0  0  0
  141.9090   79.4590  219.7620 C   0  0  0  0  0  0  0  0  0  0  0  0
  141.3515   78.6868  220.3123 H   0  0  0  0  0  0  0  0  0  0  0  0
  142.8828   79.6483  220.2373 H   0  0  0  0  0  0  0  0  0  0  0  0
  140.7160   77.6480  222.6620 C   0  0  0  0  0  0  0  0  0  0  0  0
  141.0640   76.3500  222.2530 C   0  0  0  0  0  0  0  0  0  0  0  0
  142.1232   76.0548  222.2208 H   0  0  0  0  0  0  0  0  0  0  0  0
  140.0790   75.4310  221.8870 C   0  0  0  0  0  0  0  0  0  0  0  0
  140.3653   74.4173  221.5701 H   0  0  0  0  0  0  0  0  0  0  0  0
  138.7310   75.7950  221.9220 C   0  0  0  0  0  0  0  0  0  0  0  0
  137.9597   75.0666  221.6314 H   0  0  0  0  0  0  0  0  0  0  0  0
  138.3560   77.0850  222.3260 C   0  0  0  0  0  0  0  0  0  0  0  0
  136.9700   77.4720  222.3380 N   0  0  0  0  0  0  0  0  0  0  0  0
  136.5980   78.8590  222.0180 C   0  0  0  0  0  0  0  0  0  0  0  0
  137.2700   79.5431  222.5569 H   0  0  0  0  0  0  0  0  0  0  0  0
  136.6879   78.9994  220.9307 H   0  0  0  0  0  0  0  0  0  0  0  0
  135.1470   79.1590  222.4260 C   0  0  0  0  0  0  0  0  0  0  0  0
  134.9981   80.2483  222.4625 H   0  0  0  0  0  0  0  0  0  0  0  0
  134.4673   78.7104  221.6866 H   0  0  0  0  0  0  0  0  0  0  0  0
  134.8480   78.5610  223.8060 C   0  0  0  0  0  0  0  0  0  0  0  0
  135.5159   79.0280  224.5448 H   0  0  0  0  0  0  0  0  0  0  0  0
  133.7903   78.7595  224.0337 H   0  0  0  0  0  0  0  0  0  0  0  0
  135.0570   77.0310  223.8470 C   0  0  0  0  0  0  0  0  0  0  0  0
  135.5451   76.7714  224.7980 H   0  0  0  0  0  0  0  0  0  0  0  0
  134.0653   76.5657  223.7471 H   0  0  0  0  0  0  0  0  0  0  0  0
  135.9250   76.5000  222.6930 C   0  0  0  0  0  0  0  0  0  0  0  0
  136.3993   75.5569  223.0024 H   0  0  0  0  0  0  0  0  0  0  0  0
  135.2831   76.3347  221.8151 H   0  0  0  0  0  0  0  0  0  0  0  0
  139.3520   78.0110  222.6820 C   0  0  0  0  0  0  0  0  0  0  0  0
  139.0651   79.0304  222.9796 H   0  0  0  0  0  0  0  0  0  0  0  0
  1  2  1  0
  2  3  2  0
  3  4  1  0
  3  5  1  0
  5  6  2  0
  6  7  1  0
  7  8  2  0
  8  9  1  0
  8 10  1  0
 10 11  1  0
 10 12  2  0
 12 13  1  0
 12 14  1  0
 14 15  1  0
 14 16  2  0
 16 17  1  0
 17 18  2  0
 17 19  1  0
 19 20  1  0
 20 21  1  0
 20 22  1  0
 20 23  1  0
 23 24  1  0
 23 25  1  0
 25 26  1  0
 25 27  1  0
 25 28  1  0
 28 29  1  0
 28 30  1  0
 28 31  1  0
 31 32  1  0
 31 33  1  0
 31 34  1  0
 34 35  1  0
 34 36  1  0
 34 37  1  0
 37 38  1  0
 37 39  1  0
  2 40  1  0
 40 41  2  0
 41 42  1  0
 41 43  1  0
 43 44  1  0
 43 45  2  0
 45 46  1  0
 45 47  1  0
 47 48  1  0
 48 49  1  0
 49 50  1  0
 49 51  1  0
 49 52  1  0
 52 53  1  0
 52 54  1  0
 52 55  1  0
 55 56  1  0
 55 57  1  0
 55 58  1  0
 58 59  1  0
 58 60  1  0
 58 61  1  0
 61 62  1  0
 61 63  1  0
 47 64  2  0
 64 65  1  0
 19  5  1  0
 37 23  1  0
 64 40  1  0
 16  7  1  0
 61 48  1  0
M  CHG  1  31   1
M  END
>  <UniqueID>  (60) 
420

>  <SMILES>  (60) 
O=c1c2cc(Cl)ccc2nc(/C=C/c2cccc(N3CCCCC3)c2)n1CC1CC[NH2+]CC1

>  <Energy>  (60) 
91.29702256205324

>  <Genealogy>  (60) 
O=c1c2cc(Cl)ccc2nc(/C=C/c2cccc(N3CCCCC3)c2)n1CC1CC[NH2+]CC1 (protonated)
O=c1c2cc(Cl)ccc2nc(/C=C/c2cccc(N3CCCCC3)c2)n1CC1CC[NH2+]CC1 (cis-trans isomerization)
O=c1c2cc(Cl)ccc2nc(/C=C/c2cccc(N3CCCCC3)c2)n1CC1CC[NH2+]CC1 (3D coordinates assigned)
O=c1c2cc(Cl)ccc2nc(/C=C/c2cccc(N3CCCCC3)c2)n1CC1CC[NH2+]CC1 (nonaromatic ring conformer: 91.29702256205324 kcal/mol)

>  <smiles>  (60) 
O=c1c2cc(Cl)ccc2nc(/C=C/c2cccc(N3CCCCC3)c2)n1CC1CCNCC1

>  <score_type>  (60) 
oracle

>  <origin>  (60) 
autodockgpu

>  <m_score__min__energy>  (60) 
-9.5

>  <m_primary>  (60) 
energy

>  <meeko>  (60) 
{"free_energy": -7.59, "intermolecular_energy": -9.38, "internal_energy": -2.56, "cluster_size": 1, "cluster_id": 10, "rank_in_cluster": 1}

>  <energy>  (60) 
-7.59

>  <cluster_rmsd>  (60) 
0.0

>  <rmsd>  (60) 
270.27

>  <cluster>  (60) 
10

$$$$
KTDBAWTUPMOUSA-JXMROGBWNA-N
     RDKit          3D

 64 68  0  0  0  0  0  0  0  0999 V2000
  139.5273   72.9340  220.1279 H   0  0  0  0  0  0  0  0  0  0  0  0
  139.8450   72.9420  221.1810 C   0  0  0  0  0  0  0  0  0  0  0  0
  141.0090   73.5100  221.5030 C   0  0  0  0  0  0  0  0  0  0  0  0
  141.7979   72.9018  221.9697 H   0  0  0  0  0  0  0  0  0  0  0  0
  141.2540   74.9440  221.2420 C   0  0  0  0  0  0  0  0  0  0  0  0
  140.9110   75.8250  222.2180 N   0  0  0  0  0  0  0  0  0  0  0  0
  141.0840   77.1570  222.0730 C   0  0  0  0  0  0  0  0  0  0  0  0
  140.7010   78.0280  223.0990 C   0  0  0  0  0  0  0  0  0  0  0  0
  140.2724   77.6270  224.0293 H   0  0  0  0  0  0  0  0  0  0  0  0
  140.8630   79.4080  222.9420 C   0  0  0  0  0  0  0  0  0  0  0  0
  140.5536   80.0919  223.7461 H   0  0  0  0  0  0  0  0  0  0  0  0
  141.4180   79.9210  221.7640 C   0  0  0  0  0  0  0  0  0  0  0  0
  141.6250   81.6530  221.5750 Cl  0  0  0  0  0  0  0  0  0  0  0  0
  141.8060   79.0530  220.7350 C   0  0  0  0  0  0  0  0  0  0  0  0
  142.2448   79.4578  219.8111 H   0  0  0  0  0  0  0  0  0  0  0  0
  141.6350   77.6630  220.8820 C   0  0  0  0  0  0  0  0  0  0  0  0
  142.0000   76.7490  219.8780 C   0  0  0  0  0  0  0  0  0  0  0  0
  142.5000   77.1800  218.8010 O   0  0  0  0  0  0  0  0  0  0  0  0
  141.8190   75.3960  220.0650 N   0  0  0  0  0  0  0  0  0  0  0  0
  142.3240   74.4570  219.0350 C   0  0  0  0  0  0  0  0  0  0  0  0
  141.7881   73.5012  219.1310 H   0  0  0  0  0  0  0  0  0  0  0  0
  142.1525   74.9086  218.0468 H   0  0  0  0  0  0  0  0  0  0  0  0
  143.8420   74.1980  219.1890 C   0  0  0  0  0  0  0  0  0  0  0  0
  144.3643   75.0937  218.8216 H   0  0  0  0  0  0  0  0  0  0  0  0
  144.2660   72.9730  218.3430 C   0  0  0  0  0  0  0  0  0  0  0  0
  143.4526   72.2328  218.3633 H   0  0  0  0  0  0  0  0  0  0  0  0
  144.4674   73.3284  217.3217 H   0  0  0  0  0  0  0  0  0  0  0  0
  145.5540   72.3050  218.8660 C   0  0  0  0  0  0  0  0  0  0  0  0
  145.2804   71.4972  219.5607 H   0  0  0  0  0  0  0  0  0  0  0  0
  146.1111   71.9097  218.0038 H   0  0  0  0  0  0  0  0  0  0  0  0
  146.4140   73.2650  219.5670 N   0  0  0  0  0  0  0  0  0  0  0  0
  146.6190   74.0710  218.9300 H   0  0  0  0  0  0  0  0  0  0  0  0
  145.7760   73.7680  220.7970 C   0  0  0  0  0  0  0  0  0  0  0  0
  145.9432   73.0348  221.5998 H   0  0  0  0  0  0  0  0  0  0  0  0
  146.2311   74.7445  221.0192 H   0  0  0  0  0  0  0  0  0  0  0  0
  144.2540   74.0000  220.6570 C   0  0  0  0  0  0  0  0  0  0  0  0
  143.7215   73.1269  221.0621 H   0  0  0  0  0  0  0  0  0  0  0  0
  143.9936   74.9130  221.2125 H   0  0  0  0  0  0  0  0  0  0  0  0
  138.9730   72.3250  222.1970 C   0  0  0  0  0  0  0  0  0  0  0  0
  137.5810   72.4110  222.0540 C   0  0  0  0  0  0  0  0  0  0  0  0
  137.1506   72.9314  221.1857 H   0  0  0  0  0  0  0  0  0  0  0  0
  136.7390   71.8390  223.0090 C   0  0  0  0  0  0  0  0  0  0  0  0
  135.6480   71.9362  222.9074 H   0  0  0  0  0  0  0  0  0  0  0  0
  137.2790   71.1430  224.0940 C   0  0  0  0  0  0  0  0  0  0  0  0
  136.6097   70.6960  224.8438 H   0  0  0  0  0  0  0  0  0  0  0  0
  138.6720   71.0100  224.2340 C   0  0  0  0  0  0  0  0  0  0  0  0
  139.2260   70.2310  225.3150 N   0  0  0  0  0  0  0  0  0  0  0  0
  138.7270   68.8690  225.5800 C   0  0  0  0  0  0  0  0  0  0  0  0
  137.7087   68.9361  225.9905 H   0  0  0  0  0  0  0  0  0  0  0  0
  138.7342   68.3109  224.6321 H   0  0  0  0  0  0  0  0  0  0  0  0
  139.6200   68.1210  226.5830 C   0  0  0  0  0  0  0  0  0  0  0  0
  139.3936   68.4729  227.6003 H   0  0  0  0  0  0  0  0  0  0  0  0
  139.4199   67.0426  226.4987 H   0  0  0  0  0  0  0  0  0  0  0  0
  141.1010   68.3720  226.2820 C   0  0  0  0  0  0  0  0  0  0  0  0
  141.7056   67.8653  227.0486 H   0  0  0  0  0  0  0  0  0  0  0  0
  141.3038   67.9796  225.2746 H   0  0  0  0  0  0  0  0  0  0  0  0
  141.4690   69.8740  226.2770 C   0  0  0  0  0  0  0  0  0  0  0  0
  142.0224   70.1001  227.2003 H   0  0  0  0  0  0  0  0  0  0  0  0
  142.0711   70.0570  225.3748 H   0  0  0  0  0  0  0  0  0  0  0  0
  140.2490   70.8020  226.2020 C   0  0  0  0  0  0  0  0  0  0  0  0
  139.8262   70.9273  227.2097 H   0  0  0  0  0  0  0  0  0  0  0  0
  140.5654   71.7764  225.8016 H   0  0  0  0  0  0  0  0  0  0  0  0
  139.5150   71.6270  223.2920 C   0  0  0  0  0  0  0  0  0  0  0  0
  140.6065   71.5633  223.4123 H   0  0  0  0  0  0  0  0  0  0  0  0
  1  2  1  0
  2  3  2  0
  3  4  1  0
  3  5  1  0
  5  6  2  0
  6  7  1  0
  7  8  2  0
  8  9  1  0
  8 10  1  0
 10 11  1  0
 10 12  2  0
 12 13  1  0
 12 14  1  0
 14 15  1  0
 14 16  2  0
 16 17  1  0
 17 18  2  0
 17 19  1  0
 19 20  1  0
 20 21  1  0
 20 22  1  0
 20 23  1  0
 23 24  1  0
 23 25  1  0
 25 26  1  0
 25 27  1  0
 25 28  1  0
 28 29  1  0
 28 30  1  0
 28 31  1  0
 31 32  1  0
 31 33  1  0
 33 34  1  0
 33 35  1  0
 33 36  1  0
 36 37  1  0
 36 38  1  0
  2 39  1  0
 39 40  2  0
 40 41  1  0
 40 42  1  0
 42 43  1  0
 42 44  2  0
 44 45  1  0
 44 46  1  0
 46 47  1  0
 47 48  1  0
 48 49  1  0
 48 50  1  0
 48 51  1  0
 51 52  1  0
 51 53  1  0
 51 54  1  0
 54 55  1  0
 54 56  1  0
 54 57  1  0
 57 58  1  0
 57 59  1  0
 57 60  1  0
 60 61  1  0
 60 62  1  0
 46 63  2  0
 63 64  1  0
 19  5  1  0
 36 23  1  0
 63 39  1  0
 16  7  1  0
 60 47  1  0
M  END
>  <UniqueID>  (61) 
421

>  <SMILES>  (61) 
O=c1c2cc(Cl)ccc2nc(/C=C/c2cccc(N3CCCCC3)c2)n1CC1CCNCC1

>  <Energy>  (61) 
91.87130403612728

>  <Genealogy>  (61) 
O=c1c2cc(Cl)ccc2nc(/C=C/c2cccc(N3CCCCC3)c2)n1CC1CCNCC1 (cis-trans isomerization)
O=c1c2cc(Cl)ccc2nc(/C=C/c2cccc(N3CCCCC3)c2)n1CC1CCNCC1 (3D coordinates assigned)
O=c1c2cc(Cl)ccc2nc(/C=C/c2cccc(N3CCCCC3)c2)n1CC1CCNCC1 (nonaromatic ring conformer: 91.87130403612728 kcal/mol)

>  <smiles>  (61) 
O=c1c2cc(Cl)ccc2nc(/C=C/c2cccc(N3CCCCC3)c2)n1CC1CCNCC1

>  <score_type>  (61) 
oracle

>  <origin>  (61) 
autodockgpu

>  <m_score__min__energy>  (61) 
-10.279999999999999

>  <m_primary>  (61) 
energy

>  <meeko>  (61) 
{"free_energy": -9.41, "intermolecular_energy": -11.2, "internal_energy": -1.47, "cluster_size": 15, "cluster_id": 1, "rank_in_cluster": 12}

>  <energy>  (61) 
-10.28

>  <cluster_rmsd>  (61) 
0.0

>  <rmsd>  (61) 
270.86

>  <cluster>  (61) 
1

$$$$
KTDBAWTUPMOUSA-JXMROGBWNA-N
     RDKit          3D

 64 68  0  0  0  0  0  0  0  0999 V2000
  139.2189   71.3516  220.5181 H   0  0  0  0  0  0  0  0  0  0  0  0
  139.3450   72.0740  221.3380 C   0  0  0  0  0  0  0  0  0  0  0  0
  138.6010   71.9420  222.4380 C   0  0  0  0  0  0  0  0  0  0  0  0
  137.6840   72.5396  222.5476 H   0  0  0  0  0  0  0  0  0  0  0  0
  138.9920   71.0040  223.5110 C   0  0  0  0  0  0  0  0  0  0  0  0
  139.6000   71.5250  224.6080 N   0  0  0  0  0  0  0  0  0  0  0  0
  140.0060   70.7500  225.6390 C   0  0  0  0  0  0  0  0  0  0  0  0
  140.6440   71.3300  226.7410 C   0  0  0  0  0  0  0  0  0  0  0  0
  140.8032   72.4179  226.7746 H   0  0  0  0  0  0  0  0  0  0  0  0
  141.0790   70.5270  227.7990 C   0  0  0  0  0  0  0  0  0  0  0  0
  141.5876   70.9832  228.6611 H   0  0  0  0  0  0  0  0  0  0  0  0
  140.8690   69.1440  227.7640 C   0  0  0  0  0  0  0  0  0  0  0  0
  141.4120   68.1420  229.0980 Cl  0  0  0  0  0  0  0  0  0  0  0  0
  140.2290   68.5590  226.6640 C   0  0  0  0  0  0  0  0  0  0  0  0
  140.0636   67.4718  226.6390 H   0  0  0  0  0  0  0  0  0  0  0  0
  139.7970   69.3610  225.5900 C   0  0  0  0  0  0  0  0  0  0  0  0
  139.1570   68.8240  224.4590 C   0  0  0  0  0  0  0  0  0  0  0  0
  138.9550   67.5780  224.3950 O   0  0  0  0  0  0  0  0  0  0  0  0
  138.7470   69.6460  223.4320 N   0  0  0  0  0  0  0  0  0  0  0  0
  137.9700   69.0600  222.3130 C   0  0  0  0  0  0  0  0  0  0  0  0
  138.1515   69.6529  221.4044 H   0  0  0  0  0  0  0  0  0  0  0  0
  138.2976   68.0187  222.1772 H   0  0  0  0  0  0  0  0  0  0  0  0
  136.4520   69.0520  222.6110 C   0  0  0  0  0  0  0  0  0  0  0  0
  135.9803   69.7614  221.9151 H   0  0  0  0  0  0  0  0  0  0  0  0
  136.1870   69.5070  224.0670 C   0  0  0  0  0  0  0  0  0  0  0  0
  136.9990   69.1303  224.7063 H   0  0  0  0  0  0  0  0  0  0  0  0
  136.1437   70.6061  224.0680 H   0  0  0  0  0  0  0  0  0  0  0  0
  134.8450   68.9890  224.6190 C   0  0  0  0  0  0  0  0  0  0  0  0
  135.0185   68.0391  225.1458 H   0  0  0  0  0  0  0  0  0  0  0  0
  134.4380   69.7487  225.3025 H   0  0  0  0  0  0  0  0  0  0  0  0
  133.8690   68.7670  223.5460 N   0  0  0  0  0  0  0  0  0  0  0  0
  133.7530   69.6530  222.9990 H   0  0  0  0  0  0  0  0  0  0  0  0
  134.2950   67.6870  222.6390 C   0  0  0  0  0  0  0  0  0  0  0  0
  134.0156   66.7236  223.0904 H   0  0  0  0  0  0  0  0  0  0  0  0
  133.7935   67.8591  221.6752 H   0  0  0  0  0  0  0  0  0  0  0  0
  135.8170   67.6740  222.3620 C   0  0  0  0  0  0  0  0  0  0  0  0
  136.2937   66.9368  223.0248 H   0  0  0  0  0  0  0  0  0  0  0  0
  135.9710   67.4114  221.3050 H   0  0  0  0  0  0  0  0  0  0  0  0
  140.3310   73.1600  221.1900 C   0  0  0  0  0  0  0  0  0  0  0  0
  141.5910   72.8770  220.6470 C   0  0  0  0  0  0  0  0  0  0  0  0
  141.8330   71.8515  220.3310 H   0  0  0  0  0  0  0  0  0  0  0  0
  142.5410   73.8900  220.5050 C   0  0  0  0  0  0  0  0  0  0  0  0
  143.5386   73.6554  220.1054 H   0  0  0  0  0  0  0  0  0  0  0  0
  142.2260   75.2020  220.8700 C   0  0  0  0  0  0  0  0  0  0  0  0
  142.9795   75.9956  220.7582 H   0  0  0  0  0  0  0  0  0  0  0  0
  140.9530   75.5150  221.3790 C   0  0  0  0  0  0  0  0  0  0  0  0
  140.6060   76.8810  221.6880 N   0  0  0  0  0  0  0  0  0  0  0  0
  139.3610   77.1830  222.4170 C   0  0  0  0  0  0  0  0  0  0  0  0
  138.5042   76.9877  221.7554 H   0  0  0  0  0  0  0  0  0  0  0  0
  139.3230   76.5427  223.3106 H   0  0  0  0  0  0  0  0  0  0  0  0
  139.3120   78.6500  222.8760 C   0  0  0  0  0  0  0  0  0  0  0  0
  139.0430   79.2872  222.0206 H   0  0  0  0  0  0  0  0  0  0  0  0
  138.5614   78.7458  223.6744 H   0  0  0  0  0  0  0  0  0  0  0  0
  140.6730   79.0920  223.4240 C   0  0  0  0  0  0  0  0  0  0  0  0
  140.6142   80.1572  223.6921 H   0  0  0  0  0  0  0  0  0  0  0  0
  140.8976   78.4617  224.2971 H   0  0  0  0  0  0  0  0  0  0  0  0
  141.8220   78.9020  222.4070 C   0  0  0  0  0  0  0  0  0  0  0  0
  142.1020   79.8887  222.0096 H   0  0  0  0  0  0  0  0  0  0  0  0
  142.6516   78.4175  222.9427 H   0  0  0  0  0  0  0  0  0  0  0  0
  141.4520   77.9910  221.2290 C   0  0  0  0  0  0  0  0  0  0  0  0
  140.9048   78.5766  220.4755 H   0  0  0  0  0  0  0  0  0  0  0  0
  142.3739   77.5805  220.7912 H   0  0  0  0  0  0  0  0  0  0  0  0
  140.0170   74.4810  221.5600 C   0  0  0  0  0  0  0  0  0  0  0  0
  139.0318   74.7066  221.9942 H   0  0  0  0  0  0  0  0  0  0  0  0
  1  2  1  0
  2  3  2  0
  3  4  1  0
  3  5  1  0
  5  6  2  0
  6  7  1  0
  7  8  2  0
  8  9  1  0
  8 10  1  0
 10 11  1  0
 10 12  2  0
 12 13  1  0
 12 14  1  0
 14 15  1  0
 14 16  2  0
 16 17  1  0
 17 18  2  0
 17 19  1  0
 19 20  1  0
 20 21  1  0
 20 22  1  0
 20 23  1  0
 23 24  1  0
 23 25  1  0
 25 26  1  0
 25 27  1  0
 25 28  1  0
 28 29  1  0
 28 30  1  0
 28 31  1  0
 31 32  1  0
 31 33  1  0
 33 34  1  0
 33 35  1  0
 33 36  1  0
 36 37  1  0
 36 38  1  0
  2 39  1  0
 39 40  2  0
 40 41  1  0
 40 42  1  0
 42 43  1  0
 42 44  2  0
 44 45  1  0
 44 46  1  0
 46 47  1  0
 47 48  1  0
 48 49  1  0
 48 50  1  0
 48 51  1  0
 51 52  1  0
 51 53  1  0
 51 54  1  0
 54 55  1  0
 54 56  1  0
 54 57  1  0
 57 58  1  0
 57 59  1  0
 57 60  1  0
 60 61  1  0
 60 62  1  0
 46 63  2  0
 63 64  1  0
 19  5  1  0
 36 23  1  0
 63 39  1  0
 16  7  1  0
 60 47  1  0
M  END
>  <UniqueID>  (62) 
421

>  <SMILES>  (62) 
O=c1c2cc(Cl)ccc2nc(/C=C/c2cccc(N3CCCCC3)c2)n1CC1CCNCC1

>  <Energy>  (62) 
91.87130403612728

>  <Genealogy>  (62) 
O=c1c2cc(Cl)ccc2nc(/C=C/c2cccc(N3CCCCC3)c2)n1CC1CCNCC1 (cis-trans isomerization)
O=c1c2cc(Cl)ccc2nc(/C=C/c2cccc(N3CCCCC3)c2)n1CC1CCNCC1 (3D coordinates assigned)
O=c1c2cc(Cl)ccc2nc(/C=C/c2cccc(N3CCCCC3)c2)n1CC1CCNCC1 (nonaromatic ring conformer: 91.87130403612728 kcal/mol)

>  <smiles>  (62) 
O=c1c2cc(Cl)ccc2nc(/C=C/c2cccc(N3CCCCC3)c2)n1CC1CCNCC1

>  <score_type>  (62) 
oracle

>  <origin>  (62) 
autodockgpu

>  <m_score__min__energy>  (62) 
-10.279999999999999

>  <m_primary>  (62) 
energy

>  <meeko>  (62) 
{"free_energy": -8.38, "intermolecular_energy": -10.17, "internal_energy": -1.49, "cluster_size": 1, "cluster_id": 3, "rank_in_cluster": 1}

>  <energy>  (62) 
-10.27

>  <cluster_rmsd>  (62) 
0.03

>  <rmsd>  (62) 
270.87

>  <cluster>  (62) 
1

$$$$
KTDBAWTUPMOUSA-JXMROGBWNA-N
     RDKit          3D

 64 68  0  0  0  0  0  0  0  0999 V2000
  137.9612   73.5281  220.9443 H   0  0  0  0  0  0  0  0  0  0  0  0
  138.7030   72.9030  221.4630 C   0  0  0  0  0  0  0  0  0  0  0  0
  140.0010   73.1150  221.2370 C   0  0  0  0  0  0  0  0  0  0  0  0
  140.6819   72.2564  221.1416 H   0  0  0  0  0  0  0  0  0  0  0  0
  140.5370   74.4870  221.1130 C   0  0  0  0  0  0  0  0  0  0  0  0
  140.1030   75.4120  222.0070 N   0  0  0  0  0  0  0  0  0  0  0  0
  140.5240   76.6960  221.9710 C   0  0  0  0  0  0  0  0  0  0  0  0
  140.0370   77.6190  222.9030 C   0  0  0  0  0  0  0  0  0  0  0  0
  139.3218   77.2959  223.6738 H   0  0  0  0  0  0  0  0  0  0  0  0
  140.4580   78.9510  222.8560 C   0  0  0  0  0  0  0  0  0  0  0  0
  140.0674   79.6768  223.5844 H   0  0  0  0  0  0  0  0  0  0  0  0
  141.3760   79.3620  221.8830 C   0  0  0  0  0  0  0  0  0  0  0  0
  141.9060   81.0340  221.8310 Cl  0  0  0  0  0  0  0  0  0  0  0  0
  141.8690   78.4430  220.9490 C   0  0  0  0  0  0  0  0  0  0  0  0
  142.5922   78.7688  220.1868 H   0  0  0  0  0  0  0  0  0  0  0  0
  141.4400   77.1010  220.9840 C   0  0  0  0  0  0  0  0  0  0  0  0
  141.8970   76.1390  220.0670 C   0  0  0  0  0  0  0  0  0  0  0  0
  142.7240   76.4800  219.1730 O   0  0  0  0  0  0  0  0  0  0  0  0
  141.4550   74.8370  220.1410 N   0  0  0  0  0  0  0  0  0  0  0  0
  142.0480   73.8270  219.2320 C   0  0  0  0  0  0  0  0  0  0  0  0
  141.6578   72.8340  219.4998 H   0  0  0  0  0  0  0  0  0  0  0  0
  141.7755   74.0934  218.2001 H   0  0  0  0  0  0  0  0  0  0  0  0
  143.5920   73.8020  219.3310 C   0  0  0  0  0  0  0  0  0  0  0  0
  143.9605   74.7408  218.8918 H   0  0  0  0  0  0  0  0  0  0  0  0
  144.1630   72.6030  218.5350 C   0  0  0  0  0  0  0  0  0  0  0  0
  143.4703   71.7541  218.6328 H   0  0  0  0  0  0  0  0  0  0  0  0
  144.2717   72.9217  217.4878 H   0  0  0  0  0  0  0  0  0  0  0  0
  145.5540   72.1640  219.0340 C   0  0  0  0  0  0  0  0  0  0  0  0
  145.4298   71.3681  219.7831 H   0  0  0  0  0  0  0  0  0  0  0  0
  146.1316   71.8034  218.1701 H   0  0  0  0  0  0  0  0  0  0  0  0
  146.2860   73.2800  219.6420 N   0  0  0  0  0  0  0  0  0  0  0  0
  146.3460   74.0680  218.9540 H   0  0  0  0  0  0  0  0  0  0  0  0
  145.6270   73.7570  220.8710 C   0  0  0  0  0  0  0  0  0  0  0  0
  145.9307   73.1055  221.7036 H   0  0  0  0  0  0  0  0  0  0  0  0
  145.9403   74.8008  221.0204 H   0  0  0  0  0  0  0  0  0  0  0  0
  144.0830   73.7550  220.7870 C   0  0  0  0  0  0  0  0  0  0  0  0
  143.7014   72.8393  221.2623 H   0  0  0  0  0  0  0  0  0  0  0  0
  143.7106   74.6521  221.3032 H   0  0  0  0  0  0  0  0  0  0  0  0
  138.2350   71.8550  222.3880 C   0  0  0  0  0  0  0  0  0  0  0  0
  137.0190   71.2060  222.1340 C   0  0  0  0  0  0  0  0  0  0  0  0
  136.4278   71.4778  221.2471 H   0  0  0  0  0  0  0  0  0  0  0  0
  136.5550   70.2160  223.0020 C   0  0  0  0  0  0  0  0  0  0  0  0
  135.5857   69.7311  222.8137 H   0  0  0  0  0  0  0  0  0  0  0  0
  137.3190   69.8400  224.1090 C   0  0  0  0  0  0  0  0  0  0  0  0
  136.9463   69.0606  224.7899 H   0  0  0  0  0  0  0  0  0  0  0  0
  138.5610   70.4500  224.3600 C   0  0  0  0  0  0  0  0  0  0  0  0
  139.3820   70.0110  225.4630 N   0  0  0  0  0  0  0  0  0  0  0  0
  138.9570   68.8710  226.2960 C   0  0  0  0  0  0  0  0  0  0  0  0
  138.0928   69.1766  226.9041 H   0  0  0  0  0  0  0  0  0  0  0  0
  138.6942   68.0375  225.6280 H   0  0  0  0  0  0  0  0  0  0  0  0
  140.0820   68.3990  227.2310 C   0  0  0  0  0  0  0  0  0  0  0  0
  140.1503   69.0846  228.0885 H   0  0  0  0  0  0  0  0  0  0  0  0
  139.8519   67.3797  227.5747 H   0  0  0  0  0  0  0  0  0  0  0  0
  141.4250   68.3790  226.4950 C   0  0  0  0  0  0  0  0  0  0  0  0
  142.2109   68.0881  227.2075 H   0  0  0  0  0  0  0  0  0  0  0  0
  141.3356   67.6608  225.6666 H   0  0  0  0  0  0  0  0  0  0  0  0
  141.7980   69.7480  225.8820 C   0  0  0  0  0  0  0  0  0  0  0  0
  142.5883   70.2019  226.4979 H   0  0  0  0  0  0  0  0  0  0  0  0
  142.1299   69.5616  224.8500 H   0  0  0  0  0  0  0  0  0  0  0  0
  140.6170   70.7260  225.8080 C   0  0  0  0  0  0  0  0  0  0  0  0
  140.4911   71.2169  226.7843 H   0  0  0  0  0  0  0  0  0  0  0  0
  140.8236   71.4771  225.0314 H   0  0  0  0  0  0  0  0  0  0  0  0
  139.0010   71.4770  223.5060 C   0  0  0  0  0  0  0  0  0  0  0  0
  139.9521   71.9891  223.7138 H   0  0  0  0  0  0  0  0  0  0  0  0
  1  2  1  0
  2  3  2  0
  3  4  1  0
  3  5  1  0
  5  6  2  0
  6  7  1  0
  7  8  2  0
  8  9  1  0
  8 10  1  0
 10 11  1  0
 10 12  2  0
 12 13  1  0
 12 14  1  0
 14 15  1  0
 14 16  2  0
 16 17  1  0
 17 18  2  0
 17 19  1  0
 19 20  1  0
 20 21  1  0
 20 22  1  0
 20 23  1  0
 23 24  1  0
 23 25  1  0
 25 26  1  0
 25 27  1  0
 25 28  1  0
 28 29  1  0
 28 30  1  0
 28 31  1  0
 31 32  1  0
 31 33  1  0
 33 34  1  0
 33 35  1  0
 33 36  1  0
 36 37  1  0
 36 38  1  0
  2 39  1  0
 39 40  2  0
 40 41  1  0
 40 42  1  0
 42 43  1  0
 42 44  2  0
 44 45  1  0
 44 46  1  0
 46 47  1  0
 47 48  1  0
 48 49  1  0
 48 50  1  0
 48 51  1  0
 51 52  1  0
 51 53  1  0
 51 54  1  0
 54 55  1  0
 54 56  1  0
 54 57  1  0
 57 58  1  0
 57 59  1  0
 57 60  1  0
 60 61  1  0
 60 62  1  0
 46 63  2  0
 63 64  1  0
 19  5  1  0
 36 23  1  0
 63 39  1  0
 16  7  1  0
 60 47  1  0
M  END
>  <UniqueID>  (63) 
421

>  <SMILES>  (63) 
O=c1c2cc(Cl)ccc2nc(/C=C/c2cccc(N3CCCCC3)c2)n1CC1CCNCC1

>  <Energy>  (63) 
91.87130403612728

>  <Genealogy>  (63) 
O=c1c2cc(Cl)ccc2nc(/C=C/c2cccc(N3CCCCC3)c2)n1CC1CCNCC1 (cis-trans isomerization)
O=c1c2cc(Cl)ccc2nc(/C=C/c2cccc(N3CCCCC3)c2)n1CC1CCNCC1 (3D coordinates assigned)
O=c1c2cc(Cl)ccc2nc(/C=C/c2cccc(N3CCCCC3)c2)n1CC1CCNCC1 (nonaromatic ring conformer: 91.87130403612728 kcal/mol)

>  <smiles>  (63) 
O=c1c2cc(Cl)ccc2nc(/C=C/c2cccc(N3CCCCC3)c2)n1CC1CCNCC1

>  <score_type>  (63) 
oracle

>  <origin>  (63) 
autodockgpu

>  <m_score__min__energy>  (63) 
-10.279999999999999

>  <m_primary>  (63) 
energy

>  <meeko>  (63) 
{"free_energy": -8.95, "intermolecular_energy": -10.74, "internal_energy": -1.38, "cluster_size": 15, "cluster_id": 1, "rank_in_cluster": 14}

>  <energy>  (63) 
-10.26

>  <cluster_rmsd>  (63) 
0.09

>  <rmsd>  (63) 
270.87

>  <cluster>  (63) 
1

$$$$
KTDBAWTUPMOUSA-JXMROGBWNA-N
     RDKit          3D

 64 68  0  0  0  0  0  0  0  0999 V2000
  142.2304   73.0126  221.9080 H   0  0  0  0  0  0  0  0  0  0  0  0
  141.5450   72.7370  221.0930 C   0  0  0  0  0  0  0  0  0  0  0  0
  140.7720   73.6790  220.5500 C   0  0  0  0  0  0  0  0  0  0  0  0
  139.8559   73.3870  220.0157 H   0  0  0  0  0  0  0  0  0  0  0  0
  141.1290   75.1100  220.6560 C   0  0  0  0  0  0  0  0  0  0  0  0
  140.6980   75.7830  221.7540 N   0  0  0  0  0  0  0  0  0  0  0  0
  140.9620   77.0960  221.9390 C   0  0  0  0  0  0  0  0  0  0  0  0
  140.4830   77.7520  223.0780 C   0  0  0  0  0  0  0  0  0  0  0  0
  139.9033   77.1962  223.8297 H   0  0  0  0  0  0  0  0  0  0  0  0
  140.7410   79.1140  223.2610 C   0  0  0  0  0  0  0  0  0  0  0  0
  140.3570   79.6306  224.1530 H   0  0  0  0  0  0  0  0  0  0  0  0
  141.4870   79.8210  222.3110 C   0  0  0  0  0  0  0  0  0  0  0  0
  141.8130   81.5290  222.5490 Cl  0  0  0  0  0  0  0  0  0  0  0  0
  141.9710   79.1690  221.1700 C   0  0  0  0  0  0  0  0  0  0  0  0
  142.5589   79.7264  220.4259 H   0  0  0  0  0  0  0  0  0  0  0  0
  141.7050   77.7990  220.9750 C   0  0  0  0  0  0  0  0  0  0  0  0
  142.1610   77.0980  219.8450 C   0  0  0  0  0  0  0  0  0  0  0  0
  142.8340   77.7080  218.9660 O   0  0  0  0  0  0  0  0  0  0  0  0
  141.8820   75.7570  219.6950 N   0  0  0  0  0  0  0  0  0  0  0  0
  142.4780   75.0250  218.5510 C   0  0  0  0  0  0  0  0  0  0  0  0
  141.8689   74.1331  218.3424 H   0  0  0  0  0  0  0  0  0  0  0  0
  142.4969   75.7016  217.6839 H   0  0  0  0  0  0  0  0  0  0  0  0
  143.9300   74.5820  218.8480 C   0  0  0  0  0  0  0  0  0  0  0  0
  144.5891   75.4121  218.5540 H   0  0  0  0  0  0  0  0  0  0  0  0
  144.2880   73.3230  218.0210 C   0  0  0  0  0  0  0  0  0  0  0  0
  143.3941   72.6865  217.9448 H   0  0  0  0  0  0  0  0  0  0  0  0
  144.6323   73.6623  217.0329 H   0  0  0  0  0  0  0  0  0  0  0  0
  145.4270   72.4990  218.6520 C   0  0  0  0  0  0  0  0  0  0  0  0
  144.9905   71.7224  219.2973 H   0  0  0  0  0  0  0  0  0  0  0  0
  146.0169   72.0493  217.8397 H   0  0  0  0  0  0  0  0  0  0  0  0
  146.3210   73.3400  219.4570 N   0  0  0  0  0  0  0  0  0  0  0  0
  146.6840   74.1220  218.8620 H   0  0  0  0  0  0  0  0  0  0  0  0
  145.6280   73.9020  220.6290 C   0  0  0  0  0  0  0  0  0  0  0  0
  145.6245   73.1447  221.4268 H   0  0  0  0  0  0  0  0  0  0  0  0
  146.1721   74.8132  220.9182 H   0  0  0  0  0  0  0  0  0  0  0  0
  144.1660   74.3190  220.3450 C   0  0  0  0  0  0  0  0  0  0  0  0
  143.4947   73.5127  220.6754 H   0  0  0  0  0  0  0  0  0  0  0  0
  143.9625   75.2508  220.8931 H   0  0  0  0  0  0  0  0  0  0  0  0
  141.5070   71.3370  220.6320 C   0  0  0  0  0  0  0  0  0  0  0  0
  140.2930   70.6380  220.6530 C   0  0  0  0  0  0  0  0  0  0  0  0
  139.3794   71.1377  221.0074 H   0  0  0  0  0  0  0  0  0  0  0  0
  140.2380   69.3100  220.2260 C   0  0  0  0  0  0  0  0  0  0  0  0
  139.2881   68.7572  220.2724 H   0  0  0  0  0  0  0  0  0  0  0  0
  141.3870   68.6820  219.7400 C   0  0  0  0  0  0  0  0  0  0  0  0
  141.3372   67.6346  219.4078 H   0  0  0  0  0  0  0  0  0  0  0  0
  142.6070   69.3780  219.6720 C   0  0  0  0  0  0  0  0  0  0  0  0
  143.7760   68.7510  219.1030 N   0  0  0  0  0  0  0  0  0  0  0  0
  145.1000   69.3840  219.2440 C   0  0  0  0  0  0  0  0  0  0  0  0
  145.1315   70.2877  218.6176 H   0  0  0  0  0  0  0  0  0  0  0  0
  145.2492   69.6340  220.3048 H   0  0  0  0  0  0  0  0  0  0  0  0
  146.2320   68.4380  218.8110 C   0  0  0  0  0  0  0  0  0  0  0  0
  146.2862   68.4188  217.7125 H   0  0  0  0  0  0  0  0  0  0  0  0
  147.1795   68.8036  219.2335 H   0  0  0  0  0  0  0  0  0  0  0  0
  145.9780   67.0180  219.3270 C   0  0  0  0  0  0  0  0  0  0  0  0
  146.7777   66.3611  218.9544 H   0  0  0  0  0  0  0  0  0  0  0  0
  145.9641   67.0642  220.4259 H   0  0  0  0  0  0  0  0  0  0  0  0
  144.6160   66.4450  218.8700 C   0  0  0  0  0  0  0  0  0  0  0  0
  144.7982   65.7030  218.0786 H   0  0  0  0  0  0  0  0  0  0  0  0
  144.1379   66.0010  219.7556 H   0  0  0  0  0  0  0  0  0  0  0  0
  143.6560   67.5110  218.3250 C   0  0  0  0  0  0  0  0  0  0  0  0
  143.9024   67.7174  217.2730 H   0  0  0  0  0  0  0  0  0  0  0  0
  142.6244   67.1374  218.4042 H   0  0  0  0  0  0  0  0  0  0  0  0
  142.6640   70.7020  220.1450 C   0  0  0  0  0  0  0  0  0  0  0  0
  143.6207   71.2447  220.1339 H   0  0  0  0  0  0  0  0  0  0  0  0
  1  2  1  0
  2  3  2  0
  3  4  1  0
  3  5  1  0
  5  6  2  0
  6  7  1  0
  7  8  2  0
  8  9  1  0
  8 10  1  0
 10 11  1  0
 10 12  2  0
 12 13  1  0
 12 14  1  0
 14 15  1  0
 14 16  2  0
 16 17  1  0
 17 18  2  0
 17 19  1  0
 19 20  1  0
 20 21  1  0
 20 22  1  0
 20 23  1  0
 23 24  1  0
 23 25  1  0
 25 26  1  0
 25 27  1  0
 25 28  1  0
 28 29  1  0
 28 30  1  0
 28 31  1  0
 31 32  1  0
 31 33  1  0
 33 34  1  0
 33 35  1  0
 33 36  1  0
 36 37  1  0
 36 38  1  0
  2 39  1  0
 39 40  2  0
 40 41  1  0
 40 42  1  0
 42 43  1  0
 42 44  2  0
 44 45  1  0
 44 46  1  0
 46 47  1  0
 47 48  1  0
 48 49  1  0
 48 50  1  0
 48 51  1  0
 51 52  1  0
 51 53  1  0
 51 54  1  0
 54 55  1  0
 54 56  1  0
 54 57  1  0
 57 58  1  0
 57 59  1  0
 57 60  1  0
 60 61  1  0
 60 62  1  0
 46 63  2  0
 63 64  1  0
 19  5  1  0
 36 23  1  0
 63 39  1  0
 16  7  1  0
 60 47  1  0
M  END
>  <UniqueID>  (64) 
421

>  <SMILES>  (64) 
O=c1c2cc(Cl)ccc2nc(/C=C/c2cccc(N3CCCCC3)c2)n1CC1CCNCC1

>  <Energy>  (64) 
91.87130403612728

>  <Genealogy>  (64) 
O=c1c2cc(Cl)ccc2nc(/C=C/c2cccc(N3CCCCC3)c2)n1CC1CCNCC1 (cis-trans isomerization)
O=c1c2cc(Cl)ccc2nc(/C=C/c2cccc(N3CCCCC3)c2)n1CC1CCNCC1 (3D coordinates assigned)
O=c1c2cc(Cl)ccc2nc(/C=C/c2cccc(N3CCCCC3)c2)n1CC1CCNCC1 (nonaromatic ring conformer: 91.87130403612728 kcal/mol)

>  <smiles>  (64) 
O=c1c2cc(Cl)ccc2nc(/C=C/c2cccc(N3CCCCC3)c2)n1CC1CCNCC1

>  <score_type>  (64) 
oracle

>  <origin>  (64) 
autodockgpu

>  <m_score__min__energy>  (64) 
-10.279999999999999

>  <m_primary>  (64) 
energy

>  <meeko>  (64) 
{"free_energy": -7.97, "intermolecular_energy": -9.76, "internal_energy": -2.06, "cluster_size": 1, "cluster_id": 5, "rank_in_cluster": 1}

>  <energy>  (64) 
-10.25

>  <cluster_rmsd>  (64) 
0.68

>  <rmsd>  (64) 
270.76

>  <cluster>  (64) 
1

$$$$
KTDBAWTUPMOUSA-JXMROGBWNA-N
     RDKit          3D

 64 68  0  0  0  0  0  0  0  0999 V2000
  142.2342   72.5328  221.5038 H   0  0  0  0  0  0  0  0  0  0  0  0
  141.1690   72.8070  221.4910 C   0  0  0  0  0  0  0  0  0  0  0  0
  140.7370   73.6860  220.5840 C   0  0  0  0  0  0  0  0  0  0  0  0
  140.1048   73.3409  219.7526 H   0  0  0  0  0  0  0  0  0  0  0  0
  141.0960   75.1160  220.6810 C   0  0  0  0  0  0  0  0  0  0  0  0
  140.6530   75.8010  221.7670 N   0  0  0  0  0  0  0  0  0  0  0  0
  140.9190   77.1140  221.9430 C   0  0  0  0  0  0  0  0  0  0  0  0
  140.4270   77.7830  223.0700 C   0  0  0  0  0  0  0  0  0  0  0  0
  139.8364   77.2361  223.8197 H   0  0  0  0  0  0  0  0  0  0  0  0
  140.6860   79.1460  223.2430 C   0  0  0  0  0  0  0  0  0  0  0  0
  140.2914   79.6721  224.1247 H   0  0  0  0  0  0  0  0  0  0  0  0
  141.4460   79.8420  222.2970 C   0  0  0  0  0  0  0  0  0  0  0  0
  141.7740   81.5510  222.5230 Cl  0  0  0  0  0  0  0  0  0  0  0  0
  141.9430   79.1780  221.1680 C   0  0  0  0  0  0  0  0  0  0  0  0
  142.5419   79.7271  220.4265 H   0  0  0  0  0  0  0  0  0  0  0  0
  141.6760   77.8070  220.9820 C   0  0  0  0  0  0  0  0  0  0  0  0
  142.1440   77.0940  219.8640 C   0  0  0  0  0  0  0  0  0  0  0  0
  142.8300   77.6950  218.9890 O   0  0  0  0  0  0  0  0  0  0  0  0
  141.8630   75.7530  219.7240 N   0  0  0  0  0  0  0  0  0  0  0  0
  142.4720   75.0080  218.5950 C   0  0  0  0  0  0  0  0  0  0  0  0
  141.8651   74.1138  218.3897 H   0  0  0  0  0  0  0  0  0  0  0  0
  142.5009   75.6750  217.7208 H   0  0  0  0  0  0  0  0  0  0  0  0
  143.9210   74.5680  218.9130 C   0  0  0  0  0  0  0  0  0  0  0  0
  144.5796   75.4149  218.6703 H   0  0  0  0  0  0  0  0  0  0  0  0
  144.3130   73.3470  218.0460 C   0  0  0  0  0  0  0  0  0  0  0  0
  143.4282   72.7056  217.9210 H   0  0  0  0  0  0  0  0  0  0  0  0
  144.6787   73.7283  217.0812 H   0  0  0  0  0  0  0  0  0  0  0  0
  145.4450   72.5090  218.6750 C   0  0  0  0  0  0  0  0  0  0  0  0
  145.0003   71.7036  219.2780 H   0  0  0  0  0  0  0  0  0  0  0  0
  146.0606   72.0966  217.8620 H   0  0  0  0  0  0  0  0  0  0  0  0
  146.3080   73.3270  219.5350 N   0  0  0  0  0  0  0  0  0  0  0  0
  146.6780   74.1350  218.9810 H   0  0  0  0  0  0  0  0  0  0  0  0
  145.5780   73.8360  220.7100 C   0  0  0  0  0  0  0  0  0  0  0  0
  145.5618   73.0480  221.4773 H   0  0  0  0  0  0  0  0  0  0  0  0
  146.1043   74.7403  221.0494 H   0  0  0  0  0  0  0  0  0  0  0  0
  144.1200   74.2490  220.4030 C   0  0  0  0  0  0  0  0  0  0  0  0
  143.4492   73.4236  220.6835 H   0  0  0  0  0  0  0  0  0  0  0  0
  143.8918   75.1565  220.9813 H   0  0  0  0  0  0  0  0  0  0  0  0
  140.2600   72.1930  222.4760 C   0  0  0  0  0  0  0  0  0  0  0  0
  138.8960   72.0760  222.1740 C   0  0  0  0  0  0  0  0  0  0  0  0
  138.5164   72.4358  221.2063 H   0  0  0  0  0  0  0  0  0  0  0  0
  138.0180   71.5050  223.0960 C   0  0  0  0  0  0  0  0  0  0  0  0
  136.9442   71.4426  222.8658 H   0  0  0  0  0  0  0  0  0  0  0  0
  138.5010   71.0120  224.3120 C   0  0  0  0  0  0  0  0  0  0  0  0
  137.8033   70.5651  225.0355 H   0  0  0  0  0  0  0  0  0  0  0  0
  139.8710   71.0830  224.6170 C   0  0  0  0  0  0  0  0  0  0  0  0
  140.3780   70.5090  225.8400 N   0  0  0  0  0  0  0  0  0  0  0  0
  140.6430   71.3690  227.0090 C   0  0  0  0  0  0  0  0  0  0  0  0
  141.5212   71.9969  226.7978 H   0  0  0  0  0  0  0  0  0  0  0  0
  139.7509   71.9867  227.1895 H   0  0  0  0  0  0  0  0  0  0  0  0
  140.9160   70.5400  228.2750 C   0  0  0  0  0  0  0  0  0  0  0  0
  141.9465   70.1566  228.2405 H   0  0  0  0  0  0  0  0  0  0  0  0
  140.7780   71.1837  229.1562 H   0  0  0  0  0  0  0  0  0  0  0  0
  139.9430   69.3600  228.3690 C   0  0  0  0  0  0  0  0  0  0  0  0
  140.2006   68.7626  229.2560 H   0  0  0  0  0  0  0  0  0  0  0  0
  138.9265   69.7751  228.4359 H   0  0  0  0  0  0  0  0  0  0  0  0
  139.9880   68.4420  227.1260 C   0  0  0  0  0  0  0  0  0  0  0  0
  140.5212   67.5181  227.3947 H   0  0  0  0  0  0  0  0  0  0  0  0
  138.9467   68.2511  226.8271 H   0  0  0  0  0  0  0  0  0  0  0  0
  140.6940   69.0770  225.9210 C   0  0  0  0  0  0  0  0  0  0  0  0
  141.7813   68.9512  226.0300 H   0  0  0  0  0  0  0  0  0  0  0  0
  140.3470   68.5820  225.0020 H   0  0  0  0  0  0  0  0  0  0  0  0
  140.7430   71.7000  223.7010 C   0  0  0  0  0  0  0  0  0  0  0  0
  141.8111   71.7974  223.9453 H   0  0  0  0  0  0  0  0  0  0  0  0
  1  2  1  0
  2  3  2  0
  3  4  1  0
  3  5  1  0
  5  6  2  0
  6  7  1  0
  7  8  2  0
  8  9  1  0
  8 10  1  0
 10 11  1  0
 10 12  2  0
 12 13  1  0
 12 14  1  0
 14 15  1  0
 14 16  2  0
 16 17  1  0
 17 18  2  0
 17 19  1  0
 19 20  1  0
 20 21  1  0
 20 22  1  0
 20 23  1  0
 23 24  1  0
 23 25  1  0
 25 26  1  0
 25 27  1  0
 25 28  1  0
 28 29  1  0
 28 30  1  0
 28 31  1  0
 31 32  1  0
 31 33  1  0
 33 34  1  0
 33 35  1  0
 33 36  1  0
 36 37  1  0
 36 38  1  0
  2 39  1  0
 39 40  2  0
 40 41  1  0
 40 42  1  0
 42 43  1  0
 42 44  2  0
 44 45  1  0
 44 46  1  0
 46 47  1  0
 47 48  1  0
 48 49  1  0
 48 50  1  0
 48 51  1  0
 51 52  1  0
 51 53  1  0
 51 54  1  0
 54 55  1  0
 54 56  1  0
 54 57  1  0
 57 58  1  0
 57 59  1  0
 57 60  1  0
 60 61  1  0
 60 62  1  0
 46 63  2  0
 63 64  1  0
 19  5  1  0
 36 23  1  0
 63 39  1  0
 16  7  1  0
 60 47  1  0
M  END
>  <UniqueID>  (65) 
421

>  <SMILES>  (65) 
O=c1c2cc(Cl)ccc2nc(/C=C/c2cccc(N3CCCCC3)c2)n1CC1CCNCC1

>  <Energy>  (65) 
91.87130403612728

>  <Genealogy>  (65) 
O=c1c2cc(Cl)ccc2nc(/C=C/c2cccc(N3CCCCC3)c2)n1CC1CCNCC1 (cis-trans isomerization)
O=c1c2cc(Cl)ccc2nc(/C=C/c2cccc(N3CCCCC3)c2)n1CC1CCNCC1 (3D coordinates assigned)
O=c1c2cc(Cl)ccc2nc(/C=C/c2cccc(N3CCCCC3)c2)n1CC1CCNCC1 (nonaromatic ring conformer: 91.87130403612728 kcal/mol)

>  <smiles>  (65) 
O=c1c2cc(Cl)ccc2nc(/C=C/c2cccc(N3CCCCC3)c2)n1CC1CCNCC1

>  <score_type>  (65) 
oracle

>  <origin>  (65) 
autodockgpu

>  <m_score__min__energy>  (65) 
-10.279999999999999

>  <m_primary>  (65) 
energy

>  <meeko>  (65) 
{"free_energy": -10.2, "intermolecular_energy": -11.99, "internal_energy": -1.57, "cluster_size": 15, "cluster_id": 1, "rank_in_cluster": 5}

>  <energy>  (65) 
-10.2

>  <cluster_rmsd>  (65) 
0.2

>  <rmsd>  (65) 
270.84

>  <cluster>  (65) 
1

$$$$
KTDBAWTUPMOUSA-JXMROGBWNA-N
     RDKit          3D

 64 68  0  0  0  0  0  0  0  0999 V2000
  138.9628   74.8683  221.2216 H   0  0  0  0  0  0  0  0  0  0  0  0
  139.8630   74.4320  221.6790 C   0  0  0  0  0  0  0  0  0  0  0  0
  140.9120   75.2200  221.9260 C   0  0  0  0  0  0  0  0  0  0  0  0
  141.4354   75.1397  222.8901 H   0  0  0  0  0  0  0  0  0  0  0  0
  141.3800   76.1990  220.9220 C   0  0  0  0  0  0  0  0  0  0  0  0
  141.2210   77.5160  221.2110 N   0  0  0  0  0  0  0  0  0  0  0  0
  141.6060   78.4890  220.3550 C   0  0  0  0  0  0  0  0  0  0  0  0
  141.4070   79.8330  220.6890 C   0  0  0  0  0  0  0  0  0  0  0  0
  140.9508   80.0982  221.6542 H   0  0  0  0  0  0  0  0  0  0  0  0
  141.7880   80.8390  219.7960 C   0  0  0  0  0  0  0  0  0  0  0  0
  141.6228   81.8949  220.0562 H   0  0  0  0  0  0  0  0  0  0  0  0
  142.3790   80.5060  218.5720 C   0  0  0  0  0  0  0  0  0  0  0  0
  142.8610   81.7730  217.4580 Cl  0  0  0  0  0  0  0  0  0  0  0  0
  142.5820   79.1620  218.2340 C   0  0  0  0  0  0  0  0  0  0  0  0
  143.0482   78.9019  217.2722 H   0  0  0  0  0  0  0  0  0  0  0  0
  142.1900   78.1430  219.1240 C   0  0  0  0  0  0  0  0  0  0  0  0
  142.3650   76.7790  218.8320 C   0  0  0  0  0  0  0  0  0  0  0  0
  142.8920   76.4440  217.7330 O   0  0  0  0  0  0  0  0  0  0  0  0
  141.9710   75.8150  219.7330 N   0  0  0  0  0  0  0  0  0  0  0  0
  142.2780   74.3940  219.4420 C   0  0  0  0  0  0  0  0  0  0  0  0
  141.8263   73.7648  220.2230 H   0  0  0  0  0  0  0  0  0  0  0  0
  141.8660   74.1506  218.4515 H   0  0  0  0  0  0  0  0  0  0  0  0
  143.8030   74.1320  219.4070 C   0  0  0  0  0  0  0  0  0  0  0  0
  144.2950   75.0980  219.2207 H   0  0  0  0  0  0  0  0  0  0  0  0
  144.1520   73.1470  218.2640 C   0  0  0  0  0  0  0  0  0  0  0  0
  143.3414   72.4086  218.1760 H   0  0  0  0  0  0  0  0  0  0  0  0
  144.2680   73.7356  217.3420 H   0  0  0  0  0  0  0  0  0  0  0  0
  145.4770   72.3980  218.5080 C   0  0  0  0  0  0  0  0  0  0  0  0
  145.2605   71.4449  219.0127 H   0  0  0  0  0  0  0  0  0  0  0  0
  145.9593   72.2266  217.5344 H   0  0  0  0  0  0  0  0  0  0  0  0
  146.3950   73.1810  219.3430 N   0  0  0  0  0  0  0  0  0  0  0  0
  146.5490   74.1170  218.9000 H   0  0  0  0  0  0  0  0  0  0  0  0
  145.8630   73.3680  220.7050 C   0  0  0  0  0  0  0  0  0  0  0  0
  146.0947   72.4690  221.2950 H   0  0  0  0  0  0  0  0  0  0  0  0
  146.3375   74.2720  221.1146 H   0  0  0  0  0  0  0  0  0  0  0  0
  144.3350   73.6000  220.7480 C   0  0  0  0  0  0  0  0  0  0  0  0
  143.8359   72.6468  220.9767 H   0  0  0  0  0  0  0  0  0  0  0  0
  144.1237   74.3513  221.5232 H   0  0  0  0  0  0  0  0  0  0  0  0
  139.8770   72.9930  222.0020 C   0  0  0  0  0  0  0  0  0  0  0  0
  139.6660   72.0560  220.9810 C   0  0  0  0  0  0  0  0  0  0  0  0
  139.4982   72.3986  219.9493 H   0  0  0  0  0  0  0  0  0  0  0  0
  139.6680   70.6910  221.2680 C   0  0  0  0  0  0  0  0  0  0  0  0
  139.4708   69.9618  220.4684 H   0  0  0  0  0  0  0  0  0  0  0  0
  139.9200   70.2480  222.5690 C   0  0  0  0  0  0  0  0  0  0  0  0
  139.9189   69.1701  222.7885 H   0  0  0  0  0  0  0  0  0  0  0  0
  140.1750   71.1700  223.6000 C   0  0  0  0  0  0  0  0  0  0  0  0
  140.5060   70.7090  224.9270 N   0  0  0  0  0  0  0  0  0  0  0  0
  141.0440   71.6500  225.9270 C   0  0  0  0  0  0  0  0  0  0  0  0
  142.0682   71.9292  225.6387 H   0  0  0  0  0  0  0  0  0  0  0  0
  140.3875   72.5322  225.9551 H   0  0  0  0  0  0  0  0  0  0  0  0
  141.0740   71.0310  227.3330 C   0  0  0  0  0  0  0  0  0  0  0  0
  141.9371   70.3534  227.4109 H   0  0  0  0  0  0  0  0  0  0  0  0
  141.1558   71.8400  228.0739 H   0  0  0  0  0  0  0  0  0  0  0  0
  139.7890   70.2420  227.6050 C   0  0  0  0  0  0  0  0  0  0  0  0
  139.8695   69.7718  228.5962 H   0  0  0  0  0  0  0  0  0  0  0  0
  138.9501   70.9516  227.5542 H   0  0  0  0  0  0  0  0  0  0  0  0
  139.5250   69.1380  226.5560 C   0  0  0  0  0  0  0  0  0  0  0  0
  139.7541   68.1630  227.0109 H   0  0  0  0  0  0  0  0  0  0  0  0
  138.4696   69.2202  226.2572 H   0  0  0  0  0  0  0  0  0  0  0  0
  140.3690   69.2910  225.2830 C   0  0  0  0  0  0  0  0  0  0  0  0
  141.3673   68.8627  225.4564 H   0  0  0  0  0  0  0  0  0  0  0  0
  139.8691   68.7626  224.4578 H   0  0  0  0  0  0  0  0  0  0  0  0
  140.1270   72.5460  223.3120 C   0  0  0  0  0  0  0  0  0  0  0  0
  140.2862   73.2781  224.1174 H   0  0  0  0  0  0  0  0  0  0  0  0
  1  2  1  0
  2  3  2  0
  3  4  1  0
  3  5  1  0
  5  6  2  0
  6  7  1  0
  7  8  2  0
  8  9  1  0
  8 10  1  0
 10 11  1  0
 10 12  2  0
 12 13  1  0
 12 14  1  0
 14 15  1  0
 14 16  2  0
 16 17  1  0
 17 18  2  0
 17 19  1  0
 19 20  1  0
 20 21  1  0
 20 22  1  0
 20 23  1  0
 23 24  1  0
 23 25  1  0
 25 26  1  0
 25 27  1  0
 25 28  1  0
 28 29  1  0
 28 30  1  0
 28 31  1  0
 31 32  1  0
 31 33  1  0
 33 34  1  0
 33 35  1  0
 33 36  1  0
 36 37  1  0
 36 38  1  0
  2 39  1  0
 39 40  2  0
 40 41  1  0
 40 42  1  0
 42 43  1  0
 42 44  2  0
 44 45  1  0
 44 46  1  0
 46 47  1  0
 47 48  1  0
 48 49  1  0
 48 50  1  0
 48 51  1  0
 51 52  1  0
 51 53  1  0
 51 54  1  0
 54 55  1  0
 54 56  1  0
 54 57  1  0
 57 58  1  0
 57 59  1  0
 57 60  1  0
 60 61  1  0
 60 62  1  0
 46 63  2  0
 63 64  1  0
 19  5  1  0
 36 23  1  0
 63 39  1  0
 16  7  1  0
 60 47  1  0
M  END
>  <UniqueID>  (66) 
421

>  <SMILES>  (66) 
O=c1c2cc(Cl)ccc2nc(/C=C/c2cccc(N3CCCCC3)c2)n1CC1CCNCC1

>  <Energy>  (66) 
91.87130403612728

>  <Genealogy>  (66) 
O=c1c2cc(Cl)ccc2nc(/C=C/c2cccc(N3CCCCC3)c2)n1CC1CCNCC1 (cis-trans isomerization)
O=c1c2cc(Cl)ccc2nc(/C=C/c2cccc(N3CCCCC3)c2)n1CC1CCNCC1 (3D coordinates assigned)
O=c1c2cc(Cl)ccc2nc(/C=C/c2cccc(N3CCCCC3)c2)n1CC1CCNCC1 (nonaromatic ring conformer: 91.87130403612728 kcal/mol)

>  <smiles>  (66) 
O=c1c2cc(Cl)ccc2nc(/C=C/c2cccc(N3CCCCC3)c2)n1CC1CCNCC1

>  <score_type>  (66) 
oracle

>  <origin>  (66) 
autodockgpu

>  <m_score__min__energy>  (66) 
-10.279999999999999

>  <m_primary>  (66) 
energy

>  <meeko>  (66) 
{"free_energy": -8.69, "intermolecular_energy": -10.48, "internal_energy": -1.59, "cluster_size": 15, "cluster_id": 1, "rank_in_cluster": 15}

>  <energy>  (66) 
-10.15

>  <cluster_rmsd>  (66) 
0.57

>  <rmsd>  (66) 
270.77

>  <cluster>  (66) 
1

$$$$
KTDBAWTUPMOUSA-JXMROGBWNA-N
     RDKit          3D

 64 68  0  0  0  0  0  0  0  0999 V2000
  142.1098   72.2103  222.2178 H   0  0  0  0  0  0  0  0  0  0  0  0
  141.0190   72.2820  222.3400 C   0  0  0  0  0  0  0  0  0  0  0  0
  140.3250   73.0700  221.5160 C   0  0  0  0  0  0  0  0  0  0  0  0
  139.4144   72.6831  221.0352 H   0  0  0  0  0  0  0  0  0  0  0  0
  140.7620   74.4550  221.2400 C   0  0  0  0  0  0  0  0  0  0  0  0
  140.3630   75.4220  222.1080 N   0  0  0  0  0  0  0  0  0  0  0  0
  140.7010   76.7190  221.9380 C   0  0  0  0  0  0  0  0  0  0  0  0
  140.2530   77.6840  222.8480 C   0  0  0  0  0  0  0  0  0  0  0  0
  139.6378   77.3839  223.7091 H   0  0  0  0  0  0  0  0  0  0  0  0
  140.5870   79.0280  222.6630 C   0  0  0  0  0  0  0  0  0  0  0  0
  140.2275   79.7856  223.3749 H   0  0  0  0  0  0  0  0  0  0  0  0
  141.3780   79.4130  221.5740 C   0  0  0  0  0  0  0  0  0  0  0  0
  141.7990   81.1010  221.3510 Cl  0  0  0  0  0  0  0  0  0  0  0  0
  141.8300   78.4520  220.6620 C   0  0  0  0  0  0  0  0  0  0  0  0
  142.4527   78.7561  219.8077 H   0  0  0  0  0  0  0  0  0  0  0  0
  141.4890   77.0960  220.8360 C   0  0  0  0  0  0  0  0  0  0  0  0
  141.9100   76.0930  219.9460 C   0  0  0  0  0  0  0  0  0  0  0  0
  142.6230   76.4070  218.9510 O   0  0  0  0  0  0  0  0  0  0  0  0
  141.5560   74.7780  220.1570 N   0  0  0  0  0  0  0  0  0  0  0  0
  142.1170   73.7340  219.2660 C   0  0  0  0  0  0  0  0  0  0  0  0
  141.7063   72.7567  219.5598 H   0  0  0  0  0  0  0  0  0  0  0  0
  141.8412   73.9834  218.2307 H   0  0  0  0  0  0  0  0  0  0  0  0
  143.6610   73.6750  219.3520 C   0  0  0  0  0  0  0  0  0  0  0  0
  144.0505   74.5484  218.8084 H   0  0  0  0  0  0  0  0  0  0  0  0
  144.1870   72.3790  218.6880 C   0  0  0  0  0  0  0  0  0  0  0  0
  143.4714   71.5673  218.8857 H   0  0  0  0  0  0  0  0  0  0  0  0
  144.2914   72.5771  217.6110 H   0  0  0  0  0  0  0  0  0  0  0  0
  145.5710   71.9560  219.2190 C   0  0  0  0  0  0  0  0  0  0  0  0
  145.4336   71.2516  220.0526 H   0  0  0  0  0  0  0  0  0  0  0  0
  146.1268   71.4852  218.3947 H   0  0  0  0  0  0  0  0  0  0  0  0
  146.3430   73.1100  219.6930 N   0  0  0  0  0  0  0  0  0  0  0  0
  146.4160   73.8150  218.9210 H   0  0  0  0  0  0  0  0  0  0  0  0
  145.7140   73.7390  220.8670 C   0  0  0  0  0  0  0  0  0  0  0  0
  146.0101   73.1749  221.7637 H   0  0  0  0  0  0  0  0  0  0  0  0
  146.0585   74.7833  220.8957 H   0  0  0  0  0  0  0  0  0  0  0  0
  144.1690   73.7740  220.8000 C   0  0  0  0  0  0  0  0  0  0  0  0
  143.7677   72.9280  221.3774 H   0  0  0  0  0  0  0  0  0  0  0  0
  143.8289   74.7328  221.2183 H   0  0  0  0  0  0  0  0  0  0  0  0
  140.3660   71.5050  223.4090 C   0  0  0  0  0  0  0  0  0  0  0  0
  140.9220   71.5010  224.6950 C   0  0  0  0  0  0  0  0  0  0  0  0
  141.8349   72.0799  224.8985 H   0  0  0  0  0  0  0  0  0  0  0  0
  140.3230   70.7660  225.7190 C   0  0  0  0  0  0  0  0  0  0  0  0
  140.7815   70.7421  226.7186 H   0  0  0  0  0  0  0  0  0  0  0  0
  139.1410   70.0600  225.4760 C   0  0  0  0  0  0  0  0  0  0  0  0
  138.6744   69.4813  226.2868 H   0  0  0  0  0  0  0  0  0  0  0  0
  138.5440   70.0840  224.2030 C   0  0  0  0  0  0  0  0  0  0  0  0
  137.2870   69.4140  223.9730 N   0  0  0  0  0  0  0  0  0  0  0  0
  136.1790   69.5660  224.9340 C   0  0  0  0  0  0  0  0  0  0  0  0
  136.4337   69.0289  225.8596 H   0  0  0  0  0  0  0  0  0  0  0  0
  136.0377   70.6396  225.1275 H   0  0  0  0  0  0  0  0  0  0  0  0
  134.8620   69.0020  224.3770 C   0  0  0  0  0  0  0  0  0  0  0  0
  134.8739   67.9054  224.4630 H   0  0  0  0  0  0  0  0  0  0  0  0
  134.0254   69.4214  224.9551 H   0  0  0  0  0  0  0  0  0  0  0  0
  134.6860   69.3890  222.9050 C   0  0  0  0  0  0  0  0  0  0  0  0
  133.7624   68.9252  222.5284 H   0  0  0  0  0  0  0  0  0  0  0  0
  134.6429   70.4870  222.8557 H   0  0  0  0  0  0  0  0  0  0  0  0
  135.8660   68.9310  222.0160 C   0  0  0  0  0  0  0  0  0  0  0  0
  135.5385   68.0660  221.4206 H   0  0  0  0  0  0  0  0  0  0  0  0
  136.1487   69.7871  221.3858 H   0  0  0  0  0  0  0  0  0  0  0  0
  137.1120   68.5270  222.8160 C   0  0  0  0  0  0  0  0  0  0  0  0
  136.9969   67.4911  223.1676 H   0  0  0  0  0  0  0  0  0  0  0  0
  137.9957   68.6095  222.1661 H   0  0  0  0  0  0  0  0  0  0  0  0
  139.1780   70.7910  223.1650 C   0  0  0  0  0  0  0  0  0  0  0  0
  138.7419   70.7857  222.1551 H   0  0  0  0  0  0  0  0  0  0  0  0
  1  2  1  0
  2  3  2  0
  3  4  1  0
  3  5  1  0
  5  6  2  0
  6  7  1  0
  7  8  2  0
  8  9  1  0
  8 10  1  0
 10 11  1  0
 10 12  2  0
 12 13  1  0
 12 14  1  0
 14 15  1  0
 14 16  2  0
 16 17  1  0
 17 18  2  0
 17 19  1  0
 19 20  1  0
 20 21  1  0
 20 22  1  0
 20 23  1  0
 23 24  1  0
 23 25  1  0
 25 26  1  0
 25 27  1  0
 25 28  1  0
 28 29  1  0
 28 30  1  0
 28 31  1  0
 31 32  1  0
 31 33  1  0
 33 34  1  0
 33 35  1  0
 33 36  1  0
 36 37  1  0
 36 38  1  0
  2 39  1  0
 39 40  2  0
 40 41  1  0
 40 42  1  0
 42 43  1  0
 42 44  2  0
 44 45  1  0
 44 46  1  0
 46 47  1  0
 47 48  1  0
 48 49  1  0
 48 50  1  0
 48 51  1  0
 51 52  1  0
 51 53  1  0
 51 54  1  0
 54 55  1  0
 54 56  1  0
 54 57  1  0
 57 58  1  0
 57 59  1  0
 57 60  1  0
 60 61  1  0
 60 62  1  0
 46 63  2  0
 63 64  1  0
 19  5  1  0
 36 23  1  0
 63 39  1  0
 16  7  1  0
 60 47  1  0
M  END
>  <UniqueID>  (67) 
421

>  <SMILES>  (67) 
O=c1c2cc(Cl)ccc2nc(/C=C/c2cccc(N3CCCCC3)c2)n1CC1CCNCC1

>  <Energy>  (67) 
91.87130403612728

>  <Genealogy>  (67) 
O=c1c2cc(Cl)ccc2nc(/C=C/c2cccc(N3CCCCC3)c2)n1CC1CCNCC1 (cis-trans isomerization)
O=c1c2cc(Cl)ccc2nc(/C=C/c2cccc(N3CCCCC3)c2)n1CC1CCNCC1 (3D coordinates assigned)
O=c1c2cc(Cl)ccc2nc(/C=C/c2cccc(N3CCCCC3)c2)n1CC1CCNCC1 (nonaromatic ring conformer: 91.87130403612728 kcal/mol)

>  <smiles>  (67) 
O=c1c2cc(Cl)ccc2nc(/C=C/c2cccc(N3CCCCC3)c2)n1CC1CCNCC1

>  <score_type>  (67) 
oracle

>  <origin>  (67) 
autodockgpu

>  <m_score__min__energy>  (67) 
-10.279999999999999

>  <m_primary>  (67) 
energy

>  <meeko>  (67) 
{"free_energy": -8.41, "intermolecular_energy": -10.2, "internal_energy": -1.52, "cluster_size": 1, "cluster_id": 2, "rank_in_cluster": 1}

>  <energy>  (67) 
-10.12

>  <cluster_rmsd>  (67) 
0.65

>  <rmsd>  (67) 
270.77

>  <cluster>  (67) 
1

$$$$
KTDBAWTUPMOUSA-JXMROGBWNA-N
     RDKit          3D

 64 68  0  0  0  0  0  0  0  0999 V2000
  139.0352   73.6559  220.7980 H   0  0  0  0  0  0  0  0  0  0  0  0
  139.8740   73.1670  221.3150 C   0  0  0  0  0  0  0  0  0  0  0  0
  141.1040   73.6640  221.1680 C   0  0  0  0  0  0  0  0  0  0  0  0
  141.9663   72.9812  221.1523 H   0  0  0  0  0  0  0  0  0  0  0  0
  141.3240   75.1190  221.0260 C   0  0  0  0  0  0  0  0  0  0  0  0
  140.9430   75.9140  222.0590 N   0  0  0  0  0  0  0  0  0  0  0  0
  141.0910   77.2570  222.0220 C   0  0  0  0  0  0  0  0  0  0  0  0
  140.6680   78.0380  223.1030 C   0  0  0  0  0  0  0  0  0  0  0  0
  140.2273   77.5576  223.9890 H   0  0  0  0  0  0  0  0  0  0  0  0
  140.8050   79.4280  223.0580 C   0  0  0  0  0  0  0  0  0  0  0  0
  140.4641   80.0408  223.9055 H   0  0  0  0  0  0  0  0  0  0  0  0
  141.3750   80.0420  221.9370 C   0  0  0  0  0  0  0  0  0  0  0  0
  141.5500   81.7870  221.8880 Cl  0  0  0  0  0  0  0  0  0  0  0  0
  141.8020   79.2650  220.8530 C   0  0  0  0  0  0  0  0  0  0  0  0
  142.2514   79.7493  219.9735 H   0  0  0  0  0  0  0  0  0  0  0  0
  141.6570   77.8640  220.8870 C   0  0  0  0  0  0  0  0  0  0  0  0
  142.0620   77.0380  219.8240 C   0  0  0  0  0  0  0  0  0  0  0  0
  142.5770   77.5620  218.7950 O   0  0  0  0  0  0  0  0  0  0  0  0
  141.9050   75.6720  219.9010 N   0  0  0  0  0  0  0  0  0  0  0  0
  142.4520   74.8260  218.8130 C   0  0  0  0  0  0  0  0  0  0  0  0
  141.8556   73.9042  218.7447 H   0  0  0  0  0  0  0  0  0  0  0  0
  142.4019   75.3997  217.8758 H   0  0  0  0  0  0  0  0  0  0  0  0
  143.9310   74.4480  219.0670 C   0  0  0  0  0  0  0  0  0  0  0  0
  144.5377   75.3385  218.8458 H   0  0  0  0  0  0  0  0  0  0  0  0
  144.3570   73.2900  218.1320 C   0  0  0  0  0  0  0  0  0  0  0  0
  143.5022   72.6099  218.0024 H   0  0  0  0  0  0  0  0  0  0  0  0
  144.6725   73.7339  217.1763 H   0  0  0  0  0  0  0  0  0  0  0  0
  145.5490   72.4840  218.6870 C   0  0  0  0  0  0  0  0  0  0  0  0
  145.1647   71.6293  219.2630 H   0  0  0  0  0  0  0  0  0  0  0  0
  146.1590   72.1431  217.8375 H   0  0  0  0  0  0  0  0  0  0  0  0
  146.3960   73.3040  219.5600 N   0  0  0  0  0  0  0  0  0  0  0  0
  146.7070   74.1560  219.0350 H   0  0  0  0  0  0  0  0  0  0  0  0
  145.6780   73.7190  220.7780 C   0  0  0  0  0  0  0  0  0  0  0  0
  145.7254   72.8962  221.5065 H   0  0  0  0  0  0  0  0  0  0  0  0
  146.1683   74.6329  221.1447 H   0  0  0  0  0  0  0  0  0  0  0  0
  144.1920   74.0700  220.5340 C   0  0  0  0  0  0  0  0  0  0  0  0
  143.5726   73.1987  220.7933 H   0  0  0  0  0  0  0  0  0  0  0  0
  143.9364   74.9361  221.1621 H   0  0  0  0  0  0  0  0  0  0  0  0
  139.6070   71.9820  222.1500 C   0  0  0  0  0  0  0  0  0  0  0  0
  138.8920   70.9050  221.6090 C   0  0  0  0  0  0  0  0  0  0  0  0
  138.5404   70.9492  220.5676 H   0  0  0  0  0  0  0  0  0  0  0  0
  138.6240   69.7770  222.3850 C   0  0  0  0  0  0  0  0  0  0  0  0
  138.0360   68.9482  221.9639 H   0  0  0  0  0  0  0  0  0  0  0  0
  139.1010   69.6980  223.6960 C   0  0  0  0  0  0  0  0  0  0  0  0
  138.8850   68.8063  224.3029 H   0  0  0  0  0  0  0  0  0  0  0  0
  139.8550   70.7500  224.2450 C   0  0  0  0  0  0  0  0  0  0  0  0
  140.4070   70.6370  225.5740 N   0  0  0  0  0  0  0  0  0  0  0  0
  140.7700   71.8490  226.3320 C   0  0  0  0  0  0  0  0  0  0  0  0
  141.6587   72.3049  225.8711 H   0  0  0  0  0  0  0  0  0  0  0  0
  139.9140   72.5393  226.3053 H   0  0  0  0  0  0  0  0  0  0  0  0
  141.0810   71.5280  227.8030 C   0  0  0  0  0  0  0  0  0  0  0  0
  142.0925   71.1015  227.8735 H   0  0  0  0  0  0  0  0  0  0  0  0
  141.0169   72.4567  228.3889 H   0  0  0  0  0  0  0  0  0  0  0  0
  140.0700   70.5210  228.3630 C   0  0  0  0  0  0  0  0  0  0  0  0
  140.3545   70.2764  229.3971 H   0  0  0  0  0  0  0  0  0  0  0  0
  139.0757   70.9885  228.3112 H   0  0  0  0  0  0  0  0  0  0  0  0
  140.0090   69.2100  227.5450 C   0  0  0  0  0  0  0  0  0  0  0  0
  140.5192   68.4196  228.1151 H   0  0  0  0  0  0  0  0  0  0  0  0
  138.9461   68.9824  227.3766 H   0  0  0  0  0  0  0  0  0  0  0  0
  140.6720   69.3190  226.1650 C   0  0  0  0  0  0  0  0  0  0  0  0
  141.7581   69.1814  226.2725 H   0  0  0  0  0  0  0  0  0  0  0  0
  140.2566   68.5419  225.5065 H   0  0  0  0  0  0  0  0  0  0  0  0
  140.0840   71.9030  223.4710 C   0  0  0  0  0  0  0  0  0  0  0  0
  140.6400   72.7485  223.9022 H   0  0  0  0  0  0  0  0  0  0  0  0
  1  2  1  0
  2  3  2  0
  3  4  1  0
  3  5  1  0
  5  6  2  0
  6  7  1  0
  7  8  2  0
  8  9  1  0
  8 10  1  0
 10 11  1  0
 10 12  2  0
 12 13  1  0
 12 14  1  0
 14 15  1  0
 14 16  2  0
 16 17  1  0
 17 18  2  0
 17 19  1  0
 19 20  1  0
 20 21  1  0
 20 22  1  0
 20 23  1  0
 23 24  1  0
 23 25  1  0
 25 26  1  0
 25 27  1  0
 25 28  1  0
 28 29  1  0
 28 30  1  0
 28 31  1  0
 31 32  1  0
 31 33  1  0
 33 34  1  0
 33 35  1  0
 33 36  1  0
 36 37  1  0
 36 38  1  0
  2 39  1  0
 39 40  2  0
 40 41  1  0
 40 42  1  0
 42 43  1  0
 42 44  2  0
 44 45  1  0
 44 46  1  0
 46 47  1  0
 47 48  1  0
 48 49  1  0
 48 50  1  0
 48 51  1  0
 51 52  1  0
 51 53  1  0
 51 54  1  0
 54 55  1  0
 54 56  1  0
 54 57  1  0
 57 58  1  0
 57 59  1  0
 57 60  1  0
 60 61  1  0
 60 62  1  0
 46 63  2  0
 63 64  1  0
 19  5  1  0
 36 23  1  0
 63 39  1  0
 16  7  1  0
 60 47  1  0
M  END
>  <UniqueID>  (68) 
421

>  <SMILES>  (68) 
O=c1c2cc(Cl)ccc2nc(/C=C/c2cccc(N3CCCCC3)c2)n1CC1CCNCC1

>  <Energy>  (68) 
91.87130403612728

>  <Genealogy>  (68) 
O=c1c2cc(Cl)ccc2nc(/C=C/c2cccc(N3CCCCC3)c2)n1CC1CCNCC1 (cis-trans isomerization)
O=c1c2cc(Cl)ccc2nc(/C=C/c2cccc(N3CCCCC3)c2)n1CC1CCNCC1 (3D coordinates assigned)
O=c1c2cc(Cl)ccc2nc(/C=C/c2cccc(N3CCCCC3)c2)n1CC1CCNCC1 (nonaromatic ring conformer: 91.87130403612728 kcal/mol)

>  <smiles>  (68) 
O=c1c2cc(Cl)ccc2nc(/C=C/c2cccc(N3CCCCC3)c2)n1CC1CCNCC1

>  <score_type>  (68) 
oracle

>  <origin>  (68) 
autodockgpu

>  <m_score__min__energy>  (68) 
-10.279999999999999

>  <m_primary>  (68) 
energy

>  <meeko>  (68) 
{"free_energy": -10.25, "intermolecular_energy": -12.04, "internal_energy": -1.36, "cluster_size": 15, "cluster_id": 1, "rank_in_cluster": 4}

>  <energy>  (68) 
-10.01

>  <cluster_rmsd>  (68) 
0.72

>  <rmsd>  (68) 
270.8

>  <cluster>  (68) 
1

$$$$
KTDBAWTUPMOUSA-JXMROGBWNA-N
     RDKit          3D

 64 68  0  0  0  0  0  0  0  0999 V2000
  138.7615   73.8861  221.3024 H   0  0  0  0  0  0  0  0  0  0  0  0
  139.6340   73.2870  221.6020 C   0  0  0  0  0  0  0  0  0  0  0  0
  140.8530   73.6910  221.2390 C   0  0  0  0  0  0  0  0  0  0  0  0
  141.6402   72.9440  221.0592 H   0  0  0  0  0  0  0  0  0  0  0  0
  141.1610   75.1270  221.0750 C   0  0  0  0  0  0  0  0  0  0  0  0
  140.7980   75.9630  222.0820 N   0  0  0  0  0  0  0  0  0  0  0  0
  141.0250   77.2950  222.0240 C   0  0  0  0  0  0  0  0  0  0  0  0
  140.6180   78.1200  223.0780 C   0  0  0  0  0  0  0  0  0  0  0  0
  140.1266   77.6835  223.9601 H   0  0  0  0  0  0  0  0  0  0  0  0
  140.8360   79.5000  223.0100 C   0  0  0  0  0  0  0  0  0  0  0  0
  140.5077   80.1488  223.8353 H   0  0  0  0  0  0  0  0  0  0  0  0
  141.4710   80.0570  221.8940 C   0  0  0  0  0  0  0  0  0  0  0  0
  141.7480   81.7880  221.8170 Cl  0  0  0  0  0  0  0  0  0  0  0  0
  141.8820   79.2340  220.8370 C   0  0  0  0  0  0  0  0  0  0  0  0
  142.3820   79.6735  219.9613 H   0  0  0  0  0  0  0  0  0  0  0  0
  141.6560   77.8450  220.8940 C   0  0  0  0  0  0  0  0  0  0  0  0
  142.0410   76.9760  219.8590 C   0  0  0  0  0  0  0  0  0  0  0  0
  142.6130   77.4480  218.8350 O   0  0  0  0  0  0  0  0  0  0  0  0
  141.8040   75.6230  219.9570 N   0  0  0  0  0  0  0  0  0  0  0  0
  142.3300   74.7250  218.9010 C   0  0  0  0  0  0  0  0  0  0  0  0
  141.7452   73.7933  218.9018 H   0  0  0  0  0  0  0  0  0  0  0  0
  142.2435   75.2446  217.9353 H   0  0  0  0  0  0  0  0  0  0  0  0
  143.8210   74.3810  219.1310 C   0  0  0  0  0  0  0  0  0  0  0  0
  144.3738   75.3317  219.1565 H   0  0  0  0  0  0  0  0  0  0  0  0
  144.3550   73.5050  217.9710 C   0  0  0  0  0  0  0  0  0  0  0  0
  143.5523   72.8281  217.6432 H   0  0  0  0  0  0  0  0  0  0  0  0
  144.6727   74.1813  217.1637 H   0  0  0  0  0  0  0  0  0  0  0  0
  145.5780   72.6590  218.3770 C   0  0  0  0  0  0  0  0  0  0  0  0
  145.2322   71.6710  218.7151 H   0  0  0  0  0  0  0  0  0  0  0  0
  146.2378   72.5661  217.5018 H   0  0  0  0  0  0  0  0  0  0  0  0
  146.3380   73.2930  219.4590 N   0  0  0  0  0  0  0  0  0  0  0  0
  146.6100   74.2610  219.1660 H   0  0  0  0  0  0  0  0  0  0  0  0
  145.5540   73.3640  220.7050 C   0  0  0  0  0  0  0  0  0  0  0  0
  145.6312   72.3951  221.2200 H   0  0  0  0  0  0  0  0  0  0  0  0
  145.9703   74.1893  221.3012 H   0  0  0  0  0  0  0  0  0  0  0  0
  144.0570   73.6790  220.4780 C   0  0  0  0  0  0  0  0  0  0  0  0
  143.4884   72.7375  220.4937 H   0  0  0  0  0  0  0  0  0  0  0  0
  143.7236   74.3546  221.2795 H   0  0  0  0  0  0  0  0  0  0  0  0
  139.4230   72.0610  222.3930 C   0  0  0  0  0  0  0  0  0  0  0  0
  138.6320   71.0300  221.8680 C   0  0  0  0  0  0  0  0  0  0  0  0
  138.1803   71.1399  220.8711 H   0  0  0  0  0  0  0  0  0  0  0  0
  138.4150   69.8650  222.6040 C   0  0  0  0  0  0  0  0  0  0  0  0
  137.7688   69.0723  222.1990 H   0  0  0  0  0  0  0  0  0  0  0  0
  139.0170   69.7030  223.8550 C   0  0  0  0  0  0  0  0  0  0  0  0
  138.8402   68.7826  224.4308 H   0  0  0  0  0  0  0  0  0  0  0  0
  139.8470   70.7080  224.3830 C   0  0  0  0  0  0  0  0  0  0  0  0
  140.5250   70.5100  225.6420 N   0  0  0  0  0  0  0  0  0  0  0  0
  140.4690   71.5490  226.6860 C   0  0  0  0  0  0  0  0  0  0  0  0
  141.0680   72.4127  226.3616 H   0  0  0  0  0  0  0  0  0  0  0  0
  139.4160   71.8315  226.8320 H   0  0  0  0  0  0  0  0  0  0  0  0
  141.0180   71.0380  228.0280 C   0  0  0  0  0  0  0  0  0  0  0  0
  142.1174   71.0400  227.9929 H   0  0  0  0  0  0  0  0  0  0  0  0
  140.6612   71.6992  228.8315 H   0  0  0  0  0  0  0  0  0  0  0  0
  140.5260   69.6140  228.3060 C   0  0  0  0  0  0  0  0  0  0  0  0
  140.9794   69.2634  229.2449 H   0  0  0  0  0  0  0  0  0  0  0  0
  139.4285   69.6513  228.3692 H   0  0  0  0  0  0  0  0  0  0  0  0
  140.8910   68.6190  227.1810 C   0  0  0  0  0  0  0  0  0  0  0  0
  141.7160   67.9823  227.5332 H   0  0  0  0  0  0  0  0  0  0  0  0
  139.9843   68.0388  226.9548 H   0  0  0  0  0  0  0  0  0  0  0  0
  141.3270   69.3030  225.8780 C   0  0  0  0  0  0  0  0  0  0  0  0
  142.3885   69.5816  225.9522 H   0  0  0  0  0  0  0  0  0  0  0  0
  141.1777   68.6053  225.0408 H   0  0  0  0  0  0  0  0  0  0  0  0
  140.0250   71.8980  223.6540 C   0  0  0  0  0  0  0  0  0  0  0  0
  140.6400   72.7078  224.0735 H   0  0  0  0  0  0  0  0  0  0  0  0
  1  2  1  0
  2  3  2  0
  3  4  1  0
  3  5  1  0
  5  6  2  0
  6  7  1  0
  7  8  2  0
  8  9  1  0
  8 10  1  0
 10 11  1  0
 10 12  2  0
 12 13  1  0
 12 14  1  0
 14 15  1  0
 14 16  2  0
 16 17  1  0
 17 18  2  0
 17 19  1  0
 19 20  1  0
 20 21  1  0
 20 22  1  0
 20 23  1  0
 23 24  1  0
 23 25  1  0
 25 26  1  0
 25 27  1  0
 25 28  1  0
 28 29  1  0
 28 30  1  0
 28 31  1  0
 31 32  1  0
 31 33  1  0
 33 34  1  0
 33 35  1  0
 33 36  1  0
 36 37  1  0
 36 38  1  0
  2 39  1  0
 39 40  2  0
 40 41  1  0
 40 42  1  0
 42 43  1  0
 42 44  2  0
 44 45  1  0
 44 46  1  0
 46 47  1  0
 47 48  1  0
 48 49  1  0
 48 50  1  0
 48 51  1  0
 51 52  1  0
 51 53  1  0
 51 54  1  0
 54 55  1  0
 54 56  1  0
 54 57  1  0
 57 58  1  0
 57 59  1  0
 57 60  1  0
 60 61  1  0
 60 62  1  0
 46 63  2  0
 63 64  1  0
 19  5  1  0
 36 23  1  0
 63 39  1  0
 16  7  1  0
 60 47  1  0
M  END
>  <UniqueID>  (69) 
421

>  <SMILES>  (69) 
O=c1c2cc(Cl)ccc2nc(/C=C/c2cccc(N3CCCCC3)c2)n1CC1CCNCC1

>  <Energy>  (69) 
91.87130403612728

>  <Genealogy>  (69) 
O=c1c2cc(Cl)ccc2nc(/C=C/c2cccc(N3CCCCC3)c2)n1CC1CCNCC1 (cis-trans isomerization)
O=c1c2cc(Cl)ccc2nc(/C=C/c2cccc(N3CCCCC3)c2)n1CC1CCNCC1 (3D coordinates assigned)
O=c1c2cc(Cl)ccc2nc(/C=C/c2cccc(N3CCCCC3)c2)n1CC1CCNCC1 (nonaromatic ring conformer: 91.87130403612728 kcal/mol)

>  <smiles>  (69) 
O=c1c2cc(Cl)ccc2nc(/C=C/c2cccc(N3CCCCC3)c2)n1CC1CCNCC1

>  <score_type>  (69) 
oracle

>  <origin>  (69) 
autodockgpu

>  <m_score__min__energy>  (69) 
-10.279999999999999

>  <m_primary>  (69) 
energy

>  <meeko>  (69) 
{"free_energy": -10.12, "intermolecular_energy": -11.91, "internal_energy": -1.38, "cluster_size": 15, "cluster_id": 1, "rank_in_cluster": 7}

>  <energy>  (69) 
-9.92

>  <cluster_rmsd>  (69) 
0.44

>  <rmsd>  (69) 
270.68

>  <cluster>  (69) 
1

$$$$
KTDBAWTUPMOUSA-JXMROGBWNA-N
     RDKit          3D

 64 68  0  0  0  0  0  0  0  0999 V2000
  142.0844   72.7673  222.7386 H   0  0  0  0  0  0  0  0  0  0  0  0
  141.0740   72.6130  222.3320 C   0  0  0  0  0  0  0  0  0  0  0  0
  140.7070   73.2800  221.2360 C   0  0  0  0  0  0  0  0  0  0  0  0
  140.1459   72.7587  220.4464 H   0  0  0  0  0  0  0  0  0  0  0  0
  141.0440   74.7100  221.0680 C   0  0  0  0  0  0  0  0  0  0  0  0
  140.6660   75.5620  222.0560 N   0  0  0  0  0  0  0  0  0  0  0  0
  140.9170   76.8890  221.9920 C   0  0  0  0  0  0  0  0  0  0  0  0
  140.4930   77.7310  223.0260 C   0  0  0  0  0  0  0  0  0  0  0  0
  139.9682   77.3110  223.8967 H   0  0  0  0  0  0  0  0  0  0  0  0
  140.7360   79.1060  222.9530 C   0  0  0  0  0  0  0  0  0  0  0  0
  140.3947   79.7680  223.7625 H   0  0  0  0  0  0  0  0  0  0  0  0
  141.4130   79.6410  221.8510 C   0  0  0  0  0  0  0  0  0  0  0  0
  141.7210   81.3670  221.7670 Cl  0  0  0  0  0  0  0  0  0  0  0  0
  141.8410   78.8020  220.8140 C   0  0  0  0  0  0  0  0  0  0  0  0
  142.3744   79.2247  219.9498 H   0  0  0  0  0  0  0  0  0  0  0  0
  141.5890   77.4180  220.8770 C   0  0  0  0  0  0  0  0  0  0  0  0
  141.9910   76.5320  219.8610 C   0  0  0  0  0  0  0  0  0  0  0  0
  142.6000   76.9850  218.8510 O   0  0  0  0  0  0  0  0  0  0  0  0
  141.7280   75.1850  219.9650 N   0  0  0  0  0  0  0  0  0  0  0  0
  142.2690   74.2680  218.9330 C   0  0  0  0  0  0  0  0  0  0  0  0
  141.4768   73.5690  218.6268 H   0  0  0  0  0  0  0  0  0  0  0  0
  142.6110   74.8743  218.0813 H   0  0  0  0  0  0  0  0  0  0  0  0
  143.4760   73.4570  219.4630 C   0  0  0  0  0  0  0  0  0  0  0  0
  143.0720   72.5841  219.9967 H   0  0  0  0  0  0  0  0  0  0  0  0
  144.3130   74.3160  220.4420 C   0  0  0  0  0  0  0  0  0  0  0  0
  144.3069   75.3579  220.0892 H   0  0  0  0  0  0  0  0  0  0  0  0
  143.8582   74.2208  221.4390 H   0  0  0  0  0  0  0  0  0  0  0  0
  145.7760   73.8410  220.5510 C   0  0  0  0  0  0  0  0  0  0  0  0
  146.3881   74.4019  219.8294 H   0  0  0  0  0  0  0  0  0  0  0  0
  146.1198   74.0196  221.5805 H   0  0  0  0  0  0  0  0  0  0  0  0
  145.9010   72.4070  220.2680 N   0  0  0  0  0  0  0  0  0  0  0  0
  145.2650   71.8740  220.9080 H   0  0  0  0  0  0  0  0  0  0  0  0
  145.5530   72.0970  218.8700 C   0  0  0  0  0  0  0  0  0  0  0  0
  146.4332   72.2953  218.2408 H   0  0  0  0  0  0  0  0  0  0  0  0
  145.2462   71.0410  218.8416 H   0  0  0  0  0  0  0  0  0  0  0  0
  144.3670   72.9270  218.3260 C   0  0  0  0  0  0  0  0  0  0  0  0
  144.7612   73.7802  217.7544 H   0  0  0  0  0  0  0  0  0  0  0  0
  143.7553   72.2737  217.6864 H   0  0  0  0  0  0  0  0  0  0  0  0
  140.1630   71.6750  223.0130 C   0  0  0  0  0  0  0  0  0  0  0  0
  139.1450   71.0500  222.2810 C   0  0  0  0  0  0  0  0  0  0  0  0
  139.0363   71.2584  221.2064 H   0  0  0  0  0  0  0  0  0  0  0  0
  138.2680   70.1640  222.9090 C   0  0  0  0  0  0  0  0  0  0  0  0
  137.4528   69.6990  222.3352 H   0  0  0  0  0  0  0  0  0  0  0  0
  138.4240   69.8670  224.2650 C   0  0  0  0  0  0  0  0  0  0  0  0
  137.7281   69.1697  224.7544 H   0  0  0  0  0  0  0  0  0  0  0  0
  139.4630   70.4520  225.0090 C   0  0  0  0  0  0  0  0  0  0  0  0
  139.6670   70.0900  226.3910 N   0  0  0  0  0  0  0  0  0  0  0  0
  139.4700   68.6960  226.8290 C   0  0  0  0  0  0  0  0  0  0  0  0
  138.3956   68.4620  226.8007 H   0  0  0  0  0  0  0  0  0  0  0  0
  140.0345   68.0403  226.1497 H   0  0  0  0  0  0  0  0  0  0  0  0
  139.9920   68.4690  228.2580 C   0  0  0  0  0  0  0  0  0  0  0  0
  139.2612   68.8676  228.9770 H   0  0  0  0  0  0  0  0  0  0  0  0
  140.1329   67.3895  228.4159 H   0  0  0  0  0  0  0  0  0  0  0  0
  141.3350   69.1760  228.4620 C   0  0  0  0  0  0  0  0  0  0  0  0
  141.6501   69.0359  229.5066 H   0  0  0  0  0  0  0  0  0  0  0  0
  142.0516   68.7329  227.7548 H   0  0  0  0  0  0  0  0  0  0  0  0
  141.2690   70.6920  228.1660 C   0  0  0  0  0  0  0  0  0  0  0  0
  141.2838   71.2345  229.1228 H   0  0  0  0  0  0  0  0  0  0  0  0
  142.1358   70.9364  227.5344 H   0  0  0  0  0  0  0  0  0  0  0  0
  140.0130   71.1100  227.3900 C   0  0  0  0  0  0  0  0  0  0  0  0
  139.1751   71.2284  228.0927 H   0  0  0  0  0  0  0  0  0  0  0  0
  140.2110   72.0618  226.8753 H   0  0  0  0  0  0  0  0  0  0  0  0
  140.3160   71.3770  224.3800 C   0  0  0  0  0  0  0  0  0  0  0  0
  141.1086   71.8712  224.9610 H   0  0  0  0  0  0  0  0  0  0  0  0
  1  2  1  0
  2  3  2  0
  3  4  1  0
  3  5  1  0
  5  6  2  0
  6  7  1  0
  7  8  2  0
  8  9  1  0
  8 10  1  0
 10 11  1  0
 10 12  2  0
 12 13  1  0
 12 14  1  0
 14 15  1  0
 14 16  2  0
 16 17  1  0
 17 18  2  0
 17 19  1  0
 19 20  1  0
 20 21  1  0
 20 22  1  0
 20 23  1  0
 23 24  1  0
 23 25  1  0
 25 26  1  0
 25 27  1  0
 25 28  1  0
 28 29  1  0
 28 30  1  0
 28 31  1  0
 31 32  1  0
 31 33  1  0
 33 34  1  0
 33 35  1  0
 33 36  1  0
 36 37  1  0
 36 38  1  0
  2 39  1  0
 39 40  2  0
 40 41  1  0
 40 42  1  0
 42 43  1  0
 42 44  2  0
 44 45  1  0
 44 46  1  0
 46 47  1  0
 47 48  1  0
 48 49  1  0
 48 50  1  0
 48 51  1  0
 51 52  1  0
 51 53  1  0
 51 54  1  0
 54 55  1  0
 54 56  1  0
 54 57  1  0
 57 58  1  0
 57 59  1  0
 57 60  1  0
 60 61  1  0
 60 62  1  0
 46 63  2  0
 63 64  1  0
 19  5  1  0
 36 23  1  0
 63 39  1  0
 16  7  1  0
 60 47  1  0
M  END
>  <UniqueID>  (70) 
421

>  <SMILES>  (70) 
O=c1c2cc(Cl)ccc2nc(/C=C/c2cccc(N3CCCCC3)c2)n1CC1CCNCC1

>  <Energy>  (70) 
91.87130403612728

>  <Genealogy>  (70) 
O=c1c2cc(Cl)ccc2nc(/C=C/c2cccc(N3CCCCC3)c2)n1CC1CCNCC1 (cis-trans isomerization)
O=c1c2cc(Cl)ccc2nc(/C=C/c2cccc(N3CCCCC3)c2)n1CC1CCNCC1 (3D coordinates assigned)
O=c1c2cc(Cl)ccc2nc(/C=C/c2cccc(N3CCCCC3)c2)n1CC1CCNCC1 (nonaromatic ring conformer: 91.87130403612728 kcal/mol)

>  <smiles>  (70) 
O=c1c2cc(Cl)ccc2nc(/C=C/c2cccc(N3CCCCC3)c2)n1CC1CCNCC1

>  <score_type>  (70) 
oracle

>  <origin>  (70) 
autodockgpu

>  <m_score__min__energy>  (70) 
-10.279999999999999

>  <m_primary>  (70) 
energy

>  <meeko>  (70) 
{"free_energy": -9.23, "intermolecular_energy": -11.02, "internal_energy": -1.45, "cluster_size": 15, "cluster_id": 1, "rank_in_cluster": 13}

>  <energy>  (70) 
-9.54

>  <cluster_rmsd>  (70) 
0.93

>  <rmsd>  (70) 
270.74

>  <cluster>  (70) 
1

$$$$
KTDBAWTUPMOUSA-JXMROGBWNA-N
     RDKit          3D

 64 68  0  0  0  0  0  0  0  0999 V2000
  142.0100   71.9907  221.0491 H   0  0  0  0  0  0  0  0  0  0  0  0
  141.0050   72.4260  221.1520 C   0  0  0  0  0  0  0  0  0  0  0  0
  140.6000   73.3380  220.2660 C   0  0  0  0  0  0  0  0  0  0  0  0
  139.9813   73.0258  219.4117 H   0  0  0  0  0  0  0  0  0  0  0  0
  140.9700   74.7610  220.4150 C   0  0  0  0  0  0  0  0  0  0  0  0
  140.4490   75.4350  221.4730 N   0  0  0  0  0  0  0  0  0  0  0  0
  140.7180   76.7420  221.6920 C   0  0  0  0  0  0  0  0  0  0  0  0
  140.1450   77.4000  222.7860 C   0  0  0  0  0  0  0  0  0  0  0  0
  139.4880   76.8499  223.4757 H   0  0  0  0  0  0  0  0  0  0  0  0
  140.4070   78.7560  223.0030 C   0  0  0  0  0  0  0  0  0  0  0  0
  139.9487   79.2742  223.8583 H   0  0  0  0  0  0  0  0  0  0  0  0
  141.2520   79.4550  222.1330 C   0  0  0  0  0  0  0  0  0  0  0  0
  141.5840   81.1550  222.4140 Cl  0  0  0  0  0  0  0  0  0  0  0  0
  141.8300   78.8010  221.0380 C   0  0  0  0  0  0  0  0  0  0  0  0
  142.4948   79.3525  220.3568 H   0  0  0  0  0  0  0  0  0  0  0  0
  141.5610   77.4380  220.8080 C   0  0  0  0  0  0  0  0  0  0  0  0
  142.1080   76.7350  219.7200 C   0  0  0  0  0  0  0  0  0  0  0  0
  142.8720   77.3380  218.9140 O   0  0  0  0  0  0  0  0  0  0  0  0
  141.8220   75.4000  219.5350 N   0  0  0  0  0  0  0  0  0  0  0  0
  142.5110   74.6640  218.4470 C   0  0  0  0  0  0  0  0  0  0  0  0
  141.9359   73.7565  218.2110 H   0  0  0  0  0  0  0  0  0  0  0  0
  142.5769   75.3282  217.5726 H   0  0  0  0  0  0  0  0  0  0  0  0
  143.9470   74.2560  218.8510 C   0  0  0  0  0  0  0  0  0  0  0  0
  144.6226   75.0469  218.4933 H   0  0  0  0  0  0  0  0  0  0  0  0
  144.3300   72.9110  218.1860 C   0  0  0  0  0  0  0  0  0  0  0  0
  143.4359   72.2716  218.1452 H   0  0  0  0  0  0  0  0  0  0  0  0
  144.7161   73.1359  217.1808 H   0  0  0  0  0  0  0  0  0  0  0  0
  145.4380   72.1610  218.9530 C   0  0  0  0  0  0  0  0  0  0  0  0
  144.9708   71.4633  219.6636 H   0  0  0  0  0  0  0  0  0  0  0  0
  146.0575   71.6208  218.2220 H   0  0  0  0  0  0  0  0  0  0  0  0
  146.3030   73.0860  219.6930 N   0  0  0  0  0  0  0  0  0  0  0  0
  146.6950   73.7960  219.0300 H   0  0  0  0  0  0  0  0  0  0  0  0
  145.5660   73.7780  220.7660 C   0  0  0  0  0  0  0  0  0  0  0  0
  145.5256   73.1154  221.6431 H   0  0  0  0  0  0  0  0  0  0  0  0
  146.1034   74.7151  220.9733 H   0  0  0  0  0  0  0  0  0  0  0  0
  144.1200   74.1620  220.3770 C   0  0  0  0  0  0  0  0  0  0  0  0
  143.4311   73.3985  220.7675 H   0  0  0  0  0  0  0  0  0  0  0  0
  143.8996   75.1495  220.8085 H   0  0  0  0  0  0  0  0  0  0  0  0
  140.1440   71.9850  222.2650 C   0  0  0  0  0  0  0  0  0  0  0  0
  138.7560   71.9290  222.0800 C   0  0  0  0  0  0  0  0  0  0  0  0
  138.3212   72.2077  221.1088 H   0  0  0  0  0  0  0  0  0  0  0  0
  137.9230   71.5210  223.1230 C   0  0  0  0  0  0  0  0  0  0  0  0
  136.8322   71.5081  222.9819 H   0  0  0  0  0  0  0  0  0  0  0  0
  138.4730   71.1290  224.3460 C   0  0  0  0  0  0  0  0  0  0  0  0
  137.8108   70.8097  225.1643 H   0  0  0  0  0  0  0  0  0  0  0  0
  139.8650   71.1390  224.5400 C   0  0  0  0  0  0  0  0  0  0  0  0
  140.4350   70.6670  225.7790 N   0  0  0  0  0  0  0  0  0  0  0  0
  140.5420   71.5710  226.9380 C   0  0  0  0  0  0  0  0  0  0  0  0
  141.3150   72.3258  226.7312 H   0  0  0  0  0  0  0  0  0  0  0  0
  139.5614   72.0439  227.0957 H   0  0  0  0  0  0  0  0  0  0  0  0
  140.9190   70.8100  228.2200 C   0  0  0  0  0  0  0  0  0  0  0  0
  141.9973   70.5930  228.2073 H   0  0  0  0  0  0  0  0  0  0  0  0
  140.6657   71.4344  229.0895 H   0  0  0  0  0  0  0  0  0  0  0  0
  140.1420   69.4930  228.3160 C   0  0  0  0  0  0  0  0  0  0  0  0
  140.4752   68.9540  229.2152 H   0  0  0  0  0  0  0  0  0  0  0  0
  139.0721   69.7444  228.3613 H   0  0  0  0  0  0  0  0  0  0  0  0
  140.3510   68.5780  227.0870 C   0  0  0  0  0  0  0  0  0  0  0  0
  141.0173   67.7521  227.3767 H   0  0  0  0  0  0  0  0  0  0  0  0
  139.3580   68.2221  226.7752 H   0  0  0  0  0  0  0  0  0  0  0  0
  140.9700   69.3030  225.8840 C   0  0  0  0  0  0  0  0  0  0  0  0
  142.0616   69.3504  226.0115 H   0  0  0  0  0  0  0  0  0  0  0  0
  140.7209   68.7498  224.9664 H   0  0  0  0  0  0  0  0  0  0  0  0
  140.6950   71.5940  223.4980 C   0  0  0  0  0  0  0  0  0  0  0  0
  141.7834   71.6440  223.6497 H   0  0  0  0  0  0  0  0  0  0  0  0
  1  2  1  0
  2  3  2  0
  3  4  1  0
  3  5  1  0
  5  6  2  0
  6  7  1  0
  7  8  2  0
  8  9  1  0
  8 10  1  0
 10 11  1  0
 10 12  2  0
 12 13  1  0
 12 14  1  0
 14 15  1  0
 14 16  2  0
 16 17  1  0
 17 18  2  0
 17 19  1  0
 19 20  1  0
 20 21  1  0
 20 22  1  0
 20 23  1  0
 23 24  1  0
 23 25  1  0
 25 26  1  0
 25 27  1  0
 25 28  1  0
 28 29  1  0
 28 30  1  0
 28 31  1  0
 31 32  1  0
 31 33  1  0
 33 34  1  0
 33 35  1  0
 33 36  1  0
 36 37  1  0
 36 38  1  0
  2 39  1  0
 39 40  2  0
 40 41  1  0
 40 42  1  0
 42 43  1  0
 42 44  2  0
 44 45  1  0
 44 46  1  0
 46 47  1  0
 47 48  1  0
 48 49  1  0
 48 50  1  0
 48 51  1  0
 51 52  1  0
 51 53  1  0
 51 54  1  0
 54 55  1  0
 54 56  1  0
 54 57  1  0
 57 58  1  0
 57 59  1  0
 57 60  1  0
 60 61  1  0
 60 62  1  0
 46 63  2  0
 63 64  1  0
 19  5  1  0
 36 23  1  0
 63 39  1  0
 16  7  1  0
 60 47  1  0
M  END
>  <UniqueID>  (71) 
421

>  <SMILES>  (71) 
O=c1c2cc(Cl)ccc2nc(/C=C/c2cccc(N3CCCCC3)c2)n1CC1CCNCC1

>  <Energy>  (71) 
91.87130403612728

>  <Genealogy>  (71) 
O=c1c2cc(Cl)ccc2nc(/C=C/c2cccc(N3CCCCC3)c2)n1CC1CCNCC1 (cis-trans isomerization)
O=c1c2cc(Cl)ccc2nc(/C=C/c2cccc(N3CCCCC3)c2)n1CC1CCNCC1 (3D coordinates assigned)
O=c1c2cc(Cl)ccc2nc(/C=C/c2cccc(N3CCCCC3)c2)n1CC1CCNCC1 (nonaromatic ring conformer: 91.87130403612728 kcal/mol)

>  <smiles>  (71) 
O=c1c2cc(Cl)ccc2nc(/C=C/c2cccc(N3CCCCC3)c2)n1CC1CCNCC1

>  <score_type>  (71) 
oracle

>  <origin>  (71) 
autodockgpu

>  <m_score__min__energy>  (71) 
-10.279999999999999

>  <m_primary>  (71) 
energy

>  <meeko>  (71) 
{"free_energy": -9.92, "intermolecular_energy": -11.71, "internal_energy": -1.68, "cluster_size": 15, "cluster_id": 1, "rank_in_cluster": 9}

>  <energy>  (71) 
-9.45

>  <cluster_rmsd>  (71) 
0.78

>  <rmsd>  (71) 
270.49

>  <cluster>  (71) 
1

$$$$
KTDBAWTUPMOUSA-JXMROGBWNA-N
     RDKit          3D

 64 68  0  0  0  0  0  0  0  0999 V2000
  139.6810   73.0872  220.0982 H   0  0  0  0  0  0  0  0  0  0  0  0
  139.9370   73.0790  221.1680 C   0  0  0  0  0  0  0  0  0  0  0  0
  141.0440   73.7050  221.5750 C   0  0  0  0  0  0  0  0  0  0  0  0
  141.8085   73.1457  222.1343 H   0  0  0  0  0  0  0  0  0  0  0  0
  141.2570   75.1380  221.2850 C   0  0  0  0  0  0  0  0  0  0  0  0
  140.9300   76.0290  222.2580 N   0  0  0  0  0  0  0  0  0  0  0  0
  141.0770   77.3620  222.0870 C   0  0  0  0  0  0  0  0  0  0  0  0
  140.7110   78.2430  223.1100 C   0  0  0  0  0  0  0  0  0  0  0  0
  140.3165   77.8500  224.0587 H   0  0  0  0  0  0  0  0  0  0  0  0
  140.8460   79.6220  222.9280 C   0  0  0  0  0  0  0  0  0  0  0  0
  140.5504   80.3134  223.7309 H   0  0  0  0  0  0  0  0  0  0  0  0
  141.3570   80.1250  221.7250 C   0  0  0  0  0  0  0  0  0  0  0  0
  141.5300   81.8570  221.5040 Cl  0  0  0  0  0  0  0  0  0  0  0  0
  141.7270   79.2470  220.6980 C   0  0  0  0  0  0  0  0  0  0  0  0
  142.1304   79.6438  219.7547 H   0  0  0  0  0  0  0  0  0  0  0  0
  141.5830   77.8570  220.8720 C   0  0  0  0  0  0  0  0  0  0  0  0
  141.9320   76.9330  219.8720 C   0  0  0  0  0  0  0  0  0  0  0  0
  142.3930   77.3540  218.7730 O   0  0  0  0  0  0  0  0  0  0  0  0
  141.7790   75.5810  220.0850 N   0  0  0  0  0  0  0  0  0  0  0  0
  142.2680   74.6330  219.0540 C   0  0  0  0  0  0  0  0  0  0  0  0
  141.7098   73.6895  219.1443 H   0  0  0  0  0  0  0  0  0  0  0  0
  142.1120   75.0913  218.0662 H   0  0  0  0  0  0  0  0  0  0  0  0
  143.7780   74.3390  219.2150 C   0  0  0  0  0  0  0  0  0  0  0  0
  144.3203   75.2440  218.9038 H   0  0  0  0  0  0  0  0  0  0  0  0
  144.1940   73.1530  218.3110 C   0  0  0  0  0  0  0  0  0  0  0  0
  143.3678   72.4274  218.2807 H   0  0  0  0  0  0  0  0  0  0  0  0
  144.4169   73.5591  217.3133 H   0  0  0  0  0  0  0  0  0  0  0  0
  145.4620   72.4350  218.8140 C   0  0  0  0  0  0  0  0  0  0  0  0
  145.1645   71.5953  219.4593 H   0  0  0  0  0  0  0  0  0  0  0  0
  146.0251   72.0779  217.9391 H   0  0  0  0  0  0  0  0  0  0  0  0
  146.3280   73.3400  219.5790 N   0  0  0  0  0  0  0  0  0  0  0  0
  146.5570   74.1750  218.9900 H   0  0  0  0  0  0  0  0  0  0  0  0
  145.6800   73.7860  220.8250 C   0  0  0  0  0  0  0  0  0  0  0  0
  145.8220   73.0070  221.5885 H   0  0  0  0  0  0  0  0  0  0  0  0
  146.1484   74.7405  221.1072 H   0  0  0  0  0  0  0  0  0  0  0  0
  144.1640   74.0530  220.6760 C   0  0  0  0  0  0  0  0  0  0  0  0
  143.6103   73.1687  221.0245 H   0  0  0  0  0  0  0  0  0  0  0  0
  143.9109   74.9386  221.2773 H   0  0  0  0  0  0  0  0  0  0  0  0
  139.0480   72.3770  222.1120 C   0  0  0  0  0  0  0  0  0  0  0  0
  137.6720   72.3220  221.8500 C   0  0  0  0  0  0  0  0  0  0  0  0
  137.2677   72.7964  220.9437 H   0  0  0  0  0  0  0  0  0  0  0  0
  136.8130   71.6680  222.7340 C   0  0  0  0  0  0  0  0  0  0  0  0
  135.7306   71.6540  222.5384 H   0  0  0  0  0  0  0  0  0  0  0  0
  137.3250   71.0310  223.8670 C   0  0  0  0  0  0  0  0  0  0  0  0
  136.6420   70.5184  224.5604 H   0  0  0  0  0  0  0  0  0  0  0  0
  138.7070   71.0400  224.1280 C   0  0  0  0  0  0  0  0  0  0  0  0
  139.2420   70.3210  225.2590 N   0  0  0  0  0  0  0  0  0  0  0  0
  138.7050   68.9960  225.6180 C   0  0  0  0  0  0  0  0  0  0  0  0
  137.6906   69.1208  226.0246 H   0  0  0  0  0  0  0  0  0  0  0  0
  138.6926   68.3740  224.7108 H   0  0  0  0  0  0  0  0  0  0  0  0
  139.5800   68.2930  226.6690 C   0  0  0  0  0  0  0  0  0  0  0  0
  139.3672   68.7199  227.6602 H   0  0  0  0  0  0  0  0  0  0  0  0
  139.3493   67.2175  226.6594 H   0  0  0  0  0  0  0  0  0  0  0  0
  141.0660   68.4810  226.3490 C   0  0  0  0  0  0  0  0  0  0  0  0
  141.6588   68.0105  227.1473 H   0  0  0  0  0  0  0  0  0  0  0  0
  141.2532   68.0158  225.3700 H   0  0  0  0  0  0  0  0  0  0  0  0
  141.4770   69.9670  226.2410 C   0  0  0  0  0  0  0  0  0  0  0  0
  142.0389   70.2398  227.1464 H   0  0  0  0  0  0  0  0  0  0  0  0
  142.0822   70.0704  225.3283 H   0  0  0  0  0  0  0  0  0  0  0  0
  140.2830   70.9230  226.1030 C   0  0  0  0  0  0  0  0  0  0  0  0
  139.8669   71.1300  227.1000 H   0  0  0  0  0  0  0  0  0  0  0  0
  140.6257   71.8580  225.6358 H   0  0  0  0  0  0  0  0  0  0  0  0
  139.5610   71.7380  223.2550 C   0  0  0  0  0  0  0  0  0  0  0  0
  140.6392   71.7844  223.4681 H   0  0  0  0  0  0  0  0  0  0  0  0
  1  2  1  0
  2  3  2  0
  3  4  1  0
  3  5  1  0
  5  6  2  0
  6  7  1  0
  7  8  2  0
  8  9  1  0
  8 10  1  0
 10 11  1  0
 10 12  2  0
 12 13  1  0
 12 14  1  0
 14 15  1  0
 14 16  2  0
 16 17  1  0
 17 18  2  0
 17 19  1  0
 19 20  1  0
 20 21  1  0
 20 22  1  0
 20 23  1  0
 23 24  1  0
 23 25  1  0
 25 26  1  0
 25 27  1  0
 25 28  1  0
 28 29  1  0
 28 30  1  0
 28 31  1  0
 31 32  1  0
 31 33  1  0
 33 34  1  0
 33 35  1  0
 33 36  1  0
 36 37  1  0
 36 38  1  0
  2 39  1  0
 39 40  2  0
 40 41  1  0
 40 42  1  0
 42 43  1  0
 42 44  2  0
 44 45  1  0
 44 46  1  0
 46 47  1  0
 47 48  1  0
 48 49  1  0
 48 50  1  0
 48 51  1  0
 51 52  1  0
 51 53  1  0
 51 54  1  0
 54 55  1  0
 54 56  1  0
 54 57  1  0
 57 58  1  0
 57 59  1  0
 57 60  1  0
 60 61  1  0
 60 62  1  0
 46 63  2  0
 63 64  1  0
 19  5  1  0
 36 23  1  0
 63 39  1  0
 16  7  1  0
 60 47  1  0
M  END
>  <UniqueID>  (72) 
421

>  <SMILES>  (72) 
O=c1c2cc(Cl)ccc2nc(/C=C/c2cccc(N3CCCCC3)c2)n1CC1CCNCC1

>  <Energy>  (72) 
91.87130403612728

>  <Genealogy>  (72) 
O=c1c2cc(Cl)ccc2nc(/C=C/c2cccc(N3CCCCC3)c2)n1CC1CCNCC1 (cis-trans isomerization)
O=c1c2cc(Cl)ccc2nc(/C=C/c2cccc(N3CCCCC3)c2)n1CC1CCNCC1 (3D coordinates assigned)
O=c1c2cc(Cl)ccc2nc(/C=C/c2cccc(N3CCCCC3)c2)n1CC1CCNCC1 (nonaromatic ring conformer: 91.87130403612728 kcal/mol)

>  <smiles>  (72) 
O=c1c2cc(Cl)ccc2nc(/C=C/c2cccc(N3CCCCC3)c2)n1CC1CCNCC1

>  <score_type>  (72) 
oracle

>  <origin>  (72) 
autodockgpu

>  <m_score__min__energy>  (72) 
-10.279999999999999

>  <m_primary>  (72) 
energy

>  <meeko>  (72) 
{"free_energy": -9.45, "intermolecular_energy": -11.24, "internal_energy": -1.43, "cluster_size": 15, "cluster_id": 1, "rank_in_cluster": 11}

>  <energy>  (72) 
-9.41

>  <cluster_rmsd>  (72) 
0.79

>  <rmsd>  (72) 
270.49

>  <cluster>  (72) 
1

$$$$
KTDBAWTUPMOUSA-JXMROGBWNA-N
     RDKit          3D

 64 68  0  0  0  0  0  0  0  0999 V2000
  142.2300   72.6101  221.7784 H   0  0  0  0  0  0  0  0  0  0  0  0
  141.1470   72.7920  221.7150 C   0  0  0  0  0  0  0  0  0  0  0  0
  140.6840   73.6350  220.7890 C   0  0  0  0  0  0  0  0  0  0  0  0
  140.0173   73.2592  219.9989 H   0  0  0  0  0  0  0  0  0  0  0  0
  141.0540   75.0650  220.8100 C   0  0  0  0  0  0  0  0  0  0  0  0
  140.6320   75.8060  221.8680 N   0  0  0  0  0  0  0  0  0  0  0  0
  140.9090   77.1240  221.9750 C   0  0  0  0  0  0  0  0  0  0  0  0
  140.4390   77.8510  223.0740 C   0  0  0  0  0  0  0  0  0  0  0  0
  139.8555   77.3460  223.8579 H   0  0  0  0  0  0  0  0  0  0  0  0
  140.7100   79.2180  223.1770 C   0  0  0  0  0  0  0  0  0  0  0  0
  140.3333   79.7890  224.0384 H   0  0  0  0  0  0  0  0  0  0  0  0
  141.4600   79.8620  222.1860 C   0  0  0  0  0  0  0  0  0  0  0  0
  141.8010   81.5780  222.3220 Cl  0  0  0  0  0  0  0  0  0  0  0  0
  141.9340   79.1400  221.0840 C   0  0  0  0  0  0  0  0  0  0  0  0
  142.5241   79.6480  220.3070 H   0  0  0  0  0  0  0  0  0  0  0  0
  141.6560   77.7630  220.9690 C   0  0  0  0  0  0  0  0  0  0  0  0
  142.1010   76.9930  219.8810 C   0  0  0  0  0  0  0  0  0  0  0  0
  142.7770   77.5450  218.9670 O   0  0  0  0  0  0  0  0  0  0  0  0
  141.8100   75.6490  219.8110 N   0  0  0  0  0  0  0  0  0  0  0  0
  142.3960   74.8450  218.7110 C   0  0  0  0  0  0  0  0  0  0  0  0
  141.8052   73.9253  218.5883 H   0  0  0  0  0  0  0  0  0  0  0  0
  142.3756   75.4529  217.7945 H   0  0  0  0  0  0  0  0  0  0  0  0
  143.8660   74.4610  219.0010 C   0  0  0  0  0  0  0  0  0  0  0  0
  144.4878   75.3270  218.7299 H   0  0  0  0  0  0  0  0  0  0  0  0
  144.2820   73.2410  218.1440 C   0  0  0  0  0  0  0  0  0  0  0  0
  143.4178   72.5672  218.0485 H   0  0  0  0  0  0  0  0  0  0  0  0
  144.6130   73.6200  217.1659 H   0  0  0  0  0  0  0  0  0  0  0  0
  145.4560   72.4530  218.7590 C   0  0  0  0  0  0  0  0  0  0  0  0
  145.0533   71.6421  219.3836 H   0  0  0  0  0  0  0  0  0  0  0  0
  146.0674   72.0501  217.9381 H   0  0  0  0  0  0  0  0  0  0  0  0
  146.3090   73.3130  219.5870 N   0  0  0  0  0  0  0  0  0  0  0  0
  146.6380   74.1250  219.0130 H   0  0  0  0  0  0  0  0  0  0  0  0
  145.5890   73.8140  220.7700 C   0  0  0  0  0  0  0  0  0  0  0  0
  145.6185   73.0380  221.5491 H   0  0  0  0  0  0  0  0  0  0  0  0
  146.0905   74.7417  221.0828 H   0  0  0  0  0  0  0  0  0  0  0  0
  144.1100   74.1710  220.4920 C   0  0  0  0  0  0  0  0  0  0  0  0
  143.4755   73.3267  220.7996 H   0  0  0  0  0  0  0  0  0  0  0  0
  143.8627   75.0781  221.0630 H   0  0  0  0  0  0  0  0  0  0  0  0
  140.2480   72.0980  222.6550 C   0  0  0  0  0  0  0  0  0  0  0  0
  138.8920   71.9540  222.3320 C   0  0  0  0  0  0  0  0  0  0  0  0
  138.5103   72.3528  221.3805 H   0  0  0  0  0  0  0  0  0  0  0  0
  138.0240   71.3070  223.2120 C   0  0  0  0  0  0  0  0  0  0  0  0
  136.9548   71.2249  222.9671 H   0  0  0  0  0  0  0  0  0  0  0  0
  138.5100   70.7630  224.4040 C   0  0  0  0  0  0  0  0  0  0  0  0
  137.8198   70.2553  225.0938 H   0  0  0  0  0  0  0  0  0  0  0  0
  139.8750   70.8600  224.7280 C   0  0  0  0  0  0  0  0  0  0  0  0
  140.3880   70.2370  225.9240 N   0  0  0  0  0  0  0  0  0  0  0  0
  140.7250   71.0570  227.1030 C   0  0  0  0  0  0  0  0  0  0  0  0
  141.6257   71.6480  226.8805 H   0  0  0  0  0  0  0  0  0  0  0  0
  139.8683   71.7113  227.3219 H   0  0  0  0  0  0  0  0  0  0  0  0
  140.9930   70.1880  228.3420 C   0  0  0  0  0  0  0  0  0  0  0  0
  142.0033   69.7588  228.2702 H   0  0  0  0  0  0  0  0  0  0  0  0
  140.9083   70.8175  229.2401 H   0  0  0  0  0  0  0  0  0  0  0  0
  139.9700   69.0520  228.4390 C   0  0  0  0  0  0  0  0  0  0  0  0
  140.2243   68.4240  229.3056 H   0  0  0  0  0  0  0  0  0  0  0  0
  138.9760   69.5115  228.5433 H   0  0  0  0  0  0  0  0  0  0  0  0
  139.9380   68.1600  227.1760 C   0  0  0  0  0  0  0  0  0  0  0  0
  140.4350   67.2069  227.4099 H   0  0  0  0  0  0  0  0  0  0  0  0
  138.8813   68.0228  226.9029 H   0  0  0  0  0  0  0  0  0  0  0  0
  140.6400   68.7900  225.9650 C   0  0  0  0  0  0  0  0  0  0  0  0
  141.7229   68.6125  226.0407 H   0  0  0  0  0  0  0  0  0  0  0  0
  140.2459   68.3324  225.0456 H   0  0  0  0  0  0  0  0  0  0  0  0
  140.7350   71.5530  223.8570 C   0  0  0  0  0  0  0  0  0  0  0  0
  141.7972   71.6698  224.1179 H   0  0  0  0  0  0  0  0  0  0  0  0
  1  2  1  0
  2  3  2  0
  3  4  1  0
  3  5  1  0
  5  6  2  0
  6  7  1  0
  7  8  2  0
  8  9  1  0
  8 10  1  0
 10 11  1  0
 10 12  2  0
 12 13  1  0
 12 14  1  0
 14 15  1  0
 14 16  2  0
 16 17  1  0
 17 18  2  0
 17 19  1  0
 19 20  1  0
 20 21  1  0
 20 22  1  0
 20 23  1  0
 23 24  1  0
 23 25  1  0
 25 26  1  0
 25 27  1  0
 25 28  1  0
 28 29  1  0
 28 30  1  0
 28 31  1  0
 31 32  1  0
 31 33  1  0
 33 34  1  0
 33 35  1  0
 33 36  1  0
 36 37  1  0
 36 38  1  0
  2 39  1  0
 39 40  2  0
 40 41  1  0
 40 42  1  0
 42 43  1  0
 42 44  2  0
 44 45  1  0
 44 46  1  0
 46 47  1  0
 47 48  1  0
 48 49  1  0
 48 50  1  0
 48 51  1  0
 51 52  1  0
 51 53  1  0
 51 54  1  0
 54 55  1  0
 54 56  1  0
 54 57  1  0
 57 58  1  0
 57 59  1  0
 57 60  1  0
 60 61  1  0
 60 62  1  0
 46 63  2  0
 63 64  1  0
 19  5  1  0
 36 23  1  0
 63 39  1  0
 16  7  1  0
 60 47  1  0
M  END
>  <UniqueID>  (73) 
421

>  <SMILES>  (73) 
O=c1c2cc(Cl)ccc2nc(/C=C/c2cccc(N3CCCCC3)c2)n1CC1CCNCC1

>  <Energy>  (73) 
91.87130403612728

>  <Genealogy>  (73) 
O=c1c2cc(Cl)ccc2nc(/C=C/c2cccc(N3CCCCC3)c2)n1CC1CCNCC1 (cis-trans isomerization)
O=c1c2cc(Cl)ccc2nc(/C=C/c2cccc(N3CCCCC3)c2)n1CC1CCNCC1 (3D coordinates assigned)
O=c1c2cc(Cl)ccc2nc(/C=C/c2cccc(N3CCCCC3)c2)n1CC1CCNCC1 (nonaromatic ring conformer: 91.87130403612728 kcal/mol)

>  <smiles>  (73) 
O=c1c2cc(Cl)ccc2nc(/C=C/c2cccc(N3CCCCC3)c2)n1CC1CCNCC1

>  <score_type>  (73) 
oracle

>  <origin>  (73) 
autodockgpu

>  <m_score__min__energy>  (73) 
-10.279999999999999

>  <m_primary>  (73) 
energy

>  <meeko>  (73) 
{"free_energy": -10.28, "intermolecular_energy": -12.07, "internal_energy": -1.55, "cluster_size": 15, "cluster_id": 1, "rank_in_cluster": 1}

>  <energy>  (73) 
-9.23

>  <cluster_rmsd>  (73) 
0.86

>  <rmsd>  (73) 
270.86

>  <cluster>  (73) 
1

$$$$
KTDBAWTUPMOUSA-JXMROGBWNA-N
     RDKit          3D

 64 68  0  0  0  0  0  0  0  0999 V2000
  141.8542   74.1111  221.4364 H   0  0  0  0  0  0  0  0  0  0  0  0
  140.7680   74.0320  221.5910 C   0  0  0  0  0  0  0  0  0  0  0  0
  140.1760   72.8450  221.4380 C   0  0  0  0  0  0  0  0  0  0  0  0
  139.8367   72.5333  220.4392 H   0  0  0  0  0  0  0  0  0  0  0  0
  139.9700   71.9440  222.5910 C   0  0  0  0  0  0  0  0  0  0  0  0
  140.6060   72.2560  223.7500 N   0  0  0  0  0  0  0  0  0  0  0  0
  140.4910   71.4900  224.8580 C   0  0  0  0  0  0  0  0  0  0  0  0
  141.1790   71.8410  226.0250 C   0  0  0  0  0  0  0  0  0  0  0  0
  141.8018   72.7475  226.0445 H   0  0  0  0  0  0  0  0  0  0  0  0
  141.0750   71.0400  227.1660 C   0  0  0  0  0  0  0  0  0  0  0  0
  141.6221   71.3132  228.0804 H   0  0  0  0  0  0  0  0  0  0  0  0
  140.2760   69.8910  227.1470 C   0  0  0  0  0  0  0  0  0  0  0  0
  140.1440   68.8920  228.5840 Cl  0  0  0  0  0  0  0  0  0  0  0  0
  139.5840   69.5360  225.9820 C   0  0  0  0  0  0  0  0  0  0  0  0
  138.9548   68.6338  225.9700 H   0  0  0  0  0  0  0  0  0  0  0  0
  139.6930   70.3330  224.8260 C   0  0  0  0  0  0  0  0  0  0  0  0
  139.0260   70.0190  223.6290 C   0  0  0  0  0  0  0  0  0  0  0  0
  138.2990   68.9860  223.5780 O   0  0  0  0  0  0  0  0  0  0  0  0
  139.1570   70.8290  222.5230 N   0  0  0  0  0  0  0  0  0  0  0  0
  138.3470   70.5310  221.3170 C   0  0  0  0  0  0  0  0  0  0  0  0
  138.9511   70.7393  220.4217 H   0  0  0  0  0  0  0  0  0  0  0  0
  138.0513   69.4722  221.3562 H   0  0  0  0  0  0  0  0  0  0  0  0
  137.0600   71.3890  221.2640 C   0  0  0  0  0  0  0  0  0  0  0  0
  136.2154   70.7000  221.1160 H   0  0  0  0  0  0  0  0  0  0  0  0
  137.1250   72.3830  220.0800 C   0  0  0  0  0  0  0  0  0  0  0  0
  138.1645   72.7234  219.9633 H   0  0  0  0  0  0  0  0  0  0  0  0
  136.7658   71.8554  219.1841 H   0  0  0  0  0  0  0  0  0  0  0  0
  136.2230   73.6160  220.2860 C   0  0  0  0  0  0  0  0  0  0  0  0
  136.8156   74.4184  220.7496 H   0  0  0  0  0  0  0  0  0  0  0  0
  135.8384   73.9289  219.3041 H   0  0  0  0  0  0  0  0  0  0  0  0
  135.0780   73.3090  221.1510 N   0  0  0  0  0  0  0  0  0  0  0  0
  134.5510   72.4990  220.7470 H   0  0  0  0  0  0  0  0  0  0  0  0
  135.5070   72.9770  222.5210 C   0  0  0  0  0  0  0  0  0  0  0  0
  135.6694   73.9156  223.0711 H   0  0  0  0  0  0  0  0  0  0  0  0
  134.7117   72.3616  222.9667 H   0  0  0  0  0  0  0  0  0  0  0  0
  136.8090   72.1450  222.5800 C   0  0  0  0  0  0  0  0  0  0  0  0
  137.6558   72.8208  222.7702 H   0  0  0  0  0  0  0  0  0  0  0  0
  136.7071   71.4047  223.3872 H   0  0  0  0  0  0  0  0  0  0  0  0
  140.0080   75.2390  221.9610 C   0  0  0  0  0  0  0  0  0  0  0  0
  138.6120   75.1690  222.0630 C   0  0  0  0  0  0  0  0  0  0  0  0
  138.0961   74.2164  221.8720 H   0  0  0  0  0  0  0  0  0  0  0  0
  137.8730   76.3030  222.4060 C   0  0  0  0  0  0  0  0  0  0  0  0
  136.7755   76.2490  222.4566 H   0  0  0  0  0  0  0  0  0  0  0  0
  138.5260   77.5060  222.6850 C   0  0  0  0  0  0  0  0  0  0  0  0
  137.9381   78.3965  222.9523 H   0  0  0  0  0  0  0  0  0  0  0  0
  139.9280   77.5880  222.6270 C   0  0  0  0  0  0  0  0  0  0  0  0
  140.6050   78.8120  222.9860 N   0  0  0  0  0  0  0  0  0  0  0  0
  141.8400   78.7690  223.7890 C   0  0  0  0  0  0  0  0  0  0  0  0
  141.5869   78.4666  224.8159 H   0  0  0  0  0  0  0  0  0  0  0  0
  142.5267   78.0471  223.3228 H   0  0  0  0  0  0  0  0  0  0  0  0
  142.5400   80.1370  223.8310 C   0  0  0  0  0  0  0  0  0  0  0  0
  142.0185   80.7876  224.5485 H   0  0  0  0  0  0  0  0  0  0  0  0
  143.5856   79.9901  224.1393 H   0  0  0  0  0  0  0  0  0  0  0  0
  142.5220   80.7970  222.4480 C   0  0  0  0  0  0  0  0  0  0  0  0
  142.9828   81.7926  222.5284 H   0  0  0  0  0  0  0  0  0  0  0  0
  143.0794   80.1416  221.7626 H   0  0  0  0  0  0  0  0  0  0  0  0
  141.0940   80.9590  221.8760 C   0  0  0  0  0  0  0  0  0  0  0  0
  140.8061   82.0179  221.9528 H   0  0  0  0  0  0  0  0  0  0  0  0
  141.1211   80.6088  220.8336 H   0  0  0  0  0  0  0  0  0  0  0  0
  140.0420   80.1150  222.6090 C   0  0  0  0  0  0  0  0  0  0  0  0
  139.7184   80.6465  223.5161 H   0  0  0  0  0  0  0  0  0  0  0  0
  139.1839   79.9535  221.9400 H   0  0  0  0  0  0  0  0  0  0  0  0
  140.6630   76.4530  222.2390 C   0  0  0  0  0  0  0  0  0  0  0  0
  141.7578   76.5150  222.1523 H   0  0  0  0  0  0  0  0  0  0  0  0
  1  2  1  0
  2  3  2  0
  3  4  1  0
  3  5  1  0
  5  6  2  0
  6  7  1  0
  7  8  2  0
  8  9  1  0
  8 10  1  0
 10 11  1  0
 10 12  2  0
 12 13  1  0
 12 14  1  0
 14 15  1  0
 14 16  2  0
 16 17  1  0
 17 18  2  0
 17 19  1  0
 19 20  1  0
 20 21  1  0
 20 22  1  0
 20 23  1  0
 23 24  1  0
 23 25  1  0
 25 26  1  0
 25 27  1  0
 25 28  1  0
 28 29  1  0
 28 30  1  0
 28 31  1  0
 31 32  1  0
 31 33  1  0
 33 34  1  0
 33 35  1  0
 33 36  1  0
 36 37  1  0
 36 38  1  0
  2 39  1  0
 39 40  2  0
 40 41  1  0
 40 42  1  0
 42 43  1  0
 42 44  2  0
 44 45  1  0
 44 46  1  0
 46 47  1  0
 47 48  1  0
 48 49  1  0
 48 50  1  0
 48 51  1  0
 51 52  1  0
 51 53  1  0
 51 54  1  0
 54 55  1  0
 54 56  1  0
 54 57  1  0
 57 58  1  0
 57 59  1  0
 57 60  1  0
 60 61  1  0
 60 62  1  0
 46 63  2  0
 63 64  1  0
 19  5  1  0
 36 23  1  0
 63 39  1  0
 16  7  1  0
 60 47  1  0
M  END
>  <UniqueID>  (74) 
421

>  <SMILES>  (74) 
O=c1c2cc(Cl)ccc2nc(/C=C/c2cccc(N3CCCCC3)c2)n1CC1CCNCC1

>  <Energy>  (74) 
91.87130403612728

>  <Genealogy>  (74) 
O=c1c2cc(Cl)ccc2nc(/C=C/c2cccc(N3CCCCC3)c2)n1CC1CCNCC1 (cis-trans isomerization)
O=c1c2cc(Cl)ccc2nc(/C=C/c2cccc(N3CCCCC3)c2)n1CC1CCNCC1 (3D coordinates assigned)
O=c1c2cc(Cl)ccc2nc(/C=C/c2cccc(N3CCCCC3)c2)n1CC1CCNCC1 (nonaromatic ring conformer: 91.87130403612728 kcal/mol)

>  <smiles>  (74) 
O=c1c2cc(Cl)ccc2nc(/C=C/c2cccc(N3CCCCC3)c2)n1CC1CCNCC1

>  <score_type>  (74) 
oracle

>  <origin>  (74) 
autodockgpu

>  <m_score__min__energy>  (74) 
-10.279999999999999

>  <m_primary>  (74) 
energy

>  <meeko>  (74) 
{"free_energy": -8.25, "intermolecular_energy": -10.04, "internal_energy": -2.1, "cluster_size": 1, "cluster_id": 4, "rank_in_cluster": 1}

>  <energy>  (74) 
-8.95

>  <cluster_rmsd>  (74) 
1.0

>  <rmsd>  (74) 
270.34

>  <cluster>  (74) 
1

$$$$
KTDBAWTUPMOUSA-JXMROGBWNA-N
     RDKit          3D

 64 68  0  0  0  0  0  0  0  0999 V2000
  142.1703   72.5047  221.6217 H   0  0  0  0  0  0  0  0  0  0  0  0
  141.0930   72.7270  221.6210 C   0  0  0  0  0  0  0  0  0  0  0  0
  140.6140   73.6100  220.7420 C   0  0  0  0  0  0  0  0  0  0  0  0
  139.9131   73.2744  219.9635 H   0  0  0  0  0  0  0  0  0  0  0  0
  141.0120   75.0320  220.8000 C   0  0  0  0  0  0  0  0  0  0  0  0
  140.5700   75.7630  221.8560 N   0  0  0  0  0  0  0  0  0  0  0  0
  140.8690   77.0740  221.9950 C   0  0  0  0  0  0  0  0  0  0  0  0
  140.3770   77.7920  223.0910 C   0  0  0  0  0  0  0  0  0  0  0  0
  139.7585   77.2858  223.8468 H   0  0  0  0  0  0  0  0  0  0  0  0
  140.6710   79.1520  223.2260 C   0  0  0  0  0  0  0  0  0  0  0  0
  140.2765   79.7168  224.0835 H   0  0  0  0  0  0  0  0  0  0  0  0
  141.4670   79.7960  222.2710 C   0  0  0  0  0  0  0  0  0  0  0  0
  141.8380   81.5020  222.4480 Cl  0  0  0  0  0  0  0  0  0  0  0  0
  141.9630   79.0820  221.1730 C   0  0  0  0  0  0  0  0  0  0  0  0
  142.5890   79.5900  220.4247 H   0  0  0  0  0  0  0  0  0  0  0  0
  141.6610   77.7140  221.0260 C   0  0  0  0  0  0  0  0  0  0  0  0
  142.1280   76.9530  219.9400 C   0  0  0  0  0  0  0  0  0  0  0  0
  142.8450   77.5060  219.0580 O   0  0  0  0  0  0  0  0  0  0  0  0
  141.8120   75.6160  219.8370 N   0  0  0  0  0  0  0  0  0  0  0  0
  142.4190   74.8190  218.7430 C   0  0  0  0  0  0  0  0  0  0  0  0
  141.8346   73.8970  218.6074 H   0  0  0  0  0  0  0  0  0  0  0  0
  142.4100   75.4302  217.8285 H   0  0  0  0  0  0  0  0  0  0  0  0
  143.8860   74.4410  219.0550 C   0  0  0  0  0  0  0  0  0  0  0  0
  144.5037   75.3236  218.8326 H   0  0  0  0  0  0  0  0  0  0  0  0
  144.3370   73.2580  218.1630 C   0  0  0  0  0  0  0  0  0  0  0  0
  143.4835   72.5786  218.0218 H   0  0  0  0  0  0  0  0  0  0  0  0
  144.6865   73.6771  217.2079 H   0  0  0  0  0  0  0  0  0  0  0  0
  145.5050   72.4610  218.7760 C   0  0  0  0  0  0  0  0  0  0  0  0
  145.0974   71.6220  219.3591 H   0  0  0  0  0  0  0  0  0  0  0  0
  146.1411   72.0972  217.9556 H   0  0  0  0  0  0  0  0  0  0  0  0
  146.3270   73.2980  219.6570 N   0  0  0  0  0  0  0  0  0  0  0  0
  146.6600   74.1350  219.1220 H   0  0  0  0  0  0  0  0  0  0  0  0
  145.5730   73.7450  220.8400 C   0  0  0  0  0  0  0  0  0  0  0  0
  145.5924   72.9397  221.5891 H   0  0  0  0  0  0  0  0  0  0  0  0
  146.0561   74.6649  221.2009 H   0  0  0  0  0  0  0  0  0  0  0  0
  144.0970   74.0970  220.5390 C   0  0  0  0  0  0  0  0  0  0  0  0
  143.4648   73.2351  220.7986 H   0  0  0  0  0  0  0  0  0  0  0  0
  143.8257   74.9791  221.1376 H   0  0  0  0  0  0  0  0  0  0  0  0
  140.2200   72.0410  222.5910 C   0  0  0  0  0  0  0  0  0  0  0  0
  138.8620   71.8710  222.2940 C   0  0  0  0  0  0  0  0  0  0  0  0
  138.4594   72.2436  221.3406 H   0  0  0  0  0  0  0  0  0  0  0  0
  138.0170   71.2310  223.2020 C   0  0  0  0  0  0  0  0  0  0  0  0
  136.9455   71.1271  222.9761 H   0  0  0  0  0  0  0  0  0  0  0  0
  138.5310   70.7220  224.3980 C   0  0  0  0  0  0  0  0  0  0  0  0
  137.8597   70.2202  225.1104 H   0  0  0  0  0  0  0  0  0  0  0  0
  139.8990   70.8460  224.6980 C   0  0  0  0  0  0  0  0  0  0  0  0
  140.4410   70.2580  225.8990 N   0  0  0  0  0  0  0  0  0  0  0  0
  140.7050   71.0970  227.0820 C   0  0  0  0  0  0  0  0  0  0  0  0
  141.5638   71.7510  226.8706 H   0  0  0  0  0  0  0  0  0  0  0  0
  139.8012   71.6880  227.2915 H   0  0  0  0  0  0  0  0  0  0  0  0
  141.0200   70.2470  228.3240 C   0  0  0  0  0  0  0  0  0  0  0  0
  142.0587   69.8899  228.2633 H   0  0  0  0  0  0  0  0  0  0  0  0
  140.8818   70.8674  229.2217 H   0  0  0  0  0  0  0  0  0  0  0  0
  140.0780   69.0420  228.4080 C   0  0  0  0  0  0  0  0  0  0  0  0
  140.3663   68.4312  229.2762 H   0  0  0  0  0  0  0  0  0  0  0  0
  139.0533   69.4306  228.5024 H   0  0  0  0  0  0  0  0  0  0  0  0
  140.1220   68.1530  227.1430 C   0  0  0  0  0  0  0  0  0  0  0  0
  140.6805   67.2357  227.3810 H   0  0  0  0  0  0  0  0  0  0  0  0
  139.0805   67.9440  226.8572 H   0  0  0  0  0  0  0  0  0  0  0  0
  140.7930   68.8330  225.9420 C   0  0  0  0  0  0  0  0  0  0  0  0
  141.8847   68.7317  226.0313 H   0  0  0  0  0  0  0  0  0  0  0  0
  140.4434   68.3507  225.0173 H   0  0  0  0  0  0  0  0  0  0  0  0
  140.7350   71.5310  223.7970 C   0  0  0  0  0  0  0  0  0  0  0  0
  141.7995   71.6689  224.0374 H   0  0  0  0  0  0  0  0  0  0  0  0
  1  2  1  0
  2  3  2  0
  3  4  1  0
  3  5  1  0
  5  6  2  0
  6  7  1  0
  7  8  2  0
  8  9  1  0
  8 10  1  0
 10 11  1  0
 10 12  2  0
 12 13  1  0
 12 14  1  0
 14 15  1  0
 14 16  2  0
 16 17  1  0
 17 18  2  0
 17 19  1  0
 19 20  1  0
 20 21  1  0
 20 22  1  0
 20 23  1  0
 23 24  1  0
 23 25  1  0
 25 26  1  0
 25 27  1  0
 25 28  1  0
 28 29  1  0
 28 30  1  0
 28 31  1  0
 31 32  1  0
 31 33  1  0
 33 34  1  0
 33 35  1  0
 33 36  1  0
 36 37  1  0
 36 38  1  0
  2 39  1  0
 39 40  2  0
 40 41  1  0
 40 42  1  0
 42 43  1  0
 42 44  2  0
 44 45  1  0
 44 46  1  0
 46 47  1  0
 47 48  1  0
 48 49  1  0
 48 50  1  0
 48 51  1  0
 51 52  1  0
 51 53  1  0
 51 54  1  0
 54 55  1  0
 54 56  1  0
 54 57  1  0
 57 58  1  0
 57 59  1  0
 57 60  1  0
 60 61  1  0
 60 62  1  0
 46 63  2  0
 63 64  1  0
 19  5  1  0
 36 23  1  0
 63 39  1  0
 16  7  1  0
 60 47  1  0
M  END
>  <UniqueID>  (75) 
421

>  <SMILES>  (75) 
O=c1c2cc(Cl)ccc2nc(/C=C/c2cccc(N3CCCCC3)c2)n1CC1CCNCC1

>  <Energy>  (75) 
91.87130403612728

>  <Genealogy>  (75) 
O=c1c2cc(Cl)ccc2nc(/C=C/c2cccc(N3CCCCC3)c2)n1CC1CCNCC1 (cis-trans isomerization)
O=c1c2cc(Cl)ccc2nc(/C=C/c2cccc(N3CCCCC3)c2)n1CC1CCNCC1 (3D coordinates assigned)
O=c1c2cc(Cl)ccc2nc(/C=C/c2cccc(N3CCCCC3)c2)n1CC1CCNCC1 (nonaromatic ring conformer: 91.87130403612728 kcal/mol)

>  <smiles>  (75) 
O=c1c2cc(Cl)ccc2nc(/C=C/c2cccc(N3CCCCC3)c2)n1CC1CCNCC1

>  <score_type>  (75) 
oracle

>  <origin>  (75) 
autodockgpu

>  <m_score__min__energy>  (75) 
-10.279999999999999

>  <m_primary>  (75) 
energy

>  <meeko>  (75) 
{"free_energy": -10.26, "intermolecular_energy": -12.05, "internal_energy": -1.56, "cluster_size": 15, "cluster_id": 1, "rank_in_cluster": 3}

>  <energy>  (75) 
-8.69

>  <cluster_rmsd>  (75) 
1.58

>  <rmsd>  (75) 
270.3

>  <cluster>  (75) 
1

$$$$
KTDBAWTUPMOUSA-JXMROGBWNA-N
     RDKit          3D

 64 68  0  0  0  0  0  0  0  0999 V2000
  140.7577   74.0876  220.9440 H   0  0  0  0  0  0  0  0  0  0  0  0
  141.0520   75.1450  221.0170 C   0  0  0  0  0  0  0  0  0  0  0  0
  142.2010   75.5380  220.4640 C   0  0  0  0  0  0  0  0  0  0  0  0
  143.1430   75.0643  220.7774 H   0  0  0  0  0  0  0  0  0  0  0  0
  142.2270   76.6000  219.4370 C   0  0  0  0  0  0  0  0  0  0  0  0
  142.1440   77.8870  219.8650 N   0  0  0  0  0  0  0  0  0  0  0  0
  142.1480   78.9290  219.0050 C   0  0  0  0  0  0  0  0  0  0  0  0
  142.0440   80.2380  219.4910 C   0  0  0  0  0  0  0  0  0  0  0  0
  141.9741   80.4183  220.5739 H   0  0  0  0  0  0  0  0  0  0  0  0
  142.0290   81.3160  218.6010 C   0  0  0  0  0  0  0  0  0  0  0  0
  141.9377   82.3432  218.9839 H   0  0  0  0  0  0  0  0  0  0  0  0
  142.1300   81.0900  217.2230 C   0  0  0  0  0  0  0  0  0  0  0  0
  142.1170   82.4480  216.1110 Cl  0  0  0  0  0  0  0  0  0  0  0  0
  142.2360   79.7830  216.7320 C   0  0  0  0  0  0  0  0  0  0  0  0
  142.3163   79.6083  215.6489 H   0  0  0  0  0  0  0  0  0  0  0  0
  142.2400   78.6920  217.6220 C   0  0  0  0  0  0  0  0  0  0  0  0
  142.3380   77.3610  217.1820 C   0  0  0  0  0  0  0  0  0  0  0  0
  142.4260   77.1230  215.9440 O   0  0  0  0  0  0  0  0  0  0  0  0
  142.3420   76.3230  218.0880 N   0  0  0  0  0  0  0  0  0  0  0  0
  142.5650   74.9430  217.5950 C   0  0  0  0  0  0  0  0  0  0  0  0
  141.7896   74.2852  218.0146 H   0  0  0  0  0  0  0  0  0  0  0  0
  142.5164   74.9601  216.4962 H   0  0  0  0  0  0  0  0  0  0  0  0
  143.9560   74.4040  218.0070 C   0  0  0  0  0  0  0  0  0  0  0  0
  144.4796   75.2198  218.5269 H   0  0  0  0  0  0  0  0  0  0  0  0
  144.7650   73.9900  216.7540 C   0  0  0  0  0  0  0  0  0  0  0  0
  144.0723   73.5644  216.0130 H   0  0  0  0  0  0  0  0  0  0  0  0
  145.2680   74.8904  216.3717 H   0  0  0  0  0  0  0  0  0  0  0  0
  145.8550   72.9460  217.0660 C   0  0  0  0  0  0  0  0  0  0  0  0
  145.4426   71.9395  216.9023 H   0  0  0  0  0  0  0  0  0  0  0  0
  146.7109   73.1327  216.4007 H   0  0  0  0  0  0  0  0  0  0  0  0
  146.3210   73.0500  218.4540 N   0  0  0  0  0  0  0  0  0  0  0  0
  146.6510   74.0280  218.6320 H   0  0  0  0  0  0  0  0  0  0  0  0
  145.2540   72.7140  219.4120 C   0  0  0  0  0  0  0  0  0  0  0  0
  145.2087   71.6195  219.5119 H   0  0  0  0  0  0  0  0  0  0  0  0
  145.5047   73.2115  220.3605 H   0  0  0  0  0  0  0  0  0  0  0  0
  143.8570   73.2240  218.9890 C   0  0  0  0  0  0  0  0  0  0  0  0
  143.3089   72.4022  218.5049 H   0  0  0  0  0  0  0  0  0  0  0  0
  143.3309   73.5711  219.8906 H   0  0  0  0  0  0  0  0  0  0  0  0
  140.1660   76.0880  221.7230 C   0  0  0  0  0  0  0  0  0  0  0  0
  138.8830   75.6720  222.1050 C   0  0  0  0  0  0  0  0  0  0  0  0
  138.5501   74.6477  221.8813 H   0  0  0  0  0  0  0  0  0  0  0  0
  138.0260   76.5520  222.7680 C   0  0  0  0  0  0  0  0  0  0  0  0
  137.0097   76.2295  223.0383 H   0  0  0  0  0  0  0  0  0  0  0  0
  138.4570   77.8420  223.0890 C   0  0  0  0  0  0  0  0  0  0  0  0
  137.7761   78.5311  223.6100 H   0  0  0  0  0  0  0  0  0  0  0  0
  139.7550   78.2660  222.7510 C   0  0  0  0  0  0  0  0  0  0  0  0
  140.2230   79.5730  223.1460 N   0  0  0  0  0  0  0  0  0  0  0  0
  141.5590   79.7310  223.7490 C   0  0  0  0  0  0  0  0  0  0  0  0
  141.5475   79.2967  224.7596 H   0  0  0  0  0  0  0  0  0  0  0  0
  142.2881   79.2157  223.1064 H   0  0  0  0  0  0  0  0  0  0  0  0
  141.9680   81.2100  223.8470 C   0  0  0  0  0  0  0  0  0  0  0  0
  141.4542   81.6710  224.7034 H   0  0  0  0  0  0  0  0  0  0  0  0
  143.0583   81.2679  223.9806 H   0  0  0  0  0  0  0  0  0  0  0  0
  141.5870   81.9620  222.5670 C   0  0  0  0  0  0  0  0  0  0  0  0
  141.8465   83.0235  222.6934 H   0  0  0  0  0  0  0  0  0  0  0  0
  142.1411   81.5006  221.7363 H   0  0  0  0  0  0  0  0  0  0  0  0
  140.0810   81.8590  222.2330 C   0  0  0  0  0  0  0  0  0  0  0  0
  139.6046   82.8211  222.4725 H   0  0  0  0  0  0  0  0  0  0  0  0
  140.0028   81.6094  221.1646 H   0  0  0  0  0  0  0  0  0  0  0  0
  139.3560   80.7510  223.0100 C   0  0  0  0  0  0  0  0  0  0  0  0
  139.0903   81.1235  224.0103 H   0  0  0  0  0  0  0  0  0  0  0  0
  138.4469   80.4648  222.4608 H   0  0  0  0  0  0  0  0  0  0  0  0
  140.5960   77.3880  222.0440 C   0  0  0  0  0  0  0  0  0  0  0  0
  141.5991   77.7211  221.7394 H   0  0  0  0  0  0  0  0  0  0  0  0
  1  2  1  0
  2  3  2  0
  3  4  1  0
  3  5  1  0
  5  6  2  0
  6  7  1  0
  7  8  2  0
  8  9  1  0
  8 10  1  0
 10 11  1  0
 10 12  2  0
 12 13  1  0
 12 14  1  0
 14 15  1  0
 14 16  2  0
 16 17  1  0
 17 18  2  0
 17 19  1  0
 19 20  1  0
 20 21  1  0
 20 22  1  0
 20 23  1  0
 23 24  1  0
 23 25  1  0
 25 26  1  0
 25 27  1  0
 25 28  1  0
 28 29  1  0
 28 30  1  0
 28 31  1  0
 31 32  1  0
 31 33  1  0
 33 34  1  0
 33 35  1  0
 33 36  1  0
 36 37  1  0
 36 38  1  0
  2 39  1  0
 39 40  2  0
 40 41  1  0
 40 42  1  0
 42 43  1  0
 42 44  2  0
 44 45  1  0
 44 46  1  0
 46 47  1  0
 47 48  1  0
 48 49  1  0
 48 50  1  0
 48 51  1  0
 51 52  1  0
 51 53  1  0
 51 54  1  0
 54 55  1  0
 54 56  1  0
 54 57  1  0
 57 58  1  0
 57 59  1  0
 57 60  1  0
 60 61  1  0
 60 62  1  0
 46 63  2  0
 63 64  1  0
 19  5  1  0
 36 23  1  0
 63 39  1  0
 16  7  1  0
 60 47  1  0
M  END
>  <UniqueID>  (76) 
421

>  <SMILES>  (76) 
O=c1c2cc(Cl)ccc2nc(/C=C/c2cccc(N3CCCCC3)c2)n1CC1CCNCC1

>  <Energy>  (76) 
91.87130403612728

>  <Genealogy>  (76) 
O=c1c2cc(Cl)ccc2nc(/C=C/c2cccc(N3CCCCC3)c2)n1CC1CCNCC1 (cis-trans isomerization)
O=c1c2cc(Cl)ccc2nc(/C=C/c2cccc(N3CCCCC3)c2)n1CC1CCNCC1 (3D coordinates assigned)
O=c1c2cc(Cl)ccc2nc(/C=C/c2cccc(N3CCCCC3)c2)n1CC1CCNCC1 (nonaromatic ring conformer: 91.87130403612728 kcal/mol)

>  <smiles>  (76) 
O=c1c2cc(Cl)ccc2nc(/C=C/c2cccc(N3CCCCC3)c2)n1CC1CCNCC1

>  <score_type>  (76) 
oracle

>  <origin>  (76) 
autodockgpu

>  <m_score__min__energy>  (76) 
-10.279999999999999

>  <m_primary>  (76) 
energy

>  <meeko>  (76) 
{"free_energy": -7.66, "intermolecular_energy": -9.45, "internal_energy": -1.91, "cluster_size": 1, "cluster_id": 6, "rank_in_cluster": 1}

>  <energy>  (76) 
-8.41

>  <cluster_rmsd>  (76) 
0.0

>  <rmsd>  (76) 
269.95

>  <cluster>  (76) 
2

$$$$
KTDBAWTUPMOUSA-JXMROGBWNA-N
     RDKit          3D

 64 68  0  0  0  0  0  0  0  0999 V2000
  142.2336   72.5966  221.7649 H   0  0  0  0  0  0  0  0  0  0  0  0
  141.1520   72.7870  221.7020 C   0  0  0  0  0  0  0  0  0  0  0  0
  140.6960   73.6350  220.7780 C   0  0  0  0  0  0  0  0  0  0  0  0
  140.0359   73.2637  219.9802 H   0  0  0  0  0  0  0  0  0  0  0  0
  141.0650   75.0660  220.8110 C   0  0  0  0  0  0  0  0  0  0  0  0
  140.6410   75.7980  221.8740 N   0  0  0  0  0  0  0  0  0  0  0  0
  140.9180   77.1150  221.9920 C   0  0  0  0  0  0  0  0  0  0  0  0
  140.4450   77.8330  223.0960 C   0  0  0  0  0  0  0  0  0  0  0  0
  139.8603   77.3215  223.8747 H   0  0  0  0  0  0  0  0  0  0  0  0
  140.7150   79.2000  223.2100 C   0  0  0  0  0  0  0  0  0  0  0  0
  140.3361   79.7643  224.0749 H   0  0  0  0  0  0  0  0  0  0  0  0
  141.4670   79.8520  222.2250 C   0  0  0  0  0  0  0  0  0  0  0  0
  141.8080   81.5660  222.3760 Cl  0  0  0  0  0  0  0  0  0  0  0  0
  141.9440   79.1380  221.1190 C   0  0  0  0  0  0  0  0  0  0  0  0
  142.5366   79.6516  220.3476 H   0  0  0  0  0  0  0  0  0  0  0  0
  141.6660   77.7630  220.9930 C   0  0  0  0  0  0  0  0  0  0  0  0
  142.1140   77.0000  219.9000 C   0  0  0  0  0  0  0  0  0  0  0  0
  142.7930   77.5600  218.9910 O   0  0  0  0  0  0  0  0  0  0  0  0
  141.8230   75.6570  219.8180 N   0  0  0  0  0  0  0  0  0  0  0  0
  142.4120   74.8620  218.7130 C   0  0  0  0  0  0  0  0  0  0  0  0
  141.8192   73.9452  218.5784 H   0  0  0  0  0  0  0  0  0  0  0  0
  142.3977   75.4786  217.8022 H   0  0  0  0  0  0  0  0  0  0  0  0
  143.8800   74.4710  219.0070 C   0  0  0  0  0  0  0  0  0  0  0  0
  144.5060   75.3358  218.7420 H   0  0  0  0  0  0  0  0  0  0  0  0
  144.2940   73.2520  218.1460 C   0  0  0  0  0  0  0  0  0  0  0  0
  143.4275   72.5819  218.0454 H   0  0  0  0  0  0  0  0  0  0  0  0
  144.6294   73.6336  217.1704 H   0  0  0  0  0  0  0  0  0  0  0  0
  145.4630   72.4570  218.7610 C   0  0  0  0  0  0  0  0  0  0  0  0
  145.0554   71.6444  219.3803 H   0  0  0  0  0  0  0  0  0  0  0  0
  146.0758   72.0559  217.9403 H   0  0  0  0  0  0  0  0  0  0  0  0
  146.3160   73.3100  219.5960 N   0  0  0  0  0  0  0  0  0  0  0  0
  146.6510   74.1240  219.0260 H   0  0  0  0  0  0  0  0  0  0  0  0
  145.5940   73.8090  220.7790 C   0  0  0  0  0  0  0  0  0  0  0  0
  145.6170   73.0293  221.5546 H   0  0  0  0  0  0  0  0  0  0  0  0
  146.0987   74.7328  221.0982 H   0  0  0  0  0  0  0  0  0  0  0  0
  144.1180   74.1740  220.4970 C   0  0  0  0  0  0  0  0  0  0  0  0
  143.4785   73.3315  220.7991 H   0  0  0  0  0  0  0  0  0  0  0  0
  143.8733   75.0802  221.0705 H   0  0  0  0  0  0  0  0  0  0  0  0
  140.2480   72.0980  222.6410 C   0  0  0  0  0  0  0  0  0  0  0  0
  138.8940   71.9500  222.3100 C   0  0  0  0  0  0  0  0  0  0  0  0
  138.5184   72.3425  221.3535 H   0  0  0  0  0  0  0  0  0  0  0  0
  138.0200   71.3070  223.1880 C   0  0  0  0  0  0  0  0  0  0  0  0
  136.9527   71.2212  222.9359 H   0  0  0  0  0  0  0  0  0  0  0  0
  138.4990   70.7720  224.3870 C   0  0  0  0  0  0  0  0  0  0  0  0
  137.8051   70.2674  225.0754 H   0  0  0  0  0  0  0  0  0  0  0  0
  139.8620   70.8740  224.7200 C   0  0  0  0  0  0  0  0  0  0  0  0
  140.3670   70.2590  225.9240 N   0  0  0  0  0  0  0  0  0  0  0  0
  140.6810   71.0860  227.1030 C   0  0  0  0  0  0  0  0  0  0  0  0
  141.5778   71.6860  226.8891 H   0  0  0  0  0  0  0  0  0  0  0  0
  139.8149   71.7319  227.3096 H   0  0  0  0  0  0  0  0  0  0  0  0
  140.9440   70.2230  228.3490 C   0  0  0  0  0  0  0  0  0  0  0  0
  141.9598   69.8049  228.2909 H   0  0  0  0  0  0  0  0  0  0  0  0
  140.8419   70.8538  229.2444 H   0  0  0  0  0  0  0  0  0  0  0  0
  139.9320   69.0760  228.4360 C   0  0  0  0  0  0  0  0  0  0  0  0
  140.1824   68.4527  229.3071 H   0  0  0  0  0  0  0  0  0  0  0  0
  138.9320   69.5251  228.5269 H   0  0  0  0  0  0  0  0  0  0  0  0
  139.9250   68.1810  227.1750 C   0  0  0  0  0  0  0  0  0  0  0  0
  140.4293   67.2339  227.4172 H   0  0  0  0  0  0  0  0  0  0  0  0
  138.8733   68.0317  226.8894 H   0  0  0  0  0  0  0  0  0  0  0  0
  140.6350   68.8160  225.9710 C   0  0  0  0  0  0  0  0  0  0  0  0
  141.7189   68.6510  226.0604 H   0  0  0  0  0  0  0  0  0  0  0  0
  140.2580   68.3519  225.0477 H   0  0  0  0  0  0  0  0  0  0  0  0
  140.7270   71.5620  223.8500 C   0  0  0  0  0  0  0  0  0  0  0  0
  141.7872   71.6819  224.1174 H   0  0  0  0  0  0  0  0  0  0  0  0
  1  2  1  0
  2  3  2  0
  3  4  1  0
  3  5  1  0
  5  6  2  0
  6  7  1  0
  7  8  2  0
  8  9  1  0
  8 10  1  0
 10 11  1  0
 10 12  2  0
 12 13  1  0
 12 14  1  0
 14 15  1  0
 14 16  2  0
 16 17  1  0
 17 18  2  0
 17 19  1  0
 19 20  1  0
 20 21  1  0
 20 22  1  0
 20 23  1  0
 23 24  1  0
 23 25  1  0
 25 26  1  0
 25 27  1  0
 25 28  1  0
 28 29  1  0
 28 30  1  0
 28 31  1  0
 31 32  1  0
 31 33  1  0
 33 34  1  0
 33 35  1  0
 33 36  1  0
 36 37  1  0
 36 38  1  0
  2 39  1  0
 39 40  2  0
 40 41  1  0
 40 42  1  0
 42 43  1  0
 42 44  2  0
 44 45  1  0
 44 46  1  0
 46 47  1  0
 47 48  1  0
 48 49  1  0
 48 50  1  0
 48 51  1  0
 51 52  1  0
 51 53  1  0
 51 54  1  0
 54 55  1  0
 54 56  1  0
 54 57  1  0
 57 58  1  0
 57 59  1  0
 57 60  1  0
 60 61  1  0
 60 62  1  0
 46 63  2  0
 63 64  1  0
 19  5  1  0
 36 23  1  0
 63 39  1  0
 16  7  1  0
 60 47  1  0
M  END
>  <UniqueID>  (77) 
421

>  <SMILES>  (77) 
O=c1c2cc(Cl)ccc2nc(/C=C/c2cccc(N3CCCCC3)c2)n1CC1CCNCC1

>  <Energy>  (77) 
91.87130403612728

>  <Genealogy>  (77) 
O=c1c2cc(Cl)ccc2nc(/C=C/c2cccc(N3CCCCC3)c2)n1CC1CCNCC1 (cis-trans isomerization)
O=c1c2cc(Cl)ccc2nc(/C=C/c2cccc(N3CCCCC3)c2)n1CC1CCNCC1 (3D coordinates assigned)
O=c1c2cc(Cl)ccc2nc(/C=C/c2cccc(N3CCCCC3)c2)n1CC1CCNCC1 (nonaromatic ring conformer: 91.87130403612728 kcal/mol)

>  <smiles>  (77) 
O=c1c2cc(Cl)ccc2nc(/C=C/c2cccc(N3CCCCC3)c2)n1CC1CCNCC1

>  <score_type>  (77) 
oracle

>  <origin>  (77) 
autodockgpu

>  <m_score__min__energy>  (77) 
-10.279999999999999

>  <m_primary>  (77) 
energy

>  <meeko>  (77) 
{"free_energy": -10.27, "intermolecular_energy": -12.06, "internal_energy": -1.55, "cluster_size": 15, "cluster_id": 1, "rank_in_cluster": 2}

>  <energy>  (77) 
-8.38

>  <cluster_rmsd>  (77) 
0.0

>  <rmsd>  (77) 
270.01

>  <cluster>  (77) 
3

$$$$
KTDBAWTUPMOUSA-JXMROGBWNA-N
     RDKit          3D

 64 68  0  0  0  0  0  0  0  0999 V2000
  138.8512   74.0275  222.5384 H   0  0  0  0  0  0  0  0  0  0  0  0
  139.5840   73.2930  222.1730 C   0  0  0  0  0  0  0  0  0  0  0  0
  140.4810   73.6710  221.2590 C   0  0  0  0  0  0  0  0  0  0  0  0
  140.9273   72.9172  220.5937 H   0  0  0  0  0  0  0  0  0  0  0  0
  140.8830   75.0870  221.1280 C   0  0  0  0  0  0  0  0  0  0  0  0
  140.4880   75.9430  222.1070 N   0  0  0  0  0  0  0  0  0  0  0  0
  140.7950   77.2590  222.0740 C   0  0  0  0  0  0  0  0  0  0  0  0
  140.3520   78.1060  223.0960 C   0  0  0  0  0  0  0  0  0  0  0  0
  139.7659   77.6982  223.9327 H   0  0  0  0  0  0  0  0  0  0  0  0
  140.6540   79.4700  223.0540 C   0  0  0  0  0  0  0  0  0  0  0  0
  140.2974   80.1360  223.8535 H   0  0  0  0  0  0  0  0  0  0  0  0
  141.4090   79.9900  221.9970 C   0  0  0  0  0  0  0  0  0  0  0  0
  141.7910   81.7020  221.9530 Cl  0  0  0  0  0  0  0  0  0  0  0  0
  141.8570   79.1460  220.9730 C   0  0  0  0  0  0  0  0  0  0  0  0
  142.4521   79.5566  220.1439 H   0  0  0  0  0  0  0  0  0  0  0  0
  141.5470   77.7730  221.0030 C   0  0  0  0  0  0  0  0  0  0  0  0
  141.9650   76.8830  219.9980 C   0  0  0  0  0  0  0  0  0  0  0  0
  142.6460   77.3220  219.0270 O   0  0  0  0  0  0  0  0  0  0  0  0
  141.6430   75.5460  220.0690 N   0  0  0  0  0  0  0  0  0  0  0  0
  142.2010   74.6200  219.0550 C   0  0  0  0  0  0  0  0  0  0  0  0
  141.6523   73.6678  219.1020 H   0  0  0  0  0  0  0  0  0  0  0  0
  142.0930   75.0900  218.0663 H   0  0  0  0  0  0  0  0  0  0  0  0
  143.7050   74.3440  219.2950 C   0  0  0  0  0  0  0  0  0  0  0  0
  144.2104   75.3194  219.3507 H   0  0  0  0  0  0  0  0  0  0  0  0
  144.2950   73.5260  218.1210 C   0  0  0  0  0  0  0  0  0  0  0  0
  143.5308   72.8190  217.7659 H   0  0  0  0  0  0  0  0  0  0  0  0
  144.5881   74.2375  217.3350 H   0  0  0  0  0  0  0  0  0  0  0  0
  145.5540   72.7310  218.5220 C   0  0  0  0  0  0  0  0  0  0  0  0
  145.2536   71.7190  218.8311 H   0  0  0  0  0  0  0  0  0  0  0  0
  146.2278   72.6929  217.6534 H   0  0  0  0  0  0  0  0  0  0  0  0
  146.2690   73.3740  219.6290 N   0  0  0  0  0  0  0  0  0  0  0  0
  146.4960   74.3620  219.3640 H   0  0  0  0  0  0  0  0  0  0  0  0
  145.4670   73.3750  220.8660 C   0  0  0  0  0  0  0  0  0  0  0  0
  145.5869   72.3988  221.3585 H   0  0  0  0  0  0  0  0  0  0  0  0
  145.8339   74.2057  221.4867 H   0  0  0  0  0  0  0  0  0  0  0  0
  143.9590   73.6200  220.6280 C   0  0  0  0  0  0  0  0  0  0  0  0
  143.4383   72.6512  220.6126 H   0  0  0  0  0  0  0  0  0  0  0  0
  143.5818   74.2566  221.4419 H   0  0  0  0  0  0  0  0  0  0  0  0
  139.5480   71.9200  222.7060 C   0  0  0  0  0  0  0  0  0  0  0  0
  139.1040   70.8740  221.8860 C   0  0  0  0  0  0  0  0  0  0  0  0
  138.7925   71.0838  220.8521 H   0  0  0  0  0  0  0  0  0  0  0  0
  139.0550   69.5680  222.3740 C   0  0  0  0  0  0  0  0  0  0  0  0
  138.6766   68.7567  221.7348 H   0  0  0  0  0  0  0  0  0  0  0  0
  139.4860   69.2890  223.6740 C   0  0  0  0  0  0  0  0  0  0  0  0
  139.4431   68.2575  224.0538 H   0  0  0  0  0  0  0  0  0  0  0  0
  139.9740   70.3170  224.5000 C   0  0  0  0  0  0  0  0  0  0  0  0
  140.4850   70.0170  225.8160 N   0  0  0  0  0  0  0  0  0  0  0  0
  140.6530   71.0930  226.8100 C   0  0  0  0  0  0  0  0  0  0  0  0
  141.4898   71.7364  226.5006 H   0  0  0  0  0  0  0  0  0  0  0  0
  139.7138   71.6635  226.8593 H   0  0  0  0  0  0  0  0  0  0  0  0
  140.9470   70.5330  228.2110 C   0  0  0  0  0  0  0  0  0  0  0  0
  142.0034   70.2310  228.2647 H   0  0  0  0  0  0  0  0  0  0  0  0
  140.7349   71.3143  228.9557 H   0  0  0  0  0  0  0  0  0  0  0  0
  140.0610   69.3180  228.5060 C   0  0  0  0  0  0  0  0  0  0  0  0
  140.3366   68.9139  229.4913 H   0  0  0  0  0  0  0  0  0  0  0  0
  139.0154   69.6587  228.4804 H   0  0  0  0  0  0  0  0  0  0  0  0
  140.2080   68.1950  227.4540 C   0  0  0  0  0  0  0  0  0  0  0  0
  140.7978   67.3786  227.8963 H   0  0  0  0  0  0  0  0  0  0  0  0
  139.1924   67.8743  227.1789 H   0  0  0  0  0  0  0  0  0  0  0  0
  140.9020   68.6520  226.1640 C   0  0  0  0  0  0  0  0  0  0  0  0
  141.9918   68.6322  226.3118 H   0  0  0  0  0  0  0  0  0  0  0  0
  140.6199   67.9725  225.3462 H   0  0  0  0  0  0  0  0  0  0  0  0
  139.9780   71.6380  224.0160 C   0  0  0  0  0  0  0  0  0  0  0  0
  140.3198   72.4566  224.6664 H   0  0  0  0  0  0  0  0  0  0  0  0
  1  2  1  0
  2  3  2  0
  3  4  1  0
  3  5  1  0
  5  6  2  0
  6  7  1  0
  7  8  2  0
  8  9  1  0
  8 10  1  0
 10 11  1  0
 10 12  2  0
 12 13  1  0
 12 14  1  0
 14 15  1  0
 14 16  2  0
 16 17  1  0
 17 18  2  0
 17 19  1  0
 19 20  1  0
 20 21  1  0
 20 22  1  0
 20 23  1  0
 23 24  1  0
 23 25  1  0
 25 26  1  0
 25 27  1  0
 25 28  1  0
 28 29  1  0
 28 30  1  0
 28 31  1  0
 31 32  1  0
 31 33  1  0
 33 34  1  0
 33 35  1  0
 33 36  1  0
 36 37  1  0
 36 38  1  0
  2 39  1  0
 39 40  2  0
 40 41  1  0
 40 42  1  0
 42 43  1  0
 42 44  2  0
 44 45  1  0
 44 46  1  0
 46 47  1  0
 47 48  1  0
 48 49  1  0
 48 50  1  0
 48 51  1  0
 51 52  1  0
 51 53  1  0
 51 54  1  0
 54 55  1  0
 54 56  1  0
 54 57  1  0
 57 58  1  0
 57 59  1  0
 57 60  1  0
 60 61  1  0
 60 62  1  0
 46 63  2  0
 63 64  1  0
 19  5  1  0
 36 23  1  0
 63 39  1  0
 16  7  1  0
 60 47  1  0
M  END
>  <UniqueID>  (78) 
421

>  <SMILES>  (78) 
O=c1c2cc(Cl)ccc2nc(/C=C/c2cccc(N3CCCCC3)c2)n1CC1CCNCC1

>  <Energy>  (78) 
91.87130403612728

>  <Genealogy>  (78) 
O=c1c2cc(Cl)ccc2nc(/C=C/c2cccc(N3CCCCC3)c2)n1CC1CCNCC1 (cis-trans isomerization)
O=c1c2cc(Cl)ccc2nc(/C=C/c2cccc(N3CCCCC3)c2)n1CC1CCNCC1 (3D coordinates assigned)
O=c1c2cc(Cl)ccc2nc(/C=C/c2cccc(N3CCCCC3)c2)n1CC1CCNCC1 (nonaromatic ring conformer: 91.87130403612728 kcal/mol)

>  <smiles>  (78) 
O=c1c2cc(Cl)ccc2nc(/C=C/c2cccc(N3CCCCC3)c2)n1CC1CCNCC1

>  <score_type>  (78) 
oracle

>  <origin>  (78) 
autodockgpu

>  <m_score__min__energy>  (78) 
-10.279999999999999

>  <m_primary>  (78) 
energy

>  <meeko>  (78) 
{"free_energy": -10.01, "intermolecular_energy": -11.8, "internal_energy": -1.4, "cluster_size": 15, "cluster_id": 1, "rank_in_cluster": 8}

>  <energy>  (78) 
-8.25

>  <cluster_rmsd>  (78) 
0.0

>  <rmsd>  (78) 
270.25

>  <cluster>  (78) 
4

$$$$
KTDBAWTUPMOUSA-JXMROGBWNA-N
     RDKit          3D

 64 68  0  0  0  0  0  0  0  0999 V2000
  138.9711   73.3215  220.6488 H   0  0  0  0  0  0  0  0  0  0  0  0
  139.6530   73.0160  221.4560 C   0  0  0  0  0  0  0  0  0  0  0  0
  140.9030   73.4860  221.4620 C   0  0  0  0  0  0  0  0  0  0  0  0
  141.7400   72.7976  221.6506 H   0  0  0  0  0  0  0  0  0  0  0  0
  141.1780   74.9170  221.2190 C   0  0  0  0  0  0  0  0  0  0  0  0
  140.8350   75.7950  222.1970 N   0  0  0  0  0  0  0  0  0  0  0  0
  141.0350   77.1260  222.0670 C   0  0  0  0  0  0  0  0  0  0  0  0
  140.6500   77.9950  223.0940 C   0  0  0  0  0  0  0  0  0  0  0  0
  140.1972   77.5935  224.0126 H   0  0  0  0  0  0  0  0  0  0  0  0
  140.8400   79.3720  222.9540 C   0  0  0  0  0  0  0  0  0  0  0  0
  140.5296   80.0540  223.7593 H   0  0  0  0  0  0  0  0  0  0  0  0
  141.4250   79.8850  221.7900 C   0  0  0  0  0  0  0  0  0  0  0  0
  141.6670   81.6150  221.6210 Cl  0  0  0  0  0  0  0  0  0  0  0  0
  141.8140   79.0200  220.7600 C   0  0  0  0  0  0  0  0  0  0  0  0
  142.2756   79.4251  219.8474 H   0  0  0  0  0  0  0  0  0  0  0  0
  141.6150   77.6320  220.8910 C   0  0  0  0  0  0  0  0  0  0  0  0
  141.9810   76.7200  219.8850 C   0  0  0  0  0  0  0  0  0  0  0  0
  142.5080   77.1510  218.8200 O   0  0  0  0  0  0  0  0  0  0  0  0
  141.7720   75.3690  220.0570 N   0  0  0  0  0  0  0  0  0  0  0  0
  142.2770   74.4300  219.0260 C   0  0  0  0  0  0  0  0  0  0  0  0
  141.7461   73.4718  219.1259 H   0  0  0  0  0  0  0  0  0  0  0  0
  142.0989   74.8783  218.0374 H   0  0  0  0  0  0  0  0  0  0  0  0
  143.7970   74.1790  219.1750 C   0  0  0  0  0  0  0  0  0  0  0  0
  144.3121   75.0803  218.8113 H   0  0  0  0  0  0  0  0  0  0  0  0
  144.2260   72.9610  218.3220 C   0  0  0  0  0  0  0  0  0  0  0  0
  143.4170   72.2159  218.3411 H   0  0  0  0  0  0  0  0  0  0  0  0
  144.4225   73.3231  217.3021 H   0  0  0  0  0  0  0  0  0  0  0  0
  145.5190   72.2980  218.8370 C   0  0  0  0  0  0  0  0  0  0  0  0
  145.2524   71.4845  219.5278 H   0  0  0  0  0  0  0  0  0  0  0  0
  146.0759   71.9111  217.9709 H   0  0  0  0  0  0  0  0  0  0  0  0
  146.3750   73.2590  219.5410 N   0  0  0  0  0  0  0  0  0  0  0  0
  146.5740   74.0700  218.9070 H   0  0  0  0  0  0  0  0  0  0  0  0
  145.7390   73.7510  220.7750 C   0  0  0  0  0  0  0  0  0  0  0  0
  145.9127   73.0143  221.5732 H   0  0  0  0  0  0  0  0  0  0  0  0
  146.1895   74.7285  221.0021 H   0  0  0  0  0  0  0  0  0  0  0  0
  144.2150   73.9750  220.6400 C   0  0  0  0  0  0  0  0  0  0  0  0
  143.6888   73.0965  221.0416 H   0  0  0  0  0  0  0  0  0  0  0  0
  143.9513   74.8836  221.2011 H   0  0  0  0  0  0  0  0  0  0  0  0
  139.1610   72.0990  222.5010 C   0  0  0  0  0  0  0  0  0  0  0  0
  137.9250   71.4600  222.3290 C   0  0  0  0  0  0  0  0  0  0  0  0
  137.3368   71.6415  221.4174 H   0  0  0  0  0  0  0  0  0  0  0  0
  137.4380   70.5950  223.3090 C   0  0  0  0  0  0  0  0  0  0  0  0
  136.4536   70.1207  223.1829 H   0  0  0  0  0  0  0  0  0  0  0  0
  138.1990   70.3300  224.4510 C   0  0  0  0  0  0  0  0  0  0  0  0
  137.8094   69.6470  225.2202 H   0  0  0  0  0  0  0  0  0  0  0  0
  139.4590   70.9300  224.6240 C   0  0  0  0  0  0  0  0  0  0  0  0
  140.2740   70.6010  225.7690 N   0  0  0  0  0  0  0  0  0  0  0  0
  140.3980   71.5510  226.8890 C   0  0  0  0  0  0  0  0  0  0  0  0
  140.9964   72.4134  226.5600 H   0  0  0  0  0  0  0  0  0  0  0  0
  139.3860   71.8628  227.1868 H   0  0  0  0  0  0  0  0  0  0  0  0
  141.0790   70.9090  228.1090 C   0  0  0  0  0  0  0  0  0  0  0  0
  142.1648   70.8692  227.9373 H   0  0  0  0  0  0  0  0  0  0  0  0
  140.8559   71.5156  228.9991 H   0  0  0  0  0  0  0  0  0  0  0  0
  140.5530   69.4880  228.3360 C   0  0  0  0  0  0  0  0  0  0  0  0
  141.0984   69.0430  229.1813 H   0  0  0  0  0  0  0  0  0  0  0  0
  139.4745   69.5643  228.5384 H   0  0  0  0  0  0  0  0  0  0  0  0
  140.7290   68.5750  227.1000 C   0  0  0  0  0  0  0  0  0  0  0  0
  141.5580   67.8791  227.2961 H   0  0  0  0  0  0  0  0  0  0  0  0
  139.7739   68.0518  226.9448 H   0  0  0  0  0  0  0  0  0  0  0  0
  141.0370   69.3470  225.8090 C   0  0  0  0  0  0  0  0  0  0  0  0
  142.1123   69.5755  225.7709 H   0  0  0  0  0  0  0  0  0  0  0  0
  140.7518   68.7277  224.9458 H   0  0  0  0  0  0  0  0  0  0  0  0
  139.9230   71.8350  223.6530 C   0  0  0  0  0  0  0  0  0  0  0  0
  140.8896   72.3404  223.7956 H   0  0  0  0  0  0  0  0  0  0  0  0
  1  2  1  0
  2  3  2  0
  3  4  1  0
  3  5  1  0
  5  6  2  0
  6  7  1  0
  7  8  2  0
  8  9  1  0
  8 10  1  0
 10 11  1  0
 10 12  2  0
 12 13  1  0
 12 14  1  0
 14 15  1  0
 14 16  2  0
 16 17  1  0
 17 18  2  0
 17 19  1  0
 19 20  1  0
 20 21  1  0
 20 22  1  0
 20 23  1  0
 23 24  1  0
 23 25  1  0
 25 26  1  0
 25 27  1  0
 25 28  1  0
 28 29  1  0
 28 30  1  0
 28 31  1  0
 31 32  1  0
 31 33  1  0
 33 34  1  0
 33 35  1  0
 33 36  1  0
 36 37  1  0
 36 38  1  0
  2 39  1  0
 39 40  2  0
 40 41  1  0
 40 42  1  0
 42 43  1  0
 42 44  2  0
 44 45  1  0
 44 46  1  0
 46 47  1  0
 47 48  1  0
 48 49  1  0
 48 50  1  0
 48 51  1  0
 51 52  1  0
 51 53  1  0
 51 54  1  0
 54 55  1  0
 54 56  1  0
 54 57  1  0
 57 58  1  0
 57 59  1  0
 57 60  1  0
 60 61  1  0
 60 62  1  0
 46 63  2  0
 63 64  1  0
 19  5  1  0
 36 23  1  0
 63 39  1  0
 16  7  1  0
 60 47  1  0
M  END
>  <UniqueID>  (79) 
421

>  <SMILES>  (79) 
O=c1c2cc(Cl)ccc2nc(/C=C/c2cccc(N3CCCCC3)c2)n1CC1CCNCC1

>  <Energy>  (79) 
91.87130403612728

>  <Genealogy>  (79) 
O=c1c2cc(Cl)ccc2nc(/C=C/c2cccc(N3CCCCC3)c2)n1CC1CCNCC1 (cis-trans isomerization)
O=c1c2cc(Cl)ccc2nc(/C=C/c2cccc(N3CCCCC3)c2)n1CC1CCNCC1 (3D coordinates assigned)
O=c1c2cc(Cl)ccc2nc(/C=C/c2cccc(N3CCCCC3)c2)n1CC1CCNCC1 (nonaromatic ring conformer: 91.87130403612728 kcal/mol)

>  <smiles>  (79) 
O=c1c2cc(Cl)ccc2nc(/C=C/c2cccc(N3CCCCC3)c2)n1CC1CCNCC1

>  <score_type>  (79) 
oracle

>  <origin>  (79) 
autodockgpu

>  <m_score__min__energy>  (79) 
-10.279999999999999

>  <m_primary>  (79) 
energy

>  <meeko>  (79) 
{"free_energy": -10.15, "intermolecular_energy": -11.94, "internal_energy": -1.43, "cluster_size": 15, "cluster_id": 1, "rank_in_cluster": 6}

>  <energy>  (79) 
-7.97

>  <cluster_rmsd>  (79) 
0.0

>  <rmsd>  (79) 
269.61

>  <cluster>  (79) 
5

$$$$
KTDBAWTUPMOUSA-JXMROGBWNA-N
     RDKit          3D

 64 68  0  0  0  0  0  0  0  0999 V2000
  141.7106   72.8233  222.8054 H   0  0  0  0  0  0  0  0  0  0  0  0
  140.7200   72.5680  222.4010 C   0  0  0  0  0  0  0  0  0  0  0  0
  140.1600   73.3770  221.4990 C   0  0  0  0  0  0  0  0  0  0  0  0
  139.3266   73.0080  220.8831 H   0  0  0  0  0  0  0  0  0  0  0  0
  140.6440   74.7620  221.3160 C   0  0  0  0  0  0  0  0  0  0  0  0
  140.2390   75.6910  222.2200 N   0  0  0  0  0  0  0  0  0  0  0  0
  140.6170   76.9860  222.1340 C   0  0  0  0  0  0  0  0  0  0  0  0
  140.1620   77.9120  223.0790 C   0  0  0  0  0  0  0  0  0  0  0  0
  139.5078   77.5831  223.8999 H   0  0  0  0  0  0  0  0  0  0  0  0
  140.5380   79.2550  222.9810 C   0  0  0  0  0  0  0  0  0  0  0  0
  140.1722   79.9829  223.7202 H   0  0  0  0  0  0  0  0  0  0  0  0
  141.3790   79.6750  221.9440 C   0  0  0  0  0  0  0  0  0  0  0  0
  141.8530   81.3600  221.8280 Cl  0  0  0  0  0  0  0  0  0  0  0  0
  141.8400   78.7520  220.9970 C   0  0  0  0  0  0  0  0  0  0  0  0
  142.5028   79.0837  220.1841 H   0  0  0  0  0  0  0  0  0  0  0  0
  141.4560   77.3990  221.0840 C   0  0  0  0  0  0  0  0  0  0  0  0
  141.8830   76.4330  220.1560 C   0  0  0  0  0  0  0  0  0  0  0  0
  142.6410   76.7800  219.2050 O   0  0  0  0  0  0  0  0  0  0  0  0
  141.4870   75.1200  220.2810 N   0  0  0  0  0  0  0  0  0  0  0  0
  142.0530   74.1100  219.3550 C   0  0  0  0  0  0  0  0  0  0  0  0
  141.6135   73.1286  219.5868 H   0  0  0  0  0  0  0  0  0  0  0  0
  141.8139   74.4175  218.3263 H   0  0  0  0  0  0  0  0  0  0  0  0
  143.5920   74.0120  219.4820 C   0  0  0  0  0  0  0  0  0  0  0  0
  143.9866   75.0385  219.4560 H   0  0  0  0  0  0  0  0  0  0  0  0
  144.1790   73.2060  218.2980 C   0  0  0  0  0  0  0  0  0  0  0  0
  143.4744   72.4032  218.0353 H   0  0  0  0  0  0  0  0  0  0  0  0
  144.3293   73.9055  217.4625 H   0  0  0  0  0  0  0  0  0  0  0  0
  145.5460   72.5740  218.6270 C   0  0  0  0  0  0  0  0  0  0  0  0
  145.3860   71.5520  219.0010 H   0  0  0  0  0  0  0  0  0  0  0  0
  146.1513   72.5661  217.7086 H   0  0  0  0  0  0  0  0  0  0  0  0
  146.2670   73.3460  219.6450 N   0  0  0  0  0  0  0  0  0  0  0  0
  146.3600   74.3380  219.3210 H   0  0  0  0  0  0  0  0  0  0  0  0
  145.5680   73.3210  220.9420 C   0  0  0  0  0  0  0  0  0  0  0  0
  145.8345   72.3893  221.4626 H   0  0  0  0  0  0  0  0  0  0  0  0
  145.8857   74.2163  221.4964 H   0  0  0  0  0  0  0  0  0  0  0  0
  144.0280   73.3880  220.8180 C   0  0  0  0  0  0  0  0  0  0  0  0
  143.6202   72.3686  220.8853 H   0  0  0  0  0  0  0  0  0  0  0  0
  143.6454   74.0201  221.6329 H   0  0  0  0  0  0  0  0  0  0  0  0
  140.0490   71.3420  222.8710 C   0  0  0  0  0  0  0  0  0  0  0  0
  139.2470   70.6140  221.9820 C   0  0  0  0  0  0  0  0  0  0  0  0
  139.1293   70.9576  220.9437 H   0  0  0  0  0  0  0  0  0  0  0  0
  138.5970   69.4550  222.4080 C   0  0  0  0  0  0  0  0  0  0  0  0
  137.9446   68.9044  221.7143 H   0  0  0  0  0  0  0  0  0  0  0  0
  138.7740   68.9930  223.7150 C   0  0  0  0  0  0  0  0  0  0  0  0
  138.2575   68.0798  224.0455 H   0  0  0  0  0  0  0  0  0  0  0  0
  139.6070   69.6860  224.6110 C   0  0  0  0  0  0  0  0  0  0  0  0
  139.8450   69.1690  225.9380 N   0  0  0  0  0  0  0  0  0  0  0  0
  140.8510   68.1140  226.1520 C   0  0  0  0  0  0  0  0  0  0  0  0
  140.4781   67.1731  225.7212 H   0  0  0  0  0  0  0  0  0  0  0  0
  141.7858   68.4274  225.6643 H   0  0  0  0  0  0  0  0  0  0  0  0
  141.1390   67.8980  227.6470 C   0  0  0  0  0  0  0  0  0  0  0  0
  140.3256   67.3041  228.0894 H   0  0  0  0  0  0  0  0  0  0  0  0
  142.0976   67.3683  227.7497 H   0  0  0  0  0  0  0  0  0  0  0  0
  141.2370   69.2410  228.3790 C   0  0  0  0  0  0  0  0  0  0  0  0
  141.3909   69.0461  229.4506 H   0  0  0  0  0  0  0  0  0  0  0  0
  142.0784   69.7961  227.9386 H   0  0  0  0  0  0  0  0  0  0  0  0
  139.9700   70.1110  228.2130 C   0  0  0  0  0  0  0  0  0  0  0  0
  139.4034   70.0843  229.1555 H   0  0  0  0  0  0  0  0  0  0  0  0
  140.3061   71.1266  227.9569 H   0  0  0  0  0  0  0  0  0  0  0  0
  139.0490   69.6410  227.0790 C   0  0  0  0  0  0  0  0  0  0  0  0
  138.4147   68.8195  227.4435 H   0  0  0  0  0  0  0  0  0  0  0  0
  138.4228   70.4848  226.7537 H   0  0  0  0  0  0  0  0  0  0  0  0
  140.2230   70.8780  224.1870 C   0  0  0  0  0  0  0  0  0  0  0  0
  140.8452   71.4511  224.8902 H   0  0  0  0  0  0  0  0  0  0  0  0
  1  2  1  0
  2  3  2  0
  3  4  1  0
  3  5  1  0
  5  6  2  0
  6  7  1  0
  7  8  2  0
  8  9  1  0
  8 10  1  0
 10 11  1  0
 10 12  2  0
 12 13  1  0
 12 14  1  0
 14 15  1  0
 14 16  2  0
 16 17  1  0
 17 18  2  0
 17 19  1  0
 19 20  1  0
 20 21  1  0
 20 22  1  0
 20 23  1  0
 23 24  1  0
 23 25  1  0
 25 26  1  0
 25 27  1  0
 25 28  1  0
 28 29  1  0
 28 30  1  0
 28 31  1  0
 31 32  1  0
 31 33  1  0
 33 34  1  0
 33 35  1  0
 33 36  1  0
 36 37  1  0
 36 38  1  0
  2 39  1  0
 39 40  2  0
 40 41  1  0
 40 42  1  0
 42 43  1  0
 42 44  2  0
 44 45  1  0
 44 46  1  0
 46 47  1  0
 47 48  1  0
 48 49  1  0
 48 50  1  0
 48 51  1  0
 51 52  1  0
 51 53  1  0
 51 54  1  0
 54 55  1  0
 54 56  1  0
 54 57  1  0
 57 58  1  0
 57 59  1  0
 57 60  1  0
 60 61  1  0
 60 62  1  0
 46 63  2  0
 63 64  1  0
 19  5  1  0
 36 23  1  0
 63 39  1  0
 16  7  1  0
 60 47  1  0
M  END
>  <UniqueID>  (80) 
421

>  <SMILES>  (80) 
O=c1c2cc(Cl)ccc2nc(/C=C/c2cccc(N3CCCCC3)c2)n1CC1CCNCC1

>  <Energy>  (80) 
91.87130403612728

>  <Genealogy>  (80) 
O=c1c2cc(Cl)ccc2nc(/C=C/c2cccc(N3CCCCC3)c2)n1CC1CCNCC1 (cis-trans isomerization)
O=c1c2cc(Cl)ccc2nc(/C=C/c2cccc(N3CCCCC3)c2)n1CC1CCNCC1 (3D coordinates assigned)
O=c1c2cc(Cl)ccc2nc(/C=C/c2cccc(N3CCCCC3)c2)n1CC1CCNCC1 (nonaromatic ring conformer: 91.87130403612728 kcal/mol)

>  <smiles>  (80) 
O=c1c2cc(Cl)ccc2nc(/C=C/c2cccc(N3CCCCC3)c2)n1CC1CCNCC1

>  <score_type>  (80) 
oracle

>  <origin>  (80) 
autodockgpu

>  <m_score__min__energy>  (80) 
-10.279999999999999

>  <m_primary>  (80) 
energy

>  <meeko>  (80) 
{"free_energy": -9.54, "intermolecular_energy": -11.33, "internal_energy": -1.42, "cluster_size": 15, "cluster_id": 1, "rank_in_cluster": 10}

>  <energy>  (80) 
-7.66

>  <cluster_rmsd>  (80) 
0.0

>  <rmsd>  (80) 
270.04

>  <cluster>  (80) 
6

$$$$
