
     RDKit          3D

 43 46  0  0  0  0  0  0  0  0999 V2000
  140.6800   72.1060  224.2950 O   0  0  0  0  0  0  0  0  0  0  0  0
  140.0230   71.0540  224.5000 C   0  0  0  0  0  0  0  0  0  0  0  0
  140.1670   70.5380  225.7890 C   0  0  0  0  0  0  0  0  0  0  0  0
  140.9580   71.1490  226.7400 C   0  0  0  0  0  0  0  0  0  0  0  0
  141.0540   70.5840  227.9960 C   0  0  0  0  0  0  0  0  0  0  0  0
  141.8390   71.2110  228.8950 F   0  0  0  0  0  0  0  0  0  0  0  0
  140.3840   69.4260  228.3320 C   0  0  0  0  0  0  0  0  0  0  0  0
  139.5930   68.8060  227.3950 C   0  0  0  0  0  0  0  0  0  0  0  0
  139.5070   69.3840  226.1470 C   0  0  0  0  0  0  0  0  0  0  0  0
  138.7480   68.8160  225.1990 N   0  0  0  0  0  0  0  0  0  0  0  0
  138.6130   69.3250  223.9400 C   0  0  0  0  0  0  0  0  0  0  0  0
  137.7970   68.5320  223.0400 C   0  0  0  0  0  0  0  0  0  0  0  0
  136.5210   68.9020  222.8260 C   0  0  0  0  0  0  0  0  0  0  0  0
  135.6030   69.1070  223.9640 C   0  0  0  0  0  0  0  0  0  0  0  0
  135.6010   70.3120  224.6510 C   0  0  0  0  0  0  0  0  0  0  0  0
  134.7430   70.5040  225.7290 C   0  0  0  0  0  0  0  0  0  0  0  0
  133.8870   69.5170  226.1370 C   0  0  0  0  0  0  0  0  0  0  0  0
  133.9190   68.3260  225.4260 C   0  0  0  0  0  0  0  0  0  0  0  0
  134.7660   68.1680  224.3790 N   0  0  0  0  0  0  0  0  0  0  0  0
  139.2510   70.4670  223.5600 N   0  0  0  0  0  0  0  0  0  0  0  0
  139.0600   70.9960  222.2340 C   0  0  0  0  0  0  0  0  0  0  0  0
  138.6780   72.4270  222.1500 C   0  0  0  0  0  0  0  0  0  0  0  0
  139.6490   73.4230  221.9690 C   0  0  0  0  0  0  0  0  0  0  0  0
  139.3290   74.7620  221.8600 C   0  0  0  0  0  0  0  0  0  0  0  0
  140.3060   75.7040  221.6830 F   0  0  0  0  0  0  0  0  0  0  0  0
  138.0340   75.1970  221.9230 C   0  0  0  0  0  0  0  0  0  0  0  0
  137.0580   74.2480  222.1010 C   0  0  0  0  0  0  0  0  0  0  0  0
  137.3800   72.8860  222.2120 C   0  0  0  0  0  0  0  0  0  0  0  0
  136.3070   72.0870  222.4240 F   0  0  0  0  0  0  0  0  0  0  0  0
  141.5044   72.0733  226.5009 H   0  0  0  0  0  0  0  0  0  0  0  0
  140.4822   69.0022  229.3423 H   0  0  0  0  0  0  0  0  0  0  0  0
  139.0476   67.8808  227.6327 H   0  0  0  0  0  0  0  0  0  0  0  0
  138.2138   67.6444  222.5416 H   0  0  0  0  0  0  0  0  0  0  0  0
  136.1600   69.0525  221.7979 H   0  0  0  0  0  0  0  0  0  0  0  0
  136.2810   71.1195  224.3420 H   0  0  0  0  0  0  0  0  0  0  0  0
  134.7526   71.4657  226.2628 H   0  0  0  0  0  0  0  0  0  0  0  0
  133.2057   69.6612  226.9885 H   0  0  0  0  0  0  0  0  0  0  0  0
  133.2505   67.5015  225.7146 H   0  0  0  0  0  0  0  0  0  0  0  0
  140.0026   70.8670  221.6819 H   0  0  0  0  0  0  0  0  0  0  0  0
  138.2100   70.4386  221.8136 H   0  0  0  0  0  0  0  0  0  0  0  0
  140.7066   73.1259  221.9116 H   0  0  0  0  0  0  0  0  0  0  0  0
  137.7843   76.2646  221.8346 H   0  0  0  0  0  0  0  0  0  0  0  0
  136.0048   74.5604  222.1577 H   0  0  0  0  0  0  0  0  0  0  0  0
  1  2  2  0
  2  3  1  0
  3  4  2  0
  4  5  1  0
  5  6  1  0
  5  7  2  0
  7  8  1  0
  8  9  2  0
  9 10  1  0
 10 11  2  0
 11 12  1  0
 12 13  2  0
 13 14  1  0
 14 15  2  0
 15 16  1  0
 16 17  2  0
 17 18  1  0
 18 19  2  0
 11 20  1  0
 20 21  1  0
 21 22  1  0
 22 23  2  0
 23 24  1  0
 24 25  1  0
 24 26  2  0
 26 27  1  0
 27 28  2  0
 28 29  1  0
 20  2  1  0
 28 22  1  0
  9  3  1  0
 19 14  1  0
  4 30  1  0
  7 31  1  0
  8 32  1  0
 12 33  1  0
 13 34  1  0
 15 35  1  0
 16 36  1  0
 17 37  1  0
 18 38  1  0
 21 39  1  0
 21 40  1  0
 23 41  1  0
 26 42  1  0
 27 43  1  0
M  END
>  <smiles>  (1) 
O=c1c2cc(F)ccc2nc(/C=C/c2ccccn2)n1Cc1cc(F)ccc1F

>  <score_type>  (1) 
oracle

>  <origin>  (1) 
autodockgpu

>  <m_score__min__energy>  (1) 
-7.6799999999999997

>  <m_primary>  (1) 
energy

>  <meeko>  (1) 
{"free_energy": -6.78, "intermolecular_energy": -8.27, "internal_energy": -1.52, "cluster_size": 7, "cluster_id": 4, "rank_in_cluster": 6}

>  <energy>  (1) 
-7.68

>  <cluster_rmsd>  (1) 
0.0

>  <rmsd>  (1) 
271.0

>  <cluster>  (1) 
1

$$$$

     RDKit          3D

 43 46  0  0  0  0  0  0  0  0999 V2000
  139.2090   67.4000  225.0060 O   0  0  0  0  0  0  0  0  0  0  0  0
  139.3150   68.6510  224.9420 C   0  0  0  0  0  0  0  0  0  0  0  0
  139.9250   69.2260  226.0580 C   0  0  0  0  0  0  0  0  0  0  0  0
  140.3720   68.4690  227.1220 C   0  0  0  0  0  0  0  0  0  0  0  0
  140.9680   69.1030  228.1930 C   0  0  0  0  0  0  0  0  0  0  0  0
  141.3880   68.3270  229.2120 F   0  0  0  0  0  0  0  0  0  0  0  0
  141.1310   70.4720  228.2370 C   0  0  0  0  0  0  0  0  0  0  0  0
  140.6910   71.2390  227.1850 C   0  0  0  0  0  0  0  0  0  0  0  0
  140.0990   70.5890  226.1220 C   0  0  0  0  0  0  0  0  0  0  0  0
  139.6530   71.2950  225.0730 N   0  0  0  0  0  0  0  0  0  0  0  0
  139.0550   70.7270  223.9860 C   0  0  0  0  0  0  0  0  0  0  0  0
  138.5860   71.6630  222.9820 C   0  0  0  0  0  0  0  0  0  0  0  0
  139.4810   72.2210  222.1470 C   0  0  0  0  0  0  0  0  0  0  0  0
  139.5610   73.6900  222.0110 C   0  0  0  0  0  0  0  0  0  0  0  0
  138.4010   74.4440  221.9050 C   0  0  0  0  0  0  0  0  0  0  0  0
  138.4730   75.8260  221.7690 C   0  0  0  0  0  0  0  0  0  0  0  0
  139.6800   76.4720  221.7340 C   0  0  0  0  0  0  0  0  0  0  0  0
  140.8160   75.6830  221.8420 C   0  0  0  0  0  0  0  0  0  0  0  0
  140.7150   74.3380  221.9740 N   0  0  0  0  0  0  0  0  0  0  0  0
  138.8740   69.3800  223.8930 N   0  0  0  0  0  0  0  0  0  0  0  0
  138.2710   68.8090  222.7170 C   0  0  0  0  0  0  0  0  0  0  0  0
  136.8240   68.4970  222.8100 C   0  0  0  0  0  0  0  0  0  0  0  0
  136.2320   67.5560  221.9550 C   0  0  0  0  0  0  0  0  0  0  0  0
  134.8950   67.2210  222.0290 C   0  0  0  0  0  0  0  0  0  0  0  0
  134.3560   66.2960  221.1760 F   0  0  0  0  0  0  0  0  0  0  0  0
  134.0620   67.7940  222.9500 C   0  0  0  0  0  0  0  0  0  0  0  0
  134.6090   68.7220  223.8020 C   0  0  0  0  0  0  0  0  0  0  0  0
  135.9680   69.0640  223.7300 C   0  0  0  0  0  0  0  0  0  0  0  0
  136.3370   70.0220  224.6120 F   0  0  0  0  0  0  0  0  0  0  0  0
  140.2547   67.3753  227.1163 H   0  0  0  0  0  0  0  0  0  0  0  0
  141.6092   70.9459  229.1069 H   0  0  0  0  0  0  0  0  0  0  0  0
  140.8068   72.3329  227.1904 H   0  0  0  0  0  0  0  0  0  0  0  0
  137.5174   71.9121  222.9048 H   0  0  0  0  0  0  0  0  0  0  0  0
  140.1571   71.5800  221.5622 H   0  0  0  0  0  0  0  0  0  0  0  0
  137.4203   73.9464  221.9287 H   0  0  0  0  0  0  0  0  0  0  0  0
  137.5446   76.4103  221.6881 H   0  0  0  0  0  0  0  0  0  0  0  0
  139.7457   77.5647  221.6254 H   0  0  0  0  0  0  0  0  0  0  0  0
  141.8097   76.1543  221.8202 H   0  0  0  0  0  0  0  0  0  0  0  0
  138.4085   69.5209  221.8897 H   0  0  0  0  0  0  0  0  0  0  0  0
  138.7724   67.8412  222.5689 H   0  0  0  0  0  0  0  0  0  0  0  0
  136.8581   67.0654  221.1952 H   0  0  0  0  0  0  0  0  0  0  0  0
  132.9975   67.5227  223.0061 H   0  0  0  0  0  0  0  0  0  0  0  0
  133.9698   69.2062  224.5549 H   0  0  0  0  0  0  0  0  0  0  0  0
  1  2  2  0
  2  3  1  0
  3  4  2  0
  4  5  1  0
  5  6  1  0
  5  7  2  0
  7  8  1  0
  8  9  2  0
  9 10  1  0
 10 11  2  0
 11 12  1  0
 12 13  2  0
 13 14  1  0
 14 15  2  0
 15 16  1  0
 16 17  2  0
 17 18  1  0
 18 19  2  0
 11 20  1  0
 20 21  1  0
 21 22  1  0
 22 23  2  0
 23 24  1  0
 24 25  1  0
 24 26  2  0
 26 27  1  0
 27 28  2  0
 28 29  1  0
 20  2  1  0
 28 22  1  0
  9  3  1  0
 19 14  1  0
  4 30  1  0
  7 31  1  0
  8 32  1  0
 12 33  1  0
 13 34  1  0
 15 35  1  0
 16 36  1  0
 17 37  1  0
 18 38  1  0
 21 39  1  0
 21 40  1  0
 23 41  1  0
 26 42  1  0
 27 43  1  0
M  END
>  <smiles>  (2) 
O=c1c2cc(F)ccc2nc(/C=C/c2ccccn2)n1Cc1cc(F)ccc1F

>  <score_type>  (2) 
oracle

>  <origin>  (2) 
autodockgpu

>  <m_score__min__energy>  (2) 
-7.6799999999999997

>  <m_primary>  (2) 
energy

>  <meeko>  (2) 
{"free_energy": -7.27, "intermolecular_energy": -8.76, "internal_energy": -1.03, "cluster_size": 1, "cluster_id": 2, "rank_in_cluster": 1}

>  <energy>  (2) 
-7.52

>  <cluster_rmsd>  (2) 
0.5

>  <rmsd>  (2) 
270.89

>  <cluster>  (2) 
1

$$$$

     RDKit          3D

 43 46  0  0  0  0  0  0  0  0999 V2000
  139.8820   74.7910  221.9980 O   0  0  0  0  0  0  0  0  0  0  0  0
  140.4590   75.6320  221.2640 C   0  0  0  0  0  0  0  0  0  0  0  0
  141.7080   75.2170  220.7980 C   0  0  0  0  0  0  0  0  0  0  0  0
  142.2390   73.9860  221.1220 C   0  0  0  0  0  0  0  0  0  0  0  0
  143.4790   73.6400  220.6260 C   0  0  0  0  0  0  0  0  0  0  0  0
  143.9630   72.4290  220.9670 F   0  0  0  0  0  0  0  0  0  0  0  0
  144.2080   74.4870  219.8160 C   0  0  0  0  0  0  0  0  0  0  0  0
  143.6910   75.7160  219.4850 C   0  0  0  0  0  0  0  0  0  0  0  0
  142.4500   76.0450  219.9880 C   0  0  0  0  0  0  0  0  0  0  0  0
  141.9050   77.2340  219.6950 N   0  0  0  0  0  0  0  0  0  0  0  0
  140.6840   77.6350  220.1540 C   0  0  0  0  0  0  0  0  0  0  0  0
  140.2950   78.9800  219.7760 C   0  0  0  0  0  0  0  0  0  0  0  0
  141.1820   79.9790  219.9310 C   0  0  0  0  0  0  0  0  0  0  0  0
  141.6670   80.3450  221.2770 C   0  0  0  0  0  0  0  0  0  0  0  0
  142.4950   79.4800  221.9780 C   0  0  0  0  0  0  0  0  0  0  0  0
  142.9460   79.8180  223.2500 C   0  0  0  0  0  0  0  0  0  0  0  0
  142.5860   81.0010  223.8380 C   0  0  0  0  0  0  0  0  0  0  0  0
  141.7560   81.8380  223.1050 C   0  0  0  0  0  0  0  0  0  0  0  0
  141.3320   81.4820  221.8680 N   0  0  0  0  0  0  0  0  0  0  0  0
  139.9250   76.8350  220.9530 N   0  0  0  0  0  0  0  0  0  0  0  0
  138.6260   77.2730  221.3940 C   0  0  0  0  0  0  0  0  0  0  0  0
  138.6080   78.4090  222.3460 C   0  0  0  0  0  0  0  0  0  0  0  0
  137.5410   79.3200  222.3620 C   0  0  0  0  0  0  0  0  0  0  0  0
  137.4770   80.3750  223.2510 C   0  0  0  0  0  0  0  0  0  0  0  0
  136.4180   81.2410  223.2350 F   0  0  0  0  0  0  0  0  0  0  0  0
  138.4600   80.5940  224.1760 C   0  0  0  0  0  0  0  0  0  0  0  0
  139.5210   79.7220  224.1870 C   0  0  0  0  0  0  0  0  0  0  0  0
  139.5890   78.6490  223.2850 C   0  0  0  0  0  0  0  0  0  0  0  0
  140.7170   77.9090  223.4010 F   0  0  0  0  0  0  0  0  0  0  0  0
  141.6819   73.2902  221.7665 H   0  0  0  0  0  0  0  0  0  0  0  0
  145.1947   74.1805  219.4386 H   0  0  0  0  0  0  0  0  0  0  0  0
  144.2475   76.4131  218.8413 H   0  0  0  0  0  0  0  0  0  0  0  0
  139.2924   79.1795  219.3698 H   0  0  0  0  0  0  0  0  0  0  0  0
  141.5483   80.5266  219.0501 H   0  0  0  0  0  0  0  0  0  0  0  0
  142.7960   78.5233  221.5263 H   0  0  0  0  0  0  0  0  0  0  0  0
  143.6033   79.1227  223.7928 H   0  0  0  0  0  0  0  0  0  0  0  0
  142.9378   81.2751  224.8435 H   0  0  0  0  0  0  0  0  0  0  0  0
  141.4390   82.8006  223.5327 H   0  0  0  0  0  0  0  0  0  0  0  0
  138.0522   77.5714  220.5042 H   0  0  0  0  0  0  0  0  0  0  0  0
  138.1983   76.4212  221.9431 H   0  0  0  0  0  0  0  0  0  0  0  0
  136.7233   79.1888  221.6380 H   0  0  0  0  0  0  0  0  0  0  0  0
  138.4033   81.4349  224.8829 H   0  0  0  0  0  0  0  0  0  0  0  0
  140.3320   79.8672  224.9158 H   0  0  0  0  0  0  0  0  0  0  0  0
  1  2  2  0
  2  3  1  0
  3  4  2  0
  4  5  1  0
  5  6  1  0
  5  7  2  0
  7  8  1  0
  8  9  2  0
  9 10  1  0
 10 11  2  0
 11 12  1  0
 12 13  2  0
 13 14  1  0
 14 15  2  0
 15 16  1  0
 16 17  2  0
 17 18  1  0
 18 19  2  0
 11 20  1  0
 20 21  1  0
 21 22  1  0
 22 23  2  0
 23 24  1  0
 24 25  1  0
 24 26  2  0
 26 27  1  0
 27 28  2  0
 28 29  1  0
 20  2  1  0
 28 22  1  0
  9  3  1  0
 19 14  1  0
  4 30  1  0
  7 31  1  0
  8 32  1  0
 12 33  1  0
 13 34  1  0
 15 35  1  0
 16 36  1  0
 17 37  1  0
 18 38  1  0
 21 39  1  0
 21 40  1  0
 23 41  1  0
 26 42  1  0
 27 43  1  0
M  END
>  <smiles>  (3) 
O=c1c2cc(F)ccc2nc(/C=C/c2ccccn2)n1Cc1cc(F)ccc1F

>  <score_type>  (3) 
oracle

>  <origin>  (3) 
autodockgpu

>  <m_score__min__energy>  (3) 
-7.6799999999999997

>  <m_primary>  (3) 
energy

>  <meeko>  (3) 
{"free_energy": -6.36, "intermolecular_energy": -7.85, "internal_energy": -1.97, "cluster_size": 6, "cluster_id": 6, "rank_in_cluster": 5}

>  <energy>  (3) 
-6.68

>  <cluster_rmsd>  (3) 
0.96

>  <rmsd>  (3) 
270.82

>  <cluster>  (3) 
1

$$$$

     RDKit          3D

 43 46  0  0  0  0  0  0  0  0999 V2000
  139.9070   74.7850  221.9640 O   0  0  0  0  0  0  0  0  0  0  0  0
  140.4770   75.6270  221.2240 C   0  0  0  0  0  0  0  0  0  0  0  0
  141.7290   75.2190  220.7610 C   0  0  0  0  0  0  0  0  0  0  0  0
  142.2700   73.9930  221.0910 C   0  0  0  0  0  0  0  0  0  0  0  0
  143.5120   73.6540  220.5970 C   0  0  0  0  0  0  0  0  0  0  0  0
  144.0050   72.4480  220.9450 F   0  0  0  0  0  0  0  0  0  0  0  0
  144.2340   74.5020  219.7820 C   0  0  0  0  0  0  0  0  0  0  0  0
  143.7080   75.7250  219.4440 C   0  0  0  0  0  0  0  0  0  0  0  0
  142.4650   76.0480  219.9460 C   0  0  0  0  0  0  0  0  0  0  0  0
  141.9100   77.2310  219.6460 N   0  0  0  0  0  0  0  0  0  0  0  0
  140.6870   77.6240  220.1030 C   0  0  0  0  0  0  0  0  0  0  0  0
  140.2870   78.9650  219.7170 C   0  0  0  0  0  0  0  0  0  0  0  0
  141.1580   79.9760  219.8890 C   0  0  0  0  0  0  0  0  0  0  0  0
  141.6830   80.2880  221.2340 C   0  0  0  0  0  0  0  0  0  0  0  0
  141.3300   81.4740  221.8610 C   0  0  0  0  0  0  0  0  0  0  0  0
  141.8300   81.7750  223.1250 C   0  0  0  0  0  0  0  0  0  0  0  0
  142.6750   80.9160  223.7750 C   0  0  0  0  0  0  0  0  0  0  0  0
  143.0040   79.7410  223.1140 C   0  0  0  0  0  0  0  0  0  0  0  0
  142.5010   79.4750  221.8830 N   0  0  0  0  0  0  0  0  0  0  0  0
  139.9340   76.8230  220.9070 N   0  0  0  0  0  0  0  0  0  0  0  0
  138.6320   77.2540  221.3460 C   0  0  0  0  0  0  0  0  0  0  0  0
  138.6070   78.3670  222.3260 C   0  0  0  0  0  0  0  0  0  0  0  0
  137.5070   79.2340  222.4060 C   0  0  0  0  0  0  0  0  0  0  0  0
  137.4370   80.2640  223.3220 C   0  0  0  0  0  0  0  0  0  0  0  0
  136.3450   81.0880  223.3690 F   0  0  0  0  0  0  0  0  0  0  0  0
  138.4470   80.5010  224.2140 C   0  0  0  0  0  0  0  0  0  0  0  0
  139.5400   79.6710  224.1620 C   0  0  0  0  0  0  0  0  0  0  0  0
  139.6140   78.6230  223.2320 C   0  0  0  0  0  0  0  0  0  0  0  0
  140.7740   77.9260  223.2850 F   0  0  0  0  0  0  0  0  0  0  0  0
  141.7182   73.2961  221.7390 H   0  0  0  0  0  0  0  0  0  0  0  0
  145.2229   74.2008  219.4060 H   0  0  0  0  0  0  0  0  0  0  0  0
  144.2589   76.4222  218.7957 H   0  0  0  0  0  0  0  0  0  0  0  0
  139.2898   79.1512  219.2916 H   0  0  0  0  0  0  0  0  0  0  0  0
  141.4808   80.5733  219.0235 H   0  0  0  0  0  0  0  0  0  0  0  0
  140.6525   82.1793  221.3576 H   0  0  0  0  0  0  0  0  0  0  0  0
  141.5412   82.7192  223.6098 H   0  0  0  0  0  0  0  0  0  0  0  0
  143.0742   81.1463  224.7738 H   0  0  0  0  0  0  0  0  0  0  0  0
  143.6799   79.0177  223.5936 H   0  0  0  0  0  0  0  0  0  0  0  0
  138.0679   77.5758  220.4582 H   0  0  0  0  0  0  0  0  0  0  0  0
  138.1970   76.3902  221.8701 H   0  0  0  0  0  0  0  0  0  0  0  0
  136.6670   79.0871  221.7111 H   0  0  0  0  0  0  0  0  0  0  0  0
  138.3861   81.3226  224.9429 H   0  0  0  0  0  0  0  0  0  0  0  0
  140.3729   79.8308  224.8625 H   0  0  0  0  0  0  0  0  0  0  0  0
  1  2  2  0
  2  3  1  0
  3  4  2  0
  4  5  1  0
  5  6  1  0
  5  7  2  0
  7  8  1  0
  8  9  2  0
  9 10  1  0
 10 11  2  0
 11 12  1  0
 12 13  2  0
 13 14  1  0
 14 15  2  0
 15 16  1  0
 16 17  2  0
 17 18  1  0
 18 19  2  0
 11 20  1  0
 20 21  1  0
 21 22  1  0
 22 23  2  0
 23 24  1  0
 24 25  1  0
 24 26  2  0
 26 27  1  0
 27 28  2  0
 28 29  1  0
 20  2  1  0
 28 22  1  0
  9  3  1  0
 19 14  1  0
  4 30  1  0
  7 31  1  0
  8 32  1  0
 12 33  1  0
 13 34  1  0
 15 35  1  0
 16 36  1  0
 17 37  1  0
 18 38  1  0
 21 39  1  0
 21 40  1  0
 23 41  1  0
 26 42  1  0
 27 43  1  0
M  END
>  <smiles>  (4) 
O=c1c2cc(F)ccc2nc(/C=C/c2ccccn2)n1Cc1cc(F)ccc1F

>  <score_type>  (4) 
oracle

>  <origin>  (4) 
autodockgpu

>  <m_score__min__energy>  (4) 
-7.6799999999999997

>  <m_primary>  (4) 
energy

>  <meeko>  (4) 
{"free_energy": -6.35, "intermolecular_energy": -7.84, "internal_energy": -2.01, "cluster_size": 6, "cluster_id": 6, "rank_in_cluster": 6}

>  <energy>  (4) 
-7.27

>  <cluster_rmsd>  (4) 
0.0

>  <rmsd>  (4) 
270.85

>  <cluster>  (4) 
2

$$$$

     RDKit          3D

 43 46  0  0  0  0  0  0  0  0999 V2000
  142.8580   76.2610  220.0460 O   0  0  0  0  0  0  0  0  0  0  0  0
  142.4210   75.1680  220.4860 C   0  0  0  0  0  0  0  0  0  0  0  0
  143.3220   74.1080  220.3700 C   0  0  0  0  0  0  0  0  0  0  0  0
  144.5790   74.2700  219.8250 C   0  0  0  0  0  0  0  0  0  0  0  0
  145.4200   73.1790  219.7420 C   0  0  0  0  0  0  0  0  0  0  0  0
  146.6380   73.3800  219.2020 F   0  0  0  0  0  0  0  0  0  0  0  0
  145.0430   71.9270  220.1860 C   0  0  0  0  0  0  0  0  0  0  0  0
  143.7940   71.7510  220.7310 C   0  0  0  0  0  0  0  0  0  0  0  0
  142.9680   72.8520  220.8070 C   0  0  0  0  0  0  0  0  0  0  0  0
  141.7390   72.7290  221.3290 N   0  0  0  0  0  0  0  0  0  0  0  0
  140.8620   73.7690  221.4380 C   0  0  0  0  0  0  0  0  0  0  0  0
  139.5600   73.4220  221.9750 C   0  0  0  0  0  0  0  0  0  0  0  0
  139.2730   72.1260  222.1950 C   0  0  0  0  0  0  0  0  0  0  0  0
  139.6350   71.4900  223.4780 C   0  0  0  0  0  0  0  0  0  0  0  0
  138.8610   70.4560  223.9860 C   0  0  0  0  0  0  0  0  0  0  0  0
  139.1940   69.8610  225.1980 C   0  0  0  0  0  0  0  0  0  0  0  0
  140.2840   70.2770  225.9160 C   0  0  0  0  0  0  0  0  0  0  0  0
  141.0310   71.3140  225.3750 C   0  0  0  0  0  0  0  0  0  0  0  0
  140.6820   71.8740  224.1910 N   0  0  0  0  0  0  0  0  0  0  0  0
  141.1870   75.0230  221.0180 N   0  0  0  0  0  0  0  0  0  0  0  0
  140.2510   76.1060  221.1780 C   0  0  0  0  0  0  0  0  0  0  0  0
  140.8020   77.3720  221.7190 C   0  0  0  0  0  0  0  0  0  0  0  0
  141.0780   77.5130  223.0870 C   0  0  0  0  0  0  0  0  0  0  0  0
  141.6150   78.6660  223.6230 C   0  0  0  0  0  0  0  0  0  0  0  0
  141.8700   78.7630  224.9640 F   0  0  0  0  0  0  0  0  0  0  0  0
  141.9120   79.7490  222.8420 C   0  0  0  0  0  0  0  0  0  0  0  0
  141.6540   79.6460  221.4980 C   0  0  0  0  0  0  0  0  0  0  0  0
  141.1080   78.4750  220.9500 C   0  0  0  0  0  0  0  0  0  0  0  0
  140.8770   78.5510  219.6180 F   0  0  0  0  0  0  0  0  0  0  0  0
  144.9064   75.2553  219.4616 H   0  0  0  0  0  0  0  0  0  0  0  0
  145.7369   71.0775  220.1041 H   0  0  0  0  0  0  0  0  0  0  0  0
  143.4648   70.7661  221.0939 H   0  0  0  0  0  0  0  0  0  0  0  0
  138.8201   74.2047  222.1985 H   0  0  0  0  0  0  0  0  0  0  0  0
  138.7665   71.5375  221.4159 H   0  0  0  0  0  0  0  0  0  0  0  0
  137.9804   70.1057  223.4276 H   0  0  0  0  0  0  0  0  0  0  0  0
  138.5712   69.0419  225.5870 H   0  0  0  0  0  0  0  0  0  0  0  0
  140.5542   69.8114  226.8753 H   0  0  0  0  0  0  0  0  0  0  0  0
  141.9158   71.6854  225.9128 H   0  0  0  0  0  0  0  0  0  0  0  0
  139.8171   76.3234  220.1908 H   0  0  0  0  0  0  0  0  0  0  0  0
  139.5229   75.7582  221.9256 H   0  0  0  0  0  0  0  0  0  0  0  0
  140.8576   76.6709  223.7596 H   0  0  0  0  0  0  0  0  0  0  0  0
  142.3404   80.6656  223.2738 H   0  0  0  0  0  0  0  0  0  0  0  0
  141.8793   80.4968  220.8382 H   0  0  0  0  0  0  0  0  0  0  0  0
  1  2  2  0
  2  3  1  0
  3  4  2  0
  4  5  1  0
  5  6  1  0
  5  7  2  0
  7  8  1  0
  8  9  2  0
  9 10  1  0
 10 11  2  0
 11 12  1  0
 12 13  2  0
 13 14  1  0
 14 15  2  0
 15 16  1  0
 16 17  2  0
 17 18  1  0
 18 19  2  0
 11 20  1  0
 20 21  1  0
 21 22  1  0
 22 23  2  0
 23 24  1  0
 24 25  1  0
 24 26  2  0
 26 27  1  0
 27 28  2  0
 28 29  1  0
 20  2  1  0
 28 22  1  0
  9  3  1  0
 19 14  1  0
  4 30  1  0
  7 31  1  0
  8 32  1  0
 12 33  1  0
 13 34  1  0
 15 35  1  0
 16 36  1  0
 17 37  1  0
 18 38  1  0
 21 39  1  0
 21 40  1  0
 23 41  1  0
 26 42  1  0
 27 43  1  0
M  END
>  <smiles>  (5) 
O=c1c2cc(F)ccc2nc(/C=C/c2ccccn2)n1Cc1cc(F)ccc1F

>  <score_type>  (5) 
oracle

>  <origin>  (5) 
autodockgpu

>  <m_score__min__energy>  (5) 
-7.6799999999999997

>  <m_primary>  (5) 
energy

>  <meeko>  (5) 
{"free_energy": -7.01, "intermolecular_energy": -8.5, "internal_energy": -1.09, "cluster_size": 1, "cluster_id": 5, "rank_in_cluster": 1}

>  <energy>  (5) 
-7.13

>  <cluster_rmsd>  (5) 
0.0

>  <rmsd>  (5) 
271.73

>  <cluster>  (5) 
3

$$$$

     RDKit          3D

 43 46  0  0  0  0  0  0  0  0999 V2000
  139.9230   74.7300  221.9830 O   0  0  0  0  0  0  0  0  0  0  0  0
  140.4820   75.5880  221.2540 C   0  0  0  0  0  0  0  0  0  0  0  0
  141.7290   75.1930  220.7660 C   0  0  0  0  0  0  0  0  0  0  0  0
  142.2760   73.9610  221.0630 C   0  0  0  0  0  0  0  0  0  0  0  0
  143.5120   73.6340  220.5460 C   0  0  0  0  0  0  0  0  0  0  0  0
  144.0110   72.4230  220.8620 F   0  0  0  0  0  0  0  0  0  0  0  0
  144.2220   74.5010  219.7400 C   0  0  0  0  0  0  0  0  0  0  0  0
  143.6900   75.7300  219.4350 C   0  0  0  0  0  0  0  0  0  0  0  0
  142.4530   76.0400  219.9600 C   0  0  0  0  0  0  0  0  0  0  0  0
  141.8930   77.2280  219.6920 N   0  0  0  0  0  0  0  0  0  0  0  0
  140.6750   77.6100  220.1740 C   0  0  0  0  0  0  0  0  0  0  0  0
  140.2680   78.9580  219.8220 C   0  0  0  0  0  0  0  0  0  0  0  0
  141.1540   79.9600  219.9640 C   0  0  0  0  0  0  0  0  0  0  0  0
  141.6890   80.3000  221.2980 C   0  0  0  0  0  0  0  0  0  0  0  0
  141.3370   81.4960  221.9060 C   0  0  0  0  0  0  0  0  0  0  0  0
  141.8460   81.8230  223.1590 C   0  0  0  0  0  0  0  0  0  0  0  0
  142.7010   80.9800  223.8180 C   0  0  0  0  0  0  0  0  0  0  0  0
  143.0290   79.7940  223.1760 C   0  0  0  0  0  0  0  0  0  0  0  0
  142.5170   79.5030  221.9550 N   0  0  0  0  0  0  0  0  0  0  0  0
  139.9340   76.7900  220.9700 N   0  0  0  0  0  0  0  0  0  0  0  0
  138.6360   77.2100  221.4340 C   0  0  0  0  0  0  0  0  0  0  0  0
  138.6190   78.3460  222.3860 C   0  0  0  0  0  0  0  0  0  0  0  0
  137.5120   79.2040  222.4650 C   0  0  0  0  0  0  0  0  0  0  0  0
  137.4490   80.2570  223.3560 C   0  0  0  0  0  0  0  0  0  0  0  0
  136.3500   81.0710  223.4030 F   0  0  0  0  0  0  0  0  0  0  0  0
  138.4720   80.5260  224.2220 C   0  0  0  0  0  0  0  0  0  0  0  0
  139.5730   79.7060  224.1710 C   0  0  0  0  0  0  0  0  0  0  0  0
  139.6400   78.6350  223.2660 C   0  0  0  0  0  0  0  0  0  0  0  0
  140.8080   77.9510  223.3160 F   0  0  0  0  0  0  0  0  0  0  0  0
  141.7335   73.2498  221.7032 H   0  0  0  0  0  0  0  0  0  0  0  0
  145.2065   74.2098  219.3450 H   0  0  0  0  0  0  0  0  0  0  0  0
  144.2315   76.4419  218.7946 H   0  0  0  0  0  0  0  0  0  0  0  0
  139.2535   79.1565  219.4460 H   0  0  0  0  0  0  0  0  0  0  0  0
  141.4819   80.5293  219.0818 H   0  0  0  0  0  0  0  0  0  0  0  0
  140.6524   82.1891  221.3953 H   0  0  0  0  0  0  0  0  0  0  0  0
  141.5568   82.7749  223.6284 H   0  0  0  0  0  0  0  0  0  0  0  0
  143.1082   81.2309  224.8086 H   0  0  0  0  0  0  0  0  0  0  0  0
  143.7118   79.0824  223.6632 H   0  0  0  0  0  0  0  0  0  0  0  0
  138.0425   77.4999  220.5544 H   0  0  0  0  0  0  0  0  0  0  0  0
  138.2299   76.3525  221.9906 H   0  0  0  0  0  0  0  0  0  0  0  0
  136.6605   79.0311  221.7905 H   0  0  0  0  0  0  0  0  0  0  0  0
  138.4158   81.3651  224.9310 H   0  0  0  0  0  0  0  0  0  0  0  0
  140.4171   79.8919  224.8514 H   0  0  0  0  0  0  0  0  0  0  0  0
  1  2  2  0
  2  3  1  0
  3  4  2  0
  4  5  1  0
  5  6  1  0
  5  7  2  0
  7  8  1  0
  8  9  2  0
  9 10  1  0
 10 11  2  0
 11 12  1  0
 12 13  2  0
 13 14  1  0
 14 15  2  0
 15 16  1  0
 16 17  2  0
 17 18  1  0
 18 19  2  0
 11 20  1  0
 20 21  1  0
 21 22  1  0
 22 23  2  0
 23 24  1  0
 24 25  1  0
 24 26  2  0
 26 27  1  0
 27 28  2  0
 28 29  1  0
 20  2  1  0
 28 22  1  0
  9  3  1  0
 19 14  1  0
  4 30  1  0
  7 31  1  0
  8 32  1  0
 12 33  1  0
 13 34  1  0
 15 35  1  0
 16 36  1  0
 17 37  1  0
 18 38  1  0
 21 39  1  0
 21 40  1  0
 23 41  1  0
 26 42  1  0
 27 43  1  0
M  END
>  <smiles>  (6) 
O=c1c2cc(F)ccc2nc(/C=C/c2ccccn2)n1Cc1cc(F)ccc1F

>  <score_type>  (6) 
oracle

>  <origin>  (6) 
autodockgpu

>  <m_score__min__energy>  (6) 
-7.6799999999999997

>  <m_primary>  (6) 
energy

>  <meeko>  (6) 
{"free_energy": -6.42, "intermolecular_energy": -7.91, "internal_energy": -1.96, "cluster_size": 6, "cluster_id": 6, "rank_in_cluster": 3}

>  <energy>  (6) 
-7.07

>  <cluster_rmsd>  (6) 
0.61

>  <rmsd>  (6) 
271.62

>  <cluster>  (6) 
3

$$$$

     RDKit          3D

 43 46  0  0  0  0  0  0  0  0999 V2000
  140.6400   72.2550  224.2490 O   0  0  0  0  0  0  0  0  0  0  0  0
  140.0110   71.1910  224.4780 C   0  0  0  0  0  0  0  0  0  0  0  0
  140.1690   70.7070  225.7770 C   0  0  0  0  0  0  0  0  0  0  0  0
  140.9460   71.3580  226.7130 C   0  0  0  0  0  0  0  0  0  0  0  0
  141.0580   70.8230  227.9800 C   0  0  0  0  0  0  0  0  0  0  0  0
  141.8270   71.4890  228.8640 F   0  0  0  0  0  0  0  0  0  0  0  0
  140.4180   69.6560  228.3430 C   0  0  0  0  0  0  0  0  0  0  0  0
  139.6410   68.9970  227.4210 C   0  0  0  0  0  0  0  0  0  0  0  0
  139.5390   69.5450  226.1600 C   0  0  0  0  0  0  0  0  0  0  0  0
  138.7940   68.9380  225.2260 N   0  0  0  0  0  0  0  0  0  0  0  0
  138.6440   69.4160  223.9570 C   0  0  0  0  0  0  0  0  0  0  0  0
  137.8470   68.5830  223.0760 C   0  0  0  0  0  0  0  0  0  0  0  0
  136.5640   68.9210  222.8500 C   0  0  0  0  0  0  0  0  0  0  0  0
  135.7020   69.3650  223.9640 C   0  0  0  0  0  0  0  0  0  0  0  0
  135.6030   70.7140  224.2740 C   0  0  0  0  0  0  0  0  0  0  0  0
  134.7990   71.1340  225.3280 C   0  0  0  0  0  0  0  0  0  0  0  0
  134.0910   70.2350  226.0810 C   0  0  0  0  0  0  0  0  0  0  0  0
  134.2180   68.8960  225.7400 C   0  0  0  0  0  0  0  0  0  0  0  0
  135.0090   68.5160  224.7070 N   0  0  0  0  0  0  0  0  0  0  0  0
  139.2520   70.5650  223.5510 N   0  0  0  0  0  0  0  0  0  0  0  0
  139.0470   71.0600  222.2140 C   0  0  0  0  0  0  0  0  0  0  0  0
  138.6630   72.4880  222.0980 C   0  0  0  0  0  0  0  0  0  0  0  0
  137.3380   72.8980  222.3070 C   0  0  0  0  0  0  0  0  0  0  0  0
  136.9480   74.2200  222.2320 C   0  0  0  0  0  0  0  0  0  0  0  0
  135.6440   74.5790  222.4430 F   0  0  0  0  0  0  0  0  0  0  0  0
  137.8410   75.2160  221.9480 C   0  0  0  0  0  0  0  0  0  0  0  0
  139.1470   74.8500  221.7370 C   0  0  0  0  0  0  0  0  0  0  0  0
  139.5470   73.5060  221.8120 C   0  0  0  0  0  0  0  0  0  0  0  0
  140.8580   73.3110  221.5390 F   0  0  0  0  0  0  0  0  0  0  0  0
  141.4687   72.2903  226.4529 H   0  0  0  0  0  0  0  0  0  0  0  0
  140.5288   69.2565  229.3619 H   0  0  0  0  0  0  0  0  0  0  0  0
  139.1184   68.0644  227.6801 H   0  0  0  0  0  0  0  0  0  0  0  0
  138.2833   67.6917  222.6015 H   0  0  0  0  0  0  0  0  0  0  0  0
  136.1553   68.8663  221.8302 H   0  0  0  0  0  0  0  0  0  0  0  0
  136.1629   71.4542  223.6835 H   0  0  0  0  0  0  0  0  0  0  0  0
  134.7303   72.2068  225.5611 H   0  0  0  0  0  0  0  0  0  0  0  0
  133.4524   70.5591  226.9160 H   0  0  0  0  0  0  0  0  0  0  0  0
  133.6706   68.1343  226.3145 H   0  0  0  0  0  0  0  0  0  0  0  0
  139.9840   70.9176  221.6557 H   0  0  0  0  0  0  0  0  0  0  0  0
  138.1933   70.4915  221.8164 H   0  0  0  0  0  0  0  0  0  0  0  0
  136.5797   72.1359  222.5399 H   0  0  0  0  0  0  0  0  0  0  0  0
  137.5254   76.2682  221.8909 H   0  0  0  0  0  0  0  0  0  0  0  0
  139.8939   75.6235  221.5049 H   0  0  0  0  0  0  0  0  0  0  0  0
  1  2  2  0
  2  3  1  0
  3  4  2  0
  4  5  1  0
  5  6  1  0
  5  7  2  0
  7  8  1  0
  8  9  2  0
  9 10  1  0
 10 11  2  0
 11 12  1  0
 12 13  2  0
 13 14  1  0
 14 15  2  0
 15 16  1  0
 16 17  2  0
 17 18  1  0
 18 19  2  0
 11 20  1  0
 20 21  1  0
 21 22  1  0
 22 23  2  0
 23 24  1  0
 24 25  1  0
 24 26  2  0
 26 27  1  0
 27 28  2  0
 28 29  1  0
 20  2  1  0
 28 22  1  0
  9  3  1  0
 19 14  1  0
  4 30  1  0
  7 31  1  0
  8 32  1  0
 12 33  1  0
 13 34  1  0
 15 35  1  0
 16 36  1  0
 17 37  1  0
 18 38  1  0
 21 39  1  0
 21 40  1  0
 23 41  1  0
 26 42  1  0
 27 43  1  0
M  END
>  <smiles>  (7) 
O=c1c2cc(F)ccc2nc(/C=C/c2ccccn2)n1Cc1cc(F)ccc1F

>  <score_type>  (7) 
oracle

>  <origin>  (7) 
autodockgpu

>  <m_score__min__energy>  (7) 
-7.6799999999999997

>  <m_primary>  (7) 
energy

>  <meeko>  (7) 
{"free_energy": -6.7, "intermolecular_energy": -8.19, "internal_energy": -1.6, "cluster_size": 7, "cluster_id": 4, "rank_in_cluster": 7}

>  <energy>  (7) 
-7.04

>  <cluster_rmsd>  (7) 
0.0

>  <rmsd>  (7) 
271.21

>  <cluster>  (7) 
4

$$$$

     RDKit          3D

 43 46  0  0  0  0  0  0  0  0999 V2000
  138.9110   67.4080  225.0000 O   0  0  0  0  0  0  0  0  0  0  0  0
  139.2630   68.6140  224.9650 C   0  0  0  0  0  0  0  0  0  0  0  0
  139.9450   69.0390  226.1070 C   0  0  0  0  0  0  0  0  0  0  0  0
  140.2050   68.1920  227.1640 C   0  0  0  0  0  0  0  0  0  0  0  0
  140.8850   68.6780  228.2610 C   0  0  0  0  0  0  0  0  0  0  0  0
  141.1180   67.8180  229.2730 F   0  0  0  0  0  0  0  0  0  0  0  0
  141.3140   69.9870  228.3370 C   0  0  0  0  0  0  0  0  0  0  0  0
  141.0630   70.8430  227.2920 C   0  0  0  0  0  0  0  0  0  0  0  0
  140.3830   70.3400  226.2030 C   0  0  0  0  0  0  0  0  0  0  0  0
  140.1120   71.1360  225.1590 N   0  0  0  0  0  0  0  0  0  0  0  0
  139.4440   70.7150  224.0460 C   0  0  0  0  0  0  0  0  0  0  0  0
  139.1950   71.7420  223.0520 C   0  0  0  0  0  0  0  0  0  0  0  0
  140.0590   71.8770  222.0300 C   0  0  0  0  0  0  0  0  0  0  0  0
  140.5470   73.2150  221.6370 C   0  0  0  0  0  0  0  0  0  0  0  0
  141.6870   73.3390  220.8550 C   0  0  0  0  0  0  0  0  0  0  0  0
  142.1530   74.5980  220.4910 C   0  0  0  0  0  0  0  0  0  0  0  0
  141.5070   75.7370  220.8920 C   0  0  0  0  0  0  0  0  0  0  0  0
  140.3720   75.5700  221.6730 C   0  0  0  0  0  0  0  0  0  0  0  0
  139.9400   74.3300  222.0120 N   0  0  0  0  0  0  0  0  0  0  0  0
  139.0030   69.4330  223.9220 N   0  0  0  0  0  0  0  0  0  0  0  0
  138.3300   69.0110  222.7200 C   0  0  0  0  0  0  0  0  0  0  0  0
  139.1150   68.1580  221.7960 C   0  0  0  0  0  0  0  0  0  0  0  0
  139.9460   68.7260  220.8190 C   0  0  0  0  0  0  0  0  0  0  0  0
  140.7110   67.9650  219.9580 C   0  0  0  0  0  0  0  0  0  0  0  0
  141.5100   68.5580  219.0190 F   0  0  0  0  0  0  0  0  0  0  0  0
  140.7030   66.5980  220.0100 C   0  0  0  0  0  0  0  0  0  0  0  0
  139.8990   66.0080  220.9550 C   0  0  0  0  0  0  0  0  0  0  0  0
  139.1200   66.7800  221.8310 C   0  0  0  0  0  0  0  0  0  0  0  0
  138.3550   66.0450  222.6720 F   0  0  0  0  0  0  0  0  0  0  0  0
  139.8745   67.1433  227.1325 H   0  0  0  0  0  0  0  0  0  0  0  0
  141.8529   70.3427  229.2275 H   0  0  0  0  0  0  0  0  0  0  0  0
  141.3927   71.8920  227.3230 H   0  0  0  0  0  0  0  0  0  0  0  0
  138.3158   72.3982  223.1326 H   0  0  0  0  0  0  0  0  0  0  0  0
  140.4041   70.9866  221.4840 H   0  0  0  0  0  0  0  0  0  0  0  0
  142.2238   72.4385  220.5220 H   0  0  0  0  0  0  0  0  0  0  0  0
  143.0570   74.6803  219.8697 H   0  0  0  0  0  0  0  0  0  0  0  0
  141.8702   76.7359  220.6088 H   0  0  0  0  0  0  0  0  0  0  0  0
  139.8165   76.4534  222.0210 H   0  0  0  0  0  0  0  0  0  0  0  0
  137.4336   68.4472  223.0175 H   0  0  0  0  0  0  0  0  0  0  0  0
  138.1190   69.9345  222.1608 H   0  0  0  0  0  0  0  0  0  0  0  0
  139.9898   69.8220  220.7356 H   0  0  0  0  0  0  0  0  0  0  0  0
  141.3155   65.9956  219.3230 H   0  0  0  0  0  0  0  0  0  0  0  0
  139.8652   64.9108  221.0264 H   0  0  0  0  0  0  0  0  0  0  0  0
  1  2  2  0
  2  3  1  0
  3  4  2  0
  4  5  1  0
  5  6  1  0
  5  7  2  0
  7  8  1  0
  8  9  2  0
  9 10  1  0
 10 11  2  0
 11 12  1  0
 12 13  2  0
 13 14  1  0
 14 15  2  0
 15 16  1  0
 16 17  2  0
 17 18  1  0
 18 19  2  0
 11 20  1  0
 20 21  1  0
 21 22  1  0
 22 23  2  0
 23 24  1  0
 24 25  1  0
 24 26  2  0
 26 27  1  0
 27 28  2  0
 28 29  1  0
 20  2  1  0
 28 22  1  0
  9  3  1  0
 19 14  1  0
  4 30  1  0
  7 31  1  0
  8 32  1  0
 12 33  1  0
 13 34  1  0
 15 35  1  0
 16 36  1  0
 17 37  1  0
 18 38  1  0
 21 39  1  0
 21 40  1  0
 23 41  1  0
 26 42  1  0
 27 43  1  0
M  END
>  <smiles>  (8) 
O=c1c2cc(F)ccc2nc(/C=C/c2ccccn2)n1Cc1cc(F)ccc1F

>  <score_type>  (8) 
oracle

>  <origin>  (8) 
autodockgpu

>  <m_score__min__energy>  (8) 
-7.6799999999999997

>  <m_primary>  (8) 
energy

>  <meeko>  (8) 
{"free_energy": -7.68, "intermolecular_energy": -9.17, "internal_energy": -1.07, "cluster_size": 3, "cluster_id": 1, "rank_in_cluster": 1}

>  <energy>  (8) 
-7.03

>  <cluster_rmsd>  (8) 
0.78

>  <rmsd>  (8) 
271.11

>  <cluster>  (8) 
4

$$$$

     RDKit          3D

 43 46  0  0  0  0  0  0  0  0999 V2000
  141.6290   71.0870  221.0330 O   0  0  0  0  0  0  0  0  0  0  0  0
  141.8500   72.3240  220.9920 C   0  0  0  0  0  0  0  0  0  0  0  0
  143.1400   72.6560  220.5760 C   0  0  0  0  0  0  0  0  0  0  0  0
  144.0720   71.6960  220.2370 C   0  0  0  0  0  0  0  0  0  0  0  0
  145.3290   72.0950  219.8330 C   0  0  0  0  0  0  0  0  0  0  0  0
  146.2100   71.1260  219.5120 F   0  0  0  0  0  0  0  0  0  0  0  0
  145.6870   73.4260  219.7570 C   0  0  0  0  0  0  0  0  0  0  0  0
  144.7700   74.3930  220.0910 C   0  0  0  0  0  0  0  0  0  0  0  0
  143.5180   73.9760  220.4920 C   0  0  0  0  0  0  0  0  0  0  0  0
  142.5890   74.8820  220.8300 N   0  0  0  0  0  0  0  0  0  0  0  0
  141.3300   74.5510  221.2370 C   0  0  0  0  0  0  0  0  0  0  0  0
  140.4910   75.6720  221.6170 C   0  0  0  0  0  0  0  0  0  0  0  0
  140.6870   76.8610  221.0180 C   0  0  0  0  0  0  0  0  0  0  0  0
  141.2470   77.9960  221.7780 C   0  0  0  0  0  0  0  0  0  0  0  0
  141.3050   77.9470  223.1640 C   0  0  0  0  0  0  0  0  0  0  0  0
  141.8240   79.0180  223.8830 C   0  0  0  0  0  0  0  0  0  0  0  0
  142.2860   80.1400  223.2480 C   0  0  0  0  0  0  0  0  0  0  0  0
  142.2100   80.1520  221.8620 C   0  0  0  0  0  0  0  0  0  0  0  0
  141.6990   79.0920  221.1880 N   0  0  0  0  0  0  0  0  0  0  0  0
  140.9270   73.2530  221.3250 N   0  0  0  0  0  0  0  0  0  0  0  0
  139.5800   72.9380  221.7260 C   0  0  0  0  0  0  0  0  0  0  0  0
  139.4390   71.9680  222.8390 C   0  0  0  0  0  0  0  0  0  0  0  0
  140.4060   71.8860  223.8510 C   0  0  0  0  0  0  0  0  0  0  0  0
  140.2960   71.0140  224.9160 C   0  0  0  0  0  0  0  0  0  0  0  0
  141.2620   70.9650  225.8840 F   0  0  0  0  0  0  0  0  0  0  0  0
  139.2260   70.1720  225.0460 C   0  0  0  0  0  0  0  0  0  0  0  0
  138.2610   70.2250  224.0710 C   0  0  0  0  0  0  0  0  0  0  0  0
  138.3700   71.1100  222.9870 C   0  0  0  0  0  0  0  0  0  0  0  0
  137.3560   71.0090  222.0960 F   0  0  0  0  0  0  0  0  0  0  0  0
  143.8158   70.6275  220.2883 H   0  0  0  0  0  0  0  0  0  0  0  0
  146.6986   73.7102  219.4316 H   0  0  0  0  0  0  0  0  0  0  0  0
  145.0253   75.4618  220.0404 H   0  0  0  0  0  0  0  0  0  0  0  0
  139.7087   75.5522  222.3810 H   0  0  0  0  0  0  0  0  0  0  0  0
  140.4285   76.9879  219.9564 H   0  0  0  0  0  0  0  0  0  0  0  0
  140.9386   77.0567  223.6961 H   0  0  0  0  0  0  0  0  0  0  0  0
  141.8642   78.9631  224.9809 H   0  0  0  0  0  0  0  0  0  0  0  0
  142.6978   80.9914  223.8097 H   0  0  0  0  0  0  0  0  0  0  0  0
  142.5679   81.0303  221.3047 H   0  0  0  0  0  0  0  0  0  0  0  0
  139.0934   73.8753  222.0338 H   0  0  0  0  0  0  0  0  0  0  0  0
  139.1180   72.4540  220.8529 H   0  0  0  0  0  0  0  0  0  0  0  0
  141.2870   72.5422  223.7943 H   0  0  0  0  0  0  0  0  0  0  0  0
  139.1421   69.4804  225.8973 H   0  0  0  0  0  0  0  0  0  0  0  0
  137.3863   69.5617  224.1406 H   0  0  0  0  0  0  0  0  0  0  0  0
  1  2  2  0
  2  3  1  0
  3  4  2  0
  4  5  1  0
  5  6  1  0
  5  7  2  0
  7  8  1  0
  8  9  2  0
  9 10  1  0
 10 11  2  0
 11 12  1  0
 12 13  2  0
 13 14  1  0
 14 15  2  0
 15 16  1  0
 16 17  2  0
 17 18  1  0
 18 19  2  0
 11 20  1  0
 20 21  1  0
 21 22  1  0
 22 23  2  0
 23 24  1  0
 24 25  1  0
 24 26  2  0
 26 27  1  0
 27 28  2  0
 28 29  1  0
 20  2  1  0
 28 22  1  0
  9  3  1  0
 19 14  1  0
  4 30  1  0
  7 31  1  0
  8 32  1  0
 12 33  1  0
 13 34  1  0
 15 35  1  0
 16 36  1  0
 17 37  1  0
 18 38  1  0
 21 39  1  0
 21 40  1  0
 23 41  1  0
 26 42  1  0
 27 43  1  0
M  END
>  <smiles>  (9) 
O=c1c2cc(F)ccc2nc(/C=C/c2ccccn2)n1Cc1cc(F)ccc1F

>  <score_type>  (9) 
oracle

>  <origin>  (9) 
autodockgpu

>  <m_score__min__energy>  (9) 
-7.6799999999999997

>  <m_primary>  (9) 
energy

>  <meeko>  (9) 
{"free_energy": -7.07, "intermolecular_energy": -8.57, "internal_energy": -1.0, "cluster_size": 2, "cluster_id": 3, "rank_in_cluster": 2}

>  <energy>  (9) 
-6.96

>  <cluster_rmsd>  (9) 
0.77

>  <rmsd>  (9) 
271.12

>  <cluster>  (9) 
4

$$$$

     RDKit          3D

 43 46  0  0  0  0  0  0  0  0999 V2000
  140.2510   71.8800  224.8550 O   0  0  0  0  0  0  0  0  0  0  0  0
  139.7340   70.7370  224.7800 C   0  0  0  0  0  0  0  0  0  0  0  0
  140.0220   69.9110  225.8680 C   0  0  0  0  0  0  0  0  0  0  0  0
  140.7990   70.3360  226.9260 C   0  0  0  0  0  0  0  0  0  0  0  0
  141.0430   69.4680  227.9700 C   0  0  0  0  0  0  0  0  0  0  0  0
  141.8090   69.9220  228.9820 F   0  0  0  0  0  0  0  0  0  0  0  0
  140.5340   68.1850  227.9920 C   0  0  0  0  0  0  0  0  0  0  0  0
  139.7580   67.7490  226.9450 C   0  0  0  0  0  0  0  0  0  0  0  0
  139.5240   68.6290  225.9110 C   0  0  0  0  0  0  0  0  0  0  0  0
  138.7730   68.2490  224.8670 N   0  0  0  0  0  0  0  0  0  0  0  0
  138.4970   69.0600  223.8050 C   0  0  0  0  0  0  0  0  0  0  0  0
  137.7190   68.4440  222.7470 C   0  0  0  0  0  0  0  0  0  0  0  0
  136.4180   68.7670  222.6270 C   0  0  0  0  0  0  0  0  0  0  0  0
  135.5930   68.9990  223.8300 C   0  0  0  0  0  0  0  0  0  0  0  0
  135.7500   70.1620  224.5690 C   0  0  0  0  0  0  0  0  0  0  0  0
  134.9800   70.3800  225.7080 C   0  0  0  0  0  0  0  0  0  0  0  0
  134.0580   69.4580  226.1250 C   0  0  0  0  0  0  0  0  0  0  0  0
  133.9310   68.3070  225.3600 C   0  0  0  0  0  0  0  0  0  0  0  0
  134.6950   68.1230  224.2550 N   0  0  0  0  0  0  0  0  0  0  0  0
  138.9730   70.3340  223.7380 N   0  0  0  0  0  0  0  0  0  0  0  0
  138.6350   71.1760  222.6200 C   0  0  0  0  0  0  0  0  0  0  0  0
  139.7620   71.8950  221.9780 C   0  0  0  0  0  0  0  0  0  0  0  0
  139.9280   73.2770  222.1490 C   0  0  0  0  0  0  0  0  0  0  0  0
  140.9790   73.9750  221.5890 C   0  0  0  0  0  0  0  0  0  0  0  0
  141.1050   75.3240  221.7800 F   0  0  0  0  0  0  0  0  0  0  0  0
  141.9290   73.3520  220.8270 C   0  0  0  0  0  0  0  0  0  0  0  0
  141.7970   71.9980  220.6390 C   0  0  0  0  0  0  0  0  0  0  0  0
  140.7290   71.2860  221.2070 C   0  0  0  0  0  0  0  0  0  0  0  0
  140.7230   69.9690  220.8910 F   0  0  0  0  0  0  0  0  0  0  0  0
  141.2181   71.3530  226.9368 H   0  0  0  0  0  0  0  0  0  0  0  0
  140.7476   67.5177  228.8400 H   0  0  0  0  0  0  0  0  0  0  0  0
  139.3381   66.7324  226.9329 H   0  0  0  0  0  0  0  0  0  0  0  0
  138.1839   67.7260  222.0554 H   0  0  0  0  0  0  0  0  0  0  0  0
  135.9668   68.8587  221.6280 H   0  0  0  0  0  0  0  0  0  0  0  0
  136.4865   70.9158  224.2536 H   0  0  0  0  0  0  0  0  0  0  0  0
  135.1146   71.3084  226.2824 H   0  0  0  0  0  0  0  0  0  0  0  0
  133.4463   69.6218  227.0245 H   0  0  0  0  0  0  0  0  0  0  0  0
  133.2031   67.5361  225.6531 H   0  0  0  0  0  0  0  0  0  0  0  0
  138.1608   70.5437  221.8549 H   0  0  0  0  0  0  0  0  0  0  0  0
  137.9803   71.9597  223.0288 H   0  0  0  0  0  0  0  0  0  0  0  0
  139.1914   73.8266  222.7534 H   0  0  0  0  0  0  0  0  0  0  0  0
  142.7647   73.9127  220.3829 H   0  0  0  0  0  0  0  0  0  0  0  0
  142.5417   71.4618  220.0324 H   0  0  0  0  0  0  0  0  0  0  0  0
  1  2  2  0
  2  3  1  0
  3  4  2  0
  4  5  1  0
  5  6  1  0
  5  7  2  0
  7  8  1  0
  8  9  2  0
  9 10  1  0
 10 11  2  0
 11 12  1  0
 12 13  2  0
 13 14  1  0
 14 15  2  0
 15 16  1  0
 16 17  2  0
 17 18  1  0
 18 19  2  0
 11 20  1  0
 20 21  1  0
 21 22  1  0
 22 23  2  0
 23 24  1  0
 24 25  1  0
 24 26  2  0
 26 27  1  0
 27 28  2  0
 28 29  1  0
 20  2  1  0
 28 22  1  0
  9  3  1  0
 19 14  1  0
  4 30  1  0
  7 31  1  0
  8 32  1  0
 12 33  1  0
 13 34  1  0
 15 35  1  0
 16 36  1  0
 17 37  1  0
 18 38  1  0
 21 39  1  0
 21 40  1  0
 23 41  1  0
 26 42  1  0
 27 43  1  0
M  END
>  <smiles>  (10) 
O=c1c2cc(F)ccc2nc(/C=C/c2ccccn2)n1Cc1cc(F)ccc1F

>  <score_type>  (10) 
oracle

>  <origin>  (10) 
autodockgpu

>  <m_score__min__energy>  (10) 
-7.6799999999999997

>  <m_primary>  (10) 
energy

>  <meeko>  (10) 
{"free_energy": -7.03, "intermolecular_energy": -8.53, "internal_energy": -1.35, "cluster_size": 7, "cluster_id": 4, "rank_in_cluster": 2}

>  <energy>  (10) 
-6.87

>  <cluster_rmsd>  (10) 
0.81

>  <rmsd>  (10) 
271.07

>  <cluster>  (10) 
4

$$$$

     RDKit          3D

 43 46  0  0  0  0  0  0  0  0999 V2000
  139.9590   74.2590  221.8990 O   0  0  0  0  0  0  0  0  0  0  0  0
  140.6130   75.1070  221.2410 C   0  0  0  0  0  0  0  0  0  0  0  0
  141.8810   74.6700  220.8550 C   0  0  0  0  0  0  0  0  0  0  0  0
  142.3510   73.4110  221.1720 C   0  0  0  0  0  0  0  0  0  0  0  0
  143.6150   73.0440  220.7570 C   0  0  0  0  0  0  0  0  0  0  0  0
  144.0370   71.8070  221.0890 F   0  0  0  0  0  0  0  0  0  0  0  0
  144.4270   73.8950  220.0350 C   0  0  0  0  0  0  0  0  0  0  0  0
  143.9720   75.1510  219.7120 C   0  0  0  0  0  0  0  0  0  0  0  0
  142.7070   75.5010  220.1330 C   0  0  0  0  0  0  0  0  0  0  0  0
  142.2200   76.7160  219.8440 N   0  0  0  0  0  0  0  0  0  0  0  0
  140.9790   77.1380  220.2250 C   0  0  0  0  0  0  0  0  0  0  0  0
  140.6590   78.5080  219.8690 C   0  0  0  0  0  0  0  0  0  0  0  0
  141.6110   79.4500  219.9910 C   0  0  0  0  0  0  0  0  0  0  0  0
  141.8130   80.1440  221.2790 C   0  0  0  0  0  0  0  0  0  0  0  0
  142.5950   79.5650  222.2680 C   0  0  0  0  0  0  0  0  0  0  0  0
  142.7800   80.2130  223.4850 C   0  0  0  0  0  0  0  0  0  0  0  0
  142.1990   81.4270  223.7360 C   0  0  0  0  0  0  0  0  0  0  0  0
  141.4240   81.9720  222.7230 C   0  0  0  0  0  0  0  0  0  0  0  0
  141.2620   81.3180  221.5470 N   0  0  0  0  0  0  0  0  0  0  0  0
  140.1400   76.3350  220.9360 N   0  0  0  0  0  0  0  0  0  0  0  0
  138.8240   76.7990  221.2940 C   0  0  0  0  0  0  0  0  0  0  0  0
  138.7680   77.9720  222.1990 C   0  0  0  0  0  0  0  0  0  0  0  0
  137.6570   78.8280  222.2030 C   0  0  0  0  0  0  0  0  0  0  0  0
  137.5580   79.9150  223.0490 C   0  0  0  0  0  0  0  0  0  0  0  0
  136.4560   80.7250  223.0230 F   0  0  0  0  0  0  0  0  0  0  0  0
  138.5480   80.2220  223.9410 C   0  0  0  0  0  0  0  0  0  0  0  0
  139.6520   79.4050  223.9620 C   0  0  0  0  0  0  0  0  0  0  0  0
  139.7560   78.3000  223.1030 C   0  0  0  0  0  0  0  0  0  0  0  0
  140.9220   77.6240  223.2230 F   0  0  0  0  0  0  0  0  0  0  0  0
  141.7271   72.7108  221.7469 H   0  0  0  0  0  0  0  0  0  0  0  0
  145.4300   73.5707  219.7207 H   0  0  0  0  0  0  0  0  0  0  0  0
  144.5954   75.8522  219.1378 H   0  0  0  0  0  0  0  0  0  0  0  0
  139.6548   78.7715  219.5055 H   0  0  0  0  0  0  0  0  0  0  0  0
  142.2424   79.7049  219.1271 H   0  0  0  0  0  0  0  0  0  0  0  0
  143.0707   78.5895  222.0891 H   0  0  0  0  0  0  0  0  0  0  0  0
  143.4038   79.7419  224.2589 H   0  0  0  0  0  0  0  0  0  0  0  0
  142.3402   81.9457  224.6957 H   0  0  0  0  0  0  0  0  0  0  0  0
  140.9355   82.9457  222.8758 H   0  0  0  0  0  0  0  0  0  0  0  0
  138.2980   77.0659  220.3655 H   0  0  0  0  0  0  0  0  0  0  0  0
  138.3623   75.9724  221.8540 H   0  0  0  0  0  0  0  0  0  0  0  0
  136.8317   78.6255  221.5045 H   0  0  0  0  0  0  0  0  0  0  0  0
  138.4637   81.0879  224.6142 H   0  0  0  0  0  0  0  0  0  0  0  0
  140.4699   79.6208  224.6652 H   0  0  0  0  0  0  0  0  0  0  0  0
  1  2  2  0
  2  3  1  0
  3  4  2  0
  4  5  1  0
  5  6  1  0
  5  7  2  0
  7  8  1  0
  8  9  2  0
  9 10  1  0
 10 11  2  0
 11 12  1  0
 12 13  2  0
 13 14  1  0
 14 15  2  0
 15 16  1  0
 16 17  2  0
 17 18  1  0
 18 19  2  0
 11 20  1  0
 20 21  1  0
 21 22  1  0
 22 23  2  0
 23 24  1  0
 24 25  1  0
 24 26  2  0
 26 27  1  0
 27 28  2  0
 28 29  1  0
 20  2  1  0
 28 22  1  0
  9  3  1  0
 19 14  1  0
  4 30  1  0
  7 31  1  0
  8 32  1  0
 12 33  1  0
 13 34  1  0
 15 35  1  0
 16 36  1  0
 17 37  1  0
 18 38  1  0
 21 39  1  0
 21 40  1  0
 23 41  1  0
 26 42  1  0
 27 43  1  0
M  END
>  <smiles>  (11) 
O=c1c2cc(F)ccc2nc(/C=C/c2ccccn2)n1Cc1cc(F)ccc1F

>  <score_type>  (11) 
oracle

>  <origin>  (11) 
autodockgpu

>  <m_score__min__energy>  (11) 
-7.6799999999999997

>  <m_primary>  (11) 
energy

>  <meeko>  (11) 
{"free_energy": -6.64, "intermolecular_energy": -8.13, "internal_energy": -1.74, "cluster_size": 6, "cluster_id": 6, "rank_in_cluster": 1}

>  <energy>  (11) 
-6.79

>  <cluster_rmsd>  (11) 
1.28

>  <rmsd>  (11) 
271.11

>  <cluster>  (11) 
4

$$$$

     RDKit          3D

 43 46  0  0  0  0  0  0  0  0999 V2000
  140.6590   72.1370  224.2990 O   0  0  0  0  0  0  0  0  0  0  0  0
  140.0290   71.0680  224.4980 C   0  0  0  0  0  0  0  0  0  0  0  0
  140.1820   70.5500  225.7850 C   0  0  0  0  0  0  0  0  0  0  0  0
  140.9560   71.1760  226.7400 C   0  0  0  0  0  0  0  0  0  0  0  0
  141.0640   70.6080  227.9930 C   0  0  0  0  0  0  0  0  0  0  0  0
  141.8310   71.2500  228.8960 F   0  0  0  0  0  0  0  0  0  0  0  0
  140.4220   69.4320  228.3230 C   0  0  0  0  0  0  0  0  0  0  0  0
  139.6470   68.7980  227.3820 C   0  0  0  0  0  0  0  0  0  0  0  0
  139.5500   69.3790  226.1360 C   0  0  0  0  0  0  0  0  0  0  0  0
  138.8070   68.7970  225.1830 N   0  0  0  0  0  0  0  0  0  0  0  0
  138.6620   69.3080  223.9260 C   0  0  0  0  0  0  0  0  0  0  0  0
  137.8670   68.4990  223.0210 C   0  0  0  0  0  0  0  0  0  0  0  0
  136.5860   68.8440  222.8000 C   0  0  0  0  0  0  0  0  0  0  0  0
  135.6590   69.0390  223.9330 C   0  0  0  0  0  0  0  0  0  0  0  0
  135.7340   70.1880  224.7060 C   0  0  0  0  0  0  0  0  0  0  0  0
  134.8680   70.3700  225.7790 C   0  0  0  0  0  0  0  0  0  0  0  0
  133.9270   69.4270  226.0980 C   0  0  0  0  0  0  0  0  0  0  0  0
  133.8840   68.2910  225.3020 C   0  0  0  0  0  0  0  0  0  0  0  0
  134.7410   68.1420  224.2620 N   0  0  0  0  0  0  0  0  0  0  0  0
  139.2720   70.4660  223.5530 N   0  0  0  0  0  0  0  0  0  0  0  0
  139.0720   70.9970  222.2290 C   0  0  0  0  0  0  0  0  0  0  0  0
  138.6630   72.4200  222.1500 C   0  0  0  0  0  0  0  0  0  0  0  0
  139.6110   73.4320  221.9370 C   0  0  0  0  0  0  0  0  0  0  0  0
  139.2660   74.7650  221.8330 C   0  0  0  0  0  0  0  0  0  0  0  0
  140.2210   75.7220  221.6240 F   0  0  0  0  0  0  0  0  0  0  0  0
  137.9660   75.1790  221.9310 C   0  0  0  0  0  0  0  0  0  0  0  0
  137.0110   74.2130  222.1400 C   0  0  0  0  0  0  0  0  0  0  0  0
  137.3590   72.8580  222.2470 C   0  0  0  0  0  0  0  0  0  0  0  0
  136.3070   72.0420  222.4930 F   0  0  0  0  0  0  0  0  0  0  0  0
  141.4797   72.1146  226.5060 H   0  0  0  0  0  0  0  0  0  0  0  0
  140.5298   69.0055  229.3312 H   0  0  0  0  0  0  0  0  0  0  0  0
  139.1224   67.8596  227.6150 H   0  0  0  0  0  0  0  0  0  0  0  0
  138.3040   67.6198  222.5249 H   0  0  0  0  0  0  0  0  0  0  0  0
  136.2267   68.9817  221.7695 H   0  0  0  0  0  0  0  0  0  0  0  0
  136.4819   70.9591  224.4693 H   0  0  0  0  0  0  0  0  0  0  0  0
  134.9400   71.2872  226.3820 H   0  0  0  0  0  0  0  0  0  0  0  0
  133.2383   69.5637  226.9448 H   0  0  0  0  0  0  0  0  0  0  0  0
  133.1470   67.5033  225.5171 H   0  0  0  0  0  0  0  0  0  0  0  0
  140.0174   70.8883  221.6773 H   0  0  0  0  0  0  0  0  0  0  0  0
  138.2329   70.4253  221.8059 H   0  0  0  0  0  0  0  0  0  0  0  0
  140.6713   73.1525  221.8494 H   0  0  0  0  0  0  0  0  0  0  0  0
  137.6959   76.2419  221.8460 H   0  0  0  0  0  0  0  0  0  0  0  0
  135.9546   74.5075  222.2249 H   0  0  0  0  0  0  0  0  0  0  0  0
  1  2  2  0
  2  3  1  0
  3  4  2  0
  4  5  1  0
  5  6  1  0
  5  7  2  0
  7  8  1  0
  8  9  2  0
  9 10  1  0
 10 11  2  0
 11 12  1  0
 12 13  2  0
 13 14  1  0
 14 15  2  0
 15 16  1  0
 16 17  2  0
 17 18  1  0
 18 19  2  0
 11 20  1  0
 20 21  1  0
 21 22  1  0
 22 23  2  0
 23 24  1  0
 24 25  1  0
 24 26  2  0
 26 27  1  0
 27 28  2  0
 28 29  1  0
 20  2  1  0
 28 22  1  0
  9  3  1  0
 19 14  1  0
  4 30  1  0
  7 31  1  0
  8 32  1  0
 12 33  1  0
 13 34  1  0
 15 35  1  0
 16 36  1  0
 17 37  1  0
 18 38  1  0
 21 39  1  0
 21 40  1  0
 23 41  1  0
 26 42  1  0
 27 43  1  0
M  END
>  <smiles>  (12) 
O=c1c2cc(F)ccc2nc(/C=C/c2ccccn2)n1Cc1cc(F)ccc1F

>  <score_type>  (12) 
oracle

>  <origin>  (12) 
autodockgpu

>  <m_score__min__energy>  (12) 
-7.6799999999999997

>  <m_primary>  (12) 
energy

>  <meeko>  (12) 
{"free_energy": -6.79, "intermolecular_energy": -8.28, "internal_energy": -1.52, "cluster_size": 7, "cluster_id": 4, "rank_in_cluster": 5}

>  <energy>  (12) 
-6.78

>  <cluster_rmsd>  (12) 
1.27

>  <rmsd>  (12) 
271.12

>  <cluster>  (12) 
4

$$$$

     RDKit          3D

 43 46  0  0  0  0  0  0  0  0999 V2000
  139.0720   67.5720  224.8850 O   0  0  0  0  0  0  0  0  0  0  0  0
  139.2390   68.8090  224.7360 C   0  0  0  0  0  0  0  0  0  0  0  0
  139.8520   69.4340  225.8230 C   0  0  0  0  0  0  0  0  0  0  0  0
  140.2400   68.7350  226.9480 C   0  0  0  0  0  0  0  0  0  0  0  0
  140.8430   69.4160  227.9850 C   0  0  0  0  0  0  0  0  0  0  0  0
  141.2050   68.6970  229.0660 F   0  0  0  0  0  0  0  0  0  0  0  0
  141.0700   70.7770  227.9360 C   0  0  0  0  0  0  0  0  0  0  0  0
  140.6890   71.4850  226.8220 C   0  0  0  0  0  0  0  0  0  0  0  0
  140.0900   70.7890  225.7940 C   0  0  0  0  0  0  0  0  0  0  0  0
  139.7000   71.4370  224.6870 N   0  0  0  0  0  0  0  0  0  0  0  0
  139.0990   70.8200  223.6280 C   0  0  0  0  0  0  0  0  0  0  0  0
  138.6960   71.7030  222.5500 C   0  0  0  0  0  0  0  0  0  0  0  0
  139.3990   72.8300  222.3380 C   0  0  0  0  0  0  0  0  0  0  0  0
  140.7190   72.7730  221.6770 C   0  0  0  0  0  0  0  0  0  0  0  0
  141.3190   73.9370  221.2180 C   0  0  0  0  0  0  0  0  0  0  0  0
  142.5580   73.8850  220.5890 C   0  0  0  0  0  0  0  0  0  0  0  0
  143.2110   72.6950  220.4060 C   0  0  0  0  0  0  0  0  0  0  0  0
  142.5770   71.5540  220.8780 C   0  0  0  0  0  0  0  0  0  0  0  0
  141.3690   71.6360  221.4880 N   0  0  0  0  0  0  0  0  0  0  0  0
  138.8560   69.4800  223.6270 N   0  0  0  0  0  0  0  0  0  0  0  0
  138.2500   68.8540  222.4800 C   0  0  0  0  0  0  0  0  0  0  0  0
  139.1760   68.1790  221.5390 C   0  0  0  0  0  0  0  0  0  0  0  0
  139.9950   68.9210  220.6750 C   0  0  0  0  0  0  0  0  0  0  0  0
  140.8870   68.3290  219.8040 C   0  0  0  0  0  0  0  0  0  0  0  0
  141.6690   69.0890  218.9780 F   0  0  0  0  0  0  0  0  0  0  0  0
  141.0250   66.9700  219.7330 C   0  0  0  0  0  0  0  0  0  0  0  0
  140.2380   66.2130  220.5640 C   0  0  0  0  0  0  0  0  0  0  0  0
  139.3290   66.8120  221.4510 C   0  0  0  0  0  0  0  0  0  0  0  0
  138.6020   65.9240  222.1690 F   0  0  0  0  0  0  0  0  0  0  0  0
  140.0708   67.6503  227.0167 H   0  0  0  0  0  0  0  0  0  0  0  0
  141.5517   71.2899  228.7815 H   0  0  0  0  0  0  0  0  0  0  0  0
  140.8562   72.5700  226.7528 H   0  0  0  0  0  0  0  0  0  0  0  0
  137.8310   71.4554  221.9172 H   0  0  0  0  0  0  0  0  0  0  0  0
  138.9889   73.7991  222.6584 H   0  0  0  0  0  0  0  0  0  0  0  0
  140.8127   74.9043  221.3522 H   0  0  0  0  0  0  0  0  0  0  0  0
  143.0220   74.8162  220.2320 H   0  0  0  0  0  0  0  0  0  0  0  0
  144.1910   72.6459  219.9088 H   0  0  0  0  0  0  0  0  0  0  0  0
  143.0596   70.5731  220.7559 H   0  0  0  0  0  0  0  0  0  0  0  0
  137.5358   68.1018  222.8461 H   0  0  0  0  0  0  0  0  0  0  0  0
  137.7903   69.6720  221.9059 H   0  0  0  0  0  0  0  0  0  0  0  0
  139.9234   70.0185  220.6924 H   0  0  0  0  0  0  0  0  0  0  0  0
  141.7381   66.5028  219.0378 H   0  0  0  0  0  0  0  0  0  0  0  0
  140.3207   65.1165  220.5348 H   0  0  0  0  0  0  0  0  0  0  0  0
  1  2  2  0
  2  3  1  0
  3  4  2  0
  4  5  1  0
  5  6  1  0
  5  7  2  0
  7  8  1  0
  8  9  2  0
  9 10  1  0
 10 11  2  0
 11 12  1  0
 12 13  2  0
 13 14  1  0
 14 15  2  0
 15 16  1  0
 16 17  2  0
 17 18  1  0
 18 19  2  0
 11 20  1  0
 20 21  1  0
 21 22  1  0
 22 23  2  0
 23 24  1  0
 24 25  1  0
 24 26  2  0
 26 27  1  0
 27 28  2  0
 28 29  1  0
 20  2  1  0
 28 22  1  0
  9  3  1  0
 19 14  1  0
  4 30  1  0
  7 31  1  0
  8 32  1  0
 12 33  1  0
 13 34  1  0
 15 35  1  0
 16 36  1  0
 17 37  1  0
 18 38  1  0
 21 39  1  0
 21 40  1  0
 23 41  1  0
 26 42  1  0
 27 43  1  0
M  END
>  <smiles>  (13) 
O=c1c2cc(F)ccc2nc(/C=C/c2ccccn2)n1Cc1cc(F)ccc1F

>  <score_type>  (13) 
oracle

>  <origin>  (13) 
autodockgpu

>  <m_score__min__energy>  (13) 
-7.6799999999999997

>  <m_primary>  (13) 
energy

>  <meeko>  (13) 
{"free_energy": -6.68, "intermolecular_energy": -8.17, "internal_energy": -1.55, "cluster_size": 3, "cluster_id": 1, "rank_in_cluster": 3}

>  <energy>  (13) 
-6.7

>  <cluster_rmsd>  (13) 
1.35

>  <rmsd>  (13) 
271.16

>  <cluster>  (13) 
4

$$$$

     RDKit          3D

 43 46  0  0  0  0  0  0  0  0999 V2000
  140.2670   71.9120  224.9980 O   0  0  0  0  0  0  0  0  0  0  0  0
  139.7350   70.7770  224.9020 C   0  0  0  0  0  0  0  0  0  0  0  0
  140.0270   69.9220  225.9670 C   0  0  0  0  0  0  0  0  0  0  0  0
  140.8250   70.3120  227.0230 C   0  0  0  0  0  0  0  0  0  0  0  0
  141.0720   69.4160  228.0430 C   0  0  0  0  0  0  0  0  0  0  0  0
  141.8580   69.8360  229.0540 F   0  0  0  0  0  0  0  0  0  0  0  0
  140.5480   68.1400  228.0410 C   0  0  0  0  0  0  0  0  0  0  0  0
  139.7510   67.7380  226.9960 C   0  0  0  0  0  0  0  0  0  0  0  0
  139.5130   68.6460  225.9860 C   0  0  0  0  0  0  0  0  0  0  0  0
  138.7440   68.3000  224.9450 N   0  0  0  0  0  0  0  0  0  0  0  0
  138.4630   69.1390  223.9060 C   0  0  0  0  0  0  0  0  0  0  0  0
  137.6620   68.5590  222.8450 C   0  0  0  0  0  0  0  0  0  0  0  0
  136.3890   68.9690  222.6950 C   0  0  0  0  0  0  0  0  0  0  0  0
  135.5350   69.1980  223.8770 C   0  0  0  0  0  0  0  0  0  0  0  0
  135.4810   70.4540  224.4660 C   0  0  0  0  0  0  0  0  0  0  0  0
  134.6840   70.6700  225.5850 C   0  0  0  0  0  0  0  0  0  0  0  0
  133.9390   69.6580  226.1300 C   0  0  0  0  0  0  0  0  0  0  0  0
  134.0200   68.4180  225.5130 C   0  0  0  0  0  0  0  0  0  0  0  0
  134.8060   68.2370  224.4240 N   0  0  0  0  0  0  0  0  0  0  0  0
  138.9540   70.4090  223.8630 N   0  0  0  0  0  0  0  0  0  0  0  0
  138.6110   71.2810  222.7690 C   0  0  0  0  0  0  0  0  0  0  0  0
  139.7240   72.0710  222.1900 C   0  0  0  0  0  0  0  0  0  0  0  0
  140.9170   71.4530  221.7910 C   0  0  0  0  0  0  0  0  0  0  0  0
  141.9650   72.1510  221.2250 C   0  0  0  0  0  0  0  0  0  0  0  0
  143.1130   71.5090  220.8480 F   0  0  0  0  0  0  0  0  0  0  0  0
  141.8970   73.5010  221.0170 C   0  0  0  0  0  0  0  0  0  0  0  0
  140.7420   74.1400  221.3970 C   0  0  0  0  0  0  0  0  0  0  0  0
  139.6760   73.4330  221.9740 C   0  0  0  0  0  0  0  0  0  0  0  0
  138.6300   74.2150  222.3280 F   0  0  0  0  0  0  0  0  0  0  0  0
  141.2581   71.3228  227.0513 H   0  0  0  0  0  0  0  0  0  0  0  0
  140.7663   67.4497  228.8692 H   0  0  0  0  0  0  0  0  0  0  0  0
  139.3181   66.7272  226.9664 H   0  0  0  0  0  0  0  0  0  0  0  0
  138.0875   67.7975  222.1748 H   0  0  0  0  0  0  0  0  0  0  0  0
  135.9828   69.1344  221.6862 H   0  0  0  0  0  0  0  0  0  0  0  0
  136.0711   71.2818  224.0458 H   0  0  0  0  0  0  0  0  0  0  0  0
  134.6513   71.6708  226.0403 H   0  0  0  0  0  0  0  0  0  0  0  0
  133.3064   69.8207  227.0150 H   0  0  0  0  0  0  0  0  0  0  0  0
  133.4400   67.5728  225.9120 H   0  0  0  0  0  0  0  0  0  0  0  0
  138.1857   70.6611  221.9659 H   0  0  0  0  0  0  0  0  0  0  0  0
  137.9118   72.0195  223.1882 H   0  0  0  0  0  0  0  0  0  0  0  0
  141.0226   70.3676  221.9347 H   0  0  0  0  0  0  0  0  0  0  0  0
  142.7336   74.0529  220.5636 H   0  0  0  0  0  0  0  0  0  0  0  0
  140.6510   75.2258  221.2463 H   0  0  0  0  0  0  0  0  0  0  0  0
  1  2  2  0
  2  3  1  0
  3  4  2  0
  4  5  1  0
  5  6  1  0
  5  7  2  0
  7  8  1  0
  8  9  2  0
  9 10  1  0
 10 11  2  0
 11 12  1  0
 12 13  2  0
 13 14  1  0
 14 15  2  0
 15 16  1  0
 16 17  2  0
 17 18  1  0
 18 19  2  0
 11 20  1  0
 20 21  1  0
 21 22  1  0
 22 23  2  0
 23 24  1  0
 24 25  1  0
 24 26  2  0
 26 27  1  0
 27 28  2  0
 28 29  1  0
 20  2  1  0
 28 22  1  0
  9  3  1  0
 19 14  1  0
  4 30  1  0
  7 31  1  0
  8 32  1  0
 12 33  1  0
 13 34  1  0
 15 35  1  0
 16 36  1  0
 17 37  1  0
 18 38  1  0
 21 39  1  0
 21 40  1  0
 23 41  1  0
 26 42  1  0
 27 43  1  0
M  END
>  <smiles>  (14) 
O=c1c2cc(F)ccc2nc(/C=C/c2ccccn2)n1Cc1cc(F)ccc1F

>  <score_type>  (14) 
oracle

>  <origin>  (14) 
autodockgpu

>  <m_score__min__energy>  (14) 
-7.6799999999999997

>  <m_primary>  (14) 
energy

>  <meeko>  (14) 
{"free_energy": -7.04, "intermolecular_energy": -8.53, "internal_energy": -1.33, "cluster_size": 7, "cluster_id": 4, "rank_in_cluster": 1}

>  <energy>  (14) 
-7.01

>  <cluster_rmsd>  (14) 
0.0

>  <rmsd>  (14) 
271.82

>  <cluster>  (14) 
5

$$$$

     RDKit          3D

 43 46  0  0  0  0  0  0  0  0999 V2000
  138.9020   67.5820  224.8580 O   0  0  0  0  0  0  0  0  0  0  0  0
  139.1800   68.8010  224.7240 C   0  0  0  0  0  0  0  0  0  0  0  0
  139.8220   69.3610  225.8300 C   0  0  0  0  0  0  0  0  0  0  0  0
  140.1210   68.6220  226.9560 C   0  0  0  0  0  0  0  0  0  0  0  0
  140.7580   69.2400  228.0130 C   0  0  0  0  0  0  0  0  0  0  0  0
  141.0310   68.4830  229.0950 F   0  0  0  0  0  0  0  0  0  0  0  0
  141.1050   70.5750  227.9820 C   0  0  0  0  0  0  0  0  0  0  0  0
  140.8130   71.3230  226.8660 C   0  0  0  0  0  0  0  0  0  0  0  0
  140.1780   70.6900  225.8190 C   0  0  0  0  0  0  0  0  0  0  0  0
  139.8710   71.3780  224.7100 N   0  0  0  0  0  0  0  0  0  0  0  0
  139.2420   70.8250  223.6330 C   0  0  0  0  0  0  0  0  0  0  0  0
  138.9420   71.7480  222.5550 C   0  0  0  0  0  0  0  0  0  0  0  0
  139.9430   72.1570  221.7550 C   0  0  0  0  0  0  0  0  0  0  0  0
  140.3060   73.5870  221.6860 C   0  0  0  0  0  0  0  0  0  0  0  0
  141.3930   73.9950  220.9250 C   0  0  0  0  0  0  0  0  0  0  0  0
  141.7420   75.3400  220.8650 C   0  0  0  0  0  0  0  0  0  0  0  0
  141.0300   76.2880  221.5500 C   0  0  0  0  0  0  0  0  0  0  0  0
  139.9510   75.8400  222.3000 C   0  0  0  0  0  0  0  0  0  0  0  0
  139.6340   74.5230  222.3390 N   0  0  0  0  0  0  0  0  0  0  0  0
  138.8820   69.5120  223.6140 N   0  0  0  0  0  0  0  0  0  0  0  0
  138.2500   68.9500  222.4480 C   0  0  0  0  0  0  0  0  0  0  0  0
  139.1030   68.0930  221.5900 C   0  0  0  0  0  0  0  0  0  0  0  0
  140.0250   68.6570  220.6970 C   0  0  0  0  0  0  0  0  0  0  0  0
  140.8550   67.8920  219.9010 C   0  0  0  0  0  0  0  0  0  0  0  0
  141.7420   68.4810  219.0420 F   0  0  0  0  0  0  0  0  0  0  0  0
  140.8240   66.5250  219.9400 C   0  0  0  0  0  0  0  0  0  0  0  0
  139.9310   65.9390  220.8040 C   0  0  0  0  0  0  0  0  0  0  0  0
  139.0870   66.7150  221.6130 C   0  0  0  0  0  0  0  0  0  0  0  0
  138.2400   65.9840  222.3760 F   0  0  0  0  0  0  0  0  0  0  0  0
  139.8556   67.5559  227.0105 H   0  0  0  0  0  0  0  0  0  0  0  0
  141.6109   71.0369  228.8427 H   0  0  0  0  0  0  0  0  0  0  0  0
  141.0769   72.3894  226.8105 H   0  0  0  0  0  0  0  0  0  0  0  0
  137.9146   72.1069  222.3946 H   0  0  0  0  0  0  0  0  0  0  0  0
  140.4941   71.4227  221.1491 H   0  0  0  0  0  0  0  0  0  0  0  0
  141.9809   73.2513  220.3670 H   0  0  0  0  0  0  0  0  0  0  0  0
  142.6052   75.6476  220.2565 H   0  0  0  0  0  0  0  0  0  0  0  0
  141.3000   77.3535  221.5081 H   0  0  0  0  0  0  0  0  0  0  0  0
  139.3467   76.5620  222.8689 H   0  0  0  0  0  0  0  0  0  0  0  0
  137.3983   68.3425  222.7879 H   0  0  0  0  0  0  0  0  0  0  0  0
  137.9715   69.8098  221.8209 H   0  0  0  0  0  0  0  0  0  0  0  0
  140.0900   69.7529  220.6275 H   0  0  0  0  0  0  0  0  0  0  0  0
  141.4874   65.9193  219.3051 H   0  0  0  0  0  0  0  0  0  0  0  0
  139.8766   64.8419  220.8626 H   0  0  0  0  0  0  0  0  0  0  0  0
  1  2  2  0
  2  3  1  0
  3  4  2  0
  4  5  1  0
  5  6  1  0
  5  7  2  0
  7  8  1  0
  8  9  2  0
  9 10  1  0
 10 11  2  0
 11 12  1  0
 12 13  2  0
 13 14  1  0
 14 15  2  0
 15 16  1  0
 16 17  2  0
 17 18  1  0
 18 19  2  0
 11 20  1  0
 20 21  1  0
 21 22  1  0
 22 23  2  0
 23 24  1  0
 24 25  1  0
 24 26  2  0
 26 27  1  0
 27 28  2  0
 28 29  1  0
 20  2  1  0
 28 22  1  0
  9  3  1  0
 19 14  1  0
  4 30  1  0
  7 31  1  0
  8 32  1  0
 12 33  1  0
 13 34  1  0
 15 35  1  0
 16 36  1  0
 17 37  1  0
 18 38  1  0
 21 39  1  0
 21 40  1  0
 23 41  1  0
 26 42  1  0
 27 43  1  0
M  END
>  <smiles>  (15) 
O=c1c2cc(F)ccc2nc(/C=C/c2ccccn2)n1Cc1cc(F)ccc1F

>  <score_type>  (15) 
oracle

>  <origin>  (15) 
autodockgpu

>  <m_score__min__energy>  (15) 
-7.6799999999999997

>  <m_primary>  (15) 
energy

>  <meeko>  (15) 
{"free_energy": -7.52, "intermolecular_energy": -9.01, "internal_energy": -1.09, "cluster_size": 3, "cluster_id": 1, "rank_in_cluster": 2}

>  <energy>  (15) 
-6.64

>  <cluster_rmsd>  (15) 
0.0

>  <rmsd>  (15) 
272.08

>  <cluster>  (15) 
6

$$$$

     RDKit          3D

 43 46  0  0  0  0  0  0  0  0999 V2000
  140.2350   71.8120  224.7380 O   0  0  0  0  0  0  0  0  0  0  0  0
  139.7340   70.6610  224.6750 C   0  0  0  0  0  0  0  0  0  0  0  0
  140.0340   69.8500  225.7700 C   0  0  0  0  0  0  0  0  0  0  0  0
  140.8090   70.2950  226.8220 C   0  0  0  0  0  0  0  0  0  0  0  0
  141.0660   69.4400  227.8740 C   0  0  0  0  0  0  0  0  0  0  0  0
  141.8270   69.9130  228.8800 F   0  0  0  0  0  0  0  0  0  0  0  0
  140.5740   68.1510  227.9080 C   0  0  0  0  0  0  0  0  0  0  0  0
  139.8010   67.6940  226.8680 C   0  0  0  0  0  0  0  0  0  0  0  0
  139.5530   68.5620  225.8260 C   0  0  0  0  0  0  0  0  0  0  0  0
  138.8060   68.1620  224.7870 N   0  0  0  0  0  0  0  0  0  0  0  0
  138.5180   68.9590  223.7180 C   0  0  0  0  0  0  0  0  0  0  0  0
  137.7450   68.3240  222.6670 C   0  0  0  0  0  0  0  0  0  0  0  0
  136.4220   68.5570  222.6040 C   0  0  0  0  0  0  0  0  0  0  0  0
  135.7210   69.1920  223.7380 C   0  0  0  0  0  0  0  0  0  0  0  0
  135.7360   70.5720  223.8820 C   0  0  0  0  0  0  0  0  0  0  0  0
  135.0840   71.1720  224.9540 C   0  0  0  0  0  0  0  0  0  0  0  0
  134.4170   70.4230  225.8870 C   0  0  0  0  0  0  0  0  0  0  0  0
  134.4260   69.0470  225.7090 C   0  0  0  0  0  0  0  0  0  0  0  0
  135.0700   68.4910  224.6540 N   0  0  0  0  0  0  0  0  0  0  0  0
  138.9760   70.2390  223.6380 N   0  0  0  0  0  0  0  0  0  0  0  0
  138.6250   71.0660  222.5130 C   0  0  0  0  0  0  0  0  0  0  0  0
  139.7290   71.8470  221.9060 C   0  0  0  0  0  0  0  0  0  0  0  0
  139.8280   73.2320  222.1040 C   0  0  0  0  0  0  0  0  0  0  0  0
  140.8560   73.9880  221.5760 C   0  0  0  0  0  0  0  0  0  0  0  0
  140.9160   75.3380  221.7940 F   0  0  0  0  0  0  0  0  0  0  0  0
  141.8470   73.4240  220.8220 C   0  0  0  0  0  0  0  0  0  0  0  0
  141.7810   72.0690  220.6070 C   0  0  0  0  0  0  0  0  0  0  0  0
  140.7370   71.2980  221.1420 C   0  0  0  0  0  0  0  0  0  0  0  0
  140.7970   69.9880  220.8030 F   0  0  0  0  0  0  0  0  0  0  0  0
  141.2160   71.3169  226.8217 H   0  0  0  0  0  0  0  0  0  0  0  0
  140.7990   67.4944  228.7613 H   0  0  0  0  0  0  0  0  0  0  0  0
  139.3945   66.6719  226.8668 H   0  0  0  0  0  0  0  0  0  0  0  0
  138.2325   67.6637  221.9347 H   0  0  0  0  0  0  0  0  0  0  0  0
  135.8589   68.2730  221.7027 H   0  0  0  0  0  0  0  0  0  0  0  0
  136.2657   71.1939  223.1454 H   0  0  0  0  0  0  0  0  0  0  0  0
  135.1043   72.2672  225.0544 H   0  0  0  0  0  0  0  0  0  0  0  0
  133.8987   70.8904  226.7372 H   0  0  0  0  0  0  0  0  0  0  0  0
  133.9053   68.4010  226.4312 H   0  0  0  0  0  0  0  0  0  0  0  0
  138.2078   70.4122  221.7329 H   0  0  0  0  0  0  0  0  0  0  0  0
  137.9173   71.8115  222.9047 H   0  0  0  0  0  0  0  0  0  0  0  0
  139.0560   73.7362  222.7038 H   0  0  0  0  0  0  0  0  0  0  0  0
  142.6641   74.0307  220.4044 H   0  0  0  0  0  0  0  0  0  0  0  0
  142.5603   71.5792  220.0047 H   0  0  0  0  0  0  0  0  0  0  0  0
  1  2  2  0
  2  3  1  0
  3  4  2  0
  4  5  1  0
  5  6  1  0
  5  7  2  0
  7  8  1  0
  8  9  2  0
  9 10  1  0
 10 11  2  0
 11 12  1  0
 12 13  2  0
 13 14  1  0
 14 15  2  0
 15 16  1  0
 16 17  2  0
 17 18  1  0
 18 19  2  0
 11 20  1  0
 20 21  1  0
 21 22  1  0
 22 23  2  0
 23 24  1  0
 24 25  1  0
 24 26  2  0
 26 27  1  0
 27 28  2  0
 28 29  1  0
 20  2  1  0
 28 22  1  0
  9  3  1  0
 19 14  1  0
  4 30  1  0
  7 31  1  0
  8 32  1  0
 12 33  1  0
 13 34  1  0
 15 35  1  0
 16 36  1  0
 17 37  1  0
 18 38  1  0
 21 39  1  0
 21 40  1  0
 23 41  1  0
 26 42  1  0
 27 43  1  0
M  END
>  <smiles>  (16) 
O=c1c2cc(F)ccc2nc(/C=C/c2ccccn2)n1Cc1cc(F)ccc1F

>  <score_type>  (16) 
oracle

>  <origin>  (16) 
autodockgpu

>  <m_score__min__energy>  (16) 
-7.6799999999999997

>  <m_primary>  (16) 
energy

>  <meeko>  (16) 
{"free_energy": -6.87, "intermolecular_energy": -8.36, "internal_energy": -1.47, "cluster_size": 7, "cluster_id": 4, "rank_in_cluster": 4}

>  <energy>  (16) 
-6.57

>  <cluster_rmsd>  (16) 
0.52

>  <rmsd>  (16) 
272.14

>  <cluster>  (16) 
6

$$$$

     RDKit          3D

 43 46  0  0  0  0  0  0  0  0999 V2000
  139.9140   74.7590  221.9690 O   0  0  0  0  0  0  0  0  0  0  0  0
  140.4890   75.6140  221.2500 C   0  0  0  0  0  0  0  0  0  0  0  0
  141.7340   75.2070  220.7690 C   0  0  0  0  0  0  0  0  0  0  0  0
  142.2650   73.9680  221.0640 C   0  0  0  0  0  0  0  0  0  0  0  0
  143.5020   73.6290  220.5540 C   0  0  0  0  0  0  0  0  0  0  0  0
  143.9840   72.4100  220.8670 F   0  0  0  0  0  0  0  0  0  0  0  0
  144.2280   74.4920  219.7590 C   0  0  0  0  0  0  0  0  0  0  0  0
  143.7120   75.7290  219.4570 C   0  0  0  0  0  0  0  0  0  0  0  0
  142.4750   76.0500  219.9740 C   0  0  0  0  0  0  0  0  0  0  0  0
  141.9310   77.2470  219.7080 N   0  0  0  0  0  0  0  0  0  0  0  0
  140.7130   77.6400  220.1830 C   0  0  0  0  0  0  0  0  0  0  0  0
  140.3250   78.9940  219.8350 C   0  0  0  0  0  0  0  0  0  0  0  0
  141.2330   79.9790  219.9550 C   0  0  0  0  0  0  0  0  0  0  0  0
  141.7010   80.4040  221.2900 C   0  0  0  0  0  0  0  0  0  0  0  0
  142.5550   79.5910  222.0210 C   0  0  0  0  0  0  0  0  0  0  0  0
  142.9910   79.9850  223.2820 C   0  0  0  0  0  0  0  0  0  0  0  0
  142.5900   81.1740  223.8300 C   0  0  0  0  0  0  0  0  0  0  0  0
  141.7350   81.9580  223.0690 C   0  0  0  0  0  0  0  0  0  0  0  0
  141.3280   81.5480  221.8420 N   0  0  0  0  0  0  0  0  0  0  0  0
  139.9570   76.8240  220.9680 N   0  0  0  0  0  0  0  0  0  0  0  0
  138.6610   77.2560  221.4250 C   0  0  0  0  0  0  0  0  0  0  0  0
  138.6480   78.3910  222.3790 C   0  0  0  0  0  0  0  0  0  0  0  0
  137.5690   79.2860  222.4220 C   0  0  0  0  0  0  0  0  0  0  0  0
  137.5110   80.3380  223.3140 C   0  0  0  0  0  0  0  0  0  0  0  0
  136.4390   81.1890  223.3250 F   0  0  0  0  0  0  0  0  0  0  0  0
  138.5120   80.5700  224.2160 C   0  0  0  0  0  0  0  0  0  0  0  0
  139.5850   79.7130  224.2010 C   0  0  0  0  0  0  0  0  0  0  0  0
  139.6470   78.6430  223.2950 C   0  0  0  0  0  0  0  0  0  0  0  0
  140.7880   77.9190  223.3830 F   0  0  0  0  0  0  0  0  0  0  0  0
  141.7100   73.2600  221.6970 H   0  0  0  0  0  0  0  0  0  0  0  0
  145.2122   74.1919  219.3700 H   0  0  0  0  0  0  0  0  0  0  0  0
  144.2664   76.4383  218.8249 H   0  0  0  0  0  0  0  0  0  0  0  0
  139.3069   79.2110  219.4795 H   0  0  0  0  0  0  0  0  0  0  0  0
  141.6292   80.4706  219.0542 H   0  0  0  0  0  0  0  0  0  0  0  0
  142.8889   78.6305  221.6016 H   0  0  0  0  0  0  0  0  0  0  0  0
  143.6695   79.3302  223.8485 H   0  0  0  0  0  0  0  0  0  0  0  0
  142.9297   81.4926  224.8266 H   0  0  0  0  0  0  0  0  0  0  0  0
  141.3835   82.9222  223.4650 H   0  0  0  0  0  0  0  0  0  0  0  0
  138.0757   77.5529  220.5422 H   0  0  0  0  0  0  0  0  0  0  0  0
  138.2442   76.4016  221.9784 H   0  0  0  0  0  0  0  0  0  0  0  0
  136.7363   79.1441  221.7173 H   0  0  0  0  0  0  0  0  0  0  0  0
  138.4600   81.4093  224.9251 H   0  0  0  0  0  0  0  0  0  0  0  0
  140.4103   79.8679  224.9115 H   0  0  0  0  0  0  0  0  0  0  0  0
  1  2  2  0
  2  3  1  0
  3  4  2  0
  4  5  1  0
  5  6  1  0
  5  7  2  0
  7  8  1  0
  8  9  2  0
  9 10  1  0
 10 11  2  0
 11 12  1  0
 12 13  2  0
 13 14  1  0
 14 15  2  0
 15 16  1  0
 16 17  2  0
 17 18  1  0
 18 19  2  0
 11 20  1  0
 20 21  1  0
 21 22  1  0
 22 23  2  0
 23 24  1  0
 24 25  1  0
 24 26  2  0
 26 27  1  0
 27 28  2  0
 28 29  1  0
 20  2  1  0
 28 22  1  0
  9  3  1  0
 19 14  1  0
  4 30  1  0
  7 31  1  0
  8 32  1  0
 12 33  1  0
 13 34  1  0
 15 35  1  0
 16 36  1  0
 17 37  1  0
 18 38  1  0
 21 39  1  0
 21 40  1  0
 23 41  1  0
 26 42  1  0
 27 43  1  0
M  END
>  <smiles>  (17) 
O=c1c2cc(F)ccc2nc(/C=C/c2ccccn2)n1Cc1cc(F)ccc1F

>  <score_type>  (17) 
oracle

>  <origin>  (17) 
autodockgpu

>  <m_score__min__energy>  (17) 
-7.6799999999999997

>  <m_primary>  (17) 
energy

>  <meeko>  (17) 
{"free_energy": -6.39, "intermolecular_energy": -7.88, "internal_energy": -1.97, "cluster_size": 6, "cluster_id": 6, "rank_in_cluster": 4}

>  <energy>  (17) 
-6.42

>  <cluster_rmsd>  (17) 
0.69

>  <rmsd>  (17) 
272.15

>  <cluster>  (17) 
6

$$$$

     RDKit          3D

 43 46  0  0  0  0  0  0  0  0999 V2000
  140.2550   71.8610  224.8650 O   0  0  0  0  0  0  0  0  0  0  0  0
  139.6970   70.7370  224.7990 C   0  0  0  0  0  0  0  0  0  0  0  0
  139.9760   69.9010  225.8820 C   0  0  0  0  0  0  0  0  0  0  0  0
  140.7890   70.2970  226.9240 C   0  0  0  0  0  0  0  0  0  0  0  0
  141.0220   69.4200  227.9640 C   0  0  0  0  0  0  0  0  0  0  0  0
  141.8220   69.8460  228.9610 F   0  0  0  0  0  0  0  0  0  0  0  0
  140.4690   68.1560  227.9950 C   0  0  0  0  0  0  0  0  0  0  0  0
  139.6580   67.7480  226.9640 C   0  0  0  0  0  0  0  0  0  0  0  0
  139.4350   68.6370  225.9340 C   0  0  0  0  0  0  0  0  0  0  0  0
  138.6520   68.2840  224.9050 N   0  0  0  0  0  0  0  0  0  0  0  0
  138.3840   69.1050  223.8480 C   0  0  0  0  0  0  0  0  0  0  0  0
  137.5640   68.5180  222.8050 C   0  0  0  0  0  0  0  0  0  0  0  0
  136.2690   68.8710  222.7220 C   0  0  0  0  0  0  0  0  0  0  0  0
  135.4830   69.1150  223.9490 C   0  0  0  0  0  0  0  0  0  0  0  0
  135.4870   70.3690  224.5420 C   0  0  0  0  0  0  0  0  0  0  0  0
  134.7540   70.5990  225.7020 C   0  0  0  0  0  0  0  0  0  0  0  0
  134.0170   69.6020  226.2830 C   0  0  0  0  0  0  0  0  0  0  0  0
  134.0390   68.3630  225.6600 C   0  0  0  0  0  0  0  0  0  0  0  0
  134.7620   68.1680  224.5300 N   0  0  0  0  0  0  0  0  0  0  0  0
  138.9020   70.3610  223.7720 N   0  0  0  0  0  0  0  0  0  0  0  0
  138.5730   71.2160  222.6600 C   0  0  0  0  0  0  0  0  0  0  0  0
  139.7100   71.9090  222.0090 C   0  0  0  0  0  0  0  0  0  0  0  0
  139.8850   73.2940  222.1460 C   0  0  0  0  0  0  0  0  0  0  0  0
  140.9450   73.9710  221.5770 C   0  0  0  0  0  0  0  0  0  0  0  0
  141.0800   75.3230  221.7350 F   0  0  0  0  0  0  0  0  0  0  0  0
  141.8960   73.3220  220.8380 C   0  0  0  0  0  0  0  0  0  0  0  0
  141.7550   71.9640  220.6830 C   0  0  0  0  0  0  0  0  0  0  0  0
  140.6780   71.2740  221.2600 C   0  0  0  0  0  0  0  0  0  0  0  0
  140.6640   69.9500  220.9780 F   0  0  0  0  0  0  0  0  0  0  0  0
  141.2452   71.2979  226.9259 H   0  0  0  0  0  0  0  0  0  0  0  0
  140.6759   67.4807  228.8383 H   0  0  0  0  0  0  0  0  0  0  0  0
  139.2024   66.7468  226.9603 H   0  0  0  0  0  0  0  0  0  0  0  0
  137.9940   67.7968  222.0944 H   0  0  0  0  0  0  0  0  0  0  0  0
  135.7928   68.9786  221.7362 H   0  0  0  0  0  0  0  0  0  0  0  0
  136.0722   71.1851  224.0932 H   0  0  0  0  0  0  0  0  0  0  0  0
  134.7668   71.5989  226.1602 H   0  0  0  0  0  0  0  0  0  0  0  0
  133.4351   69.7754  227.2003 H   0  0  0  0  0  0  0  0  0  0  0  0
  133.4632   67.5290  226.0877 H   0  0  0  0  0  0  0  0  0  0  0  0
  138.0752   70.5987  221.8977 H   0  0  0  0  0  0  0  0  0  0  0  0
  137.9423   72.0141  223.0787 H   0  0  0  0  0  0  0  0  0  0  0  0
  139.1477   73.8638  222.7305 H   0  0  0  0  0  0  0  0  0  0  0  0
  142.7392   73.8652  220.3863 H   0  0  0  0  0  0  0  0  0  0  0  0
  142.5002   71.4075  220.0957 H   0  0  0  0  0  0  0  0  0  0  0  0
  1  2  2  0
  2  3  1  0
  3  4  2  0
  4  5  1  0
  5  6  1  0
  5  7  2  0
  7  8  1  0
  8  9  2  0
  9 10  1  0
 10 11  2  0
 11 12  1  0
 12 13  2  0
 13 14  1  0
 14 15  2  0
 15 16  1  0
 16 17  2  0
 17 18  1  0
 18 19  2  0
 11 20  1  0
 20 21  1  0
 21 22  1  0
 22 23  2  0
 23 24  1  0
 24 25  1  0
 24 26  2  0
 26 27  1  0
 27 28  2  0
 28 29  1  0
 20  2  1  0
 28 22  1  0
  9  3  1  0
 19 14  1  0
  4 30  1  0
  7 31  1  0
  8 32  1  0
 12 33  1  0
 13 34  1  0
 15 35  1  0
 16 36  1  0
 17 37  1  0
 18 38  1  0
 21 39  1  0
 21 40  1  0
 23 41  1  0
 26 42  1  0
 27 43  1  0
M  END
>  <smiles>  (18) 
O=c1c2cc(F)ccc2nc(/C=C/c2ccccn2)n1Cc1cc(F)ccc1F

>  <score_type>  (18) 
oracle

>  <origin>  (18) 
autodockgpu

>  <m_score__min__energy>  (18) 
-7.6799999999999997

>  <m_primary>  (18) 
energy

>  <meeko>  (18) 
{"free_energy": -6.96, "intermolecular_energy": -8.45, "internal_energy": -1.41, "cluster_size": 7, "cluster_id": 4, "rank_in_cluster": 3}

>  <energy>  (18) 
-6.39

>  <cluster_rmsd>  (18) 
0.52

>  <rmsd>  (18) 
272.17

>  <cluster>  (18) 
6

$$$$

     RDKit          3D

 43 46  0  0  0  0  0  0  0  0999 V2000
  141.5790   71.1360  221.2100 O   0  0  0  0  0  0  0  0  0  0  0  0
  141.7180   72.3850  221.1960 C   0  0  0  0  0  0  0  0  0  0  0  0
  142.9770   72.8120  220.7700 C   0  0  0  0  0  0  0  0  0  0  0  0
  143.9640   71.9230  220.3950 C   0  0  0  0  0  0  0  0  0  0  0  0
  145.1860   72.4140  219.9830 C   0  0  0  0  0  0  0  0  0  0  0  0
  146.1230   71.5130  219.6270 F   0  0  0  0  0  0  0  0  0  0  0  0
  145.4550   73.7670  219.9350 C   0  0  0  0  0  0  0  0  0  0  0  0
  144.4810   74.6630  220.3050 C   0  0  0  0  0  0  0  0  0  0  0  0
  143.2660   74.1560  220.7130 C   0  0  0  0  0  0  0  0  0  0  0  0
  142.2850   74.9900  221.0850 N   0  0  0  0  0  0  0  0  0  0  0  0
  141.0570   74.5670  221.5020 C   0  0  0  0  0  0  0  0  0  0  0  0
  140.1520   75.6210  221.9210 C   0  0  0  0  0  0  0  0  0  0  0  0
  140.2440   76.8270  221.3310 C   0  0  0  0  0  0  0  0  0  0  0  0
  140.9620   77.9310  221.9980 C   0  0  0  0  0  0  0  0  0  0  0  0
  141.4970   78.9690  221.2480 C   0  0  0  0  0  0  0  0  0  0  0  0
  142.1820   80.0060  221.8730 C   0  0  0  0  0  0  0  0  0  0  0  0
  142.3450   80.0290  223.2330 C   0  0  0  0  0  0  0  0  0  0  0  0
  141.7960   78.9730  223.9470 C   0  0  0  0  0  0  0  0  0  0  0  0
  141.1340   77.9760  223.3100 N   0  0  0  0  0  0  0  0  0  0  0  0
  140.7410   73.2440  221.5650 N   0  0  0  0  0  0  0  0  0  0  0  0
  139.4240   72.8310  221.9770 C   0  0  0  0  0  0  0  0  0  0  0  0
  139.3630   71.8740  223.1070 C   0  0  0  0  0  0  0  0  0  0  0  0
  140.3590   71.8580  224.0950 C   0  0  0  0  0  0  0  0  0  0  0  0
  140.3230   71.0000  225.1750 C   0  0  0  0  0  0  0  0  0  0  0  0
  141.3140   71.0170  226.1180 F   0  0  0  0  0  0  0  0  0  0  0  0
  139.3020   70.1050  225.3460 C   0  0  0  0  0  0  0  0  0  0  0  0
  138.3100   70.0930  224.3960 C   0  0  0  0  0  0  0  0  0  0  0  0
  138.3440   70.9640  223.2970 C   0  0  0  0  0  0  0  0  0  0  0  0
  137.3140   70.7960  222.4340 F   0  0  0  0  0  0  0  0  0  0  0  0
  143.7792   70.8390  220.4242 H   0  0  0  0  0  0  0  0  0  0  0  0
  146.4408   74.1250  219.6033 H   0  0  0  0  0  0  0  0  0  0  0  0
  144.6646   75.7472  220.2765 H   0  0  0  0  0  0  0  0  0  0  0  0
  139.4043   75.4376  222.7067 H   0  0  0  0  0  0  0  0  0  0  0  0
  139.7817   76.9910  220.3464 H   0  0  0  0  0  0  0  0  0  0  0  0
  141.3788   78.9717  220.1544 H   0  0  0  0  0  0  0  0  0  0  0  0
  142.6000   80.8216  221.2647 H   0  0  0  0  0  0  0  0  0  0  0  0
  142.8851   80.8452  223.7351 H   0  0  0  0  0  0  0  0  0  0  0  0
  141.8992   78.9447  225.0418 H   0  0  0  0  0  0  0  0  0  0  0  0
  138.8657   73.7324  222.2699 H   0  0  0  0  0  0  0  0  0  0  0  0
  138.9994   72.2963  221.1146 H   0  0  0  0  0  0  0  0  0  0  0  0
  141.2028   72.5579  224.0050 H   0  0  0  0  0  0  0  0  0  0  0  0
  139.2768   69.4232  226.2088 H   0  0  0  0  0  0  0  0  0  0  0  0
  137.4729   69.3869  224.4990 H   0  0  0  0  0  0  0  0  0  0  0  0
  1  2  2  0
  2  3  1  0
  3  4  2  0
  4  5  1  0
  5  6  1  0
  5  7  2  0
  7  8  1  0
  8  9  2  0
  9 10  1  0
 10 11  2  0
 11 12  1  0
 12 13  2  0
 13 14  1  0
 14 15  2  0
 15 16  1  0
 16 17  2  0
 17 18  1  0
 18 19  2  0
 11 20  1  0
 20 21  1  0
 21 22  1  0
 22 23  2  0
 23 24  1  0
 24 25  1  0
 24 26  2  0
 26 27  1  0
 27 28  2  0
 28 29  1  0
 20  2  1  0
 28 22  1  0
  9  3  1  0
 19 14  1  0
  4 30  1  0
  7 31  1  0
  8 32  1  0
 12 33  1  0
 13 34  1  0
 15 35  1  0
 16 36  1  0
 17 37  1  0
 18 38  1  0
 21 39  1  0
 21 40  1  0
 23 41  1  0
 26 42  1  0
 27 43  1  0
M  END
>  <smiles>  (19) 
O=c1c2cc(F)ccc2nc(/C=C/c2ccccn2)n1Cc1cc(F)ccc1F

>  <score_type>  (19) 
oracle

>  <origin>  (19) 
autodockgpu

>  <m_score__min__energy>  (19) 
-7.6799999999999997

>  <m_primary>  (19) 
energy

>  <meeko>  (19) 
{"free_energy": -7.13, "intermolecular_energy": -8.63, "internal_energy": -1.06, "cluster_size": 2, "cluster_id": 3, "rank_in_cluster": 1}

>  <energy>  (19) 
-6.36

>  <cluster_rmsd>  (19) 
0.54

>  <rmsd>  (19) 
272.15

>  <cluster>  (19) 
6

$$$$

     RDKit          3D

 43 46  0  0  0  0  0  0  0  0999 V2000
  139.9750   74.3560  221.9070 O   0  0  0  0  0  0  0  0  0  0  0  0
  140.6510   75.1700  221.2300 C   0  0  0  0  0  0  0  0  0  0  0  0
  141.9040   74.6880  220.8470 C   0  0  0  0  0  0  0  0  0  0  0  0
  142.3380   73.4230  221.1870 C   0  0  0  0  0  0  0  0  0  0  0  0
  143.5880   73.0100  220.7750 C   0  0  0  0  0  0  0  0  0  0  0  0
  143.9740   71.7680  221.1300 F   0  0  0  0  0  0  0  0  0  0  0  0
  144.4210   73.8220  220.0330 C   0  0  0  0  0  0  0  0  0  0  0  0
  144.0020   75.0840  219.6870 C   0  0  0  0  0  0  0  0  0  0  0  0
  142.7500   75.4800  220.1060 C   0  0  0  0  0  0  0  0  0  0  0  0
  142.2970   76.7030  219.7940 N   0  0  0  0  0  0  0  0  0  0  0  0
  141.0720   77.1690  220.1730 C   0  0  0  0  0  0  0  0  0  0  0  0
  140.7900   78.5400  219.7900 C   0  0  0  0  0  0  0  0  0  0  0  0
  141.7530   79.4670  219.9450 C   0  0  0  0  0  0  0  0  0  0  0  0
  141.9620   80.1130  221.2570 C   0  0  0  0  0  0  0  0  0  0  0  0
  141.3540   81.3270  221.5410 C   0  0  0  0  0  0  0  0  0  0  0  0
  141.5570   81.9420  222.7730 C   0  0  0  0  0  0  0  0  0  0  0  0
  142.3540   81.3690  223.7280 C   0  0  0  0  0  0  0  0  0  0  0  0
  142.9440   80.1550  223.4050 C   0  0  0  0  0  0  0  0  0  0  0  0
  142.7290   79.5800  222.1960 N   0  0  0  0  0  0  0  0  0  0  0  0
  140.2120   76.4060  220.9030 N   0  0  0  0  0  0  0  0  0  0  0  0
  138.9130   76.9150  221.2570 C   0  0  0  0  0  0  0  0  0  0  0  0
  138.8930   78.0440  222.2190 C   0  0  0  0  0  0  0  0  0  0  0  0
  137.7830   78.8960  222.3080 C   0  0  0  0  0  0  0  0  0  0  0  0
  137.7170   79.9410  223.2080 C   0  0  0  0  0  0  0  0  0  0  0  0
  136.6150   80.7500  223.2650 F   0  0  0  0  0  0  0  0  0  0  0  0
  138.7430   80.2070  224.0740 C   0  0  0  0  0  0  0  0  0  0  0  0
  139.8460   79.3920  224.0130 C   0  0  0  0  0  0  0  0  0  0  0  0
  139.9150   78.3290  223.0990 C   0  0  0  0  0  0  0  0  0  0  0  0
  141.0860   77.6500  223.1390 F   0  0  0  0  0  0  0  0  0  0  0  0
  141.6962   72.7533  221.7783 H   0  0  0  0  0  0  0  0  0  0  0  0
  145.4125   73.4620  219.7210 H   0  0  0  0  0  0  0  0  0  0  0  0
  144.6432   75.7548  219.0963 H   0  0  0  0  0  0  0  0  0  0  0  0
  139.8072   78.8164  219.3805 H   0  0  0  0  0  0  0  0  0  0  0  0
  142.3877   79.7451  219.0907 H   0  0  0  0  0  0  0  0  0  0  0  0
  140.7088   81.8056  220.7895 H   0  0  0  0  0  0  0  0  0  0  0  0
  141.0688   82.9050  222.9833 H   0  0  0  0  0  0  0  0  0  0  0  0
  142.5187   81.8481  224.7044 H   0  0  0  0  0  0  0  0  0  0  0  0
  143.5932   79.6537  224.1379 H   0  0  0  0  0  0  0  0  0  0  0  0
  138.4213   77.2526  220.3327 H   0  0  0  0  0  0  0  0  0  0  0  0
  138.3997   76.0854  221.7653 H   0  0  0  0  0  0  0  0  0  0  0  0
  136.9307   78.7251  221.6339 H   0  0  0  0  0  0  0  0  0  0  0  0
  138.6860   81.0402  224.7900 H   0  0  0  0  0  0  0  0  0  0  0  0
  140.6911   79.5753  224.6928 H   0  0  0  0  0  0  0  0  0  0  0  0
  1  2  2  0
  2  3  1  0
  3  4  2  0
  4  5  1  0
  5  6  1  0
  5  7  2  0
  7  8  1  0
  8  9  2  0
  9 10  1  0
 10 11  2  0
 11 12  1  0
 12 13  2  0
 13 14  1  0
 14 15  2  0
 15 16  1  0
 16 17  2  0
 17 18  1  0
 18 19  2  0
 11 20  1  0
 20 21  1  0
 21 22  1  0
 22 23  2  0
 23 24  1  0
 24 25  1  0
 24 26  2  0
 26 27  1  0
 27 28  2  0
 28 29  1  0
 20  2  1  0
 28 22  1  0
  9  3  1  0
 19 14  1  0
  4 30  1  0
  7 31  1  0
  8 32  1  0
 12 33  1  0
 13 34  1  0
 15 35  1  0
 16 36  1  0
 17 37  1  0
 18 38  1  0
 21 39  1  0
 21 40  1  0
 23 41  1  0
 26 42  1  0
 27 43  1  0
M  END
>  <smiles>  (20) 
O=c1c2cc(F)ccc2nc(/C=C/c2ccccn2)n1Cc1cc(F)ccc1F

>  <score_type>  (20) 
oracle

>  <origin>  (20) 
autodockgpu

>  <m_score__min__energy>  (20) 
-7.6799999999999997

>  <m_primary>  (20) 
energy

>  <meeko>  (20) 
{"free_energy": -6.57, "intermolecular_energy": -8.06, "internal_energy": -1.79, "cluster_size": 6, "cluster_id": 6, "rank_in_cluster": 2}

>  <energy>  (20) 
-6.35

>  <cluster_rmsd>  (20) 
0.7

>  <rmsd>  (20) 
272.12

>  <cluster>  (20) 
6

$$$$
