UYYINUAOVYUWQM-WBADGWMWNA-N
     RDKit          3D

 52 55  0  0  0  0  0  0  0  0999 V2000
  139.1890   75.8120  220.1360 O   0  0  0  0  0  0  0  0  0  0  0  0
  139.0910   75.9270  221.3890 C   0  0  0  0  0  0  0  0  0  0  0  0
  138.5890   74.8240  222.1630 N   0  0  0  0  0  0  0  0  0  0  0  0
  138.5690   73.4780  221.5990 C   0  0  0  0  0  0  0  0  0  0  0  0
  139.5940   72.5740  222.2320 C   0  0  0  0  0  0  0  0  0  0  0  0
  140.7020   73.0920  222.5530 O   0  0  0  0  0  0  0  0  0  0  0  0
  139.3610   71.1750  222.5290 N   0  0  0  0  0  0  0  0  0  0  0  0
  139.0840   70.2370  221.4420 C   0  0  0  0  0  0  0  0  0  0  0  0
  138.5130   68.9820  222.0960 C   0  0  2  0  0  0  0  0  0  0  0  0
  137.4270   68.4850  221.3580 O   0  0  0  0  0  0  0  0  0  0  0  0
  138.0850   69.4300  223.4900 C   0  0  0  0  0  0  0  0  0  0  0  0
  139.0230   70.5940  223.8350 C   0  0  1  0  0  0  0  0  0  0  0  0
  140.2810   70.0620  224.5630 C   0  0  0  0  0  0  0  0  0  0  0  0
  140.4880   70.6860  225.9150 C   0  0  0  0  0  0  0  0  0  0  0  0
  139.9440   70.0820  227.0650 C   0  0  0  0  0  0  0  0  0  0  0  0
  140.1540   70.6490  228.3240 C   0  0  0  0  0  0  0  0  0  0  0  0
  140.9060   71.8200  228.4480 C   0  0  0  0  0  0  0  0  0  0  0  0
  141.4540   72.4250  227.3120 C   0  0  0  0  0  0  0  0  0  0  0  0
  141.2500   71.8590  226.0490 C   0  0  0  0  0  0  0  0  0  0  0  0
  139.5140   77.1790  222.0440 C   0  0  0  0  0  0  0  0  0  0  0  0
  138.5780   77.9850  222.7160 C   0  0  0  0  0  0  0  0  0  0  0  0
  138.9940   79.1760  223.3140 C   0  0  0  0  0  0  0  0  0  0  0  0
  140.3400   79.5580  223.2470 C   0  0  0  0  0  0  0  0  0  0  0  0
  140.7910   80.7460  223.8440 C   0  0  0  0  0  0  0  0  0  0  0  0
  142.1440   81.0980  223.7620 C   0  0  0  0  0  0  0  0  0  0  0  0
  142.5810   82.2430  224.3430 F   0  0  0  0  0  0  0  0  0  0  0  0
  143.0470   80.2700  223.0850 C   0  0  0  0  0  0  0  0  0  0  0  0
  142.6020   79.0870  222.4840 C   0  0  0  0  0  0  0  0  0  0  0  0
  141.2520   78.7260  222.5630 C   0  0  0  0  0  0  0  0  0  0  0  0
  140.8170   77.5750  221.9830 N   0  0  0  0  0  0  0  0  0  0  0  0
  138.2440   74.9860  223.1380 H   0  0  0  0  0  0  0  0  0  0  0  0
  137.5705   73.0441  221.7561 H   0  0  0  0  0  0  0  0  0  0  0  0
  138.8097   73.5596  220.5288 H   0  0  0  0  0  0  0  0  0  0  0  0
  138.3526   70.6689  220.7430 H   0  0  0  0  0  0  0  0  0  0  0  0
  139.9941   70.0102  220.8673 H   0  0  0  0  0  0  0  0  0  0  0  0
  139.2448   68.1619  222.1395 H   0  0  0  0  0  0  0  0  0  0  0  0
  137.5660   68.7820  220.4210 H   0  0  0  0  0  0  0  0  0  0  0  0
  137.0375   69.7656  223.4842 H   0  0  0  0  0  0  0  0  0  0  0  0
  138.1489   68.6143  224.2253 H   0  0  0  0  0  0  0  0  0  0  0  0
  138.5705   71.3353  224.5100 H   0  0  0  0  0  0  0  0  0  0  0  0
  140.1775   68.9744  224.6915 H   0  0  0  0  0  0  0  0  0  0  0  0
  141.1526   70.3225  223.9446 H   0  0  0  0  0  0  0  0  0  0  0  0
  139.3514   69.1600  226.9713 H   0  0  0  0  0  0  0  0  0  0  0  0
  139.7269   70.1731  229.2190 H   0  0  0  0  0  0  0  0  0  0  0  0
  141.0673   72.2667  229.4402 H   0  0  0  0  0  0  0  0  0  0  0  0
  142.0459   73.3468  227.4119 H   0  0  0  0  0  0  0  0  0  0  0  0
  141.6874   72.3336  225.1582 H   0  0  0  0  0  0  0  0  0  0  0  0
  137.5229   77.6785  222.7703 H   0  0  0  0  0  0  0  0  0  0  0  0
  138.2659   79.8134  223.8370 H   0  0  0  0  0  0  0  0  0  0  0  0
  140.0829   81.3991  224.3752 H   0  0  0  0  0  0  0  0  0  0  0  0
  144.1091   80.5498  223.0252 H   0  0  0  0  0  0  0  0  0  0  0  0
  143.3135   78.4406  221.9493 H   0  0  0  0  0  0  0  0  0  0  0  0
  1  2  2  0
  2  3  1  0
  3  4  1  0
  4  5  1  0
  5  6  2  0
  5  7  1  0
  7  8  1  0
  8  9  1  0
  9 10  1  0
  9 11  1  0
 11 12  1  0
 12 13  1  0
 13 14  1  0
 14 15  2  0
 15 16  1  0
 16 17  2  0
 17 18  1  0
 18 19  2  0
  2 20  1  0
 20 21  2  0
 21 22  1  0
 22 23  2  0
 23 24  1  0
 24 25  2  0
 25 26  1  0
 25 27  1  0
 27 28  2  0
 28 29  1  0
 29 30  2  0
 12  7  1  0
 19 14  1  0
 30 20  1  0
 29 23  1  0
  3 31  1  0
  4 32  1  0
  4 33  1  0
  8 34  1  0
  8 35  1  0
  9 36  1  1
 10 37  1  0
 11 38  1  0
 11 39  1  0
 12 40  1  1
 13 41  1  0
 13 42  1  0
 15 43  1  0
 16 44  1  0
 17 45  1  0
 18 46  1  0
 19 47  1  0
 21 48  1  0
 22 49  1  0
 24 50  1  0
 27 51  1  0
 28 52  1  0
M  END
>  <UniqueID>  (1) 
21

>  <SMILES>  (1) 
O=C(NCC(=O)N1C[C@H](O)C[C@H]1Cc1ccccc1)c1ccc2cc(F)ccc2n1

>  <Energy>  (1) 
55.921075252568606

>  <Genealogy>  (1) 
O=C(NCC(=O)N1C[C@H](O)C[C@H]1Cc1ccccc1)c1ccc2cc(F)ccc2n1 (3D coordinates assigned)
O=C(NCC(=O)N1C[C@H](O)C[C@H]1Cc1ccccc1)c1ccc2cc(F)ccc2n1 (nonaromatic ring conformer: 55.921075252568606 kcal/mol)

>  <smiles>  (1) 
O=C(NCC(=O)N1C[C@H](O)C[C@H]1Cc1ccccc1)c1ccc2cc(F)ccc2n1

>  <score_type>  (1) 
oracle

>  <origin>  (1) 
autodockgpu

>  <m_score__min__energy>  (1) 
-8.9499999999999993

>  <m_primary>  (1) 
energy

>  <meeko>  (1) 
{"free_energy": -8.79, "intermolecular_energy": -10.87, "internal_energy": -1.17, "cluster_size": 6, "cluster_id": 1, "rank_in_cluster": 3}

>  <energy>  (1) 
-8.95

>  <cluster_rmsd>  (1) 
0.0

>  <rmsd>  (1) 
272.22

>  <cluster>  (1) 
1

$$$$
UYYINUAOVYUWQM-WBADGWMWNA-N
     RDKit          3D

 52 55  0  0  0  0  0  0  0  0999 V2000
  137.3240   71.2810  222.7920 O   0  0  0  0  0  0  0  0  0  0  0  0
  138.5190   71.3360  223.1920 C   0  0  0  0  0  0  0  0  0  0  0  0
  139.4040   72.3290  222.6440 N   0  0  0  0  0  0  0  0  0  0  0  0
  138.8620   73.4960  221.9520 C   0  0  0  0  0  0  0  0  0  0  0  0
  139.9010   74.5610  221.7210 C   0  0  0  0  0  0  0  0  0  0  0  0
  141.1040   74.2580  221.9680 O   0  0  0  0  0  0  0  0  0  0  0  0
  139.6030   75.8770  221.1950 N   0  0  0  0  0  0  0  0  0  0  0  0
  138.6890   76.0170  220.0610 C   0  0  0  0  0  0  0  0  0  0  0  0
  138.8940   77.4290  219.5200 C   0  0  2  0  0  0  0  0  0  0  0  0
  138.9160   77.4270  218.1170 O   0  0  0  0  0  0  0  0  0  0  0  0
  140.2310   77.8790  220.1010 C   0  0  0  0  0  0  0  0  0  0  0  0
  140.3620   77.1130  221.4230 C   0  0  1  0  0  0  0  0  0  0  0  0
  139.7580   77.9460  222.5800 C   0  0  0  0  0  0  0  0  0  0  0  0
  140.5810   79.1540  222.9310 C   0  0  0  0  0  0  0  0  0  0  0  0
  141.8350   79.0010  223.5510 C   0  0  0  0  0  0  0  0  0  0  0  0
  142.6110   80.1220  223.8560 C   0  0  0  0  0  0  0  0  0  0  0  0
  142.1430   81.4020  223.5470 C   0  0  0  0  0  0  0  0  0  0  0  0
  140.9000   81.5640  222.9280 C   0  0  0  0  0  0  0  0  0  0  0  0
  140.1210   80.4440  222.6160 C   0  0  0  0  0  0  0  0  0  0  0  0
  138.9870   70.4000  224.2310 C   0  0  0  0  0  0  0  0  0  0  0  0
  138.7440   69.0210  224.1110 C   0  0  0  0  0  0  0  0  0  0  0  0
  139.1780   68.1510  225.1140 C   0  0  0  0  0  0  0  0  0  0  0  0
  139.8590   68.6570  226.2290 C   0  0  0  0  0  0  0  0  0  0  0  0
  140.3140   67.8090  227.2510 C   0  0  0  0  0  0  0  0  0  0  0  0
  140.9940   68.3450  228.3520 C   0  0  0  0  0  0  0  0  0  0  0  0
  141.4390   67.5260  229.3370 F   0  0  0  0  0  0  0  0  0  0  0  0
  141.2190   69.7240  228.4360 C   0  0  0  0  0  0  0  0  0  0  0  0
  140.7630   70.5750  227.4230 C   0  0  0  0  0  0  0  0  0  0  0  0
  140.0850   70.0480  226.3180 C   0  0  0  0  0  0  0  0  0  0  0  0
  139.6430   70.8710  225.3290 N   0  0  0  0  0  0  0  0  0  0  0  0
  140.4390   72.2190  222.7470 H   0  0  0  0  0  0  0  0  0  0  0  0
  138.4625   73.1753  220.9786 H   0  0  0  0  0  0  0  0  0  0  0  0
  138.0755   73.9276  222.5885 H   0  0  0  0  0  0  0  0  0  0  0  0
  138.9266   75.2735  219.2859 H   0  0  0  0  0  0  0  0  0  0  0  0
  137.6449   75.8523  220.3654 H   0  0  0  0  0  0  0  0  0  0  0  0
  138.0780   78.1094  219.8049 H   0  0  0  0  0  0  0  0  0  0  0  0
  139.8060   77.7770  217.8500 H   0  0  0  0  0  0  0  0  0  0  0  0
  141.0557   77.6209  219.4204 H   0  0  0  0  0  0  0  0  0  0  0  0
  140.2746   78.9685  220.2466 H   0  0  0  0  0  0  0  0  0  0  0  0
  141.4047   76.9074  221.7068 H   0  0  0  0  0  0  0  0  0  0  0  0
  138.7536   78.2815  222.2823 H   0  0  0  0  0  0  0  0  0  0  0  0
  139.7302   77.2992  223.4693 H   0  0  0  0  0  0  0  0  0  0  0  0
  142.2057   77.9948  223.7964 H   0  0  0  0  0  0  0  0  0  0  0  0
  143.5910   79.9970  224.3397 H   0  0  0  0  0  0  0  0  0  0  0  0
  142.7538   82.2837  223.7912 H   0  0  0  0  0  0  0  0  0  0  0  0
  140.5339   82.5727  222.6860 H   0  0  0  0  0  0  0  0  0  0  0  0
  139.1463   80.5737  222.1230 H   0  0  0  0  0  0  0  0  0  0  0  0
  138.2141   68.6283  223.2307 H   0  0  0  0  0  0  0  0  0  0  0  0
  138.9856   67.0713  225.0286 H   0  0  0  0  0  0  0  0  0  0  0  0
  140.1368   66.7252  227.1873 H   0  0  0  0  0  0  0  0  0  0  0  0
  141.7560   70.1401  229.3011 H   0  0  0  0  0  0  0  0  0  0  0  0
  140.9376   71.6586  227.4953 H   0  0  0  0  0  0  0  0  0  0  0  0
  1  2  2  0
  2  3  1  0
  3  4  1  0
  4  5  1  0
  5  6  2  0
  5  7  1  0
  7  8  1  0
  8  9  1  0
  9 10  1  0
  9 11  1  0
 11 12  1  0
 12 13  1  0
 13 14  1  0
 14 15  2  0
 15 16  1  0
 16 17  2  0
 17 18  1  0
 18 19  2  0
  2 20  1  0
 20 21  2  0
 21 22  1  0
 22 23  2  0
 23 24  1  0
 24 25  2  0
 25 26  1  0
 25 27  1  0
 27 28  2  0
 28 29  1  0
 29 30  2  0
 12  7  1  0
 19 14  1  0
 30 20  1  0
 29 23  1  0
  3 31  1  0
  4 32  1  0
  4 33  1  0
  8 34  1  0
  8 35  1  0
  9 36  1  6
 10 37  1  0
 11 38  1  0
 11 39  1  0
 12 40  1  1
 13 41  1  0
 13 42  1  0
 15 43  1  0
 16 44  1  0
 17 45  1  0
 18 46  1  0
 19 47  1  0
 21 48  1  0
 22 49  1  0
 24 50  1  0
 27 51  1  0
 28 52  1  0
M  END
>  <UniqueID>  (2) 
21

>  <SMILES>  (2) 
O=C(NCC(=O)N1C[C@H](O)C[C@H]1Cc1ccccc1)c1ccc2cc(F)ccc2n1

>  <Energy>  (2) 
55.921075252568606

>  <Genealogy>  (2) 
O=C(NCC(=O)N1C[C@H](O)C[C@H]1Cc1ccccc1)c1ccc2cc(F)ccc2n1 (3D coordinates assigned)
O=C(NCC(=O)N1C[C@H](O)C[C@H]1Cc1ccccc1)c1ccc2cc(F)ccc2n1 (nonaromatic ring conformer: 55.921075252568606 kcal/mol)

>  <smiles>  (2) 
O=C(NCC(=O)N1C[C@H](O)C[C@H]1Cc1ccccc1)c1ccc2cc(F)ccc2n1

>  <score_type>  (2) 
oracle

>  <origin>  (2) 
autodockgpu

>  <m_score__min__energy>  (2) 
-8.9499999999999993

>  <m_primary>  (2) 
energy

>  <meeko>  (2) 
{"free_energy": -7.79, "intermolecular_energy": -9.87, "internal_energy": -1.61, "cluster_size": 2, "cluster_id": 4, "rank_in_cluster": 2}

>  <energy>  (2) 
-8.81

>  <cluster_rmsd>  (2) 
1.03

>  <rmsd>  (2) 
272.0

>  <cluster>  (2) 
1

$$$$
UYYINUAOVYUWQM-WBADGWMWNA-N
     RDKit          3D

 52 55  0  0  0  0  0  0  0  0999 V2000
  137.6300   70.8870  222.2140 O   0  0  0  0  0  0  0  0  0  0  0  0
  138.6340   71.2040  222.9100 C   0  0  0  0  0  0  0  0  0  0  0  0
  139.3380   72.4240  222.6240 N   0  0  0  0  0  0  0  0  0  0  0  0
  138.7000   73.4730  221.8320 C   0  0  0  0  0  0  0  0  0  0  0  0
  139.4350   74.7850  221.9190 C   0  0  0  0  0  0  0  0  0  0  0  0
  140.6360   74.7510  222.3130 O   0  0  0  0  0  0  0  0  0  0  0  0
  138.8590   76.0580  221.5340 N   0  0  0  0  0  0  0  0  0  0  0  0
  137.5750   76.0930  220.8340 C   0  0  0  0  0  0  0  0  0  0  0  0
  137.4500   77.4950  220.2430 C   0  0  2  0  0  0  0  0  0  0  0  0
  136.9380   77.4410  218.9370 O   0  0  0  0  0  0  0  0  0  0  0  0
  138.8690   78.0550  220.2660 C   0  0  0  0  0  0  0  0  0  0  0  0
  139.5510   77.3500  221.4450 C   0  0  1  0  0  0  0  0  0  0  0  0
  139.3700   78.1830  222.7380 C   0  0  0  0  0  0  0  0  0  0  0  0
  140.5400   79.0790  223.0310 C   0  0  0  0  0  0  0  0  0  0  0  0
  141.8520   78.6370  222.7750 C   0  0  0  0  0  0  0  0  0  0  0  0
  142.9390   79.4780  223.0270 C   0  0  0  0  0  0  0  0  0  0  0  0
  142.7280   80.7630  223.5350 C   0  0  0  0  0  0  0  0  0  0  0  0
  141.4280   81.2120  223.7890 C   0  0  0  0  0  0  0  0  0  0  0  0
  140.3360   80.3750  223.5340 C   0  0  0  0  0  0  0  0  0  0  0  0
  139.0570   70.3310  224.0220 C   0  0  0  0  0  0  0  0  0  0  0  0
  138.8150   68.9470  223.9750 C   0  0  0  0  0  0  0  0  0  0  0  0
  139.2060   68.1390  225.0440 C   0  0  0  0  0  0  0  0  0  0  0  0
  139.8420   68.7100  226.1540 C   0  0  0  0  0  0  0  0  0  0  0  0
  140.2540   67.9250  227.2420 C   0  0  0  0  0  0  0  0  0  0  0  0
  140.8900   68.5260  228.3350 C   0  0  0  0  0  0  0  0  0  0  0  0
  141.2920   67.7670  229.3850 F   0  0  0  0  0  0  0  0  0  0  0  0
  141.1150   69.9080  228.3470 C   0  0  0  0  0  0  0  0  0  0  0  0
  140.7020   70.6960  227.2670 C   0  0  0  0  0  0  0  0  0  0  0  0
  140.0680   70.1040  226.1690 C   0  0  0  0  0  0  0  0  0  0  0  0
  139.6690   70.8670  225.1150 N   0  0  0  0  0  0  0  0  0  0  0  0
  140.3070   72.5660  222.9910 H   0  0  0  0  0  0  0  0  0  0  0  0
  138.6712   73.1532  220.7799 H   0  0  0  0  0  0  0  0  0  0  0  0
  137.6878   73.6281  222.2338 H   0  0  0  0  0  0  0  0  0  0  0  0
  137.5564   75.3387  220.0335 H   0  0  0  0  0  0  0  0  0  0  0  0
  136.7409   75.8695  221.5154 H   0  0  0  0  0  0  0  0  0  0  0  0
  136.7538   78.1295  220.8111 H   0  0  0  0  0  0  0  0  0  0  0  0
  136.0400   77.8640  218.9710 H   0  0  0  0  0  0  0  0  0  0  0  0
  139.3904   77.8274  219.3246 H   0  0  0  0  0  0  0  0  0  0  0  0
  138.8811   79.1496  220.3742 H   0  0  0  0  0  0  0  0  0  0  0  0
  140.6359   77.2264  221.3119 H   0  0  0  0  0  0  0  0  0  0  0  0
  138.4702   78.8064  222.6296 H   0  0  0  0  0  0  0  0  0  0  0  0
  139.2821   77.4745  223.5748 H   0  0  0  0  0  0  0  0  0  0  0  0
  142.0219   77.6264  222.3753 H   0  0  0  0  0  0  0  0  0  0  0  0
  143.9623   79.1283  222.8253 H   0  0  0  0  0  0  0  0  0  0  0  0
  143.5856   81.4221  223.7353 H   0  0  0  0  0  0  0  0  0  0  0  0
  141.2639   82.2233  224.1893 H   0  0  0  0  0  0  0  0  0  0  0  0
  139.3141   80.7330  223.7280 H   0  0  0  0  0  0  0  0  0  0  0  0
  138.3195   68.5025  223.0993 H   0  0  0  0  0  0  0  0  0  0  0  0
  139.0151   67.0561  225.0149 H   0  0  0  0  0  0  0  0  0  0  0  0
  140.0775   66.8393  227.2360 H   0  0  0  0  0  0  0  0  0  0  0  0
  141.6173   70.3750  229.2070 H   0  0  0  0  0  0  0  0  0  0  0  0
  140.8759   71.7821  227.2811 H   0  0  0  0  0  0  0  0  0  0  0  0
  1  2  2  0
  2  3  1  0
  3  4  1  0
  4  5  1  0
  5  6  2  0
  5  7  1  0
  7  8  1  0
  8  9  1  0
  9 10  1  0
  9 11  1  0
 11 12  1  0
 12 13  1  0
 13 14  1  0
 14 15  2  0
 15 16  1  0
 16 17  2  0
 17 18  1  0
 18 19  2  0
  2 20  1  0
 20 21  2  0
 21 22  1  0
 22 23  2  0
 23 24  1  0
 24 25  2  0
 25 26  1  0
 25 27  1  0
 27 28  2  0
 28 29  1  0
 29 30  2  0
 12  7  1  0
 19 14  1  0
 30 20  1  0
 29 23  1  0
  3 31  1  0
  4 32  1  0
  4 33  1  0
  8 34  1  0
  8 35  1  0
  9 36  1  1
 10 37  1  0
 11 38  1  0
 11 39  1  0
 12 40  1  6
 13 41  1  0
 13 42  1  0
 15 43  1  0
 16 44  1  0
 17 45  1  0
 18 46  1  0
 19 47  1  0
 21 48  1  0
 22 49  1  0
 24 50  1  0
 27 51  1  0
 28 52  1  0
M  END
>  <UniqueID>  (3) 
21

>  <SMILES>  (3) 
O=C(NCC(=O)N1C[C@H](O)C[C@H]1Cc1ccccc1)c1ccc2cc(F)ccc2n1

>  <Energy>  (3) 
55.921075252568606

>  <Genealogy>  (3) 
O=C(NCC(=O)N1C[C@H](O)C[C@H]1Cc1ccccc1)c1ccc2cc(F)ccc2n1 (3D coordinates assigned)
O=C(NCC(=O)N1C[C@H](O)C[C@H]1Cc1ccccc1)c1ccc2cc(F)ccc2n1 (nonaromatic ring conformer: 55.921075252568606 kcal/mol)

>  <smiles>  (3) 
O=C(NCC(=O)N1C[C@H](O)C[C@H]1Cc1ccccc1)c1ccc2cc(F)ccc2n1

>  <score_type>  (3) 
oracle

>  <origin>  (3) 
autodockgpu

>  <m_score__min__energy>  (3) 
-8.9499999999999993

>  <m_primary>  (3) 
energy

>  <meeko>  (3) 
{"free_energy": -7.9, "intermolecular_energy": -9.99, "internal_energy": -1.65, "cluster_size": 2, "cluster_id": 4, "rank_in_cluster": 1}

>  <energy>  (3) 
-8.79

>  <cluster_rmsd>  (3) 
0.91

>  <rmsd>  (3) 
271.99

>  <cluster>  (3) 
1

$$$$
UYYINUAOVYUWQM-WBADGWMWNA-N
     RDKit          3D

 52 55  0  0  0  0  0  0  0  0999 V2000
  141.3420   72.0590  221.5110 O   0  0  0  0  0  0  0  0  0  0  0  0
  140.4950   72.3600  222.3960 C   0  0  0  0  0  0  0  0  0  0  0  0
  139.7360   73.5740  222.2650 N   0  0  0  0  0  0  0  0  0  0  0  0
  139.6370   74.2450  220.9710 C   0  0  0  0  0  0  0  0  0  0  0  0
  140.1210   75.6690  221.0240 C   0  0  0  0  0  0  0  0  0  0  0  0
  139.6520   76.4070  221.9390 O   0  0  0  0  0  0  0  0  0  0  0  0
  141.1170   76.2160  220.1250 N   0  0  0  0  0  0  0  0  0  0  0  0
  141.3780   75.5600  218.8440 C   0  0  0  0  0  0  0  0  0  0  0  0
  142.7020   76.1260  218.3370 C   0  0  2  0  0  0  0  0  0  0  0  0
  143.5030   75.1080  217.7960 O   0  0  0  0  0  0  0  0  0  0  0  0
  143.3510   76.7570  219.5640 C   0  0  0  0  0  0  0  0  0  0  0  0
  142.1770   77.1760  220.4580 C   0  0  1  0  0  0  0  0  0  0  0  0
  141.7530   78.6290  220.1290 C   0  0  0  0  0  0  0  0  0  0  0  0
  141.8180   79.5460  221.3190 C   0  0  0  0  0  0  0  0  0  0  0  0
  141.4980   80.9100  221.1800 C   0  0  0  0  0  0  0  0  0  0  0  0
  141.5370   81.7580  222.2900 C   0  0  0  0  0  0  0  0  0  0  0  0
  141.8940   81.2550  223.5440 C   0  0  0  0  0  0  0  0  0  0  0  0
  142.2100   79.9000  223.6920 C   0  0  0  0  0  0  0  0  0  0  0  0
  142.1680   79.0460  222.5850 C   0  0  0  0  0  0  0  0  0  0  0  0
  140.2760   71.4520  223.5380 C   0  0  0  0  0  0  0  0  0  0  0  0
  139.5940   70.2350  223.3630 C   0  0  0  0  0  0  0  0  0  0  0  0
  139.3810   69.3980  224.4590 C   0  0  0  0  0  0  0  0  0  0  0  0
  139.8530   69.7700  225.7240 C   0  0  0  0  0  0  0  0  0  0  0  0
  139.6610   68.9470  226.8460 C   0  0  0  0  0  0  0  0  0  0  0  0
  140.1470   69.3470  228.0960 C   0  0  0  0  0  0  0  0  0  0  0  0
  139.9660   68.5500  229.1790 F   0  0  0  0  0  0  0  0  0  0  0  0
  140.8230   70.5650  228.2320 C   0  0  0  0  0  0  0  0  0  0  0  0
  141.0130   71.3920  227.1190 C   0  0  0  0  0  0  0  0  0  0  0  0
  140.5330   70.9990  225.8650 C   0  0  0  0  0  0  0  0  0  0  0  0
  140.7190   71.7990  224.7790 N   0  0  0  0  0  0  0  0  0  0  0  0
  139.2450   73.9740  223.0980 H   0  0  0  0  0  0  0  0  0  0  0  0
  140.2447   73.6925  220.2393 H   0  0  0  0  0  0  0  0  0  0  0  0
  138.5756   74.2623  220.6828 H   0  0  0  0  0  0  0  0  0  0  0  0
  141.4567   74.4715  218.9821 H   0  0  0  0  0  0  0  0  0  0  0  0
  140.5637   75.7423  218.1273 H   0  0  0  0  0  0  0  0  0  0  0  0
  142.5634   76.8594  217.5290 H   0  0  0  0  0  0  0  0  0  0  0  0
  144.4450   75.4040  217.9080 H   0  0  0  0  0  0  0  0  0  0  0  0
  143.9910   76.0275  220.0819 H   0  0  0  0  0  0  0  0  0  0  0  0
  143.9960   77.6082  219.3005 H   0  0  0  0  0  0  0  0  0  0  0  0
  142.4188   77.1643  221.5310 H   0  0  0  0  0  0  0  0  0  0  0  0
  142.4217   79.0206  219.3483 H   0  0  0  0  0  0  0  0  0  0  0  0
  140.7051   78.5976  219.7959 H   0  0  0  0  0  0  0  0  0  0  0  0
  141.2164   81.3094  220.1945 H   0  0  0  0  0  0  0  0  0  0  0  0
  141.2863   82.8230  222.1765 H   0  0  0  0  0  0  0  0  0  0  0  0
  141.9266   81.9251  224.4157 H   0  0  0  0  0  0  0  0  0  0  0  0
  142.4917   79.5061  224.6797 H   0  0  0  0  0  0  0  0  0  0  0  0
  142.4097   77.9797  222.7057 H   0  0  0  0  0  0  0  0  0  0  0  0
  139.2300   69.9440  222.3666 H   0  0  0  0  0  0  0  0  0  0  0  0
  138.8431   68.4473  224.3296 H   0  0  0  0  0  0  0  0  0  0  0  0
  139.1294   67.9895  226.7423 H   0  0  0  0  0  0  0  0  0  0  0  0
  141.2059   70.8730  229.2161 H   0  0  0  0  0  0  0  0  0  0  0  0
  141.5399   72.3512  227.2302 H   0  0  0  0  0  0  0  0  0  0  0  0
  1  2  2  0
  2  3  1  0
  3  4  1  0
  4  5  1  0
  5  6  2  0
  5  7  1  0
  7  8  1  0
  8  9  1  0
  9 10  1  0
  9 11  1  0
 11 12  1  0
 12 13  1  0
 13 14  1  0
 14 15  2  0
 15 16  1  0
 16 17  2  0
 17 18  1  0
 18 19  2  0
  2 20  1  0
 20 21  2  0
 21 22  1  0
 22 23  2  0
 23 24  1  0
 24 25  2  0
 25 26  1  0
 25 27  1  0
 27 28  2  0
 28 29  1  0
 29 30  2  0
 12  7  1  0
 19 14  1  0
 30 20  1  0
 29 23  1  0
  3 31  1  0
  4 32  1  0
  4 33  1  0
  8 34  1  0
  8 35  1  0
  9 36  1  6
 10 37  1  0
 11 38  1  0
 11 39  1  0
 12 40  1  1
 13 41  1  0
 13 42  1  0
 15 43  1  0
 16 44  1  0
 17 45  1  0
 18 46  1  0
 19 47  1  0
 21 48  1  0
 22 49  1  0
 24 50  1  0
 27 51  1  0
 28 52  1  0
M  END
>  <UniqueID>  (4) 
21

>  <SMILES>  (4) 
O=C(NCC(=O)N1C[C@H](O)C[C@H]1Cc1ccccc1)c1ccc2cc(F)ccc2n1

>  <Energy>  (4) 
55.921075252568606

>  <Genealogy>  (4) 
O=C(NCC(=O)N1C[C@H](O)C[C@H]1Cc1ccccc1)c1ccc2cc(F)ccc2n1 (3D coordinates assigned)
O=C(NCC(=O)N1C[C@H](O)C[C@H]1Cc1ccccc1)c1ccc2cc(F)ccc2n1 (nonaromatic ring conformer: 55.921075252568606 kcal/mol)

>  <smiles>  (4) 
O=C(NCC(=O)N1C[C@H](O)C[C@H]1Cc1ccccc1)c1ccc2cc(F)ccc2n1

>  <score_type>  (4) 
oracle

>  <origin>  (4) 
autodockgpu

>  <m_score__min__energy>  (4) 
-8.9499999999999993

>  <m_primary>  (4) 
energy

>  <meeko>  (4) 
{"free_energy": -8.87, "intermolecular_energy": -10.95, "internal_energy": -1.32, "cluster_size": 5, "cluster_id": 2, "rank_in_cluster": 2}

>  <energy>  (4) 
-8.26

>  <cluster_rmsd>  (4) 
1.26

>  <rmsd>  (4) 
271.68

>  <cluster>  (4) 
1

$$$$
UYYINUAOVYUWQM-WBADGWMWNA-N
     RDKit          3D

 52 55  0  0  0  0  0  0  0  0999 V2000
  139.5460   74.4020  220.0820 O   0  0  0  0  0  0  0  0  0  0  0  0
  139.4090   75.0180  221.1750 C   0  0  0  0  0  0  0  0  0  0  0  0
  138.5920   74.4460  222.2110 N   0  0  0  0  0  0  0  0  0  0  0  0
  138.2530   73.0260  222.1820 C   0  0  0  0  0  0  0  0  0  0  0  0
  139.4300   72.1480  222.5130 C   0  0  0  0  0  0  0  0  0  0  0  0
  140.5470   72.7160  222.6830 O   0  0  0  0  0  0  0  0  0  0  0  0
  139.3390   70.7120  222.6920 N   0  0  0  0  0  0  0  0  0  0  0  0
  139.2920   69.8360  221.5220 C   0  0  0  0  0  0  0  0  0  0  0  0
  138.8130   68.4770  222.0260 C   0  0  2  0  0  0  0  0  0  0  0  0
  137.8780   67.9190  221.1410 O   0  0  0  0  0  0  0  0  0  0  0  0
  138.1920   68.7640  223.3900 C   0  0  0  0  0  0  0  0  0  0  0  0
  138.9410   69.9970  223.9110 C   0  0  1  0  0  0  0  0  0  0  0  0
  140.1730   69.5570  224.7400 C   0  0  0  0  0  0  0  0  0  0  0  0
  140.3540   70.3590  225.9990 C   0  0  0  0  0  0  0  0  0  0  0  0
  141.1500   71.5190  225.9910 C   0  0  0  0  0  0  0  0  0  0  0  0
  141.3010   72.2770  227.1550 C   0  0  0  0  0  0  0  0  0  0  0  0
  140.6600   71.8850  228.3340 C   0  0  0  0  0  0  0  0  0  0  0  0
  139.8630   70.7350  228.3500 C   0  0  0  0  0  0  0  0  0  0  0  0
  139.7060   69.9750  227.1860 C   0  0  0  0  0  0  0  0  0  0  0  0
  140.1060   76.3010  221.3840 C   0  0  0  0  0  0  0  0  0  0  0  0
  141.2220   76.6430  220.6000 C   0  0  0  0  0  0  0  0  0  0  0  0
  141.8800   77.8530  220.8250 C   0  0  0  0  0  0  0  0  0  0  0  0
  141.4210   78.7220  221.8230 C   0  0  0  0  0  0  0  0  0  0  0  0
  142.0570   79.9500  222.0690 C   0  0  0  0  0  0  0  0  0  0  0  0
  141.5720   80.7980  223.0730 C   0  0  0  0  0  0  0  0  0  0  0  0
  142.1820   81.9860  223.3080 F   0  0  0  0  0  0  0  0  0  0  0  0
  140.4570   80.4240  223.8320 C   0  0  0  0  0  0  0  0  0  0  0  0
  139.8220   79.2000  223.5950 C   0  0  0  0  0  0  0  0  0  0  0  0
  140.2980   78.3470  222.5920 C   0  0  0  0  0  0  0  0  0  0  0  0
  139.6820   77.1570  222.3560 N   0  0  0  0  0  0  0  0  0  0  0  0
  138.2450   75.0480  222.9930 H   0  0  0  0  0  0  0  0  0  0  0  0
  137.4550   72.8383  222.9155 H   0  0  0  0  0  0  0  0  0  0  0  0
  137.9278   72.7797  221.1605 H   0  0  0  0  0  0  0  0  0  0  0  0
  138.5898   70.2348  220.7751 H   0  0  0  0  0  0  0  0  0  0  0  0
  140.2772   69.7596  221.0388 H   0  0  0  0  0  0  0  0  0  0  0  0
  139.6304   67.7445  222.0981 H   0  0  0  0  0  0  0  0  0  0  0  0
  138.0550   68.3260  220.2530 H   0  0  0  0  0  0  0  0  0  0  0  0
  137.1176   68.9774  223.2893 H   0  0  0  0  0  0  0  0  0  0  0  0
  138.2782   67.9066  224.0737 H   0  0  0  0  0  0  0  0  0  0  0  0
  138.3341   70.6278  224.5771 H   0  0  0  0  0  0  0  0  0  0  0  0
  140.0509   68.4986  225.0137 H   0  0  0  0  0  0  0  0  0  0  0  0
  141.0638   69.7210  224.1158 H   0  0  0  0  0  0  0  0  0  0  0  0
  141.6554   71.8304  225.0649 H   0  0  0  0  0  0  0  0  0  0  0  0
  141.9248   73.1830  227.1437 H   0  0  0  0  0  0  0  0  0  0  0  0
  140.7824   72.4814  229.2502 H   0  0  0  0  0  0  0  0  0  0  0  0
  139.3595   70.4283  229.2786 H   0  0  0  0  0  0  0  0  0  0  0  0
  139.0740   69.0748  227.1996 H   0  0  0  0  0  0  0  0  0  0  0  0
  141.5747   75.9601  219.8131 H   0  0  0  0  0  0  0  0  0  0  0  0
  142.7576   78.1238  220.2196 H   0  0  0  0  0  0  0  0  0  0  0  0
  142.9342   80.2452  221.4745 H   0  0  0  0  0  0  0  0  0  0  0  0
  140.0787   81.0947  224.6175 H   0  0  0  0  0  0  0  0  0  0  0  0
  138.9488   78.9078  224.1967 H   0  0  0  0  0  0  0  0  0  0  0  0
  1  2  2  0
  2  3  1  0
  3  4  1  0
  4  5  1  0
  5  6  2  0
  5  7  1  0
  7  8  1  0
  8  9  1  0
  9 10  1  0
  9 11  1  0
 11 12  1  0
 12 13  1  0
 13 14  1  0
 14 15  2  0
 15 16  1  0
 16 17  2  0
 17 18  1  0
 18 19  2  0
  2 20  1  0
 20 21  2  0
 21 22  1  0
 22 23  2  0
 23 24  1  0
 24 25  2  0
 25 26  1  0
 25 27  1  0
 27 28  2  0
 28 29  1  0
 29 30  2  0
 12  7  1  0
 19 14  1  0
 30 20  1  0
 29 23  1  0
  3 31  1  0
  4 32  1  0
  4 33  1  0
  8 34  1  0
  8 35  1  0
  9 36  1  1
 10 37  1  0
 11 38  1  0
 11 39  1  0
 12 40  1  1
 13 41  1  0
 13 42  1  0
 15 43  1  0
 16 44  1  0
 17 45  1  0
 18 46  1  0
 19 47  1  0
 21 48  1  0
 22 49  1  0
 24 50  1  0
 27 51  1  0
 28 52  1  0
M  END
>  <UniqueID>  (5) 
21

>  <SMILES>  (5) 
O=C(NCC(=O)N1C[C@H](O)C[C@H]1Cc1ccccc1)c1ccc2cc(F)ccc2n1

>  <Energy>  (5) 
55.921075252568606

>  <Genealogy>  (5) 
O=C(NCC(=O)N1C[C@H](O)C[C@H]1Cc1ccccc1)c1ccc2cc(F)ccc2n1 (3D coordinates assigned)
O=C(NCC(=O)N1C[C@H](O)C[C@H]1Cc1ccccc1)c1ccc2cc(F)ccc2n1 (nonaromatic ring conformer: 55.921075252568606 kcal/mol)

>  <smiles>  (5) 
O=C(NCC(=O)N1C[C@H](O)C[C@H]1Cc1ccccc1)c1ccc2cc(F)ccc2n1

>  <score_type>  (5) 
oracle

>  <origin>  (5) 
autodockgpu

>  <m_score__min__energy>  (5) 
-8.9499999999999993

>  <m_primary>  (5) 
energy

>  <meeko>  (5) 
{"free_energy": -8.12, "intermolecular_energy": -10.2, "internal_energy": -1.48, "cluster_size": 6, "cluster_id": 1, "rank_in_cluster": 6}

>  <energy>  (5) 
-8.17

>  <cluster_rmsd>  (5) 
1.21

>  <rmsd>  (5) 
271.8

>  <cluster>  (5) 
1

$$$$
UYYINUAOVYUWQM-WBADGWMWNA-N
     RDKit          3D

 52 55  0  0  0  0  0  0  0  0999 V2000
  139.7760   74.1700  221.9820 O   0  0  0  0  0  0  0  0  0  0  0  0
  140.1140   75.3860  221.9610 C   0  0  0  0  0  0  0  0  0  0  0  0
  141.4430   75.7440  221.5460 N   0  0  0  0  0  0  0  0  0  0  0  0
  142.2570   74.7980  220.7870 C   0  0  0  0  0  0  0  0  0  0  0  0
  142.9590   75.4470  219.6240 C   0  0  0  0  0  0  0  0  0  0  0  0
  144.0310   74.9090  219.2210 O   0  0  0  0  0  0  0  0  0  0  0  0
  142.4520   76.6100  218.9250 N   0  0  0  0  0  0  0  0  0  0  0  0
  142.0840   76.5070  217.5130 C   0  0  0  0  0  0  0  0  0  0  0  0
  141.9750   77.9380  216.9950 C   0  0  2  0  0  0  0  0  0  0  0  0
  142.5560   78.0530  215.7230 O   0  0  0  0  0  0  0  0  0  0  0  0
  142.7130   78.7840  218.0280 C   0  0  0  0  0  0  0  0  0  0  0  0
  142.5660   78.0130  219.3450 C   0  0  1  0  0  0  0  0  0  0  0  0
  141.2970   78.4860  220.0970 C   0  0  0  0  0  0  0  0  0  0  0  0
  141.5970   79.4460  221.2140 C   0  0  0  0  0  0  0  0  0  0  0  0
  142.2610   79.0000  222.3720 C   0  0  0  0  0  0  0  0  0  0  0  0
  142.5600   79.8960  223.4020 C   0  0  0  0  0  0  0  0  0  0  0  0
  142.1990   81.2410  223.2860 C   0  0  0  0  0  0  0  0  0  0  0  0
  141.5420   81.6940  222.1370 C   0  0  0  0  0  0  0  0  0  0  0  0
  141.2450   80.8020  221.1020 C   0  0  0  0  0  0  0  0  0  0  0  0
  139.1360   76.4230  222.3400 C   0  0  0  0  0  0  0  0  0  0  0  0
  137.7570   76.1850  222.2110 C   0  0  0  0  0  0  0  0  0  0  0  0
  136.8460   77.1860  222.5570 C   0  0  0  0  0  0  0  0  0  0  0  0
  137.3110   78.4170  223.0370 C   0  0  0  0  0  0  0  0  0  0  0  0
  136.4220   79.4410  223.4000 C   0  0  0  0  0  0  0  0  0  0  0  0
  136.9190   80.6590  223.8790 C   0  0  0  0  0  0  0  0  0  0  0  0
  136.0600   81.6470  224.2350 F   0  0  0  0  0  0  0  0  0  0  0  0
  138.3000   80.8600  223.9950 C   0  0  0  0  0  0  0  0  0  0  0  0
  139.1910   79.8440  223.6300 C   0  0  0  0  0  0  0  0  0  0  0  0
  138.7030   78.6230  223.1530 C   0  0  0  0  0  0  0  0  0  0  0  0
  139.5670   77.6320  222.8000 N   0  0  0  0  0  0  0  0  0  0  0  0
  141.8260   76.6890  221.7810 H   0  0  0  0  0  0  0  0  0  0  0  0
  143.0129   74.3647  221.4584 H   0  0  0  0  0  0  0  0  0  0  0  0
  141.5849   74.0261  220.3840 H   0  0  0  0  0  0  0  0  0  0  0  0
  142.8579   75.9581  216.9565 H   0  0  0  0  0  0  0  0  0  0  0  0
  141.1375   75.9615  217.3846 H   0  0  0  0  0  0  0  0  0  0  0  0
  140.9307   78.2627  216.8764 H   0  0  0  0  0  0  0  0  0  0  0  0
  143.3270   78.6720  215.8220 H   0  0  0  0  0  0  0  0  0  0  0  0
  143.7739   78.8882  217.7566 H   0  0  0  0  0  0  0  0  0  0  0  0
  142.3055   79.8034  218.0966 H   0  0  0  0  0  0  0  0  0  0  0  0
  143.4068   78.1672  220.0373 H   0  0  0  0  0  0  0  0  0  0  0  0
  140.6289   78.9830  219.3782 H   0  0  0  0  0  0  0  0  0  0  0  0
  140.8308   77.5963  220.5455 H   0  0  0  0  0  0  0  0  0  0  0  0
  142.5458   77.9417  222.4668 H   0  0  0  0  0  0  0  0  0  0  0  0
  143.0798   79.5423  224.3046 H   0  0  0  0  0  0  0  0  0  0  0  0
  142.4317   81.9444  224.0991 H   0  0  0  0  0  0  0  0  0  0  0  0
  141.2587   82.7531  222.0477 H   0  0  0  0  0  0  0  0  0  0  0  0
  140.7341   81.1628  220.1971 H   0  0  0  0  0  0  0  0  0  0  0  0
  137.3964   75.2146  221.8391 H   0  0  0  0  0  0  0  0  0  0  0  0
  135.7655   77.0078  222.4527 H   0  0  0  0  0  0  0  0  0  0  0  0
  135.3368   79.2867  223.3082 H   0  0  0  0  0  0  0  0  0  0  0  0
  138.6854   81.8182  224.3737 H   0  0  0  0  0  0  0  0  0  0  0  0
  140.2754   80.0059  223.7183 H   0  0  0  0  0  0  0  0  0  0  0  0
  1  2  2  0
  2  3  1  0
  3  4  1  0
  4  5  1  0
  5  6  2  0
  5  7  1  0
  7  8  1  0
  8  9  1  0
  9 10  1  0
  9 11  1  0
 11 12  1  0
 12 13  1  0
 13 14  1  0
 14 15  2  0
 15 16  1  0
 16 17  2  0
 17 18  1  0
 18 19  2  0
  2 20  1  0
 20 21  2  0
 21 22  1  0
 22 23  2  0
 23 24  1  0
 24 25  2  0
 25 26  1  0
 25 27  1  0
 27 28  2  0
 28 29  1  0
 29 30  2  0
 12  7  1  0
 19 14  1  0
 30 20  1  0
 29 23  1  0
  3 31  1  0
  4 32  1  0
  4 33  1  0
  8 34  1  0
  8 35  1  0
  9 36  1  6
 10 37  1  0
 11 38  1  0
 11 39  1  0
 12 40  1  1
 13 41  1  0
 13 42  1  0
 15 43  1  0
 16 44  1  0
 17 45  1  0
 18 46  1  0
 19 47  1  0
 21 48  1  0
 22 49  1  0
 24 50  1  0
 27 51  1  0
 28 52  1  0
M  END
>  <UniqueID>  (6) 
21

>  <SMILES>  (6) 
O=C(NCC(=O)N1C[C@H](O)C[C@H]1Cc1ccccc1)c1ccc2cc(F)ccc2n1

>  <Energy>  (6) 
55.921075252568606

>  <Genealogy>  (6) 
O=C(NCC(=O)N1C[C@H](O)C[C@H]1Cc1ccccc1)c1ccc2cc(F)ccc2n1 (3D coordinates assigned)
O=C(NCC(=O)N1C[C@H](O)C[C@H]1Cc1ccccc1)c1ccc2cc(F)ccc2n1 (nonaromatic ring conformer: 55.921075252568606 kcal/mol)

>  <smiles>  (6) 
O=C(NCC(=O)N1C[C@H](O)C[C@H]1Cc1ccccc1)c1ccc2cc(F)ccc2n1

>  <score_type>  (6) 
oracle

>  <origin>  (6) 
autodockgpu

>  <m_score__min__energy>  (6) 
-8.9499999999999993

>  <m_primary>  (6) 
energy

>  <meeko>  (6) 
{"free_energy": -7.06, "intermolecular_energy": -9.15, "internal_energy": -2.54, "cluster_size": 3, "cluster_id": 6, "rank_in_cluster": 3}

>  <energy>  (6) 
-8.12

>  <cluster_rmsd>  (6) 
1.24

>  <rmsd>  (6) 
271.68

>  <cluster>  (6) 
1

$$$$
UYYINUAOVYUWQM-WBADGWMWNA-N
     RDKit          3D

 52 55  0  0  0  0  0  0  0  0999 V2000
  139.6370   75.6100  220.3760 O   0  0  0  0  0  0  0  0  0  0  0  0
  139.2780   75.8720  221.5580 C   0  0  0  0  0  0  0  0  0  0  0  0
  138.5250   74.8980  222.3000 N   0  0  0  0  0  0  0  0  0  0  0  0
  138.5100   73.5000  221.8780 C   0  0  0  0  0  0  0  0  0  0  0  0
  139.7320   72.7490  222.3370 C   0  0  0  0  0  0  0  0  0  0  0  0
  140.8520   73.3180  222.1860 O   0  0  0  0  0  0  0  0  0  0  0  0
  139.6870   71.4490  222.9740 N   0  0  0  0  0  0  0  0  0  0  0  0
  139.5390   70.2440  222.1590 C   0  0  0  0  0  0  0  0  0  0  0  0
  139.1380   69.1260  223.1180 C   0  0  2  0  0  0  0  0  0  0  0  0
  138.1300   68.3260  222.5570 O   0  0  0  0  0  0  0  0  0  0  0  0
  138.6510   69.8450  224.3720 C   0  0  0  0  0  0  0  0  0  0  0  0
  139.4250   71.1690  224.3920 C   0  0  1  0  0  0  0  0  0  0  0  0
  140.7420   71.0000  225.1900 C   0  0  0  0  0  0  0  0  0  0  0  0
  140.6310   70.0000  226.3070 C   0  0  0  0  0  0  0  0  0  0  0  0
  141.1610   68.7050  226.1530 C   0  0  0  0  0  0  0  0  0  0  0  0
  141.0780   67.7820  227.1980 C   0  0  0  0  0  0  0  0  0  0  0  0
  140.4660   68.1410  228.4030 C   0  0  0  0  0  0  0  0  0  0  0  0
  139.9390   69.4260  228.5660 C   0  0  0  0  0  0  0  0  0  0  0  0
  140.0240   70.3550  227.5240 C   0  0  0  0  0  0  0  0  0  0  0  0
  139.6560   77.1600  222.1680 C   0  0  0  0  0  0  0  0  0  0  0  0
  138.6750   78.0060  222.7150 C   0  0  0  0  0  0  0  0  0  0  0  0
  139.0480   79.2300  223.2720 C   0  0  0  0  0  0  0  0  0  0  0  0
  140.3980   79.6060  223.2900 C   0  0  0  0  0  0  0  0  0  0  0  0
  140.8080   80.8270  223.8480 C   0  0  0  0  0  0  0  0  0  0  0  0
  142.1650   81.1720  223.8530 C   0  0  0  0  0  0  0  0  0  0  0  0
  142.5620   82.3490  224.3970 F   0  0  0  0  0  0  0  0  0  0  0  0
  143.1140   80.3030  223.3000 C   0  0  0  0  0  0  0  0  0  0  0  0
  142.7110   79.0870  222.7380 C   0  0  0  0  0  0  0  0  0  0  0  0
  141.3570   78.7330  222.7310 C   0  0  0  0  0  0  0  0  0  0  0  0
  140.9610   77.5490  222.1870 N   0  0  0  0  0  0  0  0  0  0  0  0
  137.9910   75.1900  223.1510 H   0  0  0  0  0  0  0  0  0  0  0  0
  137.6176   73.0135  222.2986 H   0  0  0  0  0  0  0  0  0  0  0  0
  138.4982   73.4816  220.7782 H   0  0  0  0  0  0  0  0  0  0  0  0
  138.7582   70.3919  221.3984 H   0  0  0  0  0  0  0  0  0  0  0  0
  140.4723   70.0017  221.6297 H   0  0  0  0  0  0  0  0  0  0  0  0
  139.9719   68.4436  223.3394 H   0  0  0  0  0  0  0  0  0  0  0  0
  138.0710   68.5800  221.5990 H   0  0  0  0  0  0  0  0  0  0  0  0
  137.5682   70.0303  224.3162 H   0  0  0  0  0  0  0  0  0  0  0  0
  138.8210   69.2516  225.2825 H   0  0  0  0  0  0  0  0  0  0  0  0
  138.8756   71.9888  224.8778 H   0  0  0  0  0  0  0  0  0  0  0  0
  141.5298   70.6664  224.4986 H   0  0  0  0  0  0  0  0  0  0  0  0
  140.9775   71.9739  225.6440 H   0  0  0  0  0  0  0  0  0  0  0  0
  141.6423   68.4189  225.2062 H   0  0  0  0  0  0  0  0  0  0  0  0
  141.4945   66.7716  227.0730 H   0  0  0  0  0  0  0  0  0  0  0  0
  140.3991   67.4117  229.2237 H   0  0  0  0  0  0  0  0  0  0  0  0
  139.4573   69.7063  229.5144 H   0  0  0  0  0  0  0  0  0  0  0  0
  139.6144   71.3671  227.6574 H   0  0  0  0  0  0  0  0  0  0  0  0
  137.6173   77.7041  222.7039 H   0  0  0  0  0  0  0  0  0  0  0  0
  138.2840   79.8983  223.6960 H   0  0  0  0  0  0  0  0  0  0  0  0
  140.0641   81.5120  224.2809 H   0  0  0  0  0  0  0  0  0  0  0  0
  144.1792   80.5774  223.3076 H   0  0  0  0  0  0  0  0  0  0  0  0
  143.4588   78.4086  222.3013 H   0  0  0  0  0  0  0  0  0  0  0  0
  1  2  2  0
  2  3  1  0
  3  4  1  0
  4  5  1  0
  5  6  2  0
  5  7  1  0
  7  8  1  0
  8  9  1  0
  9 10  1  0
  9 11  1  0
 11 12  1  0
 12 13  1  0
 13 14  1  0
 14 15  2  0
 15 16  1  0
 16 17  2  0
 17 18  1  0
 18 19  2  0
  2 20  1  0
 20 21  2  0
 21 22  1  0
 22 23  2  0
 23 24  1  0
 24 25  2  0
 25 26  1  0
 25 27  1  0
 27 28  2  0
 28 29  1  0
 29 30  2  0
 12  7  1  0
 19 14  1  0
 30 20  1  0
 29 23  1  0
  3 31  1  0
  4 32  1  0
  4 33  1  0
  8 34  1  0
  8 35  1  0
  9 36  1  1
 10 37  1  0
 11 38  1  0
 11 39  1  0
 12 40  1  1
 13 41  1  0
 13 42  1  0
 15 43  1  0
 16 44  1  0
 17 45  1  0
 18 46  1  0
 19 47  1  0
 21 48  1  0
 22 49  1  0
 24 50  1  0
 27 51  1  0
 28 52  1  0
M  END
>  <UniqueID>  (7) 
21

>  <SMILES>  (7) 
O=C(NCC(=O)N1C[C@H](O)C[C@H]1Cc1ccccc1)c1ccc2cc(F)ccc2n1

>  <Energy>  (7) 
55.921075252568606

>  <Genealogy>  (7) 
O=C(NCC(=O)N1C[C@H](O)C[C@H]1Cc1ccccc1)c1ccc2cc(F)ccc2n1 (3D coordinates assigned)
O=C(NCC(=O)N1C[C@H](O)C[C@H]1Cc1ccccc1)c1ccc2cc(F)ccc2n1 (nonaromatic ring conformer: 55.921075252568606 kcal/mol)

>  <smiles>  (7) 
O=C(NCC(=O)N1C[C@H](O)C[C@H]1Cc1ccccc1)c1ccc2cc(F)ccc2n1

>  <score_type>  (7) 
oracle

>  <origin>  (7) 
autodockgpu

>  <m_score__min__energy>  (7) 
-8.9499999999999993

>  <m_primary>  (7) 
energy

>  <meeko>  (7) 
{"free_energy": -8.95, "intermolecular_energy": -11.04, "internal_energy": -1.17, "cluster_size": 6, "cluster_id": 1, "rank_in_cluster": 1}

>  <energy>  (7) 
-8.89

>  <cluster_rmsd>  (7) 
0.0

>  <rmsd>  (7) 
272.05

>  <cluster>  (7) 
2

$$$$
UYYINUAOVYUWQM-WBADGWMWNA-N
     RDKit          3D

 52 55  0  0  0  0  0  0  0  0999 V2000
  137.4560   75.8690  220.9620 O   0  0  0  0  0  0  0  0  0  0  0  0
  138.4100   75.9620  221.7830 C   0  0  0  0  0  0  0  0  0  0  0  0
  138.9840   74.7670  222.3390 N   0  0  0  0  0  0  0  0  0  0  0  0
  138.7640   73.4760  221.6930 C   0  0  0  0  0  0  0  0  0  0  0  0
  139.5330   72.3640  222.3560 C   0  0  0  0  0  0  0  0  0  0  0  0
  140.6950   72.6340  222.7770 O   0  0  0  0  0  0  0  0  0  0  0  0
  139.0000   71.0340  222.5750 N   0  0  0  0  0  0  0  0  0  0  0  0
  138.5620   70.2300  221.4350 C   0  0  0  0  0  0  0  0  0  0  0  0
  137.7180   69.0960  222.0120 C   0  0  2  0  0  0  0  0  0  0  0  0
  136.5740   68.8780  221.2280 O   0  0  0  0  0  0  0  0  0  0  0  0
  137.3540   69.5590  223.4190 C   0  0  0  0  0  0  0  0  0  0  0  0
  138.5070   70.4780  223.8420 C   0  0  1  0  0  0  0  0  0  0  0  0
  139.6020   69.6550  224.5650 C   0  0  0  0  0  0  0  0  0  0  0  0
  140.0920   70.3080  225.8270 C   0  0  0  0  0  0  0  0  0  0  0  0
  139.8380   69.7120  227.0770 C   0  0  0  0  0  0  0  0  0  0  0  0
  140.3120   70.3060  228.2490 C   0  0  0  0  0  0  0  0  0  0  0  0
  141.0420   71.4970  228.1850 C   0  0  0  0  0  0  0  0  0  0  0  0
  141.3020   72.0940  226.9480 C   0  0  0  0  0  0  0  0  0  0  0  0
  140.8330   71.5010  225.7710 C   0  0  0  0  0  0  0  0  0  0  0  0
  138.9390   77.2920  222.1420 C   0  0  0  0  0  0  0  0  0  0  0  0
  138.1550   78.4450  221.9600 C   0  0  0  0  0  0  0  0  0  0  0  0
  138.6790   79.6960  222.2890 C   0  0  0  0  0  0  0  0  0  0  0  0
  139.9780   79.7960  222.8040 C   0  0  0  0  0  0  0  0  0  0  0  0
  140.5320   81.0390  223.1510 C   0  0  0  0  0  0  0  0  0  0  0  0
  141.8320   81.1040  223.6660 C   0  0  0  0  0  0  0  0  0  0  0  0
  142.3650   82.3040  224.0060 F   0  0  0  0  0  0  0  0  0  0  0  0
  142.5820   79.9340  223.8340 C   0  0  0  0  0  0  0  0  0  0  0  0
  142.0370   78.6930  223.4860 C   0  0  0  0  0  0  0  0  0  0  0  0
  140.7370   78.6180  222.9730 C   0  0  0  0  0  0  0  0  0  0  0  0
  140.2030   77.4120  222.6360 N   0  0  0  0  0  0  0  0  0  0  0  0
  139.5670   74.8230  223.2060 H   0  0  0  0  0  0  0  0  0  0  0  0
  137.6910   73.2378  221.7358 H   0  0  0  0  0  0  0  0  0  0  0  0
  139.1180   73.5559  220.6546 H   0  0  0  0  0  0  0  0  0  0  0  0
  137.9599   70.8410  220.7464 H   0  0  0  0  0  0  0  0  0  0  0  0
  139.4193   69.8416  220.8657 H   0  0  0  0  0  0  0  0  0  0  0  0
  138.2569   68.1372  222.0270 H   0  0  0  0  0  0  0  0  0  0  0  0
  136.8720   68.9130  220.2810 H   0  0  0  0  0  0  0  0  0  0  0  0
  136.4023   70.1106  223.4110 H   0  0  0  0  0  0  0  0  0  0  0  0
  137.2215   68.7148  224.1117 H   0  0  0  0  0  0  0  0  0  0  0  0
  138.2020   71.2663  224.5460 H   0  0  0  0  0  0  0  0  0  0  0  0
  139.1879   68.6681  224.8192 H   0  0  0  0  0  0  0  0  0  0  0  0
  140.4599   69.5772  223.8809 H   0  0  0  0  0  0  0  0  0  0  0  0
  139.2641   68.7751  227.1309 H   0  0  0  0  0  0  0  0  0  0  0  0
  140.1108   69.8365  229.2232 H   0  0  0  0  0  0  0  0  0  0  0  0
  141.4121   71.9647  229.1093 H   0  0  0  0  0  0  0  0  0  0  0  0
  141.8760   73.0311  226.9001 H   0  0  0  0  0  0  0  0  0  0  0  0
  141.0448   71.9698  224.7987 H   0  0  0  0  0  0  0  0  0  0  0  0
  137.1336   78.3614  221.5603 H   0  0  0  0  0  0  0  0  0  0  0  0
  138.0728   80.6024  222.1441 H   0  0  0  0  0  0  0  0  0  0  0  0
  139.9453   81.9600  223.0183 H   0  0  0  0  0  0  0  0  0  0  0  0
  143.6025   79.9903  224.2407 H   0  0  0  0  0  0  0  0  0  0  0  0
  142.6306   77.7760  223.6157 H   0  0  0  0  0  0  0  0  0  0  0  0
  1  2  2  0
  2  3  1  0
  3  4  1  0
  4  5  1  0
  5  6  2  0
  5  7  1  0
  7  8  1  0
  8  9  1  0
  9 10  1  0
  9 11  1  0
 11 12  1  0
 12 13  1  0
 13 14  1  0
 14 15  2  0
 15 16  1  0
 16 17  2  0
 17 18  1  0
 18 19  2  0
  2 20  1  0
 20 21  2  0
 21 22  1  0
 22 23  2  0
 23 24  1  0
 24 25  2  0
 25 26  1  0
 25 27  1  0
 27 28  2  0
 28 29  1  0
 29 30  2  0
 12  7  1  0
 19 14  1  0
 30 20  1  0
 29 23  1  0
  3 31  1  0
  4 32  1  0
  4 33  1  0
  8 34  1  0
  8 35  1  0
  9 36  1  1
 10 37  1  0
 11 38  1  0
 11 39  1  0
 12 40  1  1
 13 41  1  0
 13 42  1  0
 15 43  1  0
 16 44  1  0
 17 45  1  0
 18 46  1  0
 19 47  1  0
 21 48  1  0
 22 49  1  0
 24 50  1  0
 27 51  1  0
 28 52  1  0
M  END
>  <UniqueID>  (8) 
21

>  <SMILES>  (8) 
O=C(NCC(=O)N1C[C@H](O)C[C@H]1Cc1ccccc1)c1ccc2cc(F)ccc2n1

>  <Energy>  (8) 
55.921075252568606

>  <Genealogy>  (8) 
O=C(NCC(=O)N1C[C@H](O)C[C@H]1Cc1ccccc1)c1ccc2cc(F)ccc2n1 (3D coordinates assigned)
O=C(NCC(=O)N1C[C@H](O)C[C@H]1Cc1ccccc1)c1ccc2cc(F)ccc2n1 (nonaromatic ring conformer: 55.921075252568606 kcal/mol)

>  <smiles>  (8) 
O=C(NCC(=O)N1C[C@H](O)C[C@H]1Cc1ccccc1)c1ccc2cc(F)ccc2n1

>  <score_type>  (8) 
oracle

>  <origin>  (8) 
autodockgpu

>  <m_score__min__energy>  (8) 
-8.9499999999999993

>  <m_primary>  (8) 
energy

>  <meeko>  (8) 
{"free_energy": -8.17, "intermolecular_energy": -10.26, "internal_energy": -1.56, "cluster_size": 6, "cluster_id": 1, "rank_in_cluster": 5}

>  <energy>  (8) 
-8.87

>  <cluster_rmsd>  (8) 
0.1

>  <rmsd>  (8) 
272.07

>  <cluster>  (8) 
2

$$$$
UYYINUAOVYUWQM-WBADGWMWNA-N
     RDKit          3D

 52 55  0  0  0  0  0  0  0  0999 V2000
  139.9430   73.7010  222.6790 O   0  0  0  0  0  0  0  0  0  0  0  0
  139.8420   72.4650  222.4460 C   0  0  0  0  0  0  0  0  0  0  0  0
  139.7160   72.0080  221.0890 N   0  0  0  0  0  0  0  0  0  0  0  0
  140.0930   72.8800  219.9800 C   0  0  0  0  0  0  0  0  0  0  0  0
  141.4290   73.5410  220.1990 C   0  0  0  0  0  0  0  0  0  0  0  0
  142.3010   72.8870  220.8410 O   0  0  0  0  0  0  0  0  0  0  0  0
  141.7750   74.8480  219.6780 N   0  0  0  0  0  0  0  0  0  0  0  0
  142.0760   75.0090  218.2560 C   0  0  0  0  0  0  0  0  0  0  0  0
  142.7640   76.3640  218.1150 C   0  0  2  0  0  0  0  0  0  0  0  0
  143.8510   76.2810  217.2320 O   0  0  0  0  0  0  0  0  0  0  0  0
  143.2150   76.7200  219.5280 C   0  0  0  0  0  0  0  0  0  0  0  0
  142.2100   76.0200  220.4510 C   0  0  1  0  0  0  0  0  0  0  0  0
  141.0250   76.9680  220.7590 C   0  0  0  0  0  0  0  0  0  0  0  0
  141.3950   78.0930  221.6850 C   0  0  0  0  0  0  0  0  0  0  0  0
  141.3540   77.9050  223.0800 C   0  0  0  0  0  0  0  0  0  0  0  0
  141.7190   78.9430  223.9400 C   0  0  0  0  0  0  0  0  0  0  0  0
  142.1270   80.1740  223.4200 C   0  0  0  0  0  0  0  0  0  0  0  0
  142.1740   80.3690  222.0350 C   0  0  0  0  0  0  0  0  0  0  0  0
  141.8130   79.3310  221.1690 C   0  0  0  0  0  0  0  0  0  0  0  0
  139.8790   71.5050  223.5660 C   0  0  0  0  0  0  0  0  0  0  0  0
  139.3490   70.2110  223.4150 C   0  0  0  0  0  0  0  0  0  0  0  0
  139.3760   69.3220  224.4910 C   0  0  0  0  0  0  0  0  0  0  0  0
  139.9360   69.7210  225.7110 C   0  0  0  0  0  0  0  0  0  0  0  0
  139.9850   68.8490  226.8110 C   0  0  0  0  0  0  0  0  0  0  0  0
  140.5530   69.2770  228.0170 C   0  0  0  0  0  0  0  0  0  0  0  0
  140.6050   68.4340  229.0780 F   0  0  0  0  0  0  0  0  0  0  0  0
  141.0710   70.5730  228.1300 C   0  0  0  0  0  0  0  0  0  0  0  0
  141.0210   71.4480  227.0390 C   0  0  0  0  0  0  0  0  0  0  0  0
  140.4570   71.0280  225.8290 C   0  0  0  0  0  0  0  0  0  0  0  0
  140.4100   71.8750  224.7650 N   0  0  0  0  0  0  0  0  0  0  0  0
  139.3600   71.0430  220.8940 H   0  0  0  0  0  0  0  0  0  0  0  0
  140.1423   72.2799  219.0595 H   0  0  0  0  0  0  0  0  0  0  0  0
  139.3345   73.6730  219.9034 H   0  0  0  0  0  0  0  0  0  0  0  0
  142.7446   74.2049  217.9147 H   0  0  0  0  0  0  0  0  0  0  0  0
  141.1623   74.9589  217.6456 H   0  0  0  0  0  0  0  0  0  0  0  0
  142.0971   77.1320  217.6960 H   0  0  0  0  0  0  0  0  0  0  0  0
  144.6400   76.0320  217.7810 H   0  0  0  0  0  0  0  0  0  0  0  0
  144.2341   76.3499  219.7138 H   0  0  0  0  0  0  0  0  0  0  0  0
  143.2410   77.8073  219.6928 H   0  0  0  0  0  0  0  0  0  0  0  0
  142.6355   75.7356  221.4247 H   0  0  0  0  0  0  0  0  0  0  0  0
  140.6652   77.3976  219.8124 H   0  0  0  0  0  0  0  0  0  0  0  0
  140.2496   76.3712  221.2615 H   0  0  0  0  0  0  0  0  0  0  0  0
  141.0335   76.9374  223.4936 H   0  0  0  0  0  0  0  0  0  0  0  0
  141.6852   78.7912  225.0289 H   0  0  0  0  0  0  0  0  0  0  0  0
  142.4115   80.9906  224.0999 H   0  0  0  0  0  0  0  0  0  0  0  0
  142.4949   81.3388  221.6270 H   0  0  0  0  0  0  0  0  0  0  0  0
  141.8566   79.4848  220.0807 H   0  0  0  0  0  0  0  0  0  0  0  0
  138.9150   69.9007  222.4530 H   0  0  0  0  0  0  0  0  0  0  0  0
  138.9584   68.3104  224.3808 H   0  0  0  0  0  0  0  0  0  0  0  0
  139.5775   67.8309  226.7251 H   0  0  0  0  0  0  0  0  0  0  0  0
  141.5184   70.9042  229.0788 H   0  0  0  0  0  0  0  0  0  0  0  0
  141.4253   72.4667  227.1326 H   0  0  0  0  0  0  0  0  0  0  0  0
  1  2  2  0
  2  3  1  0
  3  4  1  0
  4  5  1  0
  5  6  2  0
  5  7  1  0
  7  8  1  0
  8  9  1  0
  9 10  1  0
  9 11  1  0
 11 12  1  0
 12 13  1  0
 13 14  1  0
 14 15  2  0
 15 16  1  0
 16 17  2  0
 17 18  1  0
 18 19  2  0
  2 20  1  0
 20 21  2  0
 21 22  1  0
 22 23  2  0
 23 24  1  0
 24 25  2  0
 25 26  1  0
 25 27  1  0
 27 28  2  0
 28 29  1  0
 29 30  2  0
 12  7  1  0
 19 14  1  0
 30 20  1  0
 29 23  1  0
  3 31  1  0
  4 32  1  0
  4 33  1  0
  8 34  1  0
  8 35  1  0
  9 36  1  6
 10 37  1  0
 11 38  1  0
 11 39  1  0
 12 40  1  1
 13 41  1  0
 13 42  1  0
 15 43  1  0
 16 44  1  0
 17 45  1  0
 18 46  1  0
 19 47  1  0
 21 48  1  0
 22 49  1  0
 24 50  1  0
 27 51  1  0
 28 52  1  0
M  END
>  <UniqueID>  (9) 
21

>  <SMILES>  (9) 
O=C(NCC(=O)N1C[C@H](O)C[C@H]1Cc1ccccc1)c1ccc2cc(F)ccc2n1

>  <Energy>  (9) 
55.921075252568606

>  <Genealogy>  (9) 
O=C(NCC(=O)N1C[C@H](O)C[C@H]1Cc1ccccc1)c1ccc2cc(F)ccc2n1 (3D coordinates assigned)
O=C(NCC(=O)N1C[C@H](O)C[C@H]1Cc1ccccc1)c1ccc2cc(F)ccc2n1 (nonaromatic ring conformer: 55.921075252568606 kcal/mol)

>  <smiles>  (9) 
O=C(NCC(=O)N1C[C@H](O)C[C@H]1Cc1ccccc1)c1ccc2cc(F)ccc2n1

>  <score_type>  (9) 
oracle

>  <origin>  (9) 
autodockgpu

>  <m_score__min__energy>  (9) 
-8.9499999999999993

>  <m_primary>  (9) 
energy

>  <meeko>  (9) 
{"free_energy": -8.68, "intermolecular_energy": -10.76, "internal_energy": -1.27, "cluster_size": 5, "cluster_id": 2, "rank_in_cluster": 4}

>  <energy>  (9) 
-8.86

>  <cluster_rmsd>  (9) 
0.09

>  <rmsd>  (9) 
272.05

>  <cluster>  (9) 
2

$$$$
UYYINUAOVYUWQM-WBADGWMWNA-N
     RDKit          3D

 52 55  0  0  0  0  0  0  0  0999 V2000
  141.3440   72.1220  221.5240 O   0  0  0  0  0  0  0  0  0  0  0  0
  140.4750   72.4000  222.3960 C   0  0  0  0  0  0  0  0  0  0  0  0
  139.6920   73.5980  222.2570 N   0  0  0  0  0  0  0  0  0  0  0  0
  139.6000   74.2710  220.9650 C   0  0  0  0  0  0  0  0  0  0  0  0
  140.1120   75.6870  221.0160 C   0  0  0  0  0  0  0  0  0  0  0  0
  139.6590   76.4330  221.9320 O   0  0  0  0  0  0  0  0  0  0  0  0
  141.1150   76.2140  220.1140 N   0  0  0  0  0  0  0  0  0  0  0  0
  141.3750   75.5400  218.8410 C   0  0  0  0  0  0  0  0  0  0  0  0
  142.7060   76.0870  218.3330 C   0  0  2  0  0  0  0  0  0  0  0  0
  143.5000   75.0560  217.8060 O   0  0  0  0  0  0  0  0  0  0  0  0
  143.3570   76.7280  219.5550 C   0  0  0  0  0  0  0  0  0  0  0  0
  142.1840   77.1670  220.4400 C   0  0  1  0  0  0  0  0  0  0  0  0
  141.7740   78.6200  220.0930 C   0  0  0  0  0  0  0  0  0  0  0  0
  141.8180   79.5440  221.2780 C   0  0  0  0  0  0  0  0  0  0  0  0
  141.4860   80.9040  221.1280 C   0  0  0  0  0  0  0  0  0  0  0  0
  141.5050   81.7590  222.2320 C   0  0  0  0  0  0  0  0  0  0  0  0
  141.8540   81.2670  223.4930 C   0  0  0  0  0  0  0  0  0  0  0  0
  142.1810   79.9160  223.6520 C   0  0  0  0  0  0  0  0  0  0  0  0
  142.1600   79.0550  222.5500 C   0  0  0  0  0  0  0  0  0  0  0  0
  140.2590   71.4840  223.5310 C   0  0  0  0  0  0  0  0  0  0  0  0
  139.5860   70.2630  223.3450 C   0  0  0  0  0  0  0  0  0  0  0  0
  139.3740   69.4170  224.4350 C   0  0  0  0  0  0  0  0  0  0  0  0
  139.8380   69.7840  225.7040 C   0  0  0  0  0  0  0  0  0  0  0  0
  139.6470   68.9520  226.8190 C   0  0  0  0  0  0  0  0  0  0  0  0
  140.1250   69.3460  228.0740 C   0  0  0  0  0  0  0  0  0  0  0  0
  139.9460   68.5410  229.1510 F   0  0  0  0  0  0  0  0  0  0  0  0
  140.7920   70.5690  228.2210 C   0  0  0  0  0  0  0  0  0  0  0  0
  140.9820   71.4040  227.1150 C   0  0  0  0  0  0  0  0  0  0  0  0
  140.5090   71.0170  225.8560 C   0  0  0  0  0  0  0  0  0  0  0  0
  140.6940   71.8250  224.7770 N   0  0  0  0  0  0  0  0  0  0  0  0
  139.1790   73.9840  223.0830 H   0  0  0  0  0  0  0  0  0  0  0  0
  140.1935   73.7072  220.2302 H   0  0  0  0  0  0  0  0  0  0  0  0
  138.5377   74.3090  220.6821 H   0  0  0  0  0  0  0  0  0  0  0  0
  141.4426   74.4525  218.9922 H   0  0  0  0  0  0  0  0  0  0  0  0
  140.5654   75.7217  218.1188 H   0  0  0  0  0  0  0  0  0  0  0  0
  142.5767   76.8118  217.5157 H   0  0  0  0  0  0  0  0  0  0  0  0
  144.4440   75.3360  217.9360 H   0  0  0  0  0  0  0  0  0  0  0  0
  143.9896   75.9997  220.0836 H   0  0  0  0  0  0  0  0  0  0  0  0
  144.0097   77.5707  219.2832 H   0  0  0  0  0  0  0  0  0  0  0  0
  142.4229   77.1640  221.5137 H   0  0  0  0  0  0  0  0  0  0  0  0
  142.4610   79.0035  219.3243 H   0  0  0  0  0  0  0  0  0  0  0  0
  140.7333   78.5913  219.7379 H   0  0  0  0  0  0  0  0  0  0  0  0
  141.2105   81.2946  220.1373 H   0  0  0  0  0  0  0  0  0  0  0  0
  141.2451   82.8208  222.1092 H   0  0  0  0  0  0  0  0  0  0  0  0
  141.8716   81.9425  224.3609 H   0  0  0  0  0  0  0  0  0  0  0  0
  142.4550   79.5304  224.6451 H   0  0  0  0  0  0  0  0  0  0  0  0
  142.4119   77.9921  222.6795 H   0  0  0  0  0  0  0  0  0  0  0  0
  139.2283   69.9760  222.3451 H   0  0  0  0  0  0  0  0  0  0  0  0
  138.8432   68.4635  224.2971 H   0  0  0  0  0  0  0  0  0  0  0  0
  139.1223   67.9918  226.7062 H   0  0  0  0  0  0  0  0  0  0  0  0
  141.1675   70.8736  229.2090 H   0  0  0  0  0  0  0  0  0  0  0  0
  141.5033   72.3652  227.2349 H   0  0  0  0  0  0  0  0  0  0  0  0
  1  2  2  0
  2  3  1  0
  3  4  1  0
  4  5  1  0
  5  6  2  0
  5  7  1  0
  7  8  1  0
  8  9  1  0
  9 10  1  0
  9 11  1  0
 11 12  1  0
 12 13  1  0
 13 14  1  0
 14 15  2  0
 15 16  1  0
 16 17  2  0
 17 18  1  0
 18 19  2  0
  2 20  1  0
 20 21  2  0
 21 22  1  0
 22 23  2  0
 23 24  1  0
 24 25  2  0
 25 26  1  0
 25 27  1  0
 27 28  2  0
 28 29  1  0
 29 30  2  0
 12  7  1  0
 19 14  1  0
 30 20  1  0
 29 23  1  0
  3 31  1  0
  4 32  1  0
  4 33  1  0
  8 34  1  0
  8 35  1  0
  9 36  1  6
 10 37  1  0
 11 38  1  0
 11 39  1  0
 12 40  1  1
 13 41  1  0
 13 42  1  0
 15 43  1  0
 16 44  1  0
 17 45  1  0
 18 46  1  0
 19 47  1  0
 21 48  1  0
 22 49  1  0
 24 50  1  0
 27 51  1  0
 28 52  1  0
M  END
>  <UniqueID>  (10) 
21

>  <SMILES>  (10) 
O=C(NCC(=O)N1C[C@H](O)C[C@H]1Cc1ccccc1)c1ccc2cc(F)ccc2n1

>  <Energy>  (10) 
55.921075252568606

>  <Genealogy>  (10) 
O=C(NCC(=O)N1C[C@H](O)C[C@H]1Cc1ccccc1)c1ccc2cc(F)ccc2n1 (3D coordinates assigned)
O=C(NCC(=O)N1C[C@H](O)C[C@H]1Cc1ccccc1)c1ccc2cc(F)ccc2n1 (nonaromatic ring conformer: 55.921075252568606 kcal/mol)

>  <smiles>  (10) 
O=C(NCC(=O)N1C[C@H](O)C[C@H]1Cc1ccccc1)c1ccc2cc(F)ccc2n1

>  <score_type>  (10) 
oracle

>  <origin>  (10) 
autodockgpu

>  <m_score__min__energy>  (10) 
-8.9499999999999993

>  <m_primary>  (10) 
energy

>  <meeko>  (10) 
{"free_energy": -8.86, "intermolecular_energy": -10.95, "internal_energy": -1.31, "cluster_size": 5, "cluster_id": 2, "rank_in_cluster": 3}

>  <energy>  (10) 
-8.68

>  <cluster_rmsd>  (10) 
1.24

>  <rmsd>  (10) 
271.81

>  <cluster>  (10) 
2

$$$$
UYYINUAOVYUWQM-WBADGWMWNA-N
     RDKit          3D

 52 55  0  0  0  0  0  0  0  0999 V2000
  138.8320   71.7460  222.1250 O   0  0  0  0  0  0  0  0  0  0  0  0
  139.9960   71.5260  222.5600 C   0  0  0  0  0  0  0  0  0  0  0  0
  141.1270   71.7650  221.7060 N   0  0  0  0  0  0  0  0  0  0  0  0
  140.9900   72.6100  220.5220 C   0  0  0  0  0  0  0  0  0  0  0  0
  140.9180   74.0740  220.8660 C   0  0  0  0  0  0  0  0  0  0  0  0
  140.3940   74.3830  221.9750 O   0  0  0  0  0  0  0  0  0  0  0  0
  141.4530   75.1260  220.0260 N   0  0  0  0  0  0  0  0  0  0  0  0
  141.6840   74.8740  218.6040 C   0  0  0  0  0  0  0  0  0  0  0  0
  142.5860   76.0030  218.1120 C   0  0  2  0  0  0  0  0  0  0  0  0
  143.5840   75.5070  217.2580 O   0  0  0  0  0  0  0  0  0  0  0  0
  143.1830   76.6050  219.3800 C   0  0  0  0  0  0  0  0  0  0  0  0
  142.1330   76.3510  220.4680 C   0  0  1  0  0  0  0  0  0  0  0  0
  141.1530   77.5470  220.5490 C   0  0  0  0  0  0  0  0  0  0  0  0
  141.4950   78.5170  221.6450 C   0  0  0  0  0  0  0  0  0  0  0  0
  141.8600   79.8400  221.3330 C   0  0  0  0  0  0  0  0  0  0  0  0
  142.1570   80.7480  222.3520 C   0  0  0  0  0  0  0  0  0  0  0  0
  142.0930   80.3450  223.6890 C   0  0  0  0  0  0  0  0  0  0  0  0
  141.7270   79.0340  224.0100 C   0  0  0  0  0  0  0  0  0  0  0  0
  141.4250   78.1220  222.9930 C   0  0  0  0  0  0  0  0  0  0  0  0
  140.1820   71.0520  223.9440 C   0  0  0  0  0  0  0  0  0  0  0  0
  140.7430   71.8950  224.9190 C   0  0  0  0  0  0  0  0  0  0  0  0
  140.9280   71.4230  226.2200 C   0  0  0  0  0  0  0  0  0  0  0  0
  140.5490   70.1150  226.5480 C   0  0  0  0  0  0  0  0  0  0  0  0
  140.7150   69.6110  227.8480 C   0  0  0  0  0  0  0  0  0  0  0  0
  140.3230   68.3000  228.1440 C   0  0  0  0  0  0  0  0  0  0  0  0
  140.4800   67.8150  229.4010 F   0  0  0  0  0  0  0  0  0  0  0  0
  139.7670   67.4900  227.1470 C   0  0  0  0  0  0  0  0  0  0  0  0
  139.6030   67.9840  225.8490 C   0  0  0  0  0  0  0  0  0  0  0  0
  139.9900   69.2940  225.5440 C   0  0  0  0  0  0  0  0  0  0  0  0
  139.8280   69.7800  224.2830 N   0  0  0  0  0  0  0  0  0  0  0  0
  142.0540   71.3390  221.9370 H   0  0  0  0  0  0  0  0  0  0  0  0
  141.8579   72.4435  219.8670 H   0  0  0  0  0  0  0  0  0  0  0  0
  140.0490   72.3366  220.0223 H   0  0  0  0  0  0  0  0  0  0  0  0
  142.1796   73.9019  218.4647 H   0  0  0  0  0  0  0  0  0  0  0  0
  140.7380   74.8439  218.0436 H   0  0  0  0  0  0  0  0  0  0  0  0
  142.0361   76.7538  217.5255 H   0  0  0  0  0  0  0  0  0  0  0  0
  144.4460   75.6230  217.7370 H   0  0  0  0  0  0  0  0  0  0  0  0
  144.1317   76.1097  219.6343 H   0  0  0  0  0  0  0  0  0  0  0  0
  143.4094   77.6752  219.2641 H   0  0  0  0  0  0  0  0  0  0  0  0
  142.5644   76.2415  221.4739 H   0  0  0  0  0  0  0  0  0  0  0  0
  141.1743   78.0826  219.5884 H   0  0  0  0  0  0  0  0  0  0  0  0
  140.1559   77.1392  220.7715 H   0  0  0  0  0  0  0  0  0  0  0  0
  141.9116   80.1604  220.2819 H   0  0  0  0  0  0  0  0  0  0  0  0
  142.4414   81.7808  222.1022 H   0  0  0  0  0  0  0  0  0  0  0  0
  142.3310   81.0604  224.4900 H   0  0  0  0  0  0  0  0  0  0  0  0
  141.6765   78.7196  225.0629 H   0  0  0  0  0  0  0  0  0  0  0  0
  141.1319   77.0930  223.2484 H   0  0  0  0  0  0  0  0  0  0  0  0
  141.0352   72.9228  224.6580 H   0  0  0  0  0  0  0  0  0  0  0  0
  141.3705   72.0770  226.9858 H   0  0  0  0  0  0  0  0  0  0  0  0
  141.1525   70.2455  228.6329 H   0  0  0  0  0  0  0  0  0  0  0  0
  139.4580   66.4615  227.3852 H   0  0  0  0  0  0  0  0  0  0  0  0
  139.1696   67.3427  225.0674 H   0  0  0  0  0  0  0  0  0  0  0  0
  1  2  2  0
  2  3  1  0
  3  4  1  0
  4  5  1  0
  5  6  2  0
  5  7  1  0
  7  8  1  0
  8  9  1  0
  9 10  1  0
  9 11  1  0
 11 12  1  0
 12 13  1  0
 13 14  1  0
 14 15  2  0
 15 16  1  0
 16 17  2  0
 17 18  1  0
 18 19  2  0
  2 20  1  0
 20 21  2  0
 21 22  1  0
 22 23  2  0
 23 24  1  0
 24 25  2  0
 25 26  1  0
 25 27  1  0
 27 28  2  0
 28 29  1  0
 29 30  2  0
 12  7  1  0
 19 14  1  0
 30 20  1  0
 29 23  1  0
  3 31  1  0
  4 32  1  0
  4 33  1  0
  8 34  1  0
  8 35  1  0
  9 36  1  6
 10 37  1  0
 11 38  1  0
 11 39  1  0
 12 40  1  1
 13 41  1  0
 13 42  1  0
 15 43  1  0
 16 44  1  0
 17 45  1  0
 18 46  1  0
 19 47  1  0
 21 48  1  0
 22 49  1  0
 24 50  1  0
 27 51  1  0
 28 52  1  0
M  END
>  <UniqueID>  (11) 
21

>  <SMILES>  (11) 
O=C(NCC(=O)N1C[C@H](O)C[C@H]1Cc1ccccc1)c1ccc2cc(F)ccc2n1

>  <Energy>  (11) 
55.921075252568606

>  <Genealogy>  (11) 
O=C(NCC(=O)N1C[C@H](O)C[C@H]1Cc1ccccc1)c1ccc2cc(F)ccc2n1 (3D coordinates assigned)
O=C(NCC(=O)N1C[C@H](O)C[C@H]1Cc1ccccc1)c1ccc2cc(F)ccc2n1 (nonaromatic ring conformer: 55.921075252568606 kcal/mol)

>  <smiles>  (11) 
O=C(NCC(=O)N1C[C@H](O)C[C@H]1Cc1ccccc1)c1ccc2cc(F)ccc2n1

>  <score_type>  (11) 
oracle

>  <origin>  (11) 
autodockgpu

>  <m_score__min__energy>  (11) 
-8.9499999999999993

>  <m_primary>  (11) 
energy

>  <meeko>  (11) 
{"free_energy": -8.65, "intermolecular_energy": -10.74, "internal_energy": -1.17, "cluster_size": 5, "cluster_id": 2, "rank_in_cluster": 5}

>  <energy>  (11) 
-8.65

>  <cluster_rmsd>  (11) 
1.46

>  <rmsd>  (11) 
271.96

>  <cluster>  (11) 
2

$$$$
UYYINUAOVYUWQM-WBADGWMWNA-N
     RDKit          3D

 52 55  0  0  0  0  0  0  0  0999 V2000
  139.8330   74.2340  221.9720 O   0  0  0  0  0  0  0  0  0  0  0  0
  140.1510   75.4540  221.9210 C   0  0  0  0  0  0  0  0  0  0  0  0
  141.4570   75.8260  221.4490 N   0  0  0  0  0  0  0  0  0  0  0  0
  142.2560   74.8820  220.6730 C   0  0  0  0  0  0  0  0  0  0  0  0
  142.8450   75.5080  219.4370 C   0  0  0  0  0  0  0  0  0  0  0  0
  143.8150   74.9070  218.8900 O   0  0  0  0  0  0  0  0  0  0  0  0
  142.3360   76.7180  218.8260 N   0  0  0  0  0  0  0  0  0  0  0  0
  141.9170   76.7050  217.4250 C   0  0  0  0  0  0  0  0  0  0  0  0
  141.8160   78.1660  216.9960 C   0  0  2  0  0  0  0  0  0  0  0  0
  142.3550   78.3470  215.7120 O   0  0  0  0  0  0  0  0  0  0  0  0
  142.6050   78.9370  218.0490 C   0  0  0  0  0  0  0  0  0  0  0  0
  142.4900   78.0920  219.3240 C   0  0  1  0  0  0  0  0  0  0  0  0
  141.2570   78.5390  220.1460 C   0  0  0  0  0  0  0  0  0  0  0  0
  141.6040   79.4870  221.2610 C   0  0  0  0  0  0  0  0  0  0  0  0
  141.2320   80.8420  221.1810 C   0  0  0  0  0  0  0  0  0  0  0  0
  141.5350   81.7180  222.2260 C   0  0  0  0  0  0  0  0  0  0  0  0
  142.2100   81.2510  223.3570 C   0  0  0  0  0  0  0  0  0  0  0  0
  142.5800   79.9060  223.4480 C   0  0  0  0  0  0  0  0  0  0  0  0
  142.2760   79.0240  222.4060 C   0  0  0  0  0  0  0  0  0  0  0  0
  139.1720   76.4820  222.3230 C   0  0  0  0  0  0  0  0  0  0  0  0
  137.7940   76.2600  222.1550 C   0  0  0  0  0  0  0  0  0  0  0  0
  136.8830   77.2510  222.5240 C   0  0  0  0  0  0  0  0  0  0  0  0
  137.3450   78.4580  223.0650 C   0  0  0  0  0  0  0  0  0  0  0  0
  136.4550   79.4720  223.4520 C   0  0  0  0  0  0  0  0  0  0  0  0
  136.9500   80.6660  223.9910 C   0  0  0  0  0  0  0  0  0  0  0  0
  136.0900   81.6440  224.3710 F   0  0  0  0  0  0  0  0  0  0  0  0
  138.3290   80.8510  224.1440 C   0  0  0  0  0  0  0  0  0  0  0  0
  139.2210   79.8460  223.7560 C   0  0  0  0  0  0  0  0  0  0  0  0
  138.7360   78.6480  223.2180 C   0  0  0  0  0  0  0  0  0  0  0  0
  139.6000   77.6670  222.8420 N   0  0  0  0  0  0  0  0  0  0  0  0
  141.8330   76.7800  221.6560 H   0  0  0  0  0  0  0  0  0  0  0  0
  143.0756   74.5098  221.3052 H   0  0  0  0  0  0  0  0  0  0  0  0
  141.5921   74.0660  220.3515 H   0  0  0  0  0  0  0  0  0  0  0  0
  142.6608   76.1777  216.8096 H   0  0  0  0  0  0  0  0  0  0  0  0
  140.9567   76.1835  217.2991 H   0  0  0  0  0  0  0  0  0  0  0  0
  140.7742   78.5138  216.9344 H   0  0  0  0  0  0  0  0  0  0  0  0
  143.0580   79.0440  215.7990 H   0  0  0  0  0  0  0  0  0  0  0  0
  143.6575   79.0395  217.7461 H   0  0  0  0  0  0  0  0  0  0  0  0
  142.2190   79.9571  218.1916 H   0  0  0  0  0  0  0  0  0  0  0  0
  143.3566   78.1919  219.9941 H   0  0  0  0  0  0  0  0  0  0  0  0
  140.5476   79.0385  219.4697 H   0  0  0  0  0  0  0  0  0  0  0  0
  140.8238   77.6377  220.6043 H   0  0  0  0  0  0  0  0  0  0  0  0
  140.7005   81.2127  220.2921 H   0  0  0  0  0  0  0  0  0  0  0  0
  141.2421   82.7761  222.1586 H   0  0  0  0  0  0  0  0  0  0  0  0
  142.4507   81.9432  224.1773 H   0  0  0  0  0  0  0  0  0  0  0  0
  143.1106   79.5411  224.3398 H   0  0  0  0  0  0  0  0  0  0  0  0
  142.5635   77.9650  222.4825 H   0  0  0  0  0  0  0  0  0  0  0  0
  137.4352   75.3090  221.7344 H   0  0  0  0  0  0  0  0  0  0  0  0
  135.8039   77.0846  222.3903 H   0  0  0  0  0  0  0  0  0  0  0  0
  135.3709   79.3291  223.3322 H   0  0  0  0  0  0  0  0  0  0  0  0
  138.7123   81.7896  224.5707 H   0  0  0  0  0  0  0  0  0  0  0  0
  140.3042   79.9970  223.8736 H   0  0  0  0  0  0  0  0  0  0  0  0
  1  2  2  0
  2  3  1  0
  3  4  1  0
  4  5  1  0
  5  6  2  0
  5  7  1  0
  7  8  1  0
  8  9  1  0
  9 10  1  0
  9 11  1  0
 11 12  1  0
 12 13  1  0
 13 14  1  0
 14 15  2  0
 15 16  1  0
 16 17  2  0
 17 18  1  0
 18 19  2  0
  2 20  1  0
 20 21  2  0
 21 22  1  0
 22 23  2  0
 23 24  1  0
 24 25  2  0
 25 26  1  0
 25 27  1  0
 27 28  2  0
 28 29  1  0
 29 30  2  0
 12  7  1  0
 19 14  1  0
 30 20  1  0
 29 23  1  0
  3 31  1  0
  4 32  1  0
  4 33  1  0
  8 34  1  0
  8 35  1  0
  9 36  1  6
 10 37  1  0
 11 38  1  0
 11 39  1  0
 12 40  1  1
 13 41  1  0
 13 42  1  0
 15 43  1  0
 16 44  1  0
 17 45  1  0
 18 46  1  0
 19 47  1  0
 21 48  1  0
 22 49  1  0
 24 50  1  0
 27 51  1  0
 28 52  1  0
M  END
>  <UniqueID>  (12) 
21

>  <SMILES>  (12) 
O=C(NCC(=O)N1C[C@H](O)C[C@H]1Cc1ccccc1)c1ccc2cc(F)ccc2n1

>  <Energy>  (12) 
55.921075252568606

>  <Genealogy>  (12) 
O=C(NCC(=O)N1C[C@H](O)C[C@H]1Cc1ccccc1)c1ccc2cc(F)ccc2n1 (3D coordinates assigned)
O=C(NCC(=O)N1C[C@H](O)C[C@H]1Cc1ccccc1)c1ccc2cc(F)ccc2n1 (nonaromatic ring conformer: 55.921075252568606 kcal/mol)

>  <smiles>  (12) 
O=C(NCC(=O)N1C[C@H](O)C[C@H]1Cc1ccccc1)c1ccc2cc(F)ccc2n1

>  <score_type>  (12) 
oracle

>  <origin>  (12) 
autodockgpu

>  <m_score__min__energy>  (12) 
-8.9499999999999993

>  <m_primary>  (12) 
energy

>  <meeko>  (12) 
{"free_energy": -7.1, "intermolecular_energy": -9.19, "internal_energy": -2.51, "cluster_size": 3, "cluster_id": 6, "rank_in_cluster": 1}

>  <energy>  (12) 
-8.46

>  <cluster_rmsd>  (12) 
0.0

>  <rmsd>  (12) 
271.61

>  <cluster>  (12) 
3

$$$$
UYYINUAOVYUWQM-WBADGWMWNA-N
     RDKit          3D

 52 55  0  0  0  0  0  0  0  0999 V2000
  139.6640   74.4960  219.8020 O   0  0  0  0  0  0  0  0  0  0  0  0
  139.5570   75.0290  220.9400 C   0  0  0  0  0  0  0  0  0  0  0  0
  138.7900   74.3690  221.9620 N   0  0  0  0  0  0  0  0  0  0  0  0
  138.4760   72.9470  221.8430 C   0  0  0  0  0  0  0  0  0  0  0  0
  139.5470   72.0710  222.4380 C   0  0  0  0  0  0  0  0  0  0  0  0
  140.6310   72.6290  222.7740 O   0  0  0  0  0  0  0  0  0  0  0  0
  139.3820   70.6530  222.6840 N   0  0  0  0  0  0  0  0  0  0  0  0
  139.2770   69.7260  221.5570 C   0  0  0  0  0  0  0  0  0  0  0  0
  138.7320   68.4200  222.1270 C   0  0  2  0  0  0  0  0  0  0  0  0
  137.7610   67.8710  221.2750 O   0  0  0  0  0  0  0  0  0  0  0  0
  138.1400   68.8030  223.4800 C   0  0  0  0  0  0  0  0  0  0  0  0
  138.9570   70.0170  223.9380 C   0  0  1  0  0  0  0  0  0  0  0  0
  140.1720   69.5510  224.7780 C   0  0  0  0  0  0  0  0  0  0  0  0
  140.3680   70.3600  226.0300 C   0  0  0  0  0  0  0  0  0  0  0  0
  141.1420   71.5350  226.0000 C   0  0  0  0  0  0  0  0  0  0  0  0
  141.3070   72.2990  227.1580 C   0  0  0  0  0  0  0  0  0  0  0  0
  140.7030   71.8990  228.3530 C   0  0  0  0  0  0  0  0  0  0  0  0
  139.9290   70.7350  228.3920 C   0  0  0  0  0  0  0  0  0  0  0  0
  139.7570   69.9680  227.2340 C   0  0  0  0  0  0  0  0  0  0  0  0
  140.2380   76.3080  221.2160 C   0  0  0  0  0  0  0  0  0  0  0  0
  141.3730   76.6860  220.4780 C   0  0  0  0  0  0  0  0  0  0  0  0
  142.0160   77.8920  220.7640 C   0  0  0  0  0  0  0  0  0  0  0  0
  141.5220   78.7210  221.7800 C   0  0  0  0  0  0  0  0  0  0  0  0
  142.1410   79.9430  222.0890 C   0  0  0  0  0  0  0  0  0  0  0  0
  141.6210   80.7500  223.1080 C   0  0  0  0  0  0  0  0  0  0  0  0
  142.2160   81.9340  223.4030 F   0  0  0  0  0  0  0  0  0  0  0  0
  140.4880   80.3420  223.8210 C   0  0  0  0  0  0  0  0  0  0  0  0
  139.8700   79.1230  223.5210 C   0  0  0  0  0  0  0  0  0  0  0  0
  140.3810   78.3100  222.5020 C   0  0  0  0  0  0  0  0  0  0  0  0
  139.7800   77.1260  222.2060 N   0  0  0  0  0  0  0  0  0  0  0  0
  138.4630   74.9060  222.7980 H   0  0  0  0  0  0  0  0  0  0  0  0
  137.5279   72.7497  222.3647 H   0  0  0  0  0  0  0  0  0  0  0  0
  138.4038   72.7079  220.7717 H   0  0  0  0  0  0  0  0  0  0  0  0
  138.5896   70.1263  220.7972 H   0  0  0  0  0  0  0  0  0  0  0  0
  140.2523   69.5744  221.0715 H   0  0  0  0  0  0  0  0  0  0  0  0
  139.5101   67.6490  222.2280 H   0  0  0  0  0  0  0  0  0  0  0  0
  137.1600   68.6190  221.0170 H   0  0  0  0  0  0  0  0  0  0  0  0
  137.0775   69.0682  223.3766 H   0  0  0  0  0  0  0  0  0  0  0  0
  138.1878   67.9749  224.2025 H   0  0  0  0  0  0  0  0  0  0  0  0
  138.3896   70.7088  224.5779 H   0  0  0  0  0  0  0  0  0  0  0  0
  140.0192   68.4991  225.0611 H   0  0  0  0  0  0  0  0  0  0  0  0
  141.0704   69.6839  224.1574 H   0  0  0  0  0  0  0  0  0  0  0  0
  141.6189   71.8531  225.0612 H   0  0  0  0  0  0  0  0  0  0  0  0
  141.9131   73.2165  227.1291 H   0  0  0  0  0  0  0  0  0  0  0  0
  140.8366   72.5006  229.2642 H   0  0  0  0  0  0  0  0  0  0  0  0
  139.4548   70.4218  229.3338 H   0  0  0  0  0  0  0  0  0  0  0  0
  139.1423   69.0563  227.2660 H   0  0  0  0  0  0  0  0  0  0  0  0
  141.7534   76.0340  219.6779 H   0  0  0  0  0  0  0  0  0  0  0  0
  142.9078   78.1904  220.1934 H   0  0  0  0  0  0  0  0  0  0  0  0
  143.0327   80.2655  221.5315 H   0  0  0  0  0  0  0  0  0  0  0  0
  140.0824   80.9811  224.6191 H   0  0  0  0  0  0  0  0  0  0  0  0
  138.9821   78.8032  224.0861 H   0  0  0  0  0  0  0  0  0  0  0  0
  1  2  2  0
  2  3  1  0
  3  4  1  0
  4  5  1  0
  5  6  2  0
  5  7  1  0
  7  8  1  0
  8  9  1  0
  9 10  1  0
  9 11  1  0
 11 12  1  0
 12 13  1  0
 13 14  1  0
 14 15  2  0
 15 16  1  0
 16 17  2  0
 17 18  1  0
 18 19  2  0
  2 20  1  0
 20 21  2  0
 21 22  1  0
 22 23  2  0
 23 24  1  0
 24 25  2  0
 25 26  1  0
 25 27  1  0
 27 28  2  0
 28 29  1  0
 29 30  2  0
 12  7  1  0
 19 14  1  0
 30 20  1  0
 29 23  1  0
  3 31  1  0
  4 32  1  0
  4 33  1  0
  8 34  1  0
  8 35  1  0
  9 36  1  1
 10 37  1  0
 11 38  1  0
 11 39  1  0
 12 40  1  1
 13 41  1  0
 13 42  1  0
 15 43  1  0
 16 44  1  0
 17 45  1  0
 18 46  1  0
 19 47  1  0
 21 48  1  0
 22 49  1  0
 24 50  1  0
 27 51  1  0
 28 52  1  0
M  END
>  <UniqueID>  (13) 
21

>  <SMILES>  (13) 
O=C(NCC(=O)N1C[C@H](O)C[C@H]1Cc1ccccc1)c1ccc2cc(F)ccc2n1

>  <Energy>  (13) 
55.921075252568606

>  <Genealogy>  (13) 
O=C(NCC(=O)N1C[C@H](O)C[C@H]1Cc1ccccc1)c1ccc2cc(F)ccc2n1 (3D coordinates assigned)
O=C(NCC(=O)N1C[C@H](O)C[C@H]1Cc1ccccc1)c1ccc2cc(F)ccc2n1 (nonaromatic ring conformer: 55.921075252568606 kcal/mol)

>  <smiles>  (13) 
O=C(NCC(=O)N1C[C@H](O)C[C@H]1Cc1ccccc1)c1ccc2cc(F)ccc2n1

>  <score_type>  (13) 
oracle

>  <origin>  (13) 
autodockgpu

>  <m_score__min__energy>  (13) 
-8.9499999999999993

>  <m_primary>  (13) 
energy

>  <meeko>  (13) 
{"free_energy": -8.26, "intermolecular_energy": -10.35, "internal_energy": -1.46, "cluster_size": 6, "cluster_id": 1, "rank_in_cluster": 4}

>  <energy>  (13) 
-8.35

>  <cluster_rmsd>  (13) 
1.01

>  <rmsd>  (13) 
271.76

>  <cluster>  (13) 
3

$$$$
UYYINUAOVYUWQM-WBADGWMWNA-N
     RDKit          3D

 52 55  0  0  0  0  0  0  0  0999 V2000
  139.8160   74.2640  221.9870 O   0  0  0  0  0  0  0  0  0  0  0  0
  140.1380   75.4820  221.9290 C   0  0  0  0  0  0  0  0  0  0  0  0
  141.4450   75.8470  221.4510 N   0  0  0  0  0  0  0  0  0  0  0  0
  142.2380   74.8950  220.6780 C   0  0  0  0  0  0  0  0  0  0  0  0
  142.8220   75.5110  219.4340 C   0  0  0  0  0  0  0  0  0  0  0  0
  143.7810   74.8990  218.8810 O   0  0  0  0  0  0  0  0  0  0  0  0
  142.3190   76.7240  218.8230 N   0  0  0  0  0  0  0  0  0  0  0  0
  141.9060   76.7140  217.4200 C   0  0  0  0  0  0  0  0  0  0  0  0
  141.8110   78.1770  216.9930 C   0  0  2  0  0  0  0  0  0  0  0  0
  142.3560   78.3580  215.7120 O   0  0  0  0  0  0  0  0  0  0  0  0
  142.6000   78.9430  218.0510 C   0  0  0  0  0  0  0  0  0  0  0  0
  142.4770   78.0960  219.3240 C   0  0  1  0  0  0  0  0  0  0  0  0
  141.2420   78.5470  220.1420 C   0  0  0  0  0  0  0  0  0  0  0  0
  141.5870   79.4970  221.2550 C   0  0  0  0  0  0  0  0  0  0  0  0
  141.1970   80.8470  221.1810 C   0  0  0  0  0  0  0  0  0  0  0  0
  141.4980   81.7260  222.2240 C   0  0  0  0  0  0  0  0  0  0  0  0
  142.1900   81.2670  223.3490 C   0  0  0  0  0  0  0  0  0  0  0  0
  142.5780   79.9260  223.4340 C   0  0  0  0  0  0  0  0  0  0  0  0
  142.2760   79.0410  222.3930 C   0  0  0  0  0  0  0  0  0  0  0  0
  139.1650   76.5160  222.3280 C   0  0  0  0  0  0  0  0  0  0  0  0
  137.7880   76.3170  222.1240 C   0  0  0  0  0  0  0  0  0  0  0  0
  136.8820   77.3140  222.4910 C   0  0  0  0  0  0  0  0  0  0  0  0
  137.3490   78.5030  223.0660 C   0  0  0  0  0  0  0  0  0  0  0  0
  136.4640   79.5230  223.4520 C   0  0  0  0  0  0  0  0  0  0  0  0
  136.9630   80.6980  224.0270 C   0  0  0  0  0  0  0  0  0  0  0  0
  136.1080   81.6810  224.4050 F   0  0  0  0  0  0  0  0  0  0  0  0
  138.3400   80.8610  224.2150 C   0  0  0  0  0  0  0  0  0  0  0  0
  139.2270   79.8500  223.8280 C   0  0  0  0  0  0  0  0  0  0  0  0
  138.7380   78.6710  223.2550 C   0  0  0  0  0  0  0  0  0  0  0  0
  139.5970   77.6840  222.8800 N   0  0  0  0  0  0  0  0  0  0  0  0
  141.8250   76.8000  221.6510 H   0  0  0  0  0  0  0  0  0  0  0  0
  143.0601   74.5257  221.3087 H   0  0  0  0  0  0  0  0  0  0  0  0
  141.5708   74.0779  220.3662 H   0  0  0  0  0  0  0  0  0  0  0  0
  142.6510   76.1855  216.8070 H   0  0  0  0  0  0  0  0  0  0  0  0
  140.9450   76.1951  217.2889 H   0  0  0  0  0  0  0  0  0  0  0  0
  140.7708   78.5288  216.9280 H   0  0  0  0  0  0  0  0  0  0  0  0
  143.0810   79.0290  215.8080 H   0  0  0  0  0  0  0  0  0  0  0  0
  143.6540   79.0417  217.7520 H   0  0  0  0  0  0  0  0  0  0  0  0
  142.2177   79.9644  218.1943 H   0  0  0  0  0  0  0  0  0  0  0  0
  143.3415   78.1908  219.9975 H   0  0  0  0  0  0  0  0  0  0  0  0
  140.5351   79.0456  219.4626 H   0  0  0  0  0  0  0  0  0  0  0  0
  140.8065   77.6475  220.6016 H   0  0  0  0  0  0  0  0  0  0  0  0
  140.6525   81.2118  220.2976 H   0  0  0  0  0  0  0  0  0  0  0  0
  141.1904   82.7802  222.1603 H   0  0  0  0  0  0  0  0  0  0  0  0
  142.4294   81.9613  224.1679 H   0  0  0  0  0  0  0  0  0  0  0  0
  143.1213   79.5665  224.3204 H   0  0  0  0  0  0  0  0  0  0  0  0
  142.5783   77.9858  222.4650 H   0  0  0  0  0  0  0  0  0  0  0  0
  137.4259   75.3794  221.6770 H   0  0  0  0  0  0  0  0  0  0  0  0
  135.8041   77.1662  222.3290 H   0  0  0  0  0  0  0  0  0  0  0  0
  135.3812   79.3990  223.3029 H   0  0  0  0  0  0  0  0  0  0  0  0
  138.7262   81.7860  224.6680 H   0  0  0  0  0  0  0  0  0  0  0  0
  140.3092   79.9824  223.9744 H   0  0  0  0  0  0  0  0  0  0  0  0
  1  2  2  0
  2  3  1  0
  3  4  1  0
  4  5  1  0
  5  6  2  0
  5  7  1  0
  7  8  1  0
  8  9  1  0
  9 10  1  0
  9 11  1  0
 11 12  1  0
 12 13  1  0
 13 14  1  0
 14 15  2  0
 15 16  1  0
 16 17  2  0
 17 18  1  0
 18 19  2  0
  2 20  1  0
 20 21  2  0
 21 22  1  0
 22 23  2  0
 23 24  1  0
 24 25  2  0
 25 26  1  0
 25 27  1  0
 27 28  2  0
 28 29  1  0
 29 30  2  0
 12  7  1  0
 19 14  1  0
 30 20  1  0
 29 23  1  0
  3 31  1  0
  4 32  1  0
  4 33  1  0
  8 34  1  0
  8 35  1  0
  9 36  1  6
 10 37  1  0
 11 38  1  0
 11 39  1  0
 12 40  1  1
 13 41  1  0
 13 42  1  0
 15 43  1  0
 16 44  1  0
 17 45  1  0
 18 46  1  0
 19 47  1  0
 21 48  1  0
 22 49  1  0
 24 50  1  0
 27 51  1  0
 28 52  1  0
M  END
>  <UniqueID>  (14) 
21

>  <SMILES>  (14) 
O=C(NCC(=O)N1C[C@H](O)C[C@H]1Cc1ccccc1)c1ccc2cc(F)ccc2n1

>  <Energy>  (14) 
55.921075252568606

>  <Genealogy>  (14) 
O=C(NCC(=O)N1C[C@H](O)C[C@H]1Cc1ccccc1)c1ccc2cc(F)ccc2n1 (3D coordinates assigned)
O=C(NCC(=O)N1C[C@H](O)C[C@H]1Cc1ccccc1)c1ccc2cc(F)ccc2n1 (nonaromatic ring conformer: 55.921075252568606 kcal/mol)

>  <smiles>  (14) 
O=C(NCC(=O)N1C[C@H](O)C[C@H]1Cc1ccccc1)c1ccc2cc(F)ccc2n1

>  <score_type>  (14) 
oracle

>  <origin>  (14) 
autodockgpu

>  <m_score__min__energy>  (14) 
-8.9499999999999993

>  <m_primary>  (14) 
energy

>  <meeko>  (14) 
{"free_energy": -7.09, "intermolecular_energy": -9.18, "internal_energy": -2.52, "cluster_size": 3, "cluster_id": 6, "rank_in_cluster": 2}

>  <energy>  (14) 
-8.31

>  <cluster_rmsd>  (14) 
1.03

>  <rmsd>  (14) 
271.85

>  <cluster>  (14) 
3

$$$$
UYYINUAOVYUWQM-WBADGWMWNA-N
     RDKit          3D

 52 55  0  0  0  0  0  0  0  0999 V2000
  140.4150   73.3290  222.6930 O   0  0  0  0  0  0  0  0  0  0  0  0
  140.1200   72.1180  222.4960 C   0  0  0  0  0  0  0  0  0  0  0  0
  139.8750   71.6590  221.1550 N   0  0  0  0  0  0  0  0  0  0  0  0
  140.3390   72.4420  220.0130 C   0  0  0  0  0  0  0  0  0  0  0  0
  141.6680   71.9650  219.4900 C   0  0  0  0  0  0  0  0  0  0  0  0
  141.6960   70.8320  218.9290 O   0  0  0  0  0  0  0  0  0  0  0  0
  142.8860   72.7460  219.5550 N   0  0  0  0  0  0  0  0  0  0  0  0
  144.1290   72.2000  219.0100 C   0  0  0  0  0  0  0  0  0  0  0  0
  145.2560   73.0620  219.5720 C   0  0  2  0  0  0  0  0  0  0  0  0
  146.3430   72.2660  219.9670 O   0  0  0  0  0  0  0  0  0  0  0  0
  144.6340   73.7900  220.7600 C   0  0  0  0  0  0  0  0  0  0  0  0
  143.1450   73.9100  220.4120 C   0  0  1  0  0  0  0  0  0  0  0  0
  142.8820   75.2380  219.6610 C   0  0  0  0  0  0  0  0  0  0  0  0
  142.0890   76.2260  220.4700 C   0  0  0  0  0  0  0  0  0  0  0  0
  142.1480   77.5990  220.1660 C   0  0  0  0  0  0  0  0  0  0  0  0
  141.3940   78.5160  220.9040 C   0  0  0  0  0  0  0  0  0  0  0  0
  140.5780   78.0720  221.9480 C   0  0  0  0  0  0  0  0  0  0  0  0
  140.5110   76.7090  222.2550 C   0  0  0  0  0  0  0  0  0  0  0  0
  141.2600   75.7870  221.5170 C   0  0  0  0  0  0  0  0  0  0  0  0
  140.0530   71.1860  223.6370 C   0  0  0  0  0  0  0  0  0  0  0  0
  139.4450   69.9270  223.4960 C   0  0  0  0  0  0  0  0  0  0  0  0
  139.3750   69.0650  224.5920 C   0  0  0  0  0  0  0  0  0  0  0  0
  139.9160   69.4570  225.8230 C   0  0  0  0  0  0  0  0  0  0  0  0
  139.8680   68.6120  226.9430 C   0  0  0  0  0  0  0  0  0  0  0  0
  140.4200   69.0320  228.1590 C   0  0  0  0  0  0  0  0  0  0  0  0
  140.3780   68.2130  229.2400 F   0  0  0  0  0  0  0  0  0  0  0  0
  141.0180   70.2930  228.2620 C   0  0  0  0  0  0  0  0  0  0  0  0
  141.0650   71.1420  227.1510 C   0  0  0  0  0  0  0  0  0  0  0  0
  140.5180   70.7300  225.9300 C   0  0  0  0  0  0  0  0  0  0  0  0
  140.5640   71.5510  224.8460 N   0  0  0  0  0  0  0  0  0  0  0  0
  139.3710   70.7560  220.9970 H   0  0  0  0  0  0  0  0  0  0  0  0
  139.5945   72.3658  219.2069 H   0  0  0  0  0  0  0  0  0  0  0  0
  140.4652   73.4817  220.3492 H   0  0  0  0  0  0  0  0  0  0  0  0
  144.2561   71.1537  219.3248 H   0  0  0  0  0  0  0  0  0  0  0  0
  144.1243   72.2140  217.9101 H   0  0  0  0  0  0  0  0  0  0  0  0
  145.6561   73.7664  218.8279 H   0  0  0  0  0  0  0  0  0  0  0  0
  146.0960   71.8690  220.8430 H   0  0  0  0  0  0  0  0  0  0  0  0
  144.7701   73.2095  221.6844 H   0  0  0  0  0  0  0  0  0  0  0  0
  145.0993   74.7713  220.9349 H   0  0  0  0  0  0  0  0  0  0  0  0
  142.4897   73.9237  221.2954 H   0  0  0  0  0  0  0  0  0  0  0  0
  143.8502   75.6927  219.4043 H   0  0  0  0  0  0  0  0  0  0  0  0
  142.2899   74.9968  218.7658 H   0  0  0  0  0  0  0  0  0  0  0  0
  142.7895   77.9516  219.3450 H   0  0  0  0  0  0  0  0  0  0  0  0
  141.4430   79.5881  220.6628 H   0  0  0  0  0  0  0  0  0  0  0  0
  139.9875   78.7955  222.5292 H   0  0  0  0  0  0  0  0  0  0  0  0
  139.8686   76.3620  223.0777 H   0  0  0  0  0  0  0  0  0  0  0  0
  141.2003   74.7151  221.7565 H   0  0  0  0  0  0  0  0  0  0  0  0
  139.0259   69.6218  222.5259 H   0  0  0  0  0  0  0  0  0  0  0  0
  138.8960   68.0801  224.4890 H   0  0  0  0  0  0  0  0  0  0  0  0
  139.3971   67.6209  226.8652 H   0  0  0  0  0  0  0  0  0  0  0  0
  141.4523   70.6176  229.2191 H   0  0  0  0  0  0  0  0  0  0  0  0
  141.5322   72.1341  227.2370 H   0  0  0  0  0  0  0  0  0  0  0  0
  1  2  2  0
  2  3  1  0
  3  4  1  0
  4  5  1  0
  5  6  2  0
  5  7  1  0
  7  8  1  0
  8  9  1  0
  9 10  1  0
  9 11  1  0
 11 12  1  0
 12 13  1  0
 13 14  1  0
 14 15  2  0
 15 16  1  0
 16 17  2  0
 17 18  1  0
 18 19  2  0
  2 20  1  0
 20 21  2  0
 21 22  1  0
 22 23  2  0
 23 24  1  0
 24 25  2  0
 25 26  1  0
 25 27  1  0
 27 28  2  0
 28 29  1  0
 29 30  2  0
 12  7  1  0
 19 14  1  0
 30 20  1  0
 29 23  1  0
  3 31  1  0
  4 32  1  0
  4 33  1  0
  8 34  1  0
  8 35  1  0
  9 36  1  6
 10 37  1  0
 11 38  1  0
 11 39  1  0
 12 40  1  1
 13 41  1  0
 13 42  1  0
 15 43  1  0
 16 44  1  0
 17 45  1  0
 18 46  1  0
 19 47  1  0
 21 48  1  0
 22 49  1  0
 24 50  1  0
 27 51  1  0
 28 52  1  0
M  END
>  <UniqueID>  (15) 
21

>  <SMILES>  (15) 
O=C(NCC(=O)N1C[C@H](O)C[C@H]1Cc1ccccc1)c1ccc2cc(F)ccc2n1

>  <Energy>  (15) 
55.921075252568606

>  <Genealogy>  (15) 
O=C(NCC(=O)N1C[C@H](O)C[C@H]1Cc1ccccc1)c1ccc2cc(F)ccc2n1 (3D coordinates assigned)
O=C(NCC(=O)N1C[C@H](O)C[C@H]1Cc1ccccc1)c1ccc2cc(F)ccc2n1 (nonaromatic ring conformer: 55.921075252568606 kcal/mol)

>  <smiles>  (15) 
O=C(NCC(=O)N1C[C@H](O)C[C@H]1Cc1ccccc1)c1ccc2cc(F)ccc2n1

>  <score_type>  (15) 
oracle

>  <origin>  (15) 
autodockgpu

>  <m_score__min__energy>  (15) 
-8.9499999999999993

>  <m_primary>  (15) 
energy

>  <meeko>  (15) 
{"free_energy": -8.46, "intermolecular_energy": -10.55, "internal_energy": -1.5, "cluster_size": 3, "cluster_id": 3, "rank_in_cluster": 1}

>  <energy>  (15) 
-7.9

>  <cluster_rmsd>  (15) 
0.0

>  <rmsd>  (15) 
271.88

>  <cluster>  (15) 
4

$$$$
UYYINUAOVYUWQM-WBADGWMWNA-N
     RDKit          3D

 52 55  0  0  0  0  0  0  0  0999 V2000
  141.7770   77.9980  217.3700 O   0  0  0  0  0  0  0  0  0  0  0  0
  142.3340   77.5880  218.4250 C   0  0  0  0  0  0  0  0  0  0  0  0
  142.2250   78.3640  219.6310 N   0  0  0  0  0  0  0  0  0  0  0  0
  141.1830   79.3790  219.7610 C   0  0  0  0  0  0  0  0  0  0  0  0
  139.8460   78.7870  220.1180 C   0  0  0  0  0  0  0  0  0  0  0  0
  138.9010   78.9500  219.2920 O   0  0  0  0  0  0  0  0  0  0  0  0
  139.6020   78.0110  221.3170 N   0  0  0  0  0  0  0  0  0  0  0  0
  140.3370   76.7670  221.5410 C   0  0  0  0  0  0  0  0  0  0  0  0
  139.5900   76.0230  222.6450 C   0  0  2  0  0  0  0  0  0  0  0  0
  139.4980   74.6540  222.3490 O   0  0  0  0  0  0  0  0  0  0  0  0
  138.2140   76.6790  222.6950 C   0  0  0  0  0  0  0  0  0  0  0  0
  138.4470   78.1180  222.2190 C   0  0  1  0  0  0  0  0  0  0  0  0
  138.7550   79.0340  223.4290 C   0  0  0  0  0  0  0  0  0  0  0  0
  140.1000   79.6990  223.3390 C   0  0  0  0  0  0  0  0  0  0  0  0
  140.2130   81.0000  222.8140 C   0  0  0  0  0  0  0  0  0  0  0  0
  141.4590   81.6280  222.7490 C   0  0  0  0  0  0  0  0  0  0  0  0
  142.6020   80.9650  223.2070 C   0  0  0  0  0  0  0  0  0  0  0  0
  142.4990   79.6730  223.7340 C   0  0  0  0  0  0  0  0  0  0  0  0
  141.2520   79.0420  223.8040 C   0  0  0  0  0  0  0  0  0  0  0  0
  143.0680   76.3080  218.4140 C   0  0  0  0  0  0  0  0  0  0  0  0
  143.1850   75.5620  217.2280 C   0  0  0  0  0  0  0  0  0  0  0  0
  143.8680   74.3450  217.2410 C   0  0  0  0  0  0  0  0  0  0  0  0
  144.4360   73.8760  218.4330 C   0  0  0  0  0  0  0  0  0  0  0  0
  145.1350   72.6590  218.4780 C   0  0  0  0  0  0  0  0  0  0  0  0
  145.6940   72.2200  219.6840 C   0  0  0  0  0  0  0  0  0  0  0  0
  146.3730   71.0460  219.7280 F   0  0  0  0  0  0  0  0  0  0  0  0
  145.5570   72.9900  220.8450 C   0  0  0  0  0  0  0  0  0  0  0  0
  144.8590   74.2020  220.8070 C   0  0  0  0  0  0  0  0  0  0  0  0
  144.2980   74.6500  219.6060 C   0  0  0  0  0  0  0  0  0  0  0  0
  143.6200   75.8290  219.5640 N   0  0  0  0  0  0  0  0  0  0  0  0
  142.8900   78.1960  220.4210 H   0  0  0  0  0  0  0  0  0  0  0  0
  141.4770   80.0881  220.5489 H   0  0  0  0  0  0  0  0  0  0  0  0
  141.0788   79.8790  218.7868 H   0  0  0  0  0  0  0  0  0  0  0  0
  140.3561   76.1646  220.6208 H   0  0  0  0  0  0  0  0  0  0  0  0
  141.3808   76.9643  221.8264 H   0  0  0  0  0  0  0  0  0  0  0  0
  140.1049   76.0852  223.6151 H   0  0  0  0  0  0  0  0  0  0  0  0
  138.7950   74.2850  222.9450 H   0  0  0  0  0  0  0  0  0  0  0  0
  137.5124   76.1587  222.0264 H   0  0  0  0  0  0  0  0  0  0  0  0
  137.7732   76.6416  223.7021 H   0  0  0  0  0  0  0  0  0  0  0  0
  137.5727   78.5585  221.7174 H   0  0  0  0  0  0  0  0  0  0  0  0
  137.9817   79.8144  223.4828 H   0  0  0  0  0  0  0  0  0  0  0  0
  138.7630   78.3988  224.3270 H   0  0  0  0  0  0  0  0  0  0  0  0
  139.3160   81.5246  222.4532 H   0  0  0  0  0  0  0  0  0  0  0  0
  141.5412   82.6447  222.3373 H   0  0  0  0  0  0  0  0  0  0  0  0
  143.5830   81.4597  223.1529 H   0  0  0  0  0  0  0  0  0  0  0  0
  143.3990   79.1528  224.0936 H   0  0  0  0  0  0  0  0  0  0  0  0
  141.1732   78.0285  224.2243 H   0  0  0  0  0  0  0  0  0  0  0  0
  142.7402   75.9359  216.2940 H   0  0  0  0  0  0  0  0  0  0  0  0
  143.9603   73.7550  216.3172 H   0  0  0  0  0  0  0  0  0  0  0  0
  145.2431   72.0517  217.5672 H   0  0  0  0  0  0  0  0  0  0  0  0
  145.9994   72.6412  221.7898 H   0  0  0  0  0  0  0  0  0  0  0  0
  144.7512   74.8031  221.7219 H   0  0  0  0  0  0  0  0  0  0  0  0
  1  2  2  0
  2  3  1  0
  3  4  1  0
  4  5  1  0
  5  6  2  0
  5  7  1  0
  7  8  1  0
  8  9  1  0
  9 10  1  0
  9 11  1  0
 11 12  1  0
 12 13  1  0
 13 14  1  0
 14 15  2  0
 15 16  1  0
 16 17  2  0
 17 18  1  0
 18 19  2  0
  2 20  1  0
 20 21  2  0
 21 22  1  0
 22 23  2  0
 23 24  1  0
 24 25  2  0
 25 26  1  0
 25 27  1  0
 27 28  2  0
 28 29  1  0
 29 30  2  0
 12  7  1  0
 19 14  1  0
 30 20  1  0
 29 23  1  0
  3 31  1  0
  4 32  1  0
  4 33  1  0
  8 34  1  0
  8 35  1  0
  9 36  1  1
 10 37  1  0
 11 38  1  0
 11 39  1  0
 12 40  1  6
 13 41  1  0
 13 42  1  0
 15 43  1  0
 16 44  1  0
 17 45  1  0
 18 46  1  0
 19 47  1  0
 21 48  1  0
 22 49  1  0
 24 50  1  0
 27 51  1  0
 28 52  1  0
M  END
>  <UniqueID>  (16) 
21

>  <SMILES>  (16) 
O=C(NCC(=O)N1C[C@H](O)C[C@H]1Cc1ccccc1)c1ccc2cc(F)ccc2n1

>  <Energy>  (16) 
55.921075252568606

>  <Genealogy>  (16) 
O=C(NCC(=O)N1C[C@H](O)C[C@H]1Cc1ccccc1)c1ccc2cc(F)ccc2n1 (3D coordinates assigned)
O=C(NCC(=O)N1C[C@H](O)C[C@H]1Cc1ccccc1)c1ccc2cc(F)ccc2n1 (nonaromatic ring conformer: 55.921075252568606 kcal/mol)

>  <smiles>  (16) 
O=C(NCC(=O)N1C[C@H](O)C[C@H]1Cc1ccccc1)c1ccc2cc(F)ccc2n1

>  <score_type>  (16) 
oracle

>  <origin>  (16) 
autodockgpu

>  <m_score__min__energy>  (16) 
-8.9499999999999993

>  <m_primary>  (16) 
energy

>  <meeko>  (16) 
{"free_energy": -7.48, "intermolecular_energy": -9.57, "internal_energy": -2.07, "cluster_size": 1, "cluster_id": 5, "rank_in_cluster": 1}

>  <energy>  (16) 
-7.79

>  <cluster_rmsd>  (16) 
1.01

>  <rmsd>  (16) 
271.98

>  <cluster>  (16) 
4

$$$$
UYYINUAOVYUWQM-WBADGWMWNA-N
     RDKit          3D

 52 55  0  0  0  0  0  0  0  0999 V2000
  140.2920   72.9620  222.6020 O   0  0  0  0  0  0  0  0  0  0  0  0
  140.3380   71.7150  222.7900 C   0  0  0  0  0  0  0  0  0  0  0  0
  140.3170   70.8280  221.6580 N   0  0  0  0  0  0  0  0  0  0  0  0
  140.6370   71.3290  220.3240 C   0  0  0  0  0  0  0  0  0  0  0  0
  142.1120   71.2620  220.0250 C   0  0  0  0  0  0  0  0  0  0  0  0
  142.6410   70.1150  219.9720 O   0  0  0  0  0  0  0  0  0  0  0  0
  142.9310   72.4260  219.7520 N   0  0  0  0  0  0  0  0  0  0  0  0
  144.1340   72.2910  218.9310 C   0  0  0  0  0  0  0  0  0  0  0  0
  144.9510   73.5600  219.1600 C   0  0  2  0  0  0  0  0  0  0  0  0
  146.3150   73.2570  219.2960 O   0  0  0  0  0  0  0  0  0  0  0  0
  144.3810   74.1650  220.4400 C   0  0  0  0  0  0  0  0  0  0  0  0
  142.9180   73.7050  220.4750 C   0  0  1  0  0  0  0  0  0  0  0  0
  142.0180   74.7470  219.7670 C   0  0  0  0  0  0  0  0  0  0  0  0
  141.7280   75.9510  220.6190 C   0  0  0  0  0  0  0  0  0  0  0  0
  142.1140   77.2340  220.1870 C   0  0  0  0  0  0  0  0  0  0  0  0
  141.8260   78.3560  220.9680 C   0  0  0  0  0  0  0  0  0  0  0  0
  141.1520   78.2090  222.1840 C   0  0  0  0  0  0  0  0  0  0  0  0
  140.7620   76.9390  222.6200 C   0  0  0  0  0  0  0  0  0  0  0  0
  141.0450   75.8120  221.8390 C   0  0  0  0  0  0  0  0  0  0  0  0
  140.4380   71.1850  224.1630 C   0  0  0  0  0  0  0  0  0  0  0  0
  141.0150   71.9580  225.1860 C   0  0  0  0  0  0  0  0  0  0  0  0
  141.1180   71.4330  226.4750 C   0  0  0  0  0  0  0  0  0  0  0  0
  140.6410   70.1440  226.7440 C   0  0  0  0  0  0  0  0  0  0  0  0
  140.7230   69.5900  228.0320 C   0  0  0  0  0  0  0  0  0  0  0  0
  140.2340   68.2990  228.2680 C   0  0  0  0  0  0  0  0  0  0  0  0
  140.3080   67.7650  229.5130 F   0  0  0  0  0  0  0  0  0  0  0  0
  139.6650   67.5600  227.2250 C   0  0  0  0  0  0  0  0  0  0  0  0
  139.5840   68.1050  225.9390 C   0  0  0  0  0  0  0  0  0  0  0  0
  140.0680   69.3950  225.6930 C   0  0  0  0  0  0  0  0  0  0  0  0
  139.9890   69.9300  224.4440 N   0  0  0  0  0  0  0  0  0  0  0  0
  140.0780   69.8180  221.7920 H   0  0  0  0  0  0  0  0  0  0  0  0
  140.0978   70.7238  219.5804 H   0  0  0  0  0  0  0  0  0  0  0  0
  140.3331   72.3853  220.2802 H   0  0  0  0  0  0  0  0  0  0  0  0
  144.7094   71.4061  219.2405 H   0  0  0  0  0  0  0  0  0  0  0  0
  143.8814   72.1635  217.8680 H   0  0  0  0  0  0  0  0  0  0  0  0
  144.8833   74.2604  218.3145 H   0  0  0  0  0  0  0  0  0  0  0  0
  146.7930   74.1270  219.3310 H   0  0  0  0  0  0  0  0  0  0  0  0
  144.9253   73.7923  221.3203 H   0  0  0  0  0  0  0  0  0  0  0  0
  144.4715   75.2611  220.4565 H   0  0  0  0  0  0  0  0  0  0  0  0
  142.5183   73.5977  221.4942 H   0  0  0  0  0  0  0  0  0  0  0  0
  142.5243   75.0811  218.8494 H   0  0  0  0  0  0  0  0  0  0  0  0
  141.0565   74.2579  219.5518 H   0  0  0  0  0  0  0  0  0  0  0  0
  142.6444   77.3536  219.2308 H   0  0  0  0  0  0  0  0  0  0  0  0
  142.1299   79.3563  220.6258 H   0  0  0  0  0  0  0  0  0  0  0  0
  140.9282   79.0935  222.7985 H   0  0  0  0  0  0  0  0  0  0  0  0
  140.2324   76.8253  223.5774 H   0  0  0  0  0  0  0  0  0  0  0  0
  140.7317   74.8147  222.1815 H   0  0  0  0  0  0  0  0  0  0  0  0
  141.3836   72.9719  224.9713 H   0  0  0  0  0  0  0  0  0  0  0  0
  141.5731   72.0307  227.2785 H   0  0  0  0  0  0  0  0  0  0  0  0
  141.1703   70.1688  228.8536 H   0  0  0  0  0  0  0  0  0  0  0  0
  139.2802   66.5475  227.4167 H   0  0  0  0  0  0  0  0  0  0  0  0
  139.1397   67.5193  225.1208 H   0  0  0  0  0  0  0  0  0  0  0  0
  1  2  2  0
  2  3  1  0
  3  4  1  0
  4  5  1  0
  5  6  2  0
  5  7  1  0
  7  8  1  0
  8  9  1  0
  9 10  1  0
  9 11  1  0
 11 12  1  0
 12 13  1  0
 13 14  1  0
 14 15  2  0
 15 16  1  0
 16 17  2  0
 17 18  1  0
 18 19  2  0
  2 20  1  0
 20 21  2  0
 21 22  1  0
 22 23  2  0
 23 24  1  0
 24 25  2  0
 25 26  1  0
 25 27  1  0
 27 28  2  0
 28 29  1  0
 29 30  2  0
 12  7  1  0
 19 14  1  0
 30 20  1  0
 29 23  1  0
  3 31  1  0
  4 32  1  0
  4 33  1  0
  8 34  1  0
  8 35  1  0
  9 36  1  6
 10 37  1  0
 11 38  1  0
 11 39  1  0
 12 40  1  1
 13 41  1  0
 13 42  1  0
 15 43  1  0
 16 44  1  0
 17 45  1  0
 18 46  1  0
 19 47  1  0
 21 48  1  0
 22 49  1  0
 24 50  1  0
 27 51  1  0
 28 52  1  0
M  END
>  <UniqueID>  (17) 
21

>  <SMILES>  (17) 
O=C(NCC(=O)N1C[C@H](O)C[C@H]1Cc1ccccc1)c1ccc2cc(F)ccc2n1

>  <Energy>  (17) 
55.921075252568606

>  <Genealogy>  (17) 
O=C(NCC(=O)N1C[C@H](O)C[C@H]1Cc1ccccc1)c1ccc2cc(F)ccc2n1 (3D coordinates assigned)
O=C(NCC(=O)N1C[C@H](O)C[C@H]1Cc1ccccc1)c1ccc2cc(F)ccc2n1 (nonaromatic ring conformer: 55.921075252568606 kcal/mol)

>  <smiles>  (17) 
O=C(NCC(=O)N1C[C@H](O)C[C@H]1Cc1ccccc1)c1ccc2cc(F)ccc2n1

>  <score_type>  (17) 
oracle

>  <origin>  (17) 
autodockgpu

>  <m_score__min__energy>  (17) 
-8.9499999999999993

>  <m_primary>  (17) 
energy

>  <meeko>  (17) 
{"free_energy": -8.35, "intermolecular_energy": -10.44, "internal_energy": -1.71, "cluster_size": 3, "cluster_id": 3, "rank_in_cluster": 2}

>  <energy>  (17) 
-7.48

>  <cluster_rmsd>  (17) 
0.0

>  <rmsd>  (17) 
271.47

>  <cluster>  (17) 
5

$$$$
UYYINUAOVYUWQM-WBADGWMWNA-N
     RDKit          3D

 52 55  0  0  0  0  0  0  0  0999 V2000
  141.4210   72.2830  221.5800 O   0  0  0  0  0  0  0  0  0  0  0  0
  140.4760   72.4820  222.3920 C   0  0  0  0  0  0  0  0  0  0  0  0
  139.6000   73.6060  222.1970 N   0  0  0  0  0  0  0  0  0  0  0  0
  139.5340   74.2710  220.8980 C   0  0  0  0  0  0  0  0  0  0  0  0
  140.0240   75.6940  220.9550 C   0  0  0  0  0  0  0  0  0  0  0  0
  139.5220   76.4430  221.8420 O   0  0  0  0  0  0  0  0  0  0  0  0
  141.0570   76.2250  220.0900 N   0  0  0  0  0  0  0  0  0  0  0  0
  141.3440   75.5720  218.8130 C   0  0  0  0  0  0  0  0  0  0  0  0
  142.6950   76.1120  218.3510 C   0  0  2  0  0  0  0  0  0  0  0  0
  143.4910   75.0820  217.8280 O   0  0  0  0  0  0  0  0  0  0  0  0
  143.3190   76.7220  219.6030 C   0  0  0  0  0  0  0  0  0  0  0  0
  142.1270   77.1600  220.4630 C   0  0  1  0  0  0  0  0  0  0  0  0
  141.7440   78.6230  220.1320 C   0  0  0  0  0  0  0  0  0  0  0  0
  141.8300   79.5390  221.3210 C   0  0  0  0  0  0  0  0  0  0  0  0
  141.5440   80.9100  221.1810 C   0  0  0  0  0  0  0  0  0  0  0  0
  141.6020   81.7580  222.2900 C   0  0  0  0  0  0  0  0  0  0  0  0
  141.9460   81.2470  223.5450 C   0  0  0  0  0  0  0  0  0  0  0  0
  142.2280   79.8850  223.6940 C   0  0  0  0  0  0  0  0  0  0  0  0
  142.1670   79.0310  222.5880 C   0  0  0  0  0  0  0  0  0  0  0  0
  140.2680   71.5480  223.5140 C   0  0  0  0  0  0  0  0  0  0  0  0
  139.5830   70.3360  223.3170 C   0  0  0  0  0  0  0  0  0  0  0  0
  139.3790   69.4730  224.3940 C   0  0  0  0  0  0  0  0  0  0  0  0
  139.8630   69.8150  225.6640 C   0  0  0  0  0  0  0  0  0  0  0  0
  139.6800   68.9660  226.7670 C   0  0  0  0  0  0  0  0  0  0  0  0
  140.1780   69.3360  228.0220 C   0  0  0  0  0  0  0  0  0  0  0  0
  140.0060   68.5130  229.0880 F   0  0  0  0  0  0  0  0  0  0  0  0
  140.8560   70.5500  228.1810 C   0  0  0  0  0  0  0  0  0  0  0  0
  141.0370   71.4030  227.0860 C   0  0  0  0  0  0  0  0  0  0  0  0
  140.5440   71.0400  225.8270 C   0  0  0  0  0  0  0  0  0  0  0  0
  140.7210   71.8660  224.7590 N   0  0  0  0  0  0  0  0  0  0  0  0
  139.0030   73.9440  222.9860 H   0  0  0  0  0  0  0  0  0  0  0  0
  140.1555   73.7119  220.1831 H   0  0  0  0  0  0  0  0  0  0  0  0
  138.4795   74.2920  220.5856 H   0  0  0  0  0  0  0  0  0  0  0  0
  141.3948   74.4812  218.9457 H   0  0  0  0  0  0  0  0  0  0  0  0
  140.5566   75.7771  218.0727 H   0  0  0  0  0  0  0  0  0  0  0  0
  142.5968   76.8526  217.5436 H   0  0  0  0  0  0  0  0  0  0  0  0
  144.4300   75.3990  217.8800 H   0  0  0  0  0  0  0  0  0  0  0  0
  143.9272   75.9759  220.1354 H   0  0  0  0  0  0  0  0  0  0  0  0
  143.9895   77.5611  219.3655 H   0  0  0  0  0  0  0  0  0  0  0  0
  142.3355   77.1359  221.5428 H   0  0  0  0  0  0  0  0  0  0  0  0
  142.4256   78.9956  219.3531 H   0  0  0  0  0  0  0  0  0  0  0  0
  140.6966   78.6196  219.7959 H   0  0  0  0  0  0  0  0  0  0  0  0
  141.2738   81.3154  220.1948 H   0  0  0  0  0  0  0  0  0  0  0  0
  141.3768   82.8286  222.1755 H   0  0  0  0  0  0  0  0  0  0  0  0
  141.9950   81.9167  224.4163 H   0  0  0  0  0  0  0  0  0  0  0  0
  142.4981   79.4850  224.6825 H   0  0  0  0  0  0  0  0  0  0  0  0
  142.3832   77.9593  222.7097 H   0  0  0  0  0  0  0  0  0  0  0  0
  139.2093   70.0693  222.3174 H   0  0  0  0  0  0  0  0  0  0  0  0
  138.8393   68.5259  224.2467 H   0  0  0  0  0  0  0  0  0  0  0  0
  139.1463   68.0119  226.6454 H   0  0  0  0  0  0  0  0  0  0  0  0
  141.2476   70.8345  229.1688 H   0  0  0  0  0  0  0  0  0  0  0  0
  141.5666   72.3585  227.2147 H   0  0  0  0  0  0  0  0  0  0  0  0
  1  2  2  0
  2  3  1  0
  3  4  1  0
  4  5  1  0
  5  6  2  0
  5  7  1  0
  7  8  1  0
  8  9  1  0
  9 10  1  0
  9 11  1  0
 11 12  1  0
 12 13  1  0
 13 14  1  0
 14 15  2  0
 15 16  1  0
 16 17  2  0
 17 18  1  0
 18 19  2  0
  2 20  1  0
 20 21  2  0
 21 22  1  0
 22 23  2  0
 23 24  1  0
 24 25  2  0
 25 26  1  0
 25 27  1  0
 27 28  2  0
 28 29  1  0
 29 30  2  0
 12  7  1  0
 19 14  1  0
 30 20  1  0
 29 23  1  0
  3 31  1  0
  4 32  1  0
  4 33  1  0
  8 34  1  0
  8 35  1  0
  9 36  1  6
 10 37  1  0
 11 38  1  0
 11 39  1  0
 12 40  1  1
 13 41  1  0
 13 42  1  0
 15 43  1  0
 16 44  1  0
 17 45  1  0
 18 46  1  0
 19 47  1  0
 21 48  1  0
 22 49  1  0
 24 50  1  0
 27 51  1  0
 28 52  1  0
M  END
>  <UniqueID>  (18) 
21

>  <SMILES>  (18) 
O=C(NCC(=O)N1C[C@H](O)C[C@H]1Cc1ccccc1)c1ccc2cc(F)ccc2n1

>  <Energy>  (18) 
55.921075252568606

>  <Genealogy>  (18) 
O=C(NCC(=O)N1C[C@H](O)C[C@H]1Cc1ccccc1)c1ccc2cc(F)ccc2n1 (3D coordinates assigned)
O=C(NCC(=O)N1C[C@H](O)C[C@H]1Cc1ccccc1)c1ccc2cc(F)ccc2n1 (nonaromatic ring conformer: 55.921075252568606 kcal/mol)

>  <smiles>  (18) 
O=C(NCC(=O)N1C[C@H](O)C[C@H]1Cc1ccccc1)c1ccc2cc(F)ccc2n1

>  <score_type>  (18) 
oracle

>  <origin>  (18) 
autodockgpu

>  <m_score__min__energy>  (18) 
-8.9499999999999993

>  <m_primary>  (18) 
energy

>  <meeko>  (18) 
{"free_energy": -8.89, "intermolecular_energy": -10.98, "internal_energy": -1.29, "cluster_size": 5, "cluster_id": 2, "rank_in_cluster": 1}

>  <energy>  (18) 
-7.1

>  <cluster_rmsd>  (18) 
0.0

>  <rmsd>  (18) 
271.53

>  <cluster>  (18) 
6

$$$$
UYYINUAOVYUWQM-WBADGWMWNA-N
     RDKit          3D

 52 55  0  0  0  0  0  0  0  0999 V2000
  138.4850   76.0610  220.3600 O   0  0  0  0  0  0  0  0  0  0  0  0
  138.8440   76.0740  221.5700 C   0  0  0  0  0  0  0  0  0  0  0  0
  138.8030   74.8560  222.3330 N   0  0  0  0  0  0  0  0  0  0  0  0
  138.7390   73.5640  221.6550 C   0  0  0  0  0  0  0  0  0  0  0  0
  139.5960   72.5220  222.3240 C   0  0  0  0  0  0  0  0  0  0  0  0
  140.7480   72.8780  222.7070 O   0  0  0  0  0  0  0  0  0  0  0  0
  139.1570   71.1670  222.5890 N   0  0  0  0  0  0  0  0  0  0  0  0
  138.7240   70.3140  221.4830 C   0  0  0  0  0  0  0  0  0  0  0  0
  137.9780   69.1420  222.1150 C   0  0  2  0  0  0  0  0  0  0  0  0
  136.8180   68.8370  221.3860 O   0  0  0  0  0  0  0  0  0  0  0  0
  137.6440   69.6090  223.5290 C   0  0  0  0  0  0  0  0  0  0  0  0
  138.7540   70.6060  223.8850 C   0  0  1  0  0  0  0  0  0  0  0  0
  139.9280   69.8680  224.5750 C   0  0  0  0  0  0  0  0  0  0  0  0
  140.3170   70.4810  225.8910 C   0  0  0  0  0  0  0  0  0  0  0  0
  141.0820   71.6620  225.9240 C   0  0  0  0  0  0  0  0  0  0  0  0
  141.4250   72.2440  227.1470 C   0  0  0  0  0  0  0  0  0  0  0  0
  141.0110   71.6550  228.3450 C   0  0  0  0  0  0  0  0  0  0  0  0
  140.2470   70.4830  228.3220 C   0  0  0  0  0  0  0  0  0  0  0  0
  139.8970   69.8980  227.1000 C   0  0  0  0  0  0  0  0  0  0  0  0
  139.3230   77.3300  222.1770 C   0  0  0  0  0  0  0  0  0  0  0  0
  138.4130   78.2550  222.7170 C   0  0  0  0  0  0  0  0  0  0  0  0
  138.8830   79.4460  223.2710 C   0  0  0  0  0  0  0  0  0  0  0  0
  140.2590   79.7110  223.2920 C   0  0  0  0  0  0  0  0  0  0  0  0
  140.7650   80.8970  223.8480 C   0  0  0  0  0  0  0  0  0  0  0  0
  142.1450   81.1300  223.8560 C   0  0  0  0  0  0  0  0  0  0  0  0
  142.6350   82.2730  224.3970 F   0  0  0  0  0  0  0  0  0  0  0  0
  143.0220   80.1850  223.3090 C   0  0  0  0  0  0  0  0  0  0  0  0
  142.5230   79.0040  222.7500 C   0  0  0  0  0  0  0  0  0  0  0  0
  141.1450   78.7610  222.7400 C   0  0  0  0  0  0  0  0  0  0  0  0
  140.6560   77.6120  222.1990 N   0  0  0  0  0  0  0  0  0  0  0  0
  138.8260   74.8950  223.3780 H   0  0  0  0  0  0  0  0  0  0  0  0
  137.6954   73.2163  221.6550 H   0  0  0  0  0  0  0  0  0  0  0  0
  139.1174   73.7030  220.6315 H   0  0  0  0  0  0  0  0  0  0  0  0
  138.0567   70.8721  220.8098 H   0  0  0  0  0  0  0  0  0  0  0  0
  139.5800   69.9682  220.8849 H   0  0  0  0  0  0  0  0  0  0  0  0
  138.5773   68.2196  222.1225 H   0  0  0  0  0  0  0  0  0  0  0  0
  136.3570   69.7010  221.2190 H   0  0  0  0  0  0  0  0  0  0  0  0
  136.6600   70.1000  223.5526 H   0  0  0  0  0  0  0  0  0  0  0  0
  137.5933   68.7724  224.2414 H   0  0  0  0  0  0  0  0  0  0  0  0
  138.4298   71.3878  224.5876 H   0  0  0  0  0  0  0  0  0  0  0  0
  139.6308   68.8234  224.7495 H   0  0  0  0  0  0  0  0  0  0  0  0
  140.7996   69.9420  223.9080 H   0  0  0  0  0  0  0  0  0  0  0  0
  141.4110   72.1284  224.9836 H   0  0  0  0  0  0  0  0  0  0  0  0
  142.0221   73.1676  227.1671 H   0  0  0  0  0  0  0  0  0  0  0  0
  141.2860   72.1131  229.3065 H   0  0  0  0  0  0  0  0  0  0  0  0
  139.9211   70.0210  229.2656 H   0  0  0  0  0  0  0  0  0  0  0  0
  139.2917   68.9796  227.0849 H   0  0  0  0  0  0  0  0  0  0  0  0
  137.3342   78.0407  222.7029 H   0  0  0  0  0  0  0  0  0  0  0  0
  138.1749   80.1757  223.6905 H   0  0  0  0  0  0  0  0  0  0  0  0
  140.0780   81.6416  224.2765 H   0  0  0  0  0  0  0  0  0  0  0  0
  144.1059   80.3720  223.3190 H   0  0  0  0  0  0  0  0  0  0  0  0
  143.2144   78.2656  222.3179 H   0  0  0  0  0  0  0  0  0  0  0  0
  1  2  2  0
  2  3  1  0
  3  4  1  0
  4  5  1  0
  5  6  2  0
  5  7  1  0
  7  8  1  0
  8  9  1  0
  9 10  1  0
  9 11  1  0
 11 12  1  0
 12 13  1  0
 13 14  1  0
 14 15  2  0
 15 16  1  0
 16 17  2  0
 17 18  1  0
 18 19  2  0
  2 20  1  0
 20 21  2  0
 21 22  1  0
 22 23  2  0
 23 24  1  0
 24 25  2  0
 25 26  1  0
 25 27  1  0
 27 28  2  0
 28 29  1  0
 29 30  2  0
 12  7  1  0
 19 14  1  0
 30 20  1  0
 29 23  1  0
  3 31  1  0
  4 32  1  0
  4 33  1  0
  8 34  1  0
  8 35  1  0
  9 36  1  1
 10 37  1  0
 11 38  1  0
 11 39  1  0
 12 40  1  1
 13 41  1  0
 13 42  1  0
 15 43  1  0
 16 44  1  0
 17 45  1  0
 18 46  1  0
 19 47  1  0
 21 48  1  0
 22 49  1  0
 24 50  1  0
 27 51  1  0
 28 52  1  0
M  END
>  <UniqueID>  (19) 
21

>  <SMILES>  (19) 
O=C(NCC(=O)N1C[C@H](O)C[C@H]1Cc1ccccc1)c1ccc2cc(F)ccc2n1

>  <Energy>  (19) 
55.921075252568606

>  <Genealogy>  (19) 
O=C(NCC(=O)N1C[C@H](O)C[C@H]1Cc1ccccc1)c1ccc2cc(F)ccc2n1 (3D coordinates assigned)
O=C(NCC(=O)N1C[C@H](O)C[C@H]1Cc1ccccc1)c1ccc2cc(F)ccc2n1 (nonaromatic ring conformer: 55.921075252568606 kcal/mol)

>  <smiles>  (19) 
O=C(NCC(=O)N1C[C@H](O)C[C@H]1Cc1ccccc1)c1ccc2cc(F)ccc2n1

>  <score_type>  (19) 
oracle

>  <origin>  (19) 
autodockgpu

>  <m_score__min__energy>  (19) 
-8.9499999999999993

>  <m_primary>  (19) 
energy

>  <meeko>  (19) 
{"free_energy": -8.81, "intermolecular_energy": -10.9, "internal_energy": -1.21, "cluster_size": 6, "cluster_id": 1, "rank_in_cluster": 2}

>  <energy>  (19) 
-7.09

>  <cluster_rmsd>  (19) 
0.04

>  <rmsd>  (19) 
271.54

>  <cluster>  (19) 
6

$$$$
UYYINUAOVYUWQM-WBADGWMWNA-N
     RDKit          3D

 52 55  0  0  0  0  0  0  0  0999 V2000
  140.2290   72.9960  222.7320 O   0  0  0  0  0  0  0  0  0  0  0  0
  140.3200   71.7500  222.9070 C   0  0  0  0  0  0  0  0  0  0  0  0
  140.3220   70.8730  221.7680 N   0  0  0  0  0  0  0  0  0  0  0  0
  140.6160   71.3970  220.4360 C   0  0  0  0  0  0  0  0  0  0  0  0
  142.0800   71.3100  220.0950 C   0  0  0  0  0  0  0  0  0  0  0  0
  142.5900   70.1550  220.0240 O   0  0  0  0  0  0  0  0  0  0  0  0
  142.9090   72.4610  219.8010 N   0  0  0  0  0  0  0  0  0  0  0  0
  144.1080   72.3030  218.9790 C   0  0  0  0  0  0  0  0  0  0  0  0
  144.9360   73.5690  219.1850 C   0  0  2  0  0  0  0  0  0  0  0  0
  146.2980   73.2560  219.3220 O   0  0  0  0  0  0  0  0  0  0  0  0
  144.3750   74.1990  220.4560 C   0  0  0  0  0  0  0  0  0  0  0  0
  142.9090   73.7520  220.5020 C   0  0  1  0  0  0  0  0  0  0  0  0
  142.0160   74.7910  219.7800 C   0  0  0  0  0  0  0  0  0  0  0  0
  141.6840   75.9810  220.6360 C   0  0  0  0  0  0  0  0  0  0  0  0
  140.9890   75.8090  221.8480 C   0  0  0  0  0  0  0  0  0  0  0  0
  140.7000   76.9120  222.6560 C   0  0  0  0  0  0  0  0  0  0  0  0
  141.1000   78.1920  222.2630 C   0  0  0  0  0  0  0  0  0  0  0  0
  141.7950   78.3720  221.0620 C   0  0  0  0  0  0  0  0  0  0  0  0
  142.0900   77.2700  220.2520 C   0  0  0  0  0  0  0  0  0  0  0  0
  140.4490   71.2110  224.2750 C   0  0  0  0  0  0  0  0  0  0  0  0
  140.7320   72.0660  225.3550 C   0  0  0  0  0  0  0  0  0  0  0  0
  140.8670   71.5360  226.6390 C   0  0  0  0  0  0  0  0  0  0  0  0
  140.7150   70.1580  226.8450 C   0  0  0  0  0  0  0  0  0  0  0  0
  140.8380   69.5940  228.1250 C   0  0  0  0  0  0  0  0  0  0  0  0
  140.6770   68.2150  228.2990 C   0  0  0  0  0  0  0  0  0  0  0  0
  140.7920   67.6700  229.5360 F   0  0  0  0  0  0  0  0  0  0  0  0
  140.3950   67.3950  227.1990 C   0  0  0  0  0  0  0  0  0  0  0  0
  140.2750   67.9510  225.9200 C   0  0  0  0  0  0  0  0  0  0  0  0
  140.4320   69.3290  225.7380 C   0  0  0  0  0  0  0  0  0  0  0  0
  140.3130   69.8740  224.4960 N   0  0  0  0  0  0  0  0  0  0  0  0
  140.1210   69.8550  221.8930 H   0  0  0  0  0  0  0  0  0  0  0  0
  140.0457   70.8179  219.6948 H   0  0  0  0  0  0  0  0  0  0  0  0
  140.3313   72.4595  220.4233 H   0  0  0  0  0  0  0  0  0  0  0  0
  144.6772   71.4186  219.3011 H   0  0  0  0  0  0  0  0  0  0  0  0
  143.8511   72.1603  217.9190 H   0  0  0  0  0  0  0  0  0  0  0  0
  144.8716   74.2566  218.3288 H   0  0  0  0  0  0  0  0  0  0  0  0
  146.7840   74.1220  219.3340 H   0  0  0  0  0  0  0  0  0  0  0  0
  144.9185   73.8359  221.3407 H   0  0  0  0  0  0  0  0  0  0  0  0
  144.4747   75.2945  220.4548 H   0  0  0  0  0  0  0  0  0  0  0  0
  142.5107   73.6642  221.5236 H   0  0  0  0  0  0  0  0  0  0  0  0
  142.5447   75.1427  218.8818 H   0  0  0  0  0  0  0  0  0  0  0  0
  141.0679   74.2916  219.5315 H   0  0  0  0  0  0  0  0  0  0  0  0
  140.6723   74.8029  222.1602 H   0  0  0  0  0  0  0  0  0  0  0  0
  140.1570   76.7725  223.6024 H   0  0  0  0  0  0  0  0  0  0  0  0
  140.8682   79.0593  222.8987 H   0  0  0  0  0  0  0  0  0  0  0  0
  142.1095   79.3802  220.7546 H   0  0  0  0  0  0  0  0  0  0  0  0
  142.6417   77.4133  219.3112 H   0  0  0  0  0  0  0  0  0  0  0  0
  140.8464   73.1473  225.1886 H   0  0  0  0  0  0  0  0  0  0  0  0
  141.0923   72.1985  227.4877 H   0  0  0  0  0  0  0  0  0  0  0  0
  141.0607   70.2357  228.9902 H   0  0  0  0  0  0  0  0  0  0  0  0
  140.2676   66.3116  227.3406 H   0  0  0  0  0  0  0  0  0  0  0  0
  140.0571   67.3039  225.0575 H   0  0  0  0  0  0  0  0  0  0  0  0
  1  2  2  0
  2  3  1  0
  3  4  1  0
  4  5  1  0
  5  6  2  0
  5  7  1  0
  7  8  1  0
  8  9  1  0
  9 10  1  0
  9 11  1  0
 11 12  1  0
 12 13  1  0
 13 14  1  0
 14 15  2  0
 15 16  1  0
 16 17  2  0
 17 18  1  0
 18 19  2  0
  2 20  1  0
 20 21  2  0
 21 22  1  0
 22 23  2  0
 23 24  1  0
 24 25  2  0
 25 26  1  0
 25 27  1  0
 27 28  2  0
 28 29  1  0
 29 30  2  0
 12  7  1  0
 19 14  1  0
 30 20  1  0
 29 23  1  0
  3 31  1  0
  4 32  1  0
  4 33  1  0
  8 34  1  0
  8 35  1  0
  9 36  1  6
 10 37  1  0
 11 38  1  0
 11 39  1  0
 12 40  1  1
 13 41  1  0
 13 42  1  0
 15 43  1  0
 16 44  1  0
 17 45  1  0
 18 46  1  0
 19 47  1  0
 21 48  1  0
 22 49  1  0
 24 50  1  0
 27 51  1  0
 28 52  1  0
M  END
>  <UniqueID>  (20) 
21

>  <SMILES>  (20) 
O=C(NCC(=O)N1C[C@H](O)C[C@H]1Cc1ccccc1)c1ccc2cc(F)ccc2n1

>  <Energy>  (20) 
55.921075252568606

>  <Genealogy>  (20) 
O=C(NCC(=O)N1C[C@H](O)C[C@H]1Cc1ccccc1)c1ccc2cc(F)ccc2n1 (3D coordinates assigned)
O=C(NCC(=O)N1C[C@H](O)C[C@H]1Cc1ccccc1)c1ccc2cc(F)ccc2n1 (nonaromatic ring conformer: 55.921075252568606 kcal/mol)

>  <smiles>  (20) 
O=C(NCC(=O)N1C[C@H](O)C[C@H]1Cc1ccccc1)c1ccc2cc(F)ccc2n1

>  <score_type>  (20) 
oracle

>  <origin>  (20) 
autodockgpu

>  <m_score__min__energy>  (20) 
-8.9499999999999993

>  <m_primary>  (20) 
energy

>  <meeko>  (20) 
{"free_energy": -8.31, "intermolecular_energy": -10.4, "internal_energy": -1.74, "cluster_size": 3, "cluster_id": 3, "rank_in_cluster": 3}

>  <energy>  (20) 
-7.06

>  <cluster_rmsd>  (20) 
0.18

>  <rmsd>  (20) 
271.53

>  <cluster>  (20) 
6

$$$$
UYYINUAOVYUWQM-XVQRQBGSNA-M
     RDKit          3D

 51 54  0  0  0  0  0  0  0  0999 V2000
  138.1630   71.8940  222.4360 O   0  0  0  0  0  0  0  0  0  0  0  0
  139.3790   71.5930  222.5590 C   0  0  0  0  0  0  0  0  0  0  0  0
  140.2530   71.8020  221.4380 N   0  0  0  0  0  0  0  0  0  0  0  0
  141.4520   72.6380  221.3820 C   0  0  0  0  0  0  0  0  0  0  0  0
  141.1190   74.0960  221.2160 C   0  0  0  0  0  0  0  0  0  0  0  0
  140.2890   74.6180  222.0090 O   0  0  0  0  0  0  0  0  0  0  0  0
  141.7310   74.9070  220.1940 N   0  0  0  0  0  0  0  0  0  0  0  0
  142.0230   74.4340  218.8480 C   0  0  0  0  0  0  0  0  0  0  0  0
  142.6620   75.6220  218.1290 C   0  0  2  0  0  0  0  0  0  0  0  0
  143.7240   75.2340  217.2940 O   0  0  0  0  0  0  0  0  0  0  0  0
  143.1090   76.5890  219.2290 C   0  0  0  0  0  0  0  0  0  0  0  0
  142.2430   76.2500  220.4490 C   0  0  1  0  0  0  0  0  0  0  0  0
  141.0660   77.2280  220.6360 C   0  0  0  0  0  0  0  0  0  0  0  0
  141.3780   78.3240  221.6210 C   0  0  0  0  0  0  0  0  0  0  0  0
  141.7820   79.5930  221.1740 C   0  0  0  0  0  0  0  0  0  0  0  0
  142.0610   80.6080  222.0940 C   0  0  0  0  0  0  0  0  0  0  0  0
  141.9360   80.3650  223.4650 C   0  0  0  0  0  0  0  0  0  0  0  0
  141.5320   79.1060  223.9170 C   0  0  0  0  0  0  0  0  0  0  0  0
  141.2530   78.0870  223.0000 C   0  0  0  0  0  0  0  0  0  0  0  0
  139.8560   71.1160  223.8680 C   0  0  0  0  0  0  0  0  0  0  0  0
  140.6970   71.8990  224.6740 C   0  0  0  0  0  0  0  0  0  0  0  0
  141.0960   71.4210  225.9240 C   0  0  0  0  0  0  0  0  0  0  0  0
  140.6670   70.1610  226.3570 C   0  0  0  0  0  0  0  0  0  0  0  0
  141.0250   69.6620  227.6190 C   0  0  0  0  0  0  0  0  0  0  0  0
  140.5690   68.4040  228.0260 C   0  0  0  0  0  0  0  0  0  0  0  0
  140.9090   67.9240  229.2480 F   0  0  0  0  0  0  0  0  0  0  0  0
  139.7620   67.6380  227.1780 C   0  0  0  0  0  0  0  0  0  0  0  0
  139.4070   68.1260  225.9160 C   0  0  0  0  0  0  0  0  0  0  0  0
  139.8560   69.3850  225.5020 C   0  0  0  0  0  0  0  0  0  0  0  0
  139.4830   69.8770  224.2910 N   0  0  0  0  0  0  0  0  0  0  0  0
  142.0189   72.5078  222.3156 H   0  0  0  0  0  0  0  0  0  0  0  0
  142.0429   72.3242  220.5088 H   0  0  0  0  0  0  0  0  0  0  0  0
  142.7206   73.5842  218.8818 H   0  0  0  0  0  0  0  0  0  0  0  0
  141.1168   74.0835  218.3324 H   0  0  0  0  0  0  0  0  0  0  0  0
  141.9431   76.1037  217.4499 H   0  0  0  0  0  0  0  0  0  0  0  0
  144.5740   75.4960  217.7370 H   0  0  0  0  0  0  0  0  0  0  0  0
  144.1742   76.4418  219.4608 H   0  0  0  0  0  0  0  0  0  0  0  0
  142.9898   77.6388  218.9228 H   0  0  0  0  0  0  0  0  0  0  0  0
  142.8398   76.3202  221.3704 H   0  0  0  0  0  0  0  0  0  0  0  0
  140.8287   77.6845  219.6637 H   0  0  0  0  0  0  0  0  0  0  0  0
  140.2147   76.6549  221.0321 H   0  0  0  0  0  0  0  0  0  0  0  0
  141.8792   79.7888  220.0959 H   0  0  0  0  0  0  0  0  0  0  0  0
  142.3793   81.5992  221.7386 H   0  0  0  0  0  0  0  0  0  0  0  0
  142.1556   81.1646  224.1877 H   0  0  0  0  0  0  0  0  0  0  0  0
  141.4331   78.9158  224.9959 H   0  0  0  0  0  0  0  0  0  0  0  0
  140.9349   77.0974  223.3598 H   0  0  0  0  0  0  0  0  0  0  0  0
  141.0399   72.8835  224.3231 H   0  0  0  0  0  0  0  0  0  0  0  0
  141.7458   72.0332  226.5667 H   0  0  0  0  0  0  0  0  0  0  0  0
  141.6631   70.2593  228.2869 H   0  0  0  0  0  0  0  0  0  0  0  0
  139.4058   66.6497  227.5043 H   0  0  0  0  0  0  0  0  0  0  0  0
  138.7753   67.5204  225.2495 H   0  0  0  0  0  0  0  0  0  0  0  0
  1  2  2  0
  2  3  1  0
  3  4  1  0
  4  5  1  0
  5  6  2  0
  5  7  1  0
  7  8  1  0
  8  9  1  0
  9 10  1  0
  9 11  1  0
 11 12  1  0
 12 13  1  0
 13 14  1  0
 14 15  2  0
 15 16  1  0
 16 17  2  0
 17 18  1  0
 18 19  2  0
  2 20  1  0
 20 21  2  0
 21 22  1  0
 22 23  2  0
 23 24  1  0
 24 25  2  0
 25 26  1  0
 25 27  1  0
 27 28  2  0
 28 29  1  0
 29 30  2  0
 12  7  1  0
 19 14  1  0
 30 20  1  0
 29 23  1  0
  4 31  1  0
  4 32  1  0
  8 33  1  0
  8 34  1  0
  9 35  1  6
 10 36  1  0
 11 37  1  0
 11 38  1  0
 12 39  1  1
 13 40  1  0
 13 41  1  0
 15 42  1  0
 16 43  1  0
 17 44  1  0
 18 45  1  0
 19 46  1  0
 21 47  1  0
 22 48  1  0
 24 49  1  0
 27 50  1  0
 28 51  1  0
M  CHG  1   3  -1
M  END
>  <UniqueID>  (21) 
22

>  <SMILES>  (21) 
O=C([N-]CC(=O)N1C[C@H](O)C[C@H]1Cc1ccccc1)c1ccc2cc(F)ccc2n1

>  <Energy>  (21) 
56.637258429796425

>  <Genealogy>  (21) 
O=C([N-]CC(=O)N1C[C@H](O)C[C@H]1Cc1ccccc1)c1ccc2cc(F)ccc2n1 (protonated)
O=C([N-]CC(=O)N1C[C@H](O)C[C@H]1Cc1ccccc1)c1ccc2cc(F)ccc2n1 (3D coordinates assigned)
O=C([N-]CC(=O)N1C[C@H](O)C[C@H]1Cc1ccccc1)c1ccc2cc(F)ccc2n1 (nonaromatic ring conformer: 56.637258429796425 kcal/mol)

>  <smiles>  (21) 
O=C(NCC(=O)N1C[C@H](O)C[C@H]1Cc1ccccc1)c1ccc2cc(F)ccc2n1

>  <score_type>  (21) 
oracle

>  <origin>  (21) 
autodockgpu

>  <m_score__min__energy>  (21) 
-8.5099999999999998

>  <m_primary>  (21) 
energy

>  <meeko>  (21) 
{"free_energy": -8.37, "intermolecular_energy": -10.76, "internal_energy": -1.2, "cluster_size": 12, "cluster_id": 1, "rank_in_cluster": 3}

>  <energy>  (21) 
-8.51

>  <cluster_rmsd>  (21) 
0.0

>  <rmsd>  (21) 
271.81

>  <cluster>  (21) 
1

$$$$
UYYINUAOVYUWQM-XVQRQBGSNA-M
     RDKit          3D

 51 54  0  0  0  0  0  0  0  0999 V2000
  138.5090   72.5420  222.1010 O   0  0  0  0  0  0  0  0  0  0  0  0
  139.6100   72.3740  222.6880 C   0  0  0  0  0  0  0  0  0  0  0  0
  140.7120   73.2240  222.3320 N   0  0  0  0  0  0  0  0  0  0  0  0
  141.1980   73.5460  220.9910 C   0  0  0  0  0  0  0  0  0  0  0  0
  141.6190   74.9860  220.8720 C   0  0  0  0  0  0  0  0  0  0  0  0
  142.7770   75.2410  220.4430 O   0  0  0  0  0  0  0  0  0  0  0  0
  140.7350   76.0710  221.2160 N   0  0  0  0  0  0  0  0  0  0  0  0
  139.8270   76.0480  222.3530 C   0  0  0  0  0  0  0  0  0  0  0  0
  139.1000   77.3920  222.3210 C   0  0  2  0  0  0  0  0  0  0  0  0
  137.7390   77.2740  222.6540 O   0  0  0  0  0  0  0  0  0  0  0  0
  139.3080   77.9490  220.9100 C   0  0  0  0  0  0  0  0  0  0  0  0
  140.5660   77.2520  220.3760 C   0  0  1  0  0  0  0  0  0  0  0  0
  141.8240   78.1390  220.4690 C   0  0  0  0  0  0  0  0  0  0  0  0
  141.7650   79.1030  221.6240 C   0  0  0  0  0  0  0  0  0  0  0  0
  141.9000   78.6450  222.9460 C   0  0  0  0  0  0  0  0  0  0  0  0
  141.8540   79.5470  224.0130 C   0  0  0  0  0  0  0  0  0  0  0  0
  141.6760   80.9120  223.7690 C   0  0  0  0  0  0  0  0  0  0  0  0
  141.5430   81.3760  222.4580 C   0  0  0  0  0  0  0  0  0  0  0  0
  141.5880   80.4770  221.3880 C   0  0  0  0  0  0  0  0  0  0  0  0
  139.6880   71.3690  223.7610 C   0  0  0  0  0  0  0  0  0  0  0  0
  139.2390   70.0530  223.5710 C   0  0  0  0  0  0  0  0  0  0  0  0
  139.3650   69.1240  224.6050 C   0  0  0  0  0  0  0  0  0  0  0  0
  139.9240   69.5140  225.8280 C   0  0  0  0  0  0  0  0  0  0  0  0
  140.0930   68.6010  226.8790 C   0  0  0  0  0  0  0  0  0  0  0  0
  140.6660   69.0210  228.0840 C   0  0  0  0  0  0  0  0  0  0  0  0
  140.8350   68.1360  229.0970 F   0  0  0  0  0  0  0  0  0  0  0  0
  141.0680   70.3510  228.2470 C   0  0  0  0  0  0  0  0  0  0  0  0
  140.8970   71.2690  227.2060 C   0  0  0  0  0  0  0  0  0  0  0  0
  140.3260   70.8570  225.9960 C   0  0  0  0  0  0  0  0  0  0  0  0
  140.1920   71.7380  224.9700 N   0  0  0  0  0  0  0  0  0  0  0  0
  142.0616   72.9040  220.7631 H   0  0  0  0  0  0  0  0  0  0  0  0
  140.3747   73.3741  220.2820 H   0  0  0  0  0  0  0  0  0  0  0  0
  139.1093   75.2201  222.2554 H   0  0  0  0  0  0  0  0  0  0  0  0
  140.3635   75.8963  223.3012 H   0  0  0  0  0  0  0  0  0  0  0  0
  139.5072   78.0769  223.0793 H   0  0  0  0  0  0  0  0  0  0  0  0
  137.5610   76.3240  222.8830 H   0  0  0  0  0  0  0  0  0  0  0  0
  138.4410   77.7179  220.2737 H   0  0  0  0  0  0  0  0  0  0  0  0
  139.4187   79.0434  220.9153 H   0  0  0  0  0  0  0  0  0  0  0  0
  140.4450   77.0133  219.3090 H   0  0  0  0  0  0  0  0  0  0  0  0
  142.7041   77.4911  220.5947 H   0  0  0  0  0  0  0  0  0  0  0  0
  141.8860   78.7297  219.5431 H   0  0  0  0  0  0  0  0  0  0  0  0
  142.0425   77.5720  223.1419 H   0  0  0  0  0  0  0  0  0  0  0  0
  141.9580   79.1824  225.0456 H   0  0  0  0  0  0  0  0  0  0  0  0
  141.6406   81.6208  224.6094 H   0  0  0  0  0  0  0  0  0  0  0  0
  141.4027   82.4502  222.2672 H   0  0  0  0  0  0  0  0  0  0  0  0
  141.4844   80.8468  220.3572 H   0  0  0  0  0  0  0  0  0  0  0  0
  138.7900   69.7552  222.6120 H   0  0  0  0  0  0  0  0  0  0  0  0
  139.0259   68.0878  224.4594 H   0  0  0  0  0  0  0  0  0  0  0  0
  139.7751   67.5551  226.7559 H   0  0  0  0  0  0  0  0  0  0  0  0
  141.5196   70.6754  229.1961 H   0  0  0  0  0  0  0  0  0  0  0  0
  141.2112   72.3149  227.3379 H   0  0  0  0  0  0  0  0  0  0  0  0
  1  2  2  0
  2  3  1  0
  3  4  1  0
  4  5  1  0
  5  6  2  0
  5  7  1  0
  7  8  1  0
  8  9  1  0
  9 10  1  0
  9 11  1  0
 11 12  1  0
 12 13  1  0
 13 14  1  0
 14 15  2  0
 15 16  1  0
 16 17  2  0
 17 18  1  0
 18 19  2  0
  2 20  1  0
 20 21  2  0
 21 22  1  0
 22 23  2  0
 23 24  1  0
 24 25  2  0
 25 26  1  0
 25 27  1  0
 27 28  2  0
 28 29  1  0
 29 30  2  0
 12  7  1  0
 19 14  1  0
 30 20  1  0
 29 23  1  0
  4 31  1  0
  4 32  1  0
  8 33  1  0
  8 34  1  0
  9 35  1  1
 10 36  1  0
 11 37  1  0
 11 38  1  0
 12 39  1  6
 13 40  1  0
 13 41  1  0
 15 42  1  0
 16 43  1  0
 17 44  1  0
 18 45  1  0
 19 46  1  0
 21 47  1  0
 22 48  1  0
 24 49  1  0
 27 50  1  0
 28 51  1  0
M  CHG  1   3  -1
M  END
>  <UniqueID>  (22) 
22

>  <SMILES>  (22) 
O=C([N-]CC(=O)N1C[C@H](O)C[C@H]1Cc1ccccc1)c1ccc2cc(F)ccc2n1

>  <Energy>  (22) 
56.637258429796425

>  <Genealogy>  (22) 
O=C([N-]CC(=O)N1C[C@H](O)C[C@H]1Cc1ccccc1)c1ccc2cc(F)ccc2n1 (protonated)
O=C([N-]CC(=O)N1C[C@H](O)C[C@H]1Cc1ccccc1)c1ccc2cc(F)ccc2n1 (3D coordinates assigned)
O=C([N-]CC(=O)N1C[C@H](O)C[C@H]1Cc1ccccc1)c1ccc2cc(F)ccc2n1 (nonaromatic ring conformer: 56.637258429796425 kcal/mol)

>  <smiles>  (22) 
O=C(NCC(=O)N1C[C@H](O)C[C@H]1Cc1ccccc1)c1ccc2cc(F)ccc2n1

>  <score_type>  (22) 
oracle

>  <origin>  (22) 
autodockgpu

>  <m_score__min__energy>  (22) 
-8.5099999999999998

>  <m_primary>  (22) 
energy

>  <meeko>  (22) 
{"free_energy": -8.02, "intermolecular_energy": -10.4, "internal_energy": -1.31, "cluster_size": 2, "cluster_id": 4, "rank_in_cluster": 1}

>  <energy>  (22) 
-8.42

>  <cluster_rmsd>  (22) 
0.67

>  <rmsd>  (22) 
271.69

>  <cluster>  (22) 
1

$$$$
UYYINUAOVYUWQM-XVQRQBGSNA-M
     RDKit          3D

 51 54  0  0  0  0  0  0  0  0999 V2000
  140.6280   71.8360  221.1020 O   0  0  0  0  0  0  0  0  0  0  0  0
  140.5160   72.3690  222.2370 C   0  0  0  0  0  0  0  0  0  0  0  0
  140.5870   73.8000  222.3300 N   0  0  0  0  0  0  0  0  0  0  0  0
  139.5590   74.7740  221.9620 C   0  0  0  0  0  0  0  0  0  0  0  0
  139.6450   75.1680  220.5130 C   0  0  0  0  0  0  0  0  0  0  0  0
  138.5950   75.1350  219.8160 O   0  0  0  0  0  0  0  0  0  0  0  0
  140.8840   75.5940  219.9110 N   0  0  0  0  0  0  0  0  0  0  0  0
  141.4120   75.0510  218.6680 C   0  0  0  0  0  0  0  0  0  0  0  0
  142.7260   75.7920  218.4250 C   0  0  2  0  0  0  0  0  0  0  0  0
  143.7320   74.9500  217.9200 O   0  0  0  0  0  0  0  0  0  0  0  0
  143.1110   76.4180  219.7690 C   0  0  0  0  0  0  0  0  0  0  0  0
  141.8020   76.5250  220.5610 C   0  0  1  0  0  0  0  0  0  0  0  0
  141.2040   77.9450  220.5360 C   0  0  0  0  0  0  0  0  0  0  0  0
  141.6000   78.7590  221.7400 C   0  0  0  0  0  0  0  0  0  0  0  0
  141.4190   78.2510  223.0380 C   0  0  0  0  0  0  0  0  0  0  0  0
  141.7970   79.0080  224.1500 C   0  0  0  0  0  0  0  0  0  0  0  0
  142.3610   80.2750  223.9770 C   0  0  0  0  0  0  0  0  0  0  0  0
  142.5470   80.7860  222.6900 C   0  0  0  0  0  0  0  0  0  0  0  0
  142.1700   80.0330  221.5740 C   0  0  0  0  0  0  0  0  0  0  0  0
  140.2410   71.5030  223.3950 C   0  0  0  0  0  0  0  0  0  0  0  0
  139.4990   70.3190  223.2690 C   0  0  0  0  0  0  0  0  0  0  0  0
  139.2920   69.5110  224.3890 C   0  0  0  0  0  0  0  0  0  0  0  0
  139.8130   69.8940  225.6300 C   0  0  0  0  0  0  0  0  0  0  0  0
  139.6500   69.0930  226.7700 C   0  0  0  0  0  0  0  0  0  0  0  0
  140.1930   69.4990  227.9930 C   0  0  0  0  0  0  0  0  0  0  0  0
  140.0410   68.7210  229.0930 F   0  0  0  0  0  0  0  0  0  0  0  0
  140.8960   70.7060  228.0860 C   0  0  0  0  0  0  0  0  0  0  0  0
  141.0570   71.5140  226.9560 C   0  0  0  0  0  0  0  0  0  0  0  0
  140.5180   71.1130  225.7270 C   0  0  0  0  0  0  0  0  0  0  0  0
  140.7040   71.8790  224.6190 N   0  0  0  0  0  0  0  0  0  0  0  0
  138.5691   74.3335  222.1515 H   0  0  0  0  0  0  0  0  0  0  0  0
  139.7166   75.6780  222.5686 H   0  0  0  0  0  0  0  0  0  0  0  0
  141.5925   73.9704  218.7664 H   0  0  0  0  0  0  0  0  0  0  0  0
  140.7082   75.1834  217.8331 H   0  0  0  0  0  0  0  0  0  0  0  0
  142.6037   76.5639  217.6509 H   0  0  0  0  0  0  0  0  0  0  0  0
  144.5860   75.4570  217.9210 H   0  0  0  0  0  0  0  0  0  0  0  0
  143.8302   75.7769  220.2998 H   0  0  0  0  0  0  0  0  0  0  0  0
  143.5911   77.3992  219.6396 H   0  0  0  0  0  0  0  0  0  0  0  0
  141.9791   76.2928  221.6215 H   0  0  0  0  0  0  0  0  0  0  0  0
  141.5565   78.4603  219.6303 H   0  0  0  0  0  0  0  0  0  0  0  0
  140.1085   77.8465  220.5448 H   0  0  0  0  0  0  0  0  0  0  0  0
  140.9779   77.2532  223.1790 H   0  0  0  0  0  0  0  0  0  0  0  0
  141.6504   78.6060  225.1634 H   0  0  0  0  0  0  0  0  0  0  0  0
  142.6582   80.8695  224.8535 H   0  0  0  0  0  0  0  0  0  0  0  0
  142.9911   81.7832  222.5545 H   0  0  0  0  0  0  0  0  0  0  0  0
  142.3200   80.4389  220.5627 H   0  0  0  0  0  0  0  0  0  0  0  0
  139.0825   70.0287  222.2932 H   0  0  0  0  0  0  0  0  0  0  0  0
  138.7207   68.5756  224.2959 H   0  0  0  0  0  0  0  0  0  0  0  0
  139.0951   68.1457  226.7019 H   0  0  0  0  0  0  0  0  0  0  0  0
  141.3227   71.0196  229.0501 H   0  0  0  0  0  0  0  0  0  0  0  0
  141.6066   72.4638  227.0323 H   0  0  0  0  0  0  0  0  0  0  0  0
  1  2  2  0
  2  3  1  0
  3  4  1  0
  4  5  1  0
  5  6  2  0
  5  7  1  0
  7  8  1  0
  8  9  1  0
  9 10  1  0
  9 11  1  0
 11 12  1  0
 12 13  1  0
 13 14  1  0
 14 15  2  0
 15 16  1  0
 16 17  2  0
 17 18  1  0
 18 19  2  0
  2 20  1  0
 20 21  2  0
 21 22  1  0
 22 23  2  0
 23 24  1  0
 24 25  2  0
 25 26  1  0
 25 27  1  0
 27 28  2  0
 28 29  1  0
 29 30  2  0
 12  7  1  0
 19 14  1  0
 30 20  1  0
 29 23  1  0
  4 31  1  0
  4 32  1  0
  8 33  1  0
  8 34  1  0
  9 35  1  6
 10 36  1  0
 11 37  1  0
 11 38  1  0
 12 39  1  1
 13 40  1  0
 13 41  1  0
 15 42  1  0
 16 43  1  0
 17 44  1  0
 18 45  1  0
 19 46  1  0
 21 47  1  0
 22 48  1  0
 24 49  1  0
 27 50  1  0
 28 51  1  0
M  CHG  1   3  -1
M  END
>  <UniqueID>  (23) 
22

>  <SMILES>  (23) 
O=C([N-]CC(=O)N1C[C@H](O)C[C@H]1Cc1ccccc1)c1ccc2cc(F)ccc2n1

>  <Energy>  (23) 
56.637258429796425

>  <Genealogy>  (23) 
O=C([N-]CC(=O)N1C[C@H](O)C[C@H]1Cc1ccccc1)c1ccc2cc(F)ccc2n1 (protonated)
O=C([N-]CC(=O)N1C[C@H](O)C[C@H]1Cc1ccccc1)c1ccc2cc(F)ccc2n1 (3D coordinates assigned)
O=C([N-]CC(=O)N1C[C@H](O)C[C@H]1Cc1ccccc1)c1ccc2cc(F)ccc2n1 (nonaromatic ring conformer: 56.637258429796425 kcal/mol)

>  <smiles>  (23) 
O=C(NCC(=O)N1C[C@H](O)C[C@H]1Cc1ccccc1)c1ccc2cc(F)ccc2n1

>  <score_type>  (23) 
oracle

>  <origin>  (23) 
autodockgpu

>  <m_score__min__energy>  (23) 
-8.5099999999999998

>  <m_primary>  (23) 
energy

>  <meeko>  (23) 
{"free_energy": -8.42, "intermolecular_energy": -10.81, "internal_energy": -1.3, "cluster_size": 12, "cluster_id": 1, "rank_in_cluster": 2}

>  <energy>  (23) 
-8.37

>  <cluster_rmsd>  (23) 
1.23

>  <rmsd>  (23) 
271.65

>  <cluster>  (23) 
1

$$$$
UYYINUAOVYUWQM-XVQRQBGSNA-M
     RDKit          3D

 51 54  0  0  0  0  0  0  0  0999 V2000
  141.8270   72.2850  221.6740 O   0  0  0  0  0  0  0  0  0  0  0  0
  140.6080   72.1310  221.9440 C   0  0  0  0  0  0  0  0  0  0  0  0
  139.6320   72.6090  221.0050 N   0  0  0  0  0  0  0  0  0  0  0  0
  139.2370   73.9940  220.7500 C   0  0  0  0  0  0  0  0  0  0  0  0
  140.3110   74.9710  221.1430 C   0  0  0  0  0  0  0  0  0  0  0  0
  140.3630   75.3600  222.3410 O   0  0  0  0  0  0  0  0  0  0  0  0
  141.2840   75.4560  220.1960 N   0  0  0  0  0  0  0  0  0  0  0  0
  141.5910   74.7940  218.9360 C   0  0  0  0  0  0  0  0  0  0  0  0
  142.6680   75.6550  218.2760 C   0  0  2  0  0  0  0  0  0  0  0  0
  143.6540   74.8830  217.6380 O   0  0  0  0  0  0  0  0  0  0  0  0
  143.2460   76.5340  219.3900 C   0  0  0  0  0  0  0  0  0  0  0  0
  142.1590   76.5920  220.4710 C   0  0  1  0  0  0  0  0  0  0  0  0
  141.3420   77.8980  220.4250 C   0  0  0  0  0  0  0  0  0  0  0  0
  141.5870   78.7730  221.6270 C   0  0  0  0  0  0  0  0  0  0  0  0
  141.4270   78.2640  222.9270 C   0  0  0  0  0  0  0  0  0  0  0  0
  141.6650   79.0800  224.0370 C   0  0  0  0  0  0  0  0  0  0  0  0
  142.0650   80.4070  223.8590 C   0  0  0  0  0  0  0  0  0  0  0  0
  142.2280   80.9200  222.5690 C   0  0  0  0  0  0  0  0  0  0  0  0
  141.9900   80.1080  221.4560 C   0  0  0  0  0  0  0  0  0  0  0  0
  140.2470   71.4000  223.1700 C   0  0  0  0  0  0  0  0  0  0  0  0
  139.4550   70.2430  223.1310 C   0  0  0  0  0  0  0  0  0  0  0  0
  139.1670   69.5610  224.3160 C   0  0  0  0  0  0  0  0  0  0  0  0
  139.6590   70.0450  225.5340 C   0  0  0  0  0  0  0  0  0  0  0  0
  139.4150   69.3710  226.7390 C   0  0  0  0  0  0  0  0  0  0  0  0
  139.9310   69.8740  227.9380 C   0  0  0  0  0  0  0  0  0  0  0  0
  139.7000   69.2190  229.1020 F   0  0  0  0  0  0  0  0  0  0  0  0
  140.6860   71.0520  227.9400 C   0  0  0  0  0  0  0  0  0  0  0  0
  140.9290   71.7340  226.7430 C   0  0  0  0  0  0  0  0  0  0  0  0
  140.4180   71.2350  225.5390 C   0  0  0  0  0  0  0  0  0  0  0  0
  140.6820   71.8760  224.3700 N   0  0  0  0  0  0  0  0  0  0  0  0
  139.0269   74.1109  219.6766 H   0  0  0  0  0  0  0  0  0  0  0  0
  138.3454   74.2089  221.3573 H   0  0  0  0  0  0  0  0  0  0  0  0
  141.9692   73.7772  219.1178 H   0  0  0  0  0  0  0  0  0  0  0  0
  140.6999   74.6945  218.2988 H   0  0  0  0  0  0  0  0  0  0  0  0
  142.2405   76.2706  217.4708 H   0  0  0  0  0  0  0  0  0  0  0  0
  144.5400   75.2700  217.8650 H   0  0  0  0  0  0  0  0  0  0  0  0
  144.1665   76.0872  219.7938 H   0  0  0  0  0  0  0  0  0  0  0  0
  143.5110   77.5366  219.0231 H   0  0  0  0  0  0  0  0  0  0  0  0
  142.6152   76.5578  221.4713 H   0  0  0  0  0  0  0  0  0  0  0  0
  141.6201   78.4566  219.5191 H   0  0  0  0  0  0  0  0  0  0  0  0
  140.2761   77.6262  220.4205 H   0  0  0  0  0  0  0  0  0  0  0  0
  141.1133   77.2197  223.0718 H   0  0  0  0  0  0  0  0  0  0  0  0
  141.5371   78.6767  225.0524 H   0  0  0  0  0  0  0  0  0  0  0  0
  142.2515   81.0476  224.7336 H   0  0  0  0  0  0  0  0  0  0  0  0
  142.5440   81.9643  222.4293 H   0  0  0  0  0  0  0  0  0  0  0  0
  142.1188   80.5159  220.4426 H   0  0  0  0  0  0  0  0  0  0  0  0
  139.0624   69.8742  222.1719 H   0  0  0  0  0  0  0  0  0  0  0  0
  138.5557   68.6468  224.2919 H   0  0  0  0  0  0  0  0  0  0  0  0
  138.8180   68.4471  226.7416 H   0  0  0  0  0  0  0  0  0  0  0  0
  141.0897   71.4430  228.8856 H   0  0  0  0  0  0  0  0  0  0  0  0
  141.5209   72.6612  226.7478 H   0  0  0  0  0  0  0  0  0  0  0  0
  1  2  2  0
  2  3  1  0
  3  4  1  0
  4  5  1  0
  5  6  2  0
  5  7  1  0
  7  8  1  0
  8  9  1  0
  9 10  1  0
  9 11  1  0
 11 12  1  0
 12 13  1  0
 13 14  1  0
 14 15  2  0
 15 16  1  0
 16 17  2  0
 17 18  1  0
 18 19  2  0
  2 20  1  0
 20 21  2  0
 21 22  1  0
 22 23  2  0
 23 24  1  0
 24 25  2  0
 25 26  1  0
 25 27  1  0
 27 28  2  0
 28 29  1  0
 29 30  2  0
 12  7  1  0
 19 14  1  0
 30 20  1  0
 29 23  1  0
  4 31  1  0
  4 32  1  0
  8 33  1  0
  8 34  1  0
  9 35  1  6
 10 36  1  0
 11 37  1  0
 11 38  1  0
 12 39  1  1
 13 40  1  0
 13 41  1  0
 15 42  1  0
 16 43  1  0
 17 44  1  0
 18 45  1  0
 19 46  1  0
 21 47  1  0
 22 48  1  0
 24 49  1  0
 27 50  1  0
 28 51  1  0
M  CHG  1   3  -1
M  END
>  <UniqueID>  (24) 
22

>  <SMILES>  (24) 
O=C([N-]CC(=O)N1C[C@H](O)C[C@H]1Cc1ccccc1)c1ccc2cc(F)ccc2n1

>  <Energy>  (24) 
56.637258429796425

>  <Genealogy>  (24) 
O=C([N-]CC(=O)N1C[C@H](O)C[C@H]1Cc1ccccc1)c1ccc2cc(F)ccc2n1 (protonated)
O=C([N-]CC(=O)N1C[C@H](O)C[C@H]1Cc1ccccc1)c1ccc2cc(F)ccc2n1 (3D coordinates assigned)
O=C([N-]CC(=O)N1C[C@H](O)C[C@H]1Cc1ccccc1)c1ccc2cc(F)ccc2n1 (nonaromatic ring conformer: 56.637258429796425 kcal/mol)

>  <smiles>  (24) 
O=C(NCC(=O)N1C[C@H](O)C[C@H]1Cc1ccccc1)c1ccc2cc(F)ccc2n1

>  <score_type>  (24) 
oracle

>  <origin>  (24) 
autodockgpu

>  <m_score__min__energy>  (24) 
-8.5099999999999998

>  <m_primary>  (24) 
energy

>  <meeko>  (24) 
{"free_energy": -8.21, "intermolecular_energy": -10.6, "internal_energy": -1.37, "cluster_size": 12, "cluster_id": 1, "rank_in_cluster": 5}

>  <energy>  (24) 
-8.25

>  <cluster_rmsd>  (24) 
0.61

>  <rmsd>  (24) 
271.81

>  <cluster>  (24) 
1

$$$$
UYYINUAOVYUWQM-XVQRQBGSNA-M
     RDKit          3D

 51 54  0  0  0  0  0  0  0  0999 V2000
  141.3390   71.7960  221.5480 O   0  0  0  0  0  0  0  0  0  0  0  0
  140.5830   72.2170  222.4620 C   0  0  0  0  0  0  0  0  0  0  0  0
  139.9730   73.5070  222.3060 N   0  0  0  0  0  0  0  0  0  0  0  0
  139.5980   74.1760  221.0600 C   0  0  0  0  0  0  0  0  0  0  0  0
  140.1450   75.5750  220.9810 C   0  0  0  0  0  0  0  0  0  0  0  0
  139.6760   76.4500  221.7580 O   0  0  0  0  0  0  0  0  0  0  0  0
  141.1940   75.9330  220.0600 N   0  0  0  0  0  0  0  0  0  0  0  0
  141.4640   75.2220  218.8190 C   0  0  0  0  0  0  0  0  0  0  0  0
  142.6490   75.9460  218.1830 C   0  0  2  0  0  0  0  0  0  0  0  0
  143.5620   75.0600  217.5860 O   0  0  0  0  0  0  0  0  0  0  0  0
  143.2870   76.7740  219.3020 C   0  0  0  0  0  0  0  0  0  0  0  0
  142.1810   76.9700  220.3470 C   0  0  1  0  0  0  0  0  0  0  0  0
  141.5170   78.3580  220.2590 C   0  0  0  0  0  0  0  0  0  0  0  0
  141.7110   79.1710  221.5120 C   0  0  0  0  0  0  0  0  0  0  0  0
  141.6090   78.5700  222.7780 C   0  0  0  0  0  0  0  0  0  0  0  0
  141.7990   79.3290  223.9360 C   0  0  0  0  0  0  0  0  0  0  0  0
  142.0940   80.6920  223.8400 C   0  0  0  0  0  0  0  0  0  0  0  0
  142.1990   81.2970  222.5850 C   0  0  0  0  0  0  0  0  0  0  0  0
  142.0090   80.5410  221.4240 C   0  0  0  0  0  0  0  0  0  0  0  0
  140.3030   71.3320  223.6050 C   0  0  0  0  0  0  0  0  0  0  0  0
  139.5760   70.1410  223.4520 C   0  0  0  0  0  0  0  0  0  0  0  0
  139.3650   69.3140  224.5570 C   0  0  0  0  0  0  0  0  0  0  0  0
  139.8650   69.6860  225.8110 C   0  0  0  0  0  0  0  0  0  0  0  0
  139.6960   68.8670  226.9370 C   0  0  0  0  0  0  0  0  0  0  0  0
  140.2180   69.2620  228.1730 C   0  0  0  0  0  0  0  0  0  0  0  0
  140.0600   68.4670  229.2600 F   0  0  0  0  0  0  0  0  0  0  0  0
  140.9050   70.4760  228.2920 C   0  0  0  0  0  0  0  0  0  0  0  0
  141.0720   71.3010  227.1750 C   0  0  0  0  0  0  0  0  0  0  0  0
  140.5540   70.9120  225.9350 C   0  0  0  0  0  0  0  0  0  0  0  0
  140.7450   71.6950  224.8400 N   0  0  0  0  0  0  0  0  0  0  0  0
  139.9900   73.5937  220.2131 H   0  0  0  0  0  0  0  0  0  0  0  0
  138.5003   74.2396  221.0272 H   0  0  0  0  0  0  0  0  0  0  0  0
  141.7206   74.1724  219.0253 H   0  0  0  0  0  0  0  0  0  0  0  0
  140.5872   75.2131  218.1549 H   0  0  0  0  0  0  0  0  0  0  0  0
  142.3166   76.5911  217.3564 H   0  0  0  0  0  0  0  0  0  0  0  0
  144.4780   75.3330  217.8580 H   0  0  0  0  0  0  0  0  0  0  0  0
  144.1397   76.2352  219.7409 H   0  0  0  0  0  0  0  0  0  0  0  0
  143.6727   77.7348  218.9302 H   0  0  0  0  0  0  0  0  0  0  0  0
  142.5999   76.9020  221.3618 H   0  0  0  0  0  0  0  0  0  0  0  0
  141.9555   78.9057  219.4118 H   0  0  0  0  0  0  0  0  0  0  0  0
  140.4362   78.2034  220.1250 H   0  0  0  0  0  0  0  0  0  0  0  0
  141.3786   77.4974  222.8580 H   0  0  0  0  0  0  0  0  0  0  0  0
  141.7163   78.8532  224.9243 H   0  0  0  0  0  0  0  0  0  0  0  0
  142.2434   81.2881  224.7523 H   0  0  0  0  0  0  0  0  0  0  0  0
  142.4315   82.3695  222.5101 H   0  0  0  0  0  0  0  0  0  0  0  0
  142.0932   81.0210  220.4379 H   0  0  0  0  0  0  0  0  0  0  0  0
  139.1747   69.8607  222.4669 H   0  0  0  0  0  0  0  0  0  0  0  0
  138.8074   68.3727  224.4428 H   0  0  0  0  0  0  0  0  0  0  0  0
  139.1531   67.9144  226.8480 H   0  0  0  0  0  0  0  0  0  0  0  0
  141.3144   70.7817  229.2662 H   0  0  0  0  0  0  0  0  0  0  0  0
  141.6104   72.2554  227.2714 H   0  0  0  0  0  0  0  0  0  0  0  0
  1  2  2  0
  2  3  1  0
  3  4  1  0
  4  5  1  0
  5  6  2  0
  5  7  1  0
  7  8  1  0
  8  9  1  0
  9 10  1  0
  9 11  1  0
 11 12  1  0
 12 13  1  0
 13 14  1  0
 14 15  2  0
 15 16  1  0
 16 17  2  0
 17 18  1  0
 18 19  2  0
  2 20  1  0
 20 21  2  0
 21 22  1  0
 22 23  2  0
 23 24  1  0
 24 25  2  0
 25 26  1  0
 25 27  1  0
 27 28  2  0
 28 29  1  0
 29 30  2  0
 12  7  1  0
 19 14  1  0
 30 20  1  0
 29 23  1  0
  4 31  1  0
  4 32  1  0
  8 33  1  0
  8 34  1  0
  9 35  1  6
 10 36  1  0
 11 37  1  0
 11 38  1  0
 12 39  1  1
 13 40  1  0
 13 41  1  0
 15 42  1  0
 16 43  1  0
 17 44  1  0
 18 45  1  0
 19 46  1  0
 21 47  1  0
 22 48  1  0
 24 49  1  0
 27 50  1  0
 28 51  1  0
M  CHG  1   3  -1
M  END
>  <UniqueID>  (25) 
22

>  <SMILES>  (25) 
O=C([N-]CC(=O)N1C[C@H](O)C[C@H]1Cc1ccccc1)c1ccc2cc(F)ccc2n1

>  <Energy>  (25) 
56.637258429796425

>  <Genealogy>  (25) 
O=C([N-]CC(=O)N1C[C@H](O)C[C@H]1Cc1ccccc1)c1ccc2cc(F)ccc2n1 (protonated)
O=C([N-]CC(=O)N1C[C@H](O)C[C@H]1Cc1ccccc1)c1ccc2cc(F)ccc2n1 (3D coordinates assigned)
O=C([N-]CC(=O)N1C[C@H](O)C[C@H]1Cc1ccccc1)c1ccc2cc(F)ccc2n1 (nonaromatic ring conformer: 56.637258429796425 kcal/mol)

>  <smiles>  (25) 
O=C(NCC(=O)N1C[C@H](O)C[C@H]1Cc1ccccc1)c1ccc2cc(F)ccc2n1

>  <score_type>  (25) 
oracle

>  <origin>  (25) 
autodockgpu

>  <m_score__min__energy>  (25) 
-8.5099999999999998

>  <m_primary>  (25) 
energy

>  <meeko>  (25) 
{"free_energy": -8.51, "intermolecular_energy": -10.9, "internal_energy": -1.1, "cluster_size": 12, "cluster_id": 1, "rank_in_cluster": 1}

>  <energy>  (25) 
-8.21

>  <cluster_rmsd>  (25) 
0.62

>  <rmsd>  (25) 
271.66

>  <cluster>  (25) 
1

$$$$
UYYINUAOVYUWQM-XVQRQBGSNA-M
     RDKit          3D

 51 54  0  0  0  0  0  0  0  0999 V2000
  138.4600   72.7410  222.2120 O   0  0  0  0  0  0  0  0  0  0  0  0
  139.5980   72.4910  222.6870 C   0  0  0  0  0  0  0  0  0  0  0  0
  140.7190   73.2540  222.2160 N   0  0  0  0  0  0  0  0  0  0  0  0
  140.9970   73.6860  220.8460 C   0  0  0  0  0  0  0  0  0  0  0  0
  141.5040   75.1010  220.7890 C   0  0  0  0  0  0  0  0  0  0  0  0
  142.6720   75.3060  220.3620 O   0  0  0  0  0  0  0  0  0  0  0  0
  140.6890   76.2200  221.1910 N   0  0  0  0  0  0  0  0  0  0  0  0
  139.8210   76.2140  222.3600 C   0  0  0  0  0  0  0  0  0  0  0  0
  139.1630   77.5930  222.3860 C   0  0  2  0  0  0  0  0  0  0  0  0
  137.8120   77.5350  222.7660 O   0  0  0  0  0  0  0  0  0  0  0  0
  139.3500   78.1750  220.9820 C   0  0  0  0  0  0  0  0  0  0  0  0
  140.5510   77.4300  220.3860 C   0  0  1  0  0  0  0  0  0  0  0  0
  141.8540   78.2490  220.4530 C   0  0  0  0  0  0  0  0  0  0  0  0
  141.8190   79.3020  221.5300 C   0  0  0  0  0  0  0  0  0  0  0  0
  142.1890   78.9890  222.8490 C   0  0  0  0  0  0  0  0  0  0  0  0
  142.1620   79.9730  223.8410 C   0  0  0  0  0  0  0  0  0  0  0  0
  141.7680   81.2760  223.5240 C   0  0  0  0  0  0  0  0  0  0  0  0
  141.4010   81.5960  222.2150 C   0  0  0  0  0  0  0  0  0  0  0  0
  141.4260   80.6140  221.2190 C   0  0  0  0  0  0  0  0  0  0  0  0
  139.7080   71.4840  223.7560 C   0  0  0  0  0  0  0  0  0  0  0  0
  139.3230   70.1500  223.5520 C   0  0  0  0  0  0  0  0  0  0  0  0
  139.4780   69.2210  224.5840 C   0  0  0  0  0  0  0  0  0  0  0  0
  140.0000   69.6310  225.8170 C   0  0  0  0  0  0  0  0  0  0  0  0
  140.1960   68.7200  226.8650 C   0  0  0  0  0  0  0  0  0  0  0  0
  140.7320   69.1590  228.0810 C   0  0  0  0  0  0  0  0  0  0  0  0
  140.9270   68.2770  229.0920 F   0  0  0  0  0  0  0  0  0  0  0  0
  141.0680   70.5060  228.2570 C   0  0  0  0  0  0  0  0  0  0  0  0
  140.8700   71.4210  227.2180 C   0  0  0  0  0  0  0  0  0  0  0  0
  140.3360   70.9890  225.9980 C   0  0  0  0  0  0  0  0  0  0  0  0
  140.1760   71.8700  224.9750 N   0  0  0  0  0  0  0  0  0  0  0  0
  141.7567   73.0196  220.4115 H   0  0  0  0  0  0  0  0  0  0  0  0
  140.0550   73.6414  220.2798 H   0  0  0  0  0  0  0  0  0  0  0  0
  139.0590   75.4259  222.2691 H   0  0  0  0  0  0  0  0  0  0  0  0
  140.3821   76.0117  223.2843 H   0  0  0  0  0  0  0  0  0  0  0  0
  139.6309   78.2376  223.1447 H   0  0  0  0  0  0  0  0  0  0  0  0
  137.5760   76.5820  222.9160 H   0  0  0  0  0  0  0  0  0  0  0  0
  138.4506   78.0043  220.3722 H   0  0  0  0  0  0  0  0  0  0  0  0
  139.5169   79.2619  221.0098 H   0  0  0  0  0  0  0  0  0  0  0  0
  140.3802   77.2254  219.3188 H   0  0  0  0  0  0  0  0  0  0  0  0
  142.6908   77.5645  220.6560 H   0  0  0  0  0  0  0  0  0  0  0  0
  141.9762   78.7622  219.4877 H   0  0  0  0  0  0  0  0  0  0  0  0
  142.5012   77.9650  223.1018 H   0  0  0  0  0  0  0  0  0  0  0  0
  142.4511   79.7218  224.8722 H   0  0  0  0  0  0  0  0  0  0  0  0
  141.7470   82.0496  224.3057 H   0  0  0  0  0  0  0  0  0  0  0  0
  141.0917   82.6220  221.9668 H   0  0  0  0  0  0  0  0  0  0  0  0
  141.1369   80.8702  220.1890 H   0  0  0  0  0  0  0  0  0  0  0  0
  138.9016   69.8376  222.5851 H   0  0  0  0  0  0  0  0  0  0  0  0
  139.1908   68.1706  224.4284 H   0  0  0  0  0  0  0  0  0  0  0  0
  139.9287   67.6614  226.7314 H   0  0  0  0  0  0  0  0  0  0  0  0
  141.4888   70.8459  229.2148 H   0  0  0  0  0  0  0  0  0  0  0  0
  141.1337   72.4795  227.3593 H   0  0  0  0  0  0  0  0  0  0  0  0
  1  2  2  0
  2  3  1  0
  3  4  1  0
  4  5  1  0
  5  6  2  0
  5  7  1  0
  7  8  1  0
  8  9  1  0
  9 10  1  0
  9 11  1  0
 11 12  1  0
 12 13  1  0
 13 14  1  0
 14 15  2  0
 15 16  1  0
 16 17  2  0
 17 18  1  0
 18 19  2  0
  2 20  1  0
 20 21  2  0
 21 22  1  0
 22 23  2  0
 23 24  1  0
 24 25  2  0
 25 26  1  0
 25 27  1  0
 27 28  2  0
 28 29  1  0
 29 30  2  0
 12  7  1  0
 19 14  1  0
 30 20  1  0
 29 23  1  0
  4 31  1  0
  4 32  1  0
  8 33  1  0
  8 34  1  0
  9 35  1  1
 10 36  1  0
 11 37  1  0
 11 38  1  0
 12 39  1  6
 13 40  1  0
 13 41  1  0
 15 42  1  0
 16 43  1  0
 17 44  1  0
 18 45  1  0
 19 46  1  0
 21 47  1  0
 22 48  1  0
 24 49  1  0
 27 50  1  0
 28 51  1  0
M  CHG  1   3  -1
M  END
>  <UniqueID>  (26) 
22

>  <SMILES>  (26) 
O=C([N-]CC(=O)N1C[C@H](O)C[C@H]1Cc1ccccc1)c1ccc2cc(F)ccc2n1

>  <Energy>  (26) 
56.637258429796425

>  <Genealogy>  (26) 
O=C([N-]CC(=O)N1C[C@H](O)C[C@H]1Cc1ccccc1)c1ccc2cc(F)ccc2n1 (protonated)
O=C([N-]CC(=O)N1C[C@H](O)C[C@H]1Cc1ccccc1)c1ccc2cc(F)ccc2n1 (3D coordinates assigned)
O=C([N-]CC(=O)N1C[C@H](O)C[C@H]1Cc1ccccc1)c1ccc2cc(F)ccc2n1 (nonaromatic ring conformer: 56.637258429796425 kcal/mol)

>  <smiles>  (26) 
O=C(NCC(=O)N1C[C@H](O)C[C@H]1Cc1ccccc1)c1ccc2cc(F)ccc2n1

>  <score_type>  (26) 
oracle

>  <origin>  (26) 
autodockgpu

>  <m_score__min__energy>  (26) 
-8.5099999999999998

>  <m_primary>  (26) 
energy

>  <meeko>  (26) 
{"free_energy": -7.93, "intermolecular_energy": -10.31, "internal_energy": -1.34, "cluster_size": 2, "cluster_id": 4, "rank_in_cluster": 2}

>  <energy>  (26) 
-8.15

>  <cluster_rmsd>  (26) 
0.68

>  <rmsd>  (26) 
271.79

>  <cluster>  (26) 
1

$$$$
UYYINUAOVYUWQM-XVQRQBGSNA-M
     RDKit          3D

 51 54  0  0  0  0  0  0  0  0999 V2000
  139.9510   73.4020  222.7180 O   0  0  0  0  0  0  0  0  0  0  0  0
  139.8460   72.1710  222.4800 C   0  0  0  0  0  0  0  0  0  0  0  0
  139.8410   71.7350  221.1120 N   0  0  0  0  0  0  0  0  0  0  0  0
  140.9230   71.0810  220.3770 C   0  0  0  0  0  0  0  0  0  0  0  0
  141.5420   71.9910  219.3510 C   0  0  0  0  0  0  0  0  0  0  0  0
  140.8970   72.2360  218.2950 O   0  0  0  0  0  0  0  0  0  0  0  0
  142.8340   72.5980  219.5500 N   0  0  0  0  0  0  0  0  0  0  0  0
  144.0880   71.9980  219.1170 C   0  0  0  0  0  0  0  0  0  0  0  0
  145.1780   72.9850  219.5370 C   0  0  2  0  0  0  0  0  0  0  0  0
  146.3270   72.3390  220.0240 O   0  0  0  0  0  0  0  0  0  0  0  0
  144.5360   73.9010  220.5830 C   0  0  0  0  0  0  0  0  0  0  0  0
  143.0250   73.8180  220.3270 C   0  0  1  0  0  0  0  0  0  0  0  0
  142.4880   75.0270  219.5360 C   0  0  0  0  0  0  0  0  0  0  0  0
  141.9310   76.1010  220.4340 C   0  0  0  0  0  0  0  0  0  0  0  0
  142.1860   77.4580  220.1690 C   0  0  0  0  0  0  0  0  0  0  0  0
  141.6580   78.4490  221.0010 C   0  0  0  0  0  0  0  0  0  0  0  0
  140.8720   78.0960  222.1010 C   0  0  0  0  0  0  0  0  0  0  0  0
  140.6120   76.7500  222.3700 C   0  0  0  0  0  0  0  0  0  0  0  0
  141.1380   75.7540  221.5410 C   0  0  0  0  0  0  0  0  0  0  0  0
  139.8130   71.2360  223.6180 C   0  0  0  0  0  0  0  0  0  0  0  0
  139.2350   69.9620  223.5060 C   0  0  0  0  0  0  0  0  0  0  0  0
  139.2580   69.0950  224.6010 C   0  0  0  0  0  0  0  0  0  0  0  0
  139.8430   69.5080  225.8040 C   0  0  0  0  0  0  0  0  0  0  0  0
  139.9090   68.6540  226.9150 C   0  0  0  0  0  0  0  0  0  0  0  0
  140.5110   69.0940  228.0990 C   0  0  0  0  0  0  0  0  0  0  0  0
  140.5800   68.2660  229.1710 F   0  0  0  0  0  0  0  0  0  0  0  0
  141.0420   70.3860  228.1820 C   0  0  0  0  0  0  0  0  0  0  0  0
  140.9740   71.2460  227.0810 C   0  0  0  0  0  0  0  0  0  0  0  0
  140.3750   70.8130  225.8920 C   0  0  0  0  0  0  0  0  0  0  0  0
  140.3400   71.6330  224.8090 N   0  0  0  0  0  0  0  0  0  0  0  0
  141.7002   70.7713  221.0912 H   0  0  0  0  0  0  0  0  0  0  0  0
  140.4980   70.2148  219.8487 H   0  0  0  0  0  0  0  0  0  0  0  0
  144.2392   71.0257  219.6087 H   0  0  0  0  0  0  0  0  0  0  0  0
  144.0997   71.8133  218.0327 H   0  0  0  0  0  0  0  0  0  0  0  0
  145.5373   73.5646  218.6739 H   0  0  0  0  0  0  0  0  0  0  0  0
  146.0790   71.8600  220.8590 H   0  0  0  0  0  0  0  0  0  0  0  0
  144.7738   73.5512  221.5984 H   0  0  0  0  0  0  0  0  0  0  0  0
  144.9075   74.9334  220.5050 H   0  0  0  0  0  0  0  0  0  0  0  0
  142.4768   73.8156  221.2807 H   0  0  0  0  0  0  0  0  0  0  0  0
  143.3100   75.4541  218.9428 H   0  0  0  0  0  0  0  0  0  0  0  0
  141.6696   74.6700  218.8935 H   0  0  0  0  0  0  0  0  0  0  0  0
  142.8034   77.7407  219.3036 H   0  0  0  0  0  0  0  0  0  0  0  0
  141.8616   79.5091  220.7895 H   0  0  0  0  0  0  0  0  0  0  0  0
  140.4581   78.8777  222.7549 H   0  0  0  0  0  0  0  0  0  0  0  0
  139.9923   76.4730  223.2356 H   0  0  0  0  0  0  0  0  0  0  0  0
  140.9303   74.6954  221.7562 H   0  0  0  0  0  0  0  0  0  0  0  0
  138.7666   69.6481  222.5615 H   0  0  0  0  0  0  0  0  0  0  0  0
  138.8176   68.0904  224.5183 H   0  0  0  0  0  0  0  0  0  0  0  0
  139.4879   67.6395  226.8554 H   0  0  0  0  0  0  0  0  0  0  0  0
  141.5141   70.7262  229.1155 H   0  0  0  0  0  0  0  0  0  0  0  0
  141.3908   72.2617  227.1493 H   0  0  0  0  0  0  0  0  0  0  0  0
  1  2  2  0
  2  3  1  0
  3  4  1  0
  4  5  1  0
  5  6  2  0
  5  7  1  0
  7  8  1  0
  8  9  1  0
  9 10  1  0
  9 11  1  0
 11 12  1  0
 12 13  1  0
 13 14  1  0
 14 15  2  0
 15 16  1  0
 16 17  2  0
 17 18  1  0
 18 19  2  0
  2 20  1  0
 20 21  2  0
 21 22  1  0
 22 23  2  0
 23 24  1  0
 24 25  2  0
 25 26  1  0
 25 27  1  0
 27 28  2  0
 28 29  1  0
 29 30  2  0
 12  7  1  0
 19 14  1  0
 30 20  1  0
 29 23  1  0
  4 31  1  0
  4 32  1  0
  8 33  1  0
  8 34  1  0
  9 35  1  6
 10 36  1  0
 11 37  1  0
 11 38  1  0
 12 39  1  1
 13 40  1  0
 13 41  1  0
 15 42  1  0
 16 43  1  0
 17 44  1  0
 18 45  1  0
 19 46  1  0
 21 47  1  0
 22 48  1  0
 24 49  1  0
 27 50  1  0
 28 51  1  0
M  CHG  1   3  -1
M  END
>  <UniqueID>  (27) 
22

>  <SMILES>  (27) 
O=C([N-]CC(=O)N1C[C@H](O)C[C@H]1Cc1ccccc1)c1ccc2cc(F)ccc2n1

>  <Energy>  (27) 
56.637258429796425

>  <Genealogy>  (27) 
O=C([N-]CC(=O)N1C[C@H](O)C[C@H]1Cc1ccccc1)c1ccc2cc(F)ccc2n1 (protonated)
O=C([N-]CC(=O)N1C[C@H](O)C[C@H]1Cc1ccccc1)c1ccc2cc(F)ccc2n1 (3D coordinates assigned)
O=C([N-]CC(=O)N1C[C@H](O)C[C@H]1Cc1ccccc1)c1ccc2cc(F)ccc2n1 (nonaromatic ring conformer: 56.637258429796425 kcal/mol)

>  <smiles>  (27) 
O=C(NCC(=O)N1C[C@H](O)C[C@H]1Cc1ccccc1)c1ccc2cc(F)ccc2n1

>  <score_type>  (27) 
oracle

>  <origin>  (27) 
autodockgpu

>  <m_score__min__energy>  (27) 
-8.5099999999999998

>  <m_primary>  (27) 
energy

>  <meeko>  (27) 
{"free_energy": -8.13, "intermolecular_energy": -10.51, "internal_energy": -1.48, "cluster_size": 4, "cluster_id": 2, "rank_in_cluster": 1}

>  <energy>  (27) 
-7.92

>  <cluster_rmsd>  (27) 
1.69

>  <rmsd>  (27) 
271.9

>  <cluster>  (27) 
1

$$$$
UYYINUAOVYUWQM-XVQRQBGSNA-M
     RDKit          3D

 51 54  0  0  0  0  0  0  0  0999 V2000
  138.3870   72.4650  221.7640 O   0  0  0  0  0  0  0  0  0  0  0  0
  139.4480   72.4490  222.4410 C   0  0  0  0  0  0  0  0  0  0  0  0
  140.4510   73.4400  222.1650 N   0  0  0  0  0  0  0  0  0  0  0  0
  141.7180   73.2580  221.4580 C   0  0  0  0  0  0  0  0  0  0  0  0
  141.5820   73.5000  219.9800 C   0  0  0  0  0  0  0  0  0  0  0  0
  140.9910   72.6340  219.2800 O   0  0  0  0  0  0  0  0  0  0  0  0
  142.0900   74.6940  219.3510 N   0  0  0  0  0  0  0  0  0  0  0  0
  142.4580   74.7770  217.9450 C   0  0  0  0  0  0  0  0  0  0  0  0
  142.9390   76.2130  217.7350 C   0  0  2  0  0  0  0  0  0  0  0  0
  144.0520   76.2860  216.8810 O   0  0  0  0  0  0  0  0  0  0  0  0
  143.2380   76.7650  219.1320 C   0  0  0  0  0  0  0  0  0  0  0  0
  142.4130   75.9060  220.0980 C   0  0  1  0  0  0  0  0  0  0  0  0
  141.1130   76.5980  220.5510 C   0  0  0  0  0  0  0  0  0  0  0  0
  141.3710   77.7680  221.4640 C   0  0  0  0  0  0  0  0  0  0  0  0
  141.2070   77.6410  222.8530 C   0  0  0  0  0  0  0  0  0  0  0  0
  141.4570   78.7290  223.6950 C   0  0  0  0  0  0  0  0  0  0  0  0
  141.8740   79.9500  223.1570 C   0  0  0  0  0  0  0  0  0  0  0  0
  142.0410   80.0840  221.7760 C   0  0  0  0  0  0  0  0  0  0  0  0
  141.7910   78.9990  220.9310 C   0  0  0  0  0  0  0  0  0  0  0  0
  139.5710   71.4660  223.5300 C   0  0  0  0  0  0  0  0  0  0  0  0
  139.1170   70.1470  223.3860 C   0  0  0  0  0  0  0  0  0  0  0  0
  139.2870   69.2390  224.4330 C   0  0  0  0  0  0  0  0  0  0  0  0
  139.8950   69.6550  225.6240 C   0  0  0  0  0  0  0  0  0  0  0  0
  140.1070   68.7640  226.6850 C   0  0  0  0  0  0  0  0  0  0  0  0
  140.7290   69.2090  227.8580 C   0  0  0  0  0  0  0  0  0  0  0  0
  140.9400   68.3460  228.8810 F   0  0  0  0  0  0  0  0  0  0  0  0
  141.1340   70.5430  227.9760 C   0  0  0  0  0  0  0  0  0  0  0  0
  140.9200   71.4390  226.9250 C   0  0  0  0  0  0  0  0  0  0  0  0
  140.3010   71.0020  225.7480 C   0  0  0  0  0  0  0  0  0  0  0  0
  140.1230   71.8620  224.7100 N   0  0  0  0  0  0  0  0  0  0  0  0
  142.4564   73.9637  221.8663 H   0  0  0  0  0  0  0  0  0  0  0  0
  142.0391   72.2158  221.6020 H   0  0  0  0  0  0  0  0  0  0  0  0
  143.2634   74.0639  217.7153 H   0  0  0  0  0  0  0  0  0  0  0  0
  141.6133   74.5281  217.2858 H   0  0  0  0  0  0  0  0  0  0  0  0
  142.1695   76.8154  217.2301 H   0  0  0  0  0  0  0  0  0  0  0  0
  144.8570   76.0270  217.4030 H   0  0  0  0  0  0  0  0  0  0  0  0
  144.3107   76.6760  219.3589 H   0  0  0  0  0  0  0  0  0  0  0  0
  142.9804   77.8313  219.2129 H   0  0  0  0  0  0  0  0  0  0  0  0
  142.9847   75.7117  221.0175 H   0  0  0  0  0  0  0  0  0  0  0  0
  140.5756   76.9568  219.6608 H   0  0  0  0  0  0  0  0  0  0  0  0
  140.5194   75.8608  221.1115 H   0  0  0  0  0  0  0  0  0  0  0  0
  140.8805   76.6815  223.2804 H   0  0  0  0  0  0  0  0  0  0  0  0
  141.3254   78.6240  224.7820 H   0  0  0  0  0  0  0  0  0  0  0  0
  142.0706   80.8051  223.8205 H   0  0  0  0  0  0  0  0  0  0  0  0
  142.3697   81.0449  221.3533 H   0  0  0  0  0  0  0  0  0  0  0  0
  141.9235   79.1089  219.8445 H   0  0  0  0  0  0  0  0  0  0  0  0
  138.6293   69.8292  222.4526 H   0  0  0  0  0  0  0  0  0  0  0  0
  138.9442   68.1996  224.3226 H   0  0  0  0  0  0  0  0  0  0  0  0
  139.7850   67.7159  226.5963 H   0  0  0  0  0  0  0  0  0  0  0  0
  141.6226   70.8878  228.8993 H   0  0  0  0  0  0  0  0  0  0  0  0
  141.2379   72.4875  227.0227 H   0  0  0  0  0  0  0  0  0  0  0  0
  1  2  2  0
  2  3  1  0
  3  4  1  0
  4  5  1  0
  5  6  2  0
  5  7  1  0
  7  8  1  0
  8  9  1  0
  9 10  1  0
  9 11  1  0
 11 12  1  0
 12 13  1  0
 13 14  1  0
 14 15  2  0
 15 16  1  0
 16 17  2  0
 17 18  1  0
 18 19  2  0
  2 20  1  0
 20 21  2  0
 21 22  1  0
 22 23  2  0
 23 24  1  0
 24 25  2  0
 25 26  1  0
 25 27  1  0
 27 28  2  0
 28 29  1  0
 29 30  2  0
 12  7  1  0
 19 14  1  0
 30 20  1  0
 29 23  1  0
  4 31  1  0
  4 32  1  0
  8 33  1  0
  8 34  1  0
  9 35  1  6
 10 36  1  0
 11 37  1  0
 11 38  1  0
 12 39  1  1
 13 40  1  0
 13 41  1  0
 15 42  1  0
 16 43  1  0
 17 44  1  0
 18 45  1  0
 19 46  1  0
 21 47  1  0
 22 48  1  0
 24 49  1  0
 27 50  1  0
 28 51  1  0
M  CHG  1   3  -1
M  END
>  <UniqueID>  (28) 
22

>  <SMILES>  (28) 
O=C([N-]CC(=O)N1C[C@H](O)C[C@H]1Cc1ccccc1)c1ccc2cc(F)ccc2n1

>  <Energy>  (28) 
56.637258429796425

>  <Genealogy>  (28) 
O=C([N-]CC(=O)N1C[C@H](O)C[C@H]1Cc1ccccc1)c1ccc2cc(F)ccc2n1 (protonated)
O=C([N-]CC(=O)N1C[C@H](O)C[C@H]1Cc1ccccc1)c1ccc2cc(F)ccc2n1 (3D coordinates assigned)
O=C([N-]CC(=O)N1C[C@H](O)C[C@H]1Cc1ccccc1)c1ccc2cc(F)ccc2n1 (nonaromatic ring conformer: 56.637258429796425 kcal/mol)

>  <smiles>  (28) 
O=C(NCC(=O)N1C[C@H](O)C[C@H]1Cc1ccccc1)c1ccc2cc(F)ccc2n1

>  <score_type>  (28) 
oracle

>  <origin>  (28) 
autodockgpu

>  <m_score__min__energy>  (28) 
-8.5099999999999998

>  <m_primary>  (28) 
energy

>  <meeko>  (28) 
{"free_energy": -7.72, "intermolecular_energy": -10.11, "internal_energy": -1.22, "cluster_size": 12, "cluster_id": 1, "rank_in_cluster": 10}

>  <energy>  (28) 
-7.85

>  <cluster_rmsd>  (28) 
0.84

>  <rmsd>  (28) 
271.59

>  <cluster>  (28) 
1

$$$$
UYYINUAOVYUWQM-XVQRQBGSNA-M
     RDKit          3D

 51 54  0  0  0  0  0  0  0  0999 V2000
  140.5990   73.1580  222.7070 O   0  0  0  0  0  0  0  0  0  0  0  0
  140.1890   71.9840  222.5110 C   0  0  0  0  0  0  0  0  0  0  0  0
  139.9390   71.5630  221.1610 N   0  0  0  0  0  0  0  0  0  0  0  0
  140.9000   71.4580  220.0630 C   0  0  0  0  0  0  0  0  0  0  0  0
  141.1640   72.7890  219.4130 C   0  0  0  0  0  0  0  0  0  0  0  0
  140.1960   73.4100  218.8980 O   0  0  0  0  0  0  0  0  0  0  0  0
  142.4810   73.3750  219.3800 N   0  0  0  0  0  0  0  0  0  0  0  0
  143.5790   72.8590  218.5760 C   0  0  0  0  0  0  0  0  0  0  0  0
  144.7610   73.7850  218.8590 C   0  0  2  0  0  0  0  0  0  0  0  0
  145.9780   73.0880  218.9560 O   0  0  0  0  0  0  0  0  0  0  0  0
  144.4120   74.5310  220.1500 C   0  0  0  0  0  0  0  0  0  0  0  0
  142.8830   74.4700  220.2570 C   0  0  1  0  0  0  0  0  0  0  0  0
  142.2010   75.7750  219.8030 C   0  0  0  0  0  0  0  0  0  0  0  0
  141.2310   76.3050  220.8270 C   0  0  0  0  0  0  0  0  0  0  0  0
  141.4370   77.5600  221.4260 C   0  0  0  0  0  0  0  0  0  0  0  0
  140.5270   78.0490  222.3680 C   0  0  0  0  0  0  0  0  0  0  0  0
  139.4060   77.2920  222.7180 C   0  0  0  0  0  0  0  0  0  0  0  0
  139.1930   76.0440  222.1260 C   0  0  0  0  0  0  0  0  0  0  0  0
  140.1010   75.5510  221.1830 C   0  0  0  0  0  0  0  0  0  0  0  0
  140.0620   71.0820  223.6680 C   0  0  0  0  0  0  0  0  0  0  0  0
  139.4380   69.8290  223.5590 C   0  0  0  0  0  0  0  0  0  0  0  0
  139.3720   68.9910  224.6740 C   0  0  0  0  0  0  0  0  0  0  0  0
  139.9150   69.4120  225.8940 C   0  0  0  0  0  0  0  0  0  0  0  0
  139.8920   68.5850  227.0270 C   0  0  0  0  0  0  0  0  0  0  0  0
  140.4540   69.0310  228.2290 C   0  0  0  0  0  0  0  0  0  0  0  0
  140.4380   68.2290  229.3220 F   0  0  0  0  0  0  0  0  0  0  0  0
  141.0340   70.3020  228.3060 C   0  0  0  0  0  0  0  0  0  0  0  0
  141.0550   71.1350  227.1820 C   0  0  0  0  0  0  0  0  0  0  0  0
  140.4970   70.6950  225.9760 C   0  0  0  0  0  0  0  0  0  0  0  0
  140.5470   71.4880  224.8730 N   0  0  0  0  0  0  0  0  0  0  0  0
  141.8473   71.0617  220.4574 H   0  0  0  0  0  0  0  0  0  0  0  0
  140.4732   70.7880  219.3021 H   0  0  0  0  0  0  0  0  0  0  0  0
  143.8197   71.8270  218.8708 H   0  0  0  0  0  0  0  0  0  0  0  0
  143.3257   72.8352  217.5058 H   0  0  0  0  0  0  0  0  0  0  0  0
  144.9163   74.4882  218.0275 H   0  0  0  0  0  0  0  0  0  0  0  0
  146.7100   73.7560  219.0180 H   0  0  0  0  0  0  0  0  0  0  0  0
  144.8781   74.0390  221.0164 H   0  0  0  0  0  0  0  0  0  0  0  0
  144.7793   75.5677  220.1347 H   0  0  0  0  0  0  0  0  0  0  0  0
  142.5806   74.3221  221.3042 H   0  0  0  0  0  0  0  0  0  0  0  0
  142.9762   76.5348  219.6249 H   0  0  0  0  0  0  0  0  0  0  0  0
  141.6332   75.5545  218.8871 H   0  0  0  0  0  0  0  0  0  0  0  0
  142.3177   78.1596  221.1524 H   0  0  0  0  0  0  0  0  0  0  0  0
  140.6938   79.0312  222.8343 H   0  0  0  0  0  0  0  0  0  0  0  0
  138.6911   77.6783  223.4595 H   0  0  0  0  0  0  0  0  0  0  0  0
  138.3102   75.4486  222.4020 H   0  0  0  0  0  0  0  0  0  0  0  0
  139.9292   74.5688  220.7185 H   0  0  0  0  0  0  0  0  0  0  0  0
  139.0035   69.5092  222.6004 H   0  0  0  0  0  0  0  0  0  0  0  0
  138.8949   68.0031  224.5941 H   0  0  0  0  0  0  0  0  0  0  0  0
  139.4328   67.5870  226.9709 H   0  0  0  0  0  0  0  0  0  0  0  0
  141.4747   70.6473  229.2529 H   0  0  0  0  0  0  0  0  0  0  0  0
  141.5095   72.1347  227.2460 H   0  0  0  0  0  0  0  0  0  0  0  0
  1  2  2  0
  2  3  1  0
  3  4  1  0
  4  5  1  0
  5  6  2  0
  5  7  1  0
  7  8  1  0
  8  9  1  0
  9 10  1  0
  9 11  1  0
 11 12  1  0
 12 13  1  0
 13 14  1  0
 14 15  2  0
 15 16  1  0
 16 17  2  0
 17 18  1  0
 18 19  2  0
  2 20  1  0
 20 21  2  0
 21 22  1  0
 22 23  2  0
 23 24  1  0
 24 25  2  0
 25 26  1  0
 25 27  1  0
 27 28  2  0
 28 29  1  0
 29 30  2  0
 12  7  1  0
 19 14  1  0
 30 20  1  0
 29 23  1  0
  4 31  1  0
  4 32  1  0
  8 33  1  0
  8 34  1  0
  9 35  1  6
 10 36  1  0
 11 37  1  0
 11 38  1  0
 12 39  1  1
 13 40  1  0
 13 41  1  0
 15 42  1  0
 16 43  1  0
 17 44  1  0
 18 45  1  0
 19 46  1  0
 21 47  1  0
 22 48  1  0
 24 49  1  0
 27 50  1  0
 28 51  1  0
M  CHG  1   3  -1
M  END
>  <UniqueID>  (29) 
22

>  <SMILES>  (29) 
O=C([N-]CC(=O)N1C[C@H](O)C[C@H]1Cc1ccccc1)c1ccc2cc(F)ccc2n1

>  <Energy>  (29) 
56.637258429796425

>  <Genealogy>  (29) 
O=C([N-]CC(=O)N1C[C@H](O)C[C@H]1Cc1ccccc1)c1ccc2cc(F)ccc2n1 (protonated)
O=C([N-]CC(=O)N1C[C@H](O)C[C@H]1Cc1ccccc1)c1ccc2cc(F)ccc2n1 (3D coordinates assigned)
O=C([N-]CC(=O)N1C[C@H](O)C[C@H]1Cc1ccccc1)c1ccc2cc(F)ccc2n1 (nonaromatic ring conformer: 56.637258429796425 kcal/mol)

>  <smiles>  (29) 
O=C(NCC(=O)N1C[C@H](O)C[C@H]1Cc1ccccc1)c1ccc2cc(F)ccc2n1

>  <score_type>  (29) 
oracle

>  <origin>  (29) 
autodockgpu

>  <m_score__min__energy>  (29) 
-8.5099999999999998

>  <m_primary>  (29) 
energy

>  <meeko>  (29) 
{"free_energy": -7.65, "intermolecular_energy": -10.04, "internal_energy": -1.57, "cluster_size": 4, "cluster_id": 2, "rank_in_cluster": 4}

>  <energy>  (29) 
-7.8

>  <cluster_rmsd>  (29) 
1.94

>  <rmsd>  (29) 
271.81

>  <cluster>  (29) 
1

$$$$
UYYINUAOVYUWQM-XVQRQBGSNA-M
     RDKit          3D

 51 54  0  0  0  0  0  0  0  0999 V2000
  141.2410   72.2100  221.5100 O   0  0  0  0  0  0  0  0  0  0  0  0
  140.4810   72.5610  222.4500 C   0  0  0  0  0  0  0  0  0  0  0  0
  139.8160   73.8300  222.3540 N   0  0  0  0  0  0  0  0  0  0  0  0
  138.9420   74.3050  221.2810 C   0  0  0  0  0  0  0  0  0  0  0  0
  138.5550   75.7470  221.4620 C   0  0  0  0  0  0  0  0  0  0  0  0
  137.4610   76.0110  222.0300 O   0  0  0  0  0  0  0  0  0  0  0  0
  139.4040   76.8260  221.0210 N   0  0  0  0  0  0  0  0  0  0  0  0
  138.9560   77.9130  220.1620 C   0  0  0  0  0  0  0  0  0  0  0  0
  140.1800   78.8050  219.9620 C   0  0  2  0  0  0  0  0  0  0  0  0
  140.2770   79.2950  218.6480 O   0  0  0  0  0  0  0  0  0  0  0  0
  141.3900   77.9540  220.3570 C   0  0  0  0  0  0  0  0  0  0  0  0
  140.8390   76.8640  221.2850 C   0  0  1  0  0  0  0  0  0  0  0  0
  141.0840   77.1710  222.7760 C   0  0  0  0  0  0  0  0  0  0  0  0
  141.2940   78.6400  223.0360 C   0  0  0  0  0  0  0  0  0  0  0  0
  140.1980   79.4930  223.2480 C   0  0  0  0  0  0  0  0  0  0  0  0
  140.4020   80.8530  223.4980 C   0  0  0  0  0  0  0  0  0  0  0  0
  141.6990   81.3720  223.5390 C   0  0  0  0  0  0  0  0  0  0  0  0
  142.7950   80.5290  223.3300 C   0  0  0  0  0  0  0  0  0  0  0  0
  142.5950   79.1680  223.0800 C   0  0  0  0  0  0  0  0  0  0  0  0
  140.2530   71.6200  223.5590 C   0  0  0  0  0  0  0  0  0  0  0  0
  139.5730   70.4070  223.3660 C   0  0  0  0  0  0  0  0  0  0  0  0
  139.4110   69.5280  224.4390 C   0  0  0  0  0  0  0  0  0  0  0  0
  139.9150   69.8690  225.7000 C   0  0  0  0  0  0  0  0  0  0  0  0
  139.7960   68.9980  226.7930 C   0  0  0  0  0  0  0  0  0  0  0  0
  140.3210   69.3630  228.0380 C   0  0  0  0  0  0  0  0  0  0  0  0
  140.2120   68.5180  229.0930 F   0  0  0  0  0  0  0  0  0  0  0  0
  140.9610   70.5980  228.1970 C   0  0  0  0  0  0  0  0  0  0  0  0
  141.0770   71.4740  227.1140 C   0  0  0  0  0  0  0  0  0  0  0  0
  140.5560   71.1150  225.8650 C   0  0  0  0  0  0  0  0  0  0  0  0
  140.7000   71.9500  224.8020 N   0  0  0  0  0  0  0  0  0  0  0  0
  139.4682   74.1969  220.3211 H   0  0  0  0  0  0  0  0  0  0  0  0
  138.0219   73.7025  221.3023 H   0  0  0  0  0  0  0  0  0  0  0  0
  138.6044   77.5203  219.1965 H   0  0  0  0  0  0  0  0  0  0  0  0
  138.1160   78.4660  220.6076 H   0  0  0  0  0  0  0  0  0  0  0  0
  140.1137   79.7088  220.5856 H   0  0  0  0  0  0  0  0  0  0  0  0
  140.1750   78.5270  218.0260 H   0  0  0  0  0  0  0  0  0  0  0  0
  141.8505   77.5032  219.4655 H   0  0  0  0  0  0  0  0  0  0  0  0
  142.1681   78.5550  220.8503 H   0  0  0  0  0  0  0  0  0  0  0  0
  141.3431   75.9062  221.0887 H   0  0  0  0  0  0  0  0  0  0  0  0
  140.2117   76.8317  223.3539 H   0  0  0  0  0  0  0  0  0  0  0  0
  142.0004   76.6437  223.0795 H   0  0  0  0  0  0  0  0  0  0  0  0
  139.1753   79.0890  223.2171 H   0  0  0  0  0  0  0  0  0  0  0  0
  139.5400   81.5161  223.6628 H   0  0  0  0  0  0  0  0  0  0  0  0
  141.8576   82.4426  223.7355 H   0  0  0  0  0  0  0  0  0  0  0  0
  143.8159   80.9372  223.3623 H   0  0  0  0  0  0  0  0  0  0  0  0
  143.4598   78.5081  222.9171 H   0  0  0  0  0  0  0  0  0  0  0  0
  139.1701   70.1504  222.3751 H   0  0  0  0  0  0  0  0  0  0  0  0
  138.8890   68.5707  224.2939 H   0  0  0  0  0  0  0  0  0  0  0  0
  139.2904   68.0287  226.6717 H   0  0  0  0  0  0  0  0  0  0  0  0
  141.3737   70.8797  229.1770 H   0  0  0  0  0  0  0  0  0  0  0  0
  141.5774   72.4451  227.2429 H   0  0  0  0  0  0  0  0  0  0  0  0
  1  2  2  0
  2  3  1  0
  3  4  1  0
  4  5  1  0
  5  6  2  0
  5  7  1  0
  7  8  1  0
  8  9  1  0
  9 10  1  0
  9 11  1  0
 11 12  1  0
 12 13  1  0
 13 14  1  0
 14 15  2  0
 15 16  1  0
 16 17  2  0
 17 18  1  0
 18 19  2  0
  2 20  1  0
 20 21  2  0
 21 22  1  0
 22 23  2  0
 23 24  1  0
 24 25  2  0
 25 26  1  0
 25 27  1  0
 27 28  2  0
 28 29  1  0
 29 30  2  0
 12  7  1  0
 19 14  1  0
 30 20  1  0
 29 23  1  0
  4 31  1  0
  4 32  1  0
  8 33  1  0
  8 34  1  0
  9 35  1  1
 10 36  1  0
 11 37  1  0
 11 38  1  0
 12 39  1  6
 13 40  1  0
 13 41  1  0
 15 42  1  0
 16 43  1  0
 17 44  1  0
 18 45  1  0
 19 46  1  0
 21 47  1  0
 22 48  1  0
 24 49  1  0
 27 50  1  0
 28 51  1  0
M  CHG  1   3  -1
M  END
>  <UniqueID>  (30) 
22

>  <SMILES>  (30) 
O=C([N-]CC(=O)N1C[C@H](O)C[C@H]1Cc1ccccc1)c1ccc2cc(F)ccc2n1

>  <Energy>  (30) 
56.637258429796425

>  <Genealogy>  (30) 
O=C([N-]CC(=O)N1C[C@H](O)C[C@H]1Cc1ccccc1)c1ccc2cc(F)ccc2n1 (protonated)
O=C([N-]CC(=O)N1C[C@H](O)C[C@H]1Cc1ccccc1)c1ccc2cc(F)ccc2n1 (3D coordinates assigned)
O=C([N-]CC(=O)N1C[C@H](O)C[C@H]1Cc1ccccc1)c1ccc2cc(F)ccc2n1 (nonaromatic ring conformer: 56.637258429796425 kcal/mol)

>  <smiles>  (30) 
O=C(NCC(=O)N1C[C@H](O)C[C@H]1Cc1ccccc1)c1ccc2cc(F)ccc2n1

>  <score_type>  (30) 
oracle

>  <origin>  (30) 
autodockgpu

>  <m_score__min__energy>  (30) 
-8.5099999999999998

>  <m_primary>  (30) 
energy

>  <meeko>  (30) 
{"free_energy": -7.92, "intermolecular_energy": -10.31, "internal_energy": -1.33, "cluster_size": 12, "cluster_id": 1, "rank_in_cluster": 7}

>  <energy>  (30) 
-7.72

>  <cluster_rmsd>  (30) 
1.18

>  <rmsd>  (30) 
271.43

>  <cluster>  (30) 
1

$$$$
UYYINUAOVYUWQM-XVQRQBGSNA-M
     RDKit          3D

 51 54  0  0  0  0  0  0  0  0999 V2000
  139.9450   73.6920  222.6820 O   0  0  0  0  0  0  0  0  0  0  0  0
  140.2900   72.4970  222.4860 C   0  0  0  0  0  0  0  0  0  0  0  0
  140.8650   72.1500  221.2170 N   0  0  0  0  0  0  0  0  0  0  0  0
  140.5130   72.6790  219.9000 C   0  0  0  0  0  0  0  0  0  0  0  0
  141.6540   72.5780  218.9250 C   0  0  0  0  0  0  0  0  0  0  0  0
  141.4200   72.1390  217.7660 O   0  0  0  0  0  0  0  0  0  0  0  0
  142.9930   72.9820  219.2730 N   0  0  0  0  0  0  0  0  0  0  0  0
  144.1910   72.2690  218.8560 C   0  0  0  0  0  0  0  0  0  0  0  0
  145.3600   73.0510  219.4530 C   0  0  2  0  0  0  0  0  0  0  0  0
  146.3770   72.2100  219.9360 O   0  0  0  0  0  0  0  0  0  0  0  0
  144.7590   73.9300  220.5540 C   0  0  0  0  0  0  0  0  0  0  0  0
  143.2750   74.0780  220.1950 C   0  0  1  0  0  0  0  0  0  0  0  0
  142.9570   75.4240  219.5150 C   0  0  0  0  0  0  0  0  0  0  0  0
  142.1680   76.3480  220.4050 C   0  0  0  0  0  0  0  0  0  0  0  0
  142.1720   77.7350  220.1800 C   0  0  0  0  0  0  0  0  0  0  0  0
  141.4300   78.5840  221.0050 C   0  0  0  0  0  0  0  0  0  0  0  0
  140.6760   78.0570  222.0580 C   0  0  0  0  0  0  0  0  0  0  0  0
  140.6650   76.6790  222.2860 C   0  0  0  0  0  0  0  0  0  0  0  0
  141.4060   75.8250  221.4640 C   0  0  0  0  0  0  0  0  0  0  0  0
  140.1570   71.5370  223.5950 C   0  0  0  0  0  0  0  0  0  0  0  0
  139.5570   70.2820  223.4140 C   0  0  0  0  0  0  0  0  0  0  0  0
  139.4850   69.3900  224.4850 C   0  0  0  0  0  0  0  0  0  0  0  0
  139.9990   69.7580  225.7340 C   0  0  0  0  0  0  0  0  0  0  0  0
  139.9690   68.8770  226.8250 C   0  0  0  0  0  0  0  0  0  0  0  0
  140.5020   69.2720  228.0570 C   0  0  0  0  0  0  0  0  0  0  0  0
  140.4800   68.4180  229.1090 F   0  0  0  0  0  0  0  0  0  0  0  0
  141.0600   70.5470  228.2070 C   0  0  0  0  0  0  0  0  0  0  0  0
  141.0860   71.4340  227.1260 C   0  0  0  0  0  0  0  0  0  0  0  0
  140.5570   71.0450  225.8900 C   0  0  0  0  0  0  0  0  0  0  0  0
  140.6140   71.8920  224.8280 N   0  0  0  0  0  0  0  0  0  0  0  0
  139.6585   72.1093  219.5059 H   0  0  0  0  0  0  0  0  0  0  0  0
  140.2629   73.7436  220.0189 H   0  0  0  0  0  0  0  0  0  0  0  0
  144.1798   71.2393  219.2428 H   0  0  0  0  0  0  0  0  0  0  0  0
  144.2638   72.1990  217.7606 H   0  0  0  0  0  0  0  0  0  0  0  0
  145.8556   73.6638  218.6856 H   0  0  0  0  0  0  0  0  0  0  0  0
  146.1090   71.8900  220.8380 H   0  0  0  0  0  0  0  0  0  0  0  0
  144.8708   73.4467  221.5358 H   0  0  0  0  0  0  0  0  0  0  0  0
  145.2629   74.9057  220.6182 H   0  0  0  0  0  0  0  0  0  0  0  0
  142.6585   74.0497  221.1056 H   0  0  0  0  0  0  0  0  0  0  0  0
  143.9036   75.9159  219.2466 H   0  0  0  0  0  0  0  0  0  0  0  0
  142.3446   75.2127  218.6260 H   0  0  0  0  0  0  0  0  0  0  0  0
  142.7615   78.1539  219.3512 H   0  0  0  0  0  0  0  0  0  0  0  0
  141.4390   79.6693  220.8258 H   0  0  0  0  0  0  0  0  0  0  0  0
  140.0921   78.7270  222.7062 H   0  0  0  0  0  0  0  0  0  0  0  0
  140.0717   76.2647  223.1145 H   0  0  0  0  0  0  0  0  0  0  0  0
  141.3927   74.7403  221.6465 H   0  0  0  0  0  0  0  0  0  0  0  0
  139.1454   70.0023  222.4330 H   0  0  0  0  0  0  0  0  0  0  0  0
  139.0254   68.4001  224.3480 H   0  0  0  0  0  0  0  0  0  0  0  0
  139.5267   67.8762  226.7122 H   0  0  0  0  0  0  0  0  0  0  0  0
  141.4790   70.8520  229.1773 H   0  0  0  0  0  0  0  0  0  0  0  0
  141.5219   72.4367  227.2471 H   0  0  0  0  0  0  0  0  0  0  0  0
  1  2  2  0
  2  3  1  0
  3  4  1  0
  4  5  1  0
  5  6  2  0
  5  7  1  0
  7  8  1  0
  8  9  1  0
  9 10  1  0
  9 11  1  0
 11 12  1  0
 12 13  1  0
 13 14  1  0
 14 15  2  0
 15 16  1  0
 16 17  2  0
 17 18  1  0
 18 19  2  0
  2 20  1  0
 20 21  2  0
 21 22  1  0
 22 23  2  0
 23 24  1  0
 24 25  2  0
 25 26  1  0
 25 27  1  0
 27 28  2  0
 28 29  1  0
 29 30  2  0
 12  7  1  0
 19 14  1  0
 30 20  1  0
 29 23  1  0
  4 31  1  0
  4 32  1  0
  8 33  1  0
  8 34  1  0
  9 35  1  6
 10 36  1  0
 11 37  1  0
 11 38  1  0
 12 39  1  1
 13 40  1  0
 13 41  1  0
 15 42  1  0
 16 43  1  0
 17 44  1  0
 18 45  1  0
 19 46  1  0
 21 47  1  0
 22 48  1  0
 24 49  1  0
 27 50  1  0
 28 51  1  0
M  CHG  1   3  -1
M  END
>  <UniqueID>  (31) 
22

>  <SMILES>  (31) 
O=C([N-]CC(=O)N1C[C@H](O)C[C@H]1Cc1ccccc1)c1ccc2cc(F)ccc2n1

>  <Energy>  (31) 
56.637258429796425

>  <Genealogy>  (31) 
O=C([N-]CC(=O)N1C[C@H](O)C[C@H]1Cc1ccccc1)c1ccc2cc(F)ccc2n1 (protonated)
O=C([N-]CC(=O)N1C[C@H](O)C[C@H]1Cc1ccccc1)c1ccc2cc(F)ccc2n1 (3D coordinates assigned)
O=C([N-]CC(=O)N1C[C@H](O)C[C@H]1Cc1ccccc1)c1ccc2cc(F)ccc2n1 (nonaromatic ring conformer: 56.637258429796425 kcal/mol)

>  <smiles>  (31) 
O=C(NCC(=O)N1C[C@H](O)C[C@H]1Cc1ccccc1)c1ccc2cc(F)ccc2n1

>  <score_type>  (31) 
oracle

>  <origin>  (31) 
autodockgpu

>  <m_score__min__energy>  (31) 
-8.5099999999999998

>  <m_primary>  (31) 
energy

>  <meeko>  (31) 
{"free_energy": -8.11, "intermolecular_energy": -10.49, "internal_energy": -1.52, "cluster_size": 4, "cluster_id": 2, "rank_in_cluster": 2}

>  <energy>  (31) 
-7.64

>  <cluster_rmsd>  (31) 
1.61

>  <rmsd>  (31) 
271.2

>  <cluster>  (31) 
1

$$$$
UYYINUAOVYUWQM-XVQRQBGSNA-M
     RDKit          3D

 51 54  0  0  0  0  0  0  0  0999 V2000
  140.1830   73.2520  222.7180 O   0  0  0  0  0  0  0  0  0  0  0  0
  140.1810   72.0110  222.5090 C   0  0  0  0  0  0  0  0  0  0  0  0
  140.3750   71.5430  221.1650 N   0  0  0  0  0  0  0  0  0  0  0  0
  140.6950   72.3360  219.9780 C   0  0  0  0  0  0  0  0  0  0  0  0
  141.8940   73.2180  220.1920 C   0  0  0  0  0  0  0  0  0  0  0  0
  141.7130   74.3830  220.6400 O   0  0  0  0  0  0  0  0  0  0  0  0
  143.2340   72.7640  219.9170 N   0  0  0  0  0  0  0  0  0  0  0  0
  144.4320   73.4070  220.4390 C   0  0  0  0  0  0  0  0  0  0  0  0
  145.6030   72.5920  219.8900 C   0  0  2  0  0  0  0  0  0  0  0  0
  146.6860   73.4020  219.5060 O   0  0  0  0  0  0  0  0  0  0  0  0
  145.0390   71.7800  218.7210 C   0  0  0  0  0  0  0  0  0  0  0  0
  143.5290   71.6890  218.9750 C   0  0  1  0  0  0  0  0  0  0  0  0
  143.1080   70.3370  219.5830 C   0  0  0  0  0  0  0  0  0  0  0  0
  144.0000   69.2050  219.1460 C   0  0  0  0  0  0  0  0  0  0  0  0
  144.0810   68.8400  217.7910 C   0  0  0  0  0  0  0  0  0  0  0  0
  144.9190   67.7950  217.3920 C   0  0  0  0  0  0  0  0  0  0  0  0
  145.6820   67.1070  218.3400 C   0  0  0  0  0  0  0  0  0  0  0  0
  145.6080   67.4650  219.6880 C   0  0  0  0  0  0  0  0  0  0  0  0
  144.7710   68.5100  220.0920 C   0  0  0  0  0  0  0  0  0  0  0  0
  140.0570   71.1040  223.6630 C   0  0  0  0  0  0  0  0  0  0  0  0
  139.4390   69.8500  223.5500 C   0  0  0  0  0  0  0  0  0  0  0  0
  139.3760   69.0080  224.6620 C   0  0  0  0  0  0  0  0  0  0  0  0
  139.9170   69.4270  225.8840 C   0  0  0  0  0  0  0  0  0  0  0  0
  139.8970   68.5960  227.0140 C   0  0  0  0  0  0  0  0  0  0  0  0
  140.4570   69.0410  228.2170 C   0  0  0  0  0  0  0  0  0  0  0  0
  140.4430   68.2360  229.3080 F   0  0  0  0  0  0  0  0  0  0  0  0
  141.0320   70.3140  228.2980 C   0  0  0  0  0  0  0  0  0  0  0  0
  141.0490   71.1500  227.1780 C   0  0  0  0  0  0  0  0  0  0  0  0
  140.4930   70.7130  225.9700 C   0  0  0  0  0  0  0  0  0  0  0  0
  140.5410   71.5090  224.8690 N   0  0  0  0  0  0  0  0  0  0  0  0
  140.9021   71.6532  219.1408 H   0  0  0  0  0  0  0  0  0  0  0  0
  139.8328   72.9839  219.7615 H   0  0  0  0  0  0  0  0  0  0  0  0
  144.4920   74.4489  220.0914 H   0  0  0  0  0  0  0  0  0  0  0  0
  144.4342   73.4362  221.5386 H   0  0  0  0  0  0  0  0  0  0  0  0
  146.0190   71.9305  220.6642 H   0  0  0  0  0  0  0  0  0  0  0  0
  146.3470   74.3270  219.3790 H   0  0  0  0  0  0  0  0  0  0  0  0
  145.2382   72.2903  217.7671 H   0  0  0  0  0  0  0  0  0  0  0  0
  145.5021   70.7844  218.6550 H   0  0  0  0  0  0  0  0  0  0  0  0
  142.9773   71.7773  218.0275 H   0  0  0  0  0  0  0  0  0  0  0  0
  143.1490   70.4153  220.6794 H   0  0  0  0  0  0  0  0  0  0  0  0
  142.0898   70.1150  219.2310 H   0  0  0  0  0  0  0  0  0  0  0  0
  143.4825   69.3789  217.0417 H   0  0  0  0  0  0  0  0  0  0  0  0
  144.9782   67.5135  216.3303 H   0  0  0  0  0  0  0  0  0  0  0  0
  146.3403   66.2841  218.0245 H   0  0  0  0  0  0  0  0  0  0  0  0
  146.2093   66.9239  220.4334 H   0  0  0  0  0  0  0  0  0  0  0  0
  144.7163   68.7886  221.1547 H   0  0  0  0  0  0  0  0  0  0  0  0
  139.0061   69.5315  222.5902 H   0  0  0  0  0  0  0  0  0  0  0  0
  138.9029   68.0185  224.5785 H   0  0  0  0  0  0  0  0  0  0  0  0
  139.4419   67.5963  226.9547 H   0  0  0  0  0  0  0  0  0  0  0  0
  141.4719   70.6578  229.2458 H   0  0  0  0  0  0  0  0  0  0  0  0
  141.4993   72.1513  227.2458 H   0  0  0  0  0  0  0  0  0  0  0  0
  1  2  2  0
  2  3  1  0
  3  4  1  0
  4  5  1  0
  5  6  2  0
  5  7  1  0
  7  8  1  0
  8  9  1  0
  9 10  1  0
  9 11  1  0
 11 12  1  0
 12 13  1  0
 13 14  1  0
 14 15  2  0
 15 16  1  0
 16 17  2  0
 17 18  1  0
 18 19  2  0
  2 20  1  0
 20 21  2  0
 21 22  1  0
 22 23  2  0
 23 24  1  0
 24 25  2  0
 25 26  1  0
 25 27  1  0
 27 28  2  0
 28 29  1  0
 29 30  2  0
 12  7  1  0
 19 14  1  0
 30 20  1  0
 29 23  1  0
  4 31  1  0
  4 32  1  0
  8 33  1  0
  8 34  1  0
  9 35  1  1
 10 36  1  0
 11 37  1  0
 11 38  1  0
 12 39  1  6
 13 40  1  0
 13 41  1  0
 15 42  1  0
 16 43  1  0
 17 44  1  0
 18 45  1  0
 19 46  1  0
 21 47  1  0
 22 48  1  0
 24 49  1  0
 27 50  1  0
 28 51  1  0
M  CHG  1   3  -1
M  END
>  <UniqueID>  (32) 
22

>  <SMILES>  (32) 
O=C([N-]CC(=O)N1C[C@H](O)C[C@H]1Cc1ccccc1)c1ccc2cc(F)ccc2n1

>  <Energy>  (32) 
56.637258429796425

>  <Genealogy>  (32) 
O=C([N-]CC(=O)N1C[C@H](O)C[C@H]1Cc1ccccc1)c1ccc2cc(F)ccc2n1 (protonated)
O=C([N-]CC(=O)N1C[C@H](O)C[C@H]1Cc1ccccc1)c1ccc2cc(F)ccc2n1 (3D coordinates assigned)
O=C([N-]CC(=O)N1C[C@H](O)C[C@H]1Cc1ccccc1)c1ccc2cc(F)ccc2n1 (nonaromatic ring conformer: 56.637258429796425 kcal/mol)

>  <smiles>  (32) 
O=C(NCC(=O)N1C[C@H](O)C[C@H]1Cc1ccccc1)c1ccc2cc(F)ccc2n1

>  <score_type>  (32) 
oracle

>  <origin>  (32) 
autodockgpu

>  <m_score__min__energy>  (32) 
-8.5099999999999998

>  <m_primary>  (32) 
energy

>  <meeko>  (32) 
{"free_energy": -8.08, "intermolecular_energy": -10.47, "internal_energy": -1.25, "cluster_size": 1, "cluster_id": 3, "rank_in_cluster": 1}

>  <energy>  (32) 
-7.28

>  <cluster_rmsd>  (32) 
1.53

>  <rmsd>  (32) 
271.75

>  <cluster>  (32) 
1

$$$$
UYYINUAOVYUWQM-XVQRQBGSNA-M
     RDKit          3D

 51 54  0  0  0  0  0  0  0  0999 V2000
  139.9470   73.4000  222.7040 O   0  0  0  0  0  0  0  0  0  0  0  0
  139.9650   72.1660  222.4600 C   0  0  0  0  0  0  0  0  0  0  0  0
  140.1140   71.7400  221.0970 N   0  0  0  0  0  0  0  0  0  0  0  0
  141.2090   70.9620  220.5170 C   0  0  0  0  0  0  0  0  0  0  0  0
  141.7820   71.6180  219.2910 C   0  0  0  0  0  0  0  0  0  0  0  0
  141.2880   71.3320  218.1670 O   0  0  0  0  0  0  0  0  0  0  0  0
  142.8620   72.5710  219.3690 N   0  0  0  0  0  0  0  0  0  0  0  0
  144.1580   72.3830  218.7340 C   0  0  0  0  0  0  0  0  0  0  0  0
  144.9690   73.6290  219.0860 C   0  0  2  0  0  0  0  0  0  0  0  0
  146.3130   73.3320  219.3710 O   0  0  0  0  0  0  0  0  0  0  0  0
  144.2510   74.2770  220.2730 C   0  0  0  0  0  0  0  0  0  0  0  0
  142.8070   73.7640  220.2080 C   0  0  1  0  0  0  0  0  0  0  0  0
  141.8370   74.7890  219.5890 C   0  0  0  0  0  0  0  0  0  0  0  0
  141.6140   75.9830  220.4790 C   0  0  0  0  0  0  0  0  0  0  0  0
  140.9930   75.8370  221.7310 C   0  0  0  0  0  0  0  0  0  0  0  0
  140.7980   76.9480  222.5560 C   0  0  0  0  0  0  0  0  0  0  0  0
  141.2240   78.2130  222.1400 C   0  0  0  0  0  0  0  0  0  0  0  0
  141.8440   78.3670  220.8980 C   0  0  0  0  0  0  0  0  0  0  0  0
  142.0410   77.2580  220.0690 C   0  0  0  0  0  0  0  0  0  0  0  0
  139.9110   71.2250  223.5910 C   0  0  0  0  0  0  0  0  0  0  0  0
  139.3360   69.9510  223.4630 C   0  0  0  0  0  0  0  0  0  0  0  0
  139.3380   69.0790  224.5530 C   0  0  0  0  0  0  0  0  0  0  0  0
  139.9010   69.4850  225.7690 C   0  0  0  0  0  0  0  0  0  0  0  0
  139.9460   68.6250  226.8760 C   0  0  0  0  0  0  0  0  0  0  0  0
  140.5260   69.0590  228.0740 C   0  0  0  0  0  0  0  0  0  0  0  0
  140.5760   68.2250  229.1410 F   0  0  0  0  0  0  0  0  0  0  0  0
  141.0560   70.3500  228.1730 C   0  0  0  0  0  0  0  0  0  0  0  0
  141.0070   71.2160  227.0760 C   0  0  0  0  0  0  0  0  0  0  0  0
  140.4310   70.7890  225.8730 C   0  0  0  0  0  0  0  0  0  0  0  0
  140.4150   71.6160  224.7940 N   0  0  0  0  0  0  0  0  0  0  0  0
  142.0058   70.8566  221.2680 H   0  0  0  0  0  0  0  0  0  0  0  0
  140.8078   69.9817  220.2203 H   0  0  0  0  0  0  0  0  0  0  0  0
  144.6505   71.4805  219.1250 H   0  0  0  0  0  0  0  0  0  0  0  0
  144.0643   72.2507  217.6460 H   0  0  0  0  0  0  0  0  0  0  0  0
  145.0188   74.3193  218.2310 H   0  0  0  0  0  0  0  0  0  0  0  0
  146.8270   74.1820  219.3420 H   0  0  0  0  0  0  0  0  0  0  0  0
  144.7238   73.9757  221.2194 H   0  0  0  0  0  0  0  0  0  0  0  0
  144.2965   75.3751  220.2275 H   0  0  0  0  0  0  0  0  0  0  0  0
  142.4277   73.5663  221.2214 H   0  0  0  0  0  0  0  0  0  0  0  0
  142.2537   75.1355  218.6318 H   0  0  0  0  0  0  0  0  0  0  0  0
  140.8667   74.2895  219.4508 H   0  0  0  0  0  0  0  0  0  0  0  0
  140.6586   74.8432  222.0634 H   0  0  0  0  0  0  0  0  0  0  0  0
  140.3088   76.8271  223.5338 H   0  0  0  0  0  0  0  0  0  0  0  0
  141.0709   79.0866  222.7906 H   0  0  0  0  0  0  0  0  0  0  0  0
  142.1781   79.3628  220.5711 H   0  0  0  0  0  0  0  0  0  0  0  0
  142.5318   77.3839  219.0927 H   0  0  0  0  0  0  0  0  0  0  0  0
  138.8859   69.6412  222.5083 H   0  0  0  0  0  0  0  0  0  0  0  0
  138.8983   68.0753  224.4569 H   0  0  0  0  0  0  0  0  0  0  0  0
  139.5261   67.6109  226.8030 H   0  0  0  0  0  0  0  0  0  0  0  0
  141.5124   70.6848  229.1162 H   0  0  0  0  0  0  0  0  0  0  0  0
  141.4206   72.2320  227.1580 H   0  0  0  0  0  0  0  0  0  0  0  0
  1  2  2  0
  2  3  1  0
  3  4  1  0
  4  5  1  0
  5  6  2  0
  5  7  1  0
  7  8  1  0
  8  9  1  0
  9 10  1  0
  9 11  1  0
 11 12  1  0
 12 13  1  0
 13 14  1  0
 14 15  2  0
 15 16  1  0
 16 17  2  0
 17 18  1  0
 18 19  2  0
  2 20  1  0
 20 21  2  0
 21 22  1  0
 22 23  2  0
 23 24  1  0
 24 25  2  0
 25 26  1  0
 25 27  1  0
 27 28  2  0
 28 29  1  0
 29 30  2  0
 12  7  1  0
 19 14  1  0
 30 20  1  0
 29 23  1  0
  4 31  1  0
  4 32  1  0
  8 33  1  0
  8 34  1  0
  9 35  1  6
 10 36  1  0
 11 37  1  0
 11 38  1  0
 12 39  1  1
 13 40  1  0
 13 41  1  0
 15 42  1  0
 16 43  1  0
 17 44  1  0
 18 45  1  0
 19 46  1  0
 21 47  1  0
 22 48  1  0
 24 49  1  0
 27 50  1  0
 28 51  1  0
M  CHG  1   3  -1
M  END
>  <UniqueID>  (33) 
22

>  <SMILES>  (33) 
O=C([N-]CC(=O)N1C[C@H](O)C[C@H]1Cc1ccccc1)c1ccc2cc(F)ccc2n1

>  <Energy>  (33) 
56.637258429796425

>  <Genealogy>  (33) 
O=C([N-]CC(=O)N1C[C@H](O)C[C@H]1Cc1ccccc1)c1ccc2cc(F)ccc2n1 (protonated)
O=C([N-]CC(=O)N1C[C@H](O)C[C@H]1Cc1ccccc1)c1ccc2cc(F)ccc2n1 (3D coordinates assigned)
O=C([N-]CC(=O)N1C[C@H](O)C[C@H]1Cc1ccccc1)c1ccc2cc(F)ccc2n1 (nonaromatic ring conformer: 56.637258429796425 kcal/mol)

>  <smiles>  (33) 
O=C(NCC(=O)N1C[C@H](O)C[C@H]1Cc1ccccc1)c1ccc2cc(F)ccc2n1

>  <score_type>  (33) 
oracle

>  <origin>  (33) 
autodockgpu

>  <m_score__min__energy>  (33) 
-8.5099999999999998

>  <m_primary>  (33) 
energy

>  <meeko>  (33) 
{"free_energy": -8.07, "intermolecular_energy": -10.45, "internal_energy": -1.47, "cluster_size": 4, "cluster_id": 2, "rank_in_cluster": 3}

>  <energy>  (33) 
-8.13

>  <cluster_rmsd>  (33) 
0.0

>  <rmsd>  (33) 
271.34

>  <cluster>  (33) 
2

$$$$
UYYINUAOVYUWQM-XVQRQBGSNA-M
     RDKit          3D

 51 54  0  0  0  0  0  0  0  0999 V2000
  140.4570   71.8660  221.1070 O   0  0  0  0  0  0  0  0  0  0  0  0
  140.3360   72.3950  222.2420 C   0  0  0  0  0  0  0  0  0  0  0  0
  140.3550   73.8280  222.3360 N   0  0  0  0  0  0  0  0  0  0  0  0
  139.3590   74.7710  221.8280 C   0  0  0  0  0  0  0  0  0  0  0  0
  139.9470   76.1310  221.5680 C   0  0  0  0  0  0  0  0  0  0  0  0
  139.6520   77.0740  222.3500 O   0  0  0  0  0  0  0  0  0  0  0  0
  140.8450   76.3760  220.4670 N   0  0  0  0  0  0  0  0  0  0  0  0
  140.8950   75.5590  219.2630 C   0  0  0  0  0  0  0  0  0  0  0  0
  141.9810   76.1860  218.3910 C   0  0  2  0  0  0  0  0  0  0  0  0
  142.7650   75.2220  217.7340 O   0  0  0  0  0  0  0  0  0  0  0  0
  142.8100   77.0740  219.3240 C   0  0  0  0  0  0  0  0  0  0  0  0
  141.8910   77.3930  220.5090 C   0  0  1  0  0  0  0  0  0  0  0  0
  141.2550   78.7940  220.4100 C   0  0  0  0  0  0  0  0  0  0  0  0
  141.5700   79.6550  221.6050 C   0  0  0  0  0  0  0  0  0  0  0  0
  142.1810   79.1030  222.7440 C   0  0  0  0  0  0  0  0  0  0  0  0
  142.4790   79.9110  223.8450 C   0  0  0  0  0  0  0  0  0  0  0  0
  142.1720   81.2740  223.8190 C   0  0  0  0  0  0  0  0  0  0  0  0
  141.5660   81.8310  222.6890 C   0  0  0  0  0  0  0  0  0  0  0  0
  141.2660   81.0270  221.5850 C   0  0  0  0  0  0  0  0  0  0  0  0
  140.1040   71.5200  223.4040 C   0  0  0  0  0  0  0  0  0  0  0  0
  139.3700   70.3290  223.2920 C   0  0  0  0  0  0  0  0  0  0  0  0
  139.2050   69.5120  224.4130 C   0  0  0  0  0  0  0  0  0  0  0  0
  139.7600   69.8930  225.6400 C   0  0  0  0  0  0  0  0  0  0  0  0
  139.6380   69.0830  226.7790 C   0  0  0  0  0  0  0  0  0  0  0  0
  140.2150   69.4880  227.9890 C   0  0  0  0  0  0  0  0  0  0  0  0
  140.1030   68.7020  229.0880 F   0  0  0  0  0  0  0  0  0  0  0  0
  140.9080   70.7010  228.0670 C   0  0  0  0  0  0  0  0  0  0  0  0
  141.0280   71.5170  226.9380 C   0  0  0  0  0  0  0  0  0  0  0  0
  140.4560   71.1180  225.7240 C   0  0  0  0  0  0  0  0  0  0  0  0
  140.6010   71.8920  224.6150 N   0  0  0  0  0  0  0  0  0  0  0  0
  138.9457   74.3777  220.8875 H   0  0  0  0  0  0  0  0  0  0  0  0
  138.5764   74.8814  222.5931 H   0  0  0  0  0  0  0  0  0  0  0  0
  141.1551   74.5200  219.5137 H   0  0  0  0  0  0  0  0  0  0  0  0
  139.9234   75.5301  218.7481 H   0  0  0  0  0  0  0  0  0  0  0  0
  141.5373   76.7768  217.5761 H   0  0  0  0  0  0  0  0  0  0  0  0
  143.1010   75.6230  216.8900 H   0  0  0  0  0  0  0  0  0  0  0  0
  143.7078   76.5388  219.6669 H   0  0  0  0  0  0  0  0  0  0  0  0
  143.1554   77.9875  218.8178 H   0  0  0  0  0  0  0  0  0  0  0  0
  142.4651   77.3889  221.4473 H   0  0  0  0  0  0  0  0  0  0  0  0
  141.6362   79.2916  219.5061 H   0  0  0  0  0  0  0  0  0  0  0  0
  140.1635   78.6640  220.3696 H   0  0  0  0  0  0  0  0  0  0  0  0
  142.4257   78.0308  222.7691 H   0  0  0  0  0  0  0  0  0  0  0  0
  142.9563   79.4729  224.7340 H   0  0  0  0  0  0  0  0  0  0  0  0
  142.4069   81.9080  224.6867 H   0  0  0  0  0  0  0  0  0  0  0  0
  141.3247   82.9040  222.6683 H   0  0  0  0  0  0  0  0  0  0  0  0
  140.7903   81.4700  220.6976 H   0  0  0  0  0  0  0  0  0  0  0  0
  138.9273   70.0406  222.3272 H   0  0  0  0  0  0  0  0  0  0  0  0
  138.6403   68.5715  224.3315 H   0  0  0  0  0  0  0  0  0  0  0  0
  139.0898   68.1310  226.7217 H   0  0  0  0  0  0  0  0  0  0  0  0
  141.3600   71.0137  229.0198 H   0  0  0  0  0  0  0  0  0  0  0  0
  141.5712   72.4713  227.0035 H   0  0  0  0  0  0  0  0  0  0  0  0
  1  2  2  0
  2  3  1  0
  3  4  1  0
  4  5  1  0
  5  6  2  0
  5  7  1  0
  7  8  1  0
  8  9  1  0
  9 10  1  0
  9 11  1  0
 11 12  1  0
 12 13  1  0
 13 14  1  0
 14 15  2  0
 15 16  1  0
 16 17  2  0
 17 18  1  0
 18 19  2  0
  2 20  1  0
 20 21  2  0
 21 22  1  0
 22 23  2  0
 23 24  1  0
 24 25  2  0
 25 26  1  0
 25 27  1  0
 27 28  2  0
 28 29  1  0
 29 30  2  0
 12  7  1  0
 19 14  1  0
 30 20  1  0
 29 23  1  0
  4 31  1  0
  4 32  1  0
  8 33  1  0
  8 34  1  0
  9 35  1  6
 10 36  1  0
 11 37  1  0
 11 38  1  0
 12 39  1  1
 13 40  1  0
 13 41  1  0
 15 42  1  0
 16 43  1  0
 17 44  1  0
 18 45  1  0
 19 46  1  0
 21 47  1  0
 22 48  1  0
 24 49  1  0
 27 50  1  0
 28 51  1  0
M  CHG  1   3  -1
M  END
>  <UniqueID>  (34) 
22

>  <SMILES>  (34) 
O=C([N-]CC(=O)N1C[C@H](O)C[C@H]1Cc1ccccc1)c1ccc2cc(F)ccc2n1

>  <Energy>  (34) 
56.637258429796425

>  <Genealogy>  (34) 
O=C([N-]CC(=O)N1C[C@H](O)C[C@H]1Cc1ccccc1)c1ccc2cc(F)ccc2n1 (protonated)
O=C([N-]CC(=O)N1C[C@H](O)C[C@H]1Cc1ccccc1)c1ccc2cc(F)ccc2n1 (3D coordinates assigned)
O=C([N-]CC(=O)N1C[C@H](O)C[C@H]1Cc1ccccc1)c1ccc2cc(F)ccc2n1 (nonaromatic ring conformer: 56.637258429796425 kcal/mol)

>  <smiles>  (34) 
O=C(NCC(=O)N1C[C@H](O)C[C@H]1Cc1ccccc1)c1ccc2cc(F)ccc2n1

>  <score_type>  (34) 
oracle

>  <origin>  (34) 
autodockgpu

>  <m_score__min__energy>  (34) 
-8.5099999999999998

>  <m_primary>  (34) 
energy

>  <meeko>  (34) 
{"free_energy": -8.15, "intermolecular_energy": -10.54, "internal_energy": -1.17, "cluster_size": 12, "cluster_id": 1, "rank_in_cluster": 6}

>  <energy>  (34) 
-8.11

>  <cluster_rmsd>  (34) 
0.48

>  <rmsd>  (34) 
271.41

>  <cluster>  (34) 
2

$$$$
UYYINUAOVYUWQM-XVQRQBGSNA-M
     RDKit          3D

 51 54  0  0  0  0  0  0  0  0999 V2000
  140.7520   72.9520  222.0610 O   0  0  0  0  0  0  0  0  0  0  0  0
  139.6680   72.4350  222.4390 C   0  0  0  0  0  0  0  0  0  0  0  0
  138.4720   72.7400  221.7050 N   0  0  0  0  0  0  0  0  0  0  0  0
  137.3990   73.6600  222.0840 C   0  0  0  0  0  0  0  0  0  0  0  0
  137.8110   75.0990  221.9440 C   0  0  0  0  0  0  0  0  0  0  0  0
  136.9690   75.9970  222.2190 O   0  0  0  0  0  0  0  0  0  0  0  0
  139.1380   75.4760  221.5240 N   0  0  0  0  0  0  0  0  0  0  0  0
  139.7930   74.9500  220.3360 C   0  0  0  0  0  0  0  0  0  0  0  0
  141.1650   75.6230  220.2960 C   0  0  2  0  0  0  0  0  0  0  0  0
  142.1820   74.7430  219.8850 O   0  0  0  0  0  0  0  0  0  0  0  0
  141.4050   76.1730  221.7050 C   0  0  0  0  0  0  0  0  0  0  0  0
  140.0120   76.3260  222.3280 C   0  0  1  0  0  0  0  0  0  0  0  0
  139.4990   77.7790  222.2910 C   0  0  0  0  0  0  0  0  0  0  0  0
  140.6050   78.7850  222.4670 C   0  0  0  0  0  0  0  0  0  0  0  0
  141.1920   78.9910  223.7270 C   0  0  0  0  0  0  0  0  0  0  0  0
  142.2250   79.9210  223.8790 C   0  0  0  0  0  0  0  0  0  0  0  0
  142.6810   80.6500  222.7770 C   0  0  0  0  0  0  0  0  0  0  0  0
  142.1040   80.4490  221.5210 C   0  0  0  0  0  0  0  0  0  0  0  0
  141.0700   79.5210  221.3630 C   0  0  0  0  0  0  0  0  0  0  0  0
  139.6980   71.4840  223.5620 C   0  0  0  0  0  0  0  0  0  0  0  0
  139.1540   70.1950  223.4500 C   0  0  0  0  0  0  0  0  0  0  0  0
  139.2370   69.3140  224.5300 C   0  0  0  0  0  0  0  0  0  0  0  0
  139.8470   69.7270  225.7210 C   0  0  0  0  0  0  0  0  0  0  0  0
  139.9730   68.8590  226.8160 C   0  0  0  0  0  0  0  0  0  0  0  0
  140.5980   69.3000  227.9870 C   0  0  0  0  0  0  0  0  0  0  0  0
  140.7260   68.4600  229.0430 F   0  0  0  0  0  0  0  0  0  0  0  0
  141.0950   70.6060  228.0720 C   0  0  0  0  0  0  0  0  0  0  0  0
  140.9670   71.4780  226.9880 C   0  0  0  0  0  0  0  0  0  0  0  0
  140.3440   71.0450  225.8110 C   0  0  0  0  0  0  0  0  0  0  0  0
  140.2500   71.8790  224.7420 N   0  0  0  0  0  0  0  0  0  0  0  0
  136.5289   73.4758  221.4367 H   0  0  0  0  0  0  0  0  0  0  0  0
  137.1558   73.4790  223.1414 H   0  0  0  0  0  0  0  0  0  0  0  0
  139.9022   73.8578  220.4086 H   0  0  0  0  0  0  0  0  0  0  0  0
  139.2114   75.1533  219.4248 H   0  0  0  0  0  0  0  0  0  0  0  0
  141.1851   76.4303  219.5491 H   0  0  0  0  0  0  0  0  0  0  0  0
  142.0720   73.8930  220.3860 H   0  0  0  0  0  0  0  0  0  0  0  0
  142.0141   75.4708  222.2932 H   0  0  0  0  0  0  0  0  0  0  0  0
  141.9493   77.1287  221.6828 H   0  0  0  0  0  0  0  0  0  0  0  0
  140.0369   76.0433  223.3908 H   0  0  0  0  0  0  0  0  0  0  0  0
  139.0116   77.9565  221.3210 H   0  0  0  0  0  0  0  0  0  0  0  0
  138.7949   77.9065  223.1265 H   0  0  0  0  0  0  0  0  0  0  0  0
  140.8376   78.4186  224.5969 H   0  0  0  0  0  0  0  0  0  0  0  0
  142.6798   80.0793  224.8680 H   0  0  0  0  0  0  0  0  0  0  0  0
  143.4936   81.3814  222.8988 H   0  0  0  0  0  0  0  0  0  0  0  0
  142.4639   81.0222  220.6539 H   0  0  0  0  0  0  0  0  0  0  0  0
  140.6189   79.3663  220.3717 H   0  0  0  0  0  0  0  0  0  0  0  0
  138.6649   69.8805  222.5163 H   0  0  0  0  0  0  0  0  0  0  0  0
  138.8242   68.2979  224.4456 H   0  0  0  0  0  0  0  0  0  0  0  0
  139.5809   67.8332  226.7537 H   0  0  0  0  0  0  0  0  0  0  0  0
  141.5876   70.9465  228.9947 H   0  0  0  0  0  0  0  0  0  0  0  0
  141.3556   72.5046  227.0591 H   0  0  0  0  0  0  0  0  0  0  0  0
  1  2  2  0
  2  3  1  0
  3  4  1  0
  4  5  1  0
  5  6  2  0
  5  7  1  0
  7  8  1  0
  8  9  1  0
  9 10  1  0
  9 11  1  0
 11 12  1  0
 12 13  1  0
 13 14  1  0
 14 15  2  0
 15 16  1  0
 16 17  2  0
 17 18  1  0
 18 19  2  0
  2 20  1  0
 20 21  2  0
 21 22  1  0
 22 23  2  0
 23 24  1  0
 24 25  2  0
 25 26  1  0
 25 27  1  0
 27 28  2  0
 28 29  1  0
 29 30  2  0
 12  7  1  0
 19 14  1  0
 30 20  1  0
 29 23  1  0
  4 31  1  0
  4 32  1  0
  8 33  1  0
  8 34  1  0
  9 35  1  6
 10 36  1  0
 11 37  1  0
 11 38  1  0
 12 39  1  1
 13 40  1  0
 13 41  1  0
 15 42  1  0
 16 43  1  0
 17 44  1  0
 18 45  1  0
 19 46  1  0
 21 47  1  0
 22 48  1  0
 24 49  1  0
 27 50  1  0
 28 51  1  0
M  CHG  1   3  -1
M  END
>  <UniqueID>  (35) 
22

>  <SMILES>  (35) 
O=C([N-]CC(=O)N1C[C@H](O)C[C@H]1Cc1ccccc1)c1ccc2cc(F)ccc2n1

>  <Energy>  (35) 
56.637258429796425

>  <Genealogy>  (35) 
O=C([N-]CC(=O)N1C[C@H](O)C[C@H]1Cc1ccccc1)c1ccc2cc(F)ccc2n1 (protonated)
O=C([N-]CC(=O)N1C[C@H](O)C[C@H]1Cc1ccccc1)c1ccc2cc(F)ccc2n1 (3D coordinates assigned)
O=C([N-]CC(=O)N1C[C@H](O)C[C@H]1Cc1ccccc1)c1ccc2cc(F)ccc2n1 (nonaromatic ring conformer: 56.637258429796425 kcal/mol)

>  <smiles>  (35) 
O=C(NCC(=O)N1C[C@H](O)C[C@H]1Cc1ccccc1)c1ccc2cc(F)ccc2n1

>  <score_type>  (35) 
oracle

>  <origin>  (35) 
autodockgpu

>  <m_score__min__energy>  (35) 
-8.5099999999999998

>  <m_primary>  (35) 
energy

>  <meeko>  (35) 
{"free_energy": -7.28, "intermolecular_energy": -9.66, "internal_energy": -1.98, "cluster_size": 12, "cluster_id": 1, "rank_in_cluster": 12}

>  <energy>  (35) 
-8.07

>  <cluster_rmsd>  (35) 
0.66

>  <rmsd>  (35) 
271.29

>  <cluster>  (35) 
2

$$$$
UYYINUAOVYUWQM-XVQRQBGSNA-M
     RDKit          3D

 51 54  0  0  0  0  0  0  0  0999 V2000
  139.6120   74.6420  222.3220 O   0  0  0  0  0  0  0  0  0  0  0  0
  140.2110   73.5900  221.9750 C   0  0  0  0  0  0  0  0  0  0  0  0
  141.1420   73.6610  220.8840 N   0  0  0  0  0  0  0  0  0  0  0  0
  142.4720   74.2690  220.8810 C   0  0  0  0  0  0  0  0  0  0  0  0
  142.9210   74.6420  219.4940 C   0  0  0  0  0  0  0  0  0  0  0  0
  143.5920   73.8040  218.8320 O   0  0  0  0  0  0  0  0  0  0  0  0
  142.5920   75.9140  218.9020 N   0  0  0  0  0  0  0  0  0  0  0  0
  142.3400   76.1080  217.4810 C   0  0  0  0  0  0  0  0  0  0  0  0
  142.0380   77.5970  217.3200 C   0  0  2  0  0  0  0  0  0  0  0  0
  142.6080   78.1370  216.1540 O   0  0  0  0  0  0  0  0  0  0  0  0
  142.5610   78.2720  218.5920 C   0  0  0  0  0  0  0  0  0  0  0  0
  142.6100   77.1660  219.6530 C   0  0  1  0  0  0  0  0  0  0  0  0
  141.4070   77.2100  220.6160 C   0  0  0  0  0  0  0  0  0  0  0  0
  141.5560   78.2710  221.6750 C   0  0  0  0  0  0  0  0  0  0  0  0
  141.8550   79.5980  221.3210 C   0  0  0  0  0  0  0  0  0  0  0  0
  141.9820   80.5790  222.3090 C   0  0  0  0  0  0  0  0  0  0  0  0
  141.8090   80.2440  223.6550 C   0  0  0  0  0  0  0  0  0  0  0  0
  141.5090   78.9280  224.0150 C   0  0  0  0  0  0  0  0  0  0  0  0
  141.3820   77.9430  223.0300 C   0  0  0  0  0  0  0  0  0  0  0  0
  139.9840   72.3620  222.7550 C   0  0  0  0  0  0  0  0  0  0  0  0
  139.1670   71.3270  222.2760 C   0  0  0  0  0  0  0  0  0  0  0  0
  139.0090   70.1650  223.0350 C   0  0  0  0  0  0  0  0  0  0  0  0
  139.6530   70.0480  224.2720 C   0  0  0  0  0  0  0  0  0  0  0  0
  139.5390   68.8840  225.0470 C   0  0  0  0  0  0  0  0  0  0  0  0
  140.2050   68.7950  226.2750 C   0  0  0  0  0  0  0  0  0  0  0  0
  140.1010   67.6680  227.0210 F   0  0  0  0  0  0  0  0  0  0  0  0
  140.9810   69.8650  226.7340 C   0  0  0  0  0  0  0  0  0  0  0  0
  141.0930   71.0310  225.9710 C   0  0  0  0  0  0  0  0  0  0  0  0
  140.4320   71.1280  224.7410 C   0  0  0  0  0  0  0  0  0  0  0  0
  140.5680   72.2460  223.9790 N   0  0  0  0  0  0  0  0  0  0  0  0
  142.4485   75.1765  221.5022 H   0  0  0  0  0  0  0  0  0  0  0  0
  143.1829   73.5304  221.2799 H   0  0  0  0  0  0  0  0  0  0  0  0
  143.2262   75.8295  216.8918 H   0  0  0  0  0  0  0  0  0  0  0  0
  141.5087   75.4820  217.1246 H   0  0  0  0  0  0  0  0  0  0  0  0
  140.9582   77.7683  217.1986 H   0  0  0  0  0  0  0  0  0  0  0  0
  143.3720   78.7110  216.4240 H   0  0  0  0  0  0  0  0  0  0  0  0
  143.5657   78.6862  218.4219 H   0  0  0  0  0  0  0  0  0  0  0  0
  141.9179   79.1082  218.9039 H   0  0  0  0  0  0  0  0  0  0  0  0
  143.5038   77.2827  220.2834 H   0  0  0  0  0  0  0  0  0  0  0  0
  140.4966   77.4171  220.0344 H   0  0  0  0  0  0  0  0  0  0  0  0
  141.3488   76.2359  221.1238 H   0  0  0  0  0  0  0  0  0  0  0  0
  141.9896   79.8657  220.2626 H   0  0  0  0  0  0  0  0  0  0  0  0
  142.2183   81.6156  222.0268 H   0  0  0  0  0  0  0  0  0  0  0  0
  141.9092   81.0170  224.4311 H   0  0  0  0  0  0  0  0  0  0  0  0
  141.3725   78.6660  225.0746 H   0  0  0  0  0  0  0  0  0  0  0  0
  141.1451   76.9080  223.3173 H   0  0  0  0  0  0  0  0  0  0  0  0
  138.6539   71.4299  221.3085 H   0  0  0  0  0  0  0  0  0  0  0  0
  138.3798   69.3438  222.6612 H   0  0  0  0  0  0  0  0  0  0  0  0
  138.9271   68.0425  224.6901 H   0  0  0  0  0  0  0  0  0  0  0  0
  141.5046   69.7885  227.6983 H   0  0  0  0  0  0  0  0  0  0  0  0
  141.7003   71.8719  226.3371 H   0  0  0  0  0  0  0  0  0  0  0  0
  1  2  2  0
  2  3  1  0
  3  4  1  0
  4  5  1  0
  5  6  2  0
  5  7  1  0
  7  8  1  0
  8  9  1  0
  9 10  1  0
  9 11  1  0
 11 12  1  0
 12 13  1  0
 13 14  1  0
 14 15  2  0
 15 16  1  0
 16 17  2  0
 17 18  1  0
 18 19  2  0
  2 20  1  0
 20 21  2  0
 21 22  1  0
 22 23  2  0
 23 24  1  0
 24 25  2  0
 25 26  1  0
 25 27  1  0
 27 28  2  0
 28 29  1  0
 29 30  2  0
 12  7  1  0
 19 14  1  0
 30 20  1  0
 29 23  1  0
  4 31  1  0
  4 32  1  0
  8 33  1  0
  8 34  1  0
  9 35  1  6
 10 36  1  0
 11 37  1  0
 11 38  1  0
 12 39  1  1
 13 40  1  0
 13 41  1  0
 15 42  1  0
 16 43  1  0
 17 44  1  0
 18 45  1  0
 19 46  1  0
 21 47  1  0
 22 48  1  0
 24 49  1  0
 27 50  1  0
 28 51  1  0
M  CHG  1   3  -1
M  END
>  <UniqueID>  (36) 
22

>  <SMILES>  (36) 
O=C([N-]CC(=O)N1C[C@H](O)C[C@H]1Cc1ccccc1)c1ccc2cc(F)ccc2n1

>  <Energy>  (36) 
56.637258429796425

>  <Genealogy>  (36) 
O=C([N-]CC(=O)N1C[C@H](O)C[C@H]1Cc1ccccc1)c1ccc2cc(F)ccc2n1 (protonated)
O=C([N-]CC(=O)N1C[C@H](O)C[C@H]1Cc1ccccc1)c1ccc2cc(F)ccc2n1 (3D coordinates assigned)
O=C([N-]CC(=O)N1C[C@H](O)C[C@H]1Cc1ccccc1)c1ccc2cc(F)ccc2n1 (nonaromatic ring conformer: 56.637258429796425 kcal/mol)

>  <smiles>  (36) 
O=C(NCC(=O)N1C[C@H](O)C[C@H]1Cc1ccccc1)c1ccc2cc(F)ccc2n1

>  <score_type>  (36) 
oracle

>  <origin>  (36) 
autodockgpu

>  <m_score__min__energy>  (36) 
-8.5099999999999998

>  <m_primary>  (36) 
energy

>  <meeko>  (36) 
{"free_energy": -7.64, "intermolecular_energy": -10.03, "internal_energy": -1.2, "cluster_size": 12, "cluster_id": 1, "rank_in_cluster": 11}

>  <energy>  (36) 
-7.65

>  <cluster_rmsd>  (36) 
0.92

>  <rmsd>  (36) 
271.27

>  <cluster>  (36) 
2

$$$$
UYYINUAOVYUWQM-XVQRQBGSNA-M
     RDKit          3D

 51 54  0  0  0  0  0  0  0  0999 V2000
  141.6880   72.3450  221.5670 O   0  0  0  0  0  0  0  0  0  0  0  0
  140.7570   72.6510  222.3570 C   0  0  0  0  0  0  0  0  0  0  0  0
  140.0200   73.8590  222.1130 N   0  0  0  0  0  0  0  0  0  0  0  0
  138.9190   74.0610  221.1720 C   0  0  0  0  0  0  0  0  0  0  0  0
  139.2850   75.0140  220.0670 C   0  0  0  0  0  0  0  0  0  0  0  0
  138.3570   75.5680  219.4170 O   0  0  0  0  0  0  0  0  0  0  0  0
  140.6570   75.3210  219.7480 N   0  0  0  0  0  0  0  0  0  0  0  0
  141.3900   74.7140  218.6460 C   0  0  0  0  0  0  0  0  0  0  0  0
  142.7860   75.3330  218.6950 C   0  0  2  0  0  0  0  0  0  0  0  0
  143.7970   74.3990  218.4160 O   0  0  0  0  0  0  0  0  0  0  0  0
  142.9260   75.9450  220.0920 C   0  0  0  0  0  0  0  0  0  0  0  0
  141.4920   76.1790  220.5830 C   0  0  1  0  0  0  0  0  0  0  0  0
  141.0420   77.6450  220.4340 C   0  0  0  0  0  0  0  0  0  0  0  0
  141.4680   78.5000  221.5990 C   0  0  0  0  0  0  0  0  0  0  0  0
  141.4090   78.0020  222.9120 C   0  0  0  0  0  0  0  0  0  0  0  0
  141.8140   78.7980  223.9860 C   0  0  0  0  0  0  0  0  0  0  0  0
  142.2850   80.0950  223.7600 C   0  0  0  0  0  0  0  0  0  0  0  0
  142.3490   80.5970  222.4580 C   0  0  0  0  0  0  0  0  0  0  0  0
  141.9440   79.8040  221.3800 C   0  0  0  0  0  0  0  0  0  0  0  0
  140.4220   71.7140  223.4420 C   0  0  0  0  0  0  0  0  0  0  0  0
  139.6740   70.5500  223.2050 C   0  0  0  0  0  0  0  0  0  0  0  0
  139.4090   69.6720  224.2580 C   0  0  0  0  0  0  0  0  0  0  0  0
  139.8790   69.9660  225.5440 C   0  0  0  0  0  0  0  0  0  0  0  0
  139.6570   69.0930  226.6190 C   0  0  0  0  0  0  0  0  0  0  0  0
  140.1500   69.4100  227.8900 C   0  0  0  0  0  0  0  0  0  0  0  0
  139.9410   68.5630  228.9270 F   0  0  0  0  0  0  0  0  0  0  0  0
  140.8600   70.5990  228.0930 C   0  0  0  0  0  0  0  0  0  0  0  0
  141.0790   71.4770  227.0270 C   0  0  0  0  0  0  0  0  0  0  0  0
  140.5910   71.1660  225.7530 C   0  0  0  0  0  0  0  0  0  0  0  0
  140.8340   72.0010  224.7070 N   0  0  0  0  0  0  0  0  0  0  0  0
  138.6491   73.0911  220.7287 H   0  0  0  0  0  0  0  0  0  0  0  0
  138.0748   74.4954  221.7275 H   0  0  0  0  0  0  0  0  0  0  0  0
  141.4481   73.6234  218.7773 H   0  0  0  0  0  0  0  0  0  0  0  0
  140.8971   74.8943  217.6793 H   0  0  0  0  0  0  0  0  0  0  0  0
  142.9031   76.1002  217.9155 H   0  0  0  0  0  0  0  0  0  0  0  0
  144.6400   74.8980  218.2540 H   0  0  0  0  0  0  0  0  0  0  0  0
  143.4541   75.2524  220.7639 H   0  0  0  0  0  0  0  0  0  0  0  0
  143.5077   76.8784  220.0720 H   0  0  0  0  0  0  0  0  0  0  0  0
  141.4151   75.9499  221.6561 H   0  0  0  0  0  0  0  0  0  0  0  0
  141.4821   78.0574  219.5141 H   0  0  0  0  0  0  0  0  0  0  0  0
  139.9427   77.6552  220.3960 H   0  0  0  0  0  0  0  0  0  0  0  0
  141.0423   76.9811  223.0946 H   0  0  0  0  0  0  0  0  0  0  0  0
  141.7623   78.4037  225.0116 H   0  0  0  0  0  0  0  0  0  0  0  0
  142.6050   80.7197  224.6070 H   0  0  0  0  0  0  0  0  0  0  0  0
  142.7186   81.6177  222.2805 H   0  0  0  0  0  0  0  0  0  0  0  0
  141.9982   80.2025  220.3562 H   0  0  0  0  0  0  0  0  0  0  0  0
  139.2984   70.3306  222.1947 H   0  0  0  0  0  0  0  0  0  0  0  0
  138.8329   68.7524  224.0779 H   0  0  0  0  0  0  0  0  0  0  0  0
  139.0958   68.1598  226.4633 H   0  0  0  0  0  0  0  0  0  0  0  0
  141.2466   70.8433  229.0934 H   0  0  0  0  0  0  0  0  0  0  0  0
  141.6349   72.4121  227.1899 H   0  0  0  0  0  0  0  0  0  0  0  0
  1  2  2  0
  2  3  1  0
  3  4  1  0
  4  5  1  0
  5  6  2  0
  5  7  1  0
  7  8  1  0
  8  9  1  0
  9 10  1  0
  9 11  1  0
 11 12  1  0
 12 13  1  0
 13 14  1  0
 14 15  2  0
 15 16  1  0
 16 17  2  0
 17 18  1  0
 18 19  2  0
  2 20  1  0
 20 21  2  0
 21 22  1  0
 22 23  2  0
 23 24  1  0
 24 25  2  0
 25 26  1  0
 25 27  1  0
 27 28  2  0
 28 29  1  0
 29 30  2  0
 12  7  1  0
 19 14  1  0
 30 20  1  0
 29 23  1  0
  4 31  1  0
  4 32  1  0
  8 33  1  0
  8 34  1  0
  9 35  1  6
 10 36  1  0
 11 37  1  0
 11 38  1  0
 12 39  1  1
 13 40  1  0
 13 41  1  0
 15 42  1  0
 16 43  1  0
 17 44  1  0
 18 45  1  0
 19 46  1  0
 21 47  1  0
 22 48  1  0
 24 49  1  0
 27 50  1  0
 28 51  1  0
M  CHG  1   3  -1
M  END
>  <UniqueID>  (37) 
22

>  <SMILES>  (37) 
O=C([N-]CC(=O)N1C[C@H](O)C[C@H]1Cc1ccccc1)c1ccc2cc(F)ccc2n1

>  <Energy>  (37) 
56.637258429796425

>  <Genealogy>  (37) 
O=C([N-]CC(=O)N1C[C@H](O)C[C@H]1Cc1ccccc1)c1ccc2cc(F)ccc2n1 (protonated)
O=C([N-]CC(=O)N1C[C@H](O)C[C@H]1Cc1ccccc1)c1ccc2cc(F)ccc2n1 (3D coordinates assigned)
O=C([N-]CC(=O)N1C[C@H](O)C[C@H]1Cc1ccccc1)c1ccc2cc(F)ccc2n1 (nonaromatic ring conformer: 56.637258429796425 kcal/mol)

>  <smiles>  (37) 
O=C(NCC(=O)N1C[C@H](O)C[C@H]1Cc1ccccc1)c1ccc2cc(F)ccc2n1

>  <score_type>  (37) 
oracle

>  <origin>  (37) 
autodockgpu

>  <m_score__min__energy>  (37) 
-8.5099999999999998

>  <m_primary>  (37) 
energy

>  <meeko>  (37) 
{"free_energy": -7.85, "intermolecular_energy": -10.23, "internal_energy": -1.41, "cluster_size": 12, "cluster_id": 1, "rank_in_cluster": 8}

>  <energy>  (37) 
-8.08

>  <cluster_rmsd>  (37) 
0.0

>  <rmsd>  (37) 
270.96

>  <cluster>  (37) 
3

$$$$
UYYINUAOVYUWQM-XVQRQBGSNA-M
     RDKit          3D

 51 54  0  0  0  0  0  0  0  0999 V2000
  140.6350   71.7620  220.9850 O   0  0  0  0  0  0  0  0  0  0  0  0
  140.5190   72.3280  222.1030 C   0  0  0  0  0  0  0  0  0  0  0  0
  140.5630   73.7620  222.1530 N   0  0  0  0  0  0  0  0  0  0  0  0
  139.5320   74.7050  221.7180 C   0  0  0  0  0  0  0  0  0  0  0  0
  140.1090   76.0440  221.3480 C   0  0  0  0  0  0  0  0  0  0  0  0
  139.6470   77.0750  221.9080 O   0  0  0  0  0  0  0  0  0  0  0  0
  141.1800   76.1760  220.3920 N   0  0  0  0  0  0  0  0  0  0  0  0
  141.4150   75.2400  219.3020 C   0  0  0  0  0  0  0  0  0  0  0  0
  142.6410   75.7760  218.5630 C   0  0  2  0  0  0  0  0  0  0  0  0
  143.5060   74.7500  218.1460 O   0  0  0  0  0  0  0  0  0  0  0  0
  143.3180   76.7550  219.5250 C   0  0  0  0  0  0  0  0  0  0  0  0
  142.2210   77.1940  220.5030 C   0  0  1  0  0  0  0  0  0  0  0  0
  141.6330   78.5760  220.1600 C   0  0  0  0  0  0  0  0  0  0  0  0
  141.7150   79.5400  221.3140 C   0  0  0  0  0  0  0  0  0  0  0  0
  140.9890   80.7430  221.2940 C   0  0  0  0  0  0  0  0  0  0  0  0
  141.0630   81.6290  222.3740 C   0  0  0  0  0  0  0  0  0  0  0  0
  141.8580   81.3200  223.4800 C   0  0  0  0  0  0  0  0  0  0  0  0
  142.5820   80.1250  223.5090 C   0  0  0  0  0  0  0  0  0  0  0  0
  142.5110   79.2370  222.4310 C   0  0  0  0  0  0  0  0  0  0  0  0
  140.2660   71.4930  223.2900 C   0  0  0  0  0  0  0  0  0  0  0  0
  139.5590   70.2840  223.2010 C   0  0  0  0  0  0  0  0  0  0  0  0
  139.3730   69.5070  224.3470 C   0  0  0  0  0  0  0  0  0  0  0  0
  139.8800   69.9470  225.5760 C   0  0  0  0  0  0  0  0  0  0  0  0
  139.7370   69.1790  226.7410 C   0  0  0  0  0  0  0  0  0  0  0  0
  140.2660   69.6410  227.9510 C   0  0  0  0  0  0  0  0  0  0  0  0
  140.1330   68.8960  229.0760 F   0  0  0  0  0  0  0  0  0  0  0  0
  140.9320   70.8700  228.0050 C   0  0  0  0  0  0  0  0  0  0  0  0
  141.0730   71.6450  226.8490 C   0  0  0  0  0  0  0  0  0  0  0  0
  140.5490   71.1880  225.6340 C   0  0  0  0  0  0  0  0  0  0  0  0
  140.7150   71.9220  224.5010 N   0  0  0  0  0  0  0  0  0  0  0  0
  139.0160   74.2867  220.8412 H   0  0  0  0  0  0  0  0  0  0  0  0
  138.8361   74.8562  222.5564 H   0  0  0  0  0  0  0  0  0  0  0  0
  141.6134   74.2324  219.6962 H   0  0  0  0  0  0  0  0  0  0  0  0
  140.5415   75.1574  218.6386 H   0  0  0  0  0  0  0  0  0  0  0  0
  142.3484   76.2806  217.6304 H   0  0  0  0  0  0  0  0  0  0  0  0
  144.4350   75.1010  218.1750 H   0  0  0  0  0  0  0  0  0  0  0  0
  144.1379   76.2585  220.0647 H   0  0  0  0  0  0  0  0  0  0  0  0
  143.7569   77.6119  218.9930 H   0  0  0  0  0  0  0  0  0  0  0  0
  142.6326   77.2876  221.5188 H   0  0  0  0  0  0  0  0  0  0  0  0
  142.1906   78.9954  219.3096 H   0  0  0  0  0  0  0  0  0  0  0  0
  140.5695   78.4357  219.9165 H   0  0  0  0  0  0  0  0  0  0  0  0
  140.3600   80.9889  220.4257 H   0  0  0  0  0  0  0  0  0  0  0  0
  140.4943   82.5703  222.3521 H   0  0  0  0  0  0  0  0  0  0  0  0
  141.9143   82.0176  224.3286 H   0  0  0  0  0  0  0  0  0  0  0  0
  143.2081   79.8827  224.3804 H   0  0  0  0  0  0  0  0  0  0  0  0
  143.0812   78.2967  222.4579 H   0  0  0  0  0  0  0  0  0  0  0  0
  139.1536   69.9501  222.2345 H   0  0  0  0  0  0  0  0  0  0  0  0
  138.8299   68.5525  224.2842 H   0  0  0  0  0  0  0  0  0  0  0  0
  139.2095   68.2145  226.7033 H   0  0  0  0  0  0  0  0  0  0  0  0
  141.3460   71.2280  228.9592 H   0  0  0  0  0  0  0  0  0  0  0  0
  141.5949   72.6122  226.8946 H   0  0  0  0  0  0  0  0  0  0  0  0
  1  2  2  0
  2  3  1  0
  3  4  1  0
  4  5  1  0
  5  6  2  0
  5  7  1  0
  7  8  1  0
  8  9  1  0
  9 10  1  0
  9 11  1  0
 11 12  1  0
 12 13  1  0
 13 14  1  0
 14 15  2  0
 15 16  1  0
 16 17  2  0
 17 18  1  0
 18 19  2  0
  2 20  1  0
 20 21  2  0
 21 22  1  0
 22 23  2  0
 23 24  1  0
 24 25  2  0
 25 26  1  0
 25 27  1  0
 27 28  2  0
 28 29  1  0
 29 30  2  0
 12  7  1  0
 19 14  1  0
 30 20  1  0
 29 23  1  0
  4 31  1  0
  4 32  1  0
  8 33  1  0
  8 34  1  0
  9 35  1  6
 10 36  1  0
 11 37  1  0
 11 38  1  0
 12 39  1  1
 13 40  1  0
 13 41  1  0
 15 42  1  0
 16 43  1  0
 17 44  1  0
 18 45  1  0
 19 46  1  0
 21 47  1  0
 22 48  1  0
 24 49  1  0
 27 50  1  0
 28 51  1  0
M  CHG  1   3  -1
M  END
>  <UniqueID>  (38) 
22

>  <SMILES>  (38) 
O=C([N-]CC(=O)N1C[C@H](O)C[C@H]1Cc1ccccc1)c1ccc2cc(F)ccc2n1

>  <Energy>  (38) 
56.637258429796425

>  <Genealogy>  (38) 
O=C([N-]CC(=O)N1C[C@H](O)C[C@H]1Cc1ccccc1)c1ccc2cc(F)ccc2n1 (protonated)
O=C([N-]CC(=O)N1C[C@H](O)C[C@H]1Cc1ccccc1)c1ccc2cc(F)ccc2n1 (3D coordinates assigned)
O=C([N-]CC(=O)N1C[C@H](O)C[C@H]1Cc1ccccc1)c1ccc2cc(F)ccc2n1 (nonaromatic ring conformer: 56.637258429796425 kcal/mol)

>  <smiles>  (38) 
O=C(NCC(=O)N1C[C@H](O)C[C@H]1Cc1ccccc1)c1ccc2cc(F)ccc2n1

>  <score_type>  (38) 
oracle

>  <origin>  (38) 
autodockgpu

>  <m_score__min__energy>  (38) 
-8.5099999999999998

>  <m_primary>  (38) 
energy

>  <meeko>  (38) 
{"free_energy": -8.25, "intermolecular_energy": -10.64, "internal_energy": -1.23, "cluster_size": 12, "cluster_id": 1, "rank_in_cluster": 4}

>  <energy>  (38) 
-8.02

>  <cluster_rmsd>  (38) 
0.0

>  <rmsd>  (38) 
272.02

>  <cluster>  (38) 
4

$$$$
UYYINUAOVYUWQM-XVQRQBGSNA-M
     RDKit          3D

 51 54  0  0  0  0  0  0  0  0999 V2000
  139.8220   73.6720  222.7160 O   0  0  0  0  0  0  0  0  0  0  0  0
  140.4060   72.5610  222.6190 C   0  0  0  0  0  0  0  0  0  0  0  0
  141.2900   72.3470  221.5080 N   0  0  0  0  0  0  0  0  0  0  0  0
  141.4390   73.1740  220.3100 C   0  0  0  0  0  0  0  0  0  0  0  0
  141.6280   74.6280  220.6450 C   0  0  0  0  0  0  0  0  0  0  0  0
  142.7980   75.0520  220.8470 O   0  0  0  0  0  0  0  0  0  0  0  0
  140.5180   75.5440  220.7230 N   0  0  0  0  0  0  0  0  0  0  0  0
  139.1520   75.1980  220.3550 C   0  0  0  0  0  0  0  0  0  0  0  0
  138.3320   76.4650  220.5960 C   0  0  2  0  0  0  0  0  0  0  0  0
  137.3630   76.6740  219.6000 O   0  0  0  0  0  0  0  0  0  0  0  0
  139.3440   77.6120  220.6760 C   0  0  0  0  0  0  0  0  0  0  0  0
  140.6780   76.9570  221.0550 C   0  0  1  0  0  0  0  0  0  0  0  0
  141.0100   77.1030  222.5530 C   0  0  0  0  0  0  0  0  0  0  0  0
  141.2880   78.5310  222.9440 C   0  0  0  0  0  0  0  0  0  0  0  0
  142.5660   79.0870  222.7660 C   0  0  0  0  0  0  0  0  0  0  0  0
  142.8130   80.4150  223.1240 C   0  0  0  0  0  0  0  0  0  0  0  0
  141.7880   81.1990  223.6590 C   0  0  0  0  0  0  0  0  0  0  0  0
  140.5130   80.6550  223.8370 C   0  0  0  0  0  0  0  0  0  0  0  0
  140.2620   79.3260  223.4820 C   0  0  0  0  0  0  0  0  0  0  0  0
  140.2140   71.5710  223.6920 C   0  0  0  0  0  0  0  0  0  0  0  0
  139.5740   70.3450  223.4550 C   0  0  0  0  0  0  0  0  0  0  0  0
  139.4460   69.4210  224.4950 C   0  0  0  0  0  0  0  0  0  0  0  0
  139.9430   69.7290  225.7660 C   0  0  0  0  0  0  0  0  0  0  0  0
  139.8570   68.8140  226.8260 C   0  0  0  0  0  0  0  0  0  0  0  0
  140.3750   69.1500  228.0820 C   0  0  0  0  0  0  0  0  0  0  0  0
  140.2980   68.2620  229.1040 F   0  0  0  0  0  0  0  0  0  0  0  0
  140.9730   70.3980  228.2870 C   0  0  0  0  0  0  0  0  0  0  0  0
  141.0560   71.3180  227.2370 C   0  0  0  0  0  0  0  0  0  0  0  0
  140.5430   70.9900  225.9770 C   0  0  0  0  0  0  0  0  0  0  0  0
  140.6540   71.8680  224.9460 N   0  0  0  0  0  0  0  0  0  0  0  0
  142.3149   72.8238  219.7442 H   0  0  0  0  0  0  0  0  0  0  0  0
  140.5170   73.0804  219.7175 H   0  0  0  0  0  0  0  0  0  0  0  0
  139.1018   74.9029  219.2965 H   0  0  0  0  0  0  0  0  0  0  0  0
  138.7734   74.3485  220.9423 H   0  0  0  0  0  0  0  0  0  0  0  0
  137.7515   76.3866  221.5271 H   0  0  0  0  0  0  0  0  0  0  0  0
  137.6440   76.1720  218.7900 H   0  0  0  0  0  0  0  0  0  0  0  0
  139.4276   78.1193  219.7035 H   0  0  0  0  0  0  0  0  0  0  0  0
  139.0404   78.3731  221.4099 H   0  0  0  0  0  0  0  0  0  0  0  0
  141.5061   77.4403  220.5158 H   0  0  0  0  0  0  0  0  0  0  0  0
  140.1562   76.7356  223.1413 H   0  0  0  0  0  0  0  0  0  0  0  0
  141.9196   76.5177  222.7531 H   0  0  0  0  0  0  0  0  0  0  0  0
  143.3757   78.4742  222.3430 H   0  0  0  0  0  0  0  0  0  0  0  0
  143.8163   80.8438  222.9843 H   0  0  0  0  0  0  0  0  0  0  0  0
  141.9843   82.2442  223.9401 H   0  0  0  0  0  0  0  0  0  0  0  0
  139.7058   81.2732  224.2570 H   0  0  0  0  0  0  0  0  0  0  0  0
  139.2574   78.9013  223.6245 H   0  0  0  0  0  0  0  0  0  0  0  0
  139.1755   70.1128  222.4564 H   0  0  0  0  0  0  0  0  0  0  0  0
  138.9554   68.4531  224.3149 H   0  0  0  0  0  0  0  0  0  0  0  0
  139.3830   67.8337  226.6701 H   0  0  0  0  0  0  0  0  0  0  0  0
  141.3788   70.6562  229.2763 H   0  0  0  0  0  0  0  0  0  0  0  0
  141.5246   72.2995  227.4015 H   0  0  0  0  0  0  0  0  0  0  0  0
  1  2  2  0
  2  3  1  0
  3  4  1  0
  4  5  1  0
  5  6  2  0
  5  7  1  0
  7  8  1  0
  8  9  1  0
  9 10  1  0
  9 11  1  0
 11 12  1  0
 12 13  1  0
 13 14  1  0
 14 15  2  0
 15 16  1  0
 16 17  2  0
 17 18  1  0
 18 19  2  0
  2 20  1  0
 20 21  2  0
 21 22  1  0
 22 23  2  0
 23 24  1  0
 24 25  2  0
 25 26  1  0
 25 27  1  0
 27 28  2  0
 28 29  1  0
 29 30  2  0
 12  7  1  0
 19 14  1  0
 30 20  1  0
 29 23  1  0
  4 31  1  0
  4 32  1  0
  8 33  1  0
  8 34  1  0
  9 35  1  1
 10 36  1  0
 11 37  1  0
 11 38  1  0
 12 39  1  6
 13 40  1  0
 13 41  1  0
 15 42  1  0
 16 43  1  0
 17 44  1  0
 18 45  1  0
 19 46  1  0
 21 47  1  0
 22 48  1  0
 24 49  1  0
 27 50  1  0
 28 51  1  0
M  CHG  1   3  -1
M  END
>  <UniqueID>  (39) 
22

>  <SMILES>  (39) 
O=C([N-]CC(=O)N1C[C@H](O)C[C@H]1Cc1ccccc1)c1ccc2cc(F)ccc2n1

>  <Energy>  (39) 
56.637258429796425

>  <Genealogy>  (39) 
O=C([N-]CC(=O)N1C[C@H](O)C[C@H]1Cc1ccccc1)c1ccc2cc(F)ccc2n1 (protonated)
O=C([N-]CC(=O)N1C[C@H](O)C[C@H]1Cc1ccccc1)c1ccc2cc(F)ccc2n1 (3D coordinates assigned)
O=C([N-]CC(=O)N1C[C@H](O)C[C@H]1Cc1ccccc1)c1ccc2cc(F)ccc2n1 (nonaromatic ring conformer: 56.637258429796425 kcal/mol)

>  <smiles>  (39) 
O=C(NCC(=O)N1C[C@H](O)C[C@H]1Cc1ccccc1)c1ccc2cc(F)ccc2n1

>  <score_type>  (39) 
oracle

>  <origin>  (39) 
autodockgpu

>  <m_score__min__energy>  (39) 
-8.5099999999999998

>  <m_primary>  (39) 
energy

>  <meeko>  (39) 
{"free_energy": -7.8, "intermolecular_energy": -10.19, "internal_energy": -1.31, "cluster_size": 12, "cluster_id": 1, "rank_in_cluster": 9}

>  <energy>  (39) 
-7.93

>  <cluster_rmsd>  (39) 
0.24

>  <rmsd>  (39) 
272.05

>  <cluster>  (39) 
4

$$$$
UYYINUAOVYUWQM-XVQRQBGSNA-M
     RDKit          3D

 51 54  0  0  0  0  0  0  0  0999 V2000
  138.3190   74.3920  221.4220 O   0  0  0  0  0  0  0  0  0  0  0  0
  139.3620   74.8380  221.9670 C   0  0  0  0  0  0  0  0  0  0  0  0
  140.4080   73.9130  222.3030 N   0  0  0  0  0  0  0  0  0  0  0  0
  140.7850   72.6920  221.5920 C   0  0  0  0  0  0  0  0  0  0  0  0
  141.4770   72.9850  220.2890 C   0  0  0  0  0  0  0  0  0  0  0  0
  140.8080   72.9110  219.2220 O   0  0  0  0  0  0  0  0  0  0  0  0
  142.8670   73.3630  220.2300 N   0  0  0  0  0  0  0  0  0  0  0  0
  143.9700   72.4260  220.3840 C   0  0  0  0  0  0  0  0  0  0  0  0
  145.2400   73.2660  220.2520 C   0  0  2  0  0  0  0  0  0  0  0  0
  146.2420   72.8680  221.1540 O   0  0  0  0  0  0  0  0  0  0  0  0
  144.8070   74.7190  220.4670 C   0  0  0  0  0  0  0  0  0  0  0  0
  143.3080   74.7520  220.1430 C   0  0  1  0  0  0  0  0  0  0  0  0
  143.0130   75.3030  218.7340 C   0  0  0  0  0  0  0  0  0  0  0  0
  142.2490   76.6000  218.7700 C   0  0  0  0  0  0  0  0  0  0  0  0
  140.8650   76.6080  219.0180 C   0  0  0  0  0  0  0  0  0  0  0  0
  140.1650   77.8170  219.0590 C   0  0  0  0  0  0  0  0  0  0  0  0
  140.8370   79.0250  218.8550 C   0  0  0  0  0  0  0  0  0  0  0  0
  142.2130   79.0250  218.6100 C   0  0  0  0  0  0  0  0  0  0  0  0
  142.9180   77.8180  218.5680 C   0  0  0  0  0  0  0  0  0  0  0  0
  139.4870   76.2920  222.1600 C   0  0  0  0  0  0  0  0  0  0  0  0
  138.3610   77.1130  222.3250 C   0  0  0  0  0  0  0  0  0  0  0  0
  138.5290   78.4820  222.5400 C   0  0  0  0  0  0  0  0  0  0  0  0
  139.8170   79.0290  222.5750 C   0  0  0  0  0  0  0  0  0  0  0  0
  140.0250   80.3950  222.8170 C   0  0  0  0  0  0  0  0  0  0  0  0
  141.3260   80.9070  222.8570 C   0  0  0  0  0  0  0  0  0  0  0  0
  141.5270   82.2260  223.0980 F   0  0  0  0  0  0  0  0  0  0  0  0
  142.4220   80.0620  222.6510 C   0  0  0  0  0  0  0  0  0  0  0  0
  142.2230   78.7000  222.4020 C   0  0  0  0  0  0  0  0  0  0  0  0
  140.9250   78.1790  222.3620 C   0  0  0  0  0  0  0  0  0  0  0  0
  140.7300   76.8500  222.1570 N   0  0  0  0  0  0  0  0  0  0  0  0
  141.4632   72.1057  222.2295 H   0  0  0  0  0  0  0  0  0  0  0  0
  139.8643   72.1334  221.3677 H   0  0  0  0  0  0  0  0  0  0  0  0
  143.9293   71.9431  221.3715 H   0  0  0  0  0  0  0  0  0  0  0  0
  143.9316   71.6231  219.6331 H   0  0  0  0  0  0  0  0  0  0  0  0
  145.6977   73.1334  219.2606 H   0  0  0  0  0  0  0  0  0  0  0  0
  145.9450   72.0260  221.5890 H   0  0  0  0  0  0  0  0  0  0  0  0
  144.9817   75.0219  221.5099 H   0  0  0  0  0  0  0  0  0  0  0  0
  145.3772   75.4130  219.8320 H   0  0  0  0  0  0  0  0  0  0  0  0
  142.7828   75.4202  220.8414 H   0  0  0  0  0  0  0  0  0  0  0  0
  143.9676   75.4703  218.2137 H   0  0  0  0  0  0  0  0  0  0  0  0
  142.3906   74.5631  218.2095 H   0  0  0  0  0  0  0  0  0  0  0  0
  140.3316   75.6598  219.1803 H   0  0  0  0  0  0  0  0  0  0  0  0
  139.0821   77.8176  219.2524 H   0  0  0  0  0  0  0  0  0  0  0  0
  140.2836   79.9751  218.8872 H   0  0  0  0  0  0  0  0  0  0  0  0
  142.7423   79.9759  218.4500 H   0  0  0  0  0  0  0  0  0  0  0  0
  144.0011   77.8227  218.3759 H   0  0  0  0  0  0  0  0  0  0  0  0
  137.3507   76.6798  222.2851 H   0  0  0  0  0  0  0  0  0  0  0  0
  137.6511   79.1295  222.6816 H   0  0  0  0  0  0  0  0  0  0  0  0
  139.1655   81.0630  222.9752 H   0  0  0  0  0  0  0  0  0  0  0  0
  143.4430   80.4699  222.6850 H   0  0  0  0  0  0  0  0  0  0  0  0
  143.0866   78.0388  222.2377 H   0  0  0  0  0  0  0  0  0  0  0  0
  1  2  2  0
  2  3  1  0
  3  4  1  0
  4  5  1  0
  5  6  2  0
  5  7  1  0
  7  8  1  0
  8  9  1  0
  9 10  1  0
  9 11  1  0
 11 12  1  0
 12 13  1  0
 13 14  1  0
 14 15  2  0
 15 16  1  0
 16 17  2  0
 17 18  1  0
 18 19  2  0
  2 20  1  0
 20 21  2  0
 21 22  1  0
 22 23  2  0
 23 24  1  0
 24 25  2  0
 25 26  1  0
 25 27  1  0
 27 28  2  0
 28 29  1  0
 29 30  2  0
 12  7  1  0
 19 14  1  0
 30 20  1  0
 29 23  1  0
  4 31  1  0
  4 32  1  0
  8 33  1  0
  8 34  1  0
  9 35  1  6
 10 36  1  0
 11 37  1  0
 11 38  1  0
 12 39  1  1
 13 40  1  0
 13 41  1  0
 15 42  1  0
 16 43  1  0
 17 44  1  0
 18 45  1  0
 19 46  1  0
 21 47  1  0
 22 48  1  0
 24 49  1  0
 27 50  1  0
 28 51  1  0
M  CHG  1   3  -1
M  END
>  <UniqueID>  (40) 
22

>  <SMILES>  (40) 
O=C([N-]CC(=O)N1C[C@H](O)C[C@H]1Cc1ccccc1)c1ccc2cc(F)ccc2n1

>  <Energy>  (40) 
56.637258429796425

>  <Genealogy>  (40) 
O=C([N-]CC(=O)N1C[C@H](O)C[C@H]1Cc1ccccc1)c1ccc2cc(F)ccc2n1 (protonated)
O=C([N-]CC(=O)N1C[C@H](O)C[C@H]1Cc1ccccc1)c1ccc2cc(F)ccc2n1 (3D coordinates assigned)
O=C([N-]CC(=O)N1C[C@H](O)C[C@H]1Cc1ccccc1)c1ccc2cc(F)ccc2n1 (nonaromatic ring conformer: 56.637258429796425 kcal/mol)

>  <smiles>  (40) 
O=C(NCC(=O)N1C[C@H](O)C[C@H]1Cc1ccccc1)c1ccc2cc(F)ccc2n1

>  <score_type>  (40) 
oracle

>  <origin>  (40) 
autodockgpu

>  <m_score__min__energy>  (40) 
-8.5099999999999998

>  <m_primary>  (40) 
energy

>  <meeko>  (40) 
{"free_energy": -6.3, "intermolecular_energy": -8.69, "internal_energy": -2.84, "cluster_size": 1, "cluster_id": 5, "rank_in_cluster": 1}

>  <energy>  (40) 
-6.3

>  <cluster_rmsd>  (40) 
0.0

>  <rmsd>  (40) 
271.17

>  <cluster>  (40) 
5

$$$$
UYYINUAOVYUWQM-XVQRQBGSNA-M
     RDKit          3D

 51 54  0  0  0  0  0  0  0  0999 V2000
  138.1630   71.8940  222.4360 O   0  0  0  0  0  0  0  0  0  0  0  0
  139.3790   71.5930  222.5590 C   0  0  0  0  0  0  0  0  0  0  0  0
  140.2530   71.8020  221.4380 N   0  0  0  0  0  0  0  0  0  0  0  0
  141.4520   72.6380  221.3820 C   0  0  0  0  0  0  0  0  0  0  0  0
  141.1190   74.0960  221.2160 C   0  0  0  0  0  0  0  0  0  0  0  0
  140.2890   74.6180  222.0090 O   0  0  0  0  0  0  0  0  0  0  0  0
  141.7310   74.9070  220.1940 N   0  0  0  0  0  0  0  0  0  0  0  0
  142.0230   74.4340  218.8480 C   0  0  0  0  0  0  0  0  0  0  0  0
  142.6620   75.6220  218.1290 C   0  0  2  0  0  0  0  0  0  0  0  0
  143.7240   75.2340  217.2940 O   0  0  0  0  0  0  0  0  0  0  0  0
  143.1090   76.5890  219.2290 C   0  0  0  0  0  0  0  0  0  0  0  0
  142.2430   76.2500  220.4490 C   0  0  1  0  0  0  0  0  0  0  0  0
  141.0660   77.2280  220.6360 C   0  0  0  0  0  0  0  0  0  0  0  0
  141.3780   78.3240  221.6210 C   0  0  0  0  0  0  0  0  0  0  0  0
  141.7820   79.5930  221.1740 C   0  0  0  0  0  0  0  0  0  0  0  0
  142.0610   80.6080  222.0940 C   0  0  0  0  0  0  0  0  0  0  0  0
  141.9360   80.3650  223.4650 C   0  0  0  0  0  0  0  0  0  0  0  0
  141.5320   79.1060  223.9170 C   0  0  0  0  0  0  0  0  0  0  0  0
  141.2530   78.0870  223.0000 C   0  0  0  0  0  0  0  0  0  0  0  0
  139.8560   71.1160  223.8680 C   0  0  0  0  0  0  0  0  0  0  0  0
  140.6970   71.8990  224.6740 C   0  0  0  0  0  0  0  0  0  0  0  0
  141.0960   71.4210  225.9240 C   0  0  0  0  0  0  0  0  0  0  0  0
  140.6670   70.1610  226.3570 C   0  0  0  0  0  0  0  0  0  0  0  0
  141.0250   69.6620  227.6190 C   0  0  0  0  0  0  0  0  0  0  0  0
  140.5690   68.4040  228.0260 C   0  0  0  0  0  0  0  0  0  0  0  0
  140.9090   67.9240  229.2480 F   0  0  0  0  0  0  0  0  0  0  0  0
  139.7620   67.6380  227.1780 C   0  0  0  0  0  0  0  0  0  0  0  0
  139.4070   68.1260  225.9160 C   0  0  0  0  0  0  0  0  0  0  0  0
  139.8560   69.3850  225.5020 C   0  0  0  0  0  0  0  0  0  0  0  0
  139.4830   69.8770  224.2910 N   0  0  0  0  0  0  0  0  0  0  0  0
  142.0189   72.5078  222.3156 H   0  0  0  0  0  0  0  0  0  0  0  0
  142.0429   72.3242  220.5088 H   0  0  0  0  0  0  0  0  0  0  0  0
  142.7206   73.5842  218.8818 H   0  0  0  0  0  0  0  0  0  0  0  0
  141.1168   74.0835  218.3324 H   0  0  0  0  0  0  0  0  0  0  0  0
  141.9431   76.1037  217.4499 H   0  0  0  0  0  0  0  0  0  0  0  0
  144.5740   75.4960  217.7370 H   0  0  0  0  0  0  0  0  0  0  0  0
  144.1742   76.4418  219.4608 H   0  0  0  0  0  0  0  0  0  0  0  0
  142.9898   77.6388  218.9228 H   0  0  0  0  0  0  0  0  0  0  0  0
  142.8398   76.3202  221.3704 H   0  0  0  0  0  0  0  0  0  0  0  0
  140.8287   77.6845  219.6637 H   0  0  0  0  0  0  0  0  0  0  0  0
  140.2147   76.6549  221.0321 H   0  0  0  0  0  0  0  0  0  0  0  0
  141.8792   79.7888  220.0959 H   0  0  0  0  0  0  0  0  0  0  0  0
  142.3793   81.5992  221.7386 H   0  0  0  0  0  0  0  0  0  0  0  0
  142.1556   81.1646  224.1877 H   0  0  0  0  0  0  0  0  0  0  0  0
  141.4331   78.9158  224.9959 H   0  0  0  0  0  0  0  0  0  0  0  0
  140.9349   77.0974  223.3598 H   0  0  0  0  0  0  0  0  0  0  0  0
  141.0399   72.8835  224.3231 H   0  0  0  0  0  0  0  0  0  0  0  0
  141.7458   72.0332  226.5667 H   0  0  0  0  0  0  0  0  0  0  0  0
  141.6631   70.2593  228.2869 H   0  0  0  0  0  0  0  0  0  0  0  0
  139.4058   66.6497  227.5043 H   0  0  0  0  0  0  0  0  0  0  0  0
  138.7753   67.5204  225.2495 H   0  0  0  0  0  0  0  0  0  0  0  0
  1  2  2  0
  2  3  1  0
  3  4  1  0
  4  5  1  0
  5  6  2  0
  5  7  1  0
  7  8  1  0
  8  9  1  0
  9 10  1  0
  9 11  1  0
 11 12  1  0
 12 13  1  0
 13 14  1  0
 14 15  2  0
 15 16  1  0
 16 17  2  0
 17 18  1  0
 18 19  2  0
  2 20  1  0
 20 21  2  0
 21 22  1  0
 22 23  2  0
 23 24  1  0
 24 25  2  0
 25 26  1  0
 25 27  1  0
 27 28  2  0
 28 29  1  0
 29 30  2  0
 12  7  1  0
 19 14  1  0
 30 20  1  0
 29 23  1  0
  4 31  1  0
  4 32  1  0
  8 33  1  0
  8 34  1  0
  9 35  1  6
 10 36  1  0
 11 37  1  0
 11 38  1  0
 12 39  1  1
 13 40  1  0
 13 41  1  0
 15 42  1  0
 16 43  1  0
 17 44  1  0
 18 45  1  0
 19 46  1  0
 21 47  1  0
 22 48  1  0
 24 49  1  0
 27 50  1  0
 28 51  1  0
M  CHG  1   3  -1
M  END
>  <UniqueID>  (41) 
23

>  <SMILES>  (41) 
O=C([N-]CC(=O)N1C[C@H](O)C[C@H]1Cc1ccccc1)c1ccc2cc(F)ccc2n1

>  <Energy>  (41) 
57.17510688318018

>  <Genealogy>  (41) 
O=C([N-]CC(=O)N1C[C@H](O)C[C@H]1Cc1ccccc1)c1ccc2cc(F)ccc2n1 (protonated)
O=C([N-]CC(=O)N1C[C@H](O)C[C@H]1Cc1ccccc1)c1ccc2cc(F)ccc2n1 (3D coordinates assigned)
O=C([N-]CC(=O)N1C[C@H](O)C[C@H]1Cc1ccccc1)c1ccc2cc(F)ccc2n1 (nonaromatic ring conformer: 57.17510688318018 kcal/mol)

>  <smiles>  (41) 
O=C(NCC(=O)N1C[C@H](O)C[C@H]1Cc1ccccc1)c1ccc2cc(F)ccc2n1

>  <score_type>  (41) 
oracle

>  <origin>  (41) 
autodockgpu

>  <m_score__min__energy>  (41) 
-8.5099999999999998

>  <m_primary>  (41) 
energy

>  <meeko>  (41) 
{"free_energy": -8.37, "intermolecular_energy": -10.76, "internal_energy": -1.2, "cluster_size": 12, "cluster_id": 1, "rank_in_cluster": 3}

>  <energy>  (41) 
-8.51

>  <cluster_rmsd>  (41) 
0.0

>  <rmsd>  (41) 
271.81

>  <cluster>  (41) 
1

$$$$
UYYINUAOVYUWQM-XVQRQBGSNA-M
     RDKit          3D

 51 54  0  0  0  0  0  0  0  0999 V2000
  138.5090   72.5420  222.1010 O   0  0  0  0  0  0  0  0  0  0  0  0
  139.6100   72.3740  222.6880 C   0  0  0  0  0  0  0  0  0  0  0  0
  140.7120   73.2240  222.3320 N   0  0  0  0  0  0  0  0  0  0  0  0
  141.1980   73.5460  220.9910 C   0  0  0  0  0  0  0  0  0  0  0  0
  141.6190   74.9860  220.8720 C   0  0  0  0  0  0  0  0  0  0  0  0
  142.7770   75.2410  220.4430 O   0  0  0  0  0  0  0  0  0  0  0  0
  140.7350   76.0710  221.2160 N   0  0  0  0  0  0  0  0  0  0  0  0
  139.8270   76.0480  222.3530 C   0  0  0  0  0  0  0  0  0  0  0  0
  139.1000   77.3920  222.3210 C   0  0  2  0  0  0  0  0  0  0  0  0
  137.7390   77.2740  222.6540 O   0  0  0  0  0  0  0  0  0  0  0  0
  139.3080   77.9490  220.9100 C   0  0  0  0  0  0  0  0  0  0  0  0
  140.5660   77.2520  220.3760 C   0  0  1  0  0  0  0  0  0  0  0  0
  141.8240   78.1390  220.4690 C   0  0  0  0  0  0  0  0  0  0  0  0
  141.7650   79.1030  221.6240 C   0  0  0  0  0  0  0  0  0  0  0  0
  141.9000   78.6450  222.9460 C   0  0  0  0  0  0  0  0  0  0  0  0
  141.8540   79.5470  224.0130 C   0  0  0  0  0  0  0  0  0  0  0  0
  141.6760   80.9120  223.7690 C   0  0  0  0  0  0  0  0  0  0  0  0
  141.5430   81.3760  222.4580 C   0  0  0  0  0  0  0  0  0  0  0  0
  141.5880   80.4770  221.3880 C   0  0  0  0  0  0  0  0  0  0  0  0
  139.6880   71.3690  223.7610 C   0  0  0  0  0  0  0  0  0  0  0  0
  139.2390   70.0530  223.5710 C   0  0  0  0  0  0  0  0  0  0  0  0
  139.3650   69.1240  224.6050 C   0  0  0  0  0  0  0  0  0  0  0  0
  139.9240   69.5140  225.8280 C   0  0  0  0  0  0  0  0  0  0  0  0
  140.0930   68.6010  226.8790 C   0  0  0  0  0  0  0  0  0  0  0  0
  140.6660   69.0210  228.0840 C   0  0  0  0  0  0  0  0  0  0  0  0
  140.8350   68.1360  229.0970 F   0  0  0  0  0  0  0  0  0  0  0  0
  141.0680   70.3510  228.2470 C   0  0  0  0  0  0  0  0  0  0  0  0
  140.8970   71.2690  227.2060 C   0  0  0  0  0  0  0  0  0  0  0  0
  140.3260   70.8570  225.9960 C   0  0  0  0  0  0  0  0  0  0  0  0
  140.1920   71.7380  224.9700 N   0  0  0  0  0  0  0  0  0  0  0  0
  142.0616   72.9040  220.7631 H   0  0  0  0  0  0  0  0  0  0  0  0
  140.3747   73.3741  220.2820 H   0  0  0  0  0  0  0  0  0  0  0  0
  139.1093   75.2201  222.2554 H   0  0  0  0  0  0  0  0  0  0  0  0
  140.3635   75.8963  223.3012 H   0  0  0  0  0  0  0  0  0  0  0  0
  139.5072   78.0769  223.0793 H   0  0  0  0  0  0  0  0  0  0  0  0
  137.5610   76.3240  222.8830 H   0  0  0  0  0  0  0  0  0  0  0  0
  138.4410   77.7179  220.2737 H   0  0  0  0  0  0  0  0  0  0  0  0
  139.4187   79.0434  220.9153 H   0  0  0  0  0  0  0  0  0  0  0  0
  140.4450   77.0133  219.3090 H   0  0  0  0  0  0  0  0  0  0  0  0
  142.7041   77.4911  220.5947 H   0  0  0  0  0  0  0  0  0  0  0  0
  141.8860   78.7297  219.5431 H   0  0  0  0  0  0  0  0  0  0  0  0
  142.0425   77.5720  223.1419 H   0  0  0  0  0  0  0  0  0  0  0  0
  141.9580   79.1824  225.0456 H   0  0  0  0  0  0  0  0  0  0  0  0
  141.6406   81.6208  224.6094 H   0  0  0  0  0  0  0  0  0  0  0  0
  141.4027   82.4502  222.2672 H   0  0  0  0  0  0  0  0  0  0  0  0
  141.4844   80.8468  220.3572 H   0  0  0  0  0  0  0  0  0  0  0  0
  138.7900   69.7552  222.6120 H   0  0  0  0  0  0  0  0  0  0  0  0
  139.0259   68.0878  224.4594 H   0  0  0  0  0  0  0  0  0  0  0  0
  139.7751   67.5551  226.7559 H   0  0  0  0  0  0  0  0  0  0  0  0
  141.5196   70.6754  229.1961 H   0  0  0  0  0  0  0  0  0  0  0  0
  141.2112   72.3149  227.3379 H   0  0  0  0  0  0  0  0  0  0  0  0
  1  2  2  0
  2  3  1  0
  3  4  1  0
  4  5  1  0
  5  6  2  0
  5  7  1  0
  7  8  1  0
  8  9  1  0
  9 10  1  0
  9 11  1  0
 11 12  1  0
 12 13  1  0
 13 14  1  0
 14 15  2  0
 15 16  1  0
 16 17  2  0
 17 18  1  0
 18 19  2  0
  2 20  1  0
 20 21  2  0
 21 22  1  0
 22 23  2  0
 23 24  1  0
 24 25  2  0
 25 26  1  0
 25 27  1  0
 27 28  2  0
 28 29  1  0
 29 30  2  0
 12  7  1  0
 19 14  1  0
 30 20  1  0
 29 23  1  0
  4 31  1  0
  4 32  1  0
  8 33  1  0
  8 34  1  0
  9 35  1  1
 10 36  1  0
 11 37  1  0
 11 38  1  0
 12 39  1  6
 13 40  1  0
 13 41  1  0
 15 42  1  0
 16 43  1  0
 17 44  1  0
 18 45  1  0
 19 46  1  0
 21 47  1  0
 22 48  1  0
 24 49  1  0
 27 50  1  0
 28 51  1  0
M  CHG  1   3  -1
M  END
>  <UniqueID>  (42) 
23

>  <SMILES>  (42) 
O=C([N-]CC(=O)N1C[C@H](O)C[C@H]1Cc1ccccc1)c1ccc2cc(F)ccc2n1

>  <Energy>  (42) 
57.17510688318018

>  <Genealogy>  (42) 
O=C([N-]CC(=O)N1C[C@H](O)C[C@H]1Cc1ccccc1)c1ccc2cc(F)ccc2n1 (protonated)
O=C([N-]CC(=O)N1C[C@H](O)C[C@H]1Cc1ccccc1)c1ccc2cc(F)ccc2n1 (3D coordinates assigned)
O=C([N-]CC(=O)N1C[C@H](O)C[C@H]1Cc1ccccc1)c1ccc2cc(F)ccc2n1 (nonaromatic ring conformer: 57.17510688318018 kcal/mol)

>  <smiles>  (42) 
O=C(NCC(=O)N1C[C@H](O)C[C@H]1Cc1ccccc1)c1ccc2cc(F)ccc2n1

>  <score_type>  (42) 
oracle

>  <origin>  (42) 
autodockgpu

>  <m_score__min__energy>  (42) 
-8.5099999999999998

>  <m_primary>  (42) 
energy

>  <meeko>  (42) 
{"free_energy": -8.02, "intermolecular_energy": -10.4, "internal_energy": -1.31, "cluster_size": 2, "cluster_id": 4, "rank_in_cluster": 1}

>  <energy>  (42) 
-8.42

>  <cluster_rmsd>  (42) 
0.67

>  <rmsd>  (42) 
271.69

>  <cluster>  (42) 
1

$$$$
UYYINUAOVYUWQM-XVQRQBGSNA-M
     RDKit          3D

 51 54  0  0  0  0  0  0  0  0999 V2000
  140.6280   71.8360  221.1020 O   0  0  0  0  0  0  0  0  0  0  0  0
  140.5160   72.3690  222.2370 C   0  0  0  0  0  0  0  0  0  0  0  0
  140.5870   73.8000  222.3300 N   0  0  0  0  0  0  0  0  0  0  0  0
  139.5590   74.7740  221.9620 C   0  0  0  0  0  0  0  0  0  0  0  0
  139.6450   75.1680  220.5130 C   0  0  0  0  0  0  0  0  0  0  0  0
  138.5950   75.1350  219.8160 O   0  0  0  0  0  0  0  0  0  0  0  0
  140.8840   75.5940  219.9110 N   0  0  0  0  0  0  0  0  0  0  0  0
  141.4120   75.0510  218.6680 C   0  0  0  0  0  0  0  0  0  0  0  0
  142.7260   75.7920  218.4250 C   0  0  2  0  0  0  0  0  0  0  0  0
  143.7320   74.9500  217.9200 O   0  0  0  0  0  0  0  0  0  0  0  0
  143.1110   76.4180  219.7690 C   0  0  0  0  0  0  0  0  0  0  0  0
  141.8020   76.5250  220.5610 C   0  0  1  0  0  0  0  0  0  0  0  0
  141.2040   77.9450  220.5360 C   0  0  0  0  0  0  0  0  0  0  0  0
  141.6000   78.7590  221.7400 C   0  0  0  0  0  0  0  0  0  0  0  0
  141.4190   78.2510  223.0380 C   0  0  0  0  0  0  0  0  0  0  0  0
  141.7970   79.0080  224.1500 C   0  0  0  0  0  0  0  0  0  0  0  0
  142.3610   80.2750  223.9770 C   0  0  0  0  0  0  0  0  0  0  0  0
  142.5470   80.7860  222.6900 C   0  0  0  0  0  0  0  0  0  0  0  0
  142.1700   80.0330  221.5740 C   0  0  0  0  0  0  0  0  0  0  0  0
  140.2410   71.5030  223.3950 C   0  0  0  0  0  0  0  0  0  0  0  0
  139.4990   70.3190  223.2690 C   0  0  0  0  0  0  0  0  0  0  0  0
  139.2920   69.5110  224.3890 C   0  0  0  0  0  0  0  0  0  0  0  0
  139.8130   69.8940  225.6300 C   0  0  0  0  0  0  0  0  0  0  0  0
  139.6500   69.0930  226.7700 C   0  0  0  0  0  0  0  0  0  0  0  0
  140.1930   69.4990  227.9930 C   0  0  0  0  0  0  0  0  0  0  0  0
  140.0410   68.7210  229.0930 F   0  0  0  0  0  0  0  0  0  0  0  0
  140.8960   70.7060  228.0860 C   0  0  0  0  0  0  0  0  0  0  0  0
  141.0570   71.5140  226.9560 C   0  0  0  0  0  0  0  0  0  0  0  0
  140.5180   71.1130  225.7270 C   0  0  0  0  0  0  0  0  0  0  0  0
  140.7040   71.8790  224.6190 N   0  0  0  0  0  0  0  0  0  0  0  0
  138.5691   74.3335  222.1515 H   0  0  0  0  0  0  0  0  0  0  0  0
  139.7166   75.6780  222.5686 H   0  0  0  0  0  0  0  0  0  0  0  0
  141.5925   73.9704  218.7664 H   0  0  0  0  0  0  0  0  0  0  0  0
  140.7082   75.1834  217.8331 H   0  0  0  0  0  0  0  0  0  0  0  0
  142.6037   76.5639  217.6509 H   0  0  0  0  0  0  0  0  0  0  0  0
  144.5860   75.4570  217.9210 H   0  0  0  0  0  0  0  0  0  0  0  0
  143.8302   75.7769  220.2998 H   0  0  0  0  0  0  0  0  0  0  0  0
  143.5911   77.3992  219.6396 H   0  0  0  0  0  0  0  0  0  0  0  0
  141.9791   76.2928  221.6215 H   0  0  0  0  0  0  0  0  0  0  0  0
  141.5565   78.4603  219.6303 H   0  0  0  0  0  0  0  0  0  0  0  0
  140.1085   77.8465  220.5448 H   0  0  0  0  0  0  0  0  0  0  0  0
  140.9779   77.2532  223.1790 H   0  0  0  0  0  0  0  0  0  0  0  0
  141.6504   78.6060  225.1634 H   0  0  0  0  0  0  0  0  0  0  0  0
  142.6582   80.8695  224.8535 H   0  0  0  0  0  0  0  0  0  0  0  0
  142.9911   81.7832  222.5545 H   0  0  0  0  0  0  0  0  0  0  0  0
  142.3200   80.4389  220.5627 H   0  0  0  0  0  0  0  0  0  0  0  0
  139.0825   70.0287  222.2932 H   0  0  0  0  0  0  0  0  0  0  0  0
  138.7207   68.5756  224.2959 H   0  0  0  0  0  0  0  0  0  0  0  0
  139.0951   68.1457  226.7019 H   0  0  0  0  0  0  0  0  0  0  0  0
  141.3227   71.0196  229.0501 H   0  0  0  0  0  0  0  0  0  0  0  0
  141.6066   72.4638  227.0323 H   0  0  0  0  0  0  0  0  0  0  0  0
  1  2  2  0
  2  3  1  0
  3  4  1  0
  4  5  1  0
  5  6  2  0
  5  7  1  0
  7  8  1  0
  8  9  1  0
  9 10  1  0
  9 11  1  0
 11 12  1  0
 12 13  1  0
 13 14  1  0
 14 15  2  0
 15 16  1  0
 16 17  2  0
 17 18  1  0
 18 19  2  0
  2 20  1  0
 20 21  2  0
 21 22  1  0
 22 23  2  0
 23 24  1  0
 24 25  2  0
 25 26  1  0
 25 27  1  0
 27 28  2  0
 28 29  1  0
 29 30  2  0
 12  7  1  0
 19 14  1  0
 30 20  1  0
 29 23  1  0
  4 31  1  0
  4 32  1  0
  8 33  1  0
  8 34  1  0
  9 35  1  6
 10 36  1  0
 11 37  1  0
 11 38  1  0
 12 39  1  1
 13 40  1  0
 13 41  1  0
 15 42  1  0
 16 43  1  0
 17 44  1  0
 18 45  1  0
 19 46  1  0
 21 47  1  0
 22 48  1  0
 24 49  1  0
 27 50  1  0
 28 51  1  0
M  CHG  1   3  -1
M  END
>  <UniqueID>  (43) 
23

>  <SMILES>  (43) 
O=C([N-]CC(=O)N1C[C@H](O)C[C@H]1Cc1ccccc1)c1ccc2cc(F)ccc2n1

>  <Energy>  (43) 
57.17510688318018

>  <Genealogy>  (43) 
O=C([N-]CC(=O)N1C[C@H](O)C[C@H]1Cc1ccccc1)c1ccc2cc(F)ccc2n1 (protonated)
O=C([N-]CC(=O)N1C[C@H](O)C[C@H]1Cc1ccccc1)c1ccc2cc(F)ccc2n1 (3D coordinates assigned)
O=C([N-]CC(=O)N1C[C@H](O)C[C@H]1Cc1ccccc1)c1ccc2cc(F)ccc2n1 (nonaromatic ring conformer: 57.17510688318018 kcal/mol)

>  <smiles>  (43) 
O=C(NCC(=O)N1C[C@H](O)C[C@H]1Cc1ccccc1)c1ccc2cc(F)ccc2n1

>  <score_type>  (43) 
oracle

>  <origin>  (43) 
autodockgpu

>  <m_score__min__energy>  (43) 
-8.5099999999999998

>  <m_primary>  (43) 
energy

>  <meeko>  (43) 
{"free_energy": -8.42, "intermolecular_energy": -10.81, "internal_energy": -1.3, "cluster_size": 12, "cluster_id": 1, "rank_in_cluster": 2}

>  <energy>  (43) 
-8.37

>  <cluster_rmsd>  (43) 
1.23

>  <rmsd>  (43) 
271.65

>  <cluster>  (43) 
1

$$$$
UYYINUAOVYUWQM-XVQRQBGSNA-M
     RDKit          3D

 51 54  0  0  0  0  0  0  0  0999 V2000
  141.8270   72.2850  221.6740 O   0  0  0  0  0  0  0  0  0  0  0  0
  140.6080   72.1310  221.9440 C   0  0  0  0  0  0  0  0  0  0  0  0
  139.6320   72.6090  221.0050 N   0  0  0  0  0  0  0  0  0  0  0  0
  139.2370   73.9940  220.7500 C   0  0  0  0  0  0  0  0  0  0  0  0
  140.3110   74.9710  221.1430 C   0  0  0  0  0  0  0  0  0  0  0  0
  140.3630   75.3600  222.3410 O   0  0  0  0  0  0  0  0  0  0  0  0
  141.2840   75.4560  220.1960 N   0  0  0  0  0  0  0  0  0  0  0  0
  141.5910   74.7940  218.9360 C   0  0  0  0  0  0  0  0  0  0  0  0
  142.6680   75.6550  218.2760 C   0  0  2  0  0  0  0  0  0  0  0  0
  143.6540   74.8830  217.6380 O   0  0  0  0  0  0  0  0  0  0  0  0
  143.2460   76.5340  219.3900 C   0  0  0  0  0  0  0  0  0  0  0  0
  142.1590   76.5920  220.4710 C   0  0  1  0  0  0  0  0  0  0  0  0
  141.3420   77.8980  220.4250 C   0  0  0  0  0  0  0  0  0  0  0  0
  141.5870   78.7730  221.6270 C   0  0  0  0  0  0  0  0  0  0  0  0
  141.4270   78.2640  222.9270 C   0  0  0  0  0  0  0  0  0  0  0  0
  141.6650   79.0800  224.0370 C   0  0  0  0  0  0  0  0  0  0  0  0
  142.0650   80.4070  223.8590 C   0  0  0  0  0  0  0  0  0  0  0  0
  142.2280   80.9200  222.5690 C   0  0  0  0  0  0  0  0  0  0  0  0
  141.9900   80.1080  221.4560 C   0  0  0  0  0  0  0  0  0  0  0  0
  140.2470   71.4000  223.1700 C   0  0  0  0  0  0  0  0  0  0  0  0
  139.4550   70.2430  223.1310 C   0  0  0  0  0  0  0  0  0  0  0  0
  139.1670   69.5610  224.3160 C   0  0  0  0  0  0  0  0  0  0  0  0
  139.6590   70.0450  225.5340 C   0  0  0  0  0  0  0  0  0  0  0  0
  139.4150   69.3710  226.7390 C   0  0  0  0  0  0  0  0  0  0  0  0
  139.9310   69.8740  227.9380 C   0  0  0  0  0  0  0  0  0  0  0  0
  139.7000   69.2190  229.1020 F   0  0  0  0  0  0  0  0  0  0  0  0
  140.6860   71.0520  227.9400 C   0  0  0  0  0  0  0  0  0  0  0  0
  140.9290   71.7340  226.7430 C   0  0  0  0  0  0  0  0  0  0  0  0
  140.4180   71.2350  225.5390 C   0  0  0  0  0  0  0  0  0  0  0  0
  140.6820   71.8760  224.3700 N   0  0  0  0  0  0  0  0  0  0  0  0
  139.0269   74.1109  219.6766 H   0  0  0  0  0  0  0  0  0  0  0  0
  138.3454   74.2089  221.3573 H   0  0  0  0  0  0  0  0  0  0  0  0
  141.9692   73.7772  219.1178 H   0  0  0  0  0  0  0  0  0  0  0  0
  140.6999   74.6945  218.2988 H   0  0  0  0  0  0  0  0  0  0  0  0
  142.2405   76.2706  217.4708 H   0  0  0  0  0  0  0  0  0  0  0  0
  144.5400   75.2700  217.8650 H   0  0  0  0  0  0  0  0  0  0  0  0
  144.1665   76.0872  219.7938 H   0  0  0  0  0  0  0  0  0  0  0  0
  143.5110   77.5366  219.0231 H   0  0  0  0  0  0  0  0  0  0  0  0
  142.6152   76.5578  221.4713 H   0  0  0  0  0  0  0  0  0  0  0  0
  141.6201   78.4566  219.5191 H   0  0  0  0  0  0  0  0  0  0  0  0
  140.2761   77.6262  220.4205 H   0  0  0  0  0  0  0  0  0  0  0  0
  141.1133   77.2197  223.0718 H   0  0  0  0  0  0  0  0  0  0  0  0
  141.5371   78.6767  225.0524 H   0  0  0  0  0  0  0  0  0  0  0  0
  142.2515   81.0476  224.7336 H   0  0  0  0  0  0  0  0  0  0  0  0
  142.5440   81.9643  222.4293 H   0  0  0  0  0  0  0  0  0  0  0  0
  142.1188   80.5159  220.4426 H   0  0  0  0  0  0  0  0  0  0  0  0
  139.0624   69.8742  222.1719 H   0  0  0  0  0  0  0  0  0  0  0  0
  138.5557   68.6468  224.2919 H   0  0  0  0  0  0  0  0  0  0  0  0
  138.8180   68.4471  226.7416 H   0  0  0  0  0  0  0  0  0  0  0  0
  141.0897   71.4430  228.8856 H   0  0  0  0  0  0  0  0  0  0  0  0
  141.5209   72.6612  226.7478 H   0  0  0  0  0  0  0  0  0  0  0  0
  1  2  2  0
  2  3  1  0
  3  4  1  0
  4  5  1  0
  5  6  2  0
  5  7  1  0
  7  8  1  0
  8  9  1  0
  9 10  1  0
  9 11  1  0
 11 12  1  0
 12 13  1  0
 13 14  1  0
 14 15  2  0
 15 16  1  0
 16 17  2  0
 17 18  1  0
 18 19  2  0
  2 20  1  0
 20 21  2  0
 21 22  1  0
 22 23  2  0
 23 24  1  0
 24 25  2  0
 25 26  1  0
 25 27  1  0
 27 28  2  0
 28 29  1  0
 29 30  2  0
 12  7  1  0
 19 14  1  0
 30 20  1  0
 29 23  1  0
  4 31  1  0
  4 32  1  0
  8 33  1  0
  8 34  1  0
  9 35  1  6
 10 36  1  0
 11 37  1  0
 11 38  1  0
 12 39  1  1
 13 40  1  0
 13 41  1  0
 15 42  1  0
 16 43  1  0
 17 44  1  0
 18 45  1  0
 19 46  1  0
 21 47  1  0
 22 48  1  0
 24 49  1  0
 27 50  1  0
 28 51  1  0
M  CHG  1   3  -1
M  END
>  <UniqueID>  (44) 
23

>  <SMILES>  (44) 
O=C([N-]CC(=O)N1C[C@H](O)C[C@H]1Cc1ccccc1)c1ccc2cc(F)ccc2n1

>  <Energy>  (44) 
57.17510688318018

>  <Genealogy>  (44) 
O=C([N-]CC(=O)N1C[C@H](O)C[C@H]1Cc1ccccc1)c1ccc2cc(F)ccc2n1 (protonated)
O=C([N-]CC(=O)N1C[C@H](O)C[C@H]1Cc1ccccc1)c1ccc2cc(F)ccc2n1 (3D coordinates assigned)
O=C([N-]CC(=O)N1C[C@H](O)C[C@H]1Cc1ccccc1)c1ccc2cc(F)ccc2n1 (nonaromatic ring conformer: 57.17510688318018 kcal/mol)

>  <smiles>  (44) 
O=C(NCC(=O)N1C[C@H](O)C[C@H]1Cc1ccccc1)c1ccc2cc(F)ccc2n1

>  <score_type>  (44) 
oracle

>  <origin>  (44) 
autodockgpu

>  <m_score__min__energy>  (44) 
-8.5099999999999998

>  <m_primary>  (44) 
energy

>  <meeko>  (44) 
{"free_energy": -8.21, "intermolecular_energy": -10.6, "internal_energy": -1.37, "cluster_size": 12, "cluster_id": 1, "rank_in_cluster": 5}

>  <energy>  (44) 
-8.25

>  <cluster_rmsd>  (44) 
0.61

>  <rmsd>  (44) 
271.81

>  <cluster>  (44) 
1

$$$$
UYYINUAOVYUWQM-XVQRQBGSNA-M
     RDKit          3D

 51 54  0  0  0  0  0  0  0  0999 V2000
  141.3390   71.7960  221.5480 O   0  0  0  0  0  0  0  0  0  0  0  0
  140.5830   72.2170  222.4620 C   0  0  0  0  0  0  0  0  0  0  0  0
  139.9730   73.5070  222.3060 N   0  0  0  0  0  0  0  0  0  0  0  0
  139.5980   74.1760  221.0600 C   0  0  0  0  0  0  0  0  0  0  0  0
  140.1450   75.5750  220.9810 C   0  0  0  0  0  0  0  0  0  0  0  0
  139.6760   76.4500  221.7580 O   0  0  0  0  0  0  0  0  0  0  0  0
  141.1940   75.9330  220.0600 N   0  0  0  0  0  0  0  0  0  0  0  0
  141.4640   75.2220  218.8190 C   0  0  0  0  0  0  0  0  0  0  0  0
  142.6490   75.9460  218.1830 C   0  0  2  0  0  0  0  0  0  0  0  0
  143.5620   75.0600  217.5860 O   0  0  0  0  0  0  0  0  0  0  0  0
  143.2870   76.7740  219.3020 C   0  0  0  0  0  0  0  0  0  0  0  0
  142.1810   76.9700  220.3470 C   0  0  1  0  0  0  0  0  0  0  0  0
  141.5170   78.3580  220.2590 C   0  0  0  0  0  0  0  0  0  0  0  0
  141.7110   79.1710  221.5120 C   0  0  0  0  0  0  0  0  0  0  0  0
  141.6090   78.5700  222.7780 C   0  0  0  0  0  0  0  0  0  0  0  0
  141.7990   79.3290  223.9360 C   0  0  0  0  0  0  0  0  0  0  0  0
  142.0940   80.6920  223.8400 C   0  0  0  0  0  0  0  0  0  0  0  0
  142.1990   81.2970  222.5850 C   0  0  0  0  0  0  0  0  0  0  0  0
  142.0090   80.5410  221.4240 C   0  0  0  0  0  0  0  0  0  0  0  0
  140.3030   71.3320  223.6050 C   0  0  0  0  0  0  0  0  0  0  0  0
  139.5760   70.1410  223.4520 C   0  0  0  0  0  0  0  0  0  0  0  0
  139.3650   69.3140  224.5570 C   0  0  0  0  0  0  0  0  0  0  0  0
  139.8650   69.6860  225.8110 C   0  0  0  0  0  0  0  0  0  0  0  0
  139.6960   68.8670  226.9370 C   0  0  0  0  0  0  0  0  0  0  0  0
  140.2180   69.2620  228.1730 C   0  0  0  0  0  0  0  0  0  0  0  0
  140.0600   68.4670  229.2600 F   0  0  0  0  0  0  0  0  0  0  0  0
  140.9050   70.4760  228.2920 C   0  0  0  0  0  0  0  0  0  0  0  0
  141.0720   71.3010  227.1750 C   0  0  0  0  0  0  0  0  0  0  0  0
  140.5540   70.9120  225.9350 C   0  0  0  0  0  0  0  0  0  0  0  0
  140.7450   71.6950  224.8400 N   0  0  0  0  0  0  0  0  0  0  0  0
  139.9900   73.5937  220.2131 H   0  0  0  0  0  0  0  0  0  0  0  0
  138.5003   74.2396  221.0272 H   0  0  0  0  0  0  0  0  0  0  0  0
  141.7206   74.1724  219.0253 H   0  0  0  0  0  0  0  0  0  0  0  0
  140.5872   75.2131  218.1549 H   0  0  0  0  0  0  0  0  0  0  0  0
  142.3166   76.5911  217.3564 H   0  0  0  0  0  0  0  0  0  0  0  0
  144.4780   75.3330  217.8580 H   0  0  0  0  0  0  0  0  0  0  0  0
  144.1397   76.2352  219.7409 H   0  0  0  0  0  0  0  0  0  0  0  0
  143.6727   77.7348  218.9302 H   0  0  0  0  0  0  0  0  0  0  0  0
  142.5999   76.9020  221.3618 H   0  0  0  0  0  0  0  0  0  0  0  0
  141.9555   78.9057  219.4118 H   0  0  0  0  0  0  0  0  0  0  0  0
  140.4362   78.2034  220.1250 H   0  0  0  0  0  0  0  0  0  0  0  0
  141.3786   77.4974  222.8580 H   0  0  0  0  0  0  0  0  0  0  0  0
  141.7163   78.8532  224.9243 H   0  0  0  0  0  0  0  0  0  0  0  0
  142.2434   81.2881  224.7523 H   0  0  0  0  0  0  0  0  0  0  0  0
  142.4315   82.3695  222.5101 H   0  0  0  0  0  0  0  0  0  0  0  0
  142.0932   81.0210  220.4379 H   0  0  0  0  0  0  0  0  0  0  0  0
  139.1747   69.8607  222.4669 H   0  0  0  0  0  0  0  0  0  0  0  0
  138.8074   68.3727  224.4428 H   0  0  0  0  0  0  0  0  0  0  0  0
  139.1531   67.9144  226.8480 H   0  0  0  0  0  0  0  0  0  0  0  0
  141.3144   70.7817  229.2662 H   0  0  0  0  0  0  0  0  0  0  0  0
  141.6104   72.2554  227.2714 H   0  0  0  0  0  0  0  0  0  0  0  0
  1  2  2  0
  2  3  1  0
  3  4  1  0
  4  5  1  0
  5  6  2  0
  5  7  1  0
  7  8  1  0
  8  9  1  0
  9 10  1  0
  9 11  1  0
 11 12  1  0
 12 13  1  0
 13 14  1  0
 14 15  2  0
 15 16  1  0
 16 17  2  0
 17 18  1  0
 18 19  2  0
  2 20  1  0
 20 21  2  0
 21 22  1  0
 22 23  2  0
 23 24  1  0
 24 25  2  0
 25 26  1  0
 25 27  1  0
 27 28  2  0
 28 29  1  0
 29 30  2  0
 12  7  1  0
 19 14  1  0
 30 20  1  0
 29 23  1  0
  4 31  1  0
  4 32  1  0
  8 33  1  0
  8 34  1  0
  9 35  1  6
 10 36  1  0
 11 37  1  0
 11 38  1  0
 12 39  1  1
 13 40  1  0
 13 41  1  0
 15 42  1  0
 16 43  1  0
 17 44  1  0
 18 45  1  0
 19 46  1  0
 21 47  1  0
 22 48  1  0
 24 49  1  0
 27 50  1  0
 28 51  1  0
M  CHG  1   3  -1
M  END
>  <UniqueID>  (45) 
23

>  <SMILES>  (45) 
O=C([N-]CC(=O)N1C[C@H](O)C[C@H]1Cc1ccccc1)c1ccc2cc(F)ccc2n1

>  <Energy>  (45) 
57.17510688318018

>  <Genealogy>  (45) 
O=C([N-]CC(=O)N1C[C@H](O)C[C@H]1Cc1ccccc1)c1ccc2cc(F)ccc2n1 (protonated)
O=C([N-]CC(=O)N1C[C@H](O)C[C@H]1Cc1ccccc1)c1ccc2cc(F)ccc2n1 (3D coordinates assigned)
O=C([N-]CC(=O)N1C[C@H](O)C[C@H]1Cc1ccccc1)c1ccc2cc(F)ccc2n1 (nonaromatic ring conformer: 57.17510688318018 kcal/mol)

>  <smiles>  (45) 
O=C(NCC(=O)N1C[C@H](O)C[C@H]1Cc1ccccc1)c1ccc2cc(F)ccc2n1

>  <score_type>  (45) 
oracle

>  <origin>  (45) 
autodockgpu

>  <m_score__min__energy>  (45) 
-8.5099999999999998

>  <m_primary>  (45) 
energy

>  <meeko>  (45) 
{"free_energy": -8.51, "intermolecular_energy": -10.9, "internal_energy": -1.1, "cluster_size": 12, "cluster_id": 1, "rank_in_cluster": 1}

>  <energy>  (45) 
-8.21

>  <cluster_rmsd>  (45) 
0.62

>  <rmsd>  (45) 
271.66

>  <cluster>  (45) 
1

$$$$
UYYINUAOVYUWQM-XVQRQBGSNA-M
     RDKit          3D

 51 54  0  0  0  0  0  0  0  0999 V2000
  138.4600   72.7410  222.2120 O   0  0  0  0  0  0  0  0  0  0  0  0
  139.5980   72.4910  222.6870 C   0  0  0  0  0  0  0  0  0  0  0  0
  140.7190   73.2540  222.2160 N   0  0  0  0  0  0  0  0  0  0  0  0
  140.9970   73.6860  220.8460 C   0  0  0  0  0  0  0  0  0  0  0  0
  141.5040   75.1010  220.7890 C   0  0  0  0  0  0  0  0  0  0  0  0
  142.6720   75.3060  220.3620 O   0  0  0  0  0  0  0  0  0  0  0  0
  140.6890   76.2200  221.1910 N   0  0  0  0  0  0  0  0  0  0  0  0
  139.8210   76.2140  222.3600 C   0  0  0  0  0  0  0  0  0  0  0  0
  139.1630   77.5930  222.3860 C   0  0  2  0  0  0  0  0  0  0  0  0
  137.8120   77.5350  222.7660 O   0  0  0  0  0  0  0  0  0  0  0  0
  139.3500   78.1750  220.9820 C   0  0  0  0  0  0  0  0  0  0  0  0
  140.5510   77.4300  220.3860 C   0  0  1  0  0  0  0  0  0  0  0  0
  141.8540   78.2490  220.4530 C   0  0  0  0  0  0  0  0  0  0  0  0
  141.8190   79.3020  221.5300 C   0  0  0  0  0  0  0  0  0  0  0  0
  142.1890   78.9890  222.8490 C   0  0  0  0  0  0  0  0  0  0  0  0
  142.1620   79.9730  223.8410 C   0  0  0  0  0  0  0  0  0  0  0  0
  141.7680   81.2760  223.5240 C   0  0  0  0  0  0  0  0  0  0  0  0
  141.4010   81.5960  222.2150 C   0  0  0  0  0  0  0  0  0  0  0  0
  141.4260   80.6140  221.2190 C   0  0  0  0  0  0  0  0  0  0  0  0
  139.7080   71.4840  223.7560 C   0  0  0  0  0  0  0  0  0  0  0  0
  139.3230   70.1500  223.5520 C   0  0  0  0  0  0  0  0  0  0  0  0
  139.4780   69.2210  224.5840 C   0  0  0  0  0  0  0  0  0  0  0  0
  140.0000   69.6310  225.8170 C   0  0  0  0  0  0  0  0  0  0  0  0
  140.1960   68.7200  226.8650 C   0  0  0  0  0  0  0  0  0  0  0  0
  140.7320   69.1590  228.0810 C   0  0  0  0  0  0  0  0  0  0  0  0
  140.9270   68.2770  229.0920 F   0  0  0  0  0  0  0  0  0  0  0  0
  141.0680   70.5060  228.2570 C   0  0  0  0  0  0  0  0  0  0  0  0
  140.8700   71.4210  227.2180 C   0  0  0  0  0  0  0  0  0  0  0  0
  140.3360   70.9890  225.9980 C   0  0  0  0  0  0  0  0  0  0  0  0
  140.1760   71.8700  224.9750 N   0  0  0  0  0  0  0  0  0  0  0  0
  141.7567   73.0196  220.4115 H   0  0  0  0  0  0  0  0  0  0  0  0
  140.0550   73.6414  220.2798 H   0  0  0  0  0  0  0  0  0  0  0  0
  139.0590   75.4259  222.2691 H   0  0  0  0  0  0  0  0  0  0  0  0
  140.3821   76.0117  223.2843 H   0  0  0  0  0  0  0  0  0  0  0  0
  139.6309   78.2376  223.1447 H   0  0  0  0  0  0  0  0  0  0  0  0
  137.5760   76.5820  222.9160 H   0  0  0  0  0  0  0  0  0  0  0  0
  138.4506   78.0043  220.3722 H   0  0  0  0  0  0  0  0  0  0  0  0
  139.5169   79.2619  221.0098 H   0  0  0  0  0  0  0  0  0  0  0  0
  140.3802   77.2254  219.3188 H   0  0  0  0  0  0  0  0  0  0  0  0
  142.6908   77.5645  220.6560 H   0  0  0  0  0  0  0  0  0  0  0  0
  141.9762   78.7622  219.4877 H   0  0  0  0  0  0  0  0  0  0  0  0
  142.5012   77.9650  223.1018 H   0  0  0  0  0  0  0  0  0  0  0  0
  142.4511   79.7218  224.8722 H   0  0  0  0  0  0  0  0  0  0  0  0
  141.7470   82.0496  224.3057 H   0  0  0  0  0  0  0  0  0  0  0  0
  141.0917   82.6220  221.9668 H   0  0  0  0  0  0  0  0  0  0  0  0
  141.1369   80.8702  220.1890 H   0  0  0  0  0  0  0  0  0  0  0  0
  138.9016   69.8376  222.5851 H   0  0  0  0  0  0  0  0  0  0  0  0
  139.1908   68.1706  224.4284 H   0  0  0  0  0  0  0  0  0  0  0  0
  139.9287   67.6614  226.7314 H   0  0  0  0  0  0  0  0  0  0  0  0
  141.4888   70.8459  229.2148 H   0  0  0  0  0  0  0  0  0  0  0  0
  141.1337   72.4795  227.3593 H   0  0  0  0  0  0  0  0  0  0  0  0
  1  2  2  0
  2  3  1  0
  3  4  1  0
  4  5  1  0
  5  6  2  0
  5  7  1  0
  7  8  1  0
  8  9  1  0
  9 10  1  0
  9 11  1  0
 11 12  1  0
 12 13  1  0
 13 14  1  0
 14 15  2  0
 15 16  1  0
 16 17  2  0
 17 18  1  0
 18 19  2  0
  2 20  1  0
 20 21  2  0
 21 22  1  0
 22 23  2  0
 23 24  1  0
 24 25  2  0
 25 26  1  0
 25 27  1  0
 27 28  2  0
 28 29  1  0
 29 30  2  0
 12  7  1  0
 19 14  1  0
 30 20  1  0
 29 23  1  0
  4 31  1  0
  4 32  1  0
  8 33  1  0
  8 34  1  0
  9 35  1  1
 10 36  1  0
 11 37  1  0
 11 38  1  0
 12 39  1  6
 13 40  1  0
 13 41  1  0
 15 42  1  0
 16 43  1  0
 17 44  1  0
 18 45  1  0
 19 46  1  0
 21 47  1  0
 22 48  1  0
 24 49  1  0
 27 50  1  0
 28 51  1  0
M  CHG  1   3  -1
M  END
>  <UniqueID>  (46) 
23

>  <SMILES>  (46) 
O=C([N-]CC(=O)N1C[C@H](O)C[C@H]1Cc1ccccc1)c1ccc2cc(F)ccc2n1

>  <Energy>  (46) 
57.17510688318018

>  <Genealogy>  (46) 
O=C([N-]CC(=O)N1C[C@H](O)C[C@H]1Cc1ccccc1)c1ccc2cc(F)ccc2n1 (protonated)
O=C([N-]CC(=O)N1C[C@H](O)C[C@H]1Cc1ccccc1)c1ccc2cc(F)ccc2n1 (3D coordinates assigned)
O=C([N-]CC(=O)N1C[C@H](O)C[C@H]1Cc1ccccc1)c1ccc2cc(F)ccc2n1 (nonaromatic ring conformer: 57.17510688318018 kcal/mol)

>  <smiles>  (46) 
O=C(NCC(=O)N1C[C@H](O)C[C@H]1Cc1ccccc1)c1ccc2cc(F)ccc2n1

>  <score_type>  (46) 
oracle

>  <origin>  (46) 
autodockgpu

>  <m_score__min__energy>  (46) 
-8.5099999999999998

>  <m_primary>  (46) 
energy

>  <meeko>  (46) 
{"free_energy": -7.93, "intermolecular_energy": -10.31, "internal_energy": -1.34, "cluster_size": 2, "cluster_id": 4, "rank_in_cluster": 2}

>  <energy>  (46) 
-8.15

>  <cluster_rmsd>  (46) 
0.68

>  <rmsd>  (46) 
271.79

>  <cluster>  (46) 
1

$$$$
UYYINUAOVYUWQM-XVQRQBGSNA-M
     RDKit          3D

 51 54  0  0  0  0  0  0  0  0999 V2000
  139.9510   73.4020  222.7180 O   0  0  0  0  0  0  0  0  0  0  0  0
  139.8460   72.1710  222.4800 C   0  0  0  0  0  0  0  0  0  0  0  0
  139.8410   71.7350  221.1120 N   0  0  0  0  0  0  0  0  0  0  0  0
  140.9230   71.0810  220.3770 C   0  0  0  0  0  0  0  0  0  0  0  0
  141.5420   71.9910  219.3510 C   0  0  0  0  0  0  0  0  0  0  0  0
  140.8970   72.2360  218.2950 O   0  0  0  0  0  0  0  0  0  0  0  0
  142.8340   72.5980  219.5500 N   0  0  0  0  0  0  0  0  0  0  0  0
  144.0880   71.9980  219.1170 C   0  0  0  0  0  0  0  0  0  0  0  0
  145.1780   72.9850  219.5370 C   0  0  2  0  0  0  0  0  0  0  0  0
  146.3270   72.3390  220.0240 O   0  0  0  0  0  0  0  0  0  0  0  0
  144.5360   73.9010  220.5830 C   0  0  0  0  0  0  0  0  0  0  0  0
  143.0250   73.8180  220.3270 C   0  0  1  0  0  0  0  0  0  0  0  0
  142.4880   75.0270  219.5360 C   0  0  0  0  0  0  0  0  0  0  0  0
  141.9310   76.1010  220.4340 C   0  0  0  0  0  0  0  0  0  0  0  0
  142.1860   77.4580  220.1690 C   0  0  0  0  0  0  0  0  0  0  0  0
  141.6580   78.4490  221.0010 C   0  0  0  0  0  0  0  0  0  0  0  0
  140.8720   78.0960  222.1010 C   0  0  0  0  0  0  0  0  0  0  0  0
  140.6120   76.7500  222.3700 C   0  0  0  0  0  0  0  0  0  0  0  0
  141.1380   75.7540  221.5410 C   0  0  0  0  0  0  0  0  0  0  0  0
  139.8130   71.2360  223.6180 C   0  0  0  0  0  0  0  0  0  0  0  0
  139.2350   69.9620  223.5060 C   0  0  0  0  0  0  0  0  0  0  0  0
  139.2580   69.0950  224.6010 C   0  0  0  0  0  0  0  0  0  0  0  0
  139.8430   69.5080  225.8040 C   0  0  0  0  0  0  0  0  0  0  0  0
  139.9090   68.6540  226.9150 C   0  0  0  0  0  0  0  0  0  0  0  0
  140.5110   69.0940  228.0990 C   0  0  0  0  0  0  0  0  0  0  0  0
  140.5800   68.2660  229.1710 F   0  0  0  0  0  0  0  0  0  0  0  0
  141.0420   70.3860  228.1820 C   0  0  0  0  0  0  0  0  0  0  0  0
  140.9740   71.2460  227.0810 C   0  0  0  0  0  0  0  0  0  0  0  0
  140.3750   70.8130  225.8920 C   0  0  0  0  0  0  0  0  0  0  0  0
  140.3400   71.6330  224.8090 N   0  0  0  0  0  0  0  0  0  0  0  0
  141.7002   70.7713  221.0912 H   0  0  0  0  0  0  0  0  0  0  0  0
  140.4980   70.2148  219.8487 H   0  0  0  0  0  0  0  0  0  0  0  0
  144.2392   71.0257  219.6087 H   0  0  0  0  0  0  0  0  0  0  0  0
  144.0997   71.8133  218.0327 H   0  0  0  0  0  0  0  0  0  0  0  0
  145.5373   73.5646  218.6739 H   0  0  0  0  0  0  0  0  0  0  0  0
  146.0790   71.8600  220.8590 H   0  0  0  0  0  0  0  0  0  0  0  0
  144.7738   73.5512  221.5984 H   0  0  0  0  0  0  0  0  0  0  0  0
  144.9075   74.9334  220.5050 H   0  0  0  0  0  0  0  0  0  0  0  0
  142.4768   73.8156  221.2807 H   0  0  0  0  0  0  0  0  0  0  0  0
  143.3100   75.4541  218.9428 H   0  0  0  0  0  0  0  0  0  0  0  0
  141.6696   74.6700  218.8935 H   0  0  0  0  0  0  0  0  0  0  0  0
  142.8034   77.7407  219.3036 H   0  0  0  0  0  0  0  0  0  0  0  0
  141.8616   79.5091  220.7895 H   0  0  0  0  0  0  0  0  0  0  0  0
  140.4581   78.8777  222.7549 H   0  0  0  0  0  0  0  0  0  0  0  0
  139.9923   76.4730  223.2356 H   0  0  0  0  0  0  0  0  0  0  0  0
  140.9303   74.6954  221.7562 H   0  0  0  0  0  0  0  0  0  0  0  0
  138.7666   69.6481  222.5615 H   0  0  0  0  0  0  0  0  0  0  0  0
  138.8176   68.0904  224.5183 H   0  0  0  0  0  0  0  0  0  0  0  0
  139.4879   67.6395  226.8554 H   0  0  0  0  0  0  0  0  0  0  0  0
  141.5141   70.7262  229.1155 H   0  0  0  0  0  0  0  0  0  0  0  0
  141.3908   72.2617  227.1493 H   0  0  0  0  0  0  0  0  0  0  0  0
  1  2  2  0
  2  3  1  0
  3  4  1  0
  4  5  1  0
  5  6  2  0
  5  7  1  0
  7  8  1  0
  8  9  1  0
  9 10  1  0
  9 11  1  0
 11 12  1  0
 12 13  1  0
 13 14  1  0
 14 15  2  0
 15 16  1  0
 16 17  2  0
 17 18  1  0
 18 19  2  0
  2 20  1  0
 20 21  2  0
 21 22  1  0
 22 23  2  0
 23 24  1  0
 24 25  2  0
 25 26  1  0
 25 27  1  0
 27 28  2  0
 28 29  1  0
 29 30  2  0
 12  7  1  0
 19 14  1  0
 30 20  1  0
 29 23  1  0
  4 31  1  0
  4 32  1  0
  8 33  1  0
  8 34  1  0
  9 35  1  6
 10 36  1  0
 11 37  1  0
 11 38  1  0
 12 39  1  1
 13 40  1  0
 13 41  1  0
 15 42  1  0
 16 43  1  0
 17 44  1  0
 18 45  1  0
 19 46  1  0
 21 47  1  0
 22 48  1  0
 24 49  1  0
 27 50  1  0
 28 51  1  0
M  CHG  1   3  -1
M  END
>  <UniqueID>  (47) 
23

>  <SMILES>  (47) 
O=C([N-]CC(=O)N1C[C@H](O)C[C@H]1Cc1ccccc1)c1ccc2cc(F)ccc2n1

>  <Energy>  (47) 
57.17510688318018

>  <Genealogy>  (47) 
O=C([N-]CC(=O)N1C[C@H](O)C[C@H]1Cc1ccccc1)c1ccc2cc(F)ccc2n1 (protonated)
O=C([N-]CC(=O)N1C[C@H](O)C[C@H]1Cc1ccccc1)c1ccc2cc(F)ccc2n1 (3D coordinates assigned)
O=C([N-]CC(=O)N1C[C@H](O)C[C@H]1Cc1ccccc1)c1ccc2cc(F)ccc2n1 (nonaromatic ring conformer: 57.17510688318018 kcal/mol)

>  <smiles>  (47) 
O=C(NCC(=O)N1C[C@H](O)C[C@H]1Cc1ccccc1)c1ccc2cc(F)ccc2n1

>  <score_type>  (47) 
oracle

>  <origin>  (47) 
autodockgpu

>  <m_score__min__energy>  (47) 
-8.5099999999999998

>  <m_primary>  (47) 
energy

>  <meeko>  (47) 
{"free_energy": -8.13, "intermolecular_energy": -10.51, "internal_energy": -1.48, "cluster_size": 4, "cluster_id": 2, "rank_in_cluster": 1}

>  <energy>  (47) 
-7.92

>  <cluster_rmsd>  (47) 
1.69

>  <rmsd>  (47) 
271.9

>  <cluster>  (47) 
1

$$$$
UYYINUAOVYUWQM-XVQRQBGSNA-M
     RDKit          3D

 51 54  0  0  0  0  0  0  0  0999 V2000
  138.3870   72.4650  221.7640 O   0  0  0  0  0  0  0  0  0  0  0  0
  139.4480   72.4490  222.4410 C   0  0  0  0  0  0  0  0  0  0  0  0
  140.4510   73.4400  222.1650 N   0  0  0  0  0  0  0  0  0  0  0  0
  141.7180   73.2580  221.4580 C   0  0  0  0  0  0  0  0  0  0  0  0
  141.5820   73.5000  219.9800 C   0  0  0  0  0  0  0  0  0  0  0  0
  140.9910   72.6340  219.2800 O   0  0  0  0  0  0  0  0  0  0  0  0
  142.0900   74.6940  219.3510 N   0  0  0  0  0  0  0  0  0  0  0  0
  142.4580   74.7770  217.9450 C   0  0  0  0  0  0  0  0  0  0  0  0
  142.9390   76.2130  217.7350 C   0  0  2  0  0  0  0  0  0  0  0  0
  144.0520   76.2860  216.8810 O   0  0  0  0  0  0  0  0  0  0  0  0
  143.2380   76.7650  219.1320 C   0  0  0  0  0  0  0  0  0  0  0  0
  142.4130   75.9060  220.0980 C   0  0  1  0  0  0  0  0  0  0  0  0
  141.1130   76.5980  220.5510 C   0  0  0  0  0  0  0  0  0  0  0  0
  141.3710   77.7680  221.4640 C   0  0  0  0  0  0  0  0  0  0  0  0
  141.2070   77.6410  222.8530 C   0  0  0  0  0  0  0  0  0  0  0  0
  141.4570   78.7290  223.6950 C   0  0  0  0  0  0  0  0  0  0  0  0
  141.8740   79.9500  223.1570 C   0  0  0  0  0  0  0  0  0  0  0  0
  142.0410   80.0840  221.7760 C   0  0  0  0  0  0  0  0  0  0  0  0
  141.7910   78.9990  220.9310 C   0  0  0  0  0  0  0  0  0  0  0  0
  139.5710   71.4660  223.5300 C   0  0  0  0  0  0  0  0  0  0  0  0
  139.1170   70.1470  223.3860 C   0  0  0  0  0  0  0  0  0  0  0  0
  139.2870   69.2390  224.4330 C   0  0  0  0  0  0  0  0  0  0  0  0
  139.8950   69.6550  225.6240 C   0  0  0  0  0  0  0  0  0  0  0  0
  140.1070   68.7640  226.6850 C   0  0  0  0  0  0  0  0  0  0  0  0
  140.7290   69.2090  227.8580 C   0  0  0  0  0  0  0  0  0  0  0  0
  140.9400   68.3460  228.8810 F   0  0  0  0  0  0  0  0  0  0  0  0
  141.1340   70.5430  227.9760 C   0  0  0  0  0  0  0  0  0  0  0  0
  140.9200   71.4390  226.9250 C   0  0  0  0  0  0  0  0  0  0  0  0
  140.3010   71.0020  225.7480 C   0  0  0  0  0  0  0  0  0  0  0  0
  140.1230   71.8620  224.7100 N   0  0  0  0  0  0  0  0  0  0  0  0
  142.4564   73.9637  221.8663 H   0  0  0  0  0  0  0  0  0  0  0  0
  142.0391   72.2158  221.6020 H   0  0  0  0  0  0  0  0  0  0  0  0
  143.2634   74.0639  217.7153 H   0  0  0  0  0  0  0  0  0  0  0  0
  141.6133   74.5281  217.2858 H   0  0  0  0  0  0  0  0  0  0  0  0
  142.1695   76.8154  217.2301 H   0  0  0  0  0  0  0  0  0  0  0  0
  144.8570   76.0270  217.4030 H   0  0  0  0  0  0  0  0  0  0  0  0
  144.3107   76.6760  219.3589 H   0  0  0  0  0  0  0  0  0  0  0  0
  142.9804   77.8313  219.2129 H   0  0  0  0  0  0  0  0  0  0  0  0
  142.9847   75.7117  221.0175 H   0  0  0  0  0  0  0  0  0  0  0  0
  140.5756   76.9568  219.6608 H   0  0  0  0  0  0  0  0  0  0  0  0
  140.5194   75.8608  221.1115 H   0  0  0  0  0  0  0  0  0  0  0  0
  140.8805   76.6815  223.2804 H   0  0  0  0  0  0  0  0  0  0  0  0
  141.3254   78.6240  224.7820 H   0  0  0  0  0  0  0  0  0  0  0  0
  142.0706   80.8051  223.8205 H   0  0  0  0  0  0  0  0  0  0  0  0
  142.3697   81.0449  221.3533 H   0  0  0  0  0  0  0  0  0  0  0  0
  141.9235   79.1089  219.8445 H   0  0  0  0  0  0  0  0  0  0  0  0
  138.6293   69.8292  222.4526 H   0  0  0  0  0  0  0  0  0  0  0  0
  138.9442   68.1996  224.3226 H   0  0  0  0  0  0  0  0  0  0  0  0
  139.7850   67.7159  226.5963 H   0  0  0  0  0  0  0  0  0  0  0  0
  141.6226   70.8878  228.8993 H   0  0  0  0  0  0  0  0  0  0  0  0
  141.2379   72.4875  227.0227 H   0  0  0  0  0  0  0  0  0  0  0  0
  1  2  2  0
  2  3  1  0
  3  4  1  0
  4  5  1  0
  5  6  2  0
  5  7  1  0
  7  8  1  0
  8  9  1  0
  9 10  1  0
  9 11  1  0
 11 12  1  0
 12 13  1  0
 13 14  1  0
 14 15  2  0
 15 16  1  0
 16 17  2  0
 17 18  1  0
 18 19  2  0
  2 20  1  0
 20 21  2  0
 21 22  1  0
 22 23  2  0
 23 24  1  0
 24 25  2  0
 25 26  1  0
 25 27  1  0
 27 28  2  0
 28 29  1  0
 29 30  2  0
 12  7  1  0
 19 14  1  0
 30 20  1  0
 29 23  1  0
  4 31  1  0
  4 32  1  0
  8 33  1  0
  8 34  1  0
  9 35  1  6
 10 36  1  0
 11 37  1  0
 11 38  1  0
 12 39  1  1
 13 40  1  0
 13 41  1  0
 15 42  1  0
 16 43  1  0
 17 44  1  0
 18 45  1  0
 19 46  1  0
 21 47  1  0
 22 48  1  0
 24 49  1  0
 27 50  1  0
 28 51  1  0
M  CHG  1   3  -1
M  END
>  <UniqueID>  (48) 
23

>  <SMILES>  (48) 
O=C([N-]CC(=O)N1C[C@H](O)C[C@H]1Cc1ccccc1)c1ccc2cc(F)ccc2n1

>  <Energy>  (48) 
57.17510688318018

>  <Genealogy>  (48) 
O=C([N-]CC(=O)N1C[C@H](O)C[C@H]1Cc1ccccc1)c1ccc2cc(F)ccc2n1 (protonated)
O=C([N-]CC(=O)N1C[C@H](O)C[C@H]1Cc1ccccc1)c1ccc2cc(F)ccc2n1 (3D coordinates assigned)
O=C([N-]CC(=O)N1C[C@H](O)C[C@H]1Cc1ccccc1)c1ccc2cc(F)ccc2n1 (nonaromatic ring conformer: 57.17510688318018 kcal/mol)

>  <smiles>  (48) 
O=C(NCC(=O)N1C[C@H](O)C[C@H]1Cc1ccccc1)c1ccc2cc(F)ccc2n1

>  <score_type>  (48) 
oracle

>  <origin>  (48) 
autodockgpu

>  <m_score__min__energy>  (48) 
-8.5099999999999998

>  <m_primary>  (48) 
energy

>  <meeko>  (48) 
{"free_energy": -7.72, "intermolecular_energy": -10.11, "internal_energy": -1.22, "cluster_size": 12, "cluster_id": 1, "rank_in_cluster": 10}

>  <energy>  (48) 
-7.85

>  <cluster_rmsd>  (48) 
0.84

>  <rmsd>  (48) 
271.59

>  <cluster>  (48) 
1

$$$$
UYYINUAOVYUWQM-XVQRQBGSNA-M
     RDKit          3D

 51 54  0  0  0  0  0  0  0  0999 V2000
  140.5990   73.1580  222.7070 O   0  0  0  0  0  0  0  0  0  0  0  0
  140.1890   71.9840  222.5110 C   0  0  0  0  0  0  0  0  0  0  0  0
  139.9390   71.5630  221.1610 N   0  0  0  0  0  0  0  0  0  0  0  0
  140.9000   71.4580  220.0630 C   0  0  0  0  0  0  0  0  0  0  0  0
  141.1640   72.7890  219.4130 C   0  0  0  0  0  0  0  0  0  0  0  0
  140.1960   73.4100  218.8980 O   0  0  0  0  0  0  0  0  0  0  0  0
  142.4810   73.3750  219.3800 N   0  0  0  0  0  0  0  0  0  0  0  0
  143.5790   72.8590  218.5760 C   0  0  0  0  0  0  0  0  0  0  0  0
  144.7610   73.7850  218.8590 C   0  0  2  0  0  0  0  0  0  0  0  0
  145.9780   73.0880  218.9560 O   0  0  0  0  0  0  0  0  0  0  0  0
  144.4120   74.5310  220.1500 C   0  0  0  0  0  0  0  0  0  0  0  0
  142.8830   74.4700  220.2570 C   0  0  1  0  0  0  0  0  0  0  0  0
  142.2010   75.7750  219.8030 C   0  0  0  0  0  0  0  0  0  0  0  0
  141.2310   76.3050  220.8270 C   0  0  0  0  0  0  0  0  0  0  0  0
  141.4370   77.5600  221.4260 C   0  0  0  0  0  0  0  0  0  0  0  0
  140.5270   78.0490  222.3680 C   0  0  0  0  0  0  0  0  0  0  0  0
  139.4060   77.2920  222.7180 C   0  0  0  0  0  0  0  0  0  0  0  0
  139.1930   76.0440  222.1260 C   0  0  0  0  0  0  0  0  0  0  0  0
  140.1010   75.5510  221.1830 C   0  0  0  0  0  0  0  0  0  0  0  0
  140.0620   71.0820  223.6680 C   0  0  0  0  0  0  0  0  0  0  0  0
  139.4380   69.8290  223.5590 C   0  0  0  0  0  0  0  0  0  0  0  0
  139.3720   68.9910  224.6740 C   0  0  0  0  0  0  0  0  0  0  0  0
  139.9150   69.4120  225.8940 C   0  0  0  0  0  0  0  0  0  0  0  0
  139.8920   68.5850  227.0270 C   0  0  0  0  0  0  0  0  0  0  0  0
  140.4540   69.0310  228.2290 C   0  0  0  0  0  0  0  0  0  0  0  0
  140.4380   68.2290  229.3220 F   0  0  0  0  0  0  0  0  0  0  0  0
  141.0340   70.3020  228.3060 C   0  0  0  0  0  0  0  0  0  0  0  0
  141.0550   71.1350  227.1820 C   0  0  0  0  0  0  0  0  0  0  0  0
  140.4970   70.6950  225.9760 C   0  0  0  0  0  0  0  0  0  0  0  0
  140.5470   71.4880  224.8730 N   0  0  0  0  0  0  0  0  0  0  0  0
  141.8473   71.0617  220.4574 H   0  0  0  0  0  0  0  0  0  0  0  0
  140.4732   70.7880  219.3021 H   0  0  0  0  0  0  0  0  0  0  0  0
  143.8197   71.8270  218.8708 H   0  0  0  0  0  0  0  0  0  0  0  0
  143.3257   72.8352  217.5058 H   0  0  0  0  0  0  0  0  0  0  0  0
  144.9163   74.4882  218.0275 H   0  0  0  0  0  0  0  0  0  0  0  0
  146.7100   73.7560  219.0180 H   0  0  0  0  0  0  0  0  0  0  0  0
  144.8781   74.0390  221.0164 H   0  0  0  0  0  0  0  0  0  0  0  0
  144.7793   75.5677  220.1347 H   0  0  0  0  0  0  0  0  0  0  0  0
  142.5806   74.3221  221.3042 H   0  0  0  0  0  0  0  0  0  0  0  0
  142.9762   76.5348  219.6249 H   0  0  0  0  0  0  0  0  0  0  0  0
  141.6332   75.5545  218.8871 H   0  0  0  0  0  0  0  0  0  0  0  0
  142.3177   78.1596  221.1524 H   0  0  0  0  0  0  0  0  0  0  0  0
  140.6938   79.0312  222.8343 H   0  0  0  0  0  0  0  0  0  0  0  0
  138.6911   77.6783  223.4595 H   0  0  0  0  0  0  0  0  0  0  0  0
  138.3102   75.4486  222.4020 H   0  0  0  0  0  0  0  0  0  0  0  0
  139.9292   74.5688  220.7185 H   0  0  0  0  0  0  0  0  0  0  0  0
  139.0035   69.5092  222.6004 H   0  0  0  0  0  0  0  0  0  0  0  0
  138.8949   68.0031  224.5941 H   0  0  0  0  0  0  0  0  0  0  0  0
  139.4328   67.5870  226.9709 H   0  0  0  0  0  0  0  0  0  0  0  0
  141.4747   70.6473  229.2529 H   0  0  0  0  0  0  0  0  0  0  0  0
  141.5095   72.1347  227.2460 H   0  0  0  0  0  0  0  0  0  0  0  0
  1  2  2  0
  2  3  1  0
  3  4  1  0
  4  5  1  0
  5  6  2  0
  5  7  1  0
  7  8  1  0
  8  9  1  0
  9 10  1  0
  9 11  1  0
 11 12  1  0
 12 13  1  0
 13 14  1  0
 14 15  2  0
 15 16  1  0
 16 17  2  0
 17 18  1  0
 18 19  2  0
  2 20  1  0
 20 21  2  0
 21 22  1  0
 22 23  2  0
 23 24  1  0
 24 25  2  0
 25 26  1  0
 25 27  1  0
 27 28  2  0
 28 29  1  0
 29 30  2  0
 12  7  1  0
 19 14  1  0
 30 20  1  0
 29 23  1  0
  4 31  1  0
  4 32  1  0
  8 33  1  0
  8 34  1  0
  9 35  1  6
 10 36  1  0
 11 37  1  0
 11 38  1  0
 12 39  1  1
 13 40  1  0
 13 41  1  0
 15 42  1  0
 16 43  1  0
 17 44  1  0
 18 45  1  0
 19 46  1  0
 21 47  1  0
 22 48  1  0
 24 49  1  0
 27 50  1  0
 28 51  1  0
M  CHG  1   3  -1
M  END
>  <UniqueID>  (49) 
23

>  <SMILES>  (49) 
O=C([N-]CC(=O)N1C[C@H](O)C[C@H]1Cc1ccccc1)c1ccc2cc(F)ccc2n1

>  <Energy>  (49) 
57.17510688318018

>  <Genealogy>  (49) 
O=C([N-]CC(=O)N1C[C@H](O)C[C@H]1Cc1ccccc1)c1ccc2cc(F)ccc2n1 (protonated)
O=C([N-]CC(=O)N1C[C@H](O)C[C@H]1Cc1ccccc1)c1ccc2cc(F)ccc2n1 (3D coordinates assigned)
O=C([N-]CC(=O)N1C[C@H](O)C[C@H]1Cc1ccccc1)c1ccc2cc(F)ccc2n1 (nonaromatic ring conformer: 57.17510688318018 kcal/mol)

>  <smiles>  (49) 
O=C(NCC(=O)N1C[C@H](O)C[C@H]1Cc1ccccc1)c1ccc2cc(F)ccc2n1

>  <score_type>  (49) 
oracle

>  <origin>  (49) 
autodockgpu

>  <m_score__min__energy>  (49) 
-8.5099999999999998

>  <m_primary>  (49) 
energy

>  <meeko>  (49) 
{"free_energy": -7.65, "intermolecular_energy": -10.04, "internal_energy": -1.57, "cluster_size": 4, "cluster_id": 2, "rank_in_cluster": 4}

>  <energy>  (49) 
-7.8

>  <cluster_rmsd>  (49) 
1.94

>  <rmsd>  (49) 
271.81

>  <cluster>  (49) 
1

$$$$
UYYINUAOVYUWQM-XVQRQBGSNA-M
     RDKit          3D

 51 54  0  0  0  0  0  0  0  0999 V2000
  141.2410   72.2100  221.5100 O   0  0  0  0  0  0  0  0  0  0  0  0
  140.4810   72.5610  222.4500 C   0  0  0  0  0  0  0  0  0  0  0  0
  139.8160   73.8300  222.3540 N   0  0  0  0  0  0  0  0  0  0  0  0
  138.9420   74.3050  221.2810 C   0  0  0  0  0  0  0  0  0  0  0  0
  138.5550   75.7470  221.4620 C   0  0  0  0  0  0  0  0  0  0  0  0
  137.4610   76.0110  222.0300 O   0  0  0  0  0  0  0  0  0  0  0  0
  139.4040   76.8260  221.0210 N   0  0  0  0  0  0  0  0  0  0  0  0
  138.9560   77.9130  220.1620 C   0  0  0  0  0  0  0  0  0  0  0  0
  140.1800   78.8050  219.9620 C   0  0  2  0  0  0  0  0  0  0  0  0
  140.2770   79.2950  218.6480 O   0  0  0  0  0  0  0  0  0  0  0  0
  141.3900   77.9540  220.3570 C   0  0  0  0  0  0  0  0  0  0  0  0
  140.8390   76.8640  221.2850 C   0  0  1  0  0  0  0  0  0  0  0  0
  141.0840   77.1710  222.7760 C   0  0  0  0  0  0  0  0  0  0  0  0
  141.2940   78.6400  223.0360 C   0  0  0  0  0  0  0  0  0  0  0  0
  140.1980   79.4930  223.2480 C   0  0  0  0  0  0  0  0  0  0  0  0
  140.4020   80.8530  223.4980 C   0  0  0  0  0  0  0  0  0  0  0  0
  141.6990   81.3720  223.5390 C   0  0  0  0  0  0  0  0  0  0  0  0
  142.7950   80.5290  223.3300 C   0  0  0  0  0  0  0  0  0  0  0  0
  142.5950   79.1680  223.0800 C   0  0  0  0  0  0  0  0  0  0  0  0
  140.2530   71.6200  223.5590 C   0  0  0  0  0  0  0  0  0  0  0  0
  139.5730   70.4070  223.3660 C   0  0  0  0  0  0  0  0  0  0  0  0
  139.4110   69.5280  224.4390 C   0  0  0  0  0  0  0  0  0  0  0  0
  139.9150   69.8690  225.7000 C   0  0  0  0  0  0  0  0  0  0  0  0
  139.7960   68.9980  226.7930 C   0  0  0  0  0  0  0  0  0  0  0  0
  140.3210   69.3630  228.0380 C   0  0  0  0  0  0  0  0  0  0  0  0
  140.2120   68.5180  229.0930 F   0  0  0  0  0  0  0  0  0  0  0  0
  140.9610   70.5980  228.1970 C   0  0  0  0  0  0  0  0  0  0  0  0
  141.0770   71.4740  227.1140 C   0  0  0  0  0  0  0  0  0  0  0  0
  140.5560   71.1150  225.8650 C   0  0  0  0  0  0  0  0  0  0  0  0
  140.7000   71.9500  224.8020 N   0  0  0  0  0  0  0  0  0  0  0  0
  139.4682   74.1969  220.3211 H   0  0  0  0  0  0  0  0  0  0  0  0
  138.0219   73.7025  221.3023 H   0  0  0  0  0  0  0  0  0  0  0  0
  138.6044   77.5203  219.1965 H   0  0  0  0  0  0  0  0  0  0  0  0
  138.1160   78.4660  220.6076 H   0  0  0  0  0  0  0  0  0  0  0  0
  140.1137   79.7088  220.5856 H   0  0  0  0  0  0  0  0  0  0  0  0
  140.1750   78.5270  218.0260 H   0  0  0  0  0  0  0  0  0  0  0  0
  141.8505   77.5032  219.4655 H   0  0  0  0  0  0  0  0  0  0  0  0
  142.1681   78.5550  220.8503 H   0  0  0  0  0  0  0  0  0  0  0  0
  141.3431   75.9062  221.0887 H   0  0  0  0  0  0  0  0  0  0  0  0
  140.2117   76.8317  223.3539 H   0  0  0  0  0  0  0  0  0  0  0  0
  142.0004   76.6437  223.0795 H   0  0  0  0  0  0  0  0  0  0  0  0
  139.1753   79.0890  223.2171 H   0  0  0  0  0  0  0  0  0  0  0  0
  139.5400   81.5161  223.6628 H   0  0  0  0  0  0  0  0  0  0  0  0
  141.8576   82.4426  223.7355 H   0  0  0  0  0  0  0  0  0  0  0  0
  143.8159   80.9372  223.3623 H   0  0  0  0  0  0  0  0  0  0  0  0
  143.4598   78.5081  222.9171 H   0  0  0  0  0  0  0  0  0  0  0  0
  139.1701   70.1504  222.3751 H   0  0  0  0  0  0  0  0  0  0  0  0
  138.8890   68.5707  224.2939 H   0  0  0  0  0  0  0  0  0  0  0  0
  139.2904   68.0287  226.6717 H   0  0  0  0  0  0  0  0  0  0  0  0
  141.3737   70.8797  229.1770 H   0  0  0  0  0  0  0  0  0  0  0  0
  141.5774   72.4451  227.2429 H   0  0  0  0  0  0  0  0  0  0  0  0
  1  2  2  0
  2  3  1  0
  3  4  1  0
  4  5  1  0
  5  6  2  0
  5  7  1  0
  7  8  1  0
  8  9  1  0
  9 10  1  0
  9 11  1  0
 11 12  1  0
 12 13  1  0
 13 14  1  0
 14 15  2  0
 15 16  1  0
 16 17  2  0
 17 18  1  0
 18 19  2  0
  2 20  1  0
 20 21  2  0
 21 22  1  0
 22 23  2  0
 23 24  1  0
 24 25  2  0
 25 26  1  0
 25 27  1  0
 27 28  2  0
 28 29  1  0
 29 30  2  0
 12  7  1  0
 19 14  1  0
 30 20  1  0
 29 23  1  0
  4 31  1  0
  4 32  1  0
  8 33  1  0
  8 34  1  0
  9 35  1  1
 10 36  1  0
 11 37  1  0
 11 38  1  0
 12 39  1  6
 13 40  1  0
 13 41  1  0
 15 42  1  0
 16 43  1  0
 17 44  1  0
 18 45  1  0
 19 46  1  0
 21 47  1  0
 22 48  1  0
 24 49  1  0
 27 50  1  0
 28 51  1  0
M  CHG  1   3  -1
M  END
>  <UniqueID>  (50) 
23

>  <SMILES>  (50) 
O=C([N-]CC(=O)N1C[C@H](O)C[C@H]1Cc1ccccc1)c1ccc2cc(F)ccc2n1

>  <Energy>  (50) 
57.17510688318018

>  <Genealogy>  (50) 
O=C([N-]CC(=O)N1C[C@H](O)C[C@H]1Cc1ccccc1)c1ccc2cc(F)ccc2n1 (protonated)
O=C([N-]CC(=O)N1C[C@H](O)C[C@H]1Cc1ccccc1)c1ccc2cc(F)ccc2n1 (3D coordinates assigned)
O=C([N-]CC(=O)N1C[C@H](O)C[C@H]1Cc1ccccc1)c1ccc2cc(F)ccc2n1 (nonaromatic ring conformer: 57.17510688318018 kcal/mol)

>  <smiles>  (50) 
O=C(NCC(=O)N1C[C@H](O)C[C@H]1Cc1ccccc1)c1ccc2cc(F)ccc2n1

>  <score_type>  (50) 
oracle

>  <origin>  (50) 
autodockgpu

>  <m_score__min__energy>  (50) 
-8.5099999999999998

>  <m_primary>  (50) 
energy

>  <meeko>  (50) 
{"free_energy": -7.92, "intermolecular_energy": -10.31, "internal_energy": -1.33, "cluster_size": 12, "cluster_id": 1, "rank_in_cluster": 7}

>  <energy>  (50) 
-7.72

>  <cluster_rmsd>  (50) 
1.18

>  <rmsd>  (50) 
271.43

>  <cluster>  (50) 
1

$$$$
UYYINUAOVYUWQM-XVQRQBGSNA-M
     RDKit          3D

 51 54  0  0  0  0  0  0  0  0999 V2000
  139.9450   73.6920  222.6820 O   0  0  0  0  0  0  0  0  0  0  0  0
  140.2900   72.4970  222.4860 C   0  0  0  0  0  0  0  0  0  0  0  0
  140.8650   72.1500  221.2170 N   0  0  0  0  0  0  0  0  0  0  0  0
  140.5130   72.6790  219.9000 C   0  0  0  0  0  0  0  0  0  0  0  0
  141.6540   72.5780  218.9250 C   0  0  0  0  0  0  0  0  0  0  0  0
  141.4200   72.1390  217.7660 O   0  0  0  0  0  0  0  0  0  0  0  0
  142.9930   72.9820  219.2730 N   0  0  0  0  0  0  0  0  0  0  0  0
  144.1910   72.2690  218.8560 C   0  0  0  0  0  0  0  0  0  0  0  0
  145.3600   73.0510  219.4530 C   0  0  2  0  0  0  0  0  0  0  0  0
  146.3770   72.2100  219.9360 O   0  0  0  0  0  0  0  0  0  0  0  0
  144.7590   73.9300  220.5540 C   0  0  0  0  0  0  0  0  0  0  0  0
  143.2750   74.0780  220.1950 C   0  0  1  0  0  0  0  0  0  0  0  0
  142.9570   75.4240  219.5150 C   0  0  0  0  0  0  0  0  0  0  0  0
  142.1680   76.3480  220.4050 C   0  0  0  0  0  0  0  0  0  0  0  0
  142.1720   77.7350  220.1800 C   0  0  0  0  0  0  0  0  0  0  0  0
  141.4300   78.5840  221.0050 C   0  0  0  0  0  0  0  0  0  0  0  0
  140.6760   78.0570  222.0580 C   0  0  0  0  0  0  0  0  0  0  0  0
  140.6650   76.6790  222.2860 C   0  0  0  0  0  0  0  0  0  0  0  0
  141.4060   75.8250  221.4640 C   0  0  0  0  0  0  0  0  0  0  0  0
  140.1570   71.5370  223.5950 C   0  0  0  0  0  0  0  0  0  0  0  0
  139.5570   70.2820  223.4140 C   0  0  0  0  0  0  0  0  0  0  0  0
  139.4850   69.3900  224.4850 C   0  0  0  0  0  0  0  0  0  0  0  0
  139.9990   69.7580  225.7340 C   0  0  0  0  0  0  0  0  0  0  0  0
  139.9690   68.8770  226.8250 C   0  0  0  0  0  0  0  0  0  0  0  0
  140.5020   69.2720  228.0570 C   0  0  0  0  0  0  0  0  0  0  0  0
  140.4800   68.4180  229.1090 F   0  0  0  0  0  0  0  0  0  0  0  0
  141.0600   70.5470  228.2070 C   0  0  0  0  0  0  0  0  0  0  0  0
  141.0860   71.4340  227.1260 C   0  0  0  0  0  0  0  0  0  0  0  0
  140.5570   71.0450  225.8900 C   0  0  0  0  0  0  0  0  0  0  0  0
  140.6140   71.8920  224.8280 N   0  0  0  0  0  0  0  0  0  0  0  0
  139.6585   72.1093  219.5059 H   0  0  0  0  0  0  0  0  0  0  0  0
  140.2629   73.7436  220.0189 H   0  0  0  0  0  0  0  0  0  0  0  0
  144.1798   71.2393  219.2428 H   0  0  0  0  0  0  0  0  0  0  0  0
  144.2638   72.1990  217.7606 H   0  0  0  0  0  0  0  0  0  0  0  0
  145.8556   73.6638  218.6856 H   0  0  0  0  0  0  0  0  0  0  0  0
  146.1090   71.8900  220.8380 H   0  0  0  0  0  0  0  0  0  0  0  0
  144.8708   73.4467  221.5358 H   0  0  0  0  0  0  0  0  0  0  0  0
  145.2629   74.9057  220.6182 H   0  0  0  0  0  0  0  0  0  0  0  0
  142.6585   74.0497  221.1056 H   0  0  0  0  0  0  0  0  0  0  0  0
  143.9036   75.9159  219.2466 H   0  0  0  0  0  0  0  0  0  0  0  0
  142.3446   75.2127  218.6260 H   0  0  0  0  0  0  0  0  0  0  0  0
  142.7615   78.1539  219.3512 H   0  0  0  0  0  0  0  0  0  0  0  0
  141.4390   79.6693  220.8258 H   0  0  0  0  0  0  0  0  0  0  0  0
  140.0921   78.7270  222.7062 H   0  0  0  0  0  0  0  0  0  0  0  0
  140.0717   76.2647  223.1145 H   0  0  0  0  0  0  0  0  0  0  0  0
  141.3927   74.7403  221.6465 H   0  0  0  0  0  0  0  0  0  0  0  0
  139.1454   70.0023  222.4330 H   0  0  0  0  0  0  0  0  0  0  0  0
  139.0254   68.4001  224.3480 H   0  0  0  0  0  0  0  0  0  0  0  0
  139.5267   67.8762  226.7122 H   0  0  0  0  0  0  0  0  0  0  0  0
  141.4790   70.8520  229.1773 H   0  0  0  0  0  0  0  0  0  0  0  0
  141.5219   72.4367  227.2471 H   0  0  0  0  0  0  0  0  0  0  0  0
  1  2  2  0
  2  3  1  0
  3  4  1  0
  4  5  1  0
  5  6  2  0
  5  7  1  0
  7  8  1  0
  8  9  1  0
  9 10  1  0
  9 11  1  0
 11 12  1  0
 12 13  1  0
 13 14  1  0
 14 15  2  0
 15 16  1  0
 16 17  2  0
 17 18  1  0
 18 19  2  0
  2 20  1  0
 20 21  2  0
 21 22  1  0
 22 23  2  0
 23 24  1  0
 24 25  2  0
 25 26  1  0
 25 27  1  0
 27 28  2  0
 28 29  1  0
 29 30  2  0
 12  7  1  0
 19 14  1  0
 30 20  1  0
 29 23  1  0
  4 31  1  0
  4 32  1  0
  8 33  1  0
  8 34  1  0
  9 35  1  6
 10 36  1  0
 11 37  1  0
 11 38  1  0
 12 39  1  1
 13 40  1  0
 13 41  1  0
 15 42  1  0
 16 43  1  0
 17 44  1  0
 18 45  1  0
 19 46  1  0
 21 47  1  0
 22 48  1  0
 24 49  1  0
 27 50  1  0
 28 51  1  0
M  CHG  1   3  -1
M  END
>  <UniqueID>  (51) 
23

>  <SMILES>  (51) 
O=C([N-]CC(=O)N1C[C@H](O)C[C@H]1Cc1ccccc1)c1ccc2cc(F)ccc2n1

>  <Energy>  (51) 
57.17510688318018

>  <Genealogy>  (51) 
O=C([N-]CC(=O)N1C[C@H](O)C[C@H]1Cc1ccccc1)c1ccc2cc(F)ccc2n1 (protonated)
O=C([N-]CC(=O)N1C[C@H](O)C[C@H]1Cc1ccccc1)c1ccc2cc(F)ccc2n1 (3D coordinates assigned)
O=C([N-]CC(=O)N1C[C@H](O)C[C@H]1Cc1ccccc1)c1ccc2cc(F)ccc2n1 (nonaromatic ring conformer: 57.17510688318018 kcal/mol)

>  <smiles>  (51) 
O=C(NCC(=O)N1C[C@H](O)C[C@H]1Cc1ccccc1)c1ccc2cc(F)ccc2n1

>  <score_type>  (51) 
oracle

>  <origin>  (51) 
autodockgpu

>  <m_score__min__energy>  (51) 
-8.5099999999999998

>  <m_primary>  (51) 
energy

>  <meeko>  (51) 
{"free_energy": -8.11, "intermolecular_energy": -10.49, "internal_energy": -1.52, "cluster_size": 4, "cluster_id": 2, "rank_in_cluster": 2}

>  <energy>  (51) 
-7.64

>  <cluster_rmsd>  (51) 
1.61

>  <rmsd>  (51) 
271.2

>  <cluster>  (51) 
1

$$$$
UYYINUAOVYUWQM-XVQRQBGSNA-M
     RDKit          3D

 51 54  0  0  0  0  0  0  0  0999 V2000
  140.1830   73.2520  222.7180 O   0  0  0  0  0  0  0  0  0  0  0  0
  140.1810   72.0110  222.5090 C   0  0  0  0  0  0  0  0  0  0  0  0
  140.3750   71.5430  221.1650 N   0  0  0  0  0  0  0  0  0  0  0  0
  140.6950   72.3360  219.9780 C   0  0  0  0  0  0  0  0  0  0  0  0
  141.8940   73.2180  220.1920 C   0  0  0  0  0  0  0  0  0  0  0  0
  141.7130   74.3830  220.6400 O   0  0  0  0  0  0  0  0  0  0  0  0
  143.2340   72.7640  219.9170 N   0  0  0  0  0  0  0  0  0  0  0  0
  144.4320   73.4070  220.4390 C   0  0  0  0  0  0  0  0  0  0  0  0
  145.6030   72.5920  219.8900 C   0  0  2  0  0  0  0  0  0  0  0  0
  146.6860   73.4020  219.5060 O   0  0  0  0  0  0  0  0  0  0  0  0
  145.0390   71.7800  218.7210 C   0  0  0  0  0  0  0  0  0  0  0  0
  143.5290   71.6890  218.9750 C   0  0  1  0  0  0  0  0  0  0  0  0
  143.1080   70.3370  219.5830 C   0  0  0  0  0  0  0  0  0  0  0  0
  144.0000   69.2050  219.1460 C   0  0  0  0  0  0  0  0  0  0  0  0
  144.0810   68.8400  217.7910 C   0  0  0  0  0  0  0  0  0  0  0  0
  144.9190   67.7950  217.3920 C   0  0  0  0  0  0  0  0  0  0  0  0
  145.6820   67.1070  218.3400 C   0  0  0  0  0  0  0  0  0  0  0  0
  145.6080   67.4650  219.6880 C   0  0  0  0  0  0  0  0  0  0  0  0
  144.7710   68.5100  220.0920 C   0  0  0  0  0  0  0  0  0  0  0  0
  140.0570   71.1040  223.6630 C   0  0  0  0  0  0  0  0  0  0  0  0
  139.4390   69.8500  223.5500 C   0  0  0  0  0  0  0  0  0  0  0  0
  139.3760   69.0080  224.6620 C   0  0  0  0  0  0  0  0  0  0  0  0
  139.9170   69.4270  225.8840 C   0  0  0  0  0  0  0  0  0  0  0  0
  139.8970   68.5960  227.0140 C   0  0  0  0  0  0  0  0  0  0  0  0
  140.4570   69.0410  228.2170 C   0  0  0  0  0  0  0  0  0  0  0  0
  140.4430   68.2360  229.3080 F   0  0  0  0  0  0  0  0  0  0  0  0
  141.0320   70.3140  228.2980 C   0  0  0  0  0  0  0  0  0  0  0  0
  141.0490   71.1500  227.1780 C   0  0  0  0  0  0  0  0  0  0  0  0
  140.4930   70.7130  225.9700 C   0  0  0  0  0  0  0  0  0  0  0  0
  140.5410   71.5090  224.8690 N   0  0  0  0  0  0  0  0  0  0  0  0
  140.9021   71.6532  219.1408 H   0  0  0  0  0  0  0  0  0  0  0  0
  139.8328   72.9839  219.7615 H   0  0  0  0  0  0  0  0  0  0  0  0
  144.4920   74.4489  220.0914 H   0  0  0  0  0  0  0  0  0  0  0  0
  144.4342   73.4362  221.5386 H   0  0  0  0  0  0  0  0  0  0  0  0
  146.0190   71.9305  220.6642 H   0  0  0  0  0  0  0  0  0  0  0  0
  146.3470   74.3270  219.3790 H   0  0  0  0  0  0  0  0  0  0  0  0
  145.2382   72.2903  217.7671 H   0  0  0  0  0  0  0  0  0  0  0  0
  145.5021   70.7844  218.6550 H   0  0  0  0  0  0  0  0  0  0  0  0
  142.9773   71.7773  218.0275 H   0  0  0  0  0  0  0  0  0  0  0  0
  143.1490   70.4153  220.6794 H   0  0  0  0  0  0  0  0  0  0  0  0
  142.0898   70.1150  219.2310 H   0  0  0  0  0  0  0  0  0  0  0  0
  143.4825   69.3789  217.0417 H   0  0  0  0  0  0  0  0  0  0  0  0
  144.9782   67.5135  216.3303 H   0  0  0  0  0  0  0  0  0  0  0  0
  146.3403   66.2841  218.0245 H   0  0  0  0  0  0  0  0  0  0  0  0
  146.2093   66.9239  220.4334 H   0  0  0  0  0  0  0  0  0  0  0  0
  144.7163   68.7886  221.1547 H   0  0  0  0  0  0  0  0  0  0  0  0
  139.0061   69.5315  222.5902 H   0  0  0  0  0  0  0  0  0  0  0  0
  138.9029   68.0185  224.5785 H   0  0  0  0  0  0  0  0  0  0  0  0
  139.4419   67.5963  226.9547 H   0  0  0  0  0  0  0  0  0  0  0  0
  141.4719   70.6578  229.2458 H   0  0  0  0  0  0  0  0  0  0  0  0
  141.4993   72.1513  227.2458 H   0  0  0  0  0  0  0  0  0  0  0  0
  1  2  2  0
  2  3  1  0
  3  4  1  0
  4  5  1  0
  5  6  2  0
  5  7  1  0
  7  8  1  0
  8  9  1  0
  9 10  1  0
  9 11  1  0
 11 12  1  0
 12 13  1  0
 13 14  1  0
 14 15  2  0
 15 16  1  0
 16 17  2  0
 17 18  1  0
 18 19  2  0
  2 20  1  0
 20 21  2  0
 21 22  1  0
 22 23  2  0
 23 24  1  0
 24 25  2  0
 25 26  1  0
 25 27  1  0
 27 28  2  0
 28 29  1  0
 29 30  2  0
 12  7  1  0
 19 14  1  0
 30 20  1  0
 29 23  1  0
  4 31  1  0
  4 32  1  0
  8 33  1  0
  8 34  1  0
  9 35  1  1
 10 36  1  0
 11 37  1  0
 11 38  1  0
 12 39  1  6
 13 40  1  0
 13 41  1  0
 15 42  1  0
 16 43  1  0
 17 44  1  0
 18 45  1  0
 19 46  1  0
 21 47  1  0
 22 48  1  0
 24 49  1  0
 27 50  1  0
 28 51  1  0
M  CHG  1   3  -1
M  END
>  <UniqueID>  (52) 
23

>  <SMILES>  (52) 
O=C([N-]CC(=O)N1C[C@H](O)C[C@H]1Cc1ccccc1)c1ccc2cc(F)ccc2n1

>  <Energy>  (52) 
57.17510688318018

>  <Genealogy>  (52) 
O=C([N-]CC(=O)N1C[C@H](O)C[C@H]1Cc1ccccc1)c1ccc2cc(F)ccc2n1 (protonated)
O=C([N-]CC(=O)N1C[C@H](O)C[C@H]1Cc1ccccc1)c1ccc2cc(F)ccc2n1 (3D coordinates assigned)
O=C([N-]CC(=O)N1C[C@H](O)C[C@H]1Cc1ccccc1)c1ccc2cc(F)ccc2n1 (nonaromatic ring conformer: 57.17510688318018 kcal/mol)

>  <smiles>  (52) 
O=C(NCC(=O)N1C[C@H](O)C[C@H]1Cc1ccccc1)c1ccc2cc(F)ccc2n1

>  <score_type>  (52) 
oracle

>  <origin>  (52) 
autodockgpu

>  <m_score__min__energy>  (52) 
-8.5099999999999998

>  <m_primary>  (52) 
energy

>  <meeko>  (52) 
{"free_energy": -8.08, "intermolecular_energy": -10.47, "internal_energy": -1.25, "cluster_size": 1, "cluster_id": 3, "rank_in_cluster": 1}

>  <energy>  (52) 
-7.28

>  <cluster_rmsd>  (52) 
1.53

>  <rmsd>  (52) 
271.75

>  <cluster>  (52) 
1

$$$$
UYYINUAOVYUWQM-XVQRQBGSNA-M
     RDKit          3D

 51 54  0  0  0  0  0  0  0  0999 V2000
  139.9470   73.4000  222.7040 O   0  0  0  0  0  0  0  0  0  0  0  0
  139.9650   72.1660  222.4600 C   0  0  0  0  0  0  0  0  0  0  0  0
  140.1140   71.7400  221.0970 N   0  0  0  0  0  0  0  0  0  0  0  0
  141.2090   70.9620  220.5170 C   0  0  0  0  0  0  0  0  0  0  0  0
  141.7820   71.6180  219.2910 C   0  0  0  0  0  0  0  0  0  0  0  0
  141.2880   71.3320  218.1670 O   0  0  0  0  0  0  0  0  0  0  0  0
  142.8620   72.5710  219.3690 N   0  0  0  0  0  0  0  0  0  0  0  0
  144.1580   72.3830  218.7340 C   0  0  0  0  0  0  0  0  0  0  0  0
  144.9690   73.6290  219.0860 C   0  0  2  0  0  0  0  0  0  0  0  0
  146.3130   73.3320  219.3710 O   0  0  0  0  0  0  0  0  0  0  0  0
  144.2510   74.2770  220.2730 C   0  0  0  0  0  0  0  0  0  0  0  0
  142.8070   73.7640  220.2080 C   0  0  1  0  0  0  0  0  0  0  0  0
  141.8370   74.7890  219.5890 C   0  0  0  0  0  0  0  0  0  0  0  0
  141.6140   75.9830  220.4790 C   0  0  0  0  0  0  0  0  0  0  0  0
  140.9930   75.8370  221.7310 C   0  0  0  0  0  0  0  0  0  0  0  0
  140.7980   76.9480  222.5560 C   0  0  0  0  0  0  0  0  0  0  0  0
  141.2240   78.2130  222.1400 C   0  0  0  0  0  0  0  0  0  0  0  0
  141.8440   78.3670  220.8980 C   0  0  0  0  0  0  0  0  0  0  0  0
  142.0410   77.2580  220.0690 C   0  0  0  0  0  0  0  0  0  0  0  0
  139.9110   71.2250  223.5910 C   0  0  0  0  0  0  0  0  0  0  0  0
  139.3360   69.9510  223.4630 C   0  0  0  0  0  0  0  0  0  0  0  0
  139.3380   69.0790  224.5530 C   0  0  0  0  0  0  0  0  0  0  0  0
  139.9010   69.4850  225.7690 C   0  0  0  0  0  0  0  0  0  0  0  0
  139.9460   68.6250  226.8760 C   0  0  0  0  0  0  0  0  0  0  0  0
  140.5260   69.0590  228.0740 C   0  0  0  0  0  0  0  0  0  0  0  0
  140.5760   68.2250  229.1410 F   0  0  0  0  0  0  0  0  0  0  0  0
  141.0560   70.3500  228.1730 C   0  0  0  0  0  0  0  0  0  0  0  0
  141.0070   71.2160  227.0760 C   0  0  0  0  0  0  0  0  0  0  0  0
  140.4310   70.7890  225.8730 C   0  0  0  0  0  0  0  0  0  0  0  0
  140.4150   71.6160  224.7940 N   0  0  0  0  0  0  0  0  0  0  0  0
  142.0058   70.8566  221.2680 H   0  0  0  0  0  0  0  0  0  0  0  0
  140.8078   69.9817  220.2203 H   0  0  0  0  0  0  0  0  0  0  0  0
  144.6505   71.4805  219.1250 H   0  0  0  0  0  0  0  0  0  0  0  0
  144.0643   72.2507  217.6460 H   0  0  0  0  0  0  0  0  0  0  0  0
  145.0188   74.3193  218.2310 H   0  0  0  0  0  0  0  0  0  0  0  0
  146.8270   74.1820  219.3420 H   0  0  0  0  0  0  0  0  0  0  0  0
  144.7238   73.9757  221.2194 H   0  0  0  0  0  0  0  0  0  0  0  0
  144.2965   75.3751  220.2275 H   0  0  0  0  0  0  0  0  0  0  0  0
  142.4277   73.5663  221.2214 H   0  0  0  0  0  0  0  0  0  0  0  0
  142.2537   75.1355  218.6318 H   0  0  0  0  0  0  0  0  0  0  0  0
  140.8667   74.2895  219.4508 H   0  0  0  0  0  0  0  0  0  0  0  0
  140.6586   74.8432  222.0634 H   0  0  0  0  0  0  0  0  0  0  0  0
  140.3088   76.8271  223.5338 H   0  0  0  0  0  0  0  0  0  0  0  0
  141.0709   79.0866  222.7906 H   0  0  0  0  0  0  0  0  0  0  0  0
  142.1781   79.3628  220.5711 H   0  0  0  0  0  0  0  0  0  0  0  0
  142.5318   77.3839  219.0927 H   0  0  0  0  0  0  0  0  0  0  0  0
  138.8859   69.6412  222.5083 H   0  0  0  0  0  0  0  0  0  0  0  0
  138.8983   68.0753  224.4569 H   0  0  0  0  0  0  0  0  0  0  0  0
  139.5261   67.6109  226.8030 H   0  0  0  0  0  0  0  0  0  0  0  0
  141.5124   70.6848  229.1162 H   0  0  0  0  0  0  0  0  0  0  0  0
  141.4206   72.2320  227.1580 H   0  0  0  0  0  0  0  0  0  0  0  0
  1  2  2  0
  2  3  1  0
  3  4  1  0
  4  5  1  0
  5  6  2  0
  5  7  1  0
  7  8  1  0
  8  9  1  0
  9 10  1  0
  9 11  1  0
 11 12  1  0
 12 13  1  0
 13 14  1  0
 14 15  2  0
 15 16  1  0
 16 17  2  0
 17 18  1  0
 18 19  2  0
  2 20  1  0
 20 21  2  0
 21 22  1  0
 22 23  2  0
 23 24  1  0
 24 25  2  0
 25 26  1  0
 25 27  1  0
 27 28  2  0
 28 29  1  0
 29 30  2  0
 12  7  1  0
 19 14  1  0
 30 20  1  0
 29 23  1  0
  4 31  1  0
  4 32  1  0
  8 33  1  0
  8 34  1  0
  9 35  1  6
 10 36  1  0
 11 37  1  0
 11 38  1  0
 12 39  1  1
 13 40  1  0
 13 41  1  0
 15 42  1  0
 16 43  1  0
 17 44  1  0
 18 45  1  0
 19 46  1  0
 21 47  1  0
 22 48  1  0
 24 49  1  0
 27 50  1  0
 28 51  1  0
M  CHG  1   3  -1
M  END
>  <UniqueID>  (53) 
23

>  <SMILES>  (53) 
O=C([N-]CC(=O)N1C[C@H](O)C[C@H]1Cc1ccccc1)c1ccc2cc(F)ccc2n1

>  <Energy>  (53) 
57.17510688318018

>  <Genealogy>  (53) 
O=C([N-]CC(=O)N1C[C@H](O)C[C@H]1Cc1ccccc1)c1ccc2cc(F)ccc2n1 (protonated)
O=C([N-]CC(=O)N1C[C@H](O)C[C@H]1Cc1ccccc1)c1ccc2cc(F)ccc2n1 (3D coordinates assigned)
O=C([N-]CC(=O)N1C[C@H](O)C[C@H]1Cc1ccccc1)c1ccc2cc(F)ccc2n1 (nonaromatic ring conformer: 57.17510688318018 kcal/mol)

>  <smiles>  (53) 
O=C(NCC(=O)N1C[C@H](O)C[C@H]1Cc1ccccc1)c1ccc2cc(F)ccc2n1

>  <score_type>  (53) 
oracle

>  <origin>  (53) 
autodockgpu

>  <m_score__min__energy>  (53) 
-8.5099999999999998

>  <m_primary>  (53) 
energy

>  <meeko>  (53) 
{"free_energy": -8.07, "intermolecular_energy": -10.45, "internal_energy": -1.47, "cluster_size": 4, "cluster_id": 2, "rank_in_cluster": 3}

>  <energy>  (53) 
-8.13

>  <cluster_rmsd>  (53) 
0.0

>  <rmsd>  (53) 
271.34

>  <cluster>  (53) 
2

$$$$
UYYINUAOVYUWQM-XVQRQBGSNA-M
     RDKit          3D

 51 54  0  0  0  0  0  0  0  0999 V2000
  140.4570   71.8660  221.1070 O   0  0  0  0  0  0  0  0  0  0  0  0
  140.3360   72.3950  222.2420 C   0  0  0  0  0  0  0  0  0  0  0  0
  140.3550   73.8280  222.3360 N   0  0  0  0  0  0  0  0  0  0  0  0
  139.3590   74.7710  221.8280 C   0  0  0  0  0  0  0  0  0  0  0  0
  139.9470   76.1310  221.5680 C   0  0  0  0  0  0  0  0  0  0  0  0
  139.6520   77.0740  222.3500 O   0  0  0  0  0  0  0  0  0  0  0  0
  140.8450   76.3760  220.4670 N   0  0  0  0  0  0  0  0  0  0  0  0
  140.8950   75.5590  219.2630 C   0  0  0  0  0  0  0  0  0  0  0  0
  141.9810   76.1860  218.3910 C   0  0  2  0  0  0  0  0  0  0  0  0
  142.7650   75.2220  217.7340 O   0  0  0  0  0  0  0  0  0  0  0  0
  142.8100   77.0740  219.3240 C   0  0  0  0  0  0  0  0  0  0  0  0
  141.8910   77.3930  220.5090 C   0  0  1  0  0  0  0  0  0  0  0  0
  141.2550   78.7940  220.4100 C   0  0  0  0  0  0  0  0  0  0  0  0
  141.5700   79.6550  221.6050 C   0  0  0  0  0  0  0  0  0  0  0  0
  142.1810   79.1030  222.7440 C   0  0  0  0  0  0  0  0  0  0  0  0
  142.4790   79.9110  223.8450 C   0  0  0  0  0  0  0  0  0  0  0  0
  142.1720   81.2740  223.8190 C   0  0  0  0  0  0  0  0  0  0  0  0
  141.5660   81.8310  222.6890 C   0  0  0  0  0  0  0  0  0  0  0  0
  141.2660   81.0270  221.5850 C   0  0  0  0  0  0  0  0  0  0  0  0
  140.1040   71.5200  223.4040 C   0  0  0  0  0  0  0  0  0  0  0  0
  139.3700   70.3290  223.2920 C   0  0  0  0  0  0  0  0  0  0  0  0
  139.2050   69.5120  224.4130 C   0  0  0  0  0  0  0  0  0  0  0  0
  139.7600   69.8930  225.6400 C   0  0  0  0  0  0  0  0  0  0  0  0
  139.6380   69.0830  226.7790 C   0  0  0  0  0  0  0  0  0  0  0  0
  140.2150   69.4880  227.9890 C   0  0  0  0  0  0  0  0  0  0  0  0
  140.1030   68.7020  229.0880 F   0  0  0  0  0  0  0  0  0  0  0  0
  140.9080   70.7010  228.0670 C   0  0  0  0  0  0  0  0  0  0  0  0
  141.0280   71.5170  226.9380 C   0  0  0  0  0  0  0  0  0  0  0  0
  140.4560   71.1180  225.7240 C   0  0  0  0  0  0  0  0  0  0  0  0
  140.6010   71.8920  224.6150 N   0  0  0  0  0  0  0  0  0  0  0  0
  138.9457   74.3777  220.8875 H   0  0  0  0  0  0  0  0  0  0  0  0
  138.5764   74.8814  222.5931 H   0  0  0  0  0  0  0  0  0  0  0  0
  141.1551   74.5200  219.5137 H   0  0  0  0  0  0  0  0  0  0  0  0
  139.9234   75.5301  218.7481 H   0  0  0  0  0  0  0  0  0  0  0  0
  141.5373   76.7768  217.5761 H   0  0  0  0  0  0  0  0  0  0  0  0
  143.1010   75.6230  216.8900 H   0  0  0  0  0  0  0  0  0  0  0  0
  143.7078   76.5388  219.6669 H   0  0  0  0  0  0  0  0  0  0  0  0
  143.1554   77.9875  218.8178 H   0  0  0  0  0  0  0  0  0  0  0  0
  142.4651   77.3889  221.4473 H   0  0  0  0  0  0  0  0  0  0  0  0
  141.6362   79.2916  219.5061 H   0  0  0  0  0  0  0  0  0  0  0  0
  140.1635   78.6640  220.3696 H   0  0  0  0  0  0  0  0  0  0  0  0
  142.4257   78.0308  222.7691 H   0  0  0  0  0  0  0  0  0  0  0  0
  142.9563   79.4729  224.7340 H   0  0  0  0  0  0  0  0  0  0  0  0
  142.4069   81.9080  224.6867 H   0  0  0  0  0  0  0  0  0  0  0  0
  141.3247   82.9040  222.6683 H   0  0  0  0  0  0  0  0  0  0  0  0
  140.7903   81.4700  220.6976 H   0  0  0  0  0  0  0  0  0  0  0  0
  138.9273   70.0406  222.3272 H   0  0  0  0  0  0  0  0  0  0  0  0
  138.6403   68.5715  224.3315 H   0  0  0  0  0  0  0  0  0  0  0  0
  139.0898   68.1310  226.7217 H   0  0  0  0  0  0  0  0  0  0  0  0
  141.3600   71.0137  229.0198 H   0  0  0  0  0  0  0  0  0  0  0  0
  141.5712   72.4713  227.0035 H   0  0  0  0  0  0  0  0  0  0  0  0
  1  2  2  0
  2  3  1  0
  3  4  1  0
  4  5  1  0
  5  6  2  0
  5  7  1  0
  7  8  1  0
  8  9  1  0
  9 10  1  0
  9 11  1  0
 11 12  1  0
 12 13  1  0
 13 14  1  0
 14 15  2  0
 15 16  1  0
 16 17  2  0
 17 18  1  0
 18 19  2  0
  2 20  1  0
 20 21  2  0
 21 22  1  0
 22 23  2  0
 23 24  1  0
 24 25  2  0
 25 26  1  0
 25 27  1  0
 27 28  2  0
 28 29  1  0
 29 30  2  0
 12  7  1  0
 19 14  1  0
 30 20  1  0
 29 23  1  0
  4 31  1  0
  4 32  1  0
  8 33  1  0
  8 34  1  0
  9 35  1  6
 10 36  1  0
 11 37  1  0
 11 38  1  0
 12 39  1  1
 13 40  1  0
 13 41  1  0
 15 42  1  0
 16 43  1  0
 17 44  1  0
 18 45  1  0
 19 46  1  0
 21 47  1  0
 22 48  1  0
 24 49  1  0
 27 50  1  0
 28 51  1  0
M  CHG  1   3  -1
M  END
>  <UniqueID>  (54) 
23

>  <SMILES>  (54) 
O=C([N-]CC(=O)N1C[C@H](O)C[C@H]1Cc1ccccc1)c1ccc2cc(F)ccc2n1

>  <Energy>  (54) 
57.17510688318018

>  <Genealogy>  (54) 
O=C([N-]CC(=O)N1C[C@H](O)C[C@H]1Cc1ccccc1)c1ccc2cc(F)ccc2n1 (protonated)
O=C([N-]CC(=O)N1C[C@H](O)C[C@H]1Cc1ccccc1)c1ccc2cc(F)ccc2n1 (3D coordinates assigned)
O=C([N-]CC(=O)N1C[C@H](O)C[C@H]1Cc1ccccc1)c1ccc2cc(F)ccc2n1 (nonaromatic ring conformer: 57.17510688318018 kcal/mol)

>  <smiles>  (54) 
O=C(NCC(=O)N1C[C@H](O)C[C@H]1Cc1ccccc1)c1ccc2cc(F)ccc2n1

>  <score_type>  (54) 
oracle

>  <origin>  (54) 
autodockgpu

>  <m_score__min__energy>  (54) 
-8.5099999999999998

>  <m_primary>  (54) 
energy

>  <meeko>  (54) 
{"free_energy": -8.15, "intermolecular_energy": -10.54, "internal_energy": -1.17, "cluster_size": 12, "cluster_id": 1, "rank_in_cluster": 6}

>  <energy>  (54) 
-8.11

>  <cluster_rmsd>  (54) 
0.48

>  <rmsd>  (54) 
271.41

>  <cluster>  (54) 
2

$$$$
UYYINUAOVYUWQM-XVQRQBGSNA-M
     RDKit          3D

 51 54  0  0  0  0  0  0  0  0999 V2000
  140.7520   72.9520  222.0610 O   0  0  0  0  0  0  0  0  0  0  0  0
  139.6680   72.4350  222.4390 C   0  0  0  0  0  0  0  0  0  0  0  0
  138.4720   72.7400  221.7050 N   0  0  0  0  0  0  0  0  0  0  0  0
  137.3990   73.6600  222.0840 C   0  0  0  0  0  0  0  0  0  0  0  0
  137.8110   75.0990  221.9440 C   0  0  0  0  0  0  0  0  0  0  0  0
  136.9690   75.9970  222.2190 O   0  0  0  0  0  0  0  0  0  0  0  0
  139.1380   75.4760  221.5240 N   0  0  0  0  0  0  0  0  0  0  0  0
  139.7930   74.9500  220.3360 C   0  0  0  0  0  0  0  0  0  0  0  0
  141.1650   75.6230  220.2960 C   0  0  2  0  0  0  0  0  0  0  0  0
  142.1820   74.7430  219.8850 O   0  0  0  0  0  0  0  0  0  0  0  0
  141.4050   76.1730  221.7050 C   0  0  0  0  0  0  0  0  0  0  0  0
  140.0120   76.3260  222.3280 C   0  0  1  0  0  0  0  0  0  0  0  0
  139.4990   77.7790  222.2910 C   0  0  0  0  0  0  0  0  0  0  0  0
  140.6050   78.7850  222.4670 C   0  0  0  0  0  0  0  0  0  0  0  0
  141.1920   78.9910  223.7270 C   0  0  0  0  0  0  0  0  0  0  0  0
  142.2250   79.9210  223.8790 C   0  0  0  0  0  0  0  0  0  0  0  0
  142.6810   80.6500  222.7770 C   0  0  0  0  0  0  0  0  0  0  0  0
  142.1040   80.4490  221.5210 C   0  0  0  0  0  0  0  0  0  0  0  0
  141.0700   79.5210  221.3630 C   0  0  0  0  0  0  0  0  0  0  0  0
  139.6980   71.4840  223.5620 C   0  0  0  0  0  0  0  0  0  0  0  0
  139.1540   70.1950  223.4500 C   0  0  0  0  0  0  0  0  0  0  0  0
  139.2370   69.3140  224.5300 C   0  0  0  0  0  0  0  0  0  0  0  0
  139.8470   69.7270  225.7210 C   0  0  0  0  0  0  0  0  0  0  0  0
  139.9730   68.8590  226.8160 C   0  0  0  0  0  0  0  0  0  0  0  0
  140.5980   69.3000  227.9870 C   0  0  0  0  0  0  0  0  0  0  0  0
  140.7260   68.4600  229.0430 F   0  0  0  0  0  0  0  0  0  0  0  0
  141.0950   70.6060  228.0720 C   0  0  0  0  0  0  0  0  0  0  0  0
  140.9670   71.4780  226.9880 C   0  0  0  0  0  0  0  0  0  0  0  0
  140.3440   71.0450  225.8110 C   0  0  0  0  0  0  0  0  0  0  0  0
  140.2500   71.8790  224.7420 N   0  0  0  0  0  0  0  0  0  0  0  0
  136.5289   73.4758  221.4367 H   0  0  0  0  0  0  0  0  0  0  0  0
  137.1558   73.4790  223.1414 H   0  0  0  0  0  0  0  0  0  0  0  0
  139.9022   73.8578  220.4086 H   0  0  0  0  0  0  0  0  0  0  0  0
  139.2114   75.1533  219.4248 H   0  0  0  0  0  0  0  0  0  0  0  0
  141.1851   76.4303  219.5491 H   0  0  0  0  0  0  0  0  0  0  0  0
  142.0720   73.8930  220.3860 H   0  0  0  0  0  0  0  0  0  0  0  0
  142.0141   75.4708  222.2932 H   0  0  0  0  0  0  0  0  0  0  0  0
  141.9493   77.1287  221.6828 H   0  0  0  0  0  0  0  0  0  0  0  0
  140.0369   76.0433  223.3908 H   0  0  0  0  0  0  0  0  0  0  0  0
  139.0116   77.9565  221.3210 H   0  0  0  0  0  0  0  0  0  0  0  0
  138.7949   77.9065  223.1265 H   0  0  0  0  0  0  0  0  0  0  0  0
  140.8376   78.4186  224.5969 H   0  0  0  0  0  0  0  0  0  0  0  0
  142.6798   80.0793  224.8680 H   0  0  0  0  0  0  0  0  0  0  0  0
  143.4936   81.3814  222.8988 H   0  0  0  0  0  0  0  0  0  0  0  0
  142.4639   81.0222  220.6539 H   0  0  0  0  0  0  0  0  0  0  0  0
  140.6189   79.3663  220.3717 H   0  0  0  0  0  0  0  0  0  0  0  0
  138.6649   69.8805  222.5163 H   0  0  0  0  0  0  0  0  0  0  0  0
  138.8242   68.2979  224.4456 H   0  0  0  0  0  0  0  0  0  0  0  0
  139.5809   67.8332  226.7537 H   0  0  0  0  0  0  0  0  0  0  0  0
  141.5876   70.9465  228.9947 H   0  0  0  0  0  0  0  0  0  0  0  0
  141.3556   72.5046  227.0591 H   0  0  0  0  0  0  0  0  0  0  0  0
  1  2  2  0
  2  3  1  0
  3  4  1  0
  4  5  1  0
  5  6  2  0
  5  7  1  0
  7  8  1  0
  8  9  1  0
  9 10  1  0
  9 11  1  0
 11 12  1  0
 12 13  1  0
 13 14  1  0
 14 15  2  0
 15 16  1  0
 16 17  2  0
 17 18  1  0
 18 19  2  0
  2 20  1  0
 20 21  2  0
 21 22  1  0
 22 23  2  0
 23 24  1  0
 24 25  2  0
 25 26  1  0
 25 27  1  0
 27 28  2  0
 28 29  1  0
 29 30  2  0
 12  7  1  0
 19 14  1  0
 30 20  1  0
 29 23  1  0
  4 31  1  0
  4 32  1  0
  8 33  1  0
  8 34  1  0
  9 35  1  6
 10 36  1  0
 11 37  1  0
 11 38  1  0
 12 39  1  1
 13 40  1  0
 13 41  1  0
 15 42  1  0
 16 43  1  0
 17 44  1  0
 18 45  1  0
 19 46  1  0
 21 47  1  0
 22 48  1  0
 24 49  1  0
 27 50  1  0
 28 51  1  0
M  CHG  1   3  -1
M  END
>  <UniqueID>  (55) 
23

>  <SMILES>  (55) 
O=C([N-]CC(=O)N1C[C@H](O)C[C@H]1Cc1ccccc1)c1ccc2cc(F)ccc2n1

>  <Energy>  (55) 
57.17510688318018

>  <Genealogy>  (55) 
O=C([N-]CC(=O)N1C[C@H](O)C[C@H]1Cc1ccccc1)c1ccc2cc(F)ccc2n1 (protonated)
O=C([N-]CC(=O)N1C[C@H](O)C[C@H]1Cc1ccccc1)c1ccc2cc(F)ccc2n1 (3D coordinates assigned)
O=C([N-]CC(=O)N1C[C@H](O)C[C@H]1Cc1ccccc1)c1ccc2cc(F)ccc2n1 (nonaromatic ring conformer: 57.17510688318018 kcal/mol)

>  <smiles>  (55) 
O=C(NCC(=O)N1C[C@H](O)C[C@H]1Cc1ccccc1)c1ccc2cc(F)ccc2n1

>  <score_type>  (55) 
oracle

>  <origin>  (55) 
autodockgpu

>  <m_score__min__energy>  (55) 
-8.5099999999999998

>  <m_primary>  (55) 
energy

>  <meeko>  (55) 
{"free_energy": -7.28, "intermolecular_energy": -9.66, "internal_energy": -1.98, "cluster_size": 12, "cluster_id": 1, "rank_in_cluster": 12}

>  <energy>  (55) 
-8.07

>  <cluster_rmsd>  (55) 
0.66

>  <rmsd>  (55) 
271.29

>  <cluster>  (55) 
2

$$$$
UYYINUAOVYUWQM-XVQRQBGSNA-M
     RDKit          3D

 51 54  0  0  0  0  0  0  0  0999 V2000
  139.6120   74.6420  222.3220 O   0  0  0  0  0  0  0  0  0  0  0  0
  140.2110   73.5900  221.9750 C   0  0  0  0  0  0  0  0  0  0  0  0
  141.1420   73.6610  220.8840 N   0  0  0  0  0  0  0  0  0  0  0  0
  142.4720   74.2690  220.8810 C   0  0  0  0  0  0  0  0  0  0  0  0
  142.9210   74.6420  219.4940 C   0  0  0  0  0  0  0  0  0  0  0  0
  143.5920   73.8040  218.8320 O   0  0  0  0  0  0  0  0  0  0  0  0
  142.5920   75.9140  218.9020 N   0  0  0  0  0  0  0  0  0  0  0  0
  142.3400   76.1080  217.4810 C   0  0  0  0  0  0  0  0  0  0  0  0
  142.0380   77.5970  217.3200 C   0  0  2  0  0  0  0  0  0  0  0  0
  142.6080   78.1370  216.1540 O   0  0  0  0  0  0  0  0  0  0  0  0
  142.5610   78.2720  218.5920 C   0  0  0  0  0  0  0  0  0  0  0  0
  142.6100   77.1660  219.6530 C   0  0  1  0  0  0  0  0  0  0  0  0
  141.4070   77.2100  220.6160 C   0  0  0  0  0  0  0  0  0  0  0  0
  141.5560   78.2710  221.6750 C   0  0  0  0  0  0  0  0  0  0  0  0
  141.8550   79.5980  221.3210 C   0  0  0  0  0  0  0  0  0  0  0  0
  141.9820   80.5790  222.3090 C   0  0  0  0  0  0  0  0  0  0  0  0
  141.8090   80.2440  223.6550 C   0  0  0  0  0  0  0  0  0  0  0  0
  141.5090   78.9280  224.0150 C   0  0  0  0  0  0  0  0  0  0  0  0
  141.3820   77.9430  223.0300 C   0  0  0  0  0  0  0  0  0  0  0  0
  139.9840   72.3620  222.7550 C   0  0  0  0  0  0  0  0  0  0  0  0
  139.1670   71.3270  222.2760 C   0  0  0  0  0  0  0  0  0  0  0  0
  139.0090   70.1650  223.0350 C   0  0  0  0  0  0  0  0  0  0  0  0
  139.6530   70.0480  224.2720 C   0  0  0  0  0  0  0  0  0  0  0  0
  139.5390   68.8840  225.0470 C   0  0  0  0  0  0  0  0  0  0  0  0
  140.2050   68.7950  226.2750 C   0  0  0  0  0  0  0  0  0  0  0  0
  140.1010   67.6680  227.0210 F   0  0  0  0  0  0  0  0  0  0  0  0
  140.9810   69.8650  226.7340 C   0  0  0  0  0  0  0  0  0  0  0  0
  141.0930   71.0310  225.9710 C   0  0  0  0  0  0  0  0  0  0  0  0
  140.4320   71.1280  224.7410 C   0  0  0  0  0  0  0  0  0  0  0  0
  140.5680   72.2460  223.9790 N   0  0  0  0  0  0  0  0  0  0  0  0
  142.4485   75.1765  221.5022 H   0  0  0  0  0  0  0  0  0  0  0  0
  143.1829   73.5304  221.2799 H   0  0  0  0  0  0  0  0  0  0  0  0
  143.2262   75.8295  216.8918 H   0  0  0  0  0  0  0  0  0  0  0  0
  141.5087   75.4820  217.1246 H   0  0  0  0  0  0  0  0  0  0  0  0
  140.9582   77.7683  217.1986 H   0  0  0  0  0  0  0  0  0  0  0  0
  143.3720   78.7110  216.4240 H   0  0  0  0  0  0  0  0  0  0  0  0
  143.5657   78.6862  218.4219 H   0  0  0  0  0  0  0  0  0  0  0  0
  141.9179   79.1082  218.9039 H   0  0  0  0  0  0  0  0  0  0  0  0
  143.5038   77.2827  220.2834 H   0  0  0  0  0  0  0  0  0  0  0  0
  140.4966   77.4171  220.0344 H   0  0  0  0  0  0  0  0  0  0  0  0
  141.3488   76.2359  221.1238 H   0  0  0  0  0  0  0  0  0  0  0  0
  141.9896   79.8657  220.2626 H   0  0  0  0  0  0  0  0  0  0  0  0
  142.2183   81.6156  222.0268 H   0  0  0  0  0  0  0  0  0  0  0  0
  141.9092   81.0170  224.4311 H   0  0  0  0  0  0  0  0  0  0  0  0
  141.3725   78.6660  225.0746 H   0  0  0  0  0  0  0  0  0  0  0  0
  141.1451   76.9080  223.3173 H   0  0  0  0  0  0  0  0  0  0  0  0
  138.6539   71.4299  221.3085 H   0  0  0  0  0  0  0  0  0  0  0  0
  138.3798   69.3438  222.6612 H   0  0  0  0  0  0  0  0  0  0  0  0
  138.9271   68.0425  224.6901 H   0  0  0  0  0  0  0  0  0  0  0  0
  141.5046   69.7885  227.6983 H   0  0  0  0  0  0  0  0  0  0  0  0
  141.7003   71.8719  226.3371 H   0  0  0  0  0  0  0  0  0  0  0  0
  1  2  2  0
  2  3  1  0
  3  4  1  0
  4  5  1  0
  5  6  2  0
  5  7  1  0
  7  8  1  0
  8  9  1  0
  9 10  1  0
  9 11  1  0
 11 12  1  0
 12 13  1  0
 13 14  1  0
 14 15  2  0
 15 16  1  0
 16 17  2  0
 17 18  1  0
 18 19  2  0
  2 20  1  0
 20 21  2  0
 21 22  1  0
 22 23  2  0
 23 24  1  0
 24 25  2  0
 25 26  1  0
 25 27  1  0
 27 28  2  0
 28 29  1  0
 29 30  2  0
 12  7  1  0
 19 14  1  0
 30 20  1  0
 29 23  1  0
  4 31  1  0
  4 32  1  0
  8 33  1  0
  8 34  1  0
  9 35  1  6
 10 36  1  0
 11 37  1  0
 11 38  1  0
 12 39  1  1
 13 40  1  0
 13 41  1  0
 15 42  1  0
 16 43  1  0
 17 44  1  0
 18 45  1  0
 19 46  1  0
 21 47  1  0
 22 48  1  0
 24 49  1  0
 27 50  1  0
 28 51  1  0
M  CHG  1   3  -1
M  END
>  <UniqueID>  (56) 
23

>  <SMILES>  (56) 
O=C([N-]CC(=O)N1C[C@H](O)C[C@H]1Cc1ccccc1)c1ccc2cc(F)ccc2n1

>  <Energy>  (56) 
57.17510688318018

>  <Genealogy>  (56) 
O=C([N-]CC(=O)N1C[C@H](O)C[C@H]1Cc1ccccc1)c1ccc2cc(F)ccc2n1 (protonated)
O=C([N-]CC(=O)N1C[C@H](O)C[C@H]1Cc1ccccc1)c1ccc2cc(F)ccc2n1 (3D coordinates assigned)
O=C([N-]CC(=O)N1C[C@H](O)C[C@H]1Cc1ccccc1)c1ccc2cc(F)ccc2n1 (nonaromatic ring conformer: 57.17510688318018 kcal/mol)

>  <smiles>  (56) 
O=C(NCC(=O)N1C[C@H](O)C[C@H]1Cc1ccccc1)c1ccc2cc(F)ccc2n1

>  <score_type>  (56) 
oracle

>  <origin>  (56) 
autodockgpu

>  <m_score__min__energy>  (56) 
-8.5099999999999998

>  <m_primary>  (56) 
energy

>  <meeko>  (56) 
{"free_energy": -7.64, "intermolecular_energy": -10.03, "internal_energy": -1.2, "cluster_size": 12, "cluster_id": 1, "rank_in_cluster": 11}

>  <energy>  (56) 
-7.65

>  <cluster_rmsd>  (56) 
0.92

>  <rmsd>  (56) 
271.27

>  <cluster>  (56) 
2

$$$$
UYYINUAOVYUWQM-XVQRQBGSNA-M
     RDKit          3D

 51 54  0  0  0  0  0  0  0  0999 V2000
  141.6880   72.3450  221.5670 O   0  0  0  0  0  0  0  0  0  0  0  0
  140.7570   72.6510  222.3570 C   0  0  0  0  0  0  0  0  0  0  0  0
  140.0200   73.8590  222.1130 N   0  0  0  0  0  0  0  0  0  0  0  0
  138.9190   74.0610  221.1720 C   0  0  0  0  0  0  0  0  0  0  0  0
  139.2850   75.0140  220.0670 C   0  0  0  0  0  0  0  0  0  0  0  0
  138.3570   75.5680  219.4170 O   0  0  0  0  0  0  0  0  0  0  0  0
  140.6570   75.3210  219.7480 N   0  0  0  0  0  0  0  0  0  0  0  0
  141.3900   74.7140  218.6460 C   0  0  0  0  0  0  0  0  0  0  0  0
  142.7860   75.3330  218.6950 C   0  0  2  0  0  0  0  0  0  0  0  0
  143.7970   74.3990  218.4160 O   0  0  0  0  0  0  0  0  0  0  0  0
  142.9260   75.9450  220.0920 C   0  0  0  0  0  0  0  0  0  0  0  0
  141.4920   76.1790  220.5830 C   0  0  1  0  0  0  0  0  0  0  0  0
  141.0420   77.6450  220.4340 C   0  0  0  0  0  0  0  0  0  0  0  0
  141.4680   78.5000  221.5990 C   0  0  0  0  0  0  0  0  0  0  0  0
  141.4090   78.0020  222.9120 C   0  0  0  0  0  0  0  0  0  0  0  0
  141.8140   78.7980  223.9860 C   0  0  0  0  0  0  0  0  0  0  0  0
  142.2850   80.0950  223.7600 C   0  0  0  0  0  0  0  0  0  0  0  0
  142.3490   80.5970  222.4580 C   0  0  0  0  0  0  0  0  0  0  0  0
  141.9440   79.8040  221.3800 C   0  0  0  0  0  0  0  0  0  0  0  0
  140.4220   71.7140  223.4420 C   0  0  0  0  0  0  0  0  0  0  0  0
  139.6740   70.5500  223.2050 C   0  0  0  0  0  0  0  0  0  0  0  0
  139.4090   69.6720  224.2580 C   0  0  0  0  0  0  0  0  0  0  0  0
  139.8790   69.9660  225.5440 C   0  0  0  0  0  0  0  0  0  0  0  0
  139.6570   69.0930  226.6190 C   0  0  0  0  0  0  0  0  0  0  0  0
  140.1500   69.4100  227.8900 C   0  0  0  0  0  0  0  0  0  0  0  0
  139.9410   68.5630  228.9270 F   0  0  0  0  0  0  0  0  0  0  0  0
  140.8600   70.5990  228.0930 C   0  0  0  0  0  0  0  0  0  0  0  0
  141.0790   71.4770  227.0270 C   0  0  0  0  0  0  0  0  0  0  0  0
  140.5910   71.1660  225.7530 C   0  0  0  0  0  0  0  0  0  0  0  0
  140.8340   72.0010  224.7070 N   0  0  0  0  0  0  0  0  0  0  0  0
  138.6491   73.0911  220.7287 H   0  0  0  0  0  0  0  0  0  0  0  0
  138.0748   74.4954  221.7275 H   0  0  0  0  0  0  0  0  0  0  0  0
  141.4481   73.6234  218.7773 H   0  0  0  0  0  0  0  0  0  0  0  0
  140.8971   74.8943  217.6793 H   0  0  0  0  0  0  0  0  0  0  0  0
  142.9031   76.1002  217.9155 H   0  0  0  0  0  0  0  0  0  0  0  0
  144.6400   74.8980  218.2540 H   0  0  0  0  0  0  0  0  0  0  0  0
  143.4541   75.2524  220.7639 H   0  0  0  0  0  0  0  0  0  0  0  0
  143.5077   76.8784  220.0720 H   0  0  0  0  0  0  0  0  0  0  0  0
  141.4151   75.9499  221.6561 H   0  0  0  0  0  0  0  0  0  0  0  0
  141.4821   78.0574  219.5141 H   0  0  0  0  0  0  0  0  0  0  0  0
  139.9427   77.6552  220.3960 H   0  0  0  0  0  0  0  0  0  0  0  0
  141.0423   76.9811  223.0946 H   0  0  0  0  0  0  0  0  0  0  0  0
  141.7623   78.4037  225.0116 H   0  0  0  0  0  0  0  0  0  0  0  0
  142.6050   80.7197  224.6070 H   0  0  0  0  0  0  0  0  0  0  0  0
  142.7186   81.6177  222.2805 H   0  0  0  0  0  0  0  0  0  0  0  0
  141.9982   80.2025  220.3562 H   0  0  0  0  0  0  0  0  0  0  0  0
  139.2984   70.3306  222.1947 H   0  0  0  0  0  0  0  0  0  0  0  0
  138.8329   68.7524  224.0779 H   0  0  0  0  0  0  0  0  0  0  0  0
  139.0958   68.1598  226.4633 H   0  0  0  0  0  0  0  0  0  0  0  0
  141.2466   70.8433  229.0934 H   0  0  0  0  0  0  0  0  0  0  0  0
  141.6349   72.4121  227.1899 H   0  0  0  0  0  0  0  0  0  0  0  0
  1  2  2  0
  2  3  1  0
  3  4  1  0
  4  5  1  0
  5  6  2  0
  5  7  1  0
  7  8  1  0
  8  9  1  0
  9 10  1  0
  9 11  1  0
 11 12  1  0
 12 13  1  0
 13 14  1  0
 14 15  2  0
 15 16  1  0
 16 17  2  0
 17 18  1  0
 18 19  2  0
  2 20  1  0
 20 21  2  0
 21 22  1  0
 22 23  2  0
 23 24  1  0
 24 25  2  0
 25 26  1  0
 25 27  1  0
 27 28  2  0
 28 29  1  0
 29 30  2  0
 12  7  1  0
 19 14  1  0
 30 20  1  0
 29 23  1  0
  4 31  1  0
  4 32  1  0
  8 33  1  0
  8 34  1  0
  9 35  1  6
 10 36  1  0
 11 37  1  0
 11 38  1  0
 12 39  1  1
 13 40  1  0
 13 41  1  0
 15 42  1  0
 16 43  1  0
 17 44  1  0
 18 45  1  0
 19 46  1  0
 21 47  1  0
 22 48  1  0
 24 49  1  0
 27 50  1  0
 28 51  1  0
M  CHG  1   3  -1
M  END
>  <UniqueID>  (57) 
23

>  <SMILES>  (57) 
O=C([N-]CC(=O)N1C[C@H](O)C[C@H]1Cc1ccccc1)c1ccc2cc(F)ccc2n1

>  <Energy>  (57) 
57.17510688318018

>  <Genealogy>  (57) 
O=C([N-]CC(=O)N1C[C@H](O)C[C@H]1Cc1ccccc1)c1ccc2cc(F)ccc2n1 (protonated)
O=C([N-]CC(=O)N1C[C@H](O)C[C@H]1Cc1ccccc1)c1ccc2cc(F)ccc2n1 (3D coordinates assigned)
O=C([N-]CC(=O)N1C[C@H](O)C[C@H]1Cc1ccccc1)c1ccc2cc(F)ccc2n1 (nonaromatic ring conformer: 57.17510688318018 kcal/mol)

>  <smiles>  (57) 
O=C(NCC(=O)N1C[C@H](O)C[C@H]1Cc1ccccc1)c1ccc2cc(F)ccc2n1

>  <score_type>  (57) 
oracle

>  <origin>  (57) 
autodockgpu

>  <m_score__min__energy>  (57) 
-8.5099999999999998

>  <m_primary>  (57) 
energy

>  <meeko>  (57) 
{"free_energy": -7.85, "intermolecular_energy": -10.23, "internal_energy": -1.41, "cluster_size": 12, "cluster_id": 1, "rank_in_cluster": 8}

>  <energy>  (57) 
-8.08

>  <cluster_rmsd>  (57) 
0.0

>  <rmsd>  (57) 
270.96

>  <cluster>  (57) 
3

$$$$
UYYINUAOVYUWQM-XVQRQBGSNA-M
     RDKit          3D

 51 54  0  0  0  0  0  0  0  0999 V2000
  140.6350   71.7620  220.9850 O   0  0  0  0  0  0  0  0  0  0  0  0
  140.5190   72.3280  222.1030 C   0  0  0  0  0  0  0  0  0  0  0  0
  140.5630   73.7620  222.1530 N   0  0  0  0  0  0  0  0  0  0  0  0
  139.5320   74.7050  221.7180 C   0  0  0  0  0  0  0  0  0  0  0  0
  140.1090   76.0440  221.3480 C   0  0  0  0  0  0  0  0  0  0  0  0
  139.6470   77.0750  221.9080 O   0  0  0  0  0  0  0  0  0  0  0  0
  141.1800   76.1760  220.3920 N   0  0  0  0  0  0  0  0  0  0  0  0
  141.4150   75.2400  219.3020 C   0  0  0  0  0  0  0  0  0  0  0  0
  142.6410   75.7760  218.5630 C   0  0  2  0  0  0  0  0  0  0  0  0
  143.5060   74.7500  218.1460 O   0  0  0  0  0  0  0  0  0  0  0  0
  143.3180   76.7550  219.5250 C   0  0  0  0  0  0  0  0  0  0  0  0
  142.2210   77.1940  220.5030 C   0  0  1  0  0  0  0  0  0  0  0  0
  141.6330   78.5760  220.1600 C   0  0  0  0  0  0  0  0  0  0  0  0
  141.7150   79.5400  221.3140 C   0  0  0  0  0  0  0  0  0  0  0  0
  140.9890   80.7430  221.2940 C   0  0  0  0  0  0  0  0  0  0  0  0
  141.0630   81.6290  222.3740 C   0  0  0  0  0  0  0  0  0  0  0  0
  141.8580   81.3200  223.4800 C   0  0  0  0  0  0  0  0  0  0  0  0
  142.5820   80.1250  223.5090 C   0  0  0  0  0  0  0  0  0  0  0  0
  142.5110   79.2370  222.4310 C   0  0  0  0  0  0  0  0  0  0  0  0
  140.2660   71.4930  223.2900 C   0  0  0  0  0  0  0  0  0  0  0  0
  139.5590   70.2840  223.2010 C   0  0  0  0  0  0  0  0  0  0  0  0
  139.3730   69.5070  224.3470 C   0  0  0  0  0  0  0  0  0  0  0  0
  139.8800   69.9470  225.5760 C   0  0  0  0  0  0  0  0  0  0  0  0
  139.7370   69.1790  226.7410 C   0  0  0  0  0  0  0  0  0  0  0  0
  140.2660   69.6410  227.9510 C   0  0  0  0  0  0  0  0  0  0  0  0
  140.1330   68.8960  229.0760 F   0  0  0  0  0  0  0  0  0  0  0  0
  140.9320   70.8700  228.0050 C   0  0  0  0  0  0  0  0  0  0  0  0
  141.0730   71.6450  226.8490 C   0  0  0  0  0  0  0  0  0  0  0  0
  140.5490   71.1880  225.6340 C   0  0  0  0  0  0  0  0  0  0  0  0
  140.7150   71.9220  224.5010 N   0  0  0  0  0  0  0  0  0  0  0  0
  139.0160   74.2867  220.8412 H   0  0  0  0  0  0  0  0  0  0  0  0
  138.8361   74.8562  222.5564 H   0  0  0  0  0  0  0  0  0  0  0  0
  141.6134   74.2324  219.6962 H   0  0  0  0  0  0  0  0  0  0  0  0
  140.5415   75.1574  218.6386 H   0  0  0  0  0  0  0  0  0  0  0  0
  142.3484   76.2806  217.6304 H   0  0  0  0  0  0  0  0  0  0  0  0
  144.4350   75.1010  218.1750 H   0  0  0  0  0  0  0  0  0  0  0  0
  144.1379   76.2585  220.0647 H   0  0  0  0  0  0  0  0  0  0  0  0
  143.7569   77.6119  218.9930 H   0  0  0  0  0  0  0  0  0  0  0  0
  142.6326   77.2876  221.5188 H   0  0  0  0  0  0  0  0  0  0  0  0
  142.1906   78.9954  219.3096 H   0  0  0  0  0  0  0  0  0  0  0  0
  140.5695   78.4357  219.9165 H   0  0  0  0  0  0  0  0  0  0  0  0
  140.3600   80.9889  220.4257 H   0  0  0  0  0  0  0  0  0  0  0  0
  140.4943   82.5703  222.3521 H   0  0  0  0  0  0  0  0  0  0  0  0
  141.9143   82.0176  224.3286 H   0  0  0  0  0  0  0  0  0  0  0  0
  143.2081   79.8827  224.3804 H   0  0  0  0  0  0  0  0  0  0  0  0
  143.0812   78.2967  222.4579 H   0  0  0  0  0  0  0  0  0  0  0  0
  139.1536   69.9501  222.2345 H   0  0  0  0  0  0  0  0  0  0  0  0
  138.8299   68.5525  224.2842 H   0  0  0  0  0  0  0  0  0  0  0  0
  139.2095   68.2145  226.7033 H   0  0  0  0  0  0  0  0  0  0  0  0
  141.3460   71.2280  228.9592 H   0  0  0  0  0  0  0  0  0  0  0  0
  141.5949   72.6122  226.8946 H   0  0  0  0  0  0  0  0  0  0  0  0
  1  2  2  0
  2  3  1  0
  3  4  1  0
  4  5  1  0
  5  6  2  0
  5  7  1  0
  7  8  1  0
  8  9  1  0
  9 10  1  0
  9 11  1  0
 11 12  1  0
 12 13  1  0
 13 14  1  0
 14 15  2  0
 15 16  1  0
 16 17  2  0
 17 18  1  0
 18 19  2  0
  2 20  1  0
 20 21  2  0
 21 22  1  0
 22 23  2  0
 23 24  1  0
 24 25  2  0
 25 26  1  0
 25 27  1  0
 27 28  2  0
 28 29  1  0
 29 30  2  0
 12  7  1  0
 19 14  1  0
 30 20  1  0
 29 23  1  0
  4 31  1  0
  4 32  1  0
  8 33  1  0
  8 34  1  0
  9 35  1  6
 10 36  1  0
 11 37  1  0
 11 38  1  0
 12 39  1  1
 13 40  1  0
 13 41  1  0
 15 42  1  0
 16 43  1  0
 17 44  1  0
 18 45  1  0
 19 46  1  0
 21 47  1  0
 22 48  1  0
 24 49  1  0
 27 50  1  0
 28 51  1  0
M  CHG  1   3  -1
M  END
>  <UniqueID>  (58) 
23

>  <SMILES>  (58) 
O=C([N-]CC(=O)N1C[C@H](O)C[C@H]1Cc1ccccc1)c1ccc2cc(F)ccc2n1

>  <Energy>  (58) 
57.17510688318018

>  <Genealogy>  (58) 
O=C([N-]CC(=O)N1C[C@H](O)C[C@H]1Cc1ccccc1)c1ccc2cc(F)ccc2n1 (protonated)
O=C([N-]CC(=O)N1C[C@H](O)C[C@H]1Cc1ccccc1)c1ccc2cc(F)ccc2n1 (3D coordinates assigned)
O=C([N-]CC(=O)N1C[C@H](O)C[C@H]1Cc1ccccc1)c1ccc2cc(F)ccc2n1 (nonaromatic ring conformer: 57.17510688318018 kcal/mol)

>  <smiles>  (58) 
O=C(NCC(=O)N1C[C@H](O)C[C@H]1Cc1ccccc1)c1ccc2cc(F)ccc2n1

>  <score_type>  (58) 
oracle

>  <origin>  (58) 
autodockgpu

>  <m_score__min__energy>  (58) 
-8.5099999999999998

>  <m_primary>  (58) 
energy

>  <meeko>  (58) 
{"free_energy": -8.25, "intermolecular_energy": -10.64, "internal_energy": -1.23, "cluster_size": 12, "cluster_id": 1, "rank_in_cluster": 4}

>  <energy>  (58) 
-8.02

>  <cluster_rmsd>  (58) 
0.0

>  <rmsd>  (58) 
272.02

>  <cluster>  (58) 
4

$$$$
UYYINUAOVYUWQM-XVQRQBGSNA-M
     RDKit          3D

 51 54  0  0  0  0  0  0  0  0999 V2000
  139.8220   73.6720  222.7160 O   0  0  0  0  0  0  0  0  0  0  0  0
  140.4060   72.5610  222.6190 C   0  0  0  0  0  0  0  0  0  0  0  0
  141.2900   72.3470  221.5080 N   0  0  0  0  0  0  0  0  0  0  0  0
  141.4390   73.1740  220.3100 C   0  0  0  0  0  0  0  0  0  0  0  0
  141.6280   74.6280  220.6450 C   0  0  0  0  0  0  0  0  0  0  0  0
  142.7980   75.0520  220.8470 O   0  0  0  0  0  0  0  0  0  0  0  0
  140.5180   75.5440  220.7230 N   0  0  0  0  0  0  0  0  0  0  0  0
  139.1520   75.1980  220.3550 C   0  0  0  0  0  0  0  0  0  0  0  0
  138.3320   76.4650  220.5960 C   0  0  2  0  0  0  0  0  0  0  0  0
  137.3630   76.6740  219.6000 O   0  0  0  0  0  0  0  0  0  0  0  0
  139.3440   77.6120  220.6760 C   0  0  0  0  0  0  0  0  0  0  0  0
  140.6780   76.9570  221.0550 C   0  0  1  0  0  0  0  0  0  0  0  0
  141.0100   77.1030  222.5530 C   0  0  0  0  0  0  0  0  0  0  0  0
  141.2880   78.5310  222.9440 C   0  0  0  0  0  0  0  0  0  0  0  0
  142.5660   79.0870  222.7660 C   0  0  0  0  0  0  0  0  0  0  0  0
  142.8130   80.4150  223.1240 C   0  0  0  0  0  0  0  0  0  0  0  0
  141.7880   81.1990  223.6590 C   0  0  0  0  0  0  0  0  0  0  0  0
  140.5130   80.6550  223.8370 C   0  0  0  0  0  0  0  0  0  0  0  0
  140.2620   79.3260  223.4820 C   0  0  0  0  0  0  0  0  0  0  0  0
  140.2140   71.5710  223.6920 C   0  0  0  0  0  0  0  0  0  0  0  0
  139.5740   70.3450  223.4550 C   0  0  0  0  0  0  0  0  0  0  0  0
  139.4460   69.4210  224.4950 C   0  0  0  0  0  0  0  0  0  0  0  0
  139.9430   69.7290  225.7660 C   0  0  0  0  0  0  0  0  0  0  0  0
  139.8570   68.8140  226.8260 C   0  0  0  0  0  0  0  0  0  0  0  0
  140.3750   69.1500  228.0820 C   0  0  0  0  0  0  0  0  0  0  0  0
  140.2980   68.2620  229.1040 F   0  0  0  0  0  0  0  0  0  0  0  0
  140.9730   70.3980  228.2870 C   0  0  0  0  0  0  0  0  0  0  0  0
  141.0560   71.3180  227.2370 C   0  0  0  0  0  0  0  0  0  0  0  0
  140.5430   70.9900  225.9770 C   0  0  0  0  0  0  0  0  0  0  0  0
  140.6540   71.8680  224.9460 N   0  0  0  0  0  0  0  0  0  0  0  0
  142.3149   72.8238  219.7442 H   0  0  0  0  0  0  0  0  0  0  0  0
  140.5170   73.0804  219.7175 H   0  0  0  0  0  0  0  0  0  0  0  0
  139.1018   74.9029  219.2965 H   0  0  0  0  0  0  0  0  0  0  0  0
  138.7734   74.3485  220.9423 H   0  0  0  0  0  0  0  0  0  0  0  0
  137.7515   76.3866  221.5271 H   0  0  0  0  0  0  0  0  0  0  0  0
  137.6440   76.1720  218.7900 H   0  0  0  0  0  0  0  0  0  0  0  0
  139.4276   78.1193  219.7035 H   0  0  0  0  0  0  0  0  0  0  0  0
  139.0404   78.3731  221.4099 H   0  0  0  0  0  0  0  0  0  0  0  0
  141.5061   77.4403  220.5158 H   0  0  0  0  0  0  0  0  0  0  0  0
  140.1562   76.7356  223.1413 H   0  0  0  0  0  0  0  0  0  0  0  0
  141.9196   76.5177  222.7531 H   0  0  0  0  0  0  0  0  0  0  0  0
  143.3757   78.4742  222.3430 H   0  0  0  0  0  0  0  0  0  0  0  0
  143.8163   80.8438  222.9843 H   0  0  0  0  0  0  0  0  0  0  0  0
  141.9843   82.2442  223.9401 H   0  0  0  0  0  0  0  0  0  0  0  0
  139.7058   81.2732  224.2570 H   0  0  0  0  0  0  0  0  0  0  0  0
  139.2574   78.9013  223.6245 H   0  0  0  0  0  0  0  0  0  0  0  0
  139.1755   70.1128  222.4564 H   0  0  0  0  0  0  0  0  0  0  0  0
  138.9554   68.4531  224.3149 H   0  0  0  0  0  0  0  0  0  0  0  0
  139.3830   67.8337  226.6701 H   0  0  0  0  0  0  0  0  0  0  0  0
  141.3788   70.6562  229.2763 H   0  0  0  0  0  0  0  0  0  0  0  0
  141.5246   72.2995  227.4015 H   0  0  0  0  0  0  0  0  0  0  0  0
  1  2  2  0
  2  3  1  0
  3  4  1  0
  4  5  1  0
  5  6  2  0
  5  7  1  0
  7  8  1  0
  8  9  1  0
  9 10  1  0
  9 11  1  0
 11 12  1  0
 12 13  1  0
 13 14  1  0
 14 15  2  0
 15 16  1  0
 16 17  2  0
 17 18  1  0
 18 19  2  0
  2 20  1  0
 20 21  2  0
 21 22  1  0
 22 23  2  0
 23 24  1  0
 24 25  2  0
 25 26  1  0
 25 27  1  0
 27 28  2  0
 28 29  1  0
 29 30  2  0
 12  7  1  0
 19 14  1  0
 30 20  1  0
 29 23  1  0
  4 31  1  0
  4 32  1  0
  8 33  1  0
  8 34  1  0
  9 35  1  1
 10 36  1  0
 11 37  1  0
 11 38  1  0
 12 39  1  6
 13 40  1  0
 13 41  1  0
 15 42  1  0
 16 43  1  0
 17 44  1  0
 18 45  1  0
 19 46  1  0
 21 47  1  0
 22 48  1  0
 24 49  1  0
 27 50  1  0
 28 51  1  0
M  CHG  1   3  -1
M  END
>  <UniqueID>  (59) 
23

>  <SMILES>  (59) 
O=C([N-]CC(=O)N1C[C@H](O)C[C@H]1Cc1ccccc1)c1ccc2cc(F)ccc2n1

>  <Energy>  (59) 
57.17510688318018

>  <Genealogy>  (59) 
O=C([N-]CC(=O)N1C[C@H](O)C[C@H]1Cc1ccccc1)c1ccc2cc(F)ccc2n1 (protonated)
O=C([N-]CC(=O)N1C[C@H](O)C[C@H]1Cc1ccccc1)c1ccc2cc(F)ccc2n1 (3D coordinates assigned)
O=C([N-]CC(=O)N1C[C@H](O)C[C@H]1Cc1ccccc1)c1ccc2cc(F)ccc2n1 (nonaromatic ring conformer: 57.17510688318018 kcal/mol)

>  <smiles>  (59) 
O=C(NCC(=O)N1C[C@H](O)C[C@H]1Cc1ccccc1)c1ccc2cc(F)ccc2n1

>  <score_type>  (59) 
oracle

>  <origin>  (59) 
autodockgpu

>  <m_score__min__energy>  (59) 
-8.5099999999999998

>  <m_primary>  (59) 
energy

>  <meeko>  (59) 
{"free_energy": -7.8, "intermolecular_energy": -10.19, "internal_energy": -1.31, "cluster_size": 12, "cluster_id": 1, "rank_in_cluster": 9}

>  <energy>  (59) 
-7.93

>  <cluster_rmsd>  (59) 
0.24

>  <rmsd>  (59) 
272.05

>  <cluster>  (59) 
4

$$$$
UYYINUAOVYUWQM-XVQRQBGSNA-M
     RDKit          3D

 51 54  0  0  0  0  0  0  0  0999 V2000
  138.3190   74.3920  221.4220 O   0  0  0  0  0  0  0  0  0  0  0  0
  139.3620   74.8380  221.9670 C   0  0  0  0  0  0  0  0  0  0  0  0
  140.4080   73.9130  222.3030 N   0  0  0  0  0  0  0  0  0  0  0  0
  140.7850   72.6920  221.5920 C   0  0  0  0  0  0  0  0  0  0  0  0
  141.4770   72.9850  220.2890 C   0  0  0  0  0  0  0  0  0  0  0  0
  140.8080   72.9110  219.2220 O   0  0  0  0  0  0  0  0  0  0  0  0
  142.8670   73.3630  220.2300 N   0  0  0  0  0  0  0  0  0  0  0  0
  143.9700   72.4260  220.3840 C   0  0  0  0  0  0  0  0  0  0  0  0
  145.2400   73.2660  220.2520 C   0  0  2  0  0  0  0  0  0  0  0  0
  146.2420   72.8680  221.1540 O   0  0  0  0  0  0  0  0  0  0  0  0
  144.8070   74.7190  220.4670 C   0  0  0  0  0  0  0  0  0  0  0  0
  143.3080   74.7520  220.1430 C   0  0  1  0  0  0  0  0  0  0  0  0
  143.0130   75.3030  218.7340 C   0  0  0  0  0  0  0  0  0  0  0  0
  142.2490   76.6000  218.7700 C   0  0  0  0  0  0  0  0  0  0  0  0
  140.8650   76.6080  219.0180 C   0  0  0  0  0  0  0  0  0  0  0  0
  140.1650   77.8170  219.0590 C   0  0  0  0  0  0  0  0  0  0  0  0
  140.8370   79.0250  218.8550 C   0  0  0  0  0  0  0  0  0  0  0  0
  142.2130   79.0250  218.6100 C   0  0  0  0  0  0  0  0  0  0  0  0
  142.9180   77.8180  218.5680 C   0  0  0  0  0  0  0  0  0  0  0  0
  139.4870   76.2920  222.1600 C   0  0  0  0  0  0  0  0  0  0  0  0
  138.3610   77.1130  222.3250 C   0  0  0  0  0  0  0  0  0  0  0  0
  138.5290   78.4820  222.5400 C   0  0  0  0  0  0  0  0  0  0  0  0
  139.8170   79.0290  222.5750 C   0  0  0  0  0  0  0  0  0  0  0  0
  140.0250   80.3950  222.8170 C   0  0  0  0  0  0  0  0  0  0  0  0
  141.3260   80.9070  222.8570 C   0  0  0  0  0  0  0  0  0  0  0  0
  141.5270   82.2260  223.0980 F   0  0  0  0  0  0  0  0  0  0  0  0
  142.4220   80.0620  222.6510 C   0  0  0  0  0  0  0  0  0  0  0  0
  142.2230   78.7000  222.4020 C   0  0  0  0  0  0  0  0  0  0  0  0
  140.9250   78.1790  222.3620 C   0  0  0  0  0  0  0  0  0  0  0  0
  140.7300   76.8500  222.1570 N   0  0  0  0  0  0  0  0  0  0  0  0
  141.4632   72.1057  222.2295 H   0  0  0  0  0  0  0  0  0  0  0  0
  139.8643   72.1334  221.3677 H   0  0  0  0  0  0  0  0  0  0  0  0
  143.9293   71.9431  221.3715 H   0  0  0  0  0  0  0  0  0  0  0  0
  143.9316   71.6231  219.6331 H   0  0  0  0  0  0  0  0  0  0  0  0
  145.6977   73.1334  219.2606 H   0  0  0  0  0  0  0  0  0  0  0  0
  145.9450   72.0260  221.5890 H   0  0  0  0  0  0  0  0  0  0  0  0
  144.9817   75.0219  221.5099 H   0  0  0  0  0  0  0  0  0  0  0  0
  145.3772   75.4130  219.8320 H   0  0  0  0  0  0  0  0  0  0  0  0
  142.7828   75.4202  220.8414 H   0  0  0  0  0  0  0  0  0  0  0  0
  143.9676   75.4703  218.2137 H   0  0  0  0  0  0  0  0  0  0  0  0
  142.3906   74.5631  218.2095 H   0  0  0  0  0  0  0  0  0  0  0  0
  140.3316   75.6598  219.1803 H   0  0  0  0  0  0  0  0  0  0  0  0
  139.0821   77.8176  219.2524 H   0  0  0  0  0  0  0  0  0  0  0  0
  140.2836   79.9751  218.8872 H   0  0  0  0  0  0  0  0  0  0  0  0
  142.7423   79.9759  218.4500 H   0  0  0  0  0  0  0  0  0  0  0  0
  144.0011   77.8227  218.3759 H   0  0  0  0  0  0  0  0  0  0  0  0
  137.3507   76.6798  222.2851 H   0  0  0  0  0  0  0  0  0  0  0  0
  137.6511   79.1295  222.6816 H   0  0  0  0  0  0  0  0  0  0  0  0
  139.1655   81.0630  222.9752 H   0  0  0  0  0  0  0  0  0  0  0  0
  143.4430   80.4699  222.6850 H   0  0  0  0  0  0  0  0  0  0  0  0
  143.0866   78.0388  222.2377 H   0  0  0  0  0  0  0  0  0  0  0  0
  1  2  2  0
  2  3  1  0
  3  4  1  0
  4  5  1  0
  5  6  2  0
  5  7  1  0
  7  8  1  0
  8  9  1  0
  9 10  1  0
  9 11  1  0
 11 12  1  0
 12 13  1  0
 13 14  1  0
 14 15  2  0
 15 16  1  0
 16 17  2  0
 17 18  1  0
 18 19  2  0
  2 20  1  0
 20 21  2  0
 21 22  1  0
 22 23  2  0
 23 24  1  0
 24 25  2  0
 25 26  1  0
 25 27  1  0
 27 28  2  0
 28 29  1  0
 29 30  2  0
 12  7  1  0
 19 14  1  0
 30 20  1  0
 29 23  1  0
  4 31  1  0
  4 32  1  0
  8 33  1  0
  8 34  1  0
  9 35  1  6
 10 36  1  0
 11 37  1  0
 11 38  1  0
 12 39  1  1
 13 40  1  0
 13 41  1  0
 15 42  1  0
 16 43  1  0
 17 44  1  0
 18 45  1  0
 19 46  1  0
 21 47  1  0
 22 48  1  0
 24 49  1  0
 27 50  1  0
 28 51  1  0
M  CHG  1   3  -1
M  END
>  <UniqueID>  (60) 
23

>  <SMILES>  (60) 
O=C([N-]CC(=O)N1C[C@H](O)C[C@H]1Cc1ccccc1)c1ccc2cc(F)ccc2n1

>  <Energy>  (60) 
57.17510688318018

>  <Genealogy>  (60) 
O=C([N-]CC(=O)N1C[C@H](O)C[C@H]1Cc1ccccc1)c1ccc2cc(F)ccc2n1 (protonated)
O=C([N-]CC(=O)N1C[C@H](O)C[C@H]1Cc1ccccc1)c1ccc2cc(F)ccc2n1 (3D coordinates assigned)
O=C([N-]CC(=O)N1C[C@H](O)C[C@H]1Cc1ccccc1)c1ccc2cc(F)ccc2n1 (nonaromatic ring conformer: 57.17510688318018 kcal/mol)

>  <smiles>  (60) 
O=C(NCC(=O)N1C[C@H](O)C[C@H]1Cc1ccccc1)c1ccc2cc(F)ccc2n1

>  <score_type>  (60) 
oracle

>  <origin>  (60) 
autodockgpu

>  <m_score__min__energy>  (60) 
-8.5099999999999998

>  <m_primary>  (60) 
energy

>  <meeko>  (60) 
{"free_energy": -6.3, "intermolecular_energy": -8.69, "internal_energy": -2.84, "cluster_size": 1, "cluster_id": 5, "rank_in_cluster": 1}

>  <energy>  (60) 
-6.3

>  <cluster_rmsd>  (60) 
0.0

>  <rmsd>  (60) 
271.17

>  <cluster>  (60) 
5

$$$$
UYYINUAOVYUWQM-WBADGWMWNA-N
     RDKit          3D

 52 55  0  0  0  0  0  0  0  0999 V2000
  139.1890   75.8120  220.1360 O   0  0  0  0  0  0  0  0  0  0  0  0
  139.0910   75.9270  221.3890 C   0  0  0  0  0  0  0  0  0  0  0  0
  138.5890   74.8240  222.1630 N   0  0  0  0  0  0  0  0  0  0  0  0
  138.5690   73.4780  221.5990 C   0  0  0  0  0  0  0  0  0  0  0  0
  139.5940   72.5740  222.2320 C   0  0  0  0  0  0  0  0  0  0  0  0
  140.7020   73.0920  222.5530 O   0  0  0  0  0  0  0  0  0  0  0  0
  139.3610   71.1750  222.5290 N   0  0  0  0  0  0  0  0  0  0  0  0
  139.0840   70.2370  221.4420 C   0  0  0  0  0  0  0  0  0  0  0  0
  138.5130   68.9820  222.0960 C   0  0  2  0  0  0  0  0  0  0  0  0
  137.4270   68.4850  221.3580 O   0  0  0  0  0  0  0  0  0  0  0  0
  138.0850   69.4300  223.4900 C   0  0  0  0  0  0  0  0  0  0  0  0
  139.0230   70.5940  223.8350 C   0  0  1  0  0  0  0  0  0  0  0  0
  140.2810   70.0620  224.5630 C   0  0  0  0  0  0  0  0  0  0  0  0
  140.4880   70.6860  225.9150 C   0  0  0  0  0  0  0  0  0  0  0  0
  139.9440   70.0820  227.0650 C   0  0  0  0  0  0  0  0  0  0  0  0
  140.1540   70.6490  228.3240 C   0  0  0  0  0  0  0  0  0  0  0  0
  140.9060   71.8200  228.4480 C   0  0  0  0  0  0  0  0  0  0  0  0
  141.4540   72.4250  227.3120 C   0  0  0  0  0  0  0  0  0  0  0  0
  141.2500   71.8590  226.0490 C   0  0  0  0  0  0  0  0  0  0  0  0
  139.5140   77.1790  222.0440 C   0  0  0  0  0  0  0  0  0  0  0  0
  138.5780   77.9850  222.7160 C   0  0  0  0  0  0  0  0  0  0  0  0
  138.9940   79.1760  223.3140 C   0  0  0  0  0  0  0  0  0  0  0  0
  140.3400   79.5580  223.2470 C   0  0  0  0  0  0  0  0  0  0  0  0
  140.7910   80.7460  223.8440 C   0  0  0  0  0  0  0  0  0  0  0  0
  142.1440   81.0980  223.7620 C   0  0  0  0  0  0  0  0  0  0  0  0
  142.5810   82.2430  224.3430 F   0  0  0  0  0  0  0  0  0  0  0  0
  143.0470   80.2700  223.0850 C   0  0  0  0  0  0  0  0  0  0  0  0
  142.6020   79.0870  222.4840 C   0  0  0  0  0  0  0  0  0  0  0  0
  141.2520   78.7260  222.5630 C   0  0  0  0  0  0  0  0  0  0  0  0
  140.8170   77.5750  221.9830 N   0  0  0  0  0  0  0  0  0  0  0  0
  138.2440   74.9860  223.1380 H   0  0  0  0  0  0  0  0  0  0  0  0
  137.5705   73.0441  221.7561 H   0  0  0  0  0  0  0  0  0  0  0  0
  138.8097   73.5596  220.5288 H   0  0  0  0  0  0  0  0  0  0  0  0
  138.3526   70.6689  220.7430 H   0  0  0  0  0  0  0  0  0  0  0  0
  139.9941   70.0102  220.8673 H   0  0  0  0  0  0  0  0  0  0  0  0
  139.2448   68.1619  222.1395 H   0  0  0  0  0  0  0  0  0  0  0  0
  137.5660   68.7820  220.4210 H   0  0  0  0  0  0  0  0  0  0  0  0
  137.0375   69.7656  223.4842 H   0  0  0  0  0  0  0  0  0  0  0  0
  138.1489   68.6143  224.2253 H   0  0  0  0  0  0  0  0  0  0  0  0
  138.5705   71.3353  224.5100 H   0  0  0  0  0  0  0  0  0  0  0  0
  140.1775   68.9744  224.6915 H   0  0  0  0  0  0  0  0  0  0  0  0
  141.1526   70.3225  223.9446 H   0  0  0  0  0  0  0  0  0  0  0  0
  139.3514   69.1600  226.9713 H   0  0  0  0  0  0  0  0  0  0  0  0
  139.7269   70.1731  229.2190 H   0  0  0  0  0  0  0  0  0  0  0  0
  141.0673   72.2667  229.4402 H   0  0  0  0  0  0  0  0  0  0  0  0
  142.0459   73.3468  227.4119 H   0  0  0  0  0  0  0  0  0  0  0  0
  141.6874   72.3336  225.1582 H   0  0  0  0  0  0  0  0  0  0  0  0
  137.5229   77.6785  222.7703 H   0  0  0  0  0  0  0  0  0  0  0  0
  138.2659   79.8134  223.8370 H   0  0  0  0  0  0  0  0  0  0  0  0
  140.0829   81.3991  224.3752 H   0  0  0  0  0  0  0  0  0  0  0  0
  144.1091   80.5498  223.0252 H   0  0  0  0  0  0  0  0  0  0  0  0
  143.3135   78.4406  221.9493 H   0  0  0  0  0  0  0  0  0  0  0  0
  1  2  2  0
  2  3  1  0
  3  4  1  0
  4  5  1  0
  5  6  2  0
  5  7  1  0
  7  8  1  0
  8  9  1  0
  9 10  1  0
  9 11  1  0
 11 12  1  0
 12 13  1  0
 13 14  1  0
 14 15  2  0
 15 16  1  0
 16 17  2  0
 17 18  1  0
 18 19  2  0
  2 20  1  0
 20 21  2  0
 21 22  1  0
 22 23  2  0
 23 24  1  0
 24 25  2  0
 25 26  1  0
 25 27  1  0
 27 28  2  0
 28 29  1  0
 29 30  2  0
 12  7  1  0
 19 14  1  0
 30 20  1  0
 29 23  1  0
  3 31  1  0
  4 32  1  0
  4 33  1  0
  8 34  1  0
  8 35  1  0
  9 36  1  1
 10 37  1  0
 11 38  1  0
 11 39  1  0
 12 40  1  1
 13 41  1  0
 13 42  1  0
 15 43  1  0
 16 44  1  0
 17 45  1  0
 18 46  1  0
 19 47  1  0
 21 48  1  0
 22 49  1  0
 24 50  1  0
 27 51  1  0
 28 52  1  0
M  END
>  <UniqueID>  (61) 
24

>  <SMILES>  (61) 
O=C(NCC(=O)N1C[C@H](O)C[C@H]1Cc1ccccc1)c1ccc2cc(F)ccc2n1

>  <Energy>  (61) 
57.54204458420654

>  <Genealogy>  (61) 
O=C(NCC(=O)N1C[C@H](O)C[C@H]1Cc1ccccc1)c1ccc2cc(F)ccc2n1 (3D coordinates assigned)
O=C(NCC(=O)N1C[C@H](O)C[C@H]1Cc1ccccc1)c1ccc2cc(F)ccc2n1 (nonaromatic ring conformer: 57.54204458420654 kcal/mol)

>  <smiles>  (61) 
O=C(NCC(=O)N1C[C@H](O)C[C@H]1Cc1ccccc1)c1ccc2cc(F)ccc2n1

>  <score_type>  (61) 
oracle

>  <origin>  (61) 
autodockgpu

>  <m_score__min__energy>  (61) 
-8.9499999999999993

>  <m_primary>  (61) 
energy

>  <meeko>  (61) 
{"free_energy": -8.79, "intermolecular_energy": -10.87, "internal_energy": -1.17, "cluster_size": 6, "cluster_id": 1, "rank_in_cluster": 3}

>  <energy>  (61) 
-8.95

>  <cluster_rmsd>  (61) 
0.0

>  <rmsd>  (61) 
272.22

>  <cluster>  (61) 
1

$$$$
UYYINUAOVYUWQM-WBADGWMWNA-N
     RDKit          3D

 52 55  0  0  0  0  0  0  0  0999 V2000
  137.3240   71.2810  222.7920 O   0  0  0  0  0  0  0  0  0  0  0  0
  138.5190   71.3360  223.1920 C   0  0  0  0  0  0  0  0  0  0  0  0
  139.4040   72.3290  222.6440 N   0  0  0  0  0  0  0  0  0  0  0  0
  138.8620   73.4960  221.9520 C   0  0  0  0  0  0  0  0  0  0  0  0
  139.9010   74.5610  221.7210 C   0  0  0  0  0  0  0  0  0  0  0  0
  141.1040   74.2580  221.9680 O   0  0  0  0  0  0  0  0  0  0  0  0
  139.6030   75.8770  221.1950 N   0  0  0  0  0  0  0  0  0  0  0  0
  138.6890   76.0170  220.0610 C   0  0  0  0  0  0  0  0  0  0  0  0
  138.8940   77.4290  219.5200 C   0  0  2  0  0  0  0  0  0  0  0  0
  138.9160   77.4270  218.1170 O   0  0  0  0  0  0  0  0  0  0  0  0
  140.2310   77.8790  220.1010 C   0  0  0  0  0  0  0  0  0  0  0  0
  140.3620   77.1130  221.4230 C   0  0  1  0  0  0  0  0  0  0  0  0
  139.7580   77.9460  222.5800 C   0  0  0  0  0  0  0  0  0  0  0  0
  140.5810   79.1540  222.9310 C   0  0  0  0  0  0  0  0  0  0  0  0
  141.8350   79.0010  223.5510 C   0  0  0  0  0  0  0  0  0  0  0  0
  142.6110   80.1220  223.8560 C   0  0  0  0  0  0  0  0  0  0  0  0
  142.1430   81.4020  223.5470 C   0  0  0  0  0  0  0  0  0  0  0  0
  140.9000   81.5640  222.9280 C   0  0  0  0  0  0  0  0  0  0  0  0
  140.1210   80.4440  222.6160 C   0  0  0  0  0  0  0  0  0  0  0  0
  138.9870   70.4000  224.2310 C   0  0  0  0  0  0  0  0  0  0  0  0
  138.7440   69.0210  224.1110 C   0  0  0  0  0  0  0  0  0  0  0  0
  139.1780   68.1510  225.1140 C   0  0  0  0  0  0  0  0  0  0  0  0
  139.8590   68.6570  226.2290 C   0  0  0  0  0  0  0  0  0  0  0  0
  140.3140   67.8090  227.2510 C   0  0  0  0  0  0  0  0  0  0  0  0
  140.9940   68.3450  228.3520 C   0  0  0  0  0  0  0  0  0  0  0  0
  141.4390   67.5260  229.3370 F   0  0  0  0  0  0  0  0  0  0  0  0
  141.2190   69.7240  228.4360 C   0  0  0  0  0  0  0  0  0  0  0  0
  140.7630   70.5750  227.4230 C   0  0  0  0  0  0  0  0  0  0  0  0
  140.0850   70.0480  226.3180 C   0  0  0  0  0  0  0  0  0  0  0  0
  139.6430   70.8710  225.3290 N   0  0  0  0  0  0  0  0  0  0  0  0
  140.4390   72.2190  222.7470 H   0  0  0  0  0  0  0  0  0  0  0  0
  138.4625   73.1753  220.9786 H   0  0  0  0  0  0  0  0  0  0  0  0
  138.0755   73.9276  222.5885 H   0  0  0  0  0  0  0  0  0  0  0  0
  138.9266   75.2735  219.2859 H   0  0  0  0  0  0  0  0  0  0  0  0
  137.6449   75.8523  220.3654 H   0  0  0  0  0  0  0  0  0  0  0  0
  138.0780   78.1094  219.8049 H   0  0  0  0  0  0  0  0  0  0  0  0
  139.8060   77.7770  217.8500 H   0  0  0  0  0  0  0  0  0  0  0  0
  141.0557   77.6209  219.4204 H   0  0  0  0  0  0  0  0  0  0  0  0
  140.2746   78.9685  220.2466 H   0  0  0  0  0  0  0  0  0  0  0  0
  141.4047   76.9074  221.7068 H   0  0  0  0  0  0  0  0  0  0  0  0
  138.7536   78.2815  222.2823 H   0  0  0  0  0  0  0  0  0  0  0  0
  139.7302   77.2992  223.4693 H   0  0  0  0  0  0  0  0  0  0  0  0
  142.2057   77.9948  223.7964 H   0  0  0  0  0  0  0  0  0  0  0  0
  143.5910   79.9970  224.3397 H   0  0  0  0  0  0  0  0  0  0  0  0
  142.7538   82.2837  223.7912 H   0  0  0  0  0  0  0  0  0  0  0  0
  140.5339   82.5727  222.6860 H   0  0  0  0  0  0  0  0  0  0  0  0
  139.1463   80.5737  222.1230 H   0  0  0  0  0  0  0  0  0  0  0  0
  138.2141   68.6283  223.2307 H   0  0  0  0  0  0  0  0  0  0  0  0
  138.9856   67.0713  225.0286 H   0  0  0  0  0  0  0  0  0  0  0  0
  140.1368   66.7252  227.1873 H   0  0  0  0  0  0  0  0  0  0  0  0
  141.7560   70.1401  229.3011 H   0  0  0  0  0  0  0  0  0  0  0  0
  140.9376   71.6586  227.4953 H   0  0  0  0  0  0  0  0  0  0  0  0
  1  2  2  0
  2  3  1  0
  3  4  1  0
  4  5  1  0
  5  6  2  0
  5  7  1  0
  7  8  1  0
  8  9  1  0
  9 10  1  0
  9 11  1  0
 11 12  1  0
 12 13  1  0
 13 14  1  0
 14 15  2  0
 15 16  1  0
 16 17  2  0
 17 18  1  0
 18 19  2  0
  2 20  1  0
 20 21  2  0
 21 22  1  0
 22 23  2  0
 23 24  1  0
 24 25  2  0
 25 26  1  0
 25 27  1  0
 27 28  2  0
 28 29  1  0
 29 30  2  0
 12  7  1  0
 19 14  1  0
 30 20  1  0
 29 23  1  0
  3 31  1  0
  4 32  1  0
  4 33  1  0
  8 34  1  0
  8 35  1  0
  9 36  1  6
 10 37  1  0
 11 38  1  0
 11 39  1  0
 12 40  1  1
 13 41  1  0
 13 42  1  0
 15 43  1  0
 16 44  1  0
 17 45  1  0
 18 46  1  0
 19 47  1  0
 21 48  1  0
 22 49  1  0
 24 50  1  0
 27 51  1  0
 28 52  1  0
M  END
>  <UniqueID>  (62) 
24

>  <SMILES>  (62) 
O=C(NCC(=O)N1C[C@H](O)C[C@H]1Cc1ccccc1)c1ccc2cc(F)ccc2n1

>  <Energy>  (62) 
57.54204458420654

>  <Genealogy>  (62) 
O=C(NCC(=O)N1C[C@H](O)C[C@H]1Cc1ccccc1)c1ccc2cc(F)ccc2n1 (3D coordinates assigned)
O=C(NCC(=O)N1C[C@H](O)C[C@H]1Cc1ccccc1)c1ccc2cc(F)ccc2n1 (nonaromatic ring conformer: 57.54204458420654 kcal/mol)

>  <smiles>  (62) 
O=C(NCC(=O)N1C[C@H](O)C[C@H]1Cc1ccccc1)c1ccc2cc(F)ccc2n1

>  <score_type>  (62) 
oracle

>  <origin>  (62) 
autodockgpu

>  <m_score__min__energy>  (62) 
-8.9499999999999993

>  <m_primary>  (62) 
energy

>  <meeko>  (62) 
{"free_energy": -7.79, "intermolecular_energy": -9.87, "internal_energy": -1.61, "cluster_size": 2, "cluster_id": 4, "rank_in_cluster": 2}

>  <energy>  (62) 
-8.81

>  <cluster_rmsd>  (62) 
1.03

>  <rmsd>  (62) 
272.0

>  <cluster>  (62) 
1

$$$$
UYYINUAOVYUWQM-WBADGWMWNA-N
     RDKit          3D

 52 55  0  0  0  0  0  0  0  0999 V2000
  137.6300   70.8870  222.2140 O   0  0  0  0  0  0  0  0  0  0  0  0
  138.6340   71.2040  222.9100 C   0  0  0  0  0  0  0  0  0  0  0  0
  139.3380   72.4240  222.6240 N   0  0  0  0  0  0  0  0  0  0  0  0
  138.7000   73.4730  221.8320 C   0  0  0  0  0  0  0  0  0  0  0  0
  139.4350   74.7850  221.9190 C   0  0  0  0  0  0  0  0  0  0  0  0
  140.6360   74.7510  222.3130 O   0  0  0  0  0  0  0  0  0  0  0  0
  138.8590   76.0580  221.5340 N   0  0  0  0  0  0  0  0  0  0  0  0
  137.5750   76.0930  220.8340 C   0  0  0  0  0  0  0  0  0  0  0  0
  137.4500   77.4950  220.2430 C   0  0  2  0  0  0  0  0  0  0  0  0
  136.9380   77.4410  218.9370 O   0  0  0  0  0  0  0  0  0  0  0  0
  138.8690   78.0550  220.2660 C   0  0  0  0  0  0  0  0  0  0  0  0
  139.5510   77.3500  221.4450 C   0  0  1  0  0  0  0  0  0  0  0  0
  139.3700   78.1830  222.7380 C   0  0  0  0  0  0  0  0  0  0  0  0
  140.5400   79.0790  223.0310 C   0  0  0  0  0  0  0  0  0  0  0  0
  141.8520   78.6370  222.7750 C   0  0  0  0  0  0  0  0  0  0  0  0
  142.9390   79.4780  223.0270 C   0  0  0  0  0  0  0  0  0  0  0  0
  142.7280   80.7630  223.5350 C   0  0  0  0  0  0  0  0  0  0  0  0
  141.4280   81.2120  223.7890 C   0  0  0  0  0  0  0  0  0  0  0  0
  140.3360   80.3750  223.5340 C   0  0  0  0  0  0  0  0  0  0  0  0
  139.0570   70.3310  224.0220 C   0  0  0  0  0  0  0  0  0  0  0  0
  138.8150   68.9470  223.9750 C   0  0  0  0  0  0  0  0  0  0  0  0
  139.2060   68.1390  225.0440 C   0  0  0  0  0  0  0  0  0  0  0  0
  139.8420   68.7100  226.1540 C   0  0  0  0  0  0  0  0  0  0  0  0
  140.2540   67.9250  227.2420 C   0  0  0  0  0  0  0  0  0  0  0  0
  140.8900   68.5260  228.3350 C   0  0  0  0  0  0  0  0  0  0  0  0
  141.2920   67.7670  229.3850 F   0  0  0  0  0  0  0  0  0  0  0  0
  141.1150   69.9080  228.3470 C   0  0  0  0  0  0  0  0  0  0  0  0
  140.7020   70.6960  227.2670 C   0  0  0  0  0  0  0  0  0  0  0  0
  140.0680   70.1040  226.1690 C   0  0  0  0  0  0  0  0  0  0  0  0
  139.6690   70.8670  225.1150 N   0  0  0  0  0  0  0  0  0  0  0  0
  140.3070   72.5660  222.9910 H   0  0  0  0  0  0  0  0  0  0  0  0
  138.6712   73.1532  220.7799 H   0  0  0  0  0  0  0  0  0  0  0  0
  137.6878   73.6281  222.2338 H   0  0  0  0  0  0  0  0  0  0  0  0
  137.5564   75.3387  220.0335 H   0  0  0  0  0  0  0  0  0  0  0  0
  136.7409   75.8695  221.5154 H   0  0  0  0  0  0  0  0  0  0  0  0
  136.7538   78.1295  220.8111 H   0  0  0  0  0  0  0  0  0  0  0  0
  136.0400   77.8640  218.9710 H   0  0  0  0  0  0  0  0  0  0  0  0
  139.3904   77.8274  219.3246 H   0  0  0  0  0  0  0  0  0  0  0  0
  138.8811   79.1496  220.3742 H   0  0  0  0  0  0  0  0  0  0  0  0
  140.6359   77.2264  221.3119 H   0  0  0  0  0  0  0  0  0  0  0  0
  138.4702   78.8064  222.6296 H   0  0  0  0  0  0  0  0  0  0  0  0
  139.2821   77.4745  223.5748 H   0  0  0  0  0  0  0  0  0  0  0  0
  142.0219   77.6264  222.3753 H   0  0  0  0  0  0  0  0  0  0  0  0
  143.9623   79.1283  222.8253 H   0  0  0  0  0  0  0  0  0  0  0  0
  143.5856   81.4221  223.7353 H   0  0  0  0  0  0  0  0  0  0  0  0
  141.2639   82.2233  224.1893 H   0  0  0  0  0  0  0  0  0  0  0  0
  139.3141   80.7330  223.7280 H   0  0  0  0  0  0  0  0  0  0  0  0
  138.3195   68.5025  223.0993 H   0  0  0  0  0  0  0  0  0  0  0  0
  139.0151   67.0561  225.0149 H   0  0  0  0  0  0  0  0  0  0  0  0
  140.0775   66.8393  227.2360 H   0  0  0  0  0  0  0  0  0  0  0  0
  141.6173   70.3750  229.2070 H   0  0  0  0  0  0  0  0  0  0  0  0
  140.8759   71.7821  227.2811 H   0  0  0  0  0  0  0  0  0  0  0  0
  1  2  2  0
  2  3  1  0
  3  4  1  0
  4  5  1  0
  5  6  2  0
  5  7  1  0
  7  8  1  0
  8  9  1  0
  9 10  1  0
  9 11  1  0
 11 12  1  0
 12 13  1  0
 13 14  1  0
 14 15  2  0
 15 16  1  0
 16 17  2  0
 17 18  1  0
 18 19  2  0
  2 20  1  0
 20 21  2  0
 21 22  1  0
 22 23  2  0
 23 24  1  0
 24 25  2  0
 25 26  1  0
 25 27  1  0
 27 28  2  0
 28 29  1  0
 29 30  2  0
 12  7  1  0
 19 14  1  0
 30 20  1  0
 29 23  1  0
  3 31  1  0
  4 32  1  0
  4 33  1  0
  8 34  1  0
  8 35  1  0
  9 36  1  1
 10 37  1  0
 11 38  1  0
 11 39  1  0
 12 40  1  6
 13 41  1  0
 13 42  1  0
 15 43  1  0
 16 44  1  0
 17 45  1  0
 18 46  1  0
 19 47  1  0
 21 48  1  0
 22 49  1  0
 24 50  1  0
 27 51  1  0
 28 52  1  0
M  END
>  <UniqueID>  (63) 
24

>  <SMILES>  (63) 
O=C(NCC(=O)N1C[C@H](O)C[C@H]1Cc1ccccc1)c1ccc2cc(F)ccc2n1

>  <Energy>  (63) 
57.54204458420654

>  <Genealogy>  (63) 
O=C(NCC(=O)N1C[C@H](O)C[C@H]1Cc1ccccc1)c1ccc2cc(F)ccc2n1 (3D coordinates assigned)
O=C(NCC(=O)N1C[C@H](O)C[C@H]1Cc1ccccc1)c1ccc2cc(F)ccc2n1 (nonaromatic ring conformer: 57.54204458420654 kcal/mol)

>  <smiles>  (63) 
O=C(NCC(=O)N1C[C@H](O)C[C@H]1Cc1ccccc1)c1ccc2cc(F)ccc2n1

>  <score_type>  (63) 
oracle

>  <origin>  (63) 
autodockgpu

>  <m_score__min__energy>  (63) 
-8.9499999999999993

>  <m_primary>  (63) 
energy

>  <meeko>  (63) 
{"free_energy": -7.9, "intermolecular_energy": -9.99, "internal_energy": -1.65, "cluster_size": 2, "cluster_id": 4, "rank_in_cluster": 1}

>  <energy>  (63) 
-8.79

>  <cluster_rmsd>  (63) 
0.91

>  <rmsd>  (63) 
271.99

>  <cluster>  (63) 
1

$$$$
UYYINUAOVYUWQM-WBADGWMWNA-N
     RDKit          3D

 52 55  0  0  0  0  0  0  0  0999 V2000
  141.3420   72.0590  221.5110 O   0  0  0  0  0  0  0  0  0  0  0  0
  140.4950   72.3600  222.3960 C   0  0  0  0  0  0  0  0  0  0  0  0
  139.7360   73.5740  222.2650 N   0  0  0  0  0  0  0  0  0  0  0  0
  139.6370   74.2450  220.9710 C   0  0  0  0  0  0  0  0  0  0  0  0
  140.1210   75.6690  221.0240 C   0  0  0  0  0  0  0  0  0  0  0  0
  139.6520   76.4070  221.9390 O   0  0  0  0  0  0  0  0  0  0  0  0
  141.1170   76.2160  220.1250 N   0  0  0  0  0  0  0  0  0  0  0  0
  141.3780   75.5600  218.8440 C   0  0  0  0  0  0  0  0  0  0  0  0
  142.7020   76.1260  218.3370 C   0  0  2  0  0  0  0  0  0  0  0  0
  143.5030   75.1080  217.7960 O   0  0  0  0  0  0  0  0  0  0  0  0
  143.3510   76.7570  219.5640 C   0  0  0  0  0  0  0  0  0  0  0  0
  142.1770   77.1760  220.4580 C   0  0  1  0  0  0  0  0  0  0  0  0
  141.7530   78.6290  220.1290 C   0  0  0  0  0  0  0  0  0  0  0  0
  141.8180   79.5460  221.3190 C   0  0  0  0  0  0  0  0  0  0  0  0
  141.4980   80.9100  221.1800 C   0  0  0  0  0  0  0  0  0  0  0  0
  141.5370   81.7580  222.2900 C   0  0  0  0  0  0  0  0  0  0  0  0
  141.8940   81.2550  223.5440 C   0  0  0  0  0  0  0  0  0  0  0  0
  142.2100   79.9000  223.6920 C   0  0  0  0  0  0  0  0  0  0  0  0
  142.1680   79.0460  222.5850 C   0  0  0  0  0  0  0  0  0  0  0  0
  140.2760   71.4520  223.5380 C   0  0  0  0  0  0  0  0  0  0  0  0
  139.5940   70.2350  223.3630 C   0  0  0  0  0  0  0  0  0  0  0  0
  139.3810   69.3980  224.4590 C   0  0  0  0  0  0  0  0  0  0  0  0
  139.8530   69.7700  225.7240 C   0  0  0  0  0  0  0  0  0  0  0  0
  139.6610   68.9470  226.8460 C   0  0  0  0  0  0  0  0  0  0  0  0
  140.1470   69.3470  228.0960 C   0  0  0  0  0  0  0  0  0  0  0  0
  139.9660   68.5500  229.1790 F   0  0  0  0  0  0  0  0  0  0  0  0
  140.8230   70.5650  228.2320 C   0  0  0  0  0  0  0  0  0  0  0  0
  141.0130   71.3920  227.1190 C   0  0  0  0  0  0  0  0  0  0  0  0
  140.5330   70.9990  225.8650 C   0  0  0  0  0  0  0  0  0  0  0  0
  140.7190   71.7990  224.7790 N   0  0  0  0  0  0  0  0  0  0  0  0
  139.2450   73.9740  223.0980 H   0  0  0  0  0  0  0  0  0  0  0  0
  140.2447   73.6925  220.2393 H   0  0  0  0  0  0  0  0  0  0  0  0
  138.5756   74.2623  220.6828 H   0  0  0  0  0  0  0  0  0  0  0  0
  141.4567   74.4715  218.9821 H   0  0  0  0  0  0  0  0  0  0  0  0
  140.5637   75.7423  218.1273 H   0  0  0  0  0  0  0  0  0  0  0  0
  142.5634   76.8594  217.5290 H   0  0  0  0  0  0  0  0  0  0  0  0
  144.4450   75.4040  217.9080 H   0  0  0  0  0  0  0  0  0  0  0  0
  143.9910   76.0275  220.0819 H   0  0  0  0  0  0  0  0  0  0  0  0
  143.9960   77.6082  219.3005 H   0  0  0  0  0  0  0  0  0  0  0  0
  142.4188   77.1643  221.5310 H   0  0  0  0  0  0  0  0  0  0  0  0
  142.4217   79.0206  219.3483 H   0  0  0  0  0  0  0  0  0  0  0  0
  140.7051   78.5976  219.7959 H   0  0  0  0  0  0  0  0  0  0  0  0
  141.2164   81.3094  220.1945 H   0  0  0  0  0  0  0  0  0  0  0  0
  141.2863   82.8230  222.1765 H   0  0  0  0  0  0  0  0  0  0  0  0
  141.9266   81.9251  224.4157 H   0  0  0  0  0  0  0  0  0  0  0  0
  142.4917   79.5061  224.6797 H   0  0  0  0  0  0  0  0  0  0  0  0
  142.4097   77.9797  222.7057 H   0  0  0  0  0  0  0  0  0  0  0  0
  139.2300   69.9440  222.3666 H   0  0  0  0  0  0  0  0  0  0  0  0
  138.8431   68.4473  224.3296 H   0  0  0  0  0  0  0  0  0  0  0  0
  139.1294   67.9895  226.7423 H   0  0  0  0  0  0  0  0  0  0  0  0
  141.2059   70.8730  229.2161 H   0  0  0  0  0  0  0  0  0  0  0  0
  141.5399   72.3512  227.2302 H   0  0  0  0  0  0  0  0  0  0  0  0
  1  2  2  0
  2  3  1  0
  3  4  1  0
  4  5  1  0
  5  6  2  0
  5  7  1  0
  7  8  1  0
  8  9  1  0
  9 10  1  0
  9 11  1  0
 11 12  1  0
 12 13  1  0
 13 14  1  0
 14 15  2  0
 15 16  1  0
 16 17  2  0
 17 18  1  0
 18 19  2  0
  2 20  1  0
 20 21  2  0
 21 22  1  0
 22 23  2  0
 23 24  1  0
 24 25  2  0
 25 26  1  0
 25 27  1  0
 27 28  2  0
 28 29  1  0
 29 30  2  0
 12  7  1  0
 19 14  1  0
 30 20  1  0
 29 23  1  0
  3 31  1  0
  4 32  1  0
  4 33  1  0
  8 34  1  0
  8 35  1  0
  9 36  1  6
 10 37  1  0
 11 38  1  0
 11 39  1  0
 12 40  1  1
 13 41  1  0
 13 42  1  0
 15 43  1  0
 16 44  1  0
 17 45  1  0
 18 46  1  0
 19 47  1  0
 21 48  1  0
 22 49  1  0
 24 50  1  0
 27 51  1  0
 28 52  1  0
M  END
>  <UniqueID>  (64) 
24

>  <SMILES>  (64) 
O=C(NCC(=O)N1C[C@H](O)C[C@H]1Cc1ccccc1)c1ccc2cc(F)ccc2n1

>  <Energy>  (64) 
57.54204458420654

>  <Genealogy>  (64) 
O=C(NCC(=O)N1C[C@H](O)C[C@H]1Cc1ccccc1)c1ccc2cc(F)ccc2n1 (3D coordinates assigned)
O=C(NCC(=O)N1C[C@H](O)C[C@H]1Cc1ccccc1)c1ccc2cc(F)ccc2n1 (nonaromatic ring conformer: 57.54204458420654 kcal/mol)

>  <smiles>  (64) 
O=C(NCC(=O)N1C[C@H](O)C[C@H]1Cc1ccccc1)c1ccc2cc(F)ccc2n1

>  <score_type>  (64) 
oracle

>  <origin>  (64) 
autodockgpu

>  <m_score__min__energy>  (64) 
-8.9499999999999993

>  <m_primary>  (64) 
energy

>  <meeko>  (64) 
{"free_energy": -8.87, "intermolecular_energy": -10.95, "internal_energy": -1.32, "cluster_size": 5, "cluster_id": 2, "rank_in_cluster": 2}

>  <energy>  (64) 
-8.26

>  <cluster_rmsd>  (64) 
1.26

>  <rmsd>  (64) 
271.68

>  <cluster>  (64) 
1

$$$$
UYYINUAOVYUWQM-WBADGWMWNA-N
     RDKit          3D

 52 55  0  0  0  0  0  0  0  0999 V2000
  139.5460   74.4020  220.0820 O   0  0  0  0  0  0  0  0  0  0  0  0
  139.4090   75.0180  221.1750 C   0  0  0  0  0  0  0  0  0  0  0  0
  138.5920   74.4460  222.2110 N   0  0  0  0  0  0  0  0  0  0  0  0
  138.2530   73.0260  222.1820 C   0  0  0  0  0  0  0  0  0  0  0  0
  139.4300   72.1480  222.5130 C   0  0  0  0  0  0  0  0  0  0  0  0
  140.5470   72.7160  222.6830 O   0  0  0  0  0  0  0  0  0  0  0  0
  139.3390   70.7120  222.6920 N   0  0  0  0  0  0  0  0  0  0  0  0
  139.2920   69.8360  221.5220 C   0  0  0  0  0  0  0  0  0  0  0  0
  138.8130   68.4770  222.0260 C   0  0  2  0  0  0  0  0  0  0  0  0
  137.8780   67.9190  221.1410 O   0  0  0  0  0  0  0  0  0  0  0  0
  138.1920   68.7640  223.3900 C   0  0  0  0  0  0  0  0  0  0  0  0
  138.9410   69.9970  223.9110 C   0  0  1  0  0  0  0  0  0  0  0  0
  140.1730   69.5570  224.7400 C   0  0  0  0  0  0  0  0  0  0  0  0
  140.3540   70.3590  225.9990 C   0  0  0  0  0  0  0  0  0  0  0  0
  141.1500   71.5190  225.9910 C   0  0  0  0  0  0  0  0  0  0  0  0
  141.3010   72.2770  227.1550 C   0  0  0  0  0  0  0  0  0  0  0  0
  140.6600   71.8850  228.3340 C   0  0  0  0  0  0  0  0  0  0  0  0
  139.8630   70.7350  228.3500 C   0  0  0  0  0  0  0  0  0  0  0  0
  139.7060   69.9750  227.1860 C   0  0  0  0  0  0  0  0  0  0  0  0
  140.1060   76.3010  221.3840 C   0  0  0  0  0  0  0  0  0  0  0  0
  141.2220   76.6430  220.6000 C   0  0  0  0  0  0  0  0  0  0  0  0
  141.8800   77.8530  220.8250 C   0  0  0  0  0  0  0  0  0  0  0  0
  141.4210   78.7220  221.8230 C   0  0  0  0  0  0  0  0  0  0  0  0
  142.0570   79.9500  222.0690 C   0  0  0  0  0  0  0  0  0  0  0  0
  141.5720   80.7980  223.0730 C   0  0  0  0  0  0  0  0  0  0  0  0
  142.1820   81.9860  223.3080 F   0  0  0  0  0  0  0  0  0  0  0  0
  140.4570   80.4240  223.8320 C   0  0  0  0  0  0  0  0  0  0  0  0
  139.8220   79.2000  223.5950 C   0  0  0  0  0  0  0  0  0  0  0  0
  140.2980   78.3470  222.5920 C   0  0  0  0  0  0  0  0  0  0  0  0
  139.6820   77.1570  222.3560 N   0  0  0  0  0  0  0  0  0  0  0  0
  138.2450   75.0480  222.9930 H   0  0  0  0  0  0  0  0  0  0  0  0
  137.4550   72.8383  222.9155 H   0  0  0  0  0  0  0  0  0  0  0  0
  137.9278   72.7797  221.1605 H   0  0  0  0  0  0  0  0  0  0  0  0
  138.5898   70.2348  220.7751 H   0  0  0  0  0  0  0  0  0  0  0  0
  140.2772   69.7596  221.0388 H   0  0  0  0  0  0  0  0  0  0  0  0
  139.6304   67.7445  222.0981 H   0  0  0  0  0  0  0  0  0  0  0  0
  138.0550   68.3260  220.2530 H   0  0  0  0  0  0  0  0  0  0  0  0
  137.1176   68.9774  223.2893 H   0  0  0  0  0  0  0  0  0  0  0  0
  138.2782   67.9066  224.0737 H   0  0  0  0  0  0  0  0  0  0  0  0
  138.3341   70.6278  224.5771 H   0  0  0  0  0  0  0  0  0  0  0  0
  140.0509   68.4986  225.0137 H   0  0  0  0  0  0  0  0  0  0  0  0
  141.0638   69.7210  224.1158 H   0  0  0  0  0  0  0  0  0  0  0  0
  141.6554   71.8304  225.0649 H   0  0  0  0  0  0  0  0  0  0  0  0
  141.9248   73.1830  227.1437 H   0  0  0  0  0  0  0  0  0  0  0  0
  140.7824   72.4814  229.2502 H   0  0  0  0  0  0  0  0  0  0  0  0
  139.3595   70.4283  229.2786 H   0  0  0  0  0  0  0  0  0  0  0  0
  139.0740   69.0748  227.1996 H   0  0  0  0  0  0  0  0  0  0  0  0
  141.5747   75.9601  219.8131 H   0  0  0  0  0  0  0  0  0  0  0  0
  142.7576   78.1238  220.2196 H   0  0  0  0  0  0  0  0  0  0  0  0
  142.9342   80.2452  221.4745 H   0  0  0  0  0  0  0  0  0  0  0  0
  140.0787   81.0947  224.6175 H   0  0  0  0  0  0  0  0  0  0  0  0
  138.9488   78.9078  224.1967 H   0  0  0  0  0  0  0  0  0  0  0  0
  1  2  2  0
  2  3  1  0
  3  4  1  0
  4  5  1  0
  5  6  2  0
  5  7  1  0
  7  8  1  0
  8  9  1  0
  9 10  1  0
  9 11  1  0
 11 12  1  0
 12 13  1  0
 13 14  1  0
 14 15  2  0
 15 16  1  0
 16 17  2  0
 17 18  1  0
 18 19  2  0
  2 20  1  0
 20 21  2  0
 21 22  1  0
 22 23  2  0
 23 24  1  0
 24 25  2  0
 25 26  1  0
 25 27  1  0
 27 28  2  0
 28 29  1  0
 29 30  2  0
 12  7  1  0
 19 14  1  0
 30 20  1  0
 29 23  1  0
  3 31  1  0
  4 32  1  0
  4 33  1  0
  8 34  1  0
  8 35  1  0
  9 36  1  1
 10 37  1  0
 11 38  1  0
 11 39  1  0
 12 40  1  1
 13 41  1  0
 13 42  1  0
 15 43  1  0
 16 44  1  0
 17 45  1  0
 18 46  1  0
 19 47  1  0
 21 48  1  0
 22 49  1  0
 24 50  1  0
 27 51  1  0
 28 52  1  0
M  END
>  <UniqueID>  (65) 
24

>  <SMILES>  (65) 
O=C(NCC(=O)N1C[C@H](O)C[C@H]1Cc1ccccc1)c1ccc2cc(F)ccc2n1

>  <Energy>  (65) 
57.54204458420654

>  <Genealogy>  (65) 
O=C(NCC(=O)N1C[C@H](O)C[C@H]1Cc1ccccc1)c1ccc2cc(F)ccc2n1 (3D coordinates assigned)
O=C(NCC(=O)N1C[C@H](O)C[C@H]1Cc1ccccc1)c1ccc2cc(F)ccc2n1 (nonaromatic ring conformer: 57.54204458420654 kcal/mol)

>  <smiles>  (65) 
O=C(NCC(=O)N1C[C@H](O)C[C@H]1Cc1ccccc1)c1ccc2cc(F)ccc2n1

>  <score_type>  (65) 
oracle

>  <origin>  (65) 
autodockgpu

>  <m_score__min__energy>  (65) 
-8.9499999999999993

>  <m_primary>  (65) 
energy

>  <meeko>  (65) 
{"free_energy": -8.12, "intermolecular_energy": -10.2, "internal_energy": -1.48, "cluster_size": 6, "cluster_id": 1, "rank_in_cluster": 6}

>  <energy>  (65) 
-8.17

>  <cluster_rmsd>  (65) 
1.21

>  <rmsd>  (65) 
271.8

>  <cluster>  (65) 
1

$$$$
UYYINUAOVYUWQM-WBADGWMWNA-N
     RDKit          3D

 52 55  0  0  0  0  0  0  0  0999 V2000
  139.7760   74.1700  221.9820 O   0  0  0  0  0  0  0  0  0  0  0  0
  140.1140   75.3860  221.9610 C   0  0  0  0  0  0  0  0  0  0  0  0
  141.4430   75.7440  221.5460 N   0  0  0  0  0  0  0  0  0  0  0  0
  142.2570   74.7980  220.7870 C   0  0  0  0  0  0  0  0  0  0  0  0
  142.9590   75.4470  219.6240 C   0  0  0  0  0  0  0  0  0  0  0  0
  144.0310   74.9090  219.2210 O   0  0  0  0  0  0  0  0  0  0  0  0
  142.4520   76.6100  218.9250 N   0  0  0  0  0  0  0  0  0  0  0  0
  142.0840   76.5070  217.5130 C   0  0  0  0  0  0  0  0  0  0  0  0
  141.9750   77.9380  216.9950 C   0  0  2  0  0  0  0  0  0  0  0  0
  142.5560   78.0530  215.7230 O   0  0  0  0  0  0  0  0  0  0  0  0
  142.7130   78.7840  218.0280 C   0  0  0  0  0  0  0  0  0  0  0  0
  142.5660   78.0130  219.3450 C   0  0  1  0  0  0  0  0  0  0  0  0
  141.2970   78.4860  220.0970 C   0  0  0  0  0  0  0  0  0  0  0  0
  141.5970   79.4460  221.2140 C   0  0  0  0  0  0  0  0  0  0  0  0
  142.2610   79.0000  222.3720 C   0  0  0  0  0  0  0  0  0  0  0  0
  142.5600   79.8960  223.4020 C   0  0  0  0  0  0  0  0  0  0  0  0
  142.1990   81.2410  223.2860 C   0  0  0  0  0  0  0  0  0  0  0  0
  141.5420   81.6940  222.1370 C   0  0  0  0  0  0  0  0  0  0  0  0
  141.2450   80.8020  221.1020 C   0  0  0  0  0  0  0  0  0  0  0  0
  139.1360   76.4230  222.3400 C   0  0  0  0  0  0  0  0  0  0  0  0
  137.7570   76.1850  222.2110 C   0  0  0  0  0  0  0  0  0  0  0  0
  136.8460   77.1860  222.5570 C   0  0  0  0  0  0  0  0  0  0  0  0
  137.3110   78.4170  223.0370 C   0  0  0  0  0  0  0  0  0  0  0  0
  136.4220   79.4410  223.4000 C   0  0  0  0  0  0  0  0  0  0  0  0
  136.9190   80.6590  223.8790 C   0  0  0  0  0  0  0  0  0  0  0  0
  136.0600   81.6470  224.2350 F   0  0  0  0  0  0  0  0  0  0  0  0
  138.3000   80.8600  223.9950 C   0  0  0  0  0  0  0  0  0  0  0  0
  139.1910   79.8440  223.6300 C   0  0  0  0  0  0  0  0  0  0  0  0
  138.7030   78.6230  223.1530 C   0  0  0  0  0  0  0  0  0  0  0  0
  139.5670   77.6320  222.8000 N   0  0  0  0  0  0  0  0  0  0  0  0
  141.8260   76.6890  221.7810 H   0  0  0  0  0  0  0  0  0  0  0  0
  143.0129   74.3647  221.4584 H   0  0  0  0  0  0  0  0  0  0  0  0
  141.5849   74.0261  220.3840 H   0  0  0  0  0  0  0  0  0  0  0  0
  142.8579   75.9581  216.9565 H   0  0  0  0  0  0  0  0  0  0  0  0
  141.1375   75.9615  217.3846 H   0  0  0  0  0  0  0  0  0  0  0  0
  140.9307   78.2627  216.8764 H   0  0  0  0  0  0  0  0  0  0  0  0
  143.3270   78.6720  215.8220 H   0  0  0  0  0  0  0  0  0  0  0  0
  143.7739   78.8882  217.7566 H   0  0  0  0  0  0  0  0  0  0  0  0
  142.3055   79.8034  218.0966 H   0  0  0  0  0  0  0  0  0  0  0  0
  143.4068   78.1672  220.0373 H   0  0  0  0  0  0  0  0  0  0  0  0
  140.6289   78.9830  219.3782 H   0  0  0  0  0  0  0  0  0  0  0  0
  140.8308   77.5963  220.5455 H   0  0  0  0  0  0  0  0  0  0  0  0
  142.5458   77.9417  222.4668 H   0  0  0  0  0  0  0  0  0  0  0  0
  143.0798   79.5423  224.3046 H   0  0  0  0  0  0  0  0  0  0  0  0
  142.4317   81.9444  224.0991 H   0  0  0  0  0  0  0  0  0  0  0  0
  141.2587   82.7531  222.0477 H   0  0  0  0  0  0  0  0  0  0  0  0
  140.7341   81.1628  220.1971 H   0  0  0  0  0  0  0  0  0  0  0  0
  137.3964   75.2146  221.8391 H   0  0  0  0  0  0  0  0  0  0  0  0
  135.7655   77.0078  222.4527 H   0  0  0  0  0  0  0  0  0  0  0  0
  135.3368   79.2867  223.3082 H   0  0  0  0  0  0  0  0  0  0  0  0
  138.6854   81.8182  224.3737 H   0  0  0  0  0  0  0  0  0  0  0  0
  140.2754   80.0059  223.7183 H   0  0  0  0  0  0  0  0  0  0  0  0
  1  2  2  0
  2  3  1  0
  3  4  1  0
  4  5  1  0
  5  6  2  0
  5  7  1  0
  7  8  1  0
  8  9  1  0
  9 10  1  0
  9 11  1  0
 11 12  1  0
 12 13  1  0
 13 14  1  0
 14 15  2  0
 15 16  1  0
 16 17  2  0
 17 18  1  0
 18 19  2  0
  2 20  1  0
 20 21  2  0
 21 22  1  0
 22 23  2  0
 23 24  1  0
 24 25  2  0
 25 26  1  0
 25 27  1  0
 27 28  2  0
 28 29  1  0
 29 30  2  0
 12  7  1  0
 19 14  1  0
 30 20  1  0
 29 23  1  0
  3 31  1  0
  4 32  1  0
  4 33  1  0
  8 34  1  0
  8 35  1  0
  9 36  1  6
 10 37  1  0
 11 38  1  0
 11 39  1  0
 12 40  1  1
 13 41  1  0
 13 42  1  0
 15 43  1  0
 16 44  1  0
 17 45  1  0
 18 46  1  0
 19 47  1  0
 21 48  1  0
 22 49  1  0
 24 50  1  0
 27 51  1  0
 28 52  1  0
M  END
>  <UniqueID>  (66) 
24

>  <SMILES>  (66) 
O=C(NCC(=O)N1C[C@H](O)C[C@H]1Cc1ccccc1)c1ccc2cc(F)ccc2n1

>  <Energy>  (66) 
57.54204458420654

>  <Genealogy>  (66) 
O=C(NCC(=O)N1C[C@H](O)C[C@H]1Cc1ccccc1)c1ccc2cc(F)ccc2n1 (3D coordinates assigned)
O=C(NCC(=O)N1C[C@H](O)C[C@H]1Cc1ccccc1)c1ccc2cc(F)ccc2n1 (nonaromatic ring conformer: 57.54204458420654 kcal/mol)

>  <smiles>  (66) 
O=C(NCC(=O)N1C[C@H](O)C[C@H]1Cc1ccccc1)c1ccc2cc(F)ccc2n1

>  <score_type>  (66) 
oracle

>  <origin>  (66) 
autodockgpu

>  <m_score__min__energy>  (66) 
-8.9499999999999993

>  <m_primary>  (66) 
energy

>  <meeko>  (66) 
{"free_energy": -7.06, "intermolecular_energy": -9.15, "internal_energy": -2.54, "cluster_size": 3, "cluster_id": 6, "rank_in_cluster": 3}

>  <energy>  (66) 
-8.12

>  <cluster_rmsd>  (66) 
1.24

>  <rmsd>  (66) 
271.68

>  <cluster>  (66) 
1

$$$$
UYYINUAOVYUWQM-WBADGWMWNA-N
     RDKit          3D

 52 55  0  0  0  0  0  0  0  0999 V2000
  139.6370   75.6100  220.3760 O   0  0  0  0  0  0  0  0  0  0  0  0
  139.2780   75.8720  221.5580 C   0  0  0  0  0  0  0  0  0  0  0  0
  138.5250   74.8980  222.3000 N   0  0  0  0  0  0  0  0  0  0  0  0
  138.5100   73.5000  221.8780 C   0  0  0  0  0  0  0  0  0  0  0  0
  139.7320   72.7490  222.3370 C   0  0  0  0  0  0  0  0  0  0  0  0
  140.8520   73.3180  222.1860 O   0  0  0  0  0  0  0  0  0  0  0  0
  139.6870   71.4490  222.9740 N   0  0  0  0  0  0  0  0  0  0  0  0
  139.5390   70.2440  222.1590 C   0  0  0  0  0  0  0  0  0  0  0  0
  139.1380   69.1260  223.1180 C   0  0  2  0  0  0  0  0  0  0  0  0
  138.1300   68.3260  222.5570 O   0  0  0  0  0  0  0  0  0  0  0  0
  138.6510   69.8450  224.3720 C   0  0  0  0  0  0  0  0  0  0  0  0
  139.4250   71.1690  224.3920 C   0  0  1  0  0  0  0  0  0  0  0  0
  140.7420   71.0000  225.1900 C   0  0  0  0  0  0  0  0  0  0  0  0
  140.6310   70.0000  226.3070 C   0  0  0  0  0  0  0  0  0  0  0  0
  141.1610   68.7050  226.1530 C   0  0  0  0  0  0  0  0  0  0  0  0
  141.0780   67.7820  227.1980 C   0  0  0  0  0  0  0  0  0  0  0  0
  140.4660   68.1410  228.4030 C   0  0  0  0  0  0  0  0  0  0  0  0
  139.9390   69.4260  228.5660 C   0  0  0  0  0  0  0  0  0  0  0  0
  140.0240   70.3550  227.5240 C   0  0  0  0  0  0  0  0  0  0  0  0
  139.6560   77.1600  222.1680 C   0  0  0  0  0  0  0  0  0  0  0  0
  138.6750   78.0060  222.7150 C   0  0  0  0  0  0  0  0  0  0  0  0
  139.0480   79.2300  223.2720 C   0  0  0  0  0  0  0  0  0  0  0  0
  140.3980   79.6060  223.2900 C   0  0  0  0  0  0  0  0  0  0  0  0
  140.8080   80.8270  223.8480 C   0  0  0  0  0  0  0  0  0  0  0  0
  142.1650   81.1720  223.8530 C   0  0  0  0  0  0  0  0  0  0  0  0
  142.5620   82.3490  224.3970 F   0  0  0  0  0  0  0  0  0  0  0  0
  143.1140   80.3030  223.3000 C   0  0  0  0  0  0  0  0  0  0  0  0
  142.7110   79.0870  222.7380 C   0  0  0  0  0  0  0  0  0  0  0  0
  141.3570   78.7330  222.7310 C   0  0  0  0  0  0  0  0  0  0  0  0
  140.9610   77.5490  222.1870 N   0  0  0  0  0  0  0  0  0  0  0  0
  137.9910   75.1900  223.1510 H   0  0  0  0  0  0  0  0  0  0  0  0
  137.6176   73.0135  222.2986 H   0  0  0  0  0  0  0  0  0  0  0  0
  138.4982   73.4816  220.7782 H   0  0  0  0  0  0  0  0  0  0  0  0
  138.7582   70.3919  221.3984 H   0  0  0  0  0  0  0  0  0  0  0  0
  140.4723   70.0017  221.6297 H   0  0  0  0  0  0  0  0  0  0  0  0
  139.9719   68.4436  223.3394 H   0  0  0  0  0  0  0  0  0  0  0  0
  138.0710   68.5800  221.5990 H   0  0  0  0  0  0  0  0  0  0  0  0
  137.5682   70.0303  224.3162 H   0  0  0  0  0  0  0  0  0  0  0  0
  138.8210   69.2516  225.2825 H   0  0  0  0  0  0  0  0  0  0  0  0
  138.8756   71.9888  224.8778 H   0  0  0  0  0  0  0  0  0  0  0  0
  141.5298   70.6664  224.4986 H   0  0  0  0  0  0  0  0  0  0  0  0
  140.9775   71.9739  225.6440 H   0  0  0  0  0  0  0  0  0  0  0  0
  141.6423   68.4189  225.2062 H   0  0  0  0  0  0  0  0  0  0  0  0
  141.4945   66.7716  227.0730 H   0  0  0  0  0  0  0  0  0  0  0  0
  140.3991   67.4117  229.2237 H   0  0  0  0  0  0  0  0  0  0  0  0
  139.4573   69.7063  229.5144 H   0  0  0  0  0  0  0  0  0  0  0  0
  139.6144   71.3671  227.6574 H   0  0  0  0  0  0  0  0  0  0  0  0
  137.6173   77.7041  222.7039 H   0  0  0  0  0  0  0  0  0  0  0  0
  138.2840   79.8983  223.6960 H   0  0  0  0  0  0  0  0  0  0  0  0
  140.0641   81.5120  224.2809 H   0  0  0  0  0  0  0  0  0  0  0  0
  144.1792   80.5774  223.3076 H   0  0  0  0  0  0  0  0  0  0  0  0
  143.4588   78.4086  222.3013 H   0  0  0  0  0  0  0  0  0  0  0  0
  1  2  2  0
  2  3  1  0
  3  4  1  0
  4  5  1  0
  5  6  2  0
  5  7  1  0
  7  8  1  0
  8  9  1  0
  9 10  1  0
  9 11  1  0
 11 12  1  0
 12 13  1  0
 13 14  1  0
 14 15  2  0
 15 16  1  0
 16 17  2  0
 17 18  1  0
 18 19  2  0
  2 20  1  0
 20 21  2  0
 21 22  1  0
 22 23  2  0
 23 24  1  0
 24 25  2  0
 25 26  1  0
 25 27  1  0
 27 28  2  0
 28 29  1  0
 29 30  2  0
 12  7  1  0
 19 14  1  0
 30 20  1  0
 29 23  1  0
  3 31  1  0
  4 32  1  0
  4 33  1  0
  8 34  1  0
  8 35  1  0
  9 36  1  1
 10 37  1  0
 11 38  1  0
 11 39  1  0
 12 40  1  1
 13 41  1  0
 13 42  1  0
 15 43  1  0
 16 44  1  0
 17 45  1  0
 18 46  1  0
 19 47  1  0
 21 48  1  0
 22 49  1  0
 24 50  1  0
 27 51  1  0
 28 52  1  0
M  END
>  <UniqueID>  (67) 
24

>  <SMILES>  (67) 
O=C(NCC(=O)N1C[C@H](O)C[C@H]1Cc1ccccc1)c1ccc2cc(F)ccc2n1

>  <Energy>  (67) 
57.54204458420654

>  <Genealogy>  (67) 
O=C(NCC(=O)N1C[C@H](O)C[C@H]1Cc1ccccc1)c1ccc2cc(F)ccc2n1 (3D coordinates assigned)
O=C(NCC(=O)N1C[C@H](O)C[C@H]1Cc1ccccc1)c1ccc2cc(F)ccc2n1 (nonaromatic ring conformer: 57.54204458420654 kcal/mol)

>  <smiles>  (67) 
O=C(NCC(=O)N1C[C@H](O)C[C@H]1Cc1ccccc1)c1ccc2cc(F)ccc2n1

>  <score_type>  (67) 
oracle

>  <origin>  (67) 
autodockgpu

>  <m_score__min__energy>  (67) 
-8.9499999999999993

>  <m_primary>  (67) 
energy

>  <meeko>  (67) 
{"free_energy": -8.95, "intermolecular_energy": -11.04, "internal_energy": -1.17, "cluster_size": 6, "cluster_id": 1, "rank_in_cluster": 1}

>  <energy>  (67) 
-8.89

>  <cluster_rmsd>  (67) 
0.0

>  <rmsd>  (67) 
272.05

>  <cluster>  (67) 
2

$$$$
UYYINUAOVYUWQM-WBADGWMWNA-N
     RDKit          3D

 52 55  0  0  0  0  0  0  0  0999 V2000
  137.4560   75.8690  220.9620 O   0  0  0  0  0  0  0  0  0  0  0  0
  138.4100   75.9620  221.7830 C   0  0  0  0  0  0  0  0  0  0  0  0
  138.9840   74.7670  222.3390 N   0  0  0  0  0  0  0  0  0  0  0  0
  138.7640   73.4760  221.6930 C   0  0  0  0  0  0  0  0  0  0  0  0
  139.5330   72.3640  222.3560 C   0  0  0  0  0  0  0  0  0  0  0  0
  140.6950   72.6340  222.7770 O   0  0  0  0  0  0  0  0  0  0  0  0
  139.0000   71.0340  222.5750 N   0  0  0  0  0  0  0  0  0  0  0  0
  138.5620   70.2300  221.4350 C   0  0  0  0  0  0  0  0  0  0  0  0
  137.7180   69.0960  222.0120 C   0  0  2  0  0  0  0  0  0  0  0  0
  136.5740   68.8780  221.2280 O   0  0  0  0  0  0  0  0  0  0  0  0
  137.3540   69.5590  223.4190 C   0  0  0  0  0  0  0  0  0  0  0  0
  138.5070   70.4780  223.8420 C   0  0  1  0  0  0  0  0  0  0  0  0
  139.6020   69.6550  224.5650 C   0  0  0  0  0  0  0  0  0  0  0  0
  140.0920   70.3080  225.8270 C   0  0  0  0  0  0  0  0  0  0  0  0
  139.8380   69.7120  227.0770 C   0  0  0  0  0  0  0  0  0  0  0  0
  140.3120   70.3060  228.2490 C   0  0  0  0  0  0  0  0  0  0  0  0
  141.0420   71.4970  228.1850 C   0  0  0  0  0  0  0  0  0  0  0  0
  141.3020   72.0940  226.9480 C   0  0  0  0  0  0  0  0  0  0  0  0
  140.8330   71.5010  225.7710 C   0  0  0  0  0  0  0  0  0  0  0  0
  138.9390   77.2920  222.1420 C   0  0  0  0  0  0  0  0  0  0  0  0
  138.1550   78.4450  221.9600 C   0  0  0  0  0  0  0  0  0  0  0  0
  138.6790   79.6960  222.2890 C   0  0  0  0  0  0  0  0  0  0  0  0
  139.9780   79.7960  222.8040 C   0  0  0  0  0  0  0  0  0  0  0  0
  140.5320   81.0390  223.1510 C   0  0  0  0  0  0  0  0  0  0  0  0
  141.8320   81.1040  223.6660 C   0  0  0  0  0  0  0  0  0  0  0  0
  142.3650   82.3040  224.0060 F   0  0  0  0  0  0  0  0  0  0  0  0
  142.5820   79.9340  223.8340 C   0  0  0  0  0  0  0  0  0  0  0  0
  142.0370   78.6930  223.4860 C   0  0  0  0  0  0  0  0  0  0  0  0
  140.7370   78.6180  222.9730 C   0  0  0  0  0  0  0  0  0  0  0  0
  140.2030   77.4120  222.6360 N   0  0  0  0  0  0  0  0  0  0  0  0
  139.5670   74.8230  223.2060 H   0  0  0  0  0  0  0  0  0  0  0  0
  137.6910   73.2378  221.7358 H   0  0  0  0  0  0  0  0  0  0  0  0
  139.1180   73.5559  220.6546 H   0  0  0  0  0  0  0  0  0  0  0  0
  137.9599   70.8410  220.7464 H   0  0  0  0  0  0  0  0  0  0  0  0
  139.4193   69.8416  220.8657 H   0  0  0  0  0  0  0  0  0  0  0  0
  138.2569   68.1372  222.0270 H   0  0  0  0  0  0  0  0  0  0  0  0
  136.8720   68.9130  220.2810 H   0  0  0  0  0  0  0  0  0  0  0  0
  136.4023   70.1106  223.4110 H   0  0  0  0  0  0  0  0  0  0  0  0
  137.2215   68.7148  224.1117 H   0  0  0  0  0  0  0  0  0  0  0  0
  138.2020   71.2663  224.5460 H   0  0  0  0  0  0  0  0  0  0  0  0
  139.1879   68.6681  224.8192 H   0  0  0  0  0  0  0  0  0  0  0  0
  140.4599   69.5772  223.8809 H   0  0  0  0  0  0  0  0  0  0  0  0
  139.2641   68.7751  227.1309 H   0  0  0  0  0  0  0  0  0  0  0  0
  140.1108   69.8365  229.2232 H   0  0  0  0  0  0  0  0  0  0  0  0
  141.4121   71.9647  229.1093 H   0  0  0  0  0  0  0  0  0  0  0  0
  141.8760   73.0311  226.9001 H   0  0  0  0  0  0  0  0  0  0  0  0
  141.0448   71.9698  224.7987 H   0  0  0  0  0  0  0  0  0  0  0  0
  137.1336   78.3614  221.5603 H   0  0  0  0  0  0  0  0  0  0  0  0
  138.0728   80.6024  222.1441 H   0  0  0  0  0  0  0  0  0  0  0  0
  139.9453   81.9600  223.0183 H   0  0  0  0  0  0  0  0  0  0  0  0
  143.6025   79.9903  224.2407 H   0  0  0  0  0  0  0  0  0  0  0  0
  142.6306   77.7760  223.6157 H   0  0  0  0  0  0  0  0  0  0  0  0
  1  2  2  0
  2  3  1  0
  3  4  1  0
  4  5  1  0
  5  6  2  0
  5  7  1  0
  7  8  1  0
  8  9  1  0
  9 10  1  0
  9 11  1  0
 11 12  1  0
 12 13  1  0
 13 14  1  0
 14 15  2  0
 15 16  1  0
 16 17  2  0
 17 18  1  0
 18 19  2  0
  2 20  1  0
 20 21  2  0
 21 22  1  0
 22 23  2  0
 23 24  1  0
 24 25  2  0
 25 26  1  0
 25 27  1  0
 27 28  2  0
 28 29  1  0
 29 30  2  0
 12  7  1  0
 19 14  1  0
 30 20  1  0
 29 23  1  0
  3 31  1  0
  4 32  1  0
  4 33  1  0
  8 34  1  0
  8 35  1  0
  9 36  1  1
 10 37  1  0
 11 38  1  0
 11 39  1  0
 12 40  1  1
 13 41  1  0
 13 42  1  0
 15 43  1  0
 16 44  1  0
 17 45  1  0
 18 46  1  0
 19 47  1  0
 21 48  1  0
 22 49  1  0
 24 50  1  0
 27 51  1  0
 28 52  1  0
M  END
>  <UniqueID>  (68) 
24

>  <SMILES>  (68) 
O=C(NCC(=O)N1C[C@H](O)C[C@H]1Cc1ccccc1)c1ccc2cc(F)ccc2n1

>  <Energy>  (68) 
57.54204458420654

>  <Genealogy>  (68) 
O=C(NCC(=O)N1C[C@H](O)C[C@H]1Cc1ccccc1)c1ccc2cc(F)ccc2n1 (3D coordinates assigned)
O=C(NCC(=O)N1C[C@H](O)C[C@H]1Cc1ccccc1)c1ccc2cc(F)ccc2n1 (nonaromatic ring conformer: 57.54204458420654 kcal/mol)

>  <smiles>  (68) 
O=C(NCC(=O)N1C[C@H](O)C[C@H]1Cc1ccccc1)c1ccc2cc(F)ccc2n1

>  <score_type>  (68) 
oracle

>  <origin>  (68) 
autodockgpu

>  <m_score__min__energy>  (68) 
-8.9499999999999993

>  <m_primary>  (68) 
energy

>  <meeko>  (68) 
{"free_energy": -8.17, "intermolecular_energy": -10.26, "internal_energy": -1.56, "cluster_size": 6, "cluster_id": 1, "rank_in_cluster": 5}

>  <energy>  (68) 
-8.87

>  <cluster_rmsd>  (68) 
0.1

>  <rmsd>  (68) 
272.07

>  <cluster>  (68) 
2

$$$$
UYYINUAOVYUWQM-WBADGWMWNA-N
     RDKit          3D

 52 55  0  0  0  0  0  0  0  0999 V2000
  139.9430   73.7010  222.6790 O   0  0  0  0  0  0  0  0  0  0  0  0
  139.8420   72.4650  222.4460 C   0  0  0  0  0  0  0  0  0  0  0  0
  139.7160   72.0080  221.0890 N   0  0  0  0  0  0  0  0  0  0  0  0
  140.0930   72.8800  219.9800 C   0  0  0  0  0  0  0  0  0  0  0  0
  141.4290   73.5410  220.1990 C   0  0  0  0  0  0  0  0  0  0  0  0
  142.3010   72.8870  220.8410 O   0  0  0  0  0  0  0  0  0  0  0  0
  141.7750   74.8480  219.6780 N   0  0  0  0  0  0  0  0  0  0  0  0
  142.0760   75.0090  218.2560 C   0  0  0  0  0  0  0  0  0  0  0  0
  142.7640   76.3640  218.1150 C   0  0  2  0  0  0  0  0  0  0  0  0
  143.8510   76.2810  217.2320 O   0  0  0  0  0  0  0  0  0  0  0  0
  143.2150   76.7200  219.5280 C   0  0  0  0  0  0  0  0  0  0  0  0
  142.2100   76.0200  220.4510 C   0  0  1  0  0  0  0  0  0  0  0  0
  141.0250   76.9680  220.7590 C   0  0  0  0  0  0  0  0  0  0  0  0
  141.3950   78.0930  221.6850 C   0  0  0  0  0  0  0  0  0  0  0  0
  141.3540   77.9050  223.0800 C   0  0  0  0  0  0  0  0  0  0  0  0
  141.7190   78.9430  223.9400 C   0  0  0  0  0  0  0  0  0  0  0  0
  142.1270   80.1740  223.4200 C   0  0  0  0  0  0  0  0  0  0  0  0
  142.1740   80.3690  222.0350 C   0  0  0  0  0  0  0  0  0  0  0  0
  141.8130   79.3310  221.1690 C   0  0  0  0  0  0  0  0  0  0  0  0
  139.8790   71.5050  223.5660 C   0  0  0  0  0  0  0  0  0  0  0  0
  139.3490   70.2110  223.4150 C   0  0  0  0  0  0  0  0  0  0  0  0
  139.3760   69.3220  224.4910 C   0  0  0  0  0  0  0  0  0  0  0  0
  139.9360   69.7210  225.7110 C   0  0  0  0  0  0  0  0  0  0  0  0
  139.9850   68.8490  226.8110 C   0  0  0  0  0  0  0  0  0  0  0  0
  140.5530   69.2770  228.0170 C   0  0  0  0  0  0  0  0  0  0  0  0
  140.6050   68.4340  229.0780 F   0  0  0  0  0  0  0  0  0  0  0  0
  141.0710   70.5730  228.1300 C   0  0  0  0  0  0  0  0  0  0  0  0
  141.0210   71.4480  227.0390 C   0  0  0  0  0  0  0  0  0  0  0  0
  140.4570   71.0280  225.8290 C   0  0  0  0  0  0  0  0  0  0  0  0
  140.4100   71.8750  224.7650 N   0  0  0  0  0  0  0  0  0  0  0  0
  139.3600   71.0430  220.8940 H   0  0  0  0  0  0  0  0  0  0  0  0
  140.1423   72.2799  219.0595 H   0  0  0  0  0  0  0  0  0  0  0  0
  139.3345   73.6730  219.9034 H   0  0  0  0  0  0  0  0  0  0  0  0
  142.7446   74.2049  217.9147 H   0  0  0  0  0  0  0  0  0  0  0  0
  141.1623   74.9589  217.6456 H   0  0  0  0  0  0  0  0  0  0  0  0
  142.0971   77.1320  217.6960 H   0  0  0  0  0  0  0  0  0  0  0  0
  144.6400   76.0320  217.7810 H   0  0  0  0  0  0  0  0  0  0  0  0
  144.2341   76.3499  219.7138 H   0  0  0  0  0  0  0  0  0  0  0  0
  143.2410   77.8073  219.6928 H   0  0  0  0  0  0  0  0  0  0  0  0
  142.6355   75.7356  221.4247 H   0  0  0  0  0  0  0  0  0  0  0  0
  140.6652   77.3976  219.8124 H   0  0  0  0  0  0  0  0  0  0  0  0
  140.2496   76.3712  221.2615 H   0  0  0  0  0  0  0  0  0  0  0  0
  141.0335   76.9374  223.4936 H   0  0  0  0  0  0  0  0  0  0  0  0
  141.6852   78.7912  225.0289 H   0  0  0  0  0  0  0  0  0  0  0  0
  142.4115   80.9906  224.0999 H   0  0  0  0  0  0  0  0  0  0  0  0
  142.4949   81.3388  221.6270 H   0  0  0  0  0  0  0  0  0  0  0  0
  141.8566   79.4848  220.0807 H   0  0  0  0  0  0  0  0  0  0  0  0
  138.9150   69.9007  222.4530 H   0  0  0  0  0  0  0  0  0  0  0  0
  138.9584   68.3104  224.3808 H   0  0  0  0  0  0  0  0  0  0  0  0
  139.5775   67.8309  226.7251 H   0  0  0  0  0  0  0  0  0  0  0  0
  141.5184   70.9042  229.0788 H   0  0  0  0  0  0  0  0  0  0  0  0
  141.4253   72.4667  227.1326 H   0  0  0  0  0  0  0  0  0  0  0  0
  1  2  2  0
  2  3  1  0
  3  4  1  0
  4  5  1  0
  5  6  2  0
  5  7  1  0
  7  8  1  0
  8  9  1  0
  9 10  1  0
  9 11  1  0
 11 12  1  0
 12 13  1  0
 13 14  1  0
 14 15  2  0
 15 16  1  0
 16 17  2  0
 17 18  1  0
 18 19  2  0
  2 20  1  0
 20 21  2  0
 21 22  1  0
 22 23  2  0
 23 24  1  0
 24 25  2  0
 25 26  1  0
 25 27  1  0
 27 28  2  0
 28 29  1  0
 29 30  2  0
 12  7  1  0
 19 14  1  0
 30 20  1  0
 29 23  1  0
  3 31  1  0
  4 32  1  0
  4 33  1  0
  8 34  1  0
  8 35  1  0
  9 36  1  6
 10 37  1  0
 11 38  1  0
 11 39  1  0
 12 40  1  1
 13 41  1  0
 13 42  1  0
 15 43  1  0
 16 44  1  0
 17 45  1  0
 18 46  1  0
 19 47  1  0
 21 48  1  0
 22 49  1  0
 24 50  1  0
 27 51  1  0
 28 52  1  0
M  END
>  <UniqueID>  (69) 
24

>  <SMILES>  (69) 
O=C(NCC(=O)N1C[C@H](O)C[C@H]1Cc1ccccc1)c1ccc2cc(F)ccc2n1

>  <Energy>  (69) 
57.54204458420654

>  <Genealogy>  (69) 
O=C(NCC(=O)N1C[C@H](O)C[C@H]1Cc1ccccc1)c1ccc2cc(F)ccc2n1 (3D coordinates assigned)
O=C(NCC(=O)N1C[C@H](O)C[C@H]1Cc1ccccc1)c1ccc2cc(F)ccc2n1 (nonaromatic ring conformer: 57.54204458420654 kcal/mol)

>  <smiles>  (69) 
O=C(NCC(=O)N1C[C@H](O)C[C@H]1Cc1ccccc1)c1ccc2cc(F)ccc2n1

>  <score_type>  (69) 
oracle

>  <origin>  (69) 
autodockgpu

>  <m_score__min__energy>  (69) 
-8.9499999999999993

>  <m_primary>  (69) 
energy

>  <meeko>  (69) 
{"free_energy": -8.68, "intermolecular_energy": -10.76, "internal_energy": -1.27, "cluster_size": 5, "cluster_id": 2, "rank_in_cluster": 4}

>  <energy>  (69) 
-8.86

>  <cluster_rmsd>  (69) 
0.09

>  <rmsd>  (69) 
272.05

>  <cluster>  (69) 
2

$$$$
UYYINUAOVYUWQM-WBADGWMWNA-N
     RDKit          3D

 52 55  0  0  0  0  0  0  0  0999 V2000
  141.3440   72.1220  221.5240 O   0  0  0  0  0  0  0  0  0  0  0  0
  140.4750   72.4000  222.3960 C   0  0  0  0  0  0  0  0  0  0  0  0
  139.6920   73.5980  222.2570 N   0  0  0  0  0  0  0  0  0  0  0  0
  139.6000   74.2710  220.9650 C   0  0  0  0  0  0  0  0  0  0  0  0
  140.1120   75.6870  221.0160 C   0  0  0  0  0  0  0  0  0  0  0  0
  139.6590   76.4330  221.9320 O   0  0  0  0  0  0  0  0  0  0  0  0
  141.1150   76.2140  220.1140 N   0  0  0  0  0  0  0  0  0  0  0  0
  141.3750   75.5400  218.8410 C   0  0  0  0  0  0  0  0  0  0  0  0
  142.7060   76.0870  218.3330 C   0  0  2  0  0  0  0  0  0  0  0  0
  143.5000   75.0560  217.8060 O   0  0  0  0  0  0  0  0  0  0  0  0
  143.3570   76.7280  219.5550 C   0  0  0  0  0  0  0  0  0  0  0  0
  142.1840   77.1670  220.4400 C   0  0  1  0  0  0  0  0  0  0  0  0
  141.7740   78.6200  220.0930 C   0  0  0  0  0  0  0  0  0  0  0  0
  141.8180   79.5440  221.2780 C   0  0  0  0  0  0  0  0  0  0  0  0
  141.4860   80.9040  221.1280 C   0  0  0  0  0  0  0  0  0  0  0  0
  141.5050   81.7590  222.2320 C   0  0  0  0  0  0  0  0  0  0  0  0
  141.8540   81.2670  223.4930 C   0  0  0  0  0  0  0  0  0  0  0  0
  142.1810   79.9160  223.6520 C   0  0  0  0  0  0  0  0  0  0  0  0
  142.1600   79.0550  222.5500 C   0  0  0  0  0  0  0  0  0  0  0  0
  140.2590   71.4840  223.5310 C   0  0  0  0  0  0  0  0  0  0  0  0
  139.5860   70.2630  223.3450 C   0  0  0  0  0  0  0  0  0  0  0  0
  139.3740   69.4170  224.4350 C   0  0  0  0  0  0  0  0  0  0  0  0
  139.8380   69.7840  225.7040 C   0  0  0  0  0  0  0  0  0  0  0  0
  139.6470   68.9520  226.8190 C   0  0  0  0  0  0  0  0  0  0  0  0
  140.1250   69.3460  228.0740 C   0  0  0  0  0  0  0  0  0  0  0  0
  139.9460   68.5410  229.1510 F   0  0  0  0  0  0  0  0  0  0  0  0
  140.7920   70.5690  228.2210 C   0  0  0  0  0  0  0  0  0  0  0  0
  140.9820   71.4040  227.1150 C   0  0  0  0  0  0  0  0  0  0  0  0
  140.5090   71.0170  225.8560 C   0  0  0  0  0  0  0  0  0  0  0  0
  140.6940   71.8250  224.7770 N   0  0  0  0  0  0  0  0  0  0  0  0
  139.1790   73.9840  223.0830 H   0  0  0  0  0  0  0  0  0  0  0  0
  140.1935   73.7072  220.2302 H   0  0  0  0  0  0  0  0  0  0  0  0
  138.5377   74.3090  220.6821 H   0  0  0  0  0  0  0  0  0  0  0  0
  141.4426   74.4525  218.9922 H   0  0  0  0  0  0  0  0  0  0  0  0
  140.5654   75.7217  218.1188 H   0  0  0  0  0  0  0  0  0  0  0  0
  142.5767   76.8118  217.5157 H   0  0  0  0  0  0  0  0  0  0  0  0
  144.4440   75.3360  217.9360 H   0  0  0  0  0  0  0  0  0  0  0  0
  143.9896   75.9997  220.0836 H   0  0  0  0  0  0  0  0  0  0  0  0
  144.0097   77.5707  219.2832 H   0  0  0  0  0  0  0  0  0  0  0  0
  142.4229   77.1640  221.5137 H   0  0  0  0  0  0  0  0  0  0  0  0
  142.4610   79.0035  219.3243 H   0  0  0  0  0  0  0  0  0  0  0  0
  140.7333   78.5913  219.7379 H   0  0  0  0  0  0  0  0  0  0  0  0
  141.2105   81.2946  220.1373 H   0  0  0  0  0  0  0  0  0  0  0  0
  141.2451   82.8208  222.1092 H   0  0  0  0  0  0  0  0  0  0  0  0
  141.8716   81.9425  224.3609 H   0  0  0  0  0  0  0  0  0  0  0  0
  142.4550   79.5304  224.6451 H   0  0  0  0  0  0  0  0  0  0  0  0
  142.4119   77.9921  222.6795 H   0  0  0  0  0  0  0  0  0  0  0  0
  139.2283   69.9760  222.3451 H   0  0  0  0  0  0  0  0  0  0  0  0
  138.8432   68.4635  224.2971 H   0  0  0  0  0  0  0  0  0  0  0  0
  139.1223   67.9918  226.7062 H   0  0  0  0  0  0  0  0  0  0  0  0
  141.1675   70.8736  229.2090 H   0  0  0  0  0  0  0  0  0  0  0  0
  141.5033   72.3652  227.2349 H   0  0  0  0  0  0  0  0  0  0  0  0
  1  2  2  0
  2  3  1  0
  3  4  1  0
  4  5  1  0
  5  6  2  0
  5  7  1  0
  7  8  1  0
  8  9  1  0
  9 10  1  0
  9 11  1  0
 11 12  1  0
 12 13  1  0
 13 14  1  0
 14 15  2  0
 15 16  1  0
 16 17  2  0
 17 18  1  0
 18 19  2  0
  2 20  1  0
 20 21  2  0
 21 22  1  0
 22 23  2  0
 23 24  1  0
 24 25  2  0
 25 26  1  0
 25 27  1  0
 27 28  2  0
 28 29  1  0
 29 30  2  0
 12  7  1  0
 19 14  1  0
 30 20  1  0
 29 23  1  0
  3 31  1  0
  4 32  1  0
  4 33  1  0
  8 34  1  0
  8 35  1  0
  9 36  1  6
 10 37  1  0
 11 38  1  0
 11 39  1  0
 12 40  1  1
 13 41  1  0
 13 42  1  0
 15 43  1  0
 16 44  1  0
 17 45  1  0
 18 46  1  0
 19 47  1  0
 21 48  1  0
 22 49  1  0
 24 50  1  0
 27 51  1  0
 28 52  1  0
M  END
>  <UniqueID>  (70) 
24

>  <SMILES>  (70) 
O=C(NCC(=O)N1C[C@H](O)C[C@H]1Cc1ccccc1)c1ccc2cc(F)ccc2n1

>  <Energy>  (70) 
57.54204458420654

>  <Genealogy>  (70) 
O=C(NCC(=O)N1C[C@H](O)C[C@H]1Cc1ccccc1)c1ccc2cc(F)ccc2n1 (3D coordinates assigned)
O=C(NCC(=O)N1C[C@H](O)C[C@H]1Cc1ccccc1)c1ccc2cc(F)ccc2n1 (nonaromatic ring conformer: 57.54204458420654 kcal/mol)

>  <smiles>  (70) 
O=C(NCC(=O)N1C[C@H](O)C[C@H]1Cc1ccccc1)c1ccc2cc(F)ccc2n1

>  <score_type>  (70) 
oracle

>  <origin>  (70) 
autodockgpu

>  <m_score__min__energy>  (70) 
-8.9499999999999993

>  <m_primary>  (70) 
energy

>  <meeko>  (70) 
{"free_energy": -8.86, "intermolecular_energy": -10.95, "internal_energy": -1.31, "cluster_size": 5, "cluster_id": 2, "rank_in_cluster": 3}

>  <energy>  (70) 
-8.68

>  <cluster_rmsd>  (70) 
1.24

>  <rmsd>  (70) 
271.81

>  <cluster>  (70) 
2

$$$$
UYYINUAOVYUWQM-WBADGWMWNA-N
     RDKit          3D

 52 55  0  0  0  0  0  0  0  0999 V2000
  138.8320   71.7460  222.1250 O   0  0  0  0  0  0  0  0  0  0  0  0
  139.9960   71.5260  222.5600 C   0  0  0  0  0  0  0  0  0  0  0  0
  141.1270   71.7650  221.7060 N   0  0  0  0  0  0  0  0  0  0  0  0
  140.9900   72.6100  220.5220 C   0  0  0  0  0  0  0  0  0  0  0  0
  140.9180   74.0740  220.8660 C   0  0  0  0  0  0  0  0  0  0  0  0
  140.3940   74.3830  221.9750 O   0  0  0  0  0  0  0  0  0  0  0  0
  141.4530   75.1260  220.0260 N   0  0  0  0  0  0  0  0  0  0  0  0
  141.6840   74.8740  218.6040 C   0  0  0  0  0  0  0  0  0  0  0  0
  142.5860   76.0030  218.1120 C   0  0  2  0  0  0  0  0  0  0  0  0
  143.5840   75.5070  217.2580 O   0  0  0  0  0  0  0  0  0  0  0  0
  143.1830   76.6050  219.3800 C   0  0  0  0  0  0  0  0  0  0  0  0
  142.1330   76.3510  220.4680 C   0  0  1  0  0  0  0  0  0  0  0  0
  141.1530   77.5470  220.5490 C   0  0  0  0  0  0  0  0  0  0  0  0
  141.4950   78.5170  221.6450 C   0  0  0  0  0  0  0  0  0  0  0  0
  141.8600   79.8400  221.3330 C   0  0  0  0  0  0  0  0  0  0  0  0
  142.1570   80.7480  222.3520 C   0  0  0  0  0  0  0  0  0  0  0  0
  142.0930   80.3450  223.6890 C   0  0  0  0  0  0  0  0  0  0  0  0
  141.7270   79.0340  224.0100 C   0  0  0  0  0  0  0  0  0  0  0  0
  141.4250   78.1220  222.9930 C   0  0  0  0  0  0  0  0  0  0  0  0
  140.1820   71.0520  223.9440 C   0  0  0  0  0  0  0  0  0  0  0  0
  140.7430   71.8950  224.9190 C   0  0  0  0  0  0  0  0  0  0  0  0
  140.9280   71.4230  226.2200 C   0  0  0  0  0  0  0  0  0  0  0  0
  140.5490   70.1150  226.5480 C   0  0  0  0  0  0  0  0  0  0  0  0
  140.7150   69.6110  227.8480 C   0  0  0  0  0  0  0  0  0  0  0  0
  140.3230   68.3000  228.1440 C   0  0  0  0  0  0  0  0  0  0  0  0
  140.4800   67.8150  229.4010 F   0  0  0  0  0  0  0  0  0  0  0  0
  139.7670   67.4900  227.1470 C   0  0  0  0  0  0  0  0  0  0  0  0
  139.6030   67.9840  225.8490 C   0  0  0  0  0  0  0  0  0  0  0  0
  139.9900   69.2940  225.5440 C   0  0  0  0  0  0  0  0  0  0  0  0
  139.8280   69.7800  224.2830 N   0  0  0  0  0  0  0  0  0  0  0  0
  142.0540   71.3390  221.9370 H   0  0  0  0  0  0  0  0  0  0  0  0
  141.8579   72.4435  219.8670 H   0  0  0  0  0  0  0  0  0  0  0  0
  140.0490   72.3366  220.0223 H   0  0  0  0  0  0  0  0  0  0  0  0
  142.1796   73.9019  218.4647 H   0  0  0  0  0  0  0  0  0  0  0  0
  140.7380   74.8439  218.0436 H   0  0  0  0  0  0  0  0  0  0  0  0
  142.0361   76.7538  217.5255 H   0  0  0  0  0  0  0  0  0  0  0  0
  144.4460   75.6230  217.7370 H   0  0  0  0  0  0  0  0  0  0  0  0
  144.1317   76.1097  219.6343 H   0  0  0  0  0  0  0  0  0  0  0  0
  143.4094   77.6752  219.2641 H   0  0  0  0  0  0  0  0  0  0  0  0
  142.5644   76.2415  221.4739 H   0  0  0  0  0  0  0  0  0  0  0  0
  141.1743   78.0826  219.5884 H   0  0  0  0  0  0  0  0  0  0  0  0
  140.1559   77.1392  220.7715 H   0  0  0  0  0  0  0  0  0  0  0  0
  141.9116   80.1604  220.2819 H   0  0  0  0  0  0  0  0  0  0  0  0
  142.4414   81.7808  222.1022 H   0  0  0  0  0  0  0  0  0  0  0  0
  142.3310   81.0604  224.4900 H   0  0  0  0  0  0  0  0  0  0  0  0
  141.6765   78.7196  225.0629 H   0  0  0  0  0  0  0  0  0  0  0  0
  141.1319   77.0930  223.2484 H   0  0  0  0  0  0  0  0  0  0  0  0
  141.0352   72.9228  224.6580 H   0  0  0  0  0  0  0  0  0  0  0  0
  141.3705   72.0770  226.9858 H   0  0  0  0  0  0  0  0  0  0  0  0
  141.1525   70.2455  228.6329 H   0  0  0  0  0  0  0  0  0  0  0  0
  139.4580   66.4615  227.3852 H   0  0  0  0  0  0  0  0  0  0  0  0
  139.1696   67.3427  225.0674 H   0  0  0  0  0  0  0  0  0  0  0  0
  1  2  2  0
  2  3  1  0
  3  4  1  0
  4  5  1  0
  5  6  2  0
  5  7  1  0
  7  8  1  0
  8  9  1  0
  9 10  1  0
  9 11  1  0
 11 12  1  0
 12 13  1  0
 13 14  1  0
 14 15  2  0
 15 16  1  0
 16 17  2  0
 17 18  1  0
 18 19  2  0
  2 20  1  0
 20 21  2  0
 21 22  1  0
 22 23  2  0
 23 24  1  0
 24 25  2  0
 25 26  1  0
 25 27  1  0
 27 28  2  0
 28 29  1  0
 29 30  2  0
 12  7  1  0
 19 14  1  0
 30 20  1  0
 29 23  1  0
  3 31  1  0
  4 32  1  0
  4 33  1  0
  8 34  1  0
  8 35  1  0
  9 36  1  6
 10 37  1  0
 11 38  1  0
 11 39  1  0
 12 40  1  1
 13 41  1  0
 13 42  1  0
 15 43  1  0
 16 44  1  0
 17 45  1  0
 18 46  1  0
 19 47  1  0
 21 48  1  0
 22 49  1  0
 24 50  1  0
 27 51  1  0
 28 52  1  0
M  END
>  <UniqueID>  (71) 
24

>  <SMILES>  (71) 
O=C(NCC(=O)N1C[C@H](O)C[C@H]1Cc1ccccc1)c1ccc2cc(F)ccc2n1

>  <Energy>  (71) 
57.54204458420654

>  <Genealogy>  (71) 
O=C(NCC(=O)N1C[C@H](O)C[C@H]1Cc1ccccc1)c1ccc2cc(F)ccc2n1 (3D coordinates assigned)
O=C(NCC(=O)N1C[C@H](O)C[C@H]1Cc1ccccc1)c1ccc2cc(F)ccc2n1 (nonaromatic ring conformer: 57.54204458420654 kcal/mol)

>  <smiles>  (71) 
O=C(NCC(=O)N1C[C@H](O)C[C@H]1Cc1ccccc1)c1ccc2cc(F)ccc2n1

>  <score_type>  (71) 
oracle

>  <origin>  (71) 
autodockgpu

>  <m_score__min__energy>  (71) 
-8.9499999999999993

>  <m_primary>  (71) 
energy

>  <meeko>  (71) 
{"free_energy": -8.65, "intermolecular_energy": -10.74, "internal_energy": -1.17, "cluster_size": 5, "cluster_id": 2, "rank_in_cluster": 5}

>  <energy>  (71) 
-8.65

>  <cluster_rmsd>  (71) 
1.46

>  <rmsd>  (71) 
271.96

>  <cluster>  (71) 
2

$$$$
UYYINUAOVYUWQM-WBADGWMWNA-N
     RDKit          3D

 52 55  0  0  0  0  0  0  0  0999 V2000
  139.8330   74.2340  221.9720 O   0  0  0  0  0  0  0  0  0  0  0  0
  140.1510   75.4540  221.9210 C   0  0  0  0  0  0  0  0  0  0  0  0
  141.4570   75.8260  221.4490 N   0  0  0  0  0  0  0  0  0  0  0  0
  142.2560   74.8820  220.6730 C   0  0  0  0  0  0  0  0  0  0  0  0
  142.8450   75.5080  219.4370 C   0  0  0  0  0  0  0  0  0  0  0  0
  143.8150   74.9070  218.8900 O   0  0  0  0  0  0  0  0  0  0  0  0
  142.3360   76.7180  218.8260 N   0  0  0  0  0  0  0  0  0  0  0  0
  141.9170   76.7050  217.4250 C   0  0  0  0  0  0  0  0  0  0  0  0
  141.8160   78.1660  216.9960 C   0  0  2  0  0  0  0  0  0  0  0  0
  142.3550   78.3470  215.7120 O   0  0  0  0  0  0  0  0  0  0  0  0
  142.6050   78.9370  218.0490 C   0  0  0  0  0  0  0  0  0  0  0  0
  142.4900   78.0920  219.3240 C   0  0  1  0  0  0  0  0  0  0  0  0
  141.2570   78.5390  220.1460 C   0  0  0  0  0  0  0  0  0  0  0  0
  141.6040   79.4870  221.2610 C   0  0  0  0  0  0  0  0  0  0  0  0
  141.2320   80.8420  221.1810 C   0  0  0  0  0  0  0  0  0  0  0  0
  141.5350   81.7180  222.2260 C   0  0  0  0  0  0  0  0  0  0  0  0
  142.2100   81.2510  223.3570 C   0  0  0  0  0  0  0  0  0  0  0  0
  142.5800   79.9060  223.4480 C   0  0  0  0  0  0  0  0  0  0  0  0
  142.2760   79.0240  222.4060 C   0  0  0  0  0  0  0  0  0  0  0  0
  139.1720   76.4820  222.3230 C   0  0  0  0  0  0  0  0  0  0  0  0
  137.7940   76.2600  222.1550 C   0  0  0  0  0  0  0  0  0  0  0  0
  136.8830   77.2510  222.5240 C   0  0  0  0  0  0  0  0  0  0  0  0
  137.3450   78.4580  223.0650 C   0  0  0  0  0  0  0  0  0  0  0  0
  136.4550   79.4720  223.4520 C   0  0  0  0  0  0  0  0  0  0  0  0
  136.9500   80.6660  223.9910 C   0  0  0  0  0  0  0  0  0  0  0  0
  136.0900   81.6440  224.3710 F   0  0  0  0  0  0  0  0  0  0  0  0
  138.3290   80.8510  224.1440 C   0  0  0  0  0  0  0  0  0  0  0  0
  139.2210   79.8460  223.7560 C   0  0  0  0  0  0  0  0  0  0  0  0
  138.7360   78.6480  223.2180 C   0  0  0  0  0  0  0  0  0  0  0  0
  139.6000   77.6670  222.8420 N   0  0  0  0  0  0  0  0  0  0  0  0
  141.8330   76.7800  221.6560 H   0  0  0  0  0  0  0  0  0  0  0  0
  143.0756   74.5098  221.3052 H   0  0  0  0  0  0  0  0  0  0  0  0
  141.5921   74.0660  220.3515 H   0  0  0  0  0  0  0  0  0  0  0  0
  142.6608   76.1777  216.8096 H   0  0  0  0  0  0  0  0  0  0  0  0
  140.9567   76.1835  217.2991 H   0  0  0  0  0  0  0  0  0  0  0  0
  140.7742   78.5138  216.9344 H   0  0  0  0  0  0  0  0  0  0  0  0
  143.0580   79.0440  215.7990 H   0  0  0  0  0  0  0  0  0  0  0  0
  143.6575   79.0395  217.7461 H   0  0  0  0  0  0  0  0  0  0  0  0
  142.2190   79.9571  218.1916 H   0  0  0  0  0  0  0  0  0  0  0  0
  143.3566   78.1919  219.9941 H   0  0  0  0  0  0  0  0  0  0  0  0
  140.5476   79.0385  219.4697 H   0  0  0  0  0  0  0  0  0  0  0  0
  140.8238   77.6377  220.6043 H   0  0  0  0  0  0  0  0  0  0  0  0
  140.7005   81.2127  220.2921 H   0  0  0  0  0  0  0  0  0  0  0  0
  141.2421   82.7761  222.1586 H   0  0  0  0  0  0  0  0  0  0  0  0
  142.4507   81.9432  224.1773 H   0  0  0  0  0  0  0  0  0  0  0  0
  143.1106   79.5411  224.3398 H   0  0  0  0  0  0  0  0  0  0  0  0
  142.5635   77.9650  222.4825 H   0  0  0  0  0  0  0  0  0  0  0  0
  137.4352   75.3090  221.7344 H   0  0  0  0  0  0  0  0  0  0  0  0
  135.8039   77.0846  222.3903 H   0  0  0  0  0  0  0  0  0  0  0  0
  135.3709   79.3291  223.3322 H   0  0  0  0  0  0  0  0  0  0  0  0
  138.7123   81.7896  224.5707 H   0  0  0  0  0  0  0  0  0  0  0  0
  140.3042   79.9970  223.8736 H   0  0  0  0  0  0  0  0  0  0  0  0
  1  2  2  0
  2  3  1  0
  3  4  1  0
  4  5  1  0
  5  6  2  0
  5  7  1  0
  7  8  1  0
  8  9  1  0
  9 10  1  0
  9 11  1  0
 11 12  1  0
 12 13  1  0
 13 14  1  0
 14 15  2  0
 15 16  1  0
 16 17  2  0
 17 18  1  0
 18 19  2  0
  2 20  1  0
 20 21  2  0
 21 22  1  0
 22 23  2  0
 23 24  1  0
 24 25  2  0
 25 26  1  0
 25 27  1  0
 27 28  2  0
 28 29  1  0
 29 30  2  0
 12  7  1  0
 19 14  1  0
 30 20  1  0
 29 23  1  0
  3 31  1  0
  4 32  1  0
  4 33  1  0
  8 34  1  0
  8 35  1  0
  9 36  1  6
 10 37  1  0
 11 38  1  0
 11 39  1  0
 12 40  1  1
 13 41  1  0
 13 42  1  0
 15 43  1  0
 16 44  1  0
 17 45  1  0
 18 46  1  0
 19 47  1  0
 21 48  1  0
 22 49  1  0
 24 50  1  0
 27 51  1  0
 28 52  1  0
M  END
>  <UniqueID>  (72) 
24

>  <SMILES>  (72) 
O=C(NCC(=O)N1C[C@H](O)C[C@H]1Cc1ccccc1)c1ccc2cc(F)ccc2n1

>  <Energy>  (72) 
57.54204458420654

>  <Genealogy>  (72) 
O=C(NCC(=O)N1C[C@H](O)C[C@H]1Cc1ccccc1)c1ccc2cc(F)ccc2n1 (3D coordinates assigned)
O=C(NCC(=O)N1C[C@H](O)C[C@H]1Cc1ccccc1)c1ccc2cc(F)ccc2n1 (nonaromatic ring conformer: 57.54204458420654 kcal/mol)

>  <smiles>  (72) 
O=C(NCC(=O)N1C[C@H](O)C[C@H]1Cc1ccccc1)c1ccc2cc(F)ccc2n1

>  <score_type>  (72) 
oracle

>  <origin>  (72) 
autodockgpu

>  <m_score__min__energy>  (72) 
-8.9499999999999993

>  <m_primary>  (72) 
energy

>  <meeko>  (72) 
{"free_energy": -7.1, "intermolecular_energy": -9.19, "internal_energy": -2.51, "cluster_size": 3, "cluster_id": 6, "rank_in_cluster": 1}

>  <energy>  (72) 
-8.46

>  <cluster_rmsd>  (72) 
0.0

>  <rmsd>  (72) 
271.61

>  <cluster>  (72) 
3

$$$$
UYYINUAOVYUWQM-WBADGWMWNA-N
     RDKit          3D

 52 55  0  0  0  0  0  0  0  0999 V2000
  139.6640   74.4960  219.8020 O   0  0  0  0  0  0  0  0  0  0  0  0
  139.5570   75.0290  220.9400 C   0  0  0  0  0  0  0  0  0  0  0  0
  138.7900   74.3690  221.9620 N   0  0  0  0  0  0  0  0  0  0  0  0
  138.4760   72.9470  221.8430 C   0  0  0  0  0  0  0  0  0  0  0  0
  139.5470   72.0710  222.4380 C   0  0  0  0  0  0  0  0  0  0  0  0
  140.6310   72.6290  222.7740 O   0  0  0  0  0  0  0  0  0  0  0  0
  139.3820   70.6530  222.6840 N   0  0  0  0  0  0  0  0  0  0  0  0
  139.2770   69.7260  221.5570 C   0  0  0  0  0  0  0  0  0  0  0  0
  138.7320   68.4200  222.1270 C   0  0  2  0  0  0  0  0  0  0  0  0
  137.7610   67.8710  221.2750 O   0  0  0  0  0  0  0  0  0  0  0  0
  138.1400   68.8030  223.4800 C   0  0  0  0  0  0  0  0  0  0  0  0
  138.9570   70.0170  223.9380 C   0  0  1  0  0  0  0  0  0  0  0  0
  140.1720   69.5510  224.7780 C   0  0  0  0  0  0  0  0  0  0  0  0
  140.3680   70.3600  226.0300 C   0  0  0  0  0  0  0  0  0  0  0  0
  141.1420   71.5350  226.0000 C   0  0  0  0  0  0  0  0  0  0  0  0
  141.3070   72.2990  227.1580 C   0  0  0  0  0  0  0  0  0  0  0  0
  140.7030   71.8990  228.3530 C   0  0  0  0  0  0  0  0  0  0  0  0
  139.9290   70.7350  228.3920 C   0  0  0  0  0  0  0  0  0  0  0  0
  139.7570   69.9680  227.2340 C   0  0  0  0  0  0  0  0  0  0  0  0
  140.2380   76.3080  221.2160 C   0  0  0  0  0  0  0  0  0  0  0  0
  141.3730   76.6860  220.4780 C   0  0  0  0  0  0  0  0  0  0  0  0
  142.0160   77.8920  220.7640 C   0  0  0  0  0  0  0  0  0  0  0  0
  141.5220   78.7210  221.7800 C   0  0  0  0  0  0  0  0  0  0  0  0
  142.1410   79.9430  222.0890 C   0  0  0  0  0  0  0  0  0  0  0  0
  141.6210   80.7500  223.1080 C   0  0  0  0  0  0  0  0  0  0  0  0
  142.2160   81.9340  223.4030 F   0  0  0  0  0  0  0  0  0  0  0  0
  140.4880   80.3420  223.8210 C   0  0  0  0  0  0  0  0  0  0  0  0
  139.8700   79.1230  223.5210 C   0  0  0  0  0  0  0  0  0  0  0  0
  140.3810   78.3100  222.5020 C   0  0  0  0  0  0  0  0  0  0  0  0
  139.7800   77.1260  222.2060 N   0  0  0  0  0  0  0  0  0  0  0  0
  138.4630   74.9060  222.7980 H   0  0  0  0  0  0  0  0  0  0  0  0
  137.5279   72.7497  222.3647 H   0  0  0  0  0  0  0  0  0  0  0  0
  138.4038   72.7079  220.7717 H   0  0  0  0  0  0  0  0  0  0  0  0
  138.5896   70.1263  220.7972 H   0  0  0  0  0  0  0  0  0  0  0  0
  140.2523   69.5744  221.0715 H   0  0  0  0  0  0  0  0  0  0  0  0
  139.5101   67.6490  222.2280 H   0  0  0  0  0  0  0  0  0  0  0  0
  137.1600   68.6190  221.0170 H   0  0  0  0  0  0  0  0  0  0  0  0
  137.0775   69.0682  223.3766 H   0  0  0  0  0  0  0  0  0  0  0  0
  138.1878   67.9749  224.2025 H   0  0  0  0  0  0  0  0  0  0  0  0
  138.3896   70.7088  224.5779 H   0  0  0  0  0  0  0  0  0  0  0  0
  140.0192   68.4991  225.0611 H   0  0  0  0  0  0  0  0  0  0  0  0
  141.0704   69.6839  224.1574 H   0  0  0  0  0  0  0  0  0  0  0  0
  141.6189   71.8531  225.0612 H   0  0  0  0  0  0  0  0  0  0  0  0
  141.9131   73.2165  227.1291 H   0  0  0  0  0  0  0  0  0  0  0  0
  140.8366   72.5006  229.2642 H   0  0  0  0  0  0  0  0  0  0  0  0
  139.4548   70.4218  229.3338 H   0  0  0  0  0  0  0  0  0  0  0  0
  139.1423   69.0563  227.2660 H   0  0  0  0  0  0  0  0  0  0  0  0
  141.7534   76.0340  219.6779 H   0  0  0  0  0  0  0  0  0  0  0  0
  142.9078   78.1904  220.1934 H   0  0  0  0  0  0  0  0  0  0  0  0
  143.0327   80.2655  221.5315 H   0  0  0  0  0  0  0  0  0  0  0  0
  140.0824   80.9811  224.6191 H   0  0  0  0  0  0  0  0  0  0  0  0
  138.9821   78.8032  224.0861 H   0  0  0  0  0  0  0  0  0  0  0  0
  1  2  2  0
  2  3  1  0
  3  4  1  0
  4  5  1  0
  5  6  2  0
  5  7  1  0
  7  8  1  0
  8  9  1  0
  9 10  1  0
  9 11  1  0
 11 12  1  0
 12 13  1  0
 13 14  1  0
 14 15  2  0
 15 16  1  0
 16 17  2  0
 17 18  1  0
 18 19  2  0
  2 20  1  0
 20 21  2  0
 21 22  1  0
 22 23  2  0
 23 24  1  0
 24 25  2  0
 25 26  1  0
 25 27  1  0
 27 28  2  0
 28 29  1  0
 29 30  2  0
 12  7  1  0
 19 14  1  0
 30 20  1  0
 29 23  1  0
  3 31  1  0
  4 32  1  0
  4 33  1  0
  8 34  1  0
  8 35  1  0
  9 36  1  1
 10 37  1  0
 11 38  1  0
 11 39  1  0
 12 40  1  1
 13 41  1  0
 13 42  1  0
 15 43  1  0
 16 44  1  0
 17 45  1  0
 18 46  1  0
 19 47  1  0
 21 48  1  0
 22 49  1  0
 24 50  1  0
 27 51  1  0
 28 52  1  0
M  END
>  <UniqueID>  (73) 
24

>  <SMILES>  (73) 
O=C(NCC(=O)N1C[C@H](O)C[C@H]1Cc1ccccc1)c1ccc2cc(F)ccc2n1

>  <Energy>  (73) 
57.54204458420654

>  <Genealogy>  (73) 
O=C(NCC(=O)N1C[C@H](O)C[C@H]1Cc1ccccc1)c1ccc2cc(F)ccc2n1 (3D coordinates assigned)
O=C(NCC(=O)N1C[C@H](O)C[C@H]1Cc1ccccc1)c1ccc2cc(F)ccc2n1 (nonaromatic ring conformer: 57.54204458420654 kcal/mol)

>  <smiles>  (73) 
O=C(NCC(=O)N1C[C@H](O)C[C@H]1Cc1ccccc1)c1ccc2cc(F)ccc2n1

>  <score_type>  (73) 
oracle

>  <origin>  (73) 
autodockgpu

>  <m_score__min__energy>  (73) 
-8.9499999999999993

>  <m_primary>  (73) 
energy

>  <meeko>  (73) 
{"free_energy": -8.26, "intermolecular_energy": -10.35, "internal_energy": -1.46, "cluster_size": 6, "cluster_id": 1, "rank_in_cluster": 4}

>  <energy>  (73) 
-8.35

>  <cluster_rmsd>  (73) 
1.01

>  <rmsd>  (73) 
271.76

>  <cluster>  (73) 
3

$$$$
UYYINUAOVYUWQM-WBADGWMWNA-N
     RDKit          3D

 52 55  0  0  0  0  0  0  0  0999 V2000
  139.8160   74.2640  221.9870 O   0  0  0  0  0  0  0  0  0  0  0  0
  140.1380   75.4820  221.9290 C   0  0  0  0  0  0  0  0  0  0  0  0
  141.4450   75.8470  221.4510 N   0  0  0  0  0  0  0  0  0  0  0  0
  142.2380   74.8950  220.6780 C   0  0  0  0  0  0  0  0  0  0  0  0
  142.8220   75.5110  219.4340 C   0  0  0  0  0  0  0  0  0  0  0  0
  143.7810   74.8990  218.8810 O   0  0  0  0  0  0  0  0  0  0  0  0
  142.3190   76.7240  218.8230 N   0  0  0  0  0  0  0  0  0  0  0  0
  141.9060   76.7140  217.4200 C   0  0  0  0  0  0  0  0  0  0  0  0
  141.8110   78.1770  216.9930 C   0  0  2  0  0  0  0  0  0  0  0  0
  142.3560   78.3580  215.7120 O   0  0  0  0  0  0  0  0  0  0  0  0
  142.6000   78.9430  218.0510 C   0  0  0  0  0  0  0  0  0  0  0  0
  142.4770   78.0960  219.3240 C   0  0  1  0  0  0  0  0  0  0  0  0
  141.2420   78.5470  220.1420 C   0  0  0  0  0  0  0  0  0  0  0  0
  141.5870   79.4970  221.2550 C   0  0  0  0  0  0  0  0  0  0  0  0
  141.1970   80.8470  221.1810 C   0  0  0  0  0  0  0  0  0  0  0  0
  141.4980   81.7260  222.2240 C   0  0  0  0  0  0  0  0  0  0  0  0
  142.1900   81.2670  223.3490 C   0  0  0  0  0  0  0  0  0  0  0  0
  142.5780   79.9260  223.4340 C   0  0  0  0  0  0  0  0  0  0  0  0
  142.2760   79.0410  222.3930 C   0  0  0  0  0  0  0  0  0  0  0  0
  139.1650   76.5160  222.3280 C   0  0  0  0  0  0  0  0  0  0  0  0
  137.7880   76.3170  222.1240 C   0  0  0  0  0  0  0  0  0  0  0  0
  136.8820   77.3140  222.4910 C   0  0  0  0  0  0  0  0  0  0  0  0
  137.3490   78.5030  223.0660 C   0  0  0  0  0  0  0  0  0  0  0  0
  136.4640   79.5230  223.4520 C   0  0  0  0  0  0  0  0  0  0  0  0
  136.9630   80.6980  224.0270 C   0  0  0  0  0  0  0  0  0  0  0  0
  136.1080   81.6810  224.4050 F   0  0  0  0  0  0  0  0  0  0  0  0
  138.3400   80.8610  224.2150 C   0  0  0  0  0  0  0  0  0  0  0  0
  139.2270   79.8500  223.8280 C   0  0  0  0  0  0  0  0  0  0  0  0
  138.7380   78.6710  223.2550 C   0  0  0  0  0  0  0  0  0  0  0  0
  139.5970   77.6840  222.8800 N   0  0  0  0  0  0  0  0  0  0  0  0
  141.8250   76.8000  221.6510 H   0  0  0  0  0  0  0  0  0  0  0  0
  143.0601   74.5257  221.3087 H   0  0  0  0  0  0  0  0  0  0  0  0
  141.5708   74.0779  220.3662 H   0  0  0  0  0  0  0  0  0  0  0  0
  142.6510   76.1855  216.8070 H   0  0  0  0  0  0  0  0  0  0  0  0
  140.9450   76.1951  217.2889 H   0  0  0  0  0  0  0  0  0  0  0  0
  140.7708   78.5288  216.9280 H   0  0  0  0  0  0  0  0  0  0  0  0
  143.0810   79.0290  215.8080 H   0  0  0  0  0  0  0  0  0  0  0  0
  143.6540   79.0417  217.7520 H   0  0  0  0  0  0  0  0  0  0  0  0
  142.2177   79.9644  218.1943 H   0  0  0  0  0  0  0  0  0  0  0  0
  143.3415   78.1908  219.9975 H   0  0  0  0  0  0  0  0  0  0  0  0
  140.5351   79.0456  219.4626 H   0  0  0  0  0  0  0  0  0  0  0  0
  140.8065   77.6475  220.6016 H   0  0  0  0  0  0  0  0  0  0  0  0
  140.6525   81.2118  220.2976 H   0  0  0  0  0  0  0  0  0  0  0  0
  141.1904   82.7802  222.1603 H   0  0  0  0  0  0  0  0  0  0  0  0
  142.4294   81.9613  224.1679 H   0  0  0  0  0  0  0  0  0  0  0  0
  143.1213   79.5665  224.3204 H   0  0  0  0  0  0  0  0  0  0  0  0
  142.5783   77.9858  222.4650 H   0  0  0  0  0  0  0  0  0  0  0  0
  137.4259   75.3794  221.6770 H   0  0  0  0  0  0  0  0  0  0  0  0
  135.8041   77.1662  222.3290 H   0  0  0  0  0  0  0  0  0  0  0  0
  135.3812   79.3990  223.3029 H   0  0  0  0  0  0  0  0  0  0  0  0
  138.7262   81.7860  224.6680 H   0  0  0  0  0  0  0  0  0  0  0  0
  140.3092   79.9824  223.9744 H   0  0  0  0  0  0  0  0  0  0  0  0
  1  2  2  0
  2  3  1  0
  3  4  1  0
  4  5  1  0
  5  6  2  0
  5  7  1  0
  7  8  1  0
  8  9  1  0
  9 10  1  0
  9 11  1  0
 11 12  1  0
 12 13  1  0
 13 14  1  0
 14 15  2  0
 15 16  1  0
 16 17  2  0
 17 18  1  0
 18 19  2  0
  2 20  1  0
 20 21  2  0
 21 22  1  0
 22 23  2  0
 23 24  1  0
 24 25  2  0
 25 26  1  0
 25 27  1  0
 27 28  2  0
 28 29  1  0
 29 30  2  0
 12  7  1  0
 19 14  1  0
 30 20  1  0
 29 23  1  0
  3 31  1  0
  4 32  1  0
  4 33  1  0
  8 34  1  0
  8 35  1  0
  9 36  1  6
 10 37  1  0
 11 38  1  0
 11 39  1  0
 12 40  1  1
 13 41  1  0
 13 42  1  0
 15 43  1  0
 16 44  1  0
 17 45  1  0
 18 46  1  0
 19 47  1  0
 21 48  1  0
 22 49  1  0
 24 50  1  0
 27 51  1  0
 28 52  1  0
M  END
>  <UniqueID>  (74) 
24

>  <SMILES>  (74) 
O=C(NCC(=O)N1C[C@H](O)C[C@H]1Cc1ccccc1)c1ccc2cc(F)ccc2n1

>  <Energy>  (74) 
57.54204458420654

>  <Genealogy>  (74) 
O=C(NCC(=O)N1C[C@H](O)C[C@H]1Cc1ccccc1)c1ccc2cc(F)ccc2n1 (3D coordinates assigned)
O=C(NCC(=O)N1C[C@H](O)C[C@H]1Cc1ccccc1)c1ccc2cc(F)ccc2n1 (nonaromatic ring conformer: 57.54204458420654 kcal/mol)

>  <smiles>  (74) 
O=C(NCC(=O)N1C[C@H](O)C[C@H]1Cc1ccccc1)c1ccc2cc(F)ccc2n1

>  <score_type>  (74) 
oracle

>  <origin>  (74) 
autodockgpu

>  <m_score__min__energy>  (74) 
-8.9499999999999993

>  <m_primary>  (74) 
energy

>  <meeko>  (74) 
{"free_energy": -7.09, "intermolecular_energy": -9.18, "internal_energy": -2.52, "cluster_size": 3, "cluster_id": 6, "rank_in_cluster": 2}

>  <energy>  (74) 
-8.31

>  <cluster_rmsd>  (74) 
1.03

>  <rmsd>  (74) 
271.85

>  <cluster>  (74) 
3

$$$$
UYYINUAOVYUWQM-WBADGWMWNA-N
     RDKit          3D

 52 55  0  0  0  0  0  0  0  0999 V2000
  140.4150   73.3290  222.6930 O   0  0  0  0  0  0  0  0  0  0  0  0
  140.1200   72.1180  222.4960 C   0  0  0  0  0  0  0  0  0  0  0  0
  139.8750   71.6590  221.1550 N   0  0  0  0  0  0  0  0  0  0  0  0
  140.3390   72.4420  220.0130 C   0  0  0  0  0  0  0  0  0  0  0  0
  141.6680   71.9650  219.4900 C   0  0  0  0  0  0  0  0  0  0  0  0
  141.6960   70.8320  218.9290 O   0  0  0  0  0  0  0  0  0  0  0  0
  142.8860   72.7460  219.5550 N   0  0  0  0  0  0  0  0  0  0  0  0
  144.1290   72.2000  219.0100 C   0  0  0  0  0  0  0  0  0  0  0  0
  145.2560   73.0620  219.5720 C   0  0  2  0  0  0  0  0  0  0  0  0
  146.3430   72.2660  219.9670 O   0  0  0  0  0  0  0  0  0  0  0  0
  144.6340   73.7900  220.7600 C   0  0  0  0  0  0  0  0  0  0  0  0
  143.1450   73.9100  220.4120 C   0  0  1  0  0  0  0  0  0  0  0  0
  142.8820   75.2380  219.6610 C   0  0  0  0  0  0  0  0  0  0  0  0
  142.0890   76.2260  220.4700 C   0  0  0  0  0  0  0  0  0  0  0  0
  142.1480   77.5990  220.1660 C   0  0  0  0  0  0  0  0  0  0  0  0
  141.3940   78.5160  220.9040 C   0  0  0  0  0  0  0  0  0  0  0  0
  140.5780   78.0720  221.9480 C   0  0  0  0  0  0  0  0  0  0  0  0
  140.5110   76.7090  222.2550 C   0  0  0  0  0  0  0  0  0  0  0  0
  141.2600   75.7870  221.5170 C   0  0  0  0  0  0  0  0  0  0  0  0
  140.0530   71.1860  223.6370 C   0  0  0  0  0  0  0  0  0  0  0  0
  139.4450   69.9270  223.4960 C   0  0  0  0  0  0  0  0  0  0  0  0
  139.3750   69.0650  224.5920 C   0  0  0  0  0  0  0  0  0  0  0  0
  139.9160   69.4570  225.8230 C   0  0  0  0  0  0  0  0  0  0  0  0
  139.8680   68.6120  226.9430 C   0  0  0  0  0  0  0  0  0  0  0  0
  140.4200   69.0320  228.1590 C   0  0  0  0  0  0  0  0  0  0  0  0
  140.3780   68.2130  229.2400 F   0  0  0  0  0  0  0  0  0  0  0  0
  141.0180   70.2930  228.2620 C   0  0  0  0  0  0  0  0  0  0  0  0
  141.0650   71.1420  227.1510 C   0  0  0  0  0  0  0  0  0  0  0  0
  140.5180   70.7300  225.9300 C   0  0  0  0  0  0  0  0  0  0  0  0
  140.5640   71.5510  224.8460 N   0  0  0  0  0  0  0  0  0  0  0  0
  139.3710   70.7560  220.9970 H   0  0  0  0  0  0  0  0  0  0  0  0
  139.5945   72.3658  219.2069 H   0  0  0  0  0  0  0  0  0  0  0  0
  140.4652   73.4817  220.3492 H   0  0  0  0  0  0  0  0  0  0  0  0
  144.2561   71.1537  219.3248 H   0  0  0  0  0  0  0  0  0  0  0  0
  144.1243   72.2140  217.9101 H   0  0  0  0  0  0  0  0  0  0  0  0
  145.6561   73.7664  218.8279 H   0  0  0  0  0  0  0  0  0  0  0  0
  146.0960   71.8690  220.8430 H   0  0  0  0  0  0  0  0  0  0  0  0
  144.7701   73.2095  221.6844 H   0  0  0  0  0  0  0  0  0  0  0  0
  145.0993   74.7713  220.9349 H   0  0  0  0  0  0  0  0  0  0  0  0
  142.4897   73.9237  221.2954 H   0  0  0  0  0  0  0  0  0  0  0  0
  143.8502   75.6927  219.4043 H   0  0  0  0  0  0  0  0  0  0  0  0
  142.2899   74.9968  218.7658 H   0  0  0  0  0  0  0  0  0  0  0  0
  142.7895   77.9516  219.3450 H   0  0  0  0  0  0  0  0  0  0  0  0
  141.4430   79.5881  220.6628 H   0  0  0  0  0  0  0  0  0  0  0  0
  139.9875   78.7955  222.5292 H   0  0  0  0  0  0  0  0  0  0  0  0
  139.8686   76.3620  223.0777 H   0  0  0  0  0  0  0  0  0  0  0  0
  141.2003   74.7151  221.7565 H   0  0  0  0  0  0  0  0  0  0  0  0
  139.0259   69.6218  222.5259 H   0  0  0  0  0  0  0  0  0  0  0  0
  138.8960   68.0801  224.4890 H   0  0  0  0  0  0  0  0  0  0  0  0
  139.3971   67.6209  226.8652 H   0  0  0  0  0  0  0  0  0  0  0  0
  141.4523   70.6176  229.2191 H   0  0  0  0  0  0  0  0  0  0  0  0
  141.5322   72.1341  227.2370 H   0  0  0  0  0  0  0  0  0  0  0  0
  1  2  2  0
  2  3  1  0
  3  4  1  0
  4  5  1  0
  5  6  2  0
  5  7  1  0
  7  8  1  0
  8  9  1  0
  9 10  1  0
  9 11  1  0
 11 12  1  0
 12 13  1  0
 13 14  1  0
 14 15  2  0
 15 16  1  0
 16 17  2  0
 17 18  1  0
 18 19  2  0
  2 20  1  0
 20 21  2  0
 21 22  1  0
 22 23  2  0
 23 24  1  0
 24 25  2  0
 25 26  1  0
 25 27  1  0
 27 28  2  0
 28 29  1  0
 29 30  2  0
 12  7  1  0
 19 14  1  0
 30 20  1  0
 29 23  1  0
  3 31  1  0
  4 32  1  0
  4 33  1  0
  8 34  1  0
  8 35  1  0
  9 36  1  6
 10 37  1  0
 11 38  1  0
 11 39  1  0
 12 40  1  1
 13 41  1  0
 13 42  1  0
 15 43  1  0
 16 44  1  0
 17 45  1  0
 18 46  1  0
 19 47  1  0
 21 48  1  0
 22 49  1  0
 24 50  1  0
 27 51  1  0
 28 52  1  0
M  END
>  <UniqueID>  (75) 
24

>  <SMILES>  (75) 
O=C(NCC(=O)N1C[C@H](O)C[C@H]1Cc1ccccc1)c1ccc2cc(F)ccc2n1

>  <Energy>  (75) 
57.54204458420654

>  <Genealogy>  (75) 
O=C(NCC(=O)N1C[C@H](O)C[C@H]1Cc1ccccc1)c1ccc2cc(F)ccc2n1 (3D coordinates assigned)
O=C(NCC(=O)N1C[C@H](O)C[C@H]1Cc1ccccc1)c1ccc2cc(F)ccc2n1 (nonaromatic ring conformer: 57.54204458420654 kcal/mol)

>  <smiles>  (75) 
O=C(NCC(=O)N1C[C@H](O)C[C@H]1Cc1ccccc1)c1ccc2cc(F)ccc2n1

>  <score_type>  (75) 
oracle

>  <origin>  (75) 
autodockgpu

>  <m_score__min__energy>  (75) 
-8.9499999999999993

>  <m_primary>  (75) 
energy

>  <meeko>  (75) 
{"free_energy": -8.46, "intermolecular_energy": -10.55, "internal_energy": -1.5, "cluster_size": 3, "cluster_id": 3, "rank_in_cluster": 1}

>  <energy>  (75) 
-7.9

>  <cluster_rmsd>  (75) 
0.0

>  <rmsd>  (75) 
271.88

>  <cluster>  (75) 
4

$$$$
UYYINUAOVYUWQM-WBADGWMWNA-N
     RDKit          3D

 52 55  0  0  0  0  0  0  0  0999 V2000
  141.7770   77.9980  217.3700 O   0  0  0  0  0  0  0  0  0  0  0  0
  142.3340   77.5880  218.4250 C   0  0  0  0  0  0  0  0  0  0  0  0
  142.2250   78.3640  219.6310 N   0  0  0  0  0  0  0  0  0  0  0  0
  141.1830   79.3790  219.7610 C   0  0  0  0  0  0  0  0  0  0  0  0
  139.8460   78.7870  220.1180 C   0  0  0  0  0  0  0  0  0  0  0  0
  138.9010   78.9500  219.2920 O   0  0  0  0  0  0  0  0  0  0  0  0
  139.6020   78.0110  221.3170 N   0  0  0  0  0  0  0  0  0  0  0  0
  140.3370   76.7670  221.5410 C   0  0  0  0  0  0  0  0  0  0  0  0
  139.5900   76.0230  222.6450 C   0  0  2  0  0  0  0  0  0  0  0  0
  139.4980   74.6540  222.3490 O   0  0  0  0  0  0  0  0  0  0  0  0
  138.2140   76.6790  222.6950 C   0  0  0  0  0  0  0  0  0  0  0  0
  138.4470   78.1180  222.2190 C   0  0  1  0  0  0  0  0  0  0  0  0
  138.7550   79.0340  223.4290 C   0  0  0  0  0  0  0  0  0  0  0  0
  140.1000   79.6990  223.3390 C   0  0  0  0  0  0  0  0  0  0  0  0
  140.2130   81.0000  222.8140 C   0  0  0  0  0  0  0  0  0  0  0  0
  141.4590   81.6280  222.7490 C   0  0  0  0  0  0  0  0  0  0  0  0
  142.6020   80.9650  223.2070 C   0  0  0  0  0  0  0  0  0  0  0  0
  142.4990   79.6730  223.7340 C   0  0  0  0  0  0  0  0  0  0  0  0
  141.2520   79.0420  223.8040 C   0  0  0  0  0  0  0  0  0  0  0  0
  143.0680   76.3080  218.4140 C   0  0  0  0  0  0  0  0  0  0  0  0
  143.1850   75.5620  217.2280 C   0  0  0  0  0  0  0  0  0  0  0  0
  143.8680   74.3450  217.2410 C   0  0  0  0  0  0  0  0  0  0  0  0
  144.4360   73.8760  218.4330 C   0  0  0  0  0  0  0  0  0  0  0  0
  145.1350   72.6590  218.4780 C   0  0  0  0  0  0  0  0  0  0  0  0
  145.6940   72.2200  219.6840 C   0  0  0  0  0  0  0  0  0  0  0  0
  146.3730   71.0460  219.7280 F   0  0  0  0  0  0  0  0  0  0  0  0
  145.5570   72.9900  220.8450 C   0  0  0  0  0  0  0  0  0  0  0  0
  144.8590   74.2020  220.8070 C   0  0  0  0  0  0  0  0  0  0  0  0
  144.2980   74.6500  219.6060 C   0  0  0  0  0  0  0  0  0  0  0  0
  143.6200   75.8290  219.5640 N   0  0  0  0  0  0  0  0  0  0  0  0
  142.8900   78.1960  220.4210 H   0  0  0  0  0  0  0  0  0  0  0  0
  141.4770   80.0881  220.5489 H   0  0  0  0  0  0  0  0  0  0  0  0
  141.0788   79.8790  218.7868 H   0  0  0  0  0  0  0  0  0  0  0  0
  140.3561   76.1646  220.6208 H   0  0  0  0  0  0  0  0  0  0  0  0
  141.3808   76.9643  221.8264 H   0  0  0  0  0  0  0  0  0  0  0  0
  140.1049   76.0852  223.6151 H   0  0  0  0  0  0  0  0  0  0  0  0
  138.7950   74.2850  222.9450 H   0  0  0  0  0  0  0  0  0  0  0  0
  137.5124   76.1587  222.0264 H   0  0  0  0  0  0  0  0  0  0  0  0
  137.7732   76.6416  223.7021 H   0  0  0  0  0  0  0  0  0  0  0  0
  137.5727   78.5585  221.7174 H   0  0  0  0  0  0  0  0  0  0  0  0
  137.9817   79.8144  223.4828 H   0  0  0  0  0  0  0  0  0  0  0  0
  138.7630   78.3988  224.3270 H   0  0  0  0  0  0  0  0  0  0  0  0
  139.3160   81.5246  222.4532 H   0  0  0  0  0  0  0  0  0  0  0  0
  141.5412   82.6447  222.3373 H   0  0  0  0  0  0  0  0  0  0  0  0
  143.5830   81.4597  223.1529 H   0  0  0  0  0  0  0  0  0  0  0  0
  143.3990   79.1528  224.0936 H   0  0  0  0  0  0  0  0  0  0  0  0
  141.1732   78.0285  224.2243 H   0  0  0  0  0  0  0  0  0  0  0  0
  142.7402   75.9359  216.2940 H   0  0  0  0  0  0  0  0  0  0  0  0
  143.9603   73.7550  216.3172 H   0  0  0  0  0  0  0  0  0  0  0  0
  145.2431   72.0517  217.5672 H   0  0  0  0  0  0  0  0  0  0  0  0
  145.9994   72.6412  221.7898 H   0  0  0  0  0  0  0  0  0  0  0  0
  144.7512   74.8031  221.7219 H   0  0  0  0  0  0  0  0  0  0  0  0
  1  2  2  0
  2  3  1  0
  3  4  1  0
  4  5  1  0
  5  6  2  0
  5  7  1  0
  7  8  1  0
  8  9  1  0
  9 10  1  0
  9 11  1  0
 11 12  1  0
 12 13  1  0
 13 14  1  0
 14 15  2  0
 15 16  1  0
 16 17  2  0
 17 18  1  0
 18 19  2  0
  2 20  1  0
 20 21  2  0
 21 22  1  0
 22 23  2  0
 23 24  1  0
 24 25  2  0
 25 26  1  0
 25 27  1  0
 27 28  2  0
 28 29  1  0
 29 30  2  0
 12  7  1  0
 19 14  1  0
 30 20  1  0
 29 23  1  0
  3 31  1  0
  4 32  1  0
  4 33  1  0
  8 34  1  0
  8 35  1  0
  9 36  1  1
 10 37  1  0
 11 38  1  0
 11 39  1  0
 12 40  1  6
 13 41  1  0
 13 42  1  0
 15 43  1  0
 16 44  1  0
 17 45  1  0
 18 46  1  0
 19 47  1  0
 21 48  1  0
 22 49  1  0
 24 50  1  0
 27 51  1  0
 28 52  1  0
M  END
>  <UniqueID>  (76) 
24

>  <SMILES>  (76) 
O=C(NCC(=O)N1C[C@H](O)C[C@H]1Cc1ccccc1)c1ccc2cc(F)ccc2n1

>  <Energy>  (76) 
57.54204458420654

>  <Genealogy>  (76) 
O=C(NCC(=O)N1C[C@H](O)C[C@H]1Cc1ccccc1)c1ccc2cc(F)ccc2n1 (3D coordinates assigned)
O=C(NCC(=O)N1C[C@H](O)C[C@H]1Cc1ccccc1)c1ccc2cc(F)ccc2n1 (nonaromatic ring conformer: 57.54204458420654 kcal/mol)

>  <smiles>  (76) 
O=C(NCC(=O)N1C[C@H](O)C[C@H]1Cc1ccccc1)c1ccc2cc(F)ccc2n1

>  <score_type>  (76) 
oracle

>  <origin>  (76) 
autodockgpu

>  <m_score__min__energy>  (76) 
-8.9499999999999993

>  <m_primary>  (76) 
energy

>  <meeko>  (76) 
{"free_energy": -7.48, "intermolecular_energy": -9.57, "internal_energy": -2.07, "cluster_size": 1, "cluster_id": 5, "rank_in_cluster": 1}

>  <energy>  (76) 
-7.79

>  <cluster_rmsd>  (76) 
1.01

>  <rmsd>  (76) 
271.98

>  <cluster>  (76) 
4

$$$$
UYYINUAOVYUWQM-WBADGWMWNA-N
     RDKit          3D

 52 55  0  0  0  0  0  0  0  0999 V2000
  140.2920   72.9620  222.6020 O   0  0  0  0  0  0  0  0  0  0  0  0
  140.3380   71.7150  222.7900 C   0  0  0  0  0  0  0  0  0  0  0  0
  140.3170   70.8280  221.6580 N   0  0  0  0  0  0  0  0  0  0  0  0
  140.6370   71.3290  220.3240 C   0  0  0  0  0  0  0  0  0  0  0  0
  142.1120   71.2620  220.0250 C   0  0  0  0  0  0  0  0  0  0  0  0
  142.6410   70.1150  219.9720 O   0  0  0  0  0  0  0  0  0  0  0  0
  142.9310   72.4260  219.7520 N   0  0  0  0  0  0  0  0  0  0  0  0
  144.1340   72.2910  218.9310 C   0  0  0  0  0  0  0  0  0  0  0  0
  144.9510   73.5600  219.1600 C   0  0  2  0  0  0  0  0  0  0  0  0
  146.3150   73.2570  219.2960 O   0  0  0  0  0  0  0  0  0  0  0  0
  144.3810   74.1650  220.4400 C   0  0  0  0  0  0  0  0  0  0  0  0
  142.9180   73.7050  220.4750 C   0  0  1  0  0  0  0  0  0  0  0  0
  142.0180   74.7470  219.7670 C   0  0  0  0  0  0  0  0  0  0  0  0
  141.7280   75.9510  220.6190 C   0  0  0  0  0  0  0  0  0  0  0  0
  142.1140   77.2340  220.1870 C   0  0  0  0  0  0  0  0  0  0  0  0
  141.8260   78.3560  220.9680 C   0  0  0  0  0  0  0  0  0  0  0  0
  141.1520   78.2090  222.1840 C   0  0  0  0  0  0  0  0  0  0  0  0
  140.7620   76.9390  222.6200 C   0  0  0  0  0  0  0  0  0  0  0  0
  141.0450   75.8120  221.8390 C   0  0  0  0  0  0  0  0  0  0  0  0
  140.4380   71.1850  224.1630 C   0  0  0  0  0  0  0  0  0  0  0  0
  141.0150   71.9580  225.1860 C   0  0  0  0  0  0  0  0  0  0  0  0
  141.1180   71.4330  226.4750 C   0  0  0  0  0  0  0  0  0  0  0  0
  140.6410   70.1440  226.7440 C   0  0  0  0  0  0  0  0  0  0  0  0
  140.7230   69.5900  228.0320 C   0  0  0  0  0  0  0  0  0  0  0  0
  140.2340   68.2990  228.2680 C   0  0  0  0  0  0  0  0  0  0  0  0
  140.3080   67.7650  229.5130 F   0  0  0  0  0  0  0  0  0  0  0  0
  139.6650   67.5600  227.2250 C   0  0  0  0  0  0  0  0  0  0  0  0
  139.5840   68.1050  225.9390 C   0  0  0  0  0  0  0  0  0  0  0  0
  140.0680   69.3950  225.6930 C   0  0  0  0  0  0  0  0  0  0  0  0
  139.9890   69.9300  224.4440 N   0  0  0  0  0  0  0  0  0  0  0  0
  140.0780   69.8180  221.7920 H   0  0  0  0  0  0  0  0  0  0  0  0
  140.0978   70.7238  219.5804 H   0  0  0  0  0  0  0  0  0  0  0  0
  140.3331   72.3853  220.2802 H   0  0  0  0  0  0  0  0  0  0  0  0
  144.7094   71.4061  219.2405 H   0  0  0  0  0  0  0  0  0  0  0  0
  143.8814   72.1635  217.8680 H   0  0  0  0  0  0  0  0  0  0  0  0
  144.8833   74.2604  218.3145 H   0  0  0  0  0  0  0  0  0  0  0  0
  146.7930   74.1270  219.3310 H   0  0  0  0  0  0  0  0  0  0  0  0
  144.9253   73.7923  221.3203 H   0  0  0  0  0  0  0  0  0  0  0  0
  144.4715   75.2611  220.4565 H   0  0  0  0  0  0  0  0  0  0  0  0
  142.5183   73.5977  221.4942 H   0  0  0  0  0  0  0  0  0  0  0  0
  142.5243   75.0811  218.8494 H   0  0  0  0  0  0  0  0  0  0  0  0
  141.0565   74.2579  219.5518 H   0  0  0  0  0  0  0  0  0  0  0  0
  142.6444   77.3536  219.2308 H   0  0  0  0  0  0  0  0  0  0  0  0
  142.1299   79.3563  220.6258 H   0  0  0  0  0  0  0  0  0  0  0  0
  140.9282   79.0935  222.7985 H   0  0  0  0  0  0  0  0  0  0  0  0
  140.2324   76.8253  223.5774 H   0  0  0  0  0  0  0  0  0  0  0  0
  140.7317   74.8147  222.1815 H   0  0  0  0  0  0  0  0  0  0  0  0
  141.3836   72.9719  224.9713 H   0  0  0  0  0  0  0  0  0  0  0  0
  141.5731   72.0307  227.2785 H   0  0  0  0  0  0  0  0  0  0  0  0
  141.1703   70.1688  228.8536 H   0  0  0  0  0  0  0  0  0  0  0  0
  139.2802   66.5475  227.4167 H   0  0  0  0  0  0  0  0  0  0  0  0
  139.1397   67.5193  225.1208 H   0  0  0  0  0  0  0  0  0  0  0  0
  1  2  2  0
  2  3  1  0
  3  4  1  0
  4  5  1  0
  5  6  2  0
  5  7  1  0
  7  8  1  0
  8  9  1  0
  9 10  1  0
  9 11  1  0
 11 12  1  0
 12 13  1  0
 13 14  1  0
 14 15  2  0
 15 16  1  0
 16 17  2  0
 17 18  1  0
 18 19  2  0
  2 20  1  0
 20 21  2  0
 21 22  1  0
 22 23  2  0
 23 24  1  0
 24 25  2  0
 25 26  1  0
 25 27  1  0
 27 28  2  0
 28 29  1  0
 29 30  2  0
 12  7  1  0
 19 14  1  0
 30 20  1  0
 29 23  1  0
  3 31  1  0
  4 32  1  0
  4 33  1  0
  8 34  1  0
  8 35  1  0
  9 36  1  6
 10 37  1  0
 11 38  1  0
 11 39  1  0
 12 40  1  1
 13 41  1  0
 13 42  1  0
 15 43  1  0
 16 44  1  0
 17 45  1  0
 18 46  1  0
 19 47  1  0
 21 48  1  0
 22 49  1  0
 24 50  1  0
 27 51  1  0
 28 52  1  0
M  END
>  <UniqueID>  (77) 
24

>  <SMILES>  (77) 
O=C(NCC(=O)N1C[C@H](O)C[C@H]1Cc1ccccc1)c1ccc2cc(F)ccc2n1

>  <Energy>  (77) 
57.54204458420654

>  <Genealogy>  (77) 
O=C(NCC(=O)N1C[C@H](O)C[C@H]1Cc1ccccc1)c1ccc2cc(F)ccc2n1 (3D coordinates assigned)
O=C(NCC(=O)N1C[C@H](O)C[C@H]1Cc1ccccc1)c1ccc2cc(F)ccc2n1 (nonaromatic ring conformer: 57.54204458420654 kcal/mol)

>  <smiles>  (77) 
O=C(NCC(=O)N1C[C@H](O)C[C@H]1Cc1ccccc1)c1ccc2cc(F)ccc2n1

>  <score_type>  (77) 
oracle

>  <origin>  (77) 
autodockgpu

>  <m_score__min__energy>  (77) 
-8.9499999999999993

>  <m_primary>  (77) 
energy

>  <meeko>  (77) 
{"free_energy": -8.35, "intermolecular_energy": -10.44, "internal_energy": -1.71, "cluster_size": 3, "cluster_id": 3, "rank_in_cluster": 2}

>  <energy>  (77) 
-7.48

>  <cluster_rmsd>  (77) 
0.0

>  <rmsd>  (77) 
271.47

>  <cluster>  (77) 
5

$$$$
UYYINUAOVYUWQM-WBADGWMWNA-N
     RDKit          3D

 52 55  0  0  0  0  0  0  0  0999 V2000
  141.4210   72.2830  221.5800 O   0  0  0  0  0  0  0  0  0  0  0  0
  140.4760   72.4820  222.3920 C   0  0  0  0  0  0  0  0  0  0  0  0
  139.6000   73.6060  222.1970 N   0  0  0  0  0  0  0  0  0  0  0  0
  139.5340   74.2710  220.8980 C   0  0  0  0  0  0  0  0  0  0  0  0
  140.0240   75.6940  220.9550 C   0  0  0  0  0  0  0  0  0  0  0  0
  139.5220   76.4430  221.8420 O   0  0  0  0  0  0  0  0  0  0  0  0
  141.0570   76.2250  220.0900 N   0  0  0  0  0  0  0  0  0  0  0  0
  141.3440   75.5720  218.8130 C   0  0  0  0  0  0  0  0  0  0  0  0
  142.6950   76.1120  218.3510 C   0  0  2  0  0  0  0  0  0  0  0  0
  143.4910   75.0820  217.8280 O   0  0  0  0  0  0  0  0  0  0  0  0
  143.3190   76.7220  219.6030 C   0  0  0  0  0  0  0  0  0  0  0  0
  142.1270   77.1600  220.4630 C   0  0  1  0  0  0  0  0  0  0  0  0
  141.7440   78.6230  220.1320 C   0  0  0  0  0  0  0  0  0  0  0  0
  141.8300   79.5390  221.3210 C   0  0  0  0  0  0  0  0  0  0  0  0
  141.5440   80.9100  221.1810 C   0  0  0  0  0  0  0  0  0  0  0  0
  141.6020   81.7580  222.2900 C   0  0  0  0  0  0  0  0  0  0  0  0
  141.9460   81.2470  223.5450 C   0  0  0  0  0  0  0  0  0  0  0  0
  142.2280   79.8850  223.6940 C   0  0  0  0  0  0  0  0  0  0  0  0
  142.1670   79.0310  222.5880 C   0  0  0  0  0  0  0  0  0  0  0  0
  140.2680   71.5480  223.5140 C   0  0  0  0  0  0  0  0  0  0  0  0
  139.5830   70.3360  223.3170 C   0  0  0  0  0  0  0  0  0  0  0  0
  139.3790   69.4730  224.3940 C   0  0  0  0  0  0  0  0  0  0  0  0
  139.8630   69.8150  225.6640 C   0  0  0  0  0  0  0  0  0  0  0  0
  139.6800   68.9660  226.7670 C   0  0  0  0  0  0  0  0  0  0  0  0
  140.1780   69.3360  228.0220 C   0  0  0  0  0  0  0  0  0  0  0  0
  140.0060   68.5130  229.0880 F   0  0  0  0  0  0  0  0  0  0  0  0
  140.8560   70.5500  228.1810 C   0  0  0  0  0  0  0  0  0  0  0  0
  141.0370   71.4030  227.0860 C   0  0  0  0  0  0  0  0  0  0  0  0
  140.5440   71.0400  225.8270 C   0  0  0  0  0  0  0  0  0  0  0  0
  140.7210   71.8660  224.7590 N   0  0  0  0  0  0  0  0  0  0  0  0
  139.0030   73.9440  222.9860 H   0  0  0  0  0  0  0  0  0  0  0  0
  140.1555   73.7119  220.1831 H   0  0  0  0  0  0  0  0  0  0  0  0
  138.4795   74.2920  220.5856 H   0  0  0  0  0  0  0  0  0  0  0  0
  141.3948   74.4812  218.9457 H   0  0  0  0  0  0  0  0  0  0  0  0
  140.5566   75.7771  218.0727 H   0  0  0  0  0  0  0  0  0  0  0  0
  142.5968   76.8526  217.5436 H   0  0  0  0  0  0  0  0  0  0  0  0
  144.4300   75.3990  217.8800 H   0  0  0  0  0  0  0  0  0  0  0  0
  143.9272   75.9759  220.1354 H   0  0  0  0  0  0  0  0  0  0  0  0
  143.9895   77.5611  219.3655 H   0  0  0  0  0  0  0  0  0  0  0  0
  142.3355   77.1359  221.5428 H   0  0  0  0  0  0  0  0  0  0  0  0
  142.4256   78.9956  219.3531 H   0  0  0  0  0  0  0  0  0  0  0  0
  140.6966   78.6196  219.7959 H   0  0  0  0  0  0  0  0  0  0  0  0
  141.2738   81.3154  220.1948 H   0  0  0  0  0  0  0  0  0  0  0  0
  141.3768   82.8286  222.1755 H   0  0  0  0  0  0  0  0  0  0  0  0
  141.9950   81.9167  224.4163 H   0  0  0  0  0  0  0  0  0  0  0  0
  142.4981   79.4850  224.6825 H   0  0  0  0  0  0  0  0  0  0  0  0
  142.3832   77.9593  222.7097 H   0  0  0  0  0  0  0  0  0  0  0  0
  139.2093   70.0693  222.3174 H   0  0  0  0  0  0  0  0  0  0  0  0
  138.8393   68.5259  224.2467 H   0  0  0  0  0  0  0  0  0  0  0  0
  139.1463   68.0119  226.6454 H   0  0  0  0  0  0  0  0  0  0  0  0
  141.2476   70.8345  229.1688 H   0  0  0  0  0  0  0  0  0  0  0  0
  141.5666   72.3585  227.2147 H   0  0  0  0  0  0  0  0  0  0  0  0
  1  2  2  0
  2  3  1  0
  3  4  1  0
  4  5  1  0
  5  6  2  0
  5  7  1  0
  7  8  1  0
  8  9  1  0
  9 10  1  0
  9 11  1  0
 11 12  1  0
 12 13  1  0
 13 14  1  0
 14 15  2  0
 15 16  1  0
 16 17  2  0
 17 18  1  0
 18 19  2  0
  2 20  1  0
 20 21  2  0
 21 22  1  0
 22 23  2  0
 23 24  1  0
 24 25  2  0
 25 26  1  0
 25 27  1  0
 27 28  2  0
 28 29  1  0
 29 30  2  0
 12  7  1  0
 19 14  1  0
 30 20  1  0
 29 23  1  0
  3 31  1  0
  4 32  1  0
  4 33  1  0
  8 34  1  0
  8 35  1  0
  9 36  1  6
 10 37  1  0
 11 38  1  0
 11 39  1  0
 12 40  1  1
 13 41  1  0
 13 42  1  0
 15 43  1  0
 16 44  1  0
 17 45  1  0
 18 46  1  0
 19 47  1  0
 21 48  1  0
 22 49  1  0
 24 50  1  0
 27 51  1  0
 28 52  1  0
M  END
>  <UniqueID>  (78) 
24

>  <SMILES>  (78) 
O=C(NCC(=O)N1C[C@H](O)C[C@H]1Cc1ccccc1)c1ccc2cc(F)ccc2n1

>  <Energy>  (78) 
57.54204458420654

>  <Genealogy>  (78) 
O=C(NCC(=O)N1C[C@H](O)C[C@H]1Cc1ccccc1)c1ccc2cc(F)ccc2n1 (3D coordinates assigned)
O=C(NCC(=O)N1C[C@H](O)C[C@H]1Cc1ccccc1)c1ccc2cc(F)ccc2n1 (nonaromatic ring conformer: 57.54204458420654 kcal/mol)

>  <smiles>  (78) 
O=C(NCC(=O)N1C[C@H](O)C[C@H]1Cc1ccccc1)c1ccc2cc(F)ccc2n1

>  <score_type>  (78) 
oracle

>  <origin>  (78) 
autodockgpu

>  <m_score__min__energy>  (78) 
-8.9499999999999993

>  <m_primary>  (78) 
energy

>  <meeko>  (78) 
{"free_energy": -8.89, "intermolecular_energy": -10.98, "internal_energy": -1.29, "cluster_size": 5, "cluster_id": 2, "rank_in_cluster": 1}

>  <energy>  (78) 
-7.1

>  <cluster_rmsd>  (78) 
0.0

>  <rmsd>  (78) 
271.53

>  <cluster>  (78) 
6

$$$$
UYYINUAOVYUWQM-WBADGWMWNA-N
     RDKit          3D

 52 55  0  0  0  0  0  0  0  0999 V2000
  138.4850   76.0610  220.3600 O   0  0  0  0  0  0  0  0  0  0  0  0
  138.8440   76.0740  221.5700 C   0  0  0  0  0  0  0  0  0  0  0  0
  138.8030   74.8560  222.3330 N   0  0  0  0  0  0  0  0  0  0  0  0
  138.7390   73.5640  221.6550 C   0  0  0  0  0  0  0  0  0  0  0  0
  139.5960   72.5220  222.3240 C   0  0  0  0  0  0  0  0  0  0  0  0
  140.7480   72.8780  222.7070 O   0  0  0  0  0  0  0  0  0  0  0  0
  139.1570   71.1670  222.5890 N   0  0  0  0  0  0  0  0  0  0  0  0
  138.7240   70.3140  221.4830 C   0  0  0  0  0  0  0  0  0  0  0  0
  137.9780   69.1420  222.1150 C   0  0  2  0  0  0  0  0  0  0  0  0
  136.8180   68.8370  221.3860 O   0  0  0  0  0  0  0  0  0  0  0  0
  137.6440   69.6090  223.5290 C   0  0  0  0  0  0  0  0  0  0  0  0
  138.7540   70.6060  223.8850 C   0  0  1  0  0  0  0  0  0  0  0  0
  139.9280   69.8680  224.5750 C   0  0  0  0  0  0  0  0  0  0  0  0
  140.3170   70.4810  225.8910 C   0  0  0  0  0  0  0  0  0  0  0  0
  141.0820   71.6620  225.9240 C   0  0  0  0  0  0  0  0  0  0  0  0
  141.4250   72.2440  227.1470 C   0  0  0  0  0  0  0  0  0  0  0  0
  141.0110   71.6550  228.3450 C   0  0  0  0  0  0  0  0  0  0  0  0
  140.2470   70.4830  228.3220 C   0  0  0  0  0  0  0  0  0  0  0  0
  139.8970   69.8980  227.1000 C   0  0  0  0  0  0  0  0  0  0  0  0
  139.3230   77.3300  222.1770 C   0  0  0  0  0  0  0  0  0  0  0  0
  138.4130   78.2550  222.7170 C   0  0  0  0  0  0  0  0  0  0  0  0
  138.8830   79.4460  223.2710 C   0  0  0  0  0  0  0  0  0  0  0  0
  140.2590   79.7110  223.2920 C   0  0  0  0  0  0  0  0  0  0  0  0
  140.7650   80.8970  223.8480 C   0  0  0  0  0  0  0  0  0  0  0  0
  142.1450   81.1300  223.8560 C   0  0  0  0  0  0  0  0  0  0  0  0
  142.6350   82.2730  224.3970 F   0  0  0  0  0  0  0  0  0  0  0  0
  143.0220   80.1850  223.3090 C   0  0  0  0  0  0  0  0  0  0  0  0
  142.5230   79.0040  222.7500 C   0  0  0  0  0  0  0  0  0  0  0  0
  141.1450   78.7610  222.7400 C   0  0  0  0  0  0  0  0  0  0  0  0
  140.6560   77.6120  222.1990 N   0  0  0  0  0  0  0  0  0  0  0  0
  138.8260   74.8950  223.3780 H   0  0  0  0  0  0  0  0  0  0  0  0
  137.6954   73.2163  221.6550 H   0  0  0  0  0  0  0  0  0  0  0  0
  139.1174   73.7030  220.6315 H   0  0  0  0  0  0  0  0  0  0  0  0
  138.0567   70.8721  220.8098 H   0  0  0  0  0  0  0  0  0  0  0  0
  139.5800   69.9682  220.8849 H   0  0  0  0  0  0  0  0  0  0  0  0
  138.5773   68.2196  222.1225 H   0  0  0  0  0  0  0  0  0  0  0  0
  136.3570   69.7010  221.2190 H   0  0  0  0  0  0  0  0  0  0  0  0
  136.6600   70.1000  223.5526 H   0  0  0  0  0  0  0  0  0  0  0  0
  137.5933   68.7724  224.2414 H   0  0  0  0  0  0  0  0  0  0  0  0
  138.4298   71.3878  224.5876 H   0  0  0  0  0  0  0  0  0  0  0  0
  139.6308   68.8234  224.7495 H   0  0  0  0  0  0  0  0  0  0  0  0
  140.7996   69.9420  223.9080 H   0  0  0  0  0  0  0  0  0  0  0  0
  141.4110   72.1284  224.9836 H   0  0  0  0  0  0  0  0  0  0  0  0
  142.0221   73.1676  227.1671 H   0  0  0  0  0  0  0  0  0  0  0  0
  141.2860   72.1131  229.3065 H   0  0  0  0  0  0  0  0  0  0  0  0
  139.9211   70.0210  229.2656 H   0  0  0  0  0  0  0  0  0  0  0  0
  139.2917   68.9796  227.0849 H   0  0  0  0  0  0  0  0  0  0  0  0
  137.3342   78.0407  222.7029 H   0  0  0  0  0  0  0  0  0  0  0  0
  138.1749   80.1757  223.6905 H   0  0  0  0  0  0  0  0  0  0  0  0
  140.0780   81.6416  224.2765 H   0  0  0  0  0  0  0  0  0  0  0  0
  144.1059   80.3720  223.3190 H   0  0  0  0  0  0  0  0  0  0  0  0
  143.2144   78.2656  222.3179 H   0  0  0  0  0  0  0  0  0  0  0  0
  1  2  2  0
  2  3  1  0
  3  4  1  0
  4  5  1  0
  5  6  2  0
  5  7  1  0
  7  8  1  0
  8  9  1  0
  9 10  1  0
  9 11  1  0
 11 12  1  0
 12 13  1  0
 13 14  1  0
 14 15  2  0
 15 16  1  0
 16 17  2  0
 17 18  1  0
 18 19  2  0
  2 20  1  0
 20 21  2  0
 21 22  1  0
 22 23  2  0
 23 24  1  0
 24 25  2  0
 25 26  1  0
 25 27  1  0
 27 28  2  0
 28 29  1  0
 29 30  2  0
 12  7  1  0
 19 14  1  0
 30 20  1  0
 29 23  1  0
  3 31  1  0
  4 32  1  0
  4 33  1  0
  8 34  1  0
  8 35  1  0
  9 36  1  1
 10 37  1  0
 11 38  1  0
 11 39  1  0
 12 40  1  1
 13 41  1  0
 13 42  1  0
 15 43  1  0
 16 44  1  0
 17 45  1  0
 18 46  1  0
 19 47  1  0
 21 48  1  0
 22 49  1  0
 24 50  1  0
 27 51  1  0
 28 52  1  0
M  END
>  <UniqueID>  (79) 
24

>  <SMILES>  (79) 
O=C(NCC(=O)N1C[C@H](O)C[C@H]1Cc1ccccc1)c1ccc2cc(F)ccc2n1

>  <Energy>  (79) 
57.54204458420654

>  <Genealogy>  (79) 
O=C(NCC(=O)N1C[C@H](O)C[C@H]1Cc1ccccc1)c1ccc2cc(F)ccc2n1 (3D coordinates assigned)
O=C(NCC(=O)N1C[C@H](O)C[C@H]1Cc1ccccc1)c1ccc2cc(F)ccc2n1 (nonaromatic ring conformer: 57.54204458420654 kcal/mol)

>  <smiles>  (79) 
O=C(NCC(=O)N1C[C@H](O)C[C@H]1Cc1ccccc1)c1ccc2cc(F)ccc2n1

>  <score_type>  (79) 
oracle

>  <origin>  (79) 
autodockgpu

>  <m_score__min__energy>  (79) 
-8.9499999999999993

>  <m_primary>  (79) 
energy

>  <meeko>  (79) 
{"free_energy": -8.81, "intermolecular_energy": -10.9, "internal_energy": -1.21, "cluster_size": 6, "cluster_id": 1, "rank_in_cluster": 2}

>  <energy>  (79) 
-7.09

>  <cluster_rmsd>  (79) 
0.04

>  <rmsd>  (79) 
271.54

>  <cluster>  (79) 
6

$$$$
UYYINUAOVYUWQM-WBADGWMWNA-N
     RDKit          3D

 52 55  0  0  0  0  0  0  0  0999 V2000
  140.2290   72.9960  222.7320 O   0  0  0  0  0  0  0  0  0  0  0  0
  140.3200   71.7500  222.9070 C   0  0  0  0  0  0  0  0  0  0  0  0
  140.3220   70.8730  221.7680 N   0  0  0  0  0  0  0  0  0  0  0  0
  140.6160   71.3970  220.4360 C   0  0  0  0  0  0  0  0  0  0  0  0
  142.0800   71.3100  220.0950 C   0  0  0  0  0  0  0  0  0  0  0  0
  142.5900   70.1550  220.0240 O   0  0  0  0  0  0  0  0  0  0  0  0
  142.9090   72.4610  219.8010 N   0  0  0  0  0  0  0  0  0  0  0  0
  144.1080   72.3030  218.9790 C   0  0  0  0  0  0  0  0  0  0  0  0
  144.9360   73.5690  219.1850 C   0  0  2  0  0  0  0  0  0  0  0  0
  146.2980   73.2560  219.3220 O   0  0  0  0  0  0  0  0  0  0  0  0
  144.3750   74.1990  220.4560 C   0  0  0  0  0  0  0  0  0  0  0  0
  142.9090   73.7520  220.5020 C   0  0  1  0  0  0  0  0  0  0  0  0
  142.0160   74.7910  219.7800 C   0  0  0  0  0  0  0  0  0  0  0  0
  141.6840   75.9810  220.6360 C   0  0  0  0  0  0  0  0  0  0  0  0
  140.9890   75.8090  221.8480 C   0  0  0  0  0  0  0  0  0  0  0  0
  140.7000   76.9120  222.6560 C   0  0  0  0  0  0  0  0  0  0  0  0
  141.1000   78.1920  222.2630 C   0  0  0  0  0  0  0  0  0  0  0  0
  141.7950   78.3720  221.0620 C   0  0  0  0  0  0  0  0  0  0  0  0
  142.0900   77.2700  220.2520 C   0  0  0  0  0  0  0  0  0  0  0  0
  140.4490   71.2110  224.2750 C   0  0  0  0  0  0  0  0  0  0  0  0
  140.7320   72.0660  225.3550 C   0  0  0  0  0  0  0  0  0  0  0  0
  140.8670   71.5360  226.6390 C   0  0  0  0  0  0  0  0  0  0  0  0
  140.7150   70.1580  226.8450 C   0  0  0  0  0  0  0  0  0  0  0  0
  140.8380   69.5940  228.1250 C   0  0  0  0  0  0  0  0  0  0  0  0
  140.6770   68.2150  228.2990 C   0  0  0  0  0  0  0  0  0  0  0  0
  140.7920   67.6700  229.5360 F   0  0  0  0  0  0  0  0  0  0  0  0
  140.3950   67.3950  227.1990 C   0  0  0  0  0  0  0  0  0  0  0  0
  140.2750   67.9510  225.9200 C   0  0  0  0  0  0  0  0  0  0  0  0
  140.4320   69.3290  225.7380 C   0  0  0  0  0  0  0  0  0  0  0  0
  140.3130   69.8740  224.4960 N   0  0  0  0  0  0  0  0  0  0  0  0
  140.1210   69.8550  221.8930 H   0  0  0  0  0  0  0  0  0  0  0  0
  140.0457   70.8179  219.6948 H   0  0  0  0  0  0  0  0  0  0  0  0
  140.3313   72.4595  220.4233 H   0  0  0  0  0  0  0  0  0  0  0  0
  144.6772   71.4186  219.3011 H   0  0  0  0  0  0  0  0  0  0  0  0
  143.8511   72.1603  217.9190 H   0  0  0  0  0  0  0  0  0  0  0  0
  144.8716   74.2566  218.3288 H   0  0  0  0  0  0  0  0  0  0  0  0
  146.7840   74.1220  219.3340 H   0  0  0  0  0  0  0  0  0  0  0  0
  144.9185   73.8359  221.3407 H   0  0  0  0  0  0  0  0  0  0  0  0
  144.4747   75.2945  220.4548 H   0  0  0  0  0  0  0  0  0  0  0  0
  142.5107   73.6642  221.5236 H   0  0  0  0  0  0  0  0  0  0  0  0
  142.5447   75.1427  218.8818 H   0  0  0  0  0  0  0  0  0  0  0  0
  141.0679   74.2916  219.5315 H   0  0  0  0  0  0  0  0  0  0  0  0
  140.6723   74.8029  222.1602 H   0  0  0  0  0  0  0  0  0  0  0  0
  140.1570   76.7725  223.6024 H   0  0  0  0  0  0  0  0  0  0  0  0
  140.8682   79.0593  222.8987 H   0  0  0  0  0  0  0  0  0  0  0  0
  142.1095   79.3802  220.7546 H   0  0  0  0  0  0  0  0  0  0  0  0
  142.6417   77.4133  219.3112 H   0  0  0  0  0  0  0  0  0  0  0  0
  140.8464   73.1473  225.1886 H   0  0  0  0  0  0  0  0  0  0  0  0
  141.0923   72.1985  227.4877 H   0  0  0  0  0  0  0  0  0  0  0  0
  141.0607   70.2357  228.9902 H   0  0  0  0  0  0  0  0  0  0  0  0
  140.2676   66.3116  227.3406 H   0  0  0  0  0  0  0  0  0  0  0  0
  140.0571   67.3039  225.0575 H   0  0  0  0  0  0  0  0  0  0  0  0
  1  2  2  0
  2  3  1  0
  3  4  1  0
  4  5  1  0
  5  6  2  0
  5  7  1  0
  7  8  1  0
  8  9  1  0
  9 10  1  0
  9 11  1  0
 11 12  1  0
 12 13  1  0
 13 14  1  0
 14 15  2  0
 15 16  1  0
 16 17  2  0
 17 18  1  0
 18 19  2  0
  2 20  1  0
 20 21  2  0
 21 22  1  0
 22 23  2  0
 23 24  1  0
 24 25  2  0
 25 26  1  0
 25 27  1  0
 27 28  2  0
 28 29  1  0
 29 30  2  0
 12  7  1  0
 19 14  1  0
 30 20  1  0
 29 23  1  0
  3 31  1  0
  4 32  1  0
  4 33  1  0
  8 34  1  0
  8 35  1  0
  9 36  1  6
 10 37  1  0
 11 38  1  0
 11 39  1  0
 12 40  1  1
 13 41  1  0
 13 42  1  0
 15 43  1  0
 16 44  1  0
 17 45  1  0
 18 46  1  0
 19 47  1  0
 21 48  1  0
 22 49  1  0
 24 50  1  0
 27 51  1  0
 28 52  1  0
M  END
>  <UniqueID>  (80) 
24

>  <SMILES>  (80) 
O=C(NCC(=O)N1C[C@H](O)C[C@H]1Cc1ccccc1)c1ccc2cc(F)ccc2n1

>  <Energy>  (80) 
57.54204458420654

>  <Genealogy>  (80) 
O=C(NCC(=O)N1C[C@H](O)C[C@H]1Cc1ccccc1)c1ccc2cc(F)ccc2n1 (3D coordinates assigned)
O=C(NCC(=O)N1C[C@H](O)C[C@H]1Cc1ccccc1)c1ccc2cc(F)ccc2n1 (nonaromatic ring conformer: 57.54204458420654 kcal/mol)

>  <smiles>  (80) 
O=C(NCC(=O)N1C[C@H](O)C[C@H]1Cc1ccccc1)c1ccc2cc(F)ccc2n1

>  <score_type>  (80) 
oracle

>  <origin>  (80) 
autodockgpu

>  <m_score__min__energy>  (80) 
-8.9499999999999993

>  <m_primary>  (80) 
energy

>  <meeko>  (80) 
{"free_energy": -8.31, "intermolecular_energy": -10.4, "internal_energy": -1.74, "cluster_size": 3, "cluster_id": 3, "rank_in_cluster": 3}

>  <energy>  (80) 
-7.06

>  <cluster_rmsd>  (80) 
0.18

>  <rmsd>  (80) 
271.53

>  <cluster>  (80) 
6

$$$$
