DPVNRQFUFIRJCL-MTJUKBPRNA-N
     RDKit          3D

 48 50  0  0  0  0  0  0  0  0999 V2000
  142.2790   80.8500  219.2940 H   0  0  0  0  0  0  0  0  0  0  0  0
  141.7640   80.9780  220.1580 O   0  0  0  0  0  0  0  0  0  0  0  0
  141.6130   79.9550  221.0940 C   0  0  0  0  0  0  0  0  0  0  0  0
  140.5670   79.1180  220.9820 C   0  0  0  0  0  0  0  0  0  0  0  0
  139.5862   79.5573  220.7473 H   0  0  0  0  0  0  0  0  0  0  0  0
  140.6370   77.6500  221.1510 C   0  0  0  0  0  0  0  0  0  0  0  0
  141.7140   76.9050  220.6420 C   0  0  0  0  0  0  0  0  0  0  0  0
  142.5097   77.4102  220.0748 H   0  0  0  0  0  0  0  0  0  0  0  0
  141.7790   75.5250  220.8530 C   0  0  0  0  0  0  0  0  0  0  0  0
  142.6084   74.9457  220.4211 H   0  0  0  0  0  0  0  0  0  0  0  0
  140.7980   74.8740  221.6090 C   0  0  0  0  0  0  0  0  0  0  0  0
  140.8900   73.4490  221.7800 N   0  0  0  0  0  0  0  0  0  0  0  0
  140.0940   72.6920  222.4800 C   0  0  0  0  0  0  0  0  0  0  0  0
  140.4680   72.2250  223.7040 N   0  0  0  0  0  0  0  0  0  0  0  0
  139.6620   71.4150  224.4430 C   0  0  0  0  0  0  0  0  0  0  0  0
  140.1300   70.9480  225.7740 C   0  0  0  0  0  0  0  0  0  0  0  0
  139.9980   69.6010  226.1710 C   0  0  0  0  0  0  0  0  0  0  0  0
  139.5471   68.8704  225.4834 H   0  0  0  0  0  0  0  0  0  0  0  0
  140.4370   69.1880  227.4340 C   0  0  0  0  0  0  0  0  0  0  0  0
  140.3351   68.1342  227.7327 H   0  0  0  0  0  0  0  0  0  0  0  0
  141.0040   70.1100  228.3160 C   0  0  0  0  0  0  0  0  0  0  0  0
  141.3521   69.7815  229.3064 H   0  0  0  0  0  0  0  0  0  0  0  0
  141.1290   71.4480  227.9410 C   0  0  0  0  0  0  0  0  0  0  0  0
  141.5721   72.1743  228.6383 H   0  0  0  0  0  0  0  0  0  0  0  0
  140.6920   71.8680  226.6800 C   0  0  0  0  0  0  0  0  0  0  0  0
  140.7882   72.9258  226.3939 H   0  0  0  0  0  0  0  0  0  0  0  0
  138.4210   71.0320  223.9120 C   0  0  0  0  0  0  0  0  0  0  0  0
  137.7497   70.3694  224.4779 H   0  0  0  0  0  0  0  0  0  0  0  0
  138.0550   71.5070  222.6540 C   0  0  0  0  0  0  0  0  0  0  0  0
  137.0859   71.2198  222.2199 H   0  0  0  0  0  0  0  0  0  0  0  0
  138.8920   72.3240  221.9620 N   0  0  0  0  0  0  0  0  0  0  0  0
  138.6000   72.6650  221.0170 H   0  0  0  0  0  0  0  0  0  0  0  0
  139.7170   75.6190  222.1170 C   0  0  0  0  0  0  0  0  0  0  0  0
  138.9204   75.1130  222.6821 H   0  0  0  0  0  0  0  0  0  0  0  0
  139.6520   77.0000  221.9060 C   0  0  0  0  0  0  0  0  0  0  0  0
  138.8218   77.5798  222.3358 H   0  0  0  0  0  0  0  0  0  0  0  0
  142.5980   79.7970  222.1360 N   0  0  0  0  0  0  0  0  0  0  0  0
  143.5730   79.5230  221.8800 H   0  0  0  0  0  0  0  0  0  0  0  0
  142.3330   80.0130  223.5630 C   0  0  0  0  0  0  0  0  0  0  0  0
  143.2941   80.2242  224.0546 H   0  0  0  0  0  0  0  0  0  0  0  0
  141.7540   78.7540  224.2150 C   0  0  0  0  0  0  0  0  0  0  0  0
  141.7999   78.8537  225.3095 H   0  0  0  0  0  0  0  0  0  0  0  0
  140.7071   78.6273  223.9019 H   0  0  0  0  0  0  0  0  0  0  0  0
  142.3391   77.8767  223.9019 H   0  0  0  0  0  0  0  0  0  0  0  0
  141.4350   81.2350  223.7870 C   0  0  0  0  0  0  0  0  0  0  0  0
  141.3099   81.4052  224.8665 H   0  0  0  0  0  0  0  0  0  0  0  0
  141.8991   82.1202  223.3276 H   0  0  0  0  0  0  0  0  0  0  0  0
  140.4516   81.0565  223.3276 H   0  0  0  0  0  0  0  0  0  0  0  0
  1  2  1  0
  2  3  1  0
  3  4  2  0
  4  5  1  0
  4  6  1  0
  6  7  2  0
  7  8  1  0
  7  9  1  0
  9 10  1  0
  9 11  2  0
 11 12  1  0
 12 13  2  0
 13 14  1  0
 14 15  2  0
 15 16  1  0
 16 17  2  0
 17 18  1  0
 17 19  1  0
 19 20  1  0
 19 21  2  0
 21 22  1  0
 21 23  1  0
 23 24  1  0
 23 25  2  0
 25 26  1  0
 15 27  1  0
 27 28  1  0
 27 29  2  0
 29 30  1  0
 29 31  1  0
 31 32  1  0
 11 33  1  0
 33 34  1  0
 33 35  2  0
 35 36  1  0
  3 37  1  0
 37 38  1  0
 37 39  1  0
 39 40  1  0
 39 41  1  0
 41 42  1  0
 41 43  1  0
 41 44  1  0
 39 45  1  0
 45 46  1  0
 45 47  1  0
 45 48  1  0
 35  6  1  0
 31 13  1  0
 25 16  1  0
M  END
>  <UniqueID>  (1) 
32

>  <SMILES>  (1) 
CC(C)N/C(O)=C\c1ccc(/N=c2\nc(-c3ccccc3)cc[nH]2)cc1

>  <Energy>  (1) 
61.51715273827357

>  <Genealogy>  (1) 
CC(C)NC(O)=Cc1ccc(N=c2nc(-c3ccccc3)cc[nH]2)cc1 (tautomer)
CC(C)N/C(O)=C\c1ccc(/N=c2\nc(-c3ccccc3)cc[nH]2)cc1 (cis-trans isomerization)
CC(C)N/C(O)=C\c1ccc(/N=c2\nc(-c3ccccc3)cc[nH]2)cc1 (3D coordinates assigned)
CC(C)N/C(O)=C\c1ccc(/N=c2\nc(-c3ccccc3)cc[nH]2)cc1 (optimized conformer: 61.51715273827357 kcal/mol)

>  <smiles>  (1) 
CC(C)NC(=O)Cc1ccc(N=c2nc(-c3ccccc3)cc[nH]2)cc1

>  <score_type>  (1) 
oracle

>  <origin>  (1) 
autodockgpu

>  <m_score__min__energy>  (1) 
-8.1099999999999994

>  <m_primary>  (1) 
energy

>  <meeko>  (1) 
{"free_energy": -7.66, "intermolecular_energy": -10.05, "internal_energy": -1.03, "cluster_size": 12, "cluster_id": 3, "rank_in_cluster": 7}

>  <energy>  (1) 
-8.11

>  <cluster_rmsd>  (1) 
0.0

>  <rmsd>  (1) 
269.7

>  <cluster>  (1) 
1

$$$$
DPVNRQFUFIRJCL-MTJUKBPRNA-N
     RDKit          3D

 48 50  0  0  0  0  0  0  0  0999 V2000
  141.9200   80.8630  219.2390 H   0  0  0  0  0  0  0  0  0  0  0  0
  141.8960   80.9050  220.2520 O   0  0  0  0  0  0  0  0  0  0  0  0
  141.7220   79.7670  221.0410 C   0  0  0  0  0  0  0  0  0  0  0  0
  140.7730   78.8770  220.7010 C   0  0  0  0  0  0  0  0  0  0  0  0
  139.8854   79.2553  220.1728 H   0  0  0  0  0  0  0  0  0  0  0  0
  140.8350   77.4270  220.9850 C   0  0  0  0  0  0  0  0  0  0  0  0
  139.7940   76.7680  221.6590 C   0  0  0  0  0  0  0  0  0  0  0  0
  138.9252   77.3402  222.0165 H   0  0  0  0  0  0  0  0  0  0  0  0
  139.8560   75.3890  221.8780 C   0  0  0  0  0  0  0  0  0  0  0  0
  139.0514   74.8884  222.4366 H   0  0  0  0  0  0  0  0  0  0  0  0
  140.9340   74.6400  221.3920 C   0  0  0  0  0  0  0  0  0  0  0  0
  140.9700   73.2280  221.6610 N   0  0  0  0  0  0  0  0  0  0  0  0
  140.1400   72.5510  222.4020 C   0  0  0  0  0  0  0  0  0  0  0  0
  140.4990   72.1190  223.6420 N   0  0  0  0  0  0  0  0  0  0  0  0
  139.6570   71.3910  224.4240 C   0  0  0  0  0  0  0  0  0  0  0  0
  140.1120   70.9580  225.7720 C   0  0  0  0  0  0  0  0  0  0  0  0
  139.9300   69.6340  226.2210 C   0  0  0  0  0  0  0  0  0  0  0  0
  139.4483   68.8953  225.5635 H   0  0  0  0  0  0  0  0  0  0  0  0
  140.3580   69.2540  227.4970 C   0  0  0  0  0  0  0  0  0  0  0  0
  140.2174   68.2170  227.8360 H   0  0  0  0  0  0  0  0  0  0  0  0
  140.9630   70.1860  228.3420 C   0  0  0  0  0  0  0  0  0  0  0  0
  141.3014   69.8829  229.3438 H   0  0  0  0  0  0  0  0  0  0  0  0
  141.1380   71.5030  227.9140 C   0  0  0  0  0  0  0  0  0  0  0  0
  141.6116   72.2381  228.5814 H   0  0  0  0  0  0  0  0  0  0  0  0
  140.7130   71.8910  226.6390 C   0  0  0  0  0  0  0  0  0  0  0  0
  140.8492   72.9322  226.3113 H   0  0  0  0  0  0  0  0  0  0  0  0
  138.3890   71.0580  223.9220 C   0  0  0  0  0  0  0  0  0  0  0  0
  137.6867   70.4626  224.5238 H   0  0  0  0  0  0  0  0  0  0  0  0
  138.0370   71.4960  222.6470 C   0  0  0  0  0  0  0  0  0  0  0  0
  137.0482   71.2463  222.2349 H   0  0  0  0  0  0  0  0  0  0  0  0
  138.9120   72.2310  221.9110 N   0  0  0  0  0  0  0  0  0  0  0  0
  138.6300   72.5440  220.9540 H   0  0  0  0  0  0  0  0  0  0  0  0
  141.9790   75.3000  220.7190 C   0  0  0  0  0  0  0  0  0  0  0  0
  142.8486   74.7279  220.3635 H   0  0  0  0  0  0  0  0  0  0  0  0
  141.9170   76.6800  220.5000 C   0  0  0  0  0  0  0  0  0  0  0  0
  142.7224   77.1820  219.9438 H   0  0  0  0  0  0  0  0  0  0  0  0
  142.5820   79.5560  222.1790 N   0  0  0  0  0  0  0  0  0  0  0  0
  143.4980   79.0740  222.0450 H   0  0  0  0  0  0  0  0  0  0  0  0
  142.2670   79.9920  223.5450 C   0  0  0  0  0  0  0  0  0  0  0  0
  143.2024   79.9879  224.1238 H   0  0  0  0  0  0  0  0  0  0  0  0
  141.3040   79.0160  224.2290 C   0  0  0  0  0  0  0  0  0  0  0  0
  141.3987   79.1120  225.3207 H   0  0  0  0  0  0  0  0  0  0  0  0
  140.2716   79.2485  223.9287 H   0  0  0  0  0  0  0  0  0  0  0  0
  141.5503   77.9869  223.9287 H   0  0  0  0  0  0  0  0  0  0  0  0
  141.7330   81.4290  223.5640 C   0  0  0  0  0  0  0  0  0  0  0  0
  141.6098   81.7606  224.6056 H   0  0  0  0  0  0  0  0  0  0  0  0
  142.4449   82.0916  223.0500 H   0  0  0  0  0  0  0  0  0  0  0  0
  140.7612   81.4659  223.0500 H   0  0  0  0  0  0  0  0  0  0  0  0
  1  2  1  0
  2  3  1  0
  3  4  2  0
  4  5  1  0
  4  6  1  0
  6  7  2  0
  7  8  1  0
  7  9  1  0
  9 10  1  0
  9 11  2  0
 11 12  1  0
 12 13  2  0
 13 14  1  0
 14 15  2  0
 15 16  1  0
 16 17  2  0
 17 18  1  0
 17 19  1  0
 19 20  1  0
 19 21  2  0
 21 22  1  0
 21 23  1  0
 23 24  1  0
 23 25  2  0
 25 26  1  0
 15 27  1  0
 27 28  1  0
 27 29  2  0
 29 30  1  0
 29 31  1  0
 31 32  1  0
 11 33  1  0
 33 34  1  0
 33 35  2  0
 35 36  1  0
  3 37  1  0
 37 38  1  0
 37 39  1  0
 39 40  1  0
 39 41  1  0
 41 42  1  0
 41 43  1  0
 41 44  1  0
 39 45  1  0
 45 46  1  0
 45 47  1  0
 45 48  1  0
 35  6  1  0
 31 13  1  0
 25 16  1  0
M  END
>  <UniqueID>  (2) 
32

>  <SMILES>  (2) 
CC(C)N/C(O)=C\c1ccc(/N=c2\nc(-c3ccccc3)cc[nH]2)cc1

>  <Energy>  (2) 
61.51715273827357

>  <Genealogy>  (2) 
CC(C)NC(O)=Cc1ccc(N=c2nc(-c3ccccc3)cc[nH]2)cc1 (tautomer)
CC(C)N/C(O)=C\c1ccc(/N=c2\nc(-c3ccccc3)cc[nH]2)cc1 (cis-trans isomerization)
CC(C)N/C(O)=C\c1ccc(/N=c2\nc(-c3ccccc3)cc[nH]2)cc1 (3D coordinates assigned)
CC(C)N/C(O)=C\c1ccc(/N=c2\nc(-c3ccccc3)cc[nH]2)cc1 (optimized conformer: 61.51715273827357 kcal/mol)

>  <smiles>  (2) 
CC(C)NC(=O)Cc1ccc(N=c2nc(-c3ccccc3)cc[nH]2)cc1

>  <score_type>  (2) 
oracle

>  <origin>  (2) 
autodockgpu

>  <m_score__min__energy>  (2) 
-8.1099999999999994

>  <m_primary>  (2) 
energy

>  <meeko>  (2) 
{"free_energy": -7.52, "intermolecular_energy": -9.91, "internal_energy": -1.02, "cluster_size": 12, "cluster_id": 3, "rank_in_cluster": 9}

>  <energy>  (2) 
-7.94

>  <cluster_rmsd>  (2) 
0.71

>  <rmsd>  (2) 
269.7

>  <cluster>  (2) 
1

$$$$
DPVNRQFUFIRJCL-MTJUKBPRNA-N
     RDKit          3D

 48 50  0  0  0  0  0  0  0  0999 V2000
  138.1370   81.7020  222.7110 H   0  0  0  0  0  0  0  0  0  0  0  0
  138.6270   81.2280  223.4620 O   0  0  0  0  0  0  0  0  0  0  0  0
  139.2940   80.0180  223.2690 C   0  0  0  0  0  0  0  0  0  0  0  0
  138.6950   79.0510  222.5510 C   0  0  0  0  0  0  0  0  0  0  0  0
  137.7543   79.3042  222.0401 H   0  0  0  0  0  0  0  0  0  0  0  0
  139.2080   77.6730  222.3980 C   0  0  0  0  0  0  0  0  0  0  0  0
  138.3550   76.5590  222.4780 C   0  0  0  0  0  0  0  0  0  0  0  0
  137.2857   76.7031  222.6921 H   0  0  0  0  0  0  0  0  0  0  0  0
  138.8580   75.2690  222.2870 C   0  0  0  0  0  0  0  0  0  0  0  0
  138.1885   74.4019  222.3868 H   0  0  0  0  0  0  0  0  0  0  0  0
  140.2060   75.0720  221.9700 C   0  0  0  0  0  0  0  0  0  0  0  0
  140.6870   73.7260  221.8050 N   0  0  0  0  0  0  0  0  0  0  0  0
  140.1720   72.6440  222.3150 C   0  0  0  0  0  0  0  0  0  0  0  0
  140.4500   72.2710  223.5950 N   0  0  0  0  0  0  0  0  0  0  0  0
  139.9420   71.1340  224.1410 C   0  0  0  0  0  0  0  0  0  0  0  0
  140.2810   70.7910  225.5470 C   0  0  0  0  0  0  0  0  0  0  0  0
  140.1140   69.4830  226.0490 C   0  0  0  0  0  0  0  0  0  0  0  0
  139.7327   68.6893  225.3897 H   0  0  0  0  0  0  0  0  0  0  0  0
  140.4300   69.1890  227.3790 C   0  0  0  0  0  0  0  0  0  0  0  0
  140.3019   68.1648  227.7593 H   0  0  0  0  0  0  0  0  0  0  0  0
  140.9070   70.1900  228.2250 C   0  0  0  0  0  0  0  0  0  0  0  0
  141.1580   69.9538  229.2696 H   0  0  0  0  0  0  0  0  0  0  0  0
  141.0660   71.4920  227.7460 C   0  0  0  0  0  0  0  0  0  0  0  0
  141.4395   72.2814  228.4148 H   0  0  0  0  0  0  0  0  0  0  0  0
  140.7510   71.7940  226.4170 C   0  0  0  0  0  0  0  0  0  0  0  0
  140.8714   72.8234  226.0483 H   0  0  0  0  0  0  0  0  0  0  0  0
  139.1270   70.3100  223.3480 C   0  0  0  0  0  0  0  0  0  0  0  0
  138.7083   69.3774  223.7542 H   0  0  0  0  0  0  0  0  0  0  0  0
  138.8590   70.6970  222.0360 C   0  0  0  0  0  0  0  0  0  0  0  0
  138.2221   70.0669  221.3978 H   0  0  0  0  0  0  0  0  0  0  0  0
  139.3820   71.8500  221.5430 N   0  0  0  0  0  0  0  0  0  0  0  0
  139.1740   72.1180  220.5540 H   0  0  0  0  0  0  0  0  0  0  0  0
  141.0630   76.1860  221.8920 C   0  0  0  0  0  0  0  0  0  0  0  0
  142.1324   76.0407  221.6792 H   0  0  0  0  0  0  0  0  0  0  0  0
  140.5600   77.4770  222.0840 C   0  0  0  0  0  0  0  0  0  0  0  0
  141.2299   78.3442  221.9879 H   0  0  0  0  0  0  0  0  0  0  0  0
  140.6180   79.8460  223.8110 N   0  0  0  0  0  0  0  0  0  0  0  0
  140.7910   79.0870  224.5080 H   0  0  0  0  0  0  0  0  0  0  0  0
  141.7770   80.6660  223.4390 C   0  0  0  0  0  0  0  0  0  0  0  0
  142.0704   81.2536  224.3214 H   0  0  0  0  0  0  0  0  0  0  0  0
  141.4180   81.6590  222.3280 C   0  0  0  0  0  0  0  0  0  0  0  0
  141.0765   82.6035  222.7767 H   0  0  0  0  0  0  0  0  0  0  0  0
  142.3046   81.8484  221.7050 H   0  0  0  0  0  0  0  0  0  0  0  0
  140.6153   81.2377  221.7050 H   0  0  0  0  0  0  0  0  0  0  0  0
  142.9800   79.7950  223.0590 C   0  0  0  0  0  0  0  0  0  0  0  0
  143.4759   79.4359  223.9729 H   0  0  0  0  0  0  0  0  0  0  0  0
  142.6369   78.9346  222.4658 H   0  0  0  0  0  0  0  0  0  0  0  0
  143.6903   80.3895  222.4658 H   0  0  0  0  0  0  0  0  0  0  0  0
  1  2  1  0
  2  3  1  0
  3  4  2  0
  4  5  1  0
  4  6  1  0
  6  7  2  0
  7  8  1  0
  7  9  1  0
  9 10  1  0
  9 11  2  0
 11 12  1  0
 12 13  2  0
 13 14  1  0
 14 15  2  0
 15 16  1  0
 16 17  2  0
 17 18  1  0
 17 19  1  0
 19 20  1  0
 19 21  2  0
 21 22  1  0
 21 23  1  0
 23 24  1  0
 23 25  2  0
 25 26  1  0
 15 27  1  0
 27 28  1  0
 27 29  2  0
 29 30  1  0
 29 31  1  0
 31 32  1  0
 11 33  1  0
 33 34  1  0
 33 35  2  0
 35 36  1  0
  3 37  1  0
 37 38  1  0
 37 39  1  0
 39 40  1  0
 39 41  1  0
 41 42  1  0
 41 43  1  0
 41 44  1  0
 39 45  1  0
 45 46  1  0
 45 47  1  0
 45 48  1  0
 35  6  1  0
 31 13  1  0
 25 16  1  0
M  END
>  <UniqueID>  (3) 
32

>  <SMILES>  (3) 
CC(C)N/C(O)=C\c1ccc(/N=c2\nc(-c3ccccc3)cc[nH]2)cc1

>  <Energy>  (3) 
61.51715273827357

>  <Genealogy>  (3) 
CC(C)NC(O)=Cc1ccc(N=c2nc(-c3ccccc3)cc[nH]2)cc1 (tautomer)
CC(C)N/C(O)=C\c1ccc(/N=c2\nc(-c3ccccc3)cc[nH]2)cc1 (cis-trans isomerization)
CC(C)N/C(O)=C\c1ccc(/N=c2\nc(-c3ccccc3)cc[nH]2)cc1 (3D coordinates assigned)
CC(C)N/C(O)=C\c1ccc(/N=c2\nc(-c3ccccc3)cc[nH]2)cc1 (optimized conformer: 61.51715273827357 kcal/mol)

>  <smiles>  (3) 
CC(C)NC(=O)Cc1ccc(N=c2nc(-c3ccccc3)cc[nH]2)cc1

>  <score_type>  (3) 
oracle

>  <origin>  (3) 
autodockgpu

>  <m_score__min__energy>  (3) 
-8.1099999999999994

>  <m_primary>  (3) 
energy

>  <meeko>  (3) 
{"free_energy": -7.41, "intermolecular_energy": -9.8, "internal_energy": -0.94, "cluster_size": 12, "cluster_id": 3, "rank_in_cluster": 10}

>  <energy>  (3) 
-7.84

>  <cluster_rmsd>  (3) 
1.07

>  <rmsd>  (3) 
269.83

>  <cluster>  (3) 
1

$$$$
DPVNRQFUFIRJCL-MTJUKBPRNA-N
     RDKit          3D

 48 50  0  0  0  0  0  0  0  0999 V2000
  139.9080   66.6210  226.9110 H   0  0  0  0  0  0  0  0  0  0  0  0
  139.1400   67.0460  226.4040 O   0  0  0  0  0  0  0  0  0  0  0  0
  139.1970   68.3560  225.9270 C   0  0  0  0  0  0  0  0  0  0  0  0
  139.2120   68.5670  224.5990 C   0  0  0  0  0  0  0  0  0  0  0  0
  139.0307   67.7021  223.9440 H   0  0  0  0  0  0  0  0  0  0  0  0
  139.4540   69.8750  223.9540 C   0  0  0  0  0  0  0  0  0  0  0  0
  140.4280   70.7630  224.4410 C   0  0  0  0  0  0  0  0  0  0  0  0
  141.0051   70.5028  225.3406 H   0  0  0  0  0  0  0  0  0  0  0  0
  140.6670   71.9750  223.7880 C   0  0  0  0  0  0  0  0  0  0  0  0
  141.4073   72.6784  224.1969 H   0  0  0  0  0  0  0  0  0  0  0  0
  139.9720   72.3010  222.6180 C   0  0  0  0  0  0  0  0  0  0  0  0
  140.2320   73.5700  221.9910 N   0  0  0  0  0  0  0  0  0  0  0  0
  139.5760   74.6810  222.1720 C   0  0  0  0  0  0  0  0  0  0  0  0
  140.2310   75.8640  222.3280 N   0  0  0  0  0  0  0  0  0  0  0  0
  139.5680   77.0330  222.5400 C   0  0  0  0  0  0  0  0  0  0  0  0
  140.3470   78.2900  222.6940 C   0  0  0  0  0  0  0  0  0  0  0  0
  139.8570   79.5240  222.2180 C   0  0  0  0  0  0  0  0  0  0  0  0
  138.8733   79.5686  221.7277 H   0  0  0  0  0  0  0  0  0  0  0  0
  140.6130   80.6910  222.3650 C   0  0  0  0  0  0  0  0  0  0  0  0
  140.2198   81.6495  221.9953 H   0  0  0  0  0  0  0  0  0  0  0  0
  141.8660   80.6430  222.9800 C   0  0  0  0  0  0  0  0  0  0  0  0
  142.4569   81.5633  223.0979 H   0  0  0  0  0  0  0  0  0  0  0  0
  142.3680   79.4260  223.4450 C   0  0  0  0  0  0  0  0  0  0  0  0
  143.3566   79.3881  223.9258 H   0  0  0  0  0  0  0  0  0  0  0  0
  141.6170   78.2550  223.3010 C   0  0  0  0  0  0  0  0  0  0  0  0
  142.0217   77.2990  223.6648 H   0  0  0  0  0  0  0  0  0  0  0  0
  138.1670   77.0080  222.6260 C   0  0  0  0  0  0  0  0  0  0  0  0
  137.5998   77.9327  222.8083 H   0  0  0  0  0  0  0  0  0  0  0  0
  137.5090   75.7890  222.4760 C   0  0  0  0  0  0  0  0  0  0  0  0
  136.4115   75.7472  222.5374 H   0  0  0  0  0  0  0  0  0  0  0  0
  138.2190   74.6510  222.2540 N   0  0  0  0  0  0  0  0  0  0  0  0
  137.7050   73.7460  222.1500 H   0  0  0  0  0  0  0  0  0  0  0  0
  138.9940   71.4140  222.1300 C   0  0  0  0  0  0  0  0  0  0  0  0
  138.4159   71.6757  221.2315 H   0  0  0  0  0  0  0  0  0  0  0  0
  138.7550   70.2010  222.7840 C   0  0  0  0  0  0  0  0  0  0  0  0
  138.0132   69.4980  222.3771 H   0  0  0  0  0  0  0  0  0  0  0  0
  139.2040   69.4510  226.8660 N   0  0  0  0  0  0  0  0  0  0  0  0
  138.4920   70.2100  226.7710 H   0  0  0  0  0  0  0  0  0  0  0  0
  140.1490   69.5780  227.9810 C   0  0  0  0  0  0  0  0  0  0  0  0
  139.5700   69.5600  228.9161 H   0  0  0  0  0  0  0  0  0  0  0  0
  140.8890   70.9180  227.9300 C   0  0  0  0  0  0  0  0  0  0  0  0
  141.0829   71.2690  228.9543 H   0  0  0  0  0  0  0  0  0  0  0  0
  141.8440   70.7895  227.3995 H   0  0  0  0  0  0  0  0  0  0  0  0
  140.2716   71.6579  227.3995 H   0  0  0  0  0  0  0  0  0  0  0  0
  141.1190   68.3920  228.0290 C   0  0  0  0  0  0  0  0  0  0  0  0
  141.3305   68.1335  229.0771 H   0  0  0  0  0  0  0  0  0  0  0  0
  140.6661   67.5271  227.5222 H   0  0  0  0  0  0  0  0  0  0  0  0
  142.0565   68.6643  227.5222 H   0  0  0  0  0  0  0  0  0  0  0  0
  1  2  1  0
  2  3  1  0
  3  4  2  0
  4  5  1  0
  4  6  1  0
  6  7  2  0
  7  8  1  0
  7  9  1  0
  9 10  1  0
  9 11  2  0
 11 12  1  0
 12 13  2  0
 13 14  1  0
 14 15  2  0
 15 16  1  0
 16 17  2  0
 17 18  1  0
 17 19  1  0
 19 20  1  0
 19 21  2  0
 21 22  1  0
 21 23  1  0
 23 24  1  0
 23 25  2  0
 25 26  1  0
 15 27  1  0
 27 28  1  0
 27 29  2  0
 29 30  1  0
 29 31  1  0
 31 32  1  0
 11 33  1  0
 33 34  1  0
 33 35  2  0
 35 36  1  0
  3 37  1  0
 37 38  1  0
 37 39  1  0
 39 40  1  0
 39 41  1  0
 41 42  1  0
 41 43  1  0
 41 44  1  0
 39 45  1  0
 45 46  1  0
 45 47  1  0
 45 48  1  0
 35  6  1  0
 31 13  1  0
 25 16  1  0
M  END
>  <UniqueID>  (4) 
32

>  <SMILES>  (4) 
CC(C)N/C(O)=C\c1ccc(/N=c2\nc(-c3ccccc3)cc[nH]2)cc1

>  <Energy>  (4) 
61.51715273827357

>  <Genealogy>  (4) 
CC(C)NC(O)=Cc1ccc(N=c2nc(-c3ccccc3)cc[nH]2)cc1 (tautomer)
CC(C)N/C(O)=C\c1ccc(/N=c2\nc(-c3ccccc3)cc[nH]2)cc1 (cis-trans isomerization)
CC(C)N/C(O)=C\c1ccc(/N=c2\nc(-c3ccccc3)cc[nH]2)cc1 (3D coordinates assigned)
CC(C)N/C(O)=C\c1ccc(/N=c2\nc(-c3ccccc3)cc[nH]2)cc1 (optimized conformer: 61.51715273827357 kcal/mol)

>  <smiles>  (4) 
CC(C)NC(=O)Cc1ccc(N=c2nc(-c3ccccc3)cc[nH]2)cc1

>  <score_type>  (4) 
oracle

>  <origin>  (4) 
autodockgpu

>  <m_score__min__energy>  (4) 
-8.1099999999999994

>  <m_primary>  (4) 
energy

>  <meeko>  (4) 
{"free_energy": -7.84, "intermolecular_energy": -10.23, "internal_energy": -0.86, "cluster_size": 3, "cluster_id": 1, "rank_in_cluster": 3}

>  <energy>  (4) 
-7.79

>  <cluster_rmsd>  (4) 
0.0

>  <rmsd>  (4) 
268.99

>  <cluster>  (4) 
2

$$$$
DPVNRQFUFIRJCL-MTJUKBPRNA-N
     RDKit          3D

 48 50  0  0  0  0  0  0  0  0999 V2000
  140.9110   81.2010  219.8600 H   0  0  0  0  0  0  0  0  0  0  0  0
  141.2530   80.9400  220.7780 O   0  0  0  0  0  0  0  0  0  0  0  0
  141.7460   79.6640  221.0550 C   0  0  0  0  0  0  0  0  0  0  0  0
  141.3760   78.6380  220.2680 C   0  0  0  0  0  0  0  0  0  0  0  0
  141.0492   78.8734  219.2444 H   0  0  0  0  0  0  0  0  0  0  0  0
  141.3760   77.2170  220.6770 C   0  0  0  0  0  0  0  0  0  0  0  0
  140.4410   76.7200  221.6000 C   0  0  0  0  0  0  0  0  0  0  0  0
  139.7102   77.4019  222.0593 H   0  0  0  0  0  0  0  0  0  0  0  0
  140.4340   75.3640  221.9380 C   0  0  0  0  0  0  0  0  0  0  0  0
  139.7195   74.9916  222.6868 H   0  0  0  0  0  0  0  0  0  0  0  0
  141.3290   74.4770  221.3310 C   0  0  0  0  0  0  0  0  0  0  0  0
  141.3050   73.0940  221.7260 N   0  0  0  0  0  0  0  0  0  0  0  0
  140.3970   72.5030  222.4500 C   0  0  0  0  0  0  0  0  0  0  0  0
  140.7160   71.9320  223.6440 N   0  0  0  0  0  0  0  0  0  0  0  0
  139.7900   71.2910  224.4070 C   0  0  0  0  0  0  0  0  0  0  0  0
  140.2060   70.6960  225.7050 C   0  0  0  0  0  0  0  0  0  0  0  0
  140.0920   69.3120  225.9520 C   0  0  0  0  0  0  0  0  0  0  0  0
  139.6954   68.6479  225.1698 H   0  0  0  0  0  0  0  0  0  0  0  0
  140.4800   68.7790  227.1850 C   0  0  0  0  0  0  0  0  0  0  0  0
  140.3924   67.6976  227.3666 H   0  0  0  0  0  0  0  0  0  0  0  0
  140.9780   69.6140  228.1860 C   0  0  0  0  0  0  0  0  0  0  0  0
  141.2860   69.1904  229.1533 H   0  0  0  0  0  0  0  0  0  0  0  0
  141.0850   70.9870  227.9590 C   0  0  0  0  0  0  0  0  0  0  0  0
  141.4747   71.6451  228.7496 H   0  0  0  0  0  0  0  0  0  0  0  0
  140.6980   71.5280  226.7290 C   0  0  0  0  0  0  0  0  0  0  0  0
  140.7785   72.6120  226.5600 H   0  0  0  0  0  0  0  0  0  0  0  0
  138.4730   71.1960  223.9310 C   0  0  0  0  0  0  0  0  0  0  0  0
  137.7017   70.6745  224.5167 H   0  0  0  0  0  0  0  0  0  0  0  0
  138.1610   71.7750  222.7020 C   0  0  0  0  0  0  0  0  0  0  0  0
  137.1345   71.7138  222.3115 H   0  0  0  0  0  0  0  0  0  0  0  0
  139.1220   72.4150  221.9850 N   0  0  0  0  0  0  0  0  0  0  0  0
  138.8690   72.8370  221.0620 H   0  0  0  0  0  0  0  0  0  0  0  0
  142.2690   74.9730  220.4080 C   0  0  0  0  0  0  0  0  0  0  0  0
  143.0008   74.2907  219.9509 H   0  0  0  0  0  0  0  0  0  0  0  0
  142.2760   76.3300  220.0700 C   0  0  0  0  0  0  0  0  0  0  0  0
  142.9921   76.7037  219.3233 H   0  0  0  0  0  0  0  0  0  0  0  0
  142.6630   79.4820  222.1520 N   0  0  0  0  0  0  0  0  0  0  0  0
  143.5860   79.0260  221.9770 H   0  0  0  0  0  0  0  0  0  0  0  0
  142.3980   79.9120  223.5300 C   0  0  0  0  0  0  0  0  0  0  0  0
  143.3417   79.8425  224.0909 H   0  0  0  0  0  0  0  0  0  0  0  0
  141.3910   78.9830  224.2160 C   0  0  0  0  0  0  0  0  0  0  0  0
  141.4913   79.0755  225.3075 H   0  0  0  0  0  0  0  0  0  0  0  0
  140.3704   79.2634  223.9165 H   0  0  0  0  0  0  0  0  0  0  0  0
  141.5884   77.9431  223.9165 H   0  0  0  0  0  0  0  0  0  0  0  0
  141.9510   81.3770  223.5830 C   0  0  0  0  0  0  0  0  0  0  0  0
  141.8545   81.6932  224.6321 H   0  0  0  0  0  0  0  0  0  0  0  0
  142.6979   82.0068  223.0774 H   0  0  0  0  0  0  0  0  0  0  0  0
  140.9798   81.4825  223.0774 H   0  0  0  0  0  0  0  0  0  0  0  0
  1  2  1  0
  2  3  1  0
  3  4  2  0
  4  5  1  0
  4  6  1  0
  6  7  2  0
  7  8  1  0
  7  9  1  0
  9 10  1  0
  9 11  2  0
 11 12  1  0
 12 13  2  0
 13 14  1  0
 14 15  2  0
 15 16  1  0
 16 17  2  0
 17 18  1  0
 17 19  1  0
 19 20  1  0
 19 21  2  0
 21 22  1  0
 21 23  1  0
 23 24  1  0
 23 25  2  0
 25 26  1  0
 15 27  1  0
 27 28  1  0
 27 29  2  0
 29 30  1  0
 29 31  1  0
 31 32  1  0
 11 33  1  0
 33 34  1  0
 33 35  2  0
 35 36  1  0
  3 37  1  0
 37 38  1  0
 37 39  1  0
 39 40  1  0
 39 41  1  0
 41 42  1  0
 41 43  1  0
 41 44  1  0
 39 45  1  0
 45 46  1  0
 45 47  1  0
 45 48  1  0
 35  6  1  0
 31 13  1  0
 25 16  1  0
M  END
>  <UniqueID>  (5) 
32

>  <SMILES>  (5) 
CC(C)N/C(O)=C\c1ccc(/N=c2\nc(-c3ccccc3)cc[nH]2)cc1

>  <Energy>  (5) 
61.51715273827357

>  <Genealogy>  (5) 
CC(C)NC(O)=Cc1ccc(N=c2nc(-c3ccccc3)cc[nH]2)cc1 (tautomer)
CC(C)N/C(O)=C\c1ccc(/N=c2\nc(-c3ccccc3)cc[nH]2)cc1 (cis-trans isomerization)
CC(C)N/C(O)=C\c1ccc(/N=c2\nc(-c3ccccc3)cc[nH]2)cc1 (3D coordinates assigned)
CC(C)N/C(O)=C\c1ccc(/N=c2\nc(-c3ccccc3)cc[nH]2)cc1 (optimized conformer: 61.51715273827357 kcal/mol)

>  <smiles>  (5) 
CC(C)NC(=O)Cc1ccc(N=c2nc(-c3ccccc3)cc[nH]2)cc1

>  <score_type>  (5) 
oracle

>  <origin>  (5) 
autodockgpu

>  <m_score__min__energy>  (5) 
-8.1099999999999994

>  <m_primary>  (5) 
energy

>  <meeko>  (5) 
{"free_energy": -7.6, "intermolecular_energy": -9.98, "internal_energy": -0.95, "cluster_size": 12, "cluster_id": 3, "rank_in_cluster": 8}

>  <energy>  (5) 
-7.73

>  <cluster_rmsd>  (5) 
0.5

>  <rmsd>  (5) 
268.99

>  <cluster>  (5) 
2

$$$$
DPVNRQFUFIRJCL-MTJUKBPRNA-N
     RDKit          3D

 48 50  0  0  0  0  0  0  0  0999 V2000
  141.6390   80.6490  218.8800 H   0  0  0  0  0  0  0  0  0  0  0  0
  141.7570   80.8330  219.8700 O   0  0  0  0  0  0  0  0  0  0  0  0
  141.5460   79.8520  220.8400 C   0  0  0  0  0  0  0  0  0  0  0  0
  140.6120   78.9090  220.6210 C   0  0  0  0  0  0  0  0  0  0  0  0
  139.6802   79.2199  220.1259 H   0  0  0  0  0  0  0  0  0  0  0  0
  140.7460   77.4850  220.9970 C   0  0  0  0  0  0  0  0  0  0  0  0
  139.8200   76.8630  221.8510 C   0  0  0  0  0  0  0  0  0  0  0  0
  138.9935   77.4477  222.2811 H   0  0  0  0  0  0  0  0  0  0  0  0
  139.9440   75.5040  222.1570 C   0  0  0  0  0  0  0  0  0  0  0  0
  139.2344   75.0345  222.8541 H   0  0  0  0  0  0  0  0  0  0  0  0
  140.9640   74.7370  221.5830 C   0  0  0  0  0  0  0  0  0  0  0  0
  141.0700   73.3490  221.9440 N   0  0  0  0  0  0  0  0  0  0  0  0
  140.2050   72.6490  222.6210 C   0  0  0  0  0  0  0  0  0  0  0  0
  140.5500   72.0550  223.7970 N   0  0  0  0  0  0  0  0  0  0  0  0
  139.6710   71.3010  224.5100 C   0  0  0  0  0  0  0  0  0  0  0  0
  140.1140   70.6880  225.7900 C   0  0  0  0  0  0  0  0  0  0  0  0
  139.9780   69.3050  226.0310 C   0  0  0  0  0  0  0  0  0  0  0  0
  139.5435   68.6555  225.2568 H   0  0  0  0  0  0  0  0  0  0  0  0
  140.3920   68.7540  227.2480 C   0  0  0  0  0  0  0  0  0  0  0  0
  140.2872   67.6734  227.4249 H   0  0  0  0  0  0  0  0  0  0  0  0
  140.9380   69.5720  228.2390 C   0  0  0  0  0  0  0  0  0  0  0  0
  141.2664   69.1352  229.1937 H   0  0  0  0  0  0  0  0  0  0  0  0
  141.0670   70.9440  228.0180 C   0  0  0  0  0  0  0  0  0  0  0  0
  141.4939   71.5880  228.8009 H   0  0  0  0  0  0  0  0  0  0  0  0
  140.6550   71.5020  226.8040 C   0  0  0  0  0  0  0  0  0  0  0  0
  140.7542   72.5851  226.6396 H   0  0  0  0  0  0  0  0  0  0  0  0
  138.3770   71.1120  224.0000 C   0  0  0  0  0  0  0  0  0  0  0  0
  137.6442   70.4985  224.5446 H   0  0  0  0  0  0  0  0  0  0  0  0
  138.0380   71.7160  222.7910 C   0  0  0  0  0  0  0  0  0  0  0  0
  137.0283   71.5827  222.3755 H   0  0  0  0  0  0  0  0  0  0  0  0
  138.9510   72.4690  222.1240 N   0  0  0  0  0  0  0  0  0  0  0  0
  138.6790   72.9080  221.2140 H   0  0  0  0  0  0  0  0  0  0  0  0
  141.8930   75.3600  220.7290 C   0  0  0  0  0  0  0  0  0  0  0  0
  142.7200   74.7751  220.3001 H   0  0  0  0  0  0  0  0  0  0  0  0
  141.7700   76.7190  220.4230 C   0  0  0  0  0  0  0  0  0  0  0  0
  142.4809   77.1896  219.7279 H   0  0  0  0  0  0  0  0  0  0  0  0
  142.3540   79.8510  222.0340 N   0  0  0  0  0  0  0  0  0  0  0  0
  143.3840   79.7040  221.9540 H   0  0  0  0  0  0  0  0  0  0  0  0
  141.8270   80.0620  223.3880 C   0  0  0  0  0  0  0  0  0  0  0  0
  140.7842   80.3994  223.2942 H   0  0  0  0  0  0  0  0  0  0  0  0
  142.5990   81.1670  224.1170 C   0  0  0  0  0  0  0  0  0  0  0  0
  142.5012   81.0270  225.2037 H   0  0  0  0  0  0  0  0  0  0  0  0
  143.6612   81.1192  223.8353 H   0  0  0  0  0  0  0  0  0  0  0  0
  142.1887   82.1480  223.8353 H   0  0  0  0  0  0  0  0  0  0  0  0
  141.8070   78.7550  224.1900 C   0  0  0  0  0  0  0  0  0  0  0  0
  141.8105   78.9848  225.2657 H   0  0  0  0  0  0  0  0  0  0  0  0
  140.9000   78.1851  223.9398 H   0  0  0  0  0  0  0  0  0  0  0  0
  142.6961   78.1576  223.9398 H   0  0  0  0  0  0  0  0  0  0  0  0
  1  2  1  0
  2  3  1  0
  3  4  2  0
  4  5  1  0
  4  6  1  0
  6  7  2  0
  7  8  1  0
  7  9  1  0
  9 10  1  0
  9 11  2  0
 11 12  1  0
 12 13  2  0
 13 14  1  0
 14 15  2  0
 15 16  1  0
 16 17  2  0
 17 18  1  0
 17 19  1  0
 19 20  1  0
 19 21  2  0
 21 22  1  0
 21 23  1  0
 23 24  1  0
 23 25  2  0
 25 26  1  0
 15 27  1  0
 27 28  1  0
 27 29  2  0
 29 30  1  0
 29 31  1  0
 31 32  1  0
 11 33  1  0
 33 34  1  0
 33 35  2  0
 35 36  1  0
  3 37  1  0
 37 38  1  0
 37 39  1  0
 39 40  1  0
 39 41  1  0
 41 42  1  0
 41 43  1  0
 41 44  1  0
 39 45  1  0
 45 46  1  0
 45 47  1  0
 45 48  1  0
 35  6  1  0
 31 13  1  0
 25 16  1  0
M  END
>  <UniqueID>  (6) 
32

>  <SMILES>  (6) 
CC(C)N/C(O)=C\c1ccc(/N=c2\nc(-c3ccccc3)cc[nH]2)cc1

>  <Energy>  (6) 
61.51715273827357

>  <Genealogy>  (6) 
CC(C)NC(O)=Cc1ccc(N=c2nc(-c3ccccc3)cc[nH]2)cc1 (tautomer)
CC(C)N/C(O)=C\c1ccc(/N=c2\nc(-c3ccccc3)cc[nH]2)cc1 (cis-trans isomerization)
CC(C)N/C(O)=C\c1ccc(/N=c2\nc(-c3ccccc3)cc[nH]2)cc1 (3D coordinates assigned)
CC(C)N/C(O)=C\c1ccc(/N=c2\nc(-c3ccccc3)cc[nH]2)cc1 (optimized conformer: 61.51715273827357 kcal/mol)

>  <smiles>  (6) 
CC(C)NC(=O)Cc1ccc(N=c2nc(-c3ccccc3)cc[nH]2)cc1

>  <score_type>  (6) 
oracle

>  <origin>  (6) 
autodockgpu

>  <m_score__min__energy>  (6) 
-8.1099999999999994

>  <m_primary>  (6) 
energy

>  <meeko>  (6) 
{"free_energy": -7.73, "intermolecular_energy": -10.11, "internal_energy": -0.99, "cluster_size": 12, "cluster_id": 3, "rank_in_cluster": 1}

>  <energy>  (6) 
-7.73

>  <cluster_rmsd>  (6) 
0.0

>  <rmsd>  (6) 
270.0

>  <cluster>  (6) 
3

$$$$
DPVNRQFUFIRJCL-MTJUKBPRNA-N
     RDKit          3D

 48 50  0  0  0  0  0  0  0  0999 V2000
  146.2750   74.0630  217.6740 H   0  0  0  0  0  0  0  0  0  0  0  0
  146.2720   73.0800  217.9240 O   0  0  0  0  0  0  0  0  0  0  0  0
  145.8780   72.6330  219.1860 C   0  0  0  0  0  0  0  0  0  0  0  0
  145.4320   73.5290  220.0850 C   0  0  0  0  0  0  0  0  0  0  0  0
  146.1779   74.1673  220.5813 H   0  0  0  0  0  0  0  0  0  0  0  0
  144.0140   73.7190  220.4550 C   0  0  0  0  0  0  0  0  0  0  0  0
  143.2170   72.6440  220.8810 C   0  0  0  0  0  0  0  0  0  0  0  0
  143.6388   71.6285  220.9102 H   0  0  0  0  0  0  0  0  0  0  0  0
  141.8910   72.8570  221.2680 C   0  0  0  0  0  0  0  0  0  0  0  0
  141.2662   72.0030  221.5686 H   0  0  0  0  0  0  0  0  0  0  0  0
  141.3520   74.1490  221.2760 C   0  0  0  0  0  0  0  0  0  0  0  0
  139.9760   74.3200  221.6570 N   0  0  0  0  0  0  0  0  0  0  0  0
  139.3960   75.4300  222.0160 C   0  0  0  0  0  0  0  0  0  0  0  0
  140.1280   76.5360  222.3240 N   0  0  0  0  0  0  0  0  0  0  0  0
  139.5450   77.6980  222.7230 C   0  0  0  0  0  0  0  0  0  0  0  0
  140.4060   78.8700  223.0360 C   0  0  0  0  0  0  0  0  0  0  0  0
  141.7890   78.7270  223.2700 C   0  0  0  0  0  0  0  0  0  0  0  0
  142.2528   77.7311  223.2140 H   0  0  0  0  0  0  0  0  0  0  0  0
  142.5750   79.8440  223.5730 C   0  0  0  0  0  0  0  0  0  0  0  0
  143.6543   79.7238  223.7479 H   0  0  0  0  0  0  0  0  0  0  0  0
  141.9940   81.1100  223.6540 C   0  0  0  0  0  0  0  0  0  0  0  0
  142.6157   81.9865  223.8889 H   0  0  0  0  0  0  0  0  0  0  0  0
  140.6240   81.2640  223.4370 C   0  0  0  0  0  0  0  0  0  0  0  0
  140.1662   82.2619  223.5052 H   0  0  0  0  0  0  0  0  0  0  0  0
  139.8320   80.1520  223.1330 C   0  0  0  0  0  0  0  0  0  0  0  0
  138.7520   80.2800  222.9684 H   0  0  0  0  0  0  0  0  0  0  0  0
  138.1480   77.7450  222.8450 C   0  0  0  0  0  0  0  0  0  0  0  0
  137.6451   78.6656  223.1761 H   0  0  0  0  0  0  0  0  0  0  0  0
  137.4100   76.6040  222.5390 C   0  0  0  0  0  0  0  0  0  0  0  0
  136.3136   76.6201  222.6268 H   0  0  0  0  0  0  0  0  0  0  0  0
  138.0410   75.4700  222.1320 N   0  0  0  0  0  0  0  0  0  0  0  0
  137.4690   74.6230  221.9130 H   0  0  0  0  0  0  0  0  0  0  0  0
  142.1480   75.2270  220.8460 C   0  0  0  0  0  0  0  0  0  0  0  0
  141.7248   76.2418  220.8134 H   0  0  0  0  0  0  0  0  0  0  0  0
  143.4750   75.0130  220.4600 C   0  0  0  0  0  0  0  0  0  0  0  0
  144.1003   75.8662  220.1582 H   0  0  0  0  0  0  0  0  0  0  0  0
  145.9240   71.2230  219.4840 N   0  0  0  0  0  0  0  0  0  0  0  0
  146.3180   70.9070  220.3980 H   0  0  0  0  0  0  0  0  0  0  0  0
  145.4340   70.1720  218.5840 C   0  0  0  0  0  0  0  0  0  0  0  0
  145.8347   70.3755  217.5800 H   0  0  0  0  0  0  0  0  0  0  0  0
  143.9060   70.2010  218.4780 C   0  0  0  0  0  0  0  0  0  0  0  0
  143.4685   70.2093  219.4872 H   0  0  0  0  0  0  0  0  0  0  0  0
  143.5932   71.1052  217.9353 H   0  0  0  0  0  0  0  0  0  0  0  0
  143.5591   69.3093  217.9353 H   0  0  0  0  0  0  0  0  0  0  0  0
  145.9510   68.7910  219.0040 C   0  0  0  0  0  0  0  0  0  0  0  0
  145.9750   68.7268  220.1019 H   0  0  0  0  0  0  0  0  0  0  0  0
  145.2833   68.0128  218.6057 H   0  0  0  0  0  0  0  0  0  0  0  0
  146.9656   68.6426  218.6057 H   0  0  0  0  0  0  0  0  0  0  0  0
  1  2  1  0
  2  3  1  0
  3  4  2  0
  4  5  1  0
  4  6  1  0
  6  7  2  0
  7  8  1  0
  7  9  1  0
  9 10  1  0
  9 11  2  0
 11 12  1  0
 12 13  2  0
 13 14  1  0
 14 15  2  0
 15 16  1  0
 16 17  2  0
 17 18  1  0
 17 19  1  0
 19 20  1  0
 19 21  2  0
 21 22  1  0
 21 23  1  0
 23 24  1  0
 23 25  2  0
 25 26  1  0
 15 27  1  0
 27 28  1  0
 27 29  2  0
 29 30  1  0
 29 31  1  0
 31 32  1  0
 11 33  1  0
 33 34  1  0
 33 35  2  0
 35 36  1  0
  3 37  1  0
 37 38  1  0
 37 39  1  0
 39 40  1  0
 39 41  1  0
 41 42  1  0
 41 43  1  0
 41 44  1  0
 39 45  1  0
 45 46  1  0
 45 47  1  0
 45 48  1  0
 35  6  1  0
 31 13  1  0
 25 16  1  0
M  END
>  <UniqueID>  (7) 
32

>  <SMILES>  (7) 
CC(C)N/C(O)=C\c1ccc(/N=c2\nc(-c3ccccc3)cc[nH]2)cc1

>  <Energy>  (7) 
61.51715273827357

>  <Genealogy>  (7) 
CC(C)NC(O)=Cc1ccc(N=c2nc(-c3ccccc3)cc[nH]2)cc1 (tautomer)
CC(C)N/C(O)=C\c1ccc(/N=c2\nc(-c3ccccc3)cc[nH]2)cc1 (cis-trans isomerization)
CC(C)N/C(O)=C\c1ccc(/N=c2\nc(-c3ccccc3)cc[nH]2)cc1 (3D coordinates assigned)
CC(C)N/C(O)=C\c1ccc(/N=c2\nc(-c3ccccc3)cc[nH]2)cc1 (optimized conformer: 61.51715273827357 kcal/mol)

>  <smiles>  (7) 
CC(C)NC(=O)Cc1ccc(N=c2nc(-c3ccccc3)cc[nH]2)cc1

>  <score_type>  (7) 
oracle

>  <origin>  (7) 
autodockgpu

>  <m_score__min__energy>  (7) 
-8.1099999999999994

>  <m_primary>  (7) 
energy

>  <meeko>  (7) 
{"free_energy": -7.51, "intermolecular_energy": -9.89, "internal_energy": -0.95, "cluster_size": 2, "cluster_id": 4, "rank_in_cluster": 1}

>  <energy>  (7) 
-7.71

>  <cluster_rmsd>  (7) 
0.73

>  <rmsd>  (7) 
270.02

>  <cluster>  (7) 
3

$$$$
DPVNRQFUFIRJCL-MTJUKBPRNA-N
     RDKit          3D

 48 50  0  0  0  0  0  0  0  0999 V2000
  142.3480   80.2320  218.9590 H   0  0  0  0  0  0  0  0  0  0  0  0
  141.8420   80.5870  219.7630 O   0  0  0  0  0  0  0  0  0  0  0  0
  141.6420   79.8240  220.9140 C   0  0  0  0  0  0  0  0  0  0  0  0
  140.5890   78.9900  220.9680 C   0  0  0  0  0  0  0  0  0  0  0  0
  139.5903   79.4192  220.7997 H   0  0  0  0  0  0  0  0  0  0  0  0
  140.6740   77.5380  221.2370 C   0  0  0  0  0  0  0  0  0  0  0  0
  139.7050   76.8790  222.0120 C   0  0  0  0  0  0  0  0  0  0  0  0
  138.8802   77.4522  222.4604 H   0  0  0  0  0  0  0  0  0  0  0  0
  139.7840   75.4980  222.2160 C   0  0  0  0  0  0  0  0  0  0  0  0
  139.0401   74.9966  222.8525 H   0  0  0  0  0  0  0  0  0  0  0  0
  140.8030   74.7490  221.6160 C   0  0  0  0  0  0  0  0  0  0  0  0
  140.8610   73.3350  221.8720 N   0  0  0  0  0  0  0  0  0  0  0  0
  140.0340   72.6360  222.5960 C   0  0  0  0  0  0  0  0  0  0  0  0
  140.4280   72.0860  223.7770 N   0  0  0  0  0  0  0  0  0  0  0  0
  139.5890   71.3340  224.5390 C   0  0  0  0  0  0  0  0  0  0  0  0
  140.0840   70.7700  225.8220 C   0  0  0  0  0  0  0  0  0  0  0  0
  140.6060   71.5960  226.8390 C   0  0  0  0  0  0  0  0  0  0  0  0
  140.6437   72.6855  226.6920 H   0  0  0  0  0  0  0  0  0  0  0  0
  141.0760   71.0400  228.0330 C   0  0  0  0  0  0  0  0  0  0  0  0
  141.4760   71.6935  228.8223 H   0  0  0  0  0  0  0  0  0  0  0  0
  141.0390   69.6580  228.2260 C   0  0  0  0  0  0  0  0  0  0  0  0
  141.4059   69.2239  229.1677 H   0  0  0  0  0  0  0  0  0  0  0  0
  140.5360   68.8270  227.2230 C   0  0  0  0  0  0  0  0  0  0  0  0
  140.5103   67.7378  227.3744 H   0  0  0  0  0  0  0  0  0  0  0  0
  140.0650   69.3760  226.0270 C   0  0  0  0  0  0  0  0  0  0  0  0
  139.6762   68.7142  225.2390 H   0  0  0  0  0  0  0  0  0  0  0  0
  138.2840   71.1010  224.0760 C   0  0  0  0  0  0  0  0  0  0  0  0
  137.5822   70.4891  224.6617 H   0  0  0  0  0  0  0  0  0  0  0  0
  137.8950   71.6600  222.8600 C   0  0  0  0  0  0  0  0  0  0  0  0
  136.8770   71.4906  222.4793 H   0  0  0  0  0  0  0  0  0  0  0  0
  138.7700   72.4140  222.1430 N   0  0  0  0  0  0  0  0  0  0  0  0
  138.4600   72.8190  221.2300 H   0  0  0  0  0  0  0  0  0  0  0  0
  141.7750   75.4090  220.8420 C   0  0  0  0  0  0  0  0  0  0  0  0
  142.6006   74.8360  220.3947 H   0  0  0  0  0  0  0  0  0  0  0  0
  141.6960   76.7900  220.6390 C   0  0  0  0  0  0  0  0  0  0  0  0
  142.4416   77.2925  220.0053 H   0  0  0  0  0  0  0  0  0  0  0  0
  142.5860   79.9200  222.0000 N   0  0  0  0  0  0  0  0  0  0  0  0
  143.6060   79.8150  221.8010 H   0  0  0  0  0  0  0  0  0  0  0  0
  142.2150   80.1760  223.3960 C   0  0  0  0  0  0  0  0  0  0  0  0
  143.1051   80.5624  223.9141 H   0  0  0  0  0  0  0  0  0  0  0  0
  141.8000   78.8820  224.1050 C   0  0  0  0  0  0  0  0  0  0  0  0
  141.8472   79.0293  225.1941 H   0  0  0  0  0  0  0  0  0  0  0  0
  140.7722   78.6183  223.8149 H   0  0  0  0  0  0  0  0  0  0  0  0
  142.4827   78.0698  223.8149 H   0  0  0  0  0  0  0  0  0  0  0  0
  141.1320   81.2550  223.4990 C   0  0  0  0  0  0  0  0  0  0  0  0
  140.9222   81.4640  224.5584 H   0  0  0  0  0  0  0  0  0  0  0  0
  141.4821   82.1741  223.0063 H   0  0  0  0  0  0  0  0  0  0  0  0
  140.2142   80.9016  223.0063 H   0  0  0  0  0  0  0  0  0  0  0  0
  1  2  1  0
  2  3  1  0
  3  4  2  0
  4  5  1  0
  4  6  1  0
  6  7  2  0
  7  8  1  0
  7  9  1  0
  9 10  1  0
  9 11  2  0
 11 12  1  0
 12 13  2  0
 13 14  1  0
 14 15  2  0
 15 16  1  0
 16 17  2  0
 17 18  1  0
 17 19  1  0
 19 20  1  0
 19 21  2  0
 21 22  1  0
 21 23  1  0
 23 24  1  0
 23 25  2  0
 25 26  1  0
 15 27  1  0
 27 28  1  0
 27 29  2  0
 29 30  1  0
 29 31  1  0
 31 32  1  0
 11 33  1  0
 33 34  1  0
 33 35  2  0
 35 36  1  0
  3 37  1  0
 37 38  1  0
 37 39  1  0
 39 40  1  0
 39 41  1  0
 41 42  1  0
 41 43  1  0
 41 44  1  0
 39 45  1  0
 45 46  1  0
 45 47  1  0
 45 48  1  0
 35  6  1  0
 31 13  1  0
 25 16  1  0
M  END
>  <UniqueID>  (8) 
32

>  <SMILES>  (8) 
CC(C)N/C(O)=C\c1ccc(/N=c2\nc(-c3ccccc3)cc[nH]2)cc1

>  <Energy>  (8) 
61.51715273827357

>  <Genealogy>  (8) 
CC(C)NC(O)=Cc1ccc(N=c2nc(-c3ccccc3)cc[nH]2)cc1 (tautomer)
CC(C)N/C(O)=C\c1ccc(/N=c2\nc(-c3ccccc3)cc[nH]2)cc1 (cis-trans isomerization)
CC(C)N/C(O)=C\c1ccc(/N=c2\nc(-c3ccccc3)cc[nH]2)cc1 (3D coordinates assigned)
CC(C)N/C(O)=C\c1ccc(/N=c2\nc(-c3ccccc3)cc[nH]2)cc1 (optimized conformer: 61.51715273827357 kcal/mol)

>  <smiles>  (8) 
CC(C)NC(=O)Cc1ccc(N=c2nc(-c3ccccc3)cc[nH]2)cc1

>  <score_type>  (8) 
oracle

>  <origin>  (8) 
autodockgpu

>  <m_score__min__energy>  (8) 
-8.1099999999999994

>  <m_primary>  (8) 
energy

>  <meeko>  (8) 
{"free_energy": -7.68, "intermolecular_energy": -10.06, "internal_energy": -0.98, "cluster_size": 12, "cluster_id": 3, "rank_in_cluster": 5}

>  <energy>  (8) 
-7.69

>  <cluster_rmsd>  (8) 
0.6

>  <rmsd>  (8) 
270.03

>  <cluster>  (8) 
3

$$$$
DPVNRQFUFIRJCL-MTJUKBPRNA-N
     RDKit          3D

 48 50  0  0  0  0  0  0  0  0999 V2000
  139.8070   67.3210  223.8290 H   0  0  0  0  0  0  0  0  0  0  0  0
  139.5670   67.0460  224.7750 O   0  0  0  0  0  0  0  0  0  0  0  0
  139.0630   67.9520  225.7090 C   0  0  0  0  0  0  0  0  0  0  0  0
  138.2620   68.9460  225.2860 C   0  0  0  0  0  0  0  0  0  0  0  0
  137.1903   68.8727  225.5229 H   0  0  0  0  0  0  0  0  0  0  0  0
  138.7160   70.1300  224.5260 C   0  0  0  0  0  0  0  0  0  0  0  0
  139.8770   70.8330  224.8890 C   0  0  0  0  0  0  0  0  0  0  0  0
  140.4484   70.5242  225.7768 H   0  0  0  0  0  0  0  0  0  0  0  0
  140.3100   71.9230  224.1280 C   0  0  0  0  0  0  0  0  0  0  0  0
  141.2013   72.4870  224.4402 H   0  0  0  0  0  0  0  0  0  0  0  0
  139.6180   72.3020  222.9720 C   0  0  0  0  0  0  0  0  0  0  0  0
  140.0830   73.4440  222.2330 N   0  0  0  0  0  0  0  0  0  0  0  0
  139.5940   74.6510  222.2680 C   0  0  0  0  0  0  0  0  0  0  0  0
  140.4120   75.7380  222.3220 N   0  0  0  0  0  0  0  0  0  0  0  0
  139.9230   77.0060  222.3820 C   0  0  0  0  0  0  0  0  0  0  0  0
  140.8740   78.1480  222.4310 C   0  0  0  0  0  0  0  0  0  0  0  0
  141.2520   78.8440  221.2640 C   0  0  0  0  0  0  0  0  0  0  0  0
  140.8325   78.5482  220.2911 H   0  0  0  0  0  0  0  0  0  0  0  0
  142.1570   79.9080  221.3360 C   0  0  0  0  0  0  0  0  0  0  0  0
  142.4411   80.4488  220.4212 H   0  0  0  0  0  0  0  0  0  0  0  0
  142.7010   80.2860  222.5650 C   0  0  0  0  0  0  0  0  0  0  0  0
  143.4089   81.1262  222.6184 H   0  0  0  0  0  0  0  0  0  0  0  0
  142.3460   79.5970  223.7260 C   0  0  0  0  0  0  0  0  0  0  0  0
  142.7783   79.8925  224.6934 H   0  0  0  0  0  0  0  0  0  0  0  0
  141.4420   78.5320  223.6620 C   0  0  0  0  0  0  0  0  0  0  0  0
  141.1721   77.9896  224.5801 H   0  0  0  0  0  0  0  0  0  0  0  0
  138.5320   77.1920  222.4140 C   0  0  0  0  0  0  0  0  0  0  0  0
  138.1029   78.2031  222.4734 H   0  0  0  0  0  0  0  0  0  0  0  0
  137.7050   76.0710  222.3690 C   0  0  0  0  0  0  0  0  0  0  0  0
  136.6122   76.1944  222.3910 H   0  0  0  0  0  0  0  0  0  0  0  0
  138.2450   74.8260  222.2980 N   0  0  0  0  0  0  0  0  0  0  0  0
  137.6070   73.9980  222.2720 H   0  0  0  0  0  0  0  0  0  0  0  0
  138.4530   71.6000  222.6090 C   0  0  0  0  0  0  0  0  0  0  0  0
  137.8802   71.9106  221.7227 H   0  0  0  0  0  0  0  0  0  0  0  0
  138.0210   70.5100  223.3700 C   0  0  0  0  0  0  0  0  0  0  0  0
  137.1290   69.9464  223.0592 H   0  0  0  0  0  0  0  0  0  0  0  0
  139.3820   67.7810  227.1050 N   0  0  0  0  0  0  0  0  0  0  0  0
  138.9920   66.9610  227.6210 H   0  0  0  0  0  0  0  0  0  0  0  0
  140.2470   68.6850  227.8710 C   0  0  0  0  0  0  0  0  0  0  0  0
  140.7000   68.1040  228.6878 H   0  0  0  0  0  0  0  0  0  0  0  0
  139.4360   69.8170  228.5110 C   0  0  0  0  0  0  0  0  0  0  0  0
  139.4942   69.7358  229.6065 H   0  0  0  0  0  0  0  0  0  0  0  0
  139.8460   70.7869  228.1930 H   0  0  0  0  0  0  0  0  0  0  0  0
  138.3857   69.7408  228.1930 H   0  0  0  0  0  0  0  0  0  0  0  0
  141.3960   69.2230  227.0110 C   0  0  0  0  0  0  0  0  0  0  0  0
  142.1979   69.5985  227.6637 H   0  0  0  0  0  0  0  0  0  0  0  0
  141.7882   68.4149  226.3760 H   0  0  0  0  0  0  0  0  0  0  0  0
  141.0265   70.0417  226.3760 H   0  0  0  0  0  0  0  0  0  0  0  0
  1  2  1  0
  2  3  1  0
  3  4  2  0
  4  5  1  0
  4  6  1  0
  6  7  2  0
  7  8  1  0
  7  9  1  0
  9 10  1  0
  9 11  2  0
 11 12  1  0
 12 13  2  0
 13 14  1  0
 14 15  2  0
 15 16  1  0
 16 17  2  0
 17 18  1  0
 17 19  1  0
 19 20  1  0
 19 21  2  0
 21 22  1  0
 21 23  1  0
 23 24  1  0
 23 25  2  0
 25 26  1  0
 15 27  1  0
 27 28  1  0
 27 29  2  0
 29 30  1  0
 29 31  1  0
 31 32  1  0
 11 33  1  0
 33 34  1  0
 33 35  2  0
 35 36  1  0
  3 37  1  0
 37 38  1  0
 37 39  1  0
 39 40  1  0
 39 41  1  0
 41 42  1  0
 41 43  1  0
 41 44  1  0
 39 45  1  0
 45 46  1  0
 45 47  1  0
 45 48  1  0
 35  6  1  0
 31 13  1  0
 25 16  1  0
M  END
>  <UniqueID>  (9) 
32

>  <SMILES>  (9) 
CC(C)N/C(O)=C\c1ccc(/N=c2\nc(-c3ccccc3)cc[nH]2)cc1

>  <Energy>  (9) 
61.51715273827357

>  <Genealogy>  (9) 
CC(C)NC(O)=Cc1ccc(N=c2nc(-c3ccccc3)cc[nH]2)cc1 (tautomer)
CC(C)N/C(O)=C\c1ccc(/N=c2\nc(-c3ccccc3)cc[nH]2)cc1 (cis-trans isomerization)
CC(C)N/C(O)=C\c1ccc(/N=c2\nc(-c3ccccc3)cc[nH]2)cc1 (3D coordinates assigned)
CC(C)N/C(O)=C\c1ccc(/N=c2\nc(-c3ccccc3)cc[nH]2)cc1 (optimized conformer: 61.51715273827357 kcal/mol)

>  <smiles>  (9) 
CC(C)NC(=O)Cc1ccc(N=c2nc(-c3ccccc3)cc[nH]2)cc1

>  <score_type>  (9) 
oracle

>  <origin>  (9) 
autodockgpu

>  <m_score__min__energy>  (9) 
-8.1099999999999994

>  <m_primary>  (9) 
energy

>  <meeko>  (9) 
{"free_energy": -7.94, "intermolecular_energy": -10.33, "internal_energy": -0.88, "cluster_size": 3, "cluster_id": 1, "rank_in_cluster": 2}

>  <energy>  (9) 
-7.69

>  <cluster_rmsd>  (9) 
0.5

>  <rmsd>  (9) 
269.98

>  <cluster>  (9) 
3

$$$$
DPVNRQFUFIRJCL-MTJUKBPRNA-N
     RDKit          3D

 48 50  0  0  0  0  0  0  0  0999 V2000
  141.5240   80.7650  218.9600 H   0  0  0  0  0  0  0  0  0  0  0  0
  141.8850   80.8630  219.9030 O   0  0  0  0  0  0  0  0  0  0  0  0
  141.6530   79.9060  220.8920 C   0  0  0  0  0  0  0  0  0  0  0  0
  140.6420   79.0340  220.7310 C   0  0  0  0  0  0  0  0  0  0  0  0
  139.6788   79.4301  220.3769 H   0  0  0  0  0  0  0  0  0  0  0  0
  140.7300   77.5820  220.9950 C   0  0  0  0  0  0  0  0  0  0  0  0
  141.7830   76.8060  220.4810 C   0  0  0  0  0  0  0  0  0  0  0  0
  142.5446   77.2737  219.8397 H   0  0  0  0  0  0  0  0  0  0  0  0
  141.8680   75.4440  220.7800 C   0  0  0  0  0  0  0  0  0  0  0  0
  142.6777   74.8393  220.3455 H   0  0  0  0  0  0  0  0  0  0  0  0
  140.9310   74.8430  221.6280 C   0  0  0  0  0  0  0  0  0  0  0  0
  141.0410   73.4330  221.8900 N   0  0  0  0  0  0  0  0  0  0  0  0
  140.2060   72.6950  222.5640 C   0  0  0  0  0  0  0  0  0  0  0  0
  140.5650   72.1370  223.7530 N   0  0  0  0  0  0  0  0  0  0  0  0
  139.7180   71.3450  224.4630 C   0  0  0  0  0  0  0  0  0  0  0  0
  140.1740   70.7740  225.7580 C   0  0  0  0  0  0  0  0  0  0  0  0
  140.0960   69.3910  226.0230 C   0  0  0  0  0  0  0  0  0  0  0  0
  139.6979   68.7099  225.2564 H   0  0  0  0  0  0  0  0  0  0  0  0
  140.5210   68.8790  227.2530 C   0  0  0  0  0  0  0  0  0  0  0  0
  140.4605   67.7981  227.4481 H   0  0  0  0  0  0  0  0  0  0  0  0
  141.0220   69.7370  228.2340 C   0  0  0  0  0  0  0  0  0  0  0  0
  141.3599   69.3314  229.1991 H   0  0  0  0  0  0  0  0  0  0  0  0
  141.0940   71.1090  227.9900 C   0  0  0  0  0  0  0  0  0  0  0  0
  141.4854   71.7841  228.7652 H   0  0  0  0  0  0  0  0  0  0  0  0
  140.6700   71.6280  226.7630 C   0  0  0  0  0  0  0  0  0  0  0  0
  140.7240   72.7115  226.5808 H   0  0  0  0  0  0  0  0  0  0  0  0
  138.4440   71.0780  223.9380 C   0  0  0  0  0  0  0  0  0  0  0  0
  137.7376   70.4334  224.4816 H   0  0  0  0  0  0  0  0  0  0  0  0
  138.0910   71.6450  222.7150 C   0  0  0  0  0  0  0  0  0  0  0  0
  137.0974   71.4490  222.2857 H   0  0  0  0  0  0  0  0  0  0  0  0
  138.9720   72.4400  222.0510 N   0  0  0  0  0  0  0  0  0  0  0  0
  138.6890   72.8510  221.1320 H   0  0  0  0  0  0  0  0  0  0  0  0
  139.8740   75.6180  222.1420 C   0  0  0  0  0  0  0  0  0  0  0  0
  139.1120   75.1494  222.7821 H   0  0  0  0  0  0  0  0  0  0  0  0
  139.7890   76.9810  221.8420 C   0  0  0  0  0  0  0  0  0  0  0  0
  138.9779   77.5858  222.2738 H   0  0  0  0  0  0  0  0  0  0  0  0
  142.5210   79.8530  222.0430 N   0  0  0  0  0  0  0  0  0  0  0  0
  143.5440   79.6970  221.9040 H   0  0  0  0  0  0  0  0  0  0  0  0
  142.0660   80.0210  223.4280 C   0  0  0  0  0  0  0  0  0  0  0  0
  142.8685   80.5252  223.9864 H   0  0  0  0  0  0  0  0  0  0  0  0
  141.8260   78.6650  224.1000 C   0  0  0  0  0  0  0  0  0  0  0  0
  141.8478   78.7884  225.1928 H   0  0  0  0  0  0  0  0  0  0  0  0
  140.8445   78.2731  223.7948 H   0  0  0  0  0  0  0  0  0  0  0  0
  142.6133   77.9601  223.7948 H   0  0  0  0  0  0  0  0  0  0  0  0
  140.8300   80.9240  223.5060 C   0  0  0  0  0  0  0  0  0  0  0  0
  140.5769   81.1089  224.5604 H   0  0  0  0  0  0  0  0  0  0  0  0
  141.0428   81.8808  223.0068 H   0  0  0  0  0  0  0  0  0  0  0  0
  139.9832   80.4304  223.0068 H   0  0  0  0  0  0  0  0  0  0  0  0
  1  2  1  0
  2  3  1  0
  3  4  2  0
  4  5  1  0
  4  6  1  0
  6  7  2  0
  7  8  1  0
  7  9  1  0
  9 10  1  0
  9 11  2  0
 11 12  1  0
 12 13  2  0
 13 14  1  0
 14 15  2  0
 15 16  1  0
 16 17  2  0
 17 18  1  0
 17 19  1  0
 19 20  1  0
 19 21  2  0
 21 22  1  0
 21 23  1  0
 23 24  1  0
 23 25  2  0
 25 26  1  0
 15 27  1  0
 27 28  1  0
 27 29  2  0
 29 30  1  0
 29 31  1  0
 31 32  1  0
 11 33  1  0
 33 34  1  0
 33 35  2  0
 35 36  1  0
  3 37  1  0
 37 38  1  0
 37 39  1  0
 39 40  1  0
 39 41  1  0
 41 42  1  0
 41 43  1  0
 41 44  1  0
 39 45  1  0
 45 46  1  0
 45 47  1  0
 45 48  1  0
 35  6  1  0
 31 13  1  0
 25 16  1  0
M  END
>  <UniqueID>  (10) 
32

>  <SMILES>  (10) 
CC(C)N/C(O)=C\c1ccc(/N=c2\nc(-c3ccccc3)cc[nH]2)cc1

>  <Energy>  (10) 
61.51715273827357

>  <Genealogy>  (10) 
CC(C)NC(O)=Cc1ccc(N=c2nc(-c3ccccc3)cc[nH]2)cc1 (tautomer)
CC(C)N/C(O)=C\c1ccc(/N=c2\nc(-c3ccccc3)cc[nH]2)cc1 (cis-trans isomerization)
CC(C)N/C(O)=C\c1ccc(/N=c2\nc(-c3ccccc3)cc[nH]2)cc1 (3D coordinates assigned)
CC(C)N/C(O)=C\c1ccc(/N=c2\nc(-c3ccccc3)cc[nH]2)cc1 (optimized conformer: 61.51715273827357 kcal/mol)

>  <smiles>  (10) 
CC(C)NC(=O)Cc1ccc(N=c2nc(-c3ccccc3)cc[nH]2)cc1

>  <score_type>  (10) 
oracle

>  <origin>  (10) 
autodockgpu

>  <m_score__min__energy>  (10) 
-8.1099999999999994

>  <m_primary>  (10) 
energy

>  <meeko>  (10) 
{"free_energy": -7.67, "intermolecular_energy": -10.06, "internal_energy": -1.05, "cluster_size": 12, "cluster_id": 3, "rank_in_cluster": 6}

>  <energy>  (10) 
-7.68

>  <cluster_rmsd>  (10) 
0.36

>  <rmsd>  (10) 
269.99

>  <cluster>  (10) 
3

$$$$
DPVNRQFUFIRJCL-MTJUKBPRNA-N
     RDKit          3D

 48 50  0  0  0  0  0  0  0  0999 V2000
  146.3160   74.0730  218.3320 H   0  0  0  0  0  0  0  0  0  0  0  0
  146.3250   73.0670  218.4590 O   0  0  0  0  0  0  0  0  0  0  0  0
  145.1920   72.3560  218.8560 C   0  0  0  0  0  0  0  0  0  0  0  0
  143.9770   72.8290  218.5270 C   0  0  0  0  0  0  0  0  0  0  0  0
  143.7320   72.9038  217.4572 H   0  0  0  0  0  0  0  0  0  0  0  0
  142.9460   73.2560  219.4970 C   0  0  0  0  0  0  0  0  0  0  0  0
  142.3130   74.5060  219.3920 C   0  0  0  0  0  0  0  0  0  0  0  0
  142.6078   75.2033  218.5939 H   0  0  0  0  0  0  0  0  0  0  0  0
  141.3110   74.8680  220.2960 C   0  0  0  0  0  0  0  0  0  0  0  0
  140.8454   75.8621  220.2251 H   0  0  0  0  0  0  0  0  0  0  0  0
  140.8950   73.9760  221.2910 C   0  0  0  0  0  0  0  0  0  0  0  0
  139.8780   74.3990  222.2160 N   0  0  0  0  0  0  0  0  0  0  0  0
  139.4150   75.6060  222.3720 C   0  0  0  0  0  0  0  0  0  0  0  0
  140.2560   76.6600  222.5610 N   0  0  0  0  0  0  0  0  0  0  0  0
  139.7950   77.9260  222.7480 C   0  0  0  0  0  0  0  0  0  0  0  0
  140.7700   79.0320  222.9410 C   0  0  0  0  0  0  0  0  0  0  0  0
  142.0840   78.9520  222.4350 C   0  0  0  0  0  0  0  0  0  0  0  0
  142.4010   78.0590  221.8763 H   0  0  0  0  0  0  0  0  0  0  0  0
  142.9870   80.0010  222.6390 C   0  0  0  0  0  0  0  0  0  0  0  0
  144.0078   79.9323  222.2351 H   0  0  0  0  0  0  0  0  0  0  0  0
  142.5960   81.1350  223.3540 C   0  0  0  0  0  0  0  0  0  0  0  0
  143.3069   81.9598  223.5097 H   0  0  0  0  0  0  0  0  0  0  0  0
  141.3020   81.2210  223.8710 C   0  0  0  0  0  0  0  0  0  0  0  0
  140.9957   82.1130  224.4372 H   0  0  0  0  0  0  0  0  0  0  0  0
  140.3940   80.1760  223.6710 C   0  0  0  0  0  0  0  0  0  0  0  0
  139.3783   80.2484  224.0872 H   0  0  0  0  0  0  0  0  0  0  0  0
  138.4080   78.1430  222.7710 C   0  0  0  0  0  0  0  0  0  0  0  0
  138.0008   79.1522  222.9310 H   0  0  0  0  0  0  0  0  0  0  0  0
  137.5570   77.0540  222.5870 C   0  0  0  0  0  0  0  0  0  0  0  0
  136.4670   77.2016  222.5998 H   0  0  0  0  0  0  0  0  0  0  0  0
  138.0700   75.8110  222.3920 N   0  0  0  0  0  0  0  0  0  0  0  0
  137.4140   75.0070  222.2630 H   0  0  0  0  0  0  0  0  0  0  0  0
  141.5300   72.7250  221.4000 C   0  0  0  0  0  0  0  0  0  0  0  0
  141.2364   72.0296  222.2002 H   0  0  0  0  0  0  0  0  0  0  0  0
  142.5330   72.3620  220.4950 C   0  0  0  0  0  0  0  0  0  0  0  0
  143.0006   71.3689  220.5668 H   0  0  0  0  0  0  0  0  0  0  0  0
  145.3500   71.1170  219.5760 N   0  0  0  0  0  0  0  0  0  0  0  0
  145.6560   71.1410  220.5740 H   0  0  0  0  0  0  0  0  0  0  0  0
  145.0940   69.7900  219.0030 C   0  0  0  0  0  0  0  0  0  0  0  0
  145.0518   69.8991  217.9092 H   0  0  0  0  0  0  0  0  0  0  0  0
  143.7380   69.2420  219.4600 C   0  0  0  0  0  0  0  0  0  0  0  0
  143.7003   69.2268  220.5593 H   0  0  0  0  0  0  0  0  0  0  0  0
  142.9336   69.8856  219.0744 H   0  0  0  0  0  0  0  0  0  0  0  0
  143.6067   68.2202  219.0744 H   0  0  0  0  0  0  0  0  0  0  0  0
  146.2360   68.8160  219.3150 C   0  0  0  0  0  0  0  0  0  0  0  0
  146.3485   68.7200  220.4050 H   0  0  0  0  0  0  0  0  0  0  0  0
  146.0066   67.8312  218.8819 H   0  0  0  0  0  0  0  0  0  0  0  0
  147.1723   69.1979  218.8819 H   0  0  0  0  0  0  0  0  0  0  0  0
  1  2  1  0
  2  3  1  0
  3  4  2  0
  4  5  1  0
  4  6  1  0
  6  7  2  0
  7  8  1  0
  7  9  1  0
  9 10  1  0
  9 11  2  0
 11 12  1  0
 12 13  2  0
 13 14  1  0
 14 15  2  0
 15 16  1  0
 16 17  2  0
 17 18  1  0
 17 19  1  0
 19 20  1  0
 19 21  2  0
 21 22  1  0
 21 23  1  0
 23 24  1  0
 23 25  2  0
 25 26  1  0
 15 27  1  0
 27 28  1  0
 27 29  2  0
 29 30  1  0
 29 31  1  0
 31 32  1  0
 11 33  1  0
 33 34  1  0
 33 35  2  0
 35 36  1  0
  3 37  1  0
 37 38  1  0
 37 39  1  0
 39 40  1  0
 39 41  1  0
 41 42  1  0
 41 43  1  0
 41 44  1  0
 39 45  1  0
 45 46  1  0
 45 47  1  0
 45 48  1  0
 35  6  1  0
 31 13  1  0
 25 16  1  0
M  END
>  <UniqueID>  (11) 
32

>  <SMILES>  (11) 
CC(C)N/C(O)=C\c1ccc(/N=c2\nc(-c3ccccc3)cc[nH]2)cc1

>  <Energy>  (11) 
61.51715273827357

>  <Genealogy>  (11) 
CC(C)NC(O)=Cc1ccc(N=c2nc(-c3ccccc3)cc[nH]2)cc1 (tautomer)
CC(C)N/C(O)=C\c1ccc(/N=c2\nc(-c3ccccc3)cc[nH]2)cc1 (cis-trans isomerization)
CC(C)N/C(O)=C\c1ccc(/N=c2\nc(-c3ccccc3)cc[nH]2)cc1 (3D coordinates assigned)
CC(C)N/C(O)=C\c1ccc(/N=c2\nc(-c3ccccc3)cc[nH]2)cc1 (optimized conformer: 61.51715273827357 kcal/mol)

>  <smiles>  (11) 
CC(C)NC(=O)Cc1ccc(N=c2nc(-c3ccccc3)cc[nH]2)cc1

>  <score_type>  (11) 
oracle

>  <origin>  (11) 
autodockgpu

>  <m_score__min__energy>  (11) 
-8.1099999999999994

>  <m_primary>  (11) 
energy

>  <meeko>  (11) 
{"free_energy": -7.46, "intermolecular_energy": -9.84, "internal_energy": -0.97, "cluster_size": 2, "cluster_id": 4, "rank_in_cluster": 2}

>  <energy>  (11) 
-7.67

>  <cluster_rmsd>  (11) 
0.28

>  <rmsd>  (11) 
269.97

>  <cluster>  (11) 
3

$$$$
DPVNRQFUFIRJCL-MTJUKBPRNA-N
     RDKit          3D

 48 50  0  0  0  0  0  0  0  0999 V2000
  146.7450   74.3560  219.2710 H   0  0  0  0  0  0  0  0  0  0  0  0
  146.7100   73.4050  218.9220 O   0  0  0  0  0  0  0  0  0  0  0  0
  145.5710   72.6080  219.0440 C   0  0  0  0  0  0  0  0  0  0  0  0
  144.3680   73.1440  218.7700 C   0  0  0  0  0  0  0  0  0  0  0  0
  144.2290   73.6051  217.7810 H   0  0  0  0  0  0  0  0  0  0  0  0
  143.2190   73.1590  219.7000 C   0  0  0  0  0  0  0  0  0  0  0  0
  142.7620   71.9840  220.3190 C   0  0  0  0  0  0  0  0  0  0  0  0
  143.2419   71.0217  220.0871 H   0  0  0  0  0  0  0  0  0  0  0  0
  141.7010   72.0300  221.2280 C   0  0  0  0  0  0  0  0  0  0  0  0
  141.3289   71.0991  221.6807 H   0  0  0  0  0  0  0  0  0  0  0  0
  141.1090   73.2520  221.5660 C   0  0  0  0  0  0  0  0  0  0  0  0
  140.0030   73.2520  222.4860 N   0  0  0  0  0  0  0  0  0  0  0  0
  139.4430   72.2130  223.0360 C   0  0  0  0  0  0  0  0  0  0  0  0
  139.9520   71.6600  224.1710 N   0  0  0  0  0  0  0  0  0  0  0  0
  139.3970   70.5610  224.7500 C   0  0  0  0  0  0  0  0  0  0  0  0
  140.0010   70.0140  225.9940 C   0  0  0  0  0  0  0  0  0  0  0  0
  140.0490   68.6270  226.2420 C   0  0  0  0  0  0  0  0  0  0  0  0
  139.6409   67.9248  225.5001 H   0  0  0  0  0  0  0  0  0  0  0  0
  140.6120   68.1380  227.4250 C   0  0  0  0  0  0  0  0  0  0  0  0
  140.6485   67.0539  227.6078 H   0  0  0  0  0  0  0  0  0  0  0  0
  141.1280   69.0220  228.3750 C   0  0  0  0  0  0  0  0  0  0  0  0
  141.5753   68.6339  229.3020 H   0  0  0  0  0  0  0  0  0  0  0  0
  141.0760   70.3980  228.1480 C   0  0  0  0  0  0  0  0  0  0  0  0
  141.4784   71.0939  228.8989 H   0  0  0  0  0  0  0  0  0  0  0  0
  140.5130   70.8940  226.9670 C   0  0  0  0  0  0  0  0  0  0  0  0
  140.4700   71.9800  226.7972 H   0  0  0  0  0  0  0  0  0  0  0  0
  138.2810   69.9690  224.1400 C   0  0  0  0  0  0  0  0  0  0  0  0
  137.8135   69.0735  224.5754 H   0  0  0  0  0  0  0  0  0  0  0  0
  137.7760   70.5370  222.9720 C   0  0  0  0  0  0  0  0  0  0  0  0
  136.9012   70.0889  222.4782 H   0  0  0  0  0  0  0  0  0  0  0  0
  138.3610   71.6430  222.4410 N   0  0  0  0  0  0  0  0  0  0  0  0
  137.9700   72.0490  221.5600 H   0  0  0  0  0  0  0  0  0  0  0  0
  141.5630   74.4310  220.9440 C   0  0  0  0  0  0  0  0  0  0  0  0
  141.0810   75.3927  221.1737 H   0  0  0  0  0  0  0  0  0  0  0  0
  142.6250   74.3830  220.0350 C   0  0  0  0  0  0  0  0  0  0  0  0
  142.9966   75.3129  219.5798 H   0  0  0  0  0  0  0  0  0  0  0  0
  145.7120   71.2250  219.4260 N   0  0  0  0  0  0  0  0  0  0  0  0
  145.9180   70.9880  220.4220 H   0  0  0  0  0  0  0  0  0  0  0  0
  145.5700   70.0940  218.5010 C   0  0  0  0  0  0  0  0  0  0  0  0
  146.2516   70.2647  217.6547 H   0  0  0  0  0  0  0  0  0  0  0  0
  144.1500   70.0180  217.9320 C   0  0  0  0  0  0  0  0  0  0  0  0
  143.4253   69.9792  218.7587 H   0  0  0  0  0  0  0  0  0  0  0  0
  143.9544   70.9070  217.3144 H   0  0  0  0  0  0  0  0  0  0  0  0
  144.0504   69.1132  217.3144 H   0  0  0  0  0  0  0  0  0  0  0  0
  145.9930   68.7760  219.1600 C   0  0  0  0  0  0  0  0  0  0  0  0
  145.9579   68.8852  220.2540 H   0  0  0  0  0  0  0  0  0  0  0  0
  145.3071   67.9741  218.8494 H   0  0  0  0  0  0  0  0  0  0  0  0
  147.0175   68.5230  218.8494 H   0  0  0  0  0  0  0  0  0  0  0  0
  1  2  1  0
  2  3  1  0
  3  4  2  0
  4  5  1  0
  4  6  1  0
  6  7  2  0
  7  8  1  0
  7  9  1  0
  9 10  1  0
  9 11  2  0
 11 12  1  0
 12 13  2  0
 13 14  1  0
 14 15  2  0
 15 16  1  0
 16 17  2  0
 17 18  1  0
 17 19  1  0
 19 20  1  0
 19 21  2  0
 21 22  1  0
 21 23  1  0
 23 24  1  0
 23 25  2  0
 25 26  1  0
 15 27  1  0
 27 28  1  0
 27 29  2  0
 29 30  1  0
 29 31  1  0
 31 32  1  0
 11 33  1  0
 33 34  1  0
 33 35  2  0
 35 36  1  0
  3 37  1  0
 37 38  1  0
 37 39  1  0
 39 40  1  0
 39 41  1  0
 41 42  1  0
 41 43  1  0
 41 44  1  0
 39 45  1  0
 45 46  1  0
 45 47  1  0
 45 48  1  0
 35  6  1  0
 31 13  1  0
 25 16  1  0
M  END
>  <UniqueID>  (12) 
32

>  <SMILES>  (12) 
CC(C)N/C(O)=C\c1ccc(/N=c2\nc(-c3ccccc3)cc[nH]2)cc1

>  <Energy>  (12) 
61.51715273827357

>  <Genealogy>  (12) 
CC(C)NC(O)=Cc1ccc(N=c2nc(-c3ccccc3)cc[nH]2)cc1 (tautomer)
CC(C)N/C(O)=C\c1ccc(/N=c2\nc(-c3ccccc3)cc[nH]2)cc1 (cis-trans isomerization)
CC(C)N/C(O)=C\c1ccc(/N=c2\nc(-c3ccccc3)cc[nH]2)cc1 (3D coordinates assigned)
CC(C)N/C(O)=C\c1ccc(/N=c2\nc(-c3ccccc3)cc[nH]2)cc1 (optimized conformer: 61.51715273827357 kcal/mol)

>  <smiles>  (12) 
CC(C)NC(=O)Cc1ccc(N=c2nc(-c3ccccc3)cc[nH]2)cc1

>  <score_type>  (12) 
oracle

>  <origin>  (12) 
autodockgpu

>  <m_score__min__energy>  (12) 
-8.1099999999999994

>  <m_primary>  (12) 
energy

>  <meeko>  (12) 
{"free_energy": -7.79, "intermolecular_energy": -10.17, "internal_energy": -0.9, "cluster_size": 2, "cluster_id": 2, "rank_in_cluster": 1}

>  <energy>  (12) 
-7.66

>  <cluster_rmsd>  (12) 
0.41

>  <rmsd>  (12) 
270.04

>  <cluster>  (12) 
3

$$$$
DPVNRQFUFIRJCL-MTJUKBPRNA-N
     RDKit          3D

 48 50  0  0  0  0  0  0  0  0999 V2000
  140.2950   81.3440  219.9310 H   0  0  0  0  0  0  0  0  0  0  0  0
  141.0080   81.1430  220.6230 O   0  0  0  0  0  0  0  0  0  0  0  0
  141.3090   79.8410  221.0250 C   0  0  0  0  0  0  0  0  0  0  0  0
  140.6250   78.8170  220.4840 C   0  0  0  0  0  0  0  0  0  0  0  0
  139.9143   79.0488  219.6770 H   0  0  0  0  0  0  0  0  0  0  0  0
  140.7580   77.4030  220.8940 C   0  0  0  0  0  0  0  0  0  0  0  0
  139.8170   76.7940  221.7420 C   0  0  0  0  0  0  0  0  0  0  0  0
  138.9786   77.3833  222.1417 H   0  0  0  0  0  0  0  0  0  0  0  0
  139.9410   75.4440  222.0800 C   0  0  0  0  0  0  0  0  0  0  0  0
  139.2184   74.9860  222.7714 H   0  0  0  0  0  0  0  0  0  0  0  0
  140.9770   74.6700  221.5460 C   0  0  0  0  0  0  0  0  0  0  0  0
  141.0810   73.2900  221.9400 N   0  0  0  0  0  0  0  0  0  0  0  0
  140.2150   72.6060  222.6310 C   0  0  0  0  0  0  0  0  0  0  0  0
  140.5630   72.0210  223.8100 N   0  0  0  0  0  0  0  0  0  0  0  0
  139.6810   71.2840  224.5380 C   0  0  0  0  0  0  0  0  0  0  0  0
  140.1270   70.6790  225.8210 C   0  0  0  0  0  0  0  0  0  0  0  0
  140.0100   69.2950  226.0630 C   0  0  0  0  0  0  0  0  0  0  0  0
  139.5883   68.6382  225.2879 H   0  0  0  0  0  0  0  0  0  0  0  0
  140.4270   68.7520  227.2830 C   0  0  0  0  0  0  0  0  0  0  0  0
  140.3361   67.6703  227.4611 H   0  0  0  0  0  0  0  0  0  0  0  0
  140.9580   69.5780  228.2750 C   0  0  0  0  0  0  0  0  0  0  0  0
  141.2894   69.1471  229.2313 H   0  0  0  0  0  0  0  0  0  0  0  0
  141.0680   70.9520  228.0520 C   0  0  0  0  0  0  0  0  0  0  0  0
  141.4824   71.6034  228.8356 H   0  0  0  0  0  0  0  0  0  0  0  0
  140.6530   71.5020  226.8360 C   0  0  0  0  0  0  0  0  0  0  0  0
  140.7378   72.5861  226.6703 H   0  0  0  0  0  0  0  0  0  0  0  0
  138.3810   71.1030  224.0400 C   0  0  0  0  0  0  0  0  0  0  0  0
  137.6458   70.5031  224.5965 H   0  0  0  0  0  0  0  0  0  0  0  0
  138.0400   71.6980  222.8270 C   0  0  0  0  0  0  0  0  0  0  0  0
  137.0260   71.5708  222.4200 H   0  0  0  0  0  0  0  0  0  0  0  0
  138.9560   72.4350  222.1450 N   0  0  0  0  0  0  0  0  0  0  0  0
  138.6810   72.8670  221.2340 H   0  0  0  0  0  0  0  0  0  0  0  0
  141.9210   75.2780  220.6990 C   0  0  0  0  0  0  0  0  0  0  0  0
  142.7598   74.6880  220.3012 H   0  0  0  0  0  0  0  0  0  0  0  0
  141.7980   76.6300  220.3600 C   0  0  0  0  0  0  0  0  0  0  0  0
  142.5218   77.0888  219.6704 H   0  0  0  0  0  0  0  0  0  0  0  0
  142.3660   79.6220  221.9810 N   0  0  0  0  0  0  0  0  0  0  0  0
  143.3350   79.4370  221.6380 H   0  0  0  0  0  0  0  0  0  0  0  0
  142.1820   79.6530  223.4370 C   0  0  0  0  0  0  0  0  0  0  0  0
  142.6958   78.7771  223.8598 H   0  0  0  0  0  0  0  0  0  0  0  0
  140.7020   79.5350  223.8110 C   0  0  0  0  0  0  0  0  0  0  0  0
  140.6001   79.5269  224.9062 H   0  0  0  0  0  0  0  0  0  0  0  0
  140.1499   80.3920  223.3977 H   0  0  0  0  0  0  0  0  0  0  0  0
  140.2927   78.6014  223.3977 H   0  0  0  0  0  0  0  0  0  0  0  0
  142.8300   80.8970  224.0550 C   0  0  0  0  0  0  0  0  0  0  0  0
  142.7918   80.8237  225.1519 H   0  0  0  0  0  0  0  0  0  0  0  0
  143.8782   80.9651  223.7283 H   0  0  0  0  0  0  0  0  0  0  0  0
  142.2850   81.7949  223.7283 H   0  0  0  0  0  0  0  0  0  0  0  0
  1  2  1  0
  2  3  1  0
  3  4  2  0
  4  5  1  0
  4  6  1  0
  6  7  2  0
  7  8  1  0
  7  9  1  0
  9 10  1  0
  9 11  2  0
 11 12  1  0
 12 13  2  0
 13 14  1  0
 14 15  2  0
 15 16  1  0
 16 17  2  0
 17 18  1  0
 17 19  1  0
 19 20  1  0
 19 21  2  0
 21 22  1  0
 21 23  1  0
 23 24  1  0
 23 25  2  0
 25 26  1  0
 15 27  1  0
 27 28  1  0
 27 29  2  0
 29 30  1  0
 29 31  1  0
 31 32  1  0
 11 33  1  0
 33 34  1  0
 33 35  2  0
 35 36  1  0
  3 37  1  0
 37 38  1  0
 37 39  1  0
 39 40  1  0
 39 41  1  0
 41 42  1  0
 41 43  1  0
 41 44  1  0
 39 45  1  0
 45 46  1  0
 45 47  1  0
 45 48  1  0
 35  6  1  0
 31 13  1  0
 25 16  1  0
M  END
>  <UniqueID>  (13) 
32

>  <SMILES>  (13) 
CC(C)N/C(O)=C\c1ccc(/N=c2\nc(-c3ccccc3)cc[nH]2)cc1

>  <Energy>  (13) 
61.51715273827357

>  <Genealogy>  (13) 
CC(C)NC(O)=Cc1ccc(N=c2nc(-c3ccccc3)cc[nH]2)cc1 (tautomer)
CC(C)N/C(O)=C\c1ccc(/N=c2\nc(-c3ccccc3)cc[nH]2)cc1 (cis-trans isomerization)
CC(C)N/C(O)=C\c1ccc(/N=c2\nc(-c3ccccc3)cc[nH]2)cc1 (3D coordinates assigned)
CC(C)N/C(O)=C\c1ccc(/N=c2\nc(-c3ccccc3)cc[nH]2)cc1 (optimized conformer: 61.51715273827357 kcal/mol)

>  <smiles>  (13) 
CC(C)NC(=O)Cc1ccc(N=c2nc(-c3ccccc3)cc[nH]2)cc1

>  <score_type>  (13) 
oracle

>  <origin>  (13) 
autodockgpu

>  <m_score__min__energy>  (13) 
-8.1099999999999994

>  <m_primary>  (13) 
energy

>  <meeko>  (13) 
{"free_energy": -7.69, "intermolecular_energy": -10.08, "internal_energy": -0.99, "cluster_size": 12, "cluster_id": 3, "rank_in_cluster": 4}

>  <energy>  (13) 
-7.6

>  <cluster_rmsd>  (13) 
0.55

>  <rmsd>  (13) 
270.0

>  <cluster>  (13) 
3

$$$$
DPVNRQFUFIRJCL-MTJUKBPRNA-N
     RDKit          3D

 48 50  0  0  0  0  0  0  0  0999 V2000
  137.8300   81.4450  223.5510 H   0  0  0  0  0  0  0  0  0  0  0  0
  138.5030   80.9230  224.1000 O   0  0  0  0  0  0  0  0  0  0  0  0
  139.3520   79.9730  223.5310 C   0  0  0  0  0  0  0  0  0  0  0  0
  138.8550   79.1170  222.6200 C   0  0  0  0  0  0  0  0  0  0  0  0
  138.0578   79.4847  221.9572 H   0  0  0  0  0  0  0  0  0  0  0  0
  139.3010   77.7190  222.4440 C   0  0  0  0  0  0  0  0  0  0  0  0
  138.3960   76.6470  222.5100 C   0  0  0  0  0  0  0  0  0  0  0  0
  137.3356   76.8393  222.7306 H   0  0  0  0  0  0  0  0  0  0  0  0
  138.8350   75.3370  222.2970 C   0  0  0  0  0  0  0  0  0  0  0  0
  138.1243   74.5020  222.3847 H   0  0  0  0  0  0  0  0  0  0  0  0
  140.1720   75.0800  221.9730 C   0  0  0  0  0  0  0  0  0  0  0  0
  140.5870   73.7160  221.7860 N   0  0  0  0  0  0  0  0  0  0  0  0
  140.0570   72.6560  222.3260 C   0  0  0  0  0  0  0  0  0  0  0  0
  140.3480   72.3020  223.6080 N   0  0  0  0  0  0  0  0  0  0  0  0
  139.8230   71.1880  224.1860 C   0  0  0  0  0  0  0  0  0  0  0  0
  140.1780   70.8660  225.5940 C   0  0  0  0  0  0  0  0  0  0  0  0
  140.7140   71.8410  226.4610 C   0  0  0  0  0  0  0  0  0  0  0  0
  140.8686   72.8683  226.0993 H   0  0  0  0  0  0  0  0  0  0  0  0
  141.0500   71.5100  227.7770 C   0  0  0  0  0  0  0  0  0  0  0  0
  141.4624   72.2785  228.4473 H   0  0  0  0  0  0  0  0  0  0  0  0
  140.8640   70.2080  228.2430 C   0  0  0  0  0  0  0  0  0  0  0  0
  141.1247   69.9525  229.2807 H   0  0  0  0  0  0  0  0  0  0  0  0
  140.3470   69.2300  227.3920 C   0  0  0  0  0  0  0  0  0  0  0  0
  140.2051   68.2027  227.7589 H   0  0  0  0  0  0  0  0  0  0  0  0
  140.0090   69.5530  226.0740 C   0  0  0  0  0  0  0  0  0  0  0  0
  139.6081   68.7755  225.4072 H   0  0  0  0  0  0  0  0  0  0  0  0
  138.9770   70.3680  223.4240 C   0  0  0  0  0  0  0  0  0  0  0  0
  138.5439   69.4539  223.8562 H   0  0  0  0  0  0  0  0  0  0  0  0
  138.6960   70.7340  222.1090 C   0  0  0  0  0  0  0  0  0  0  0  0
  138.0345   70.1055  221.4947 H   0  0  0  0  0  0  0  0  0  0  0  0
  139.2360   71.8640  221.5830 N   0  0  0  0  0  0  0  0  0  0  0  0
  139.0170   72.1170  220.5930 H   0  0  0  0  0  0  0  0  0  0  0  0
  141.0810   76.1530  221.9090 C   0  0  0  0  0  0  0  0  0  0  0  0
  142.1417   75.9601  221.6905 H   0  0  0  0  0  0  0  0  0  0  0  0
  140.6410   77.4630  222.1220 C   0  0  0  0  0  0  0  0  0  0  0  0
  141.3514   78.2985  222.0363 H   0  0  0  0  0  0  0  0  0  0  0  0
  140.7450   79.9540  223.9040 N   0  0  0  0  0  0  0  0  0  0  0  0
  141.0800   79.2410  224.5890 H   0  0  0  0  0  0  0  0  0  0  0  0
  141.7560   80.8740  223.3700 C   0  0  0  0  0  0  0  0  0  0  0  0
  141.9790   81.6175  224.1494 H   0  0  0  0  0  0  0  0  0  0  0  0
  141.2230   81.6360  222.1530 C   0  0  0  0  0  0  0  0  0  0  0  0
  140.6231   82.4937  222.4913 H   0  0  0  0  0  0  0  0  0  0  0  0
  142.0675   81.9956  221.5468 H   0  0  0  0  0  0  0  0  0  0  0  0
  140.5956   80.9660  221.5468 H   0  0  0  0  0  0  0  0  0  0  0  0
  143.0670   80.1440  223.0570 C   0  0  0  0  0  0  0  0  0  0  0  0
  143.5656   79.8664  223.9974 H   0  0  0  0  0  0  0  0  0  0  0  0
  142.8512   79.2362  222.4745 H   0  0  0  0  0  0  0  0  0  0  0  0
  143.7250   80.8056  222.4745 H   0  0  0  0  0  0  0  0  0  0  0  0
  1  2  1  0
  2  3  1  0
  3  4  2  0
  4  5  1  0
  4  6  1  0
  6  7  2  0
  7  8  1  0
  7  9  1  0
  9 10  1  0
  9 11  2  0
 11 12  1  0
 12 13  2  0
 13 14  1  0
 14 15  2  0
 15 16  1  0
 16 17  2  0
 17 18  1  0
 17 19  1  0
 19 20  1  0
 19 21  2  0
 21 22  1  0
 21 23  1  0
 23 24  1  0
 23 25  2  0
 25 26  1  0
 15 27  1  0
 27 28  1  0
 27 29  2  0
 29 30  1  0
 29 31  1  0
 31 32  1  0
 11 33  1  0
 33 34  1  0
 33 35  2  0
 35 36  1  0
  3 37  1  0
 37 38  1  0
 37 39  1  0
 39 40  1  0
 39 41  1  0
 41 42  1  0
 41 43  1  0
 41 44  1  0
 39 45  1  0
 45 46  1  0
 45 47  1  0
 45 48  1  0
 35  6  1  0
 31 13  1  0
 25 16  1  0
M  END
>  <UniqueID>  (14) 
32

>  <SMILES>  (14) 
CC(C)N/C(O)=C\c1ccc(/N=c2\nc(-c3ccccc3)cc[nH]2)cc1

>  <Energy>  (14) 
61.51715273827357

>  <Genealogy>  (14) 
CC(C)NC(O)=Cc1ccc(N=c2nc(-c3ccccc3)cc[nH]2)cc1 (tautomer)
CC(C)N/C(O)=C\c1ccc(/N=c2\nc(-c3ccccc3)cc[nH]2)cc1 (cis-trans isomerization)
CC(C)N/C(O)=C\c1ccc(/N=c2\nc(-c3ccccc3)cc[nH]2)cc1 (3D coordinates assigned)
CC(C)N/C(O)=C\c1ccc(/N=c2\nc(-c3ccccc3)cc[nH]2)cc1 (optimized conformer: 61.51715273827357 kcal/mol)

>  <smiles>  (14) 
CC(C)NC(=O)Cc1ccc(N=c2nc(-c3ccccc3)cc[nH]2)cc1

>  <score_type>  (14) 
oracle

>  <origin>  (14) 
autodockgpu

>  <m_score__min__energy>  (14) 
-8.1099999999999994

>  <m_primary>  (14) 
energy

>  <meeko>  (14) 
{"free_energy": -7.44, "intermolecular_energy": -9.83, "internal_energy": -0.97, "cluster_size": 1, "cluster_id": 5, "rank_in_cluster": 1}

>  <energy>  (14) 
-7.52

>  <cluster_rmsd>  (14) 
0.42

>  <rmsd>  (14) 
269.98

>  <cluster>  (14) 
3

$$$$
DPVNRQFUFIRJCL-MTJUKBPRNA-N
     RDKit          3D

 48 50  0  0  0  0  0  0  0  0999 V2000
  143.0230   79.9640  218.8410 H   0  0  0  0  0  0  0  0  0  0  0  0
  142.2840   80.3230  219.4360 O   0  0  0  0  0  0  0  0  0  0  0  0
  141.8250   79.6280  220.5560 C   0  0  0  0  0  0  0  0  0  0  0  0
  140.8100   78.7580  220.4130 C   0  0  0  0  0  0  0  0  0  0  0  0
  139.8335   79.1602  220.1053 H   0  0  0  0  0  0  0  0  0  0  0  0
  140.9100   77.3000  220.6390 C   0  0  0  0  0  0  0  0  0  0  0  0
  141.7460   76.4920  219.8500 C   0  0  0  0  0  0  0  0  0  0  0  0
  142.3166   76.9386  219.0224 H   0  0  0  0  0  0  0  0  0  0  0  0
  141.8560   75.1230  220.1120 C   0  0  0  0  0  0  0  0  0  0  0  0
  142.4866   74.4930  219.4675 H   0  0  0  0  0  0  0  0  0  0  0  0
  141.1700   74.5480  221.1880 C   0  0  0  0  0  0  0  0  0  0  0  0
  141.2920   73.1320  221.4060 N   0  0  0  0  0  0  0  0  0  0  0  0
  140.4810   72.3720  222.0850 C   0  0  0  0  0  0  0  0  0  0  0  0
  140.7000   72.1130  223.4030 N   0  0  0  0  0  0  0  0  0  0  0  0
  139.8790   71.3050  224.1260 C   0  0  0  0  0  0  0  0  0  0  0  0
  140.1740   71.0710  225.5640 C   0  0  0  0  0  0  0  0  0  0  0  0
  140.9900   71.9540  226.3020 C   0  0  0  0  0  0  0  0  0  0  0  0
  141.4151   72.8430  225.8131 H   0  0  0  0  0  0  0  0  0  0  0  0
  141.2620   71.7060  227.6520 C   0  0  0  0  0  0  0  0  0  0  0  0
  141.8949   72.4029  228.2210 H   0  0  0  0  0  0  0  0  0  0  0  0
  140.7320   70.5760  228.2790 C   0  0  0  0  0  0  0  0  0  0  0  0
  140.9437   70.3863  229.3416 H   0  0  0  0  0  0  0  0  0  0  0  0
  139.9340   69.6880  227.5570 C   0  0  0  0  0  0  0  0  0  0  0  0
  139.5208   68.7961  228.0507 H   0  0  0  0  0  0  0  0  0  0  0  0
  139.6580   69.9290  226.2070 C   0  0  0  0  0  0  0  0  0  0  0  0
  139.0330   69.2210  225.6431 H   0  0  0  0  0  0  0  0  0  0  0  0
  138.7870   70.7020  223.4810 C   0  0  0  0  0  0  0  0  0  0  0  0
  138.1090   70.0341  224.0326 H   0  0  0  0  0  0  0  0  0  0  0  0
  138.5790   70.9660  222.1290 C   0  0  0  0  0  0  0  0  0  0  0  0
  137.7284   70.5056  221.6050 H   0  0  0  0  0  0  0  0  0  0  0  0
  139.4240   71.7910  221.4550 N   0  0  0  0  0  0  0  0  0  0  0  0
  139.2530   71.9710  220.4390 H   0  0  0  0  0  0  0  0  0  0  0  0
  140.3310   75.3560  221.9770 C   0  0  0  0  0  0  0  0  0  0  0  0
  139.7597   74.9087  222.8038 H   0  0  0  0  0  0  0  0  0  0  0  0
  140.2200   76.7250  221.7150 C   0  0  0  0  0  0  0  0  0  0  0  0
  139.5871   77.3548  222.3575 H   0  0  0  0  0  0  0  0  0  0  0  0
  142.4710   79.8340  221.8290 N   0  0  0  0  0  0  0  0  0  0  0  0
  143.5130   79.8770  221.8720 H   0  0  0  0  0  0  0  0  0  0  0  0
  141.7560   80.0050  223.0990 C   0  0  0  0  0  0  0  0  0  0  0  0
  140.6936   80.1693  222.8662 H   0  0  0  0  0  0  0  0  0  0  0  0
  142.2550   81.2420  223.8530 C   0  0  0  0  0  0  0  0  0  0  0  0
  142.1835   81.0647  224.9363 H   0  0  0  0  0  0  0  0  0  0  0  0
  143.3028   81.4387  223.5820 H   0  0  0  0  0  0  0  0  0  0  0  0
  141.6370   82.1107  223.5820 H   0  0  0  0  0  0  0  0  0  0  0  0
  141.8370   78.7410  223.9620 C   0  0  0  0  0  0  0  0  0  0  0  0
  141.8190   79.0214  225.0255 H   0  0  0  0  0  0  0  0  0  0  0  0
  140.9788   78.0898  223.7399 H   0  0  0  0  0  0  0  0  0  0  0  0
  142.7714   78.2047  223.7399 H   0  0  0  0  0  0  0  0  0  0  0  0
  1  2  1  0
  2  3  1  0
  3  4  2  0
  4  5  1  0
  4  6  1  0
  6  7  2  0
  7  8  1  0
  7  9  1  0
  9 10  1  0
  9 11  2  0
 11 12  1  0
 12 13  2  0
 13 14  1  0
 14 15  2  0
 15 16  1  0
 16 17  2  0
 17 18  1  0
 17 19  1  0
 19 20  1  0
 19 21  2  0
 21 22  1  0
 21 23  1  0
 23 24  1  0
 23 25  2  0
 25 26  1  0
 15 27  1  0
 27 28  1  0
 27 29  2  0
 29 30  1  0
 29 31  1  0
 31 32  1  0
 11 33  1  0
 33 34  1  0
 33 35  2  0
 35 36  1  0
  3 37  1  0
 37 38  1  0
 37 39  1  0
 39 40  1  0
 39 41  1  0
 41 42  1  0
 41 43  1  0
 41 44  1  0
 39 45  1  0
 45 46  1  0
 45 47  1  0
 45 48  1  0
 35  6  1  0
 31 13  1  0
 25 16  1  0
M  END
>  <UniqueID>  (15) 
32

>  <SMILES>  (15) 
CC(C)N/C(O)=C\c1ccc(/N=c2\nc(-c3ccccc3)cc[nH]2)cc1

>  <Energy>  (15) 
61.51715273827357

>  <Genealogy>  (15) 
CC(C)NC(O)=Cc1ccc(N=c2nc(-c3ccccc3)cc[nH]2)cc1 (tautomer)
CC(C)N/C(O)=C\c1ccc(/N=c2\nc(-c3ccccc3)cc[nH]2)cc1 (cis-trans isomerization)
CC(C)N/C(O)=C\c1ccc(/N=c2\nc(-c3ccccc3)cc[nH]2)cc1 (3D coordinates assigned)
CC(C)N/C(O)=C\c1ccc(/N=c2\nc(-c3ccccc3)cc[nH]2)cc1 (optimized conformer: 61.51715273827357 kcal/mol)

>  <smiles>  (15) 
CC(C)NC(=O)Cc1ccc(N=c2nc(-c3ccccc3)cc[nH]2)cc1

>  <score_type>  (15) 
oracle

>  <origin>  (15) 
autodockgpu

>  <m_score__min__energy>  (15) 
-8.1099999999999994

>  <m_primary>  (15) 
energy

>  <meeko>  (15) 
{"free_energy": -7.29, "intermolecular_energy": -9.67, "internal_energy": -0.97, "cluster_size": 12, "cluster_id": 3, "rank_in_cluster": 11}

>  <energy>  (15) 
-7.41

>  <cluster_rmsd>  (15) 
1.92

>  <rmsd>  (15) 
270.09

>  <cluster>  (15) 
3

$$$$
DPVNRQFUFIRJCL-MTJUKBPRNA-N
     RDKit          3D

 48 50  0  0  0  0  0  0  0  0999 V2000
  139.9210   78.0800  219.9300 H   0  0  0  0  0  0  0  0  0  0  0  0
  140.8660   78.3850  220.1340 O   0  0  0  0  0  0  0  0  0  0  0  0
  141.3040   78.6340  221.4360 C   0  0  0  0  0  0  0  0  0  0  0  0
  141.0600   77.7190  222.3910 C   0  0  0  0  0  0  0  0  0  0  0  0
  141.2204   78.0194  223.4370 H   0  0  0  0  0  0  0  0  0  0  0  0
  140.5920   76.3390  222.1390 C   0  0  0  0  0  0  0  0  0  0  0  0
  139.2970   75.9280  222.4950 C   0  0  0  0  0  0  0  0  0  0  0  0
  138.6200   76.6307  223.0029 H   0  0  0  0  0  0  0  0  0  0  0  0
  138.8640   74.6300  222.2070 C   0  0  0  0  0  0  0  0  0  0  0  0
  137.8603   74.3071  222.5205 H   0  0  0  0  0  0  0  0  0  0  0  0
  139.6980   73.7390  221.5230 C   0  0  0  0  0  0  0  0  0  0  0  0
  139.2220   72.4060  221.2680 N   0  0  0  0  0  0  0  0  0  0  0  0
  139.1970   71.4100  222.1090 C   0  0  0  0  0  0  0  0  0  0  0  0
  139.6010   71.5720  223.3990 N   0  0  0  0  0  0  0  0  0  0  0  0
  139.6040   70.5420  224.2870 C   0  0  0  0  0  0  0  0  0  0  0  0
  140.0520   70.7910  225.6830 C   0  0  0  0  0  0  0  0  0  0  0  0
  139.6460   69.9580  226.7470 C   0  0  0  0  0  0  0  0  0  0  0  0
  138.9905   69.0974  226.5481 H   0  0  0  0  0  0  0  0  0  0  0  0
  140.0720   70.2200  228.0530 C   0  0  0  0  0  0  0  0  0  0  0  0
  139.7547   69.5623  228.8756 H   0  0  0  0  0  0  0  0  0  0  0  0
  140.8990   71.3140  228.3160 C   0  0  0  0  0  0  0  0  0  0  0  0
  141.2359   71.5143  229.3438 H   0  0  0  0  0  0  0  0  0  0  0  0
  141.2980   72.1530  227.2750 C   0  0  0  0  0  0  0  0  0  0  0  0
  141.9464   73.0167  227.4839 H   0  0  0  0  0  0  0  0  0  0  0  0
  140.8750   71.8980  225.9660 C   0  0  0  0  0  0  0  0  0  0  0  0
  141.1878   72.5677  225.1513 H   0  0  0  0  0  0  0  0  0  0  0  0
  139.2010   69.2710  223.8490 C   0  0  0  0  0  0  0  0  0  0  0  0
  139.2016   68.4140  224.5385 H   0  0  0  0  0  0  0  0  0  0  0  0
  138.8000   69.1160  222.5230 C   0  0  0  0  0  0  0  0  0  0  0  0
  138.4794   68.1288  222.1588 H   0  0  0  0  0  0  0  0  0  0  0  0
  138.8040   70.1810  221.6790 N   0  0  0  0  0  0  0  0  0  0  0  0
  138.5050   70.0420  220.6860 H   0  0  0  0  0  0  0  0  0  0  0  0
  140.9970   74.1490  221.1680 C   0  0  0  0  0  0  0  0  0  0  0  0
  141.6742   73.4457  220.6613 H   0  0  0  0  0  0  0  0  0  0  0  0
  141.4300   75.4470  221.4570 C   0  0  0  0  0  0  0  0  0  0  0  0
  142.4348   75.7697  221.1469 H   0  0  0  0  0  0  0  0  0  0  0  0
  142.0350   79.8440  221.7180 N   0  0  0  0  0  0  0  0  0  0  0  0
  142.9380   80.0230  221.2240 H   0  0  0  0  0  0  0  0  0  0  0  0
  141.5880   80.8790  222.6580 C   0  0  0  0  0  0  0  0  0  0  0  0
  140.6225   80.5587  223.0766 H   0  0  0  0  0  0  0  0  0  0  0  0
  141.3530   82.2130  221.9430 C   0  0  0  0  0  0  0  0  0  0  0  0
  141.2127   83.0091  222.6890 H   0  0  0  0  0  0  0  0  0  0  0  0
  142.2233   82.4498  221.3132 H   0  0  0  0  0  0  0  0  0  0  0  0
  140.4542   82.1381  221.3132 H   0  0  0  0  0  0  0  0  0  0  0  0
  142.5630   81.0250  223.8330 C   0  0  0  0  0  0  0  0  0  0  0  0
  142.0104   80.9422  224.7805 H   0  0  0  0  0  0  0  0  0  0  0  0
  143.3220   80.2305  223.7806 H   0  0  0  0  0  0  0  0  0  0  0  0
  143.0559   82.0070  223.7806 H   0  0  0  0  0  0  0  0  0  0  0  0
  1  2  1  0
  2  3  1  0
  3  4  2  0
  4  5  1  0
  4  6  1  0
  6  7  2  0
  7  8  1  0
  7  9  1  0
  9 10  1  0
  9 11  2  0
 11 12  1  0
 12 13  2  0
 13 14  1  0
 14 15  2  0
 15 16  1  0
 16 17  2  0
 17 18  1  0
 17 19  1  0
 19 20  1  0
 19 21  2  0
 21 22  1  0
 21 23  1  0
 23 24  1  0
 23 25  2  0
 25 26  1  0
 15 27  1  0
 27 28  1  0
 27 29  2  0
 29 30  1  0
 29 31  1  0
 31 32  1  0
 11 33  1  0
 33 34  1  0
 33 35  2  0
 35 36  1  0
  3 37  1  0
 37 38  1  0
 37 39  1  0
 39 40  1  0
 39 41  1  0
 41 42  1  0
 41 43  1  0
 41 44  1  0
 39 45  1  0
 45 46  1  0
 45 47  1  0
 45 48  1  0
 35  6  1  0
 31 13  1  0
 25 16  1  0
M  END
>  <UniqueID>  (16) 
32

>  <SMILES>  (16) 
CC(C)N/C(O)=C\c1ccc(/N=c2\nc(-c3ccccc3)cc[nH]2)cc1

>  <Energy>  (16) 
61.51715273827357

>  <Genealogy>  (16) 
CC(C)NC(O)=Cc1ccc(N=c2nc(-c3ccccc3)cc[nH]2)cc1 (tautomer)
CC(C)N/C(O)=C\c1ccc(/N=c2\nc(-c3ccccc3)cc[nH]2)cc1 (cis-trans isomerization)
CC(C)N/C(O)=C\c1ccc(/N=c2\nc(-c3ccccc3)cc[nH]2)cc1 (3D coordinates assigned)
CC(C)N/C(O)=C\c1ccc(/N=c2\nc(-c3ccccc3)cc[nH]2)cc1 (optimized conformer: 61.51715273827357 kcal/mol)

>  <smiles>  (16) 
CC(C)NC(=O)Cc1ccc(N=c2nc(-c3ccccc3)cc[nH]2)cc1

>  <score_type>  (16) 
oracle

>  <origin>  (16) 
autodockgpu

>  <m_score__min__energy>  (16) 
-8.1099999999999994

>  <m_primary>  (16) 
energy

>  <meeko>  (16) 
{"free_energy": -6.86, "intermolecular_energy": -9.25, "internal_energy": -0.93, "cluster_size": 12, "cluster_id": 3, "rank_in_cluster": 12}

>  <energy>  (16) 
-7.29

>  <cluster_rmsd>  (16) 
0.72

>  <rmsd>  (16) 
269.82

>  <cluster>  (16) 
3

$$$$
DPVNRQFUFIRJCL-MTJUKBPRNA-N
     RDKit          3D

 48 50  0  0  0  0  0  0  0  0999 V2000
  139.7290   81.6900  220.8340 H   0  0  0  0  0  0  0  0  0  0  0  0
  140.6410   81.4150  221.1810 O   0  0  0  0  0  0  0  0  0  0  0  0
  141.0080   80.0770  221.3300 C   0  0  0  0  0  0  0  0  0  0  0  0
  140.1770   79.1190  220.8810 C   0  0  0  0  0  0  0  0  0  0  0  0
  139.3077   79.4363  220.2863 H   0  0  0  0  0  0  0  0  0  0  0  0
  140.3460   77.6710  221.1280 C   0  0  0  0  0  0  0  0  0  0  0  0
  141.4440   76.9630  220.6100 C   0  0  0  0  0  0  0  0  0  0  0  0
  142.1807   77.4808  219.9782 H   0  0  0  0  0  0  0  0  0  0  0  0
  141.6040   75.6040  220.8940 C   0  0  0  0  0  0  0  0  0  0  0  0
  142.4480   75.0509  220.4562 H   0  0  0  0  0  0  0  0  0  0  0  0
  140.6990   74.9410  221.7310 C   0  0  0  0  0  0  0  0  0  0  0  0
  140.8880   73.5360  221.9770 N   0  0  0  0  0  0  0  0  0  0  0  0
  140.0880   72.7420  222.6300 C   0  0  0  0  0  0  0  0  0  0  0  0
  140.4680   72.1820  223.8110 N   0  0  0  0  0  0  0  0  0  0  0  0
  139.6580   71.3320  224.4990 C   0  0  0  0  0  0  0  0  0  0  0  0
  140.1340   70.7620  225.7870 C   0  0  0  0  0  0  0  0  0  0  0  0
  140.6300   71.5850  226.8200 C   0  0  0  0  0  0  0  0  0  0  0  0
  140.6614   72.6759  226.6821 H   0  0  0  0  0  0  0  0  0  0  0  0
  141.0820   71.0230  228.0180 C   0  0  0  0  0  0  0  0  0  0  0  0
  141.4624   71.6733  228.8195 H   0  0  0  0  0  0  0  0  0  0  0  0
  141.0520   69.6390  228.2000 C   0  0  0  0  0  0  0  0  0  0  0  0
  141.4039   69.2004  229.1454 H   0  0  0  0  0  0  0  0  0  0  0  0
  140.5750   68.8120  227.1810 C   0  0  0  0  0  0  0  0  0  0  0  0
  140.5555   67.7214  227.3233 H   0  0  0  0  0  0  0  0  0  0  0  0
  140.1220   69.3670  225.9800 C   0  0  0  0  0  0  0  0  0  0  0  0
  139.7533   68.7087  225.1796 H   0  0  0  0  0  0  0  0  0  0  0  0
  138.4050   71.0080  223.9570 C   0  0  0  0  0  0  0  0  0  0  0  0
  137.7297   70.3161  224.4816 H   0  0  0  0  0  0  0  0  0  0  0  0
  138.0320   71.5790  222.7420 C   0  0  0  0  0  0  0  0  0  0  0  0
  137.0536   71.3388  222.3004 H   0  0  0  0  0  0  0  0  0  0  0  0
  138.8740   72.4320  222.1010 N   0  0  0  0  0  0  0  0  0  0  0  0
  138.5770   72.8450  221.1870 H   0  0  0  0  0  0  0  0  0  0  0  0
  139.5980   75.6490  222.2480 C   0  0  0  0  0  0  0  0  0  0  0  0
  138.8603   75.1305  222.8781 H   0  0  0  0  0  0  0  0  0  0  0  0
  139.4380   77.0090  221.9640 C   0  0  0  0  0  0  0  0  0  0  0  0
  138.5934   77.5625  222.4001 H   0  0  0  0  0  0  0  0  0  0  0  0
  142.2810   79.7540  221.9270 N   0  0  0  0  0  0  0  0  0  0  0  0
  143.0640   79.4300  221.3170 H   0  0  0  0  0  0  0  0  0  0  0  0
  142.5710   79.8630  223.3610 C   0  0  0  0  0  0  0  0  0  0  0  0
  143.6440   79.6666  223.5026 H   0  0  0  0  0  0  0  0  0  0  0  0
  141.8060   78.8060  224.1630 C   0  0  0  0  0  0  0  0  0  0  0  0
  141.9413   78.9929  225.2385 H   0  0  0  0  0  0  0  0  0  0  0  0
  140.7361   78.8596  223.9132 H   0  0  0  0  0  0  0  0  0  0  0  0
  142.1912   77.8064  223.9132 H   0  0  0  0  0  0  0  0  0  0  0  0
  142.3010   81.2800  223.8800 C   0  0  0  0  0  0  0  0  0  0  0  0
  142.3021   81.2740  224.9800 H   0  0  0  0  0  0  0  0  0  0  0  0
  143.0858   81.9595  223.5162 H   0  0  0  0  0  0  0  0  0  0  0  0
  141.3213   81.6233  223.5162 H   0  0  0  0  0  0  0  0  0  0  0  0
  1  2  1  0
  2  3  1  0
  3  4  2  0
  4  5  1  0
  4  6  1  0
  6  7  2  0
  7  8  1  0
  7  9  1  0
  9 10  1  0
  9 11  2  0
 11 12  1  0
 12 13  2  0
 13 14  1  0
 14 15  2  0
 15 16  1  0
 16 17  2  0
 17 18  1  0
 17 19  1  0
 19 20  1  0
 19 21  2  0
 21 22  1  0
 21 23  1  0
 23 24  1  0
 23 25  2  0
 25 26  1  0
 15 27  1  0
 27 28  1  0
 27 29  2  0
 29 30  1  0
 29 31  1  0
 31 32  1  0
 11 33  1  0
 33 34  1  0
 33 35  2  0
 35 36  1  0
  3 37  1  0
 37 38  1  0
 37 39  1  0
 39 40  1  0
 39 41  1  0
 41 42  1  0
 41 43  1  0
 41 44  1  0
 39 45  1  0
 45 46  1  0
 45 47  1  0
 45 48  1  0
 35  6  1  0
 31 13  1  0
 25 16  1  0
M  END
>  <UniqueID>  (17) 
32

>  <SMILES>  (17) 
CC(C)N/C(O)=C\c1ccc(/N=c2\nc(-c3ccccc3)cc[nH]2)cc1

>  <Energy>  (17) 
61.51715273827357

>  <Genealogy>  (17) 
CC(C)NC(O)=Cc1ccc(N=c2nc(-c3ccccc3)cc[nH]2)cc1 (tautomer)
CC(C)N/C(O)=C\c1ccc(/N=c2\nc(-c3ccccc3)cc[nH]2)cc1 (cis-trans isomerization)
CC(C)N/C(O)=C\c1ccc(/N=c2\nc(-c3ccccc3)cc[nH]2)cc1 (3D coordinates assigned)
CC(C)N/C(O)=C\c1ccc(/N=c2\nc(-c3ccccc3)cc[nH]2)cc1 (optimized conformer: 61.51715273827357 kcal/mol)

>  <smiles>  (17) 
CC(C)NC(=O)Cc1ccc(N=c2nc(-c3ccccc3)cc[nH]2)cc1

>  <score_type>  (17) 
oracle

>  <origin>  (17) 
autodockgpu

>  <m_score__min__energy>  (17) 
-8.1099999999999994

>  <m_primary>  (17) 
energy

>  <meeko>  (17) 
{"free_energy": -7.71, "intermolecular_energy": -10.09, "internal_energy": -1.05, "cluster_size": 12, "cluster_id": 3, "rank_in_cluster": 2}

>  <energy>  (17) 
-6.86

>  <cluster_rmsd>  (17) 
1.64

>  <rmsd>  (17) 
269.62

>  <cluster>  (17) 
3

$$$$
DPVNRQFUFIRJCL-MTJUKBPRNA-N
     RDKit          3D

 48 50  0  0  0  0  0  0  0  0999 V2000
  140.0330   81.5910  220.5820 H   0  0  0  0  0  0  0  0  0  0  0  0
  140.9300   81.3380  220.9810 O   0  0  0  0  0  0  0  0  0  0  0  0
  141.3090   80.0090  221.1780 C   0  0  0  0  0  0  0  0  0  0  0  0
  140.6080   79.0350  220.5710 C   0  0  0  0  0  0  0  0  0  0  0  0
  139.9080   79.3308  219.7757 H   0  0  0  0  0  0  0  0  0  0  0  0
  140.7090   77.5960  220.8940 C   0  0  0  0  0  0  0  0  0  0  0  0
  141.6210   76.7580  220.2310 C   0  0  0  0  0  0  0  0  0  0  0  0
  142.2544   77.1649  219.4289 H   0  0  0  0  0  0  0  0  0  0  0  0
  141.7280   75.4100  220.5850 C   0  0  0  0  0  0  0  0  0  0  0  0
  142.4208   74.7548  220.0367 H   0  0  0  0  0  0  0  0  0  0  0  0
  140.9600   74.8880  221.6320 C   0  0  0  0  0  0  0  0  0  0  0  0
  141.0830   73.4890  221.9470 N   0  0  0  0  0  0  0  0  0  0  0  0
  140.2280   72.7560  222.6010 C   0  0  0  0  0  0  0  0  0  0  0  0
  140.5700   72.1590  223.7750 N   0  0  0  0  0  0  0  0  0  0  0  0
  139.7000   71.3710  224.4630 C   0  0  0  0  0  0  0  0  0  0  0  0
  140.1380   70.7560  225.7440 C   0  0  0  0  0  0  0  0  0  0  0  0
  139.9950   69.3730  225.9840 C   0  0  0  0  0  0  0  0  0  0  0  0
  139.5586   68.7258  225.2090 H   0  0  0  0  0  0  0  0  0  0  0  0
  140.4050   68.8200  227.2020 C   0  0  0  0  0  0  0  0  0  0  0  0
  140.2950   67.7398  227.3782 H   0  0  0  0  0  0  0  0  0  0  0  0
  140.9530   69.6340  228.1940 C   0  0  0  0  0  0  0  0  0  0  0  0
  141.2784   69.1950  229.1487 H   0  0  0  0  0  0  0  0  0  0  0  0
  141.0880   71.0060  227.9740 C   0  0  0  0  0  0  0  0  0  0  0  0
  141.5158   71.6479  228.7582 H   0  0  0  0  0  0  0  0  0  0  0  0
  140.6810   71.5660  226.7600 C   0  0  0  0  0  0  0  0  0  0  0  0
  140.7857   72.6488  226.5966 H   0  0  0  0  0  0  0  0  0  0  0  0
  138.4210   71.1510  223.9290 C   0  0  0  0  0  0  0  0  0  0  0  0
  137.6967   70.5111  224.4543 H   0  0  0  0  0  0  0  0  0  0  0  0
  138.0860   71.7590  222.7200 C   0  0  0  0  0  0  0  0  0  0  0  0
  137.0884   71.6008  222.2843 H   0  0  0  0  0  0  0  0  0  0  0  0
  138.9890   72.5470  222.0780 N   0  0  0  0  0  0  0  0  0  0  0  0
  138.7200   72.9890  221.1700 H   0  0  0  0  0  0  0  0  0  0  0  0
  140.0440   75.7250  222.2950 C   0  0  0  0  0  0  0  0  0  0  0  0
  139.4092   75.3168  223.0952 H   0  0  0  0  0  0  0  0  0  0  0  0
  139.9370   77.0740  221.9410 C   0  0  0  0  0  0  0  0  0  0  0  0
  139.2428   77.7292  222.4876 H   0  0  0  0  0  0  0  0  0  0  0  0
  142.4600   79.7150  221.9950 N   0  0  0  0  0  0  0  0  0  0  0  0
  143.3210   79.3310  221.5470 H   0  0  0  0  0  0  0  0  0  0  0  0
  142.5200   79.9320  223.4460 C   0  0  0  0  0  0  0  0  0  0  0  0
  143.5790   79.9251  223.7434 H   0  0  0  0  0  0  0  0  0  0  0  0
  141.8270   78.7960  224.2050 C   0  0  0  0  0  0  0  0  0  0  0  0
  141.9287   78.9628  225.2875 H   0  0  0  0  0  0  0  0  0  0  0  0
  140.7606   78.7725  223.9362 H   0  0  0  0  0  0  0  0  0  0  0  0
  142.2941   77.8370  223.9362 H   0  0  0  0  0  0  0  0  0  0  0  0
  141.9540   81.3040  223.8300 C   0  0  0  0  0  0  0  0  0  0  0  0
  141.9177   81.3920  224.9259 H   0  0  0  0  0  0  0  0  0  0  0  0
  142.5994   82.0947  223.4198 H   0  0  0  0  0  0  0  0  0  0  0  0
  140.9388   81.4097  223.4198 H   0  0  0  0  0  0  0  0  0  0  0  0
  1  2  1  0
  2  3  1  0
  3  4  2  0
  4  5  1  0
  4  6  1  0
  6  7  2  0
  7  8  1  0
  7  9  1  0
  9 10  1  0
  9 11  2  0
 11 12  1  0
 12 13  2  0
 13 14  1  0
 14 15  2  0
 15 16  1  0
 16 17  2  0
 17 18  1  0
 17 19  1  0
 19 20  1  0
 19 21  2  0
 21 22  1  0
 21 23  1  0
 23 24  1  0
 23 25  2  0
 25 26  1  0
 15 27  1  0
 27 28  1  0
 27 29  2  0
 29 30  1  0
 29 31  1  0
 31 32  1  0
 11 33  1  0
 33 34  1  0
 33 35  2  0
 35 36  1  0
  3 37  1  0
 37 38  1  0
 37 39  1  0
 39 40  1  0
 39 41  1  0
 41 42  1  0
 41 43  1  0
 41 44  1  0
 39 45  1  0
 45 46  1  0
 45 47  1  0
 45 48  1  0
 35  6  1  0
 31 13  1  0
 25 16  1  0
M  END
>  <UniqueID>  (18) 
32

>  <SMILES>  (18) 
CC(C)N/C(O)=C\c1ccc(/N=c2\nc(-c3ccccc3)cc[nH]2)cc1

>  <Energy>  (18) 
61.51715273827357

>  <Genealogy>  (18) 
CC(C)NC(O)=Cc1ccc(N=c2nc(-c3ccccc3)cc[nH]2)cc1 (tautomer)
CC(C)N/C(O)=C\c1ccc(/N=c2\nc(-c3ccccc3)cc[nH]2)cc1 (cis-trans isomerization)
CC(C)N/C(O)=C\c1ccc(/N=c2\nc(-c3ccccc3)cc[nH]2)cc1 (3D coordinates assigned)
CC(C)N/C(O)=C\c1ccc(/N=c2\nc(-c3ccccc3)cc[nH]2)cc1 (optimized conformer: 61.51715273827357 kcal/mol)

>  <smiles>  (18) 
CC(C)NC(=O)Cc1ccc(N=c2nc(-c3ccccc3)cc[nH]2)cc1

>  <score_type>  (18) 
oracle

>  <origin>  (18) 
autodockgpu

>  <m_score__min__energy>  (18) 
-8.1099999999999994

>  <m_primary>  (18) 
energy

>  <meeko>  (18) 
{"free_energy": -7.69, "intermolecular_energy": -10.08, "internal_energy": -1.03, "cluster_size": 12, "cluster_id": 3, "rank_in_cluster": 3}

>  <energy>  (18) 
-7.51

>  <cluster_rmsd>  (18) 
0.0

>  <rmsd>  (18) 
269.26

>  <cluster>  (18) 
4

$$$$
DPVNRQFUFIRJCL-MTJUKBPRNA-N
     RDKit          3D

 48 50  0  0  0  0  0  0  0  0999 V2000
  146.5620   74.3340  217.8650 H   0  0  0  0  0  0  0  0  0  0  0  0
  146.6600   73.4020  218.2510 O   0  0  0  0  0  0  0  0  0  0  0  0
  145.5820   72.7080  218.8040 C   0  0  0  0  0  0  0  0  0  0  0  0
  144.3380   73.1860  218.6230 C   0  0  0  0  0  0  0  0  0  0  0  0
  144.0865   73.5902  217.6313 H   0  0  0  0  0  0  0  0  0  0  0  0
  143.2840   73.2080  219.6590 C   0  0  0  0  0  0  0  0  0  0  0  0
  142.8540   74.4120  220.2420 C   0  0  0  0  0  0  0  0  0  0  0  0
  143.3298   75.3605  219.9523 H   0  0  0  0  0  0  0  0  0  0  0  0
  141.8250   74.4110  221.1880 C   0  0  0  0  0  0  0  0  0  0  0  0
  141.5192   75.3548  221.6632 H   0  0  0  0  0  0  0  0  0  0  0  0
  141.1810   73.2180  221.5350 C   0  0  0  0  0  0  0  0  0  0  0  0
  140.1440   73.2590  222.5310 N   0  0  0  0  0  0  0  0  0  0  0  0
  139.5460   72.2400  223.0800 C   0  0  0  0  0  0  0  0  0  0  0  0
  140.0260   71.6790  224.2240 N   0  0  0  0  0  0  0  0  0  0  0  0
  139.4310   70.6010  224.8030 C   0  0  0  0  0  0  0  0  0  0  0  0
  140.0050   70.0440  226.0570 C   0  0  0  0  0  0  0  0  0  0  0  0
  140.5330   70.8810  227.0620 C   0  0  0  0  0  0  0  0  0  0  0  0
  140.5168   71.9728  226.9286 H   0  0  0  0  0  0  0  0  0  0  0  0
  141.0770   70.3310  228.2270 C   0  0  0  0  0  0  0  0  0  0  0  0
  141.4827   70.9917  229.0074 H   0  0  0  0  0  0  0  0  0  0  0  0
  141.1070   68.9470  228.4030 C   0  0  0  0  0  0  0  0  0  0  0  0
  141.5308   68.5183  229.3231 H   0  0  0  0  0  0  0  0  0  0  0  0
  140.5990   68.1070  227.4110 C   0  0  0  0  0  0  0  0  0  0  0  0
  140.6274   67.0160  227.5483 H   0  0  0  0  0  0  0  0  0  0  0  0
  140.0540   68.6490  226.2430 C   0  0  0  0  0  0  0  0  0  0  0  0
  139.6604   67.9804  225.4632 H   0  0  0  0  0  0  0  0  0  0  0  0
  138.3040   70.0390  224.1840 C   0  0  0  0  0  0  0  0  0  0  0  0
  137.8052   69.1604  224.6191 H   0  0  0  0  0  0  0  0  0  0  0  0
  137.8290   70.6150  223.0080 C   0  0  0  0  0  0  0  0  0  0  0  0
  136.9462   70.1907  222.5073 H   0  0  0  0  0  0  0  0  0  0  0  0
  138.4530   71.7000  222.4770 N   0  0  0  0  0  0  0  0  0  0  0  0
  138.0840   72.1130  221.5900 H   0  0  0  0  0  0  0  0  0  0  0  0
  141.6110   72.0110  220.9540 C   0  0  0  0  0  0  0  0  0  0  0  0
  141.1352   71.0628  221.2449 H   0  0  0  0  0  0  0  0  0  0  0  0
  142.6410   72.0120  220.0080 C   0  0  0  0  0  0  0  0  0  0  0  0
  142.9488   71.0680  219.5345 H   0  0  0  0  0  0  0  0  0  0  0  0
  145.8240   71.4830  219.5240 N   0  0  0  0  0  0  0  0  0  0  0  0
  145.9830   71.5190  220.5560 H   0  0  0  0  0  0  0  0  0  0  0  0
  145.8510   70.1520  218.9050 C   0  0  0  0  0  0  0  0  0  0  0  0
  146.7691   69.6453  219.2373 H   0  0  0  0  0  0  0  0  0  0  0  0
  145.9140   70.2530  217.3780 C   0  0  0  0  0  0  0  0  0  0  0  0
  146.4763   71.1544  217.0931 H   0  0  0  0  0  0  0  0  0  0  0  0
  146.4175   69.3632  216.9721 H   0  0  0  0  0  0  0  0  0  0  0  0
  144.8934   70.3139  216.9721 H   0  0  0  0  0  0  0  0  0  0  0  0
  144.6700   69.2940  219.3720 C   0  0  0  0  0  0  0  0  0  0  0  0
  144.6431   69.2745  220.4715 H   0  0  0  0  0  0  0  0  0  0  0  0
  143.7317   69.7225  218.9898 H   0  0  0  0  0  0  0  0  0  0  0  0
  144.7875   68.2692  218.9898 H   0  0  0  0  0  0  0  0  0  0  0  0
  1  2  1  0
  2  3  1  0
  3  4  2  0
  4  5  1  0
  4  6  1  0
  6  7  2  0
  7  8  1  0
  7  9  1  0
  9 10  1  0
  9 11  2  0
 11 12  1  0
 12 13  2  0
 13 14  1  0
 14 15  2  0
 15 16  1  0
 16 17  2  0
 17 18  1  0
 17 19  1  0
 19 20  1  0
 19 21  2  0
 21 22  1  0
 21 23  1  0
 23 24  1  0
 23 25  2  0
 25 26  1  0
 15 27  1  0
 27 28  1  0
 27 29  2  0
 29 30  1  0
 29 31  1  0
 31 32  1  0
 11 33  1  0
 33 34  1  0
 33 35  2  0
 35 36  1  0
  3 37  1  0
 37 38  1  0
 37 39  1  0
 39 40  1  0
 39 41  1  0
 41 42  1  0
 41 43  1  0
 41 44  1  0
 39 45  1  0
 45 46  1  0
 45 47  1  0
 45 48  1  0
 35  6  1  0
 31 13  1  0
 25 16  1  0
M  END
>  <UniqueID>  (19) 
32

>  <SMILES>  (19) 
CC(C)N/C(O)=C\c1ccc(/N=c2\nc(-c3ccccc3)cc[nH]2)cc1

>  <Energy>  (19) 
61.51715273827357

>  <Genealogy>  (19) 
CC(C)NC(O)=Cc1ccc(N=c2nc(-c3ccccc3)cc[nH]2)cc1 (tautomer)
CC(C)N/C(O)=C\c1ccc(/N=c2\nc(-c3ccccc3)cc[nH]2)cc1 (cis-trans isomerization)
CC(C)N/C(O)=C\c1ccc(/N=c2\nc(-c3ccccc3)cc[nH]2)cc1 (3D coordinates assigned)
CC(C)N/C(O)=C\c1ccc(/N=c2\nc(-c3ccccc3)cc[nH]2)cc1 (optimized conformer: 61.51715273827357 kcal/mol)

>  <smiles>  (19) 
CC(C)NC(=O)Cc1ccc(N=c2nc(-c3ccccc3)cc[nH]2)cc1

>  <score_type>  (19) 
oracle

>  <origin>  (19) 
autodockgpu

>  <m_score__min__energy>  (19) 
-8.1099999999999994

>  <m_primary>  (19) 
energy

>  <meeko>  (19) 
{"free_energy": -7.73, "intermolecular_energy": -10.11, "internal_energy": -0.98, "cluster_size": 2, "cluster_id": 2, "rank_in_cluster": 2}

>  <energy>  (19) 
-7.46

>  <cluster_rmsd>  (19) 
0.86

>  <rmsd>  (19) 
269.14

>  <cluster>  (19) 
4

$$$$
DPVNRQFUFIRJCL-MTJUKBPRNA-N
     RDKit          3D

 48 50  0  0  0  0  0  0  0  0999 V2000
  139.8790   67.2290  223.7590 H   0  0  0  0  0  0  0  0  0  0  0  0
  139.5750   67.0200  224.7040 O   0  0  0  0  0  0  0  0  0  0  0  0
  139.2470   68.0220  225.6190 C   0  0  0  0  0  0  0  0  0  0  0  0
  138.4550   69.0340  225.2220 C   0  0  0  0  0  0  0  0  0  0  0  0
  137.3893   68.9819  225.4893 H   0  0  0  0  0  0  0  0  0  0  0  0
  138.9110   70.2110  224.4530 C   0  0  0  0  0  0  0  0  0  0  0  0
  140.2530   70.6290  224.4790 C   0  0  0  0  0  0  0  0  0  0  0  0
  140.9802   70.0949  225.1082 H   0  0  0  0  0  0  0  0  0  0  0  0
  140.6680   71.7190  223.7100 C   0  0  0  0  0  0  0  0  0  0  0  0
  141.7128   72.0590  223.7640 H   0  0  0  0  0  0  0  0  0  0  0  0
  139.7640   72.3820  222.8710 C   0  0  0  0  0  0  0  0  0  0  0  0
  140.2280   73.5140  222.1150 N   0  0  0  0  0  0  0  0  0  0  0  0
  139.6400   74.6710  221.9980 C   0  0  0  0  0  0  0  0  0  0  0  0
  140.2710   75.8190  222.3690 N   0  0  0  0  0  0  0  0  0  0  0  0
  139.6680   77.0350  222.2760 C   0  0  0  0  0  0  0  0  0  0  0  0
  140.4190   78.2490  222.6920 C   0  0  0  0  0  0  0  0  0  0  0  0
  141.8040   78.3770  222.4530 C   0  0  0  0  0  0  0  0  0  0  0  0
  142.3474   77.5694  221.9406 H   0  0  0  0  0  0  0  0  0  0  0  0
  142.4900   79.5250  222.8640 C   0  0  0  0  0  0  0  0  0  0  0  0
  143.5687   79.6180  222.6697 H   0  0  0  0  0  0  0  0  0  0  0  0
  141.8100   80.5530  223.5200 C   0  0  0  0  0  0  0  0  0  0  0  0
  142.3514   81.4565  223.8372 H   0  0  0  0  0  0  0  0  0  0  0  0
  140.4420   80.4330  223.7730 C   0  0  0  0  0  0  0  0  0  0  0  0
  139.9074   81.2415  224.2931 H   0  0  0  0  0  0  0  0  0  0  0  0
  139.7500   79.2880  223.3670 C   0  0  0  0  0  0  0  0  0  0  0  0
  138.6739   79.1981  223.5766 H   0  0  0  0  0  0  0  0  0  0  0  0
  138.3470   77.0990  221.8090 C   0  0  0  0  0  0  0  0  0  0  0  0
  137.8258   78.0647  221.7330 H   0  0  0  0  0  0  0  0  0  0  0  0
  137.7070   75.9160  221.4430 C   0  0  0  0  0  0  0  0  0  0  0  0
  136.6720   75.9444  221.0715 H   0  0  0  0  0  0  0  0  0  0  0  0
  138.3590   74.7270  221.5440 N   0  0  0  0  0  0  0  0  0  0  0  0
  137.8590   73.8510  221.2700 H   0  0  0  0  0  0  0  0  0  0  0  0
  138.4200   71.9670  222.8460 C   0  0  0  0  0  0  0  0  0  0  0  0
  137.6928   72.5024  222.2179 H   0  0  0  0  0  0  0  0  0  0  0  0
  138.0050   70.8760  223.6170 C   0  0  0  0  0  0  0  0  0  0  0  0
  136.9595   70.5379  223.5664 H   0  0  0  0  0  0  0  0  0  0  0  0
  139.7360   67.9300  226.9720 N   0  0  0  0  0  0  0  0  0  0  0  0
  139.4070   67.1490  227.5830 H   0  0  0  0  0  0  0  0  0  0  0  0
  140.6940   68.8670  227.5700 C   0  0  0  0  0  0  0  0  0  0  0  0
  141.4401   69.1185  226.8019 H   0  0  0  0  0  0  0  0  0  0  0  0
  141.4440   68.2220  228.7400 C   0  0  0  0  0  0  0  0  0  0  0  0
  141.0230   68.5840  229.6896 H   0  0  0  0  0  0  0  0  0  0  0  0
  141.3381   67.1285  228.6852 H   0  0  0  0  0  0  0  0  0  0  0  0
  142.5093   68.4904  228.6852 H   0  0  0  0  0  0  0  0  0  0  0  0
  140.0140   70.1770  227.9820 C   0  0  0  0  0  0  0  0  0  0  0  0
  139.9798   70.2430  229.0795 H   0  0  0  0  0  0  0  0  0  0  0  0
  140.5842   71.0280  227.5811 H   0  0  0  0  0  0  0  0  0  0  0  0
  138.9899   70.2004  227.5811 H   0  0  0  0  0  0  0  0  0  0  0  0
  1  2  1  0
  2  3  1  0
  3  4  2  0
  4  5  1  0
  4  6  1  0
  6  7  2  0
  7  8  1  0
  7  9  1  0
  9 10  1  0
  9 11  2  0
 11 12  1  0
 12 13  2  0
 13 14  1  0
 14 15  2  0
 15 16  1  0
 16 17  2  0
 17 18  1  0
 17 19  1  0
 19 20  1  0
 19 21  2  0
 21 22  1  0
 21 23  1  0
 23 24  1  0
 23 25  2  0
 25 26  1  0
 15 27  1  0
 27 28  1  0
 27 29  2  0
 29 30  1  0
 29 31  1  0
 31 32  1  0
 11 33  1  0
 33 34  1  0
 33 35  2  0
 35 36  1  0
  3 37  1  0
 37 38  1  0
 37 39  1  0
 39 40  1  0
 39 41  1  0
 41 42  1  0
 41 43  1  0
 41 44  1  0
 39 45  1  0
 45 46  1  0
 45 47  1  0
 45 48  1  0
 35  6  1  0
 31 13  1  0
 25 16  1  0
M  END
>  <UniqueID>  (20) 
32

>  <SMILES>  (20) 
CC(C)N/C(O)=C\c1ccc(/N=c2\nc(-c3ccccc3)cc[nH]2)cc1

>  <Energy>  (20) 
61.51715273827357

>  <Genealogy>  (20) 
CC(C)NC(O)=Cc1ccc(N=c2nc(-c3ccccc3)cc[nH]2)cc1 (tautomer)
CC(C)N/C(O)=C\c1ccc(/N=c2\nc(-c3ccccc3)cc[nH]2)cc1 (cis-trans isomerization)
CC(C)N/C(O)=C\c1ccc(/N=c2\nc(-c3ccccc3)cc[nH]2)cc1 (3D coordinates assigned)
CC(C)N/C(O)=C\c1ccc(/N=c2\nc(-c3ccccc3)cc[nH]2)cc1 (optimized conformer: 61.51715273827357 kcal/mol)

>  <smiles>  (20) 
CC(C)NC(=O)Cc1ccc(N=c2nc(-c3ccccc3)cc[nH]2)cc1

>  <score_type>  (20) 
oracle

>  <origin>  (20) 
autodockgpu

>  <m_score__min__energy>  (20) 
-8.1099999999999994

>  <m_primary>  (20) 
energy

>  <meeko>  (20) 
{"free_energy": -8.11, "intermolecular_energy": -10.49, "internal_energy": -0.87, "cluster_size": 3, "cluster_id": 1, "rank_in_cluster": 1}

>  <energy>  (20) 
-7.44

>  <cluster_rmsd>  (20) 
0.0

>  <rmsd>  (20) 
270.14

>  <cluster>  (20) 
5

$$$$
QCIVYEKZXQJEGX-QMMWQUDZNA-N
     RDKit          3D

 46 48  0  0  0  0  0  0  0  0999 V2000
  146.1240   71.9740  221.2840 H   0  0  0  0  0  0  0  0  0  0  0  0
  146.4070   72.6570  220.5900 O   0  0  0  0  0  0  0  0  0  0  0  0
  145.6560   72.8980  219.4380 C   0  0  0  0  0  0  0  0  0  0  0  0
  145.9490   72.1640  218.2440 N   0  0  0  0  0  0  0  0  0  0  0  0
  145.5580   70.7740  218.0300 C   0  0  0  0  0  0  0  0  0  0  0  0
  145.8069   70.4731  217.0016 H   0  0  0  0  0  0  0  0  0  0  0  0
  146.3190   69.8850  219.0120 C   0  0  0  0  0  0  0  0  0  0  0  0
  146.0681   70.1781  220.0421 H   0  0  0  0  0  0  0  0  0  0  0  0
  146.0361   68.8343  218.8505 H   0  0  0  0  0  0  0  0  0  0  0  0
  147.4007   70.0025  218.8505 H   0  0  0  0  0  0  0  0  0  0  0  0
  144.0470   70.6160  218.2190 C   0  0  0  0  0  0  0  0  0  0  0  0
  143.8124   70.5915  219.2934 H   0  0  0  0  0  0  0  0  0  0  0  0
  143.5280   71.4648  217.7497 H   0  0  0  0  0  0  0  0  0  0  0  0
  143.7148   69.6782  217.7497 H   0  0  0  0  0  0  0  0  0  0  0  0
  144.6890   73.8280  219.4540 C   0  0  0  0  0  0  0  0  0  0  0  0
  144.8392   74.7343  218.8490 H   0  0  0  0  0  0  0  0  0  0  0  0
  143.4330   73.7170  220.2310 C   0  0  0  0  0  0  0  0  0  0  0  0
  143.0310   72.4550  220.6910 C   0  0  0  0  0  0  0  0  0  0  0  0
  143.6578   71.5743  220.4872 H   0  0  0  0  0  0  0  0  0  0  0  0
  141.8390   72.3080  221.4070 C   0  0  0  0  0  0  0  0  0  0  0  0
  141.5498   71.3188  221.7914 H   0  0  0  0  0  0  0  0  0  0  0  0
  141.0080   73.4190  221.6380 C   0  0  0  0  0  0  0  0  0  0  0  0
  139.7880   73.3140  222.3920 N   0  0  0  0  0  0  0  0  0  0  0  0
  139.3040   72.2380  222.9400 C   0  0  0  0  0  0  0  0  0  0  0  0
  139.8190   71.7420  224.0980 N   0  0  0  0  0  0  0  0  0  0  0  0
  139.3410   70.6020  224.6690 C   0  0  0  0  0  0  0  0  0  0  0  0
  139.9400   70.1190  225.9400 C   0  0  0  0  0  0  0  0  0  0  0  0
  140.4900   71.0410  226.8500 C   0  0  0  0  0  0  0  0  0  0  0  0
  140.4667   72.1160  226.6178 H   0  0  0  0  0  0  0  0  0  0  0  0
  141.0660   70.6030  228.0470 C   0  0  0  0  0  0  0  0  0  0  0  0
  141.4880   71.3333  228.7531 H   0  0  0  0  0  0  0  0  0  0  0  0
  141.1060   69.2390  228.3470 C   0  0  0  0  0  0  0  0  0  0  0  0
  141.5548   68.8959  229.2909 H   0  0  0  0  0  0  0  0  0  0  0  0
  140.5760   68.3120  227.4480 C   0  0  0  0  0  0  0  0  0  0  0  0
  140.6131   67.2380  227.6826 H   0  0  0  0  0  0  0  0  0  0  0  0
  139.9980   68.7440  226.2500 C   0  0  0  0  0  0  0  0  0  0  0  0
  139.5860   68.0070  225.5450 H   0  0  0  0  0  0  0  0  0  0  0  0
  138.2810   69.9270  224.0420 C   0  0  0  0  0  0  0  0  0  0  0  0
  137.8605   69.0112  224.4830 H   0  0  0  0  0  0  0  0  0  0  0  0
  137.7720   70.4400  222.8500 C   0  0  0  0  0  0  0  0  0  0  0  0
  136.9468   69.9234  222.3380 H   0  0  0  0  0  0  0  0  0  0  0  0
  138.2930   71.5760  222.3200 N   0  0  0  0  0  0  0  0  0  0  0  0
  141.4110   74.6800  221.1820 C   0  0  0  0  0  0  0  0  0  0  0  0
  140.7845   75.5606  221.3870 H   0  0  0  0  0  0  0  0  0  0  0  0
  142.6040   74.8280  220.4680 C   0  0  0  0  0  0  0  0  0  0  0  0
  142.8957   75.8188  220.0896 H   0  0  0  0  0  0  0  0  0  0  0  0
  1  2  1  0
  2  3  1  0
  3  4  1  0
  4  5  1  0
  5  6  1  0
  5  7  1  0
  7  8  1  0
  7  9  1  0
  7 10  1  0
  5 11  1  0
 11 12  1  0
 11 13  1  0
 11 14  1  0
  3 15  2  0
 15 16  1  0
 15 17  1  0
 17 18  2  0
 18 19  1  0
 18 20  1  0
 20 21  1  0
 20 22  2  0
 22 23  1  0
 23 24  2  0
 24 25  1  0
 25 26  2  0
 26 27  1  0
 27 28  2  0
 28 29  1  0
 28 30  1  0
 30 31  1  0
 30 32  2  0
 32 33  1  0
 32 34  1  0
 34 35  1  0
 34 36  2  0
 36 37  1  0
 26 38  1  0
 38 39  1  0
 38 40  2  0
 40 41  1  0
 40 42  1  0
 22 43  1  0
 43 44  1  0
 43 45  2  0
 45 46  1  0
 45 17  1  0
 42 24  1  0
 36 27  1  0
M  CHG  2   4  -1  42  -1
M  END
>  <UniqueID>  (21) 
33

>  <SMILES>  (21) 
CC(C)[N-]/C(O)=C\c1ccc(/N=c2\nc(-c3ccccc3)cc[n-]2)cc1

>  <Energy>  (21) 
56.11859129716522

>  <Genealogy>  (21) 
CC(C)[N-]C(=O)Cc1ccc(N=c2nc(-c3ccccc3)cc[n-]2)cc1 (protonated)
CC(C)[N-]C(O)=Cc1ccc(N=c2nc(-c3ccccc3)cc[n-]2)cc1 (tautomer)
CC(C)[N-]/C(O)=C\c1ccc(/N=c2\nc(-c3ccccc3)cc[n-]2)cc1 (cis-trans isomerization)
CC(C)[N-]/C(O)=C\c1ccc(/N=c2\nc(-c3ccccc3)cc[n-]2)cc1 (3D coordinates assigned)
CC(C)[N-]/C(O)=C\c1ccc(/N=c2\nc(-c3ccccc3)cc[n-]2)cc1 (optimized conformer: 56.11859129716522 kcal/mol)

>  <smiles>  (21) 
CC(C)NC(=O)Cc1ccc(N=c2nc(-c3ccccc3)cc[nH]2)cc1

>  <score_type>  (21) 
oracle

>  <origin>  (21) 
autodockgpu

>  <m_score__min__energy>  (21) 
-8.1699999999999999

>  <m_primary>  (21) 
energy

>  <meeko>  (21) 
{"free_energy": -8.02, "intermolecular_energy": -10.41, "internal_energy": -0.99, "cluster_size": 15, "cluster_id": 1, "rank_in_cluster": 5}

>  <energy>  (21) 
-8.17

>  <cluster_rmsd>  (21) 
0.0

>  <rmsd>  (21) 
271.76

>  <cluster>  (21) 
1

$$$$
QCIVYEKZXQJEGX-QMMWQUDZNA-N
     RDKit          3D

 46 48  0  0  0  0  0  0  0  0999 V2000
  146.5540   74.2580  217.3110 H   0  0  0  0  0  0  0  0  0  0  0  0
  146.1740   73.3190  217.3320 O   0  0  0  0  0  0  0  0  0  0  0  0
  145.4410   72.8400  218.4200 C   0  0  0  0  0  0  0  0  0  0  0  0
  146.1060   72.6030  219.6650 N   0  0  0  0  0  0  0  0  0  0  0  0
  146.3810   73.6460  220.6490 C   0  0  0  0  0  0  0  0  0  0  0  0
  147.2741   74.2132  220.3478 H   0  0  0  0  0  0  0  0  0  0  0  0
  145.1840   74.5930  220.7200 C   0  0  0  0  0  0  0  0  0  0  0  0
  144.9346   74.7904  221.7730 H   0  0  0  0  0  0  0  0  0  0  0  0
  145.4351   75.5396  220.2191 H   0  0  0  0  0  0  0  0  0  0  0  0
  144.3206   74.1308  220.2191 H   0  0  0  0  0  0  0  0  0  0  0  0
  146.6550   73.0200  222.0190 C   0  0  0  0  0  0  0  0  0  0  0  0
  146.3485   73.7202  222.8100 H   0  0  0  0  0  0  0  0  0  0  0  0
  146.0839   72.0848  222.1157 H   0  0  0  0  0  0  0  0  0  0  0  0
  147.7295   72.8051  222.1157 H   0  0  0  0  0  0  0  0  0  0  0  0
  144.1310   72.5840  218.2810 C   0  0  0  0  0  0  0  0  0  0  0  0
  143.8087   72.0321  217.3857 H   0  0  0  0  0  0  0  0  0  0  0  0
  143.0900   72.9940  219.2510 C   0  0  0  0  0  0  0  0  0  0  0  0
  142.7890   72.1410  220.3230 C   0  0  0  0  0  0  0  0  0  0  0  0
  143.3390   71.1955  220.4397 H   0  0  0  0  0  0  0  0  0  0  0  0
  141.7950   72.4840  221.2440 C   0  0  0  0  0  0  0  0  0  0  0  0
  141.5891   71.8226  222.0985 H   0  0  0  0  0  0  0  0  0  0  0  0
  141.0570   73.6700  221.0840 C   0  0  0  0  0  0  0  0  0  0  0  0
  140.0460   74.0700  222.0250 N   0  0  0  0  0  0  0  0  0  0  0  0
  139.5370   75.2610  222.1590 C   0  0  0  0  0  0  0  0  0  0  0  0
  140.3230   76.3390  222.4270 N   0  0  0  0  0  0  0  0  0  0  0  0
  139.8030   77.5850  222.5960 C   0  0  0  0  0  0  0  0  0  0  0  0
  140.7160   78.7230  222.8780 C   0  0  0  0  0  0  0  0  0  0  0  0
  142.0690   78.6450  222.4970 C   0  0  0  0  0  0  0  0  0  0  0  0
  142.4406   77.7443  221.9865 H   0  0  0  0  0  0  0  0  0  0  0  0
  142.9450   79.7030  222.7620 C   0  0  0  0  0  0  0  0  0  0  0  0
  143.9992   79.6331  222.4557 H   0  0  0  0  0  0  0  0  0  0  0  0
  142.4830   80.8480  223.4150 C   0  0  0  0  0  0  0  0  0  0  0  0
  143.1716   81.6815  223.6179 H   0  0  0  0  0  0  0  0  0  0  0  0
  141.1470   80.9340  223.8100 C   0  0  0  0  0  0  0  0  0  0  0  0
  140.7855   81.8340  224.3291 H   0  0  0  0  0  0  0  0  0  0  0  0
  140.2670   79.8800  223.5480 C   0  0  0  0  0  0  0  0  0  0  0  0
  139.2167   79.9535  223.8667 H   0  0  0  0  0  0  0  0  0  0  0  0
  138.4140   77.7570  222.4840 C   0  0  0  0  0  0  0  0  0  0  0  0
  137.9609   78.7525  222.6014 H   0  0  0  0  0  0  0  0  0  0  0  0
  137.6200   76.6410  222.2210 C   0  0  0  0  0  0  0  0  0  0  0  0
  136.5287   76.7508  222.1367 H   0  0  0  0  0  0  0  0  0  0  0  0
  138.1920   75.4200  222.0690 N   0  0  0  0  0  0  0  0  0  0  0  0
  141.3600   74.5230  220.0170 C   0  0  0  0  0  0  0  0  0  0  0  0
  140.8116   75.4697  219.9027 H   0  0  0  0  0  0  0  0  0  0  0  0
  142.3540   74.1820  219.0950 C   0  0  0  0  0  0  0  0  0  0  0  0
  142.5614   74.8464  218.2432 H   0  0  0  0  0  0  0  0  0  0  0  0
  1  2  1  0
  2  3  1  0
  3  4  1  0
  4  5  1  0
  5  6  1  0
  5  7  1  0
  7  8  1  0
  7  9  1  0
  7 10  1  0
  5 11  1  0
 11 12  1  0
 11 13  1  0
 11 14  1  0
  3 15  2  0
 15 16  1  0
 15 17  1  0
 17 18  2  0
 18 19  1  0
 18 20  1  0
 20 21  1  0
 20 22  2  0
 22 23  1  0
 23 24  2  0
 24 25  1  0
 25 26  2  0
 26 27  1  0
 27 28  2  0
 28 29  1  0
 28 30  1  0
 30 31  1  0
 30 32  2  0
 32 33  1  0
 32 34  1  0
 34 35  1  0
 34 36  2  0
 36 37  1  0
 26 38  1  0
 38 39  1  0
 38 40  2  0
 40 41  1  0
 40 42  1  0
 22 43  1  0
 43 44  1  0
 43 45  2  0
 45 46  1  0
 45 17  1  0
 42 24  1  0
 36 27  1  0
M  CHG  2   4  -1  42  -1
M  END
>  <UniqueID>  (22) 
33

>  <SMILES>  (22) 
CC(C)[N-]/C(O)=C\c1ccc(/N=c2\nc(-c3ccccc3)cc[n-]2)cc1

>  <Energy>  (22) 
56.11859129716522

>  <Genealogy>  (22) 
CC(C)[N-]C(=O)Cc1ccc(N=c2nc(-c3ccccc3)cc[n-]2)cc1 (protonated)
CC(C)[N-]C(O)=Cc1ccc(N=c2nc(-c3ccccc3)cc[n-]2)cc1 (tautomer)
CC(C)[N-]/C(O)=C\c1ccc(/N=c2\nc(-c3ccccc3)cc[n-]2)cc1 (cis-trans isomerization)
CC(C)[N-]/C(O)=C\c1ccc(/N=c2\nc(-c3ccccc3)cc[n-]2)cc1 (3D coordinates assigned)
CC(C)[N-]/C(O)=C\c1ccc(/N=c2\nc(-c3ccccc3)cc[n-]2)cc1 (optimized conformer: 56.11859129716522 kcal/mol)

>  <smiles>  (22) 
CC(C)NC(=O)Cc1ccc(N=c2nc(-c3ccccc3)cc[nH]2)cc1

>  <score_type>  (22) 
oracle

>  <origin>  (22) 
autodockgpu

>  <m_score__min__energy>  (22) 
-8.1699999999999999

>  <m_primary>  (22) 
energy

>  <meeko>  (22) 
{"free_energy": -7.34, "intermolecular_energy": -9.72, "internal_energy": -1.03, "cluster_size": 4, "cluster_id": 3, "rank_in_cluster": 4}

>  <energy>  (22) 
-8.13

>  <cluster_rmsd>  (22) 
0.31

>  <rmsd>  (22) 
271.75

>  <cluster>  (22) 
1

$$$$
QCIVYEKZXQJEGX-QMMWQUDZNA-N
     RDKit          3D

 46 48  0  0  0  0  0  0  0  0999 V2000
  145.8220   74.2700  217.9430 H   0  0  0  0  0  0  0  0  0  0  0  0
  146.0360   73.2840  218.0430 O   0  0  0  0  0  0  0  0  0  0  0  0
  145.9380   72.6240  219.2690 C   0  0  0  0  0  0  0  0  0  0  0  0
  146.3040   71.2430  219.3540 N   0  0  0  0  0  0  0  0  0  0  0  0
  145.6240   70.1770  218.6240 C   0  0  0  0  0  0  0  0  0  0  0  0
  145.9404   70.1884  217.5706 H   0  0  0  0  0  0  0  0  0  0  0  0
  145.9950   68.8320  219.2450 C   0  0  0  0  0  0  0  0  0  0  0  0
  145.9719   68.9156  220.3416 H   0  0  0  0  0  0  0  0  0  0  0  0
  145.2743   68.0670  218.9204 H   0  0  0  0  0  0  0  0  0  0  0  0
  147.0059   68.5446  218.9204 H   0  0  0  0  0  0  0  0  0  0  0  0
  144.1090   70.3920  218.6680 C   0  0  0  0  0  0  0  0  0  0  0  0
  143.7756   70.4393  219.7152 H   0  0  0  0  0  0  0  0  0  0  0  0
  143.8575   71.3348  218.1602 H   0  0  0  0  0  0  0  0  0  0  0  0
  143.6052   69.5564  218.1602 H   0  0  0  0  0  0  0  0  0  0  0  0
  145.4790   73.2810  220.3460 C   0  0  0  0  0  0  0  0  0  0  0  0
  146.2144   73.6297  221.0860 H   0  0  0  0  0  0  0  0  0  0  0  0
  144.0490   73.5680  220.6050 C   0  0  0  0  0  0  0  0  0  0  0  0
  143.5860   74.8840  220.4630 C   0  0  0  0  0  0  0  0  0  0  0  0
  144.2802   75.6758  220.1448 H   0  0  0  0  0  0  0  0  0  0  0  0
  142.2480   75.1970  220.7230 C   0  0  0  0  0  0  0  0  0  0  0  0
  141.8885   76.2264  220.5780 H   0  0  0  0  0  0  0  0  0  0  0  0
  141.3600   74.2020  221.1690 C   0  0  0  0  0  0  0  0  0  0  0  0
  139.9720   74.4770  221.4210 N   0  0  0  0  0  0  0  0  0  0  0  0
  139.4700   75.5900  221.8730 C   0  0  0  0  0  0  0  0  0  0  0  0
  140.2660   76.6470  222.1900 N   0  0  0  0  0  0  0  0  0  0  0  0
  139.7590   77.8070  222.6890 C   0  0  0  0  0  0  0  0  0  0  0  0
  140.6810   78.9280  223.0070 C   0  0  0  0  0  0  0  0  0  0  0  0
  142.0680   78.7660  222.8250 C   0  0  0  0  0  0  0  0  0  0  0  0
  142.4600   77.8123  222.4419 H   0  0  0  0  0  0  0  0  0  0  0  0
  142.9510   79.8070  223.1270 C   0  0  0  0  0  0  0  0  0  0  0  0
  144.0320   79.6708  222.9758 H   0  0  0  0  0  0  0  0  0  0  0  0
  142.4640   81.0190  223.6200 C   0  0  0  0  0  0  0  0  0  0  0  0
  143.1601   81.8382  223.8529 H   0  0  0  0  0  0  0  0  0  0  0  0
  141.0930   81.1900  223.8170 C   0  0  0  0  0  0  0  0  0  0  0  0
  140.7104   82.1437  224.2096 H   0  0  0  0  0  0  0  0  0  0  0  0
  140.2040   80.1530  223.5170 C   0  0  0  0  0  0  0  0  0  0  0  0
  139.1253   80.2939  223.6800 H   0  0  0  0  0  0  0  0  0  0  0  0
  138.3710   77.9110  222.8740 C   0  0  0  0  0  0  0  0  0  0  0  0
  137.9251   78.8389  223.2617 H   0  0  0  0  0  0  0  0  0  0  0  0
  137.5690   76.8160  222.5570 C   0  0  0  0  0  0  0  0  0  0  0  0
  136.4801   76.8726  222.7026 H   0  0  0  0  0  0  0  0  0  0  0  0
  138.1290   75.6800  222.0690 N   0  0  0  0  0  0  0  0  0  0  0  0
  141.8210   72.8870  221.3060 C   0  0  0  0  0  0  0  0  0  0  0  0
  141.1256   72.0948  221.6205 H   0  0  0  0  0  0  0  0  0  0  0  0
  143.1590   72.5730  221.0460 C   0  0  0  0  0  0  0  0  0  0  0  0
  143.5167   71.5424  221.1873 H   0  0  0  0  0  0  0  0  0  0  0  0
  1  2  1  0
  2  3  1  0
  3  4  1  0
  4  5  1  0
  5  6  1  0
  5  7  1  0
  7  8  1  0
  7  9  1  0
  7 10  1  0
  5 11  1  0
 11 12  1  0
 11 13  1  0
 11 14  1  0
  3 15  2  0
 15 16  1  0
 15 17  1  0
 17 18  2  0
 18 19  1  0
 18 20  1  0
 20 21  1  0
 20 22  2  0
 22 23  1  0
 23 24  2  0
 24 25  1  0
 25 26  2  0
 26 27  1  0
 27 28  2  0
 28 29  1  0
 28 30  1  0
 30 31  1  0
 30 32  2  0
 32 33  1  0
 32 34  1  0
 34 35  1  0
 34 36  2  0
 36 37  1  0
 26 38  1  0
 38 39  1  0
 38 40  2  0
 40 41  1  0
 40 42  1  0
 22 43  1  0
 43 44  1  0
 43 45  2  0
 45 46  1  0
 45 17  1  0
 42 24  1  0
 36 27  1  0
M  CHG  2   4  -1  42  -1
M  END
>  <UniqueID>  (23) 
33

>  <SMILES>  (23) 
CC(C)[N-]/C(O)=C\c1ccc(/N=c2\nc(-c3ccccc3)cc[n-]2)cc1

>  <Energy>  (23) 
56.11859129716522

>  <Genealogy>  (23) 
CC(C)[N-]C(=O)Cc1ccc(N=c2nc(-c3ccccc3)cc[n-]2)cc1 (protonated)
CC(C)[N-]C(O)=Cc1ccc(N=c2nc(-c3ccccc3)cc[n-]2)cc1 (tautomer)
CC(C)[N-]/C(O)=C\c1ccc(/N=c2\nc(-c3ccccc3)cc[n-]2)cc1 (cis-trans isomerization)
CC(C)[N-]/C(O)=C\c1ccc(/N=c2\nc(-c3ccccc3)cc[n-]2)cc1 (3D coordinates assigned)
CC(C)[N-]/C(O)=C\c1ccc(/N=c2\nc(-c3ccccc3)cc[n-]2)cc1 (optimized conformer: 56.11859129716522 kcal/mol)

>  <smiles>  (23) 
CC(C)NC(=O)Cc1ccc(N=c2nc(-c3ccccc3)cc[nH]2)cc1

>  <score_type>  (23) 
oracle

>  <origin>  (23) 
autodockgpu

>  <m_score__min__energy>  (23) 
-8.1699999999999999

>  <m_primary>  (23) 
energy

>  <meeko>  (23) 
{"free_energy": -7.72, "intermolecular_energy": -10.11, "internal_energy": -0.99, "cluster_size": 4, "cluster_id": 3, "rank_in_cluster": 1}

>  <energy>  (23) 
-8.08

>  <cluster_rmsd>  (23) 
0.31

>  <rmsd>  (23) 
271.74

>  <cluster>  (23) 
1

$$$$
QCIVYEKZXQJEGX-QMMWQUDZNA-N
     RDKit          3D

 46 48  0  0  0  0  0  0  0  0999 V2000
  145.8730   74.2960  218.0230 H   0  0  0  0  0  0  0  0  0  0  0  0
  146.2090   73.3510  218.1700 O   0  0  0  0  0  0  0  0  0  0  0  0
  145.9530   72.6490  219.3490 C   0  0  0  0  0  0  0  0  0  0  0  0
  146.3100   71.2650  219.4320 N   0  0  0  0  0  0  0  0  0  0  0  0
  145.7740   70.2340  218.5470 C   0  0  0  0  0  0  0  0  0  0  0  0
  146.4589   70.0798  217.7001 H   0  0  0  0  0  0  0  0  0  0  0  0
  145.6370   68.9280  219.3280 C   0  0  0  0  0  0  0  0  0  0  0  0
  145.6594   69.1418  220.4068 H   0  0  0  0  0  0  0  0  0  0  0  0
  144.6832   68.4447  219.0698 H   0  0  0  0  0  0  0  0  0  0  0  0
  146.4697   68.2573  219.0698 H   0  0  0  0  0  0  0  0  0  0  0  0
  144.4170   70.6720  217.9900 C   0  0  0  0  0  0  0  0  0  0  0  0
  143.7329   70.8928  218.8226 H   0  0  0  0  0  0  0  0  0  0  0  0
  144.5474   71.5737  217.3736 H   0  0  0  0  0  0  0  0  0  0  0  0
  143.9957   69.8642  217.3736 H   0  0  0  0  0  0  0  0  0  0  0  0
  145.3540   73.2670  220.3780 C   0  0  0  0  0  0  0  0  0  0  0  0
  145.9778   73.8920  221.0340 H   0  0  0  0  0  0  0  0  0  0  0  0
  143.9100   73.1650  220.6910 C   0  0  0  0  0  0  0  0  0  0  0  0
  143.1600   74.3430  220.8200 C   0  0  0  0  0  0  0  0  0  0  0  0
  143.6452   75.3186  220.6692 H   0  0  0  0  0  0  0  0  0  0  0  0
  141.8000   74.2860  221.1390 C   0  0  0  0  0  0  0  0  0  0  0  0
  141.2142   75.2146  221.2058 H   0  0  0  0  0  0  0  0  0  0  0  0
  141.1770   73.0470  221.3750 C   0  0  0  0  0  0  0  0  0  0  0  0
  139.7760   72.9450  221.6790 N   0  0  0  0  0  0  0  0  0  0  0  0
  139.2220   72.1250  222.5240 C   0  0  0  0  0  0  0  0  0  0  0  0
  139.8090   71.8370  223.7180 N   0  0  0  0  0  0  0  0  0  0  0  0
  139.2550   70.9610  224.6000 C   0  0  0  0  0  0  0  0  0  0  0  0
  139.9420   70.6960  225.8900 C   0  0  0  0  0  0  0  0  0  0  0  0
  140.0590   69.3750  226.3630 C   0  0  0  0  0  0  0  0  0  0  0  0
  139.6465   68.5453  225.7701 H   0  0  0  0  0  0  0  0  0  0  0  0
  140.6950   69.1080  227.5800 C   0  0  0  0  0  0  0  0  0  0  0  0
  140.7849   68.0715  227.9372 H   0  0  0  0  0  0  0  0  0  0  0  0
  141.2160   70.1560  228.3420 C   0  0  0  0  0  0  0  0  0  0  0  0
  141.7209   69.9442  229.2960 H   0  0  0  0  0  0  0  0  0  0  0  0
  141.0960   71.4720  227.8930 C   0  0  0  0  0  0  0  0  0  0  0  0
  141.5010   72.2969  228.4976 H   0  0  0  0  0  0  0  0  0  0  0  0
  140.4620   71.7450  226.6760 C   0  0  0  0  0  0  0  0  0  0  0  0
  140.3686   72.7850  226.3299 H   0  0  0  0  0  0  0  0  0  0  0  0
  138.0390   70.3440  224.2640 C   0  0  0  0  0  0  0  0  0  0  0  0
  137.5565   69.6407  224.9587 H   0  0  0  0  0  0  0  0  0  0  0  0
  137.4550   70.6400  223.0330 C   0  0  0  0  0  0  0  0  0  0  0  0
  136.5058   70.1635  222.7465 H   0  0  0  0  0  0  0  0  0  0  0  0
  138.0560   71.5150  222.1880 N   0  0  0  0  0  0  0  0  0  0  0  0
  141.9250   71.8710  221.2420 C   0  0  0  0  0  0  0  0  0  0  0  0
  141.4390   70.8954  221.3904 H   0  0  0  0  0  0  0  0  0  0  0  0
  143.2850   71.9270  220.9220 C   0  0  0  0  0  0  0  0  0  0  0  0
  143.8690   70.9975  220.8506 H   0  0  0  0  0  0  0  0  0  0  0  0
  1  2  1  0
  2  3  1  0
  3  4  1  0
  4  5  1  0
  5  6  1  0
  5  7  1  0
  7  8  1  0
  7  9  1  0
  7 10  1  0
  5 11  1  0
 11 12  1  0
 11 13  1  0
 11 14  1  0
  3 15  2  0
 15 16  1  0
 15 17  1  0
 17 18  2  0
 18 19  1  0
 18 20  1  0
 20 21  1  0
 20 22  2  0
 22 23  1  0
 23 24  2  0
 24 25  1  0
 25 26  2  0
 26 27  1  0
 27 28  2  0
 28 29  1  0
 28 30  1  0
 30 31  1  0
 30 32  2  0
 32 33  1  0
 32 34  1  0
 34 35  1  0
 34 36  2  0
 36 37  1  0
 26 38  1  0
 38 39  1  0
 38 40  2  0
 40 41  1  0
 40 42  1  0
 22 43  1  0
 43 44  1  0
 43 45  2  0
 45 46  1  0
 45 17  1  0
 42 24  1  0
 36 27  1  0
M  CHG  2   4  -1  42  -1
M  END
>  <UniqueID>  (24) 
33

>  <SMILES>  (24) 
CC(C)[N-]/C(O)=C\c1ccc(/N=c2\nc(-c3ccccc3)cc[n-]2)cc1

>  <Energy>  (24) 
56.11859129716522

>  <Genealogy>  (24) 
CC(C)[N-]C(=O)Cc1ccc(N=c2nc(-c3ccccc3)cc[n-]2)cc1 (protonated)
CC(C)[N-]C(O)=Cc1ccc(N=c2nc(-c3ccccc3)cc[n-]2)cc1 (tautomer)
CC(C)[N-]/C(O)=C\c1ccc(/N=c2\nc(-c3ccccc3)cc[n-]2)cc1 (cis-trans isomerization)
CC(C)[N-]/C(O)=C\c1ccc(/N=c2\nc(-c3ccccc3)cc[n-]2)cc1 (3D coordinates assigned)
CC(C)[N-]/C(O)=C\c1ccc(/N=c2\nc(-c3ccccc3)cc[n-]2)cc1 (optimized conformer: 56.11859129716522 kcal/mol)

>  <smiles>  (24) 
CC(C)NC(=O)Cc1ccc(N=c2nc(-c3ccccc3)cc[nH]2)cc1

>  <score_type>  (24) 
oracle

>  <origin>  (24) 
autodockgpu

>  <m_score__min__energy>  (24) 
-8.1699999999999999

>  <m_primary>  (24) 
energy

>  <meeko>  (24) 
{"free_energy": -7.9, "intermolecular_energy": -10.28, "internal_energy": -1.05, "cluster_size": 15, "cluster_id": 1, "rank_in_cluster": 11}

>  <energy>  (24) 
-8.02

>  <cluster_rmsd>  (24) 
0.88

>  <rmsd>  (24) 
271.61

>  <cluster>  (24) 
1

$$$$
QCIVYEKZXQJEGX-QMMWQUDZNA-N
     RDKit          3D

 46 48  0  0  0  0  0  0  0  0999 V2000
  146.1470   72.0140  221.8820 H   0  0  0  0  0  0  0  0  0  0  0  0
  146.3620   72.6470  221.1200 O   0  0  0  0  0  0  0  0  0  0  0  0
  145.8360   72.4730  219.8390 C   0  0  0  0  0  0  0  0  0  0  0  0
  146.3140   71.3970  219.0250 N   0  0  0  0  0  0  0  0  0  0  0  0
  145.4560   70.3470  218.4840 C   0  0  0  0  0  0  0  0  0  0  0  0
  144.8796   70.7414  217.6342 H   0  0  0  0  0  0  0  0  0  0  0  0
  146.3280   69.1870  218.0060 C   0  0  0  0  0  0  0  0  0  0  0  0
  146.7322   68.6493  218.8763 H   0  0  0  0  0  0  0  0  0  0  0  0
  145.7219   68.4986  217.3988 H   0  0  0  0  0  0  0  0  0  0  0  0
  147.1577   69.5780  217.3988 H   0  0  0  0  0  0  0  0  0  0  0  0
  144.4660   69.8720  219.5510 C   0  0  0  0  0  0  0  0  0  0  0  0
  144.8805   70.0709  220.5503 H   0  0  0  0  0  0  0  0  0  0  0  0
  143.5146   70.4117  219.4346 H   0  0  0  0  0  0  0  0  0  0  0  0
  144.2916   68.7922  219.4346 H   0  0  0  0  0  0  0  0  0  0  0  0
  144.9100   73.3270  219.3760 C   0  0  0  0  0  0  0  0  0  0  0  0
  145.1125   73.8343  218.4212 H   0  0  0  0  0  0  0  0  0  0  0  0
  143.6340   73.6330  220.0630 C   0  0  0  0  0  0  0  0  0  0  0  0
  142.9040   72.5810  220.6340 C   0  0  0  0  0  0  0  0  0  0  0  0
  143.2942   71.5539  220.5822 H   0  0  0  0  0  0  0  0  0  0  0  0
  141.6830   72.8290  221.2690 C   0  0  0  0  0  0  0  0  0  0  0  0
  141.1335   72.0009  221.7405 H   0  0  0  0  0  0  0  0  0  0  0  0
  141.1540   74.1310  221.3080 C   0  0  0  0  0  0  0  0  0  0  0  0
  139.9160   74.4300  221.9740 N   0  0  0  0  0  0  0  0  0  0  0  0
  139.4330   75.6130  222.2220 C   0  0  0  0  0  0  0  0  0  0  0  0
  140.2510   76.6680  222.4890 N   0  0  0  0  0  0  0  0  0  0  0  0
  139.7600   77.9050  222.7770 C   0  0  0  0  0  0  0  0  0  0  0  0
  140.7060   79.0170  223.0510 C   0  0  0  0  0  0  0  0  0  0  0  0
  142.0820   78.8410  222.8110 C   0  0  0  0  0  0  0  0  0  0  0  0
  142.4478   77.8821  222.4153 H   0  0  0  0  0  0  0  0  0  0  0  0
  142.9880   79.8740  223.0710 C   0  0  0  0  0  0  0  0  0  0  0  0
  144.0603   79.7264  222.8752 H   0  0  0  0  0  0  0  0  0  0  0  0
  142.5330   81.0930  223.5790 C   0  0  0  0  0  0  0  0  0  0  0  0
  143.2462   81.9061  223.7796 H   0  0  0  0  0  0  0  0  0  0  0  0
  141.1730   81.2790  223.8320 C   0  0  0  0  0  0  0  0  0  0  0  0
  140.8164   82.2382  224.2354 H   0  0  0  0  0  0  0  0  0  0  0  0
  140.2620   80.2490  223.5740 C   0  0  0  0  0  0  0  0  0  0  0  0
  139.1923   80.4012  223.7805 H   0  0  0  0  0  0  0  0  0  0  0  0
  138.3680   78.0910  222.7910 C   0  0  0  0  0  0  0  0  0  0  0  0
  137.9369   79.0799  223.0063 H   0  0  0  0  0  0  0  0  0  0  0  0
  137.5430   76.9990  222.5270 C   0  0  0  0  0  0  0  0  0  0  0  0
  136.4498   77.1205  222.5399 H   0  0  0  0  0  0  0  0  0  0  0  0
  138.0870   75.7860  222.2540 N   0  0  0  0  0  0  0  0  0  0  0  0
  141.8850   75.1820  220.7420 C   0  0  0  0  0  0  0  0  0  0  0  0
  141.4959   76.2094  220.7969 H   0  0  0  0  0  0  0  0  0  0  0  0
  143.1070   74.9350  220.1070 C   0  0  0  0  0  0  0  0  0  0  0  0
  143.6582   75.7644  219.6397 H   0  0  0  0  0  0  0  0  0  0  0  0
  1  2  1  0
  2  3  1  0
  3  4  1  0
  4  5  1  0
  5  6  1  0
  5  7  1  0
  7  8  1  0
  7  9  1  0
  7 10  1  0
  5 11  1  0
 11 12  1  0
 11 13  1  0
 11 14  1  0
  3 15  2  0
 15 16  1  0
 15 17  1  0
 17 18  2  0
 18 19  1  0
 18 20  1  0
 20 21  1  0
 20 22  2  0
 22 23  1  0
 23 24  2  0
 24 25  1  0
 25 26  2  0
 26 27  1  0
 27 28  2  0
 28 29  1  0
 28 30  1  0
 30 31  1  0
 30 32  2  0
 32 33  1  0
 32 34  1  0
 34 35  1  0
 34 36  2  0
 36 37  1  0
 26 38  1  0
 38 39  1  0
 38 40  2  0
 40 41  1  0
 40 42  1  0
 22 43  1  0
 43 44  1  0
 43 45  2  0
 45 46  1  0
 45 17  1  0
 42 24  1  0
 36 27  1  0
M  CHG  2   4  -1  42  -1
M  END
>  <UniqueID>  (25) 
33

>  <SMILES>  (25) 
CC(C)[N-]/C(O)=C\c1ccc(/N=c2\nc(-c3ccccc3)cc[n-]2)cc1

>  <Energy>  (25) 
56.11859129716522

>  <Genealogy>  (25) 
CC(C)[N-]C(=O)Cc1ccc(N=c2nc(-c3ccccc3)cc[n-]2)cc1 (protonated)
CC(C)[N-]C(O)=Cc1ccc(N=c2nc(-c3ccccc3)cc[n-]2)cc1 (tautomer)
CC(C)[N-]/C(O)=C\c1ccc(/N=c2\nc(-c3ccccc3)cc[n-]2)cc1 (cis-trans isomerization)
CC(C)[N-]/C(O)=C\c1ccc(/N=c2\nc(-c3ccccc3)cc[n-]2)cc1 (3D coordinates assigned)
CC(C)[N-]/C(O)=C\c1ccc(/N=c2\nc(-c3ccccc3)cc[n-]2)cc1 (optimized conformer: 56.11859129716522 kcal/mol)

>  <smiles>  (25) 
CC(C)NC(=O)Cc1ccc(N=c2nc(-c3ccccc3)cc[nH]2)cc1

>  <score_type>  (25) 
oracle

>  <origin>  (25) 
autodockgpu

>  <m_score__min__energy>  (25) 
-8.1699999999999999

>  <m_primary>  (25) 
energy

>  <meeko>  (25) 
{"free_energy": -7.58, "intermolecular_energy": -9.97, "internal_energy": -0.93, "cluster_size": 4, "cluster_id": 3, "rank_in_cluster": 3}

>  <energy>  (25) 
-8.02

>  <cluster_rmsd>  (25) 
1.21

>  <rmsd>  (25) 
271.81

>  <cluster>  (25) 
1

$$$$
QCIVYEKZXQJEGX-QMMWQUDZNA-N
     RDKit          3D

 46 48  0  0  0  0  0  0  0  0999 V2000
  139.7040   66.5080  227.1080 H   0  0  0  0  0  0  0  0  0  0  0  0
  139.3230   67.0200  226.3210 O   0  0  0  0  0  0  0  0  0  0  0  0
  139.5580   68.3840  226.1390 C   0  0  0  0  0  0  0  0  0  0  0  0
  140.6950   68.9890  226.7640 N   0  0  0  0  0  0  0  0  0  0  0  0
  140.6380   69.7040  228.0350 C   0  0  0  0  0  0  0  0  0  0  0  0
  141.3423   69.2497  228.7475 H   0  0  0  0  0  0  0  0  0  0  0  0
  141.0260   71.1630  227.8040 C   0  0  0  0  0  0  0  0  0  0  0  0
  141.1595   71.6649  228.7737 H   0  0  0  0  0  0  0  0  0  0  0  0
  141.9670   71.2067  227.2360 H   0  0  0  0  0  0  0  0  0  0  0  0
  140.2310   71.6683  227.2360 H   0  0  0  0  0  0  0  0  0  0  0  0
  139.2300   69.6100  228.6300 C   0  0  0  0  0  0  0  0  0  0  0  0
  139.2949   69.6143  229.7281 H   0  0  0  0  0  0  0  0  0  0  0  0
  138.6320   70.4702  228.2947 H   0  0  0  0  0  0  0  0  0  0  0  0
  138.7517   68.6779  228.2947 H   0  0  0  0  0  0  0  0  0  0  0  0
  138.7050   69.1160  225.4060 C   0  0  0  0  0  0  0  0  0  0  0  0
  137.6378   68.8525  225.4457 H   0  0  0  0  0  0  0  0  0  0  0  0
  139.1040   70.2550  224.5470 C   0  0  0  0  0  0  0  0  0  0  0  0
  138.2550   70.6450  223.5020 C   0  0  0  0  0  0  0  0  0  0  0  0
  137.3019   70.1181  223.3472 H   0  0  0  0  0  0  0  0  0  0  0  0
  138.6110   71.6990  222.6550 C   0  0  0  0  0  0  0  0  0  0  0  0
  137.9228   72.0166  221.8578 H   0  0  0  0  0  0  0  0  0  0  0  0
  139.8440   72.3550  222.8170 C   0  0  0  0  0  0  0  0  0  0  0  0
  140.2340   73.4600  221.9850 N   0  0  0  0  0  0  0  0  0  0  0  0
  139.7370   74.6630  222.0070 C   0  0  0  0  0  0  0  0  0  0  0  0
  140.5310   75.7530  222.1880 N   0  0  0  0  0  0  0  0  0  0  0  0
  140.0210   77.0140  222.2390 C   0  0  0  0  0  0  0  0  0  0  0  0
  140.9430   78.1640  222.4300 C   0  0  0  0  0  0  0  0  0  0  0  0
  141.3320   78.9400  221.3220 C   0  0  0  0  0  0  0  0  0  0  0  0
  140.9454   78.6943  220.3219 H   0  0  0  0  0  0  0  0  0  0  0  0
  142.2060   80.0210  221.4810 C   0  0  0  0  0  0  0  0  0  0  0  0
  142.4987   80.6240  220.6088 H   0  0  0  0  0  0  0  0  0  0  0  0
  142.7070   80.3350  222.7460 C   0  0  0  0  0  0  0  0  0  0  0  0
  143.3908   81.1875  222.8708 H   0  0  0  0  0  0  0  0  0  0  0  0
  142.3400   79.5670  223.8520 C   0  0  0  0  0  0  0  0  0  0  0  0
  142.7389   79.8131  224.8472 H   0  0  0  0  0  0  0  0  0  0  0  0
  141.4670   78.4860  223.6990 C   0  0  0  0  0  0  0  0  0  0  0  0
  141.1868   77.8822  224.5747 H   0  0  0  0  0  0  0  0  0  0  0  0
  138.6360   77.1880  222.0960 C   0  0  0  0  0  0  0  0  0  0  0  0
  138.1922   78.1942  222.1191 H   0  0  0  0  0  0  0  0  0  0  0  0
  137.8330   76.0610  221.9240 C   0  0  0  0  0  0  0  0  0  0  0  0
  136.7439   76.1732  221.8174 H   0  0  0  0  0  0  0  0  0  0  0  0
  138.3940   74.8260  221.8880 N   0  0  0  0  0  0  0  0  0  0  0  0
  140.6900   71.9690  223.8630 C   0  0  0  0  0  0  0  0  0  0  0  0
  141.6413   72.4986  224.0193 H   0  0  0  0  0  0  0  0  0  0  0  0
  140.3350   70.9150  224.7110 C   0  0  0  0  0  0  0  0  0  0  0  0
  141.0222   70.6006  225.5103 H   0  0  0  0  0  0  0  0  0  0  0  0
  1  2  1  0
  2  3  1  0
  3  4  1  0
  4  5  1  0
  5  6  1  0
  5  7  1  0
  7  8  1  0
  7  9  1  0
  7 10  1  0
  5 11  1  0
 11 12  1  0
 11 13  1  0
 11 14  1  0
  3 15  2  0
 15 16  1  0
 15 17  1  0
 17 18  2  0
 18 19  1  0
 18 20  1  0
 20 21  1  0
 20 22  2  0
 22 23  1  0
 23 24  2  0
 24 25  1  0
 25 26  2  0
 26 27  1  0
 27 28  2  0
 28 29  1  0
 28 30  1  0
 30 31  1  0
 30 32  2  0
 32 33  1  0
 32 34  1  0
 34 35  1  0
 34 36  2  0
 36 37  1  0
 26 38  1  0
 38 39  1  0
 38 40  2  0
 40 41  1  0
 40 42  1  0
 22 43  1  0
 43 44  1  0
 43 45  2  0
 45 46  1  0
 45 17  1  0
 42 24  1  0
 36 27  1  0
M  CHG  2   4  -1  42  -1
M  END
>  <UniqueID>  (26) 
33

>  <SMILES>  (26) 
CC(C)[N-]/C(O)=C\c1ccc(/N=c2\nc(-c3ccccc3)cc[n-]2)cc1

>  <Energy>  (26) 
56.11859129716522

>  <Genealogy>  (26) 
CC(C)[N-]C(=O)Cc1ccc(N=c2nc(-c3ccccc3)cc[n-]2)cc1 (protonated)
CC(C)[N-]C(O)=Cc1ccc(N=c2nc(-c3ccccc3)cc[n-]2)cc1 (tautomer)
CC(C)[N-]/C(O)=C\c1ccc(/N=c2\nc(-c3ccccc3)cc[n-]2)cc1 (cis-trans isomerization)
CC(C)[N-]/C(O)=C\c1ccc(/N=c2\nc(-c3ccccc3)cc[n-]2)cc1 (3D coordinates assigned)
CC(C)[N-]/C(O)=C\c1ccc(/N=c2\nc(-c3ccccc3)cc[n-]2)cc1 (optimized conformer: 56.11859129716522 kcal/mol)

>  <smiles>  (26) 
CC(C)NC(=O)Cc1ccc(N=c2nc(-c3ccccc3)cc[nH]2)cc1

>  <score_type>  (26) 
oracle

>  <origin>  (26) 
autodockgpu

>  <m_score__min__energy>  (26) 
-8.1699999999999999

>  <m_primary>  (26) 
energy

>  <meeko>  (26) 
{"free_energy": -7.95, "intermolecular_energy": -10.33, "internal_energy": -0.79, "cluster_size": 1, "cluster_id": 2, "rank_in_cluster": 1}

>  <energy>  (26) 
-8.02

>  <cluster_rmsd>  (26) 
0.33

>  <rmsd>  (26) 
271.73

>  <cluster>  (26) 
1

$$$$
QCIVYEKZXQJEGX-QMMWQUDZNA-N
     RDKit          3D

 46 48  0  0  0  0  0  0  0  0999 V2000
  145.9750   74.3380  217.6670 H   0  0  0  0  0  0  0  0  0  0  0  0
  146.1980   73.3710  217.8760 O   0  0  0  0  0  0  0  0  0  0  0  0
  145.9430   72.8050  219.1260 C   0  0  0  0  0  0  0  0  0  0  0  0
  146.1990   71.4110  219.3300 N   0  0  0  0  0  0  0  0  0  0  0  0
  145.7570   70.3630  218.4150 C   0  0  0  0  0  0  0  0  0  0  0  0
  146.3481   70.4061  217.4883 H   0  0  0  0  0  0  0  0  0  0  0  0
  145.9620   69.0030  219.0780 C   0  0  0  0  0  0  0  0  0  0  0  0
  145.9441   69.1217  220.1714 H   0  0  0  0  0  0  0  0  0  0  0  0
  145.1567   68.3199  218.7701 H   0  0  0  0  0  0  0  0  0  0  0  0
  146.9329   68.5876  218.7701 H   0  0  0  0  0  0  0  0  0  0  0  0
  144.2840   70.5690  218.0500 C   0  0  0  0  0  0  0  0  0  0  0  0
  143.6865   70.6526  218.9698 H   0  0  0  0  0  0  0  0  0  0  0  0
  144.1781   71.4907  217.4590 H   0  0  0  0  0  0  0  0  0  0  0  0
  143.9293   69.7117  217.4590 H   0  0  0  0  0  0  0  0  0  0  0  0
  145.4400   73.5630  220.1130 C   0  0  0  0  0  0  0  0  0  0  0  0
  146.1134   74.2830  220.6011 H   0  0  0  0  0  0  0  0  0  0  0  0
  144.0390   73.4950  220.5890 C   0  0  0  0  0  0  0  0  0  0  0  0
  143.4830   72.2410  220.8820 C   0  0  0  0  0  0  0  0  0  0  0  0
  144.0953   71.3336  220.7741 H   0  0  0  0  0  0  0  0  0  0  0  0
  142.1570   72.1360  221.3100 C   0  0  0  0  0  0  0  0  0  0  0  0
  141.7413   71.1505  221.5669 H   0  0  0  0  0  0  0  0  0  0  0  0
  141.3510   73.2840  221.4140 C   0  0  0  0  0  0  0  0  0  0  0  0
  139.9920   73.2210  221.8770 N   0  0  0  0  0  0  0  0  0  0  0  0
  139.4490   72.2590  222.5650 C   0  0  0  0  0  0  0  0  0  0  0  0
  139.9480   71.8870  223.7750 N   0  0  0  0  0  0  0  0  0  0  0  0
  139.4070   70.8650  224.4940 C   0  0  0  0  0  0  0  0  0  0  0  0
  139.9930   70.5150  225.8140 C   0  0  0  0  0  0  0  0  0  0  0  0
  140.4780   71.5330  226.6560 C   0  0  0  0  0  0  0  0  0  0  0  0
  140.4149   72.5831  226.3346 H   0  0  0  0  0  0  0  0  0  0  0  0
  141.0400   71.2200  227.8990 C   0  0  0  0  0  0  0  0  0  0  0  0
  141.4114   72.0238  228.5516 H   0  0  0  0  0  0  0  0  0  0  0  0
  141.1300   69.8900  228.3120 C   0  0  0  0  0  0  0  0  0  0  0  0
  141.5674   69.6465  229.2915 H   0  0  0  0  0  0  0  0  0  0  0  0
  140.6650   68.8690  227.4820 C   0  0  0  0  0  0  0  0  0  0  0  0
  140.7423   67.8208  227.8065 H   0  0  0  0  0  0  0  0  0  0  0  0
  140.1010   69.1740  226.2390 C   0  0  0  0  0  0  0  0  0  0  0  0
  139.7395   68.3636  225.5889 H   0  0  0  0  0  0  0  0  0  0  0  0
  138.3000   70.1820  223.9660 C   0  0  0  0  0  0  0  0  0  0  0  0
  137.8304   69.3592  224.5251 H   0  0  0  0  0  0  0  0  0  0  0  0
  137.8070   70.5660  222.7200 C   0  0  0  0  0  0  0  0  0  0  0  0
  136.9441   70.0405  222.2850 H   0  0  0  0  0  0  0  0  0  0  0  0
  138.3900   71.5870  222.0430 N   0  0  0  0  0  0  0  0  0  0  0  0
  141.9070   74.5360  221.1270 C   0  0  0  0  0  0  0  0  0  0  0  0
  141.2954   75.4435  221.2390 H   0  0  0  0  0  0  0  0  0  0  0  0
  143.2340   74.6420  220.6990 C   0  0  0  0  0  0  0  0  0  0  0  0
  143.6502   75.6285  220.4470 H   0  0  0  0  0  0  0  0  0  0  0  0
  1  2  1  0
  2  3  1  0
  3  4  1  0
  4  5  1  0
  5  6  1  0
  5  7  1  0
  7  8  1  0
  7  9  1  0
  7 10  1  0
  5 11  1  0
 11 12  1  0
 11 13  1  0
 11 14  1  0
  3 15  2  0
 15 16  1  0
 15 17  1  0
 17 18  2  0
 18 19  1  0
 18 20  1  0
 20 21  1  0
 20 22  2  0
 22 23  1  0
 23 24  2  0
 24 25  1  0
 25 26  2  0
 26 27  1  0
 27 28  2  0
 28 29  1  0
 28 30  1  0
 30 31  1  0
 30 32  2  0
 32 33  1  0
 32 34  1  0
 34 35  1  0
 34 36  2  0
 36 37  1  0
 26 38  1  0
 38 39  1  0
 38 40  2  0
 40 41  1  0
 40 42  1  0
 22 43  1  0
 43 44  1  0
 43 45  2  0
 45 46  1  0
 45 17  1  0
 42 24  1  0
 36 27  1  0
M  CHG  2   4  -1  42  -1
M  END
>  <UniqueID>  (27) 
33

>  <SMILES>  (27) 
CC(C)[N-]/C(O)=C\c1ccc(/N=c2\nc(-c3ccccc3)cc[n-]2)cc1

>  <Energy>  (27) 
56.11859129716522

>  <Genealogy>  (27) 
CC(C)[N-]C(=O)Cc1ccc(N=c2nc(-c3ccccc3)cc[n-]2)cc1 (protonated)
CC(C)[N-]C(O)=Cc1ccc(N=c2nc(-c3ccccc3)cc[n-]2)cc1 (tautomer)
CC(C)[N-]/C(O)=C\c1ccc(/N=c2\nc(-c3ccccc3)cc[n-]2)cc1 (cis-trans isomerization)
CC(C)[N-]/C(O)=C\c1ccc(/N=c2\nc(-c3ccccc3)cc[n-]2)cc1 (3D coordinates assigned)
CC(C)[N-]/C(O)=C\c1ccc(/N=c2\nc(-c3ccccc3)cc[n-]2)cc1 (optimized conformer: 56.11859129716522 kcal/mol)

>  <smiles>  (27) 
CC(C)NC(=O)Cc1ccc(N=c2nc(-c3ccccc3)cc[nH]2)cc1

>  <score_type>  (27) 
oracle

>  <origin>  (27) 
autodockgpu

>  <m_score__min__energy>  (27) 
-8.1699999999999999

>  <m_primary>  (27) 
energy

>  <meeko>  (27) 
{"free_energy": -8.08, "intermolecular_energy": -10.47, "internal_energy": -1.01, "cluster_size": 15, "cluster_id": 1, "rank_in_cluster": 3}

>  <energy>  (27) 
-8.01

>  <cluster_rmsd>  (27) 
1.17

>  <rmsd>  (27) 
271.73

>  <cluster>  (27) 
1

$$$$
QCIVYEKZXQJEGX-QMMWQUDZNA-N
     RDKit          3D

 46 48  0  0  0  0  0  0  0  0999 V2000
  146.1320   71.9160  221.0680 H   0  0  0  0  0  0  0  0  0  0  0  0
  146.4480   72.5810  220.3710 O   0  0  0  0  0  0  0  0  0  0  0  0
  145.6850   72.8950  219.2450 C   0  0  0  0  0  0  0  0  0  0  0  0
  145.9470   72.2200  218.0100 N   0  0  0  0  0  0  0  0  0  0  0  0
  145.5400   70.8460  217.7340 C   0  0  0  0  0  0  0  0  0  0  0  0
  146.0080   70.5014  216.8001 H   0  0  0  0  0  0  0  0  0  0  0  0
  145.9950   69.9510  218.8850 C   0  0  0  0  0  0  0  0  0  0  0  0
  145.7500   70.4328  219.8430 H   0  0  0  0  0  0  0  0  0  0  0  0
  145.4807   68.9808  218.8204 H   0  0  0  0  0  0  0  0  0  0  0  0
  147.0819   69.7948  218.8204 H   0  0  0  0  0  0  0  0  0  0  0  0
  144.0210   70.7700  217.5600 C   0  0  0  0  0  0  0  0  0  0  0  0
  143.5394   70.7459  218.5487 H   0  0  0  0  0  0  0  0  0  0  0  0
  143.6711   71.6518  217.0031 H   0  0  0  0  0  0  0  0  0  0  0  0
  143.7609   69.8577  217.0031 H   0  0  0  0  0  0  0  0  0  0  0  0
  144.7340   73.8390  219.3250 C   0  0  0  0  0  0  0  0  0  0  0  0
  144.9033   74.7842  218.7884 H   0  0  0  0  0  0  0  0  0  0  0  0
  143.4720   73.6940  220.0870 C   0  0  0  0  0  0  0  0  0  0  0  0
  142.7360   74.8450  220.4030 C   0  0  0  0  0  0  0  0  0  0  0  0
  143.0918   75.8302  220.0672 H   0  0  0  0  0  0  0  0  0  0  0  0
  141.5530   74.7490  221.1420 C   0  0  0  0  0  0  0  0  0  0  0  0
  140.9670   75.6546  221.3575 H   0  0  0  0  0  0  0  0  0  0  0  0
  141.1090   73.5000  221.6110 C   0  0  0  0  0  0  0  0  0  0  0  0
  139.8840   73.3570  222.3500 N   0  0  0  0  0  0  0  0  0  0  0  0
  139.4120   72.2590  222.8660 C   0  0  0  0  0  0  0  0  0  0  0  0
  139.8920   71.7660  224.0410 N   0  0  0  0  0  0  0  0  0  0  0  0
  139.4270   70.6050  224.5780 C   0  0  0  0  0  0  0  0  0  0  0  0
  139.9870   70.1260  225.8680 C   0  0  0  0  0  0  0  0  0  0  0  0
  140.5310   71.0490  226.7810 C   0  0  0  0  0  0  0  0  0  0  0  0
  140.5321   72.1215  226.5364 H   0  0  0  0  0  0  0  0  0  0  0  0
  141.0700   70.6150  227.9960 C   0  0  0  0  0  0  0  0  0  0  0  0
  141.4885   71.3461  228.7034 H   0  0  0  0  0  0  0  0  0  0  0  0
  141.0780   69.2550  228.3130 C   0  0  0  0  0  0  0  0  0  0  0  0
  141.4985   68.9155  229.2711 H   0  0  0  0  0  0  0  0  0  0  0  0
  140.5520   68.3270  227.4130 C   0  0  0  0  0  0  0  0  0  0  0  0
  140.5622   67.2555  227.6617 H   0  0  0  0  0  0  0  0  0  0  0  0
  140.0120   68.7550  226.1960 C   0  0  0  0  0  0  0  0  0  0  0  0
  139.6039   68.0169  225.4898 H   0  0  0  0  0  0  0  0  0  0  0  0
  138.4180   69.9040  223.8990 C   0  0  0  0  0  0  0  0  0  0  0  0
  138.0086   68.9701  224.3117 H   0  0  0  0  0  0  0  0  0  0  0  0
  137.9450   70.4150  222.6910 C   0  0  0  0  0  0  0  0  0  0  0  0
  137.1604   69.8779  222.1378 H   0  0  0  0  0  0  0  0  0  0  0  0
  138.4500   71.5730  222.1960 N   0  0  0  0  0  0  0  0  0  0  0  0
  141.8410   72.3510  221.2920 C   0  0  0  0  0  0  0  0  0  0  0  0
  141.4831   71.3657  221.6251 H   0  0  0  0  0  0  0  0  0  0  0  0
  143.0240   72.4460  220.5530 C   0  0  0  0  0  0  0  0  0  0  0  0
  143.6072   71.5392  220.3351 H   0  0  0  0  0  0  0  0  0  0  0  0
  1  2  1  0
  2  3  1  0
  3  4  1  0
  4  5  1  0
  5  6  1  0
  5  7  1  0
  7  8  1  0
  7  9  1  0
  7 10  1  0
  5 11  1  0
 11 12  1  0
 11 13  1  0
 11 14  1  0
  3 15  2  0
 15 16  1  0
 15 17  1  0
 17 18  2  0
 18 19  1  0
 18 20  1  0
 20 21  1  0
 20 22  2  0
 22 23  1  0
 23 24  2  0
 24 25  1  0
 25 26  2  0
 26 27  1  0
 27 28  2  0
 28 29  1  0
 28 30  1  0
 30 31  1  0
 30 32  2  0
 32 33  1  0
 32 34  1  0
 34 35  1  0
 34 36  2  0
 36 37  1  0
 26 38  1  0
 38 39  1  0
 38 40  2  0
 40 41  1  0
 40 42  1  0
 22 43  1  0
 43 44  1  0
 43 45  2  0
 45 46  1  0
 45 17  1  0
 42 24  1  0
 36 27  1  0
M  CHG  2   4  -1  42  -1
M  END
>  <UniqueID>  (28) 
33

>  <SMILES>  (28) 
CC(C)[N-]/C(O)=C\c1ccc(/N=c2\nc(-c3ccccc3)cc[n-]2)cc1

>  <Energy>  (28) 
56.11859129716522

>  <Genealogy>  (28) 
CC(C)[N-]C(=O)Cc1ccc(N=c2nc(-c3ccccc3)cc[n-]2)cc1 (protonated)
CC(C)[N-]C(O)=Cc1ccc(N=c2nc(-c3ccccc3)cc[n-]2)cc1 (tautomer)
CC(C)[N-]/C(O)=C\c1ccc(/N=c2\nc(-c3ccccc3)cc[n-]2)cc1 (cis-trans isomerization)
CC(C)[N-]/C(O)=C\c1ccc(/N=c2\nc(-c3ccccc3)cc[n-]2)cc1 (3D coordinates assigned)
CC(C)[N-]/C(O)=C\c1ccc(/N=c2\nc(-c3ccccc3)cc[n-]2)cc1 (optimized conformer: 56.11859129716522 kcal/mol)

>  <smiles>  (28) 
CC(C)NC(=O)Cc1ccc(N=c2nc(-c3ccccc3)cc[nH]2)cc1

>  <score_type>  (28) 
oracle

>  <origin>  (28) 
autodockgpu

>  <m_score__min__energy>  (28) 
-8.1699999999999999

>  <m_primary>  (28) 
energy

>  <meeko>  (28) 
{"free_energy": -8.01, "intermolecular_energy": -10.39, "internal_energy": -1.01, "cluster_size": 15, "cluster_id": 1, "rank_in_cluster": 7}

>  <energy>  (28) 
-8.01

>  <cluster_rmsd>  (28) 
1.22

>  <rmsd>  (28) 
271.84

>  <cluster>  (28) 
1

$$$$
QCIVYEKZXQJEGX-QMMWQUDZNA-N
     RDKit          3D

 46 48  0  0  0  0  0  0  0  0999 V2000
  145.8490   74.3980  217.9180 H   0  0  0  0  0  0  0  0  0  0  0  0
  145.9970   73.3970  217.9780 O   0  0  0  0  0  0  0  0  0  0  0  0
  145.9250   72.7090  219.1910 C   0  0  0  0  0  0  0  0  0  0  0  0
  146.3030   71.3290  219.2380 N   0  0  0  0  0  0  0  0  0  0  0  0
  145.6880   70.2920  218.4140 C   0  0  0  0  0  0  0  0  0  0  0  0
  146.1209   70.3164  217.4031 H   0  0  0  0  0  0  0  0  0  0  0  0
  145.9600   68.9280  219.0450 C   0  0  0  0  0  0  0  0  0  0  0  0
  145.9415   69.0207  220.1409 H   0  0  0  0  0  0  0  0  0  0  0  0
  145.1864   68.2148  218.7243 H   0  0  0  0  0  0  0  0  0  0  0  0
  146.9480   68.5661  218.7243 H   0  0  0  0  0  0  0  0  0  0  0  0
  144.1820   70.5390  218.2920 C   0  0  0  0  0  0  0  0  0  0  0  0
  143.7398   70.6115  219.2966 H   0  0  0  0  0  0  0  0  0  0  0  0
  144.0075   71.4778  217.7459 H   0  0  0  0  0  0  0  0  0  0  0  0
  143.7167   69.7052  217.7459 H   0  0  0  0  0  0  0  0  0  0  0  0
  145.4820   73.3380  220.2910 C   0  0  0  0  0  0  0  0  0  0  0  0
  146.2150   73.8929  220.8950 H   0  0  0  0  0  0  0  0  0  0  0  0
  144.0730   73.3350  220.7460 C   0  0  0  0  0  0  0  0  0  0  0  0
  143.4970   72.1250  221.1580 C   0  0  0  0  0  0  0  0  0  0  0  0
  144.0999   71.2049  221.1563 H   0  0  0  0  0  0  0  0  0  0  0  0
  142.1620   72.0790  221.5710 C   0  0  0  0  0  0  0  0  0  0  0  0
  141.7299   71.1302  221.9218 H   0  0  0  0  0  0  0  0  0  0  0  0
  141.3690   73.2400  221.5400 C   0  0  0  0  0  0  0  0  0  0  0  0
  140.0010   73.2400  221.9810 N   0  0  0  0  0  0  0  0  0  0  0  0
  139.4120   72.3170  222.6850 C   0  0  0  0  0  0  0  0  0  0  0  0
  139.9290   71.8960  223.8720 N   0  0  0  0  0  0  0  0  0  0  0  0
  139.3390   70.9130  224.6060 C   0  0  0  0  0  0  0  0  0  0  0  0
  139.9480   70.5040  225.8980 C   0  0  0  0  0  0  0  0  0  0  0  0
  140.5000   71.4790  226.7500 C   0  0  0  0  0  0  0  0  0  0  0  0
  140.4710   72.5388  226.4568 H   0  0  0  0  0  0  0  0  0  0  0  0
  141.0850   71.1120  227.9660 C   0  0  0  0  0  0  0  0  0  0  0  0
  141.5081   71.8831  228.6267 H   0  0  0  0  0  0  0  0  0  0  0  0
  141.1330   69.7680  228.3430 C   0  0  0  0  0  0  0  0  0  0  0  0
  141.5896   69.4812  229.3018 H   0  0  0  0  0  0  0  0  0  0  0  0
  140.6010   68.7890  227.5020 C   0  0  0  0  0  0  0  0  0  0  0  0
  140.6436   67.7303  227.7974 H   0  0  0  0  0  0  0  0  0  0  0  0
  140.0140   69.1500  226.2850 C   0  0  0  0  0  0  0  0  0  0  0  0
  139.6012   68.3724  225.6255 H   0  0  0  0  0  0  0  0  0  0  0  0
  138.1590   70.3250  224.1210 C   0  0  0  0  0  0  0  0  0  0  0  0
  137.6480   69.5377  224.6946 H   0  0  0  0  0  0  0  0  0  0  0  0
  137.6480   70.7590  222.8980 C   0  0  0  0  0  0  0  0  0  0  0  0
  136.7296   70.3071  222.4952 H   0  0  0  0  0  0  0  0  0  0  0  0
  138.2820   71.7380  222.2040 N   0  0  0  0  0  0  0  0  0  0  0  0
  141.9450   74.4490  221.1320 C   0  0  0  0  0  0  0  0  0  0  0  0
  141.3424   75.3692  221.1357 H   0  0  0  0  0  0  0  0  0  0  0  0
  143.2800   74.4960  220.7200 C   0  0  0  0  0  0  0  0  0  0  0  0
  143.7125   75.4463  220.3736 H   0  0  0  0  0  0  0  0  0  0  0  0
  1  2  1  0
  2  3  1  0
  3  4  1  0
  4  5  1  0
  5  6  1  0
  5  7  1  0
  7  8  1  0
  7  9  1  0
  7 10  1  0
  5 11  1  0
 11 12  1  0
 11 13  1  0
 11 14  1  0
  3 15  2  0
 15 16  1  0
 15 17  1  0
 17 18  2  0
 18 19  1  0
 18 20  1  0
 20 21  1  0
 20 22  2  0
 22 23  1  0
 23 24  2  0
 24 25  1  0
 25 26  2  0
 26 27  1  0
 27 28  2  0
 28 29  1  0
 28 30  1  0
 30 31  1  0
 30 32  2  0
 32 33  1  0
 32 34  1  0
 34 35  1  0
 34 36  2  0
 36 37  1  0
 26 38  1  0
 38 39  1  0
 38 40  2  0
 40 41  1  0
 40 42  1  0
 22 43  1  0
 43 44  1  0
 43 45  2  0
 45 46  1  0
 45 17  1  0
 42 24  1  0
 36 27  1  0
M  CHG  2   4  -1  42  -1
M  END
>  <UniqueID>  (29) 
33

>  <SMILES>  (29) 
CC(C)[N-]/C(O)=C\c1ccc(/N=c2\nc(-c3ccccc3)cc[n-]2)cc1

>  <Energy>  (29) 
56.11859129716522

>  <Genealogy>  (29) 
CC(C)[N-]C(=O)Cc1ccc(N=c2nc(-c3ccccc3)cc[n-]2)cc1 (protonated)
CC(C)[N-]C(O)=Cc1ccc(N=c2nc(-c3ccccc3)cc[n-]2)cc1 (tautomer)
CC(C)[N-]/C(O)=C\c1ccc(/N=c2\nc(-c3ccccc3)cc[n-]2)cc1 (cis-trans isomerization)
CC(C)[N-]/C(O)=C\c1ccc(/N=c2\nc(-c3ccccc3)cc[n-]2)cc1 (3D coordinates assigned)
CC(C)[N-]/C(O)=C\c1ccc(/N=c2\nc(-c3ccccc3)cc[n-]2)cc1 (optimized conformer: 56.11859129716522 kcal/mol)

>  <smiles>  (29) 
CC(C)NC(=O)Cc1ccc(N=c2nc(-c3ccccc3)cc[nH]2)cc1

>  <score_type>  (29) 
oracle

>  <origin>  (29) 
autodockgpu

>  <m_score__min__energy>  (29) 
-8.1699999999999999

>  <m_primary>  (29) 
energy

>  <meeko>  (29) 
{"free_energy": -7.93, "intermolecular_energy": -10.32, "internal_energy": -1.03, "cluster_size": 15, "cluster_id": 1, "rank_in_cluster": 10}

>  <energy>  (29) 
-7.98

>  <cluster_rmsd>  (29) 
1.15

>  <rmsd>  (29) 
271.69

>  <cluster>  (29) 
1

$$$$
QCIVYEKZXQJEGX-QMMWQUDZNA-N
     RDKit          3D

 46 48  0  0  0  0  0  0  0  0999 V2000
  146.8710   74.4480  219.3660 H   0  0  0  0  0  0  0  0  0  0  0  0
  146.6870   73.4510  219.3740 O   0  0  0  0  0  0  0  0  0  0  0  0
  145.5740   72.8970  218.7390 C   0  0  0  0  0  0  0  0  0  0  0  0
  145.6660   71.5800  218.1860 N   0  0  0  0  0  0  0  0  0  0  0  0
  145.3190   70.3660  218.9200 C   0  0  0  0  0  0  0  0  0  0  0  0
  145.3724   70.5589  220.0016 H   0  0  0  0  0  0  0  0  0  0  0  0
  143.8950   69.9510  218.5520 C   0  0  0  0  0  0  0  0  0  0  0  0
  143.3136   69.7816  219.4703 H   0  0  0  0  0  0  0  0  0  0  0  0
  143.4219   70.7486  217.9604 H   0  0  0  0  0  0  0  0  0  0  0  0
  143.9245   69.0241  217.9604 H   0  0  0  0  0  0  0  0  0  0  0  0
  146.3090   69.2470  218.5870 C   0  0  0  0  0  0  0  0  0  0  0  0
  146.6956   68.8100  219.5195 H   0  0  0  0  0  0  0  0  0  0  0  0
  145.7987   68.4683  218.0011 H   0  0  0  0  0  0  0  0  0  0  0  0
  147.1441   69.6586  218.0011 H   0  0  0  0  0  0  0  0  0  0  0  0
  144.4430   73.6110  218.6320 C   0  0  0  0  0  0  0  0  0  0  0  0
  144.3557   74.3097  217.7869 H   0  0  0  0  0  0  0  0  0  0  0  0
  143.3040   73.5220  219.5750 C   0  0  0  0  0  0  0  0  0  0  0  0
  142.4120   74.6010  219.6630 C   0  0  0  0  0  0  0  0  0  0  0  0
  142.5568   75.4831  219.0219 H   0  0  0  0  0  0  0  0  0  0  0  0
  141.3400   74.5630  220.5600 C   0  0  0  0  0  0  0  0  0  0  0  0
  140.6285   75.4011  220.5984 H   0  0  0  0  0  0  0  0  0  0  0  0
  141.1670   73.4590  221.4130 C   0  0  0  0  0  0  0  0  0  0  0  0
  140.0630   73.3700  222.3290 N   0  0  0  0  0  0  0  0  0  0  0  0
  139.5570   72.2820  222.8330 C   0  0  0  0  0  0  0  0  0  0  0  0
  139.9960   71.7830  224.0210 N   0  0  0  0  0  0  0  0  0  0  0  0
  139.4950   70.6320  224.5480 C   0  0  0  0  0  0  0  0  0  0  0  0
  140.0100   70.1450  225.8540 C   0  0  0  0  0  0  0  0  0  0  0  0
  140.4930   71.0670  226.8030 C   0  0  0  0  0  0  0  0  0  0  0  0
  140.4800   72.1428  226.5740 H   0  0  0  0  0  0  0  0  0  0  0  0
  140.9890   70.6260  228.0340 C   0  0  0  0  0  0  0  0  0  0  0  0
  141.3586   71.3553  228.7698 H   0  0  0  0  0  0  0  0  0  0  0  0
  141.0160   69.2620  228.3310 C   0  0  0  0  0  0  0  0  0  0  0  0
  141.4025   68.9174  229.3015 H   0  0  0  0  0  0  0  0  0  0  0  0
  140.5520   68.3360  227.3950 C   0  0  0  0  0  0  0  0  0  0  0  0
  140.5781   67.2613  227.6279 H   0  0  0  0  0  0  0  0  0  0  0  0
  140.0540   68.7700  226.1620 C   0  0  0  0  0  0  0  0  0  0  0  0
  139.6944   68.0338  225.4281 H   0  0  0  0  0  0  0  0  0  0  0  0
  138.4940   69.9470  223.8420 C   0  0  0  0  0  0  0  0  0  0  0  0
  138.0578   69.0210  224.2447 H   0  0  0  0  0  0  0  0  0  0  0  0
  138.0630   70.4630  222.6200 C   0  0  0  0  0  0  0  0  0  0  0  0
  137.2849   69.9384  222.0461 H   0  0  0  0  0  0  0  0  0  0  0  0
  138.6020   71.6110  222.1380 N   0  0  0  0  0  0  0  0  0  0  0  0
  142.0540   72.3800  221.3220 C   0  0  0  0  0  0  0  0  0  0  0  0
  141.9063   71.4965  221.9604 H   0  0  0  0  0  0  0  0  0  0  0  0
  143.1270   72.4170  220.4250 C   0  0  0  0  0  0  0  0  0  0  0  0
  143.8358   71.5768  220.3849 H   0  0  0  0  0  0  0  0  0  0  0  0
  1  2  1  0
  2  3  1  0
  3  4  1  0
  4  5  1  0
  5  6  1  0
  5  7  1  0
  7  8  1  0
  7  9  1  0
  7 10  1  0
  5 11  1  0
 11 12  1  0
 11 13  1  0
 11 14  1  0
  3 15  2  0
 15 16  1  0
 15 17  1  0
 17 18  2  0
 18 19  1  0
 18 20  1  0
 20 21  1  0
 20 22  2  0
 22 23  1  0
 23 24  2  0
 24 25  1  0
 25 26  2  0
 26 27  1  0
 27 28  2  0
 28 29  1  0
 28 30  1  0
 30 31  1  0
 30 32  2  0
 32 33  1  0
 32 34  1  0
 34 35  1  0
 34 36  2  0
 36 37  1  0
 26 38  1  0
 38 39  1  0
 38 40  2  0
 40 41  1  0
 40 42  1  0
 22 43  1  0
 43 44  1  0
 43 45  2  0
 45 46  1  0
 45 17  1  0
 42 24  1  0
 36 27  1  0
M  CHG  2   4  -1  42  -1
M  END
>  <UniqueID>  (30) 
33

>  <SMILES>  (30) 
CC(C)[N-]/C(O)=C\c1ccc(/N=c2\nc(-c3ccccc3)cc[n-]2)cc1

>  <Energy>  (30) 
56.11859129716522

>  <Genealogy>  (30) 
CC(C)[N-]C(=O)Cc1ccc(N=c2nc(-c3ccccc3)cc[n-]2)cc1 (protonated)
CC(C)[N-]C(O)=Cc1ccc(N=c2nc(-c3ccccc3)cc[n-]2)cc1 (tautomer)
CC(C)[N-]/C(O)=C\c1ccc(/N=c2\nc(-c3ccccc3)cc[n-]2)cc1 (cis-trans isomerization)
CC(C)[N-]/C(O)=C\c1ccc(/N=c2\nc(-c3ccccc3)cc[n-]2)cc1 (3D coordinates assigned)
CC(C)[N-]/C(O)=C\c1ccc(/N=c2\nc(-c3ccccc3)cc[n-]2)cc1 (optimized conformer: 56.11859129716522 kcal/mol)

>  <smiles>  (30) 
CC(C)NC(=O)Cc1ccc(N=c2nc(-c3ccccc3)cc[nH]2)cc1

>  <score_type>  (30) 
oracle

>  <origin>  (30) 
autodockgpu

>  <m_score__min__energy>  (30) 
-8.1699999999999999

>  <m_primary>  (30) 
energy

>  <meeko>  (30) 
{"free_energy": -8.02, "intermolecular_energy": -10.41, "internal_energy": -0.92, "cluster_size": 15, "cluster_id": 1, "rank_in_cluster": 4}

>  <energy>  (30) 
-7.93

>  <cluster_rmsd>  (30) 
0.39

>  <rmsd>  (30) 
271.8

>  <cluster>  (30) 
1

$$$$
QCIVYEKZXQJEGX-QMMWQUDZNA-N
     RDKit          3D

 46 48  0  0  0  0  0  0  0  0999 V2000
  146.1520   74.3450  217.5250 H   0  0  0  0  0  0  0  0  0  0  0  0
  146.3250   73.3910  217.8200 O   0  0  0  0  0  0  0  0  0  0  0  0
  145.9230   72.9170  219.0700 C   0  0  0  0  0  0  0  0  0  0  0  0
  146.0580   71.5230  219.3680 N   0  0  0  0  0  0  0  0  0  0  0  0
  145.6420   70.4570  218.4630 C   0  0  0  0  0  0  0  0  0  0  0  0
  146.3753   70.3546  217.6495 H   0  0  0  0  0  0  0  0  0  0  0  0
  145.5660   69.1440  219.2410 C   0  0  0  0  0  0  0  0  0  0  0  0
  145.5783   69.3561  220.3203 H   0  0  0  0  0  0  0  0  0  0  0  0
  144.6359   68.6173  218.9814 H   0  0  0  0  0  0  0  0  0  0  0  0
  146.4291   68.5135  218.9814 H   0  0  0  0  0  0  0  0  0  0  0  0
  144.2850   70.7930  217.8400 C   0  0  0  0  0  0  0  0  0  0  0  0
  143.5501   70.9750  218.6380 H   0  0  0  0  0  0  0  0  0  0  0  0
  144.3807   71.6946  217.2171 H   0  0  0  0  0  0  0  0  0  0  0  0
  143.9489   69.9509  217.2171 H   0  0  0  0  0  0  0  0  0  0  0  0
  145.3930   73.7640  219.9660 C   0  0  0  0  0  0  0  0  0  0  0  0
  146.0244   74.5887  220.3282 H   0  0  0  0  0  0  0  0  0  0  0  0
  144.0150   73.6630  220.5000 C   0  0  0  0  0  0  0  0  0  0  0  0
  143.5140   72.4010  220.8490 C   0  0  0  0  0  0  0  0  0  0  0  0
  144.1522   71.5116  220.7411 H   0  0  0  0  0  0  0  0  0  0  0  0
  142.2100   72.2640  221.3330 C   0  0  0  0  0  0  0  0  0  0  0  0
  141.8391   71.2731  221.6340 H   0  0  0  0  0  0  0  0  0  0  0  0
  141.3700   73.3870  221.4370 C   0  0  0  0  0  0  0  0  0  0  0  0
  140.0330   73.2920  221.9550 N   0  0  0  0  0  0  0  0  0  0  0  0
  139.5200   72.2880  222.6050 C   0  0  0  0  0  0  0  0  0  0  0  0
  140.0030   71.9110  223.8200 N   0  0  0  0  0  0  0  0  0  0  0  0
  139.4960   70.8460  224.4990 C   0  0  0  0  0  0  0  0  0  0  0  0
  140.0610   70.4930  225.8260 C   0  0  0  0  0  0  0  0  0  0  0  0
  140.0920   69.1470  226.2380 C   0  0  0  0  0  0  0  0  0  0  0  0
  139.7030   68.3637  225.5709 H   0  0  0  0  0  0  0  0  0  0  0  0
  140.6130   68.7970  227.4880 C   0  0  0  0  0  0  0  0  0  0  0  0
  140.6360   67.7416  227.7973 H   0  0  0  0  0  0  0  0  0  0  0  0
  141.1040   69.7850  228.3440 C   0  0  0  0  0  0  0  0  0  0  0  0
  141.5173   69.5076  229.3249 H   0  0  0  0  0  0  0  0  0  0  0  0
  141.0700   71.1250  227.9540 C   0  0  0  0  0  0  0  0  0  0  0  0
  141.4531   71.9031  228.6306 H   0  0  0  0  0  0  0  0  0  0  0  0
  140.5500   71.4810  226.7050 C   0  0  0  0  0  0  0  0  0  0  0  0
  140.5224   72.5394  226.4066 H   0  0  0  0  0  0  0  0  0  0  0  0
  138.4390   70.1220  223.9240 C   0  0  0  0  0  0  0  0  0  0  0  0
  137.9958   69.2637  224.4503 H   0  0  0  0  0  0  0  0  0  0  0  0
  137.9620   70.5120  222.6730 C   0  0  0  0  0  0  0  0  0  0  0  0
  137.1395   69.9548  222.2009 H   0  0  0  0  0  0  0  0  0  0  0  0
  138.5110   71.5780  222.0370 N   0  0  0  0  0  0  0  0  0  0  0  0
  141.8710   74.6480  221.0930 C   0  0  0  0  0  0  0  0  0  0  0  0
  141.2331   75.5373  221.2035 H   0  0  0  0  0  0  0  0  0  0  0  0
  143.1760   74.7860  220.6100 C   0  0  0  0  0  0  0  0  0  0  0  0
  143.5481   75.7781  220.3146 H   0  0  0  0  0  0  0  0  0  0  0  0
  1  2  1  0
  2  3  1  0
  3  4  1  0
  4  5  1  0
  5  6  1  0
  5  7  1  0
  7  8  1  0
  7  9  1  0
  7 10  1  0
  5 11  1  0
 11 12  1  0
 11 13  1  0
 11 14  1  0
  3 15  2  0
 15 16  1  0
 15 17  1  0
 17 18  2  0
 18 19  1  0
 18 20  1  0
 20 21  1  0
 20 22  2  0
 22 23  1  0
 23 24  2  0
 24 25  1  0
 25 26  2  0
 26 27  1  0
 27 28  2  0
 28 29  1  0
 28 30  1  0
 30 31  1  0
 30 32  2  0
 32 33  1  0
 32 34  1  0
 34 35  1  0
 34 36  2  0
 36 37  1  0
 26 38  1  0
 38 39  1  0
 38 40  2  0
 40 41  1  0
 40 42  1  0
 22 43  1  0
 43 44  1  0
 43 45  2  0
 45 46  1  0
 45 17  1  0
 42 24  1  0
 36 27  1  0
M  CHG  2   4  -1  42  -1
M  END
>  <UniqueID>  (31) 
33

>  <SMILES>  (31) 
CC(C)[N-]/C(O)=C\c1ccc(/N=c2\nc(-c3ccccc3)cc[n-]2)cc1

>  <Energy>  (31) 
56.11859129716522

>  <Genealogy>  (31) 
CC(C)[N-]C(=O)Cc1ccc(N=c2nc(-c3ccccc3)cc[n-]2)cc1 (protonated)
CC(C)[N-]C(O)=Cc1ccc(N=c2nc(-c3ccccc3)cc[n-]2)cc1 (tautomer)
CC(C)[N-]/C(O)=C\c1ccc(/N=c2\nc(-c3ccccc3)cc[n-]2)cc1 (cis-trans isomerization)
CC(C)[N-]/C(O)=C\c1ccc(/N=c2\nc(-c3ccccc3)cc[n-]2)cc1 (3D coordinates assigned)
CC(C)[N-]/C(O)=C\c1ccc(/N=c2\nc(-c3ccccc3)cc[n-]2)cc1 (optimized conformer: 56.11859129716522 kcal/mol)

>  <smiles>  (31) 
CC(C)NC(=O)Cc1ccc(N=c2nc(-c3ccccc3)cc[nH]2)cc1

>  <score_type>  (31) 
oracle

>  <origin>  (31) 
autodockgpu

>  <m_score__min__energy>  (31) 
-8.1699999999999999

>  <m_primary>  (31) 
energy

>  <meeko>  (31) 
{"free_energy": -8.13, "intermolecular_energy": -10.51, "internal_energy": -0.99, "cluster_size": 15, "cluster_id": 1, "rank_in_cluster": 2}

>  <energy>  (31) 
-7.9

>  <cluster_rmsd>  (31) 
0.49

>  <rmsd>  (31) 
271.75

>  <cluster>  (31) 
1

$$$$
QCIVYEKZXQJEGX-QMMWQUDZNA-N
     RDKit          3D

 46 48  0  0  0  0  0  0  0  0999 V2000
  146.0860   71.9030  220.9330 H   0  0  0  0  0  0  0  0  0  0  0  0
  146.4190   72.5560  220.2330 O   0  0  0  0  0  0  0  0  0  0  0  0
  145.6650   72.8790  219.1040 C   0  0  0  0  0  0  0  0  0  0  0  0
  145.9470   72.2260  217.8610 N   0  0  0  0  0  0  0  0  0  0  0  0
  145.5390   70.8580  217.5540 C   0  0  0  0  0  0  0  0  0  0  0  0
  146.0000   70.5379  216.6079 H   0  0  0  0  0  0  0  0  0  0  0  0
  146.0040   69.9340  218.6780 C   0  0  0  0  0  0  0  0  0  0  0  0
  145.7726   70.3939  219.6501 H   0  0  0  0  0  0  0  0  0  0  0  0
  145.4849   68.9676  218.5966 H   0  0  0  0  0  0  0  0  0  0  0  0
  147.0894   69.7751  218.5966 H   0  0  0  0  0  0  0  0  0  0  0  0
  144.0180   70.7850  217.3920 C   0  0  0  0  0  0  0  0  0  0  0  0
  143.5442   70.7623  218.3845 H   0  0  0  0  0  0  0  0  0  0  0  0
  143.6656   71.6673  216.8376 H   0  0  0  0  0  0  0  0  0  0  0  0
  143.7517   69.8730  216.8376 H   0  0  0  0  0  0  0  0  0  0  0  0
  144.7050   73.8140  219.1860 C   0  0  0  0  0  0  0  0  0  0  0  0
  144.8464   74.7461  218.6192 H   0  0  0  0  0  0  0  0  0  0  0  0
  143.4680   73.6740  219.9890 C   0  0  0  0  0  0  0  0  0  0  0  0
  142.7440   74.8270  220.3230 C   0  0  0  0  0  0  0  0  0  0  0  0
  143.0899   75.8099  219.9706 H   0  0  0  0  0  0  0  0  0  0  0  0
  141.5850   74.7370  221.1010 C   0  0  0  0  0  0  0  0  0  0  0  0
  141.0075   75.6447  221.3305 H   0  0  0  0  0  0  0  0  0  0  0  0
  141.1550   73.4910  221.5910 C   0  0  0  0  0  0  0  0  0  0  0  0
  139.9550   73.3530  222.3700 N   0  0  0  0  0  0  0  0  0  0  0  0
  139.4800   72.2520  222.8780 C   0  0  0  0  0  0  0  0  0  0  0  0
  139.9470   71.7610  224.0580 N   0  0  0  0  0  0  0  0  0  0  0  0
  139.4800   70.5970  224.5890 C   0  0  0  0  0  0  0  0  0  0  0  0
  140.0240   70.1190  225.8860 C   0  0  0  0  0  0  0  0  0  0  0  0
  140.5600   71.0430  226.8030 C   0  0  0  0  0  0  0  0  0  0  0  0
  140.5667   72.1149  226.5561 H   0  0  0  0  0  0  0  0  0  0  0  0
  141.0840   70.6100  228.0250 C   0  0  0  0  0  0  0  0  0  0  0  0
  141.4962   71.3415  228.7356 H   0  0  0  0  0  0  0  0  0  0  0  0
  141.0850   69.2510  228.3450 C   0  0  0  0  0  0  0  0  0  0  0  0
  141.4930   68.9128  229.3089 H   0  0  0  0  0  0  0  0  0  0  0  0
  140.5680   68.3220  227.4410 C   0  0  0  0  0  0  0  0  0  0  0  0
  140.5741   67.2509  227.6916 H   0  0  0  0  0  0  0  0  0  0  0  0
  140.0420   68.7490  226.2170 C   0  0  0  0  0  0  0  0  0  0  0  0
  139.6397   68.0105  225.5080 H   0  0  0  0  0  0  0  0  0  0  0  0
  138.4840   69.8920  223.8940 C   0  0  0  0  0  0  0  0  0  0  0  0
  138.0736   68.9556  224.2999 H   0  0  0  0  0  0  0  0  0  0  0  0
  138.0250   70.4010  222.6800 C   0  0  0  0  0  0  0  0  0  0  0  0
  137.2508   69.8607  222.1154 H   0  0  0  0  0  0  0  0  0  0  0  0
  138.5320   71.5620  222.1940 N   0  0  0  0  0  0  0  0  0  0  0  0
  141.8750   72.3390  221.2540 C   0  0  0  0  0  0  0  0  0  0  0  0
  141.5276   71.3559  221.6043 H   0  0  0  0  0  0  0  0  0  0  0  0
  143.0330   72.4290  220.4750 C   0  0  0  0  0  0  0  0  0  0  0  0
  143.6068   71.5201  220.2413 H   0  0  0  0  0  0  0  0  0  0  0  0
  1  2  1  0
  2  3  1  0
  3  4  1  0
  4  5  1  0
  5  6  1  0
  5  7  1  0
  7  8  1  0
  7  9  1  0
  7 10  1  0
  5 11  1  0
 11 12  1  0
 11 13  1  0
 11 14  1  0
  3 15  2  0
 15 16  1  0
 15 17  1  0
 17 18  2  0
 18 19  1  0
 18 20  1  0
 20 21  1  0
 20 22  2  0
 22 23  1  0
 23 24  2  0
 24 25  1  0
 25 26  2  0
 26 27  1  0
 27 28  2  0
 28 29  1  0
 28 30  1  0
 30 31  1  0
 30 32  2  0
 32 33  1  0
 32 34  1  0
 34 35  1  0
 34 36  2  0
 36 37  1  0
 26 38  1  0
 38 39  1  0
 38 40  2  0
 40 41  1  0
 40 42  1  0
 22 43  1  0
 43 44  1  0
 43 45  2  0
 45 46  1  0
 45 17  1  0
 42 24  1  0
 36 27  1  0
M  CHG  2   4  -1  42  -1
M  END
>  <UniqueID>  (32) 
33

>  <SMILES>  (32) 
CC(C)[N-]/C(O)=C\c1ccc(/N=c2\nc(-c3ccccc3)cc[n-]2)cc1

>  <Energy>  (32) 
56.11859129716522

>  <Genealogy>  (32) 
CC(C)[N-]C(=O)Cc1ccc(N=c2nc(-c3ccccc3)cc[n-]2)cc1 (protonated)
CC(C)[N-]C(O)=Cc1ccc(N=c2nc(-c3ccccc3)cc[n-]2)cc1 (tautomer)
CC(C)[N-]/C(O)=C\c1ccc(/N=c2\nc(-c3ccccc3)cc[n-]2)cc1 (cis-trans isomerization)
CC(C)[N-]/C(O)=C\c1ccc(/N=c2\nc(-c3ccccc3)cc[n-]2)cc1 (3D coordinates assigned)
CC(C)[N-]/C(O)=C\c1ccc(/N=c2\nc(-c3ccccc3)cc[n-]2)cc1 (optimized conformer: 56.11859129716522 kcal/mol)

>  <smiles>  (32) 
CC(C)NC(=O)Cc1ccc(N=c2nc(-c3ccccc3)cc[nH]2)cc1

>  <score_type>  (32) 
oracle

>  <origin>  (32) 
autodockgpu

>  <m_score__min__energy>  (32) 
-8.1699999999999999

>  <m_primary>  (32) 
energy

>  <meeko>  (32) 
{"free_energy": -7.98, "intermolecular_energy": -10.37, "internal_energy": -1.01, "cluster_size": 15, "cluster_id": 1, "rank_in_cluster": 9}

>  <energy>  (32) 
-7.89

>  <cluster_rmsd>  (32) 
0.97

>  <rmsd>  (32) 
271.6

>  <cluster>  (32) 
1

$$$$
QCIVYEKZXQJEGX-QMMWQUDZNA-N
     RDKit          3D

 46 48  0  0  0  0  0  0  0  0999 V2000
  146.3380   74.2660  217.4390 H   0  0  0  0  0  0  0  0  0  0  0  0
  146.2890   73.2650  217.5910 O   0  0  0  0  0  0  0  0  0  0  0  0
  145.5760   72.7100  218.6550 C   0  0  0  0  0  0  0  0  0  0  0  0
  146.2230   72.5420  219.9210 N   0  0  0  0  0  0  0  0  0  0  0  0
  145.8210   73.2440  221.1360 C   0  0  0  0  0  0  0  0  0  0  0  0
  145.0402   72.6685  221.6547 H   0  0  0  0  0  0  0  0  0  0  0  0
  147.0340   73.3880  222.0540 C   0  0  0  0  0  0  0  0  0  0  0  0
  146.7063   73.3491  223.1034 H   0  0  0  0  0  0  0  0  0  0  0  0
  147.7403   72.5674  221.8598 H   0  0  0  0  0  0  0  0  0  0  0  0
  147.5286   74.3512  221.8598 H   0  0  0  0  0  0  0  0  0  0  0  0
  145.2460   74.6190  220.7850 C   0  0  0  0  0  0  0  0  0  0  0  0
  145.0166   75.1676  221.7104 H   0  0  0  0  0  0  0  0  0  0  0  0
  145.9828   75.1851  220.1962 H   0  0  0  0  0  0  0  0  0  0  0  0
  144.3256   74.4921  220.1962 H   0  0  0  0  0  0  0  0  0  0  0  0
  144.3050   72.3180  218.4750 C   0  0  0  0  0  0  0  0  0  0  0  0
  144.0528   71.8134  217.5307 H   0  0  0  0  0  0  0  0  0  0  0  0
  143.2190   72.5190  219.4620 C   0  0  0  0  0  0  0  0  0  0  0  0
  142.6020   73.7750  219.5440 C   0  0  0  0  0  0  0  0  0  0  0  0
  142.9156   74.5825  218.8661 H   0  0  0  0  0  0  0  0  0  0  0  0
  141.5910   74.0090  220.4810 C   0  0  0  0  0  0  0  0  0  0  0  0
  141.0930   74.9892  220.5159 H   0  0  0  0  0  0  0  0  0  0  0  0
  141.2080   72.9970  221.3790 C   0  0  0  0  0  0  0  0  0  0  0  0
  140.1540   73.1890  222.3380 N   0  0  0  0  0  0  0  0  0  0  0  0
  139.5100   72.2590  222.9820 C   0  0  0  0  0  0  0  0  0  0  0  0
  140.0180   71.7050  224.1170 N   0  0  0  0  0  0  0  0  0  0  0  0
  139.3690   70.7130  224.7860 C   0  0  0  0  0  0  0  0  0  0  0  0
  139.9720   70.1560  226.0250 C   0  0  0  0  0  0  0  0  0  0  0  0
  140.4970   71.0260  226.9990 C   0  0  0  0  0  0  0  0  0  0  0  0
  140.4517   72.1135  226.8397 H   0  0  0  0  0  0  0  0  0  0  0  0
  141.0760   70.5200  228.1680 C   0  0  0  0  0  0  0  0  0  0  0  0
  141.4781   71.2096  228.9248 H   0  0  0  0  0  0  0  0  0  0  0  0
  141.1440   69.1410  228.3750 C   0  0  0  0  0  0  0  0  0  0  0  0
  141.5953   68.7444  229.2964 H   0  0  0  0  0  0  0  0  0  0  0  0
  140.6390   68.2660  227.4120 C   0  0  0  0  0  0  0  0  0  0  0  0
  140.6979   67.1796  227.5740 H   0  0  0  0  0  0  0  0  0  0  0  0
  140.0580   68.7660  226.2410 C   0  0  0  0  0  0  0  0  0  0  0  0
  139.6662   68.0699  225.4847 H   0  0  0  0  0  0  0  0  0  0  0  0
  138.1390   70.2560  224.2880 C   0  0  0  0  0  0  0  0  0  0  0  0
  137.5815   69.4650  224.8111 H   0  0  0  0  0  0  0  0  0  0  0  0
  137.6370   70.8240  223.1170 C   0  0  0  0  0  0  0  0  0  0  0  0
  136.6786   70.4758  222.7045 H   0  0  0  0  0  0  0  0  0  0  0  0
  138.3300   71.8060  222.4860 N   0  0  0  0  0  0  0  0  0  0  0  0
  141.8200   71.7410  221.2940 C   0  0  0  0  0  0  0  0  0  0  0  0
  141.5033   70.9324  221.9692 H   0  0  0  0  0  0  0  0  0  0  0  0
  142.8310   71.5070  220.3570 C   0  0  0  0  0  0  0  0  0  0  0  0
  143.3256   70.5252  220.3200 H   0  0  0  0  0  0  0  0  0  0  0  0
  1  2  1  0
  2  3  1  0
  3  4  1  0
  4  5  1  0
  5  6  1  0
  5  7  1  0
  7  8  1  0
  7  9  1  0
  7 10  1  0
  5 11  1  0
 11 12  1  0
 11 13  1  0
 11 14  1  0
  3 15  2  0
 15 16  1  0
 15 17  1  0
 17 18  2  0
 18 19  1  0
 18 20  1  0
 20 21  1  0
 20 22  2  0
 22 23  1  0
 23 24  2  0
 24 25  1  0
 25 26  2  0
 26 27  1  0
 27 28  2  0
 28 29  1  0
 28 30  1  0
 30 31  1  0
 30 32  2  0
 32 33  1  0
 32 34  1  0
 34 35  1  0
 34 36  2  0
 36 37  1  0
 26 38  1  0
 38 39  1  0
 38 40  2  0
 40 41  1  0
 40 42  1  0
 22 43  1  0
 43 44  1  0
 43 45  2  0
 45 46  1  0
 45 17  1  0
 42 24  1  0
 36 27  1  0
M  CHG  2   4  -1  42  -1
M  END
>  <UniqueID>  (33) 
33

>  <SMILES>  (33) 
CC(C)[N-]/C(O)=C\c1ccc(/N=c2\nc(-c3ccccc3)cc[n-]2)cc1

>  <Energy>  (33) 
56.11859129716522

>  <Genealogy>  (33) 
CC(C)[N-]C(=O)Cc1ccc(N=c2nc(-c3ccccc3)cc[n-]2)cc1 (protonated)
CC(C)[N-]C(O)=Cc1ccc(N=c2nc(-c3ccccc3)cc[n-]2)cc1 (tautomer)
CC(C)[N-]/C(O)=C\c1ccc(/N=c2\nc(-c3ccccc3)cc[n-]2)cc1 (cis-trans isomerization)
CC(C)[N-]/C(O)=C\c1ccc(/N=c2\nc(-c3ccccc3)cc[n-]2)cc1 (3D coordinates assigned)
CC(C)[N-]/C(O)=C\c1ccc(/N=c2\nc(-c3ccccc3)cc[n-]2)cc1 (optimized conformer: 56.11859129716522 kcal/mol)

>  <smiles>  (33) 
CC(C)NC(=O)Cc1ccc(N=c2nc(-c3ccccc3)cc[nH]2)cc1

>  <score_type>  (33) 
oracle

>  <origin>  (33) 
autodockgpu

>  <m_score__min__energy>  (33) 
-8.1699999999999999

>  <m_primary>  (33) 
energy

>  <meeko>  (33) 
{"free_energy": -7.78, "intermolecular_energy": -10.16, "internal_energy": -0.89, "cluster_size": 15, "cluster_id": 1, "rank_in_cluster": 14}

>  <energy>  (33) 
-7.8

>  <cluster_rmsd>  (33) 
0.97

>  <rmsd>  (33) 
271.53

>  <cluster>  (33) 
1

$$$$
QCIVYEKZXQJEGX-QMMWQUDZNA-N
     RDKit          3D

 46 48  0  0  0  0  0  0  0  0999 V2000
  146.7340   74.3310  219.5140 H   0  0  0  0  0  0  0  0  0  0  0  0
  146.5410   73.3690  219.2610 O   0  0  0  0  0  0  0  0  0  0  0  0
  145.6230   73.0340  218.2640 C   0  0  0  0  0  0  0  0  0  0  0  0
  145.9450   71.9930  217.3350 N   0  0  0  0  0  0  0  0  0  0  0  0
  145.5290   70.6030  217.4980 C   0  0  0  0  0  0  0  0  0  0  0  0
  146.2191   69.9429  216.9521 H   0  0  0  0  0  0  0  0  0  0  0  0
  145.5590   70.2450  218.9820 C   0  0  0  0  0  0  0  0  0  0  0  0
  145.4820   71.1635  219.5824 H   0  0  0  0  0  0  0  0  0  0  0  0
  144.7133   69.5818  219.2164 H   0  0  0  0  0  0  0  0  0  0  0  0
  146.5033   69.7318  219.2164 H   0  0  0  0  0  0  0  0  0  0  0  0
  144.1240   70.4020  216.9230 C   0  0  0  0  0  0  0  0  0  0  0  0
  143.4021   70.2987  217.7465 H   0  0  0  0  0  0  0  0  0  0  0  0
  143.8531   71.2705  216.3047 H   0  0  0  0  0  0  0  0  0  0  0  0
  144.1075   69.4924  216.3047 H   0  0  0  0  0  0  0  0  0  0  0  0
  144.4640   73.7040  218.1700 C   0  0  0  0  0  0  0  0  0  0  0  0
  144.2822   74.2888  217.2563 H   0  0  0  0  0  0  0  0  0  0  0  0
  143.4130   73.7090  219.2140 C   0  0  0  0  0  0  0  0  0  0  0  0
  142.7250   72.5180  219.4870 C   0  0  0  0  0  0  0  0  0  0  0  0
  142.9856   71.5990  218.9415 H   0  0  0  0  0  0  0  0  0  0  0  0
  141.7100   72.4910  220.4480 C   0  0  0  0  0  0  0  0  0  0  0  0
  141.1989   71.5443  220.6772 H   0  0  0  0  0  0  0  0  0  0  0  0
  141.3390   73.6670  221.1230 C   0  0  0  0  0  0  0  0  0  0  0  0
  140.3190   73.6740  222.1360 N   0  0  0  0  0  0  0  0  0  0  0  0
  139.7690   72.6340  222.6930 C   0  0  0  0  0  0  0  0  0  0  0  0
  140.2020   72.1630  223.8940 N   0  0  0  0  0  0  0  0  0  0  0  0
  139.6550   71.0600  224.4750 C   0  0  0  0  0  0  0  0  0  0  0  0
  140.1670   70.6020  225.7920 C   0  0  0  0  0  0  0  0  0  0  0  0
  140.5900   71.5470  226.7450 C   0  0  0  0  0  0  0  0  0  0  0  0
  140.5325   72.6204  226.5114 H   0  0  0  0  0  0  0  0  0  0  0  0
  141.0830   71.1330  227.9870 C   0  0  0  0  0  0  0  0  0  0  0  0
  141.4059   71.8808  228.7263 H   0  0  0  0  0  0  0  0  0  0  0  0
  141.1660   69.7730  228.2900 C   0  0  0  0  0  0  0  0  0  0  0  0
  141.5502   69.4494  229.2686 H   0  0  0  0  0  0  0  0  0  0  0  0
  140.7610   68.8240  227.3500 C   0  0  0  0  0  0  0  0  0  0  0  0
  140.8305   67.7523  227.5882 H   0  0  0  0  0  0  0  0  0  0  0  0
  140.2670   69.2310  226.1060 C   0  0  0  0  0  0  0  0  0  0  0  0
  139.9547   68.4770  225.3685 H   0  0  0  0  0  0  0  0  0  0  0  0
  138.6090   70.3990  223.8120 C   0  0  0  0  0  0  0  0  0  0  0  0
  138.1341   69.5130  224.2587 H   0  0  0  0  0  0  0  0  0  0  0  0
  138.1830   70.8860  222.5770 C   0  0  0  0  0  0  0  0  0  0  0  0
  137.3695   70.3790  222.0373 H   0  0  0  0  0  0  0  0  0  0  0  0
  138.7710   71.9850  222.0400 N   0  0  0  0  0  0  0  0  0  0  0  0
  142.0290   74.8550  220.8540 C   0  0  0  0  0  0  0  0  0  0  0  0
  141.7704   75.7729  221.4022 H   0  0  0  0  0  0  0  0  0  0  0  0
  143.0450   74.8830  219.8930 C   0  0  0  0  0  0  0  0  0  0  0  0
  143.5587   75.8292  219.6675 H   0  0  0  0  0  0  0  0  0  0  0  0
  1  2  1  0
  2  3  1  0
  3  4  1  0
  4  5  1  0
  5  6  1  0
  5  7  1  0
  7  8  1  0
  7  9  1  0
  7 10  1  0
  5 11  1  0
 11 12  1  0
 11 13  1  0
 11 14  1  0
  3 15  2  0
 15 16  1  0
 15 17  1  0
 17 18  2  0
 18 19  1  0
 18 20  1  0
 20 21  1  0
 20 22  2  0
 22 23  1  0
 23 24  2  0
 24 25  1  0
 25 26  2  0
 26 27  1  0
 27 28  2  0
 28 29  1  0
 28 30  1  0
 30 31  1  0
 30 32  2  0
 32 33  1  0
 32 34  1  0
 34 35  1  0
 34 36  2  0
 36 37  1  0
 26 38  1  0
 38 39  1  0
 38 40  2  0
 40 41  1  0
 40 42  1  0
 22 43  1  0
 43 44  1  0
 43 45  2  0
 45 46  1  0
 45 17  1  0
 42 24  1  0
 36 27  1  0
M  CHG  2   4  -1  42  -1
M  END
>  <UniqueID>  (34) 
33

>  <SMILES>  (34) 
CC(C)[N-]/C(O)=C\c1ccc(/N=c2\nc(-c3ccccc3)cc[n-]2)cc1

>  <Energy>  (34) 
56.11859129716522

>  <Genealogy>  (34) 
CC(C)[N-]C(=O)Cc1ccc(N=c2nc(-c3ccccc3)cc[n-]2)cc1 (protonated)
CC(C)[N-]C(O)=Cc1ccc(N=c2nc(-c3ccccc3)cc[n-]2)cc1 (tautomer)
CC(C)[N-]/C(O)=C\c1ccc(/N=c2\nc(-c3ccccc3)cc[n-]2)cc1 (cis-trans isomerization)
CC(C)[N-]/C(O)=C\c1ccc(/N=c2\nc(-c3ccccc3)cc[n-]2)cc1 (3D coordinates assigned)
CC(C)[N-]/C(O)=C\c1ccc(/N=c2\nc(-c3ccccc3)cc[n-]2)cc1 (optimized conformer: 56.11859129716522 kcal/mol)

>  <smiles>  (34) 
CC(C)NC(=O)Cc1ccc(N=c2nc(-c3ccccc3)cc[nH]2)cc1

>  <score_type>  (34) 
oracle

>  <origin>  (34) 
autodockgpu

>  <m_score__min__energy>  (34) 
-8.1699999999999999

>  <m_primary>  (34) 
energy

>  <meeko>  (34) 
{"free_energy": -7.8, "intermolecular_energy": -10.18, "internal_energy": -1.0, "cluster_size": 15, "cluster_id": 1, "rank_in_cluster": 13}

>  <energy>  (34) 
-7.78

>  <cluster_rmsd>  (34) 
0.99

>  <rmsd>  (34) 
271.93

>  <cluster>  (34) 
1

$$$$
QCIVYEKZXQJEGX-QMMWQUDZNA-N
     RDKit          3D

 46 48  0  0  0  0  0  0  0  0999 V2000
  146.5820   74.2260  219.3640 H   0  0  0  0  0  0  0  0  0  0  0  0
  146.4600   73.2190  219.3550 O   0  0  0  0  0  0  0  0  0  0  0  0
  145.5490   72.5900  218.5050 C   0  0  0  0  0  0  0  0  0  0  0  0
  145.9490   71.4120  217.7960 N   0  0  0  0  0  0  0  0  0  0  0  0
  146.1080   70.1030  218.4230 C   0  0  0  0  0  0  0  0  0  0  0  0
  146.9980   70.1066  219.0695 H   0  0  0  0  0  0  0  0  0  0  0  0
  144.8720   69.8030  219.2700 C   0  0  0  0  0  0  0  0  0  0  0  0
  145.1340   69.8666  220.3364 H   0  0  0  0  0  0  0  0  0  0  0  0
  144.0843   70.5360  219.0416 H   0  0  0  0  0  0  0  0  0  0  0  0
  144.5079   68.7904  219.0416 H   0  0  0  0  0  0  0  0  0  0  0  0
  146.3020   69.0260  217.3520 C   0  0  0  0  0  0  0  0  0  0  0  0
  146.4771   68.0542  217.8367 H   0  0  0  0  0  0  0  0  0  0  0  0
  145.4002   68.9658  216.7249 H   0  0  0  0  0  0  0  0  0  0  0  0
  147.1681   69.2843  216.7249 H   0  0  0  0  0  0  0  0  0  0  0  0
  144.3210   73.1070  218.3420 C   0  0  0  0  0  0  0  0  0  0  0  0
  144.0725   73.5385  217.3611 H   0  0  0  0  0  0  0  0  0  0  0  0
  143.2780   73.1360  219.3930 C   0  0  0  0  0  0  0  0  0  0  0  0
  142.7970   74.3760  219.8360 C   0  0  0  0  0  0  0  0  0  0  0  0
  143.1831   75.3032  219.3874 H   0  0  0  0  0  0  0  0  0  0  0  0
  141.8300   74.4430  220.8440 C   0  0  0  0  0  0  0  0  0  0  0  0
  141.4359   75.4200  221.1605 H   0  0  0  0  0  0  0  0  0  0  0  0
  141.3590   73.2670  221.4550 C   0  0  0  0  0  0  0  0  0  0  0  0
  140.3470   73.2920  222.4750 N   0  0  0  0  0  0  0  0  0  0  0  0
  139.7370   72.2640  222.9890 C   0  0  0  0  0  0  0  0  0  0  0  0
  140.1670   71.6930  224.1480 N   0  0  0  0  0  0  0  0  0  0  0  0
  139.5560   70.6010  224.6830 C   0  0  0  0  0  0  0  0  0  0  0  0
  140.0700   70.0310  225.9550 C   0  0  0  0  0  0  0  0  0  0  0  0
  140.5330   70.8890  226.9700 C   0  0  0  0  0  0  0  0  0  0  0  0
  140.5054   71.9780  226.8174 H   0  0  0  0  0  0  0  0  0  0  0  0
  141.0280   70.3700  228.1710 C   0  0  0  0  0  0  0  0  0  0  0  0
  141.3830   71.0507  228.9588 H   0  0  0  0  0  0  0  0  0  0  0  0
  141.0720   68.9880  228.3710 C   0  0  0  0  0  0  0  0  0  0  0  0
  141.4571   68.5807  229.3175 H   0  0  0  0  0  0  0  0  0  0  0  0
  140.6270   68.1250  227.3690 C   0  0  0  0  0  0  0  0  0  0  0  0
  140.6664   67.0369  227.5258 H   0  0  0  0  0  0  0  0  0  0  0  0
  140.1310   68.6380  226.1660 C   0  0  0  0  0  0  0  0  0  0  0  0
  139.7863   67.9505  225.3795 H   0  0  0  0  0  0  0  0  0  0  0  0
  138.4450   70.0570  224.0190 C   0  0  0  0  0  0  0  0  0  0  0  0
  137.9176   69.1842  224.4314 H   0  0  0  0  0  0  0  0  0  0  0  0
  138.0230   70.6440  222.8270 C   0  0  0  0  0  0  0  0  0  0  0  0
  137.1606   70.2283  222.2852 H   0  0  0  0  0  0  0  0  0  0  0  0
  138.6750   71.7280  222.3340 N   0  0  0  0  0  0  0  0  0  0  0  0
  141.8360   72.0290  221.0100 C   0  0  0  0  0  0  0  0  0  0  0  0
  141.4481   71.1020  221.4574 H   0  0  0  0  0  0  0  0  0  0  0  0
  142.8020   71.9610  220.0010 C   0  0  0  0  0  0  0  0  0  0  0  0
  143.1914   70.9832  219.6814 H   0  0  0  0  0  0  0  0  0  0  0  0
  1  2  1  0
  2  3  1  0
  3  4  1  0
  4  5  1  0
  5  6  1  0
  5  7  1  0
  7  8  1  0
  7  9  1  0
  7 10  1  0
  5 11  1  0
 11 12  1  0
 11 13  1  0
 11 14  1  0
  3 15  2  0
 15 16  1  0
 15 17  1  0
 17 18  2  0
 18 19  1  0
 18 20  1  0
 20 21  1  0
 20 22  2  0
 22 23  1  0
 23 24  2  0
 24 25  1  0
 25 26  2  0
 26 27  1  0
 27 28  2  0
 28 29  1  0
 28 30  1  0
 30 31  1  0
 30 32  2  0
 32 33  1  0
 32 34  1  0
 34 35  1  0
 34 36  2  0
 36 37  1  0
 26 38  1  0
 38 39  1  0
 38 40  2  0
 40 41  1  0
 40 42  1  0
 22 43  1  0
 43 44  1  0
 43 45  2  0
 45 46  1  0
 45 17  1  0
 42 24  1  0
 36 27  1  0
M  CHG  2   4  -1  42  -1
M  END
>  <UniqueID>  (35) 
33

>  <SMILES>  (35) 
CC(C)[N-]/C(O)=C\c1ccc(/N=c2\nc(-c3ccccc3)cc[n-]2)cc1

>  <Energy>  (35) 
56.11859129716522

>  <Genealogy>  (35) 
CC(C)[N-]C(=O)Cc1ccc(N=c2nc(-c3ccccc3)cc[n-]2)cc1 (protonated)
CC(C)[N-]C(O)=Cc1ccc(N=c2nc(-c3ccccc3)cc[n-]2)cc1 (tautomer)
CC(C)[N-]/C(O)=C\c1ccc(/N=c2\nc(-c3ccccc3)cc[n-]2)cc1 (cis-trans isomerization)
CC(C)[N-]/C(O)=C\c1ccc(/N=c2\nc(-c3ccccc3)cc[n-]2)cc1 (3D coordinates assigned)
CC(C)[N-]/C(O)=C\c1ccc(/N=c2\nc(-c3ccccc3)cc[n-]2)cc1 (optimized conformer: 56.11859129716522 kcal/mol)

>  <smiles>  (35) 
CC(C)NC(=O)Cc1ccc(N=c2nc(-c3ccccc3)cc[nH]2)cc1

>  <score_type>  (35) 
oracle

>  <origin>  (35) 
autodockgpu

>  <m_score__min__energy>  (35) 
-8.1699999999999999

>  <m_primary>  (35) 
energy

>  <meeko>  (35) 
{"free_energy": -7.89, "intermolecular_energy": -10.28, "internal_energy": -0.86, "cluster_size": 15, "cluster_id": 1, "rank_in_cluster": 12}

>  <energy>  (35) 
-7.66

>  <cluster_rmsd>  (35) 
1.49

>  <rmsd>  (35) 
271.73

>  <cluster>  (35) 
1

$$$$
QCIVYEKZXQJEGX-QMMWQUDZNA-N
     RDKit          3D

 46 48  0  0  0  0  0  0  0  0999 V2000
  146.0290   74.3740  217.4870 H   0  0  0  0  0  0  0  0  0  0  0  0
  146.1690   73.4020  217.7370 O   0  0  0  0  0  0  0  0  0  0  0  0
  145.9250   72.9250  219.0260 C   0  0  0  0  0  0  0  0  0  0  0  0
  146.2010   71.5530  219.3300 N   0  0  0  0  0  0  0  0  0  0  0  0
  145.4640   70.4310  218.7550 C   0  0  0  0  0  0  0  0  0  0  0  0
  144.4074   70.4877  219.0558 H   0  0  0  0  0  0  0  0  0  0  0  0
  145.5590   70.5020  217.2320 C   0  0  0  0  0  0  0  0  0  0  0  0
  146.4100   71.1380  216.9470 H   0  0  0  0  0  0  0  0  0  0  0  0
  145.7054   69.4901  216.8262 H   0  0  0  0  0  0  0  0  0  0  0  0
  144.6300   70.9290  216.8262 H   0  0  0  0  0  0  0  0  0  0  0  0
  146.0340   69.1070  219.2690 C   0  0  0  0  0  0  0  0  0  0  0  0
  146.0328   69.1097  220.3690 H   0  0  0  0  0  0  0  0  0  0  0  0
  145.4145   68.2747  218.9037 H   0  0  0  0  0  0  0  0  0  0  0  0
  147.0644   68.9850  218.9037 H   0  0  0  0  0  0  0  0  0  0  0  0
  145.4140   73.7460  219.9560 C   0  0  0  0  0  0  0  0  0  0  0  0
  146.0636   74.5407  220.3516 H   0  0  0  0  0  0  0  0  0  0  0  0
  144.0330   73.6540  220.4860 C   0  0  0  0  0  0  0  0  0  0  0  0
  143.5340   72.3990  220.8610 C   0  0  0  0  0  0  0  0  0  0  0  0
  144.1746   71.5088  220.7764 H   0  0  0  0  0  0  0  0  0  0  0  0
  142.2270   72.2710  221.3420 C   0  0  0  0  0  0  0  0  0  0  0  0
  141.8562   71.2867  221.6640 H   0  0  0  0  0  0  0  0  0  0  0  0
  141.3850   73.3940  221.4160 C   0  0  0  0  0  0  0  0  0  0  0  0
  140.0450   73.3090  221.9290 N   0  0  0  0  0  0  0  0  0  0  0  0
  139.5270   72.3120  222.5880 C   0  0  0  0  0  0  0  0  0  0  0  0
  140.0090   71.9430  223.8060 N   0  0  0  0  0  0  0  0  0  0  0  0
  139.4960   70.8870  224.4940 C   0  0  0  0  0  0  0  0  0  0  0  0
  140.0610   70.5410  225.8240 C   0  0  0  0  0  0  0  0  0  0  0  0
  140.0890   69.1980  226.2450 C   0  0  0  0  0  0  0  0  0  0  0  0
  139.6984   68.4109  225.5833 H   0  0  0  0  0  0  0  0  0  0  0  0
  140.6090   68.8560  227.4970 C   0  0  0  0  0  0  0  0  0  0  0  0
  140.6289   67.8028  227.8138 H   0  0  0  0  0  0  0  0  0  0  0  0
  141.1030   69.8480  228.3460 C   0  0  0  0  0  0  0  0  0  0  0  0
  141.5170   69.5761  229.3282 H   0  0  0  0  0  0  0  0  0  0  0  0
  141.0710   71.1860  227.9470 C   0  0  0  0  0  0  0  0  0  0  0  0
  141.4552   71.9678  228.6187 H   0  0  0  0  0  0  0  0  0  0  0  0
  140.5520   71.5350  226.6960 C   0  0  0  0  0  0  0  0  0  0  0  0
  140.5266   72.5913  226.3902 H   0  0  0  0  0  0  0  0  0  0  0  0
  138.4340   70.1650  223.9260 C   0  0  0  0  0  0  0  0  0  0  0  0
  137.9855   69.3145  224.4604 H   0  0  0  0  0  0  0  0  0  0  0  0
  137.9590   70.5460  222.6730 C   0  0  0  0  0  0  0  0  0  0  0  0
  137.1335   69.9886  222.2061 H   0  0  0  0  0  0  0  0  0  0  0  0
  138.5130   71.6040  222.0270 N   0  0  0  0  0  0  0  0  0  0  0  0
  141.8840   74.6480  221.0450 C   0  0  0  0  0  0  0  0  0  0  0  0
  141.2435   75.5381  221.1314 H   0  0  0  0  0  0  0  0  0  0  0  0
  143.1920   74.7770  220.5650 C   0  0  0  0  0  0  0  0  0  0  0  0
  143.5638   75.7625  220.2479 H   0  0  0  0  0  0  0  0  0  0  0  0
  1  2  1  0
  2  3  1  0
  3  4  1  0
  4  5  1  0
  5  6  1  0
  5  7  1  0
  7  8  1  0
  7  9  1  0
  7 10  1  0
  5 11  1  0
 11 12  1  0
 11 13  1  0
 11 14  1  0
  3 15  2  0
 15 16  1  0
 15 17  1  0
 17 18  2  0
 18 19  1  0
 18 20  1  0
 20 21  1  0
 20 22  2  0
 22 23  1  0
 23 24  2  0
 24 25  1  0
 25 26  2  0
 26 27  1  0
 27 28  2  0
 28 29  1  0
 28 30  1  0
 30 31  1  0
 30 32  2  0
 32 33  1  0
 32 34  1  0
 34 35  1  0
 34 36  2  0
 36 37  1  0
 26 38  1  0
 38 39  1  0
 38 40  2  0
 40 41  1  0
 40 42  1  0
 22 43  1  0
 43 44  1  0
 43 45  2  0
 45 46  1  0
 45 17  1  0
 42 24  1  0
 36 27  1  0
M  CHG  2   4  -1  42  -1
M  END
>  <UniqueID>  (36) 
33

>  <SMILES>  (36) 
CC(C)[N-]/C(O)=C\c1ccc(/N=c2\nc(-c3ccccc3)cc[n-]2)cc1

>  <Energy>  (36) 
56.11859129716522

>  <Genealogy>  (36) 
CC(C)[N-]C(=O)Cc1ccc(N=c2nc(-c3ccccc3)cc[n-]2)cc1 (protonated)
CC(C)[N-]C(O)=Cc1ccc(N=c2nc(-c3ccccc3)cc[n-]2)cc1 (tautomer)
CC(C)[N-]/C(O)=C\c1ccc(/N=c2\nc(-c3ccccc3)cc[n-]2)cc1 (cis-trans isomerization)
CC(C)[N-]/C(O)=C\c1ccc(/N=c2\nc(-c3ccccc3)cc[n-]2)cc1 (3D coordinates assigned)
CC(C)[N-]/C(O)=C\c1ccc(/N=c2\nc(-c3ccccc3)cc[n-]2)cc1 (optimized conformer: 56.11859129716522 kcal/mol)

>  <smiles>  (36) 
CC(C)NC(=O)Cc1ccc(N=c2nc(-c3ccccc3)cc[nH]2)cc1

>  <score_type>  (36) 
oracle

>  <origin>  (36) 
autodockgpu

>  <m_score__min__energy>  (36) 
-8.1699999999999999

>  <m_primary>  (36) 
energy

>  <meeko>  (36) 
{"free_energy": -8.17, "intermolecular_energy": -10.55, "internal_energy": -0.92, "cluster_size": 15, "cluster_id": 1, "rank_in_cluster": 1}

>  <energy>  (36) 
-7.95

>  <cluster_rmsd>  (36) 
0.0

>  <rmsd>  (36) 
272.61

>  <cluster>  (36) 
2

$$$$
QCIVYEKZXQJEGX-QMMWQUDZNA-N
     RDKit          3D

 46 48  0  0  0  0  0  0  0  0999 V2000
  146.2090   71.9340  221.2870 H   0  0  0  0  0  0  0  0  0  0  0  0
  146.5290   72.5950  220.5880 O   0  0  0  0  0  0  0  0  0  0  0  0
  145.7320   72.9740  219.5060 C   0  0  0  0  0  0  0  0  0  0  0  0
  145.9210   72.3360  218.2380 N   0  0  0  0  0  0  0  0  0  0  0  0
  145.4400   70.9940  217.9260 C   0  0  0  0  0  0  0  0  0  0  0  0
  145.8075   70.6905  216.9346 H   0  0  0  0  0  0  0  0  0  0  0  0
  145.9650   70.0190  218.9780 C   0  0  0  0  0  0  0  0  0  0  0  0
  145.7524   70.4139  219.9824 H   0  0  0  0  0  0  0  0  0  0  0  0
  145.4696   69.0447  218.8546 H   0  0  0  0  0  0  0  0  0  0  0  0
  147.0511   69.8963  218.8546 H   0  0  0  0  0  0  0  0  0  0  0  0
  143.9090   70.9760  217.8920 C   0  0  0  0  0  0  0  0  0  0  0  0
  143.5194   70.9714  218.9207 H   0  0  0  0  0  0  0  0  0  0  0  0
  143.5434   71.8699  217.3654 H   0  0  0  0  0  0  0  0  0  0  0  0
  143.5645   70.0737  217.3654 H   0  0  0  0  0  0  0  0  0  0  0  0
  144.8180   73.9450  219.6580 C   0  0  0  0  0  0  0  0  0  0  0  0
  145.0554   74.9404  219.2545 H   0  0  0  0  0  0  0  0  0  0  0  0
  143.5120   73.7670  220.3320 C   0  0  0  0  0  0  0  0  0  0  0  0
  142.6970   74.8900  220.5380 C   0  0  0  0  0  0  0  0  0  0  0  0
  143.0271   75.8769  220.1817 H   0  0  0  0  0  0  0  0  0  0  0  0
  141.4680   74.7640  221.1930 C   0  0  0  0  0  0  0  0  0  0  0  0
  140.8227   75.6457  221.3200 H   0  0  0  0  0  0  0  0  0  0  0  0
  141.0530   73.5160  221.6900 C   0  0  0  0  0  0  0  0  0  0  0  0
  139.7850   73.3410  222.3440 N   0  0  0  0  0  0  0  0  0  0  0  0
  139.3380   72.2480  222.8920 C   0  0  0  0  0  0  0  0  0  0  0  0
  139.8460   71.7880  224.0680 N   0  0  0  0  0  0  0  0  0  0  0  0
  139.4070   70.6320  224.6380 C   0  0  0  0  0  0  0  0  0  0  0  0
  139.9960   70.1890  225.9280 C   0  0  0  0  0  0  0  0  0  0  0  0
  139.9980   68.8220  226.2640 C   0  0  0  0  0  0  0  0  0  0  0  0
  139.5687   68.0885  225.5657 H   0  0  0  0  0  0  0  0  0  0  0  0
  140.5410   68.3880  227.4780 C   0  0  0  0  0  0  0  0  0  0  0  0
  140.5417   67.3166  227.7272 H   0  0  0  0  0  0  0  0  0  0  0  0
  141.0820   69.3120  228.3740 C   0  0  0  0  0  0  0  0  0  0  0  0
  141.5125   68.9686  229.3262 H   0  0  0  0  0  0  0  0  0  0  0  0
  141.0760   70.6720  228.0600 C   0  0  0  0  0  0  0  0  0  0  0  0
  141.4984   71.3997  228.7685 H   0  0  0  0  0  0  0  0  0  0  0  0
  140.5350   71.1130  226.8480 C   0  0  0  0  0  0  0  0  0  0  0  0
  140.5297   72.1870  226.6105 H   0  0  0  0  0  0  0  0  0  0  0  0
  138.3970   69.9020  223.9920 C   0  0  0  0  0  0  0  0  0  0  0  0
  138.0091   68.9712  224.4316 H   0  0  0  0  0  0  0  0  0  0  0  0
  137.8950   70.3800  222.7820 C   0  0  0  0  0  0  0  0  0  0  0  0
  137.1084   69.8204  222.2546 H   0  0  0  0  0  0  0  0  0  0  0  0
  138.3750   71.5340  222.2540 N   0  0  0  0  0  0  0  0  0  0  0  0
  141.8640   72.3950  221.4810 C   0  0  0  0  0  0  0  0  0  0  0  0
  141.5322   71.4080  221.8356 H   0  0  0  0  0  0  0  0  0  0  0  0
  143.0930   72.5190  220.8250 C   0  0  0  0  0  0  0  0  0  0  0  0
  143.7350   71.6354  220.6942 H   0  0  0  0  0  0  0  0  0  0  0  0
  1  2  1  0
  2  3  1  0
  3  4  1  0
  4  5  1  0
  5  6  1  0
  5  7  1  0
  7  8  1  0
  7  9  1  0
  7 10  1  0
  5 11  1  0
 11 12  1  0
 11 13  1  0
 11 14  1  0
  3 15  2  0
 15 16  1  0
 15 17  1  0
 17 18  2  0
 18 19  1  0
 18 20  1  0
 20 21  1  0
 20 22  2  0
 22 23  1  0
 23 24  2  0
 24 25  1  0
 25 26  2  0
 26 27  1  0
 27 28  2  0
 28 29  1  0
 28 30  1  0
 30 31  1  0
 30 32  2  0
 32 33  1  0
 32 34  1  0
 34 35  1  0
 34 36  2  0
 36 37  1  0
 26 38  1  0
 38 39  1  0
 38 40  2  0
 40 41  1  0
 40 42  1  0
 22 43  1  0
 43 44  1  0
 43 45  2  0
 45 46  1  0
 45 17  1  0
 42 24  1  0
 36 27  1  0
M  CHG  2   4  -1  42  -1
M  END
>  <UniqueID>  (37) 
33

>  <SMILES>  (37) 
CC(C)[N-]/C(O)=C\c1ccc(/N=c2\nc(-c3ccccc3)cc[n-]2)cc1

>  <Energy>  (37) 
56.11859129716522

>  <Genealogy>  (37) 
CC(C)[N-]C(=O)Cc1ccc(N=c2nc(-c3ccccc3)cc[n-]2)cc1 (protonated)
CC(C)[N-]C(O)=Cc1ccc(N=c2nc(-c3ccccc3)cc[n-]2)cc1 (tautomer)
CC(C)[N-]/C(O)=C\c1ccc(/N=c2\nc(-c3ccccc3)cc[n-]2)cc1 (cis-trans isomerization)
CC(C)[N-]/C(O)=C\c1ccc(/N=c2\nc(-c3ccccc3)cc[n-]2)cc1 (3D coordinates assigned)
CC(C)[N-]/C(O)=C\c1ccc(/N=c2\nc(-c3ccccc3)cc[n-]2)cc1 (optimized conformer: 56.11859129716522 kcal/mol)

>  <smiles>  (37) 
CC(C)NC(=O)Cc1ccc(N=c2nc(-c3ccccc3)cc[nH]2)cc1

>  <score_type>  (37) 
oracle

>  <origin>  (37) 
autodockgpu

>  <m_score__min__energy>  (37) 
-8.1699999999999999

>  <m_primary>  (37) 
energy

>  <meeko>  (37) 
{"free_energy": -8.01, "intermolecular_energy": -10.39, "internal_energy": -1.03, "cluster_size": 15, "cluster_id": 1, "rank_in_cluster": 8}

>  <energy>  (37) 
-7.72

>  <cluster_rmsd>  (37) 
0.0

>  <rmsd>  (37) 
272.02

>  <cluster>  (37) 
3

$$$$
QCIVYEKZXQJEGX-QMMWQUDZNA-N
     RDKit          3D

 46 48  0  0  0  0  0  0  0  0999 V2000
  146.1100   71.5590  221.0120 H   0  0  0  0  0  0  0  0  0  0  0  0
  146.4500   71.8290  220.0960 O   0  0  0  0  0  0  0  0  0  0  0  0
  145.8190   72.8110  219.3310 C   0  0  0  0  0  0  0  0  0  0  0  0
  145.9430   72.7780  217.9050 N   0  0  0  0  0  0  0  0  0  0  0  0
  145.3140   73.7470  217.0130 C   0  0  0  0  0  0  0  0  0  0  0  0
  145.2007   74.7102  217.5321 H   0  0  0  0  0  0  0  0  0  0  0  0
  146.1990   73.9400  215.7830 C   0  0  0  0  0  0  0  0  0  0  0  0
  147.2273   74.1643  216.1027 H   0  0  0  0  0  0  0  0  0  0  0  0
  146.1949   73.0198  215.1803 H   0  0  0  0  0  0  0  0  0  0  0  0
  145.8121   74.7749  215.1803 H   0  0  0  0  0  0  0  0  0  0  0  0
  143.9210   73.2600  216.6040 C   0  0  0  0  0  0  0  0  0  0  0  0
  143.3260   73.0520  217.5055 H   0  0  0  0  0  0  0  0  0  0  0  0
  143.4218   74.0369  216.0064 H   0  0  0  0  0  0  0  0  0  0  0  0
  144.0146   72.3413  216.0064 H   0  0  0  0  0  0  0  0  0  0  0  0
  145.1260   73.7880  219.9380 C   0  0  0  0  0  0  0  0  0  0  0  0
  145.6146   74.7665  220.0555 H   0  0  0  0  0  0  0  0  0  0  0  0
  143.7480   73.6370  220.4600 C   0  0  0  0  0  0  0  0  0  0  0  0
  142.9840   74.7880  220.6970 C   0  0  0  0  0  0  0  0  0  0  0  0
  143.4062   75.7794  220.4758 H   0  0  0  0  0  0  0  0  0  0  0  0
  141.6880   74.6840  221.2130 C   0  0  0  0  0  0  0  0  0  0  0  0
  141.0852   75.5915  221.3652 H   0  0  0  0  0  0  0  0  0  0  0  0
  141.1520   73.4260  221.5380 C   0  0  0  0  0  0  0  0  0  0  0  0
  139.8150   73.2760  222.0450 N   0  0  0  0  0  0  0  0  0  0  0  0
  139.3370   72.2490  222.6850 C   0  0  0  0  0  0  0  0  0  0  0  0
  139.8490   71.8630  223.8860 N   0  0  0  0  0  0  0  0  0  0  0  0
  139.3780   70.7740  224.5530 C   0  0  0  0  0  0  0  0  0  0  0  0
  139.9740   70.4120  225.8650 C   0  0  0  0  0  0  0  0  0  0  0  0
  140.4980   71.4180  226.6980 C   0  0  0  0  0  0  0  0  0  0  0  0
  140.4572   72.4688  226.3753 H   0  0  0  0  0  0  0  0  0  0  0  0
  141.0700   71.0940  227.9320 C   0  0  0  0  0  0  0  0  0  0  0  0
  141.4711   71.8896  228.5771 H   0  0  0  0  0  0  0  0  0  0  0  0
  141.1330   69.7620  228.3470 C   0  0  0  0  0  0  0  0  0  0  0  0
  141.5798   69.5093  229.3199 H   0  0  0  0  0  0  0  0  0  0  0  0
  140.6290   68.7520  227.5270 C   0  0  0  0  0  0  0  0  0  0  0  0
  140.6830   67.7028  227.8529 H   0  0  0  0  0  0  0  0  0  0  0  0
  140.0550   69.0700  226.2910 C   0  0  0  0  0  0  0  0  0  0  0  0
  139.6644   68.2680  225.6475 H   0  0  0  0  0  0  0  0  0  0  0  0
  138.3290   70.0360  223.9830 C   0  0  0  0  0  0  0  0  0  0  0  0
  137.9146   69.1588  224.5014 H   0  0  0  0  0  0  0  0  0  0  0  0
  137.8220   70.4360  222.7470 C   0  0  0  0  0  0  0  0  0  0  0  0
  137.0051   69.8677  222.2784 H   0  0  0  0  0  0  0  0  0  0  0  0
  138.3350   71.5250  222.1220 N   0  0  0  0  0  0  0  0  0  0  0  0
  141.9130   72.2770  221.2980 C   0  0  0  0  0  0  0  0  0  0  0  0
  141.4894   71.2859  221.5177 H   0  0  0  0  0  0  0  0  0  0  0  0
  143.2080   72.3790  220.7810 C   0  0  0  0  0  0  0  0  0  0  0  0
  143.8077   71.4702  220.6245 H   0  0  0  0  0  0  0  0  0  0  0  0
  1  2  1  0
  2  3  1  0
  3  4  1  0
  4  5  1  0
  5  6  1  0
  5  7  1  0
  7  8  1  0
  7  9  1  0
  7 10  1  0
  5 11  1  0
 11 12  1  0
 11 13  1  0
 11 14  1  0
  3 15  2  0
 15 16  1  0
 15 17  1  0
 17 18  2  0
 18 19  1  0
 18 20  1  0
 20 21  1  0
 20 22  2  0
 22 23  1  0
 23 24  2  0
 24 25  1  0
 25 26  2  0
 26 27  1  0
 27 28  2  0
 28 29  1  0
 28 30  1  0
 30 31  1  0
 30 32  2  0
 32 33  1  0
 32 34  1  0
 34 35  1  0
 34 36  2  0
 36 37  1  0
 26 38  1  0
 38 39  1  0
 38 40  2  0
 40 41  1  0
 40 42  1  0
 22 43  1  0
 43 44  1  0
 43 45  2  0
 45 46  1  0
 45 17  1  0
 42 24  1  0
 36 27  1  0
M  CHG  2   4  -1  42  -1
M  END
>  <UniqueID>  (38) 
33

>  <SMILES>  (38) 
CC(C)[N-]/C(O)=C\c1ccc(/N=c2\nc(-c3ccccc3)cc[n-]2)cc1

>  <Energy>  (38) 
56.11859129716522

>  <Genealogy>  (38) 
CC(C)[N-]C(=O)Cc1ccc(N=c2nc(-c3ccccc3)cc[n-]2)cc1 (protonated)
CC(C)[N-]C(O)=Cc1ccc(N=c2nc(-c3ccccc3)cc[n-]2)cc1 (tautomer)
CC(C)[N-]/C(O)=C\c1ccc(/N=c2\nc(-c3ccccc3)cc[n-]2)cc1 (cis-trans isomerization)
CC(C)[N-]/C(O)=C\c1ccc(/N=c2\nc(-c3ccccc3)cc[n-]2)cc1 (3D coordinates assigned)
CC(C)[N-]/C(O)=C\c1ccc(/N=c2\nc(-c3ccccc3)cc[n-]2)cc1 (optimized conformer: 56.11859129716522 kcal/mol)

>  <smiles>  (38) 
CC(C)NC(=O)Cc1ccc(N=c2nc(-c3ccccc3)cc[nH]2)cc1

>  <score_type>  (38) 
oracle

>  <origin>  (38) 
autodockgpu

>  <m_score__min__energy>  (38) 
-8.1699999999999999

>  <m_primary>  (38) 
energy

>  <meeko>  (38) 
{"free_energy": -7.66, "intermolecular_energy": -10.05, "internal_energy": -0.98, "cluster_size": 15, "cluster_id": 1, "rank_in_cluster": 15}

>  <energy>  (38) 
-7.64

>  <cluster_rmsd>  (38) 
0.9

>  <rmsd>  (38) 
271.88

>  <cluster>  (38) 
3

$$$$
QCIVYEKZXQJEGX-QMMWQUDZNA-N
     RDKit          3D

 46 48  0  0  0  0  0  0  0  0999 V2000
  145.9170   74.3640  217.7820 H   0  0  0  0  0  0  0  0  0  0  0  0
  146.0360   73.3600  217.8610 O   0  0  0  0  0  0  0  0  0  0  0  0
  145.8620   72.6860  219.0710 C   0  0  0  0  0  0  0  0  0  0  0  0
  146.1740   71.2910  219.1480 N   0  0  0  0  0  0  0  0  0  0  0  0
  145.4280   70.2520  218.4440 C   0  0  0  0  0  0  0  0  0  0  0  0
  144.4176   70.6168  218.2073 H   0  0  0  0  0  0  0  0  0  0  0  0
  146.1550   69.9090  217.1450 C   0  0  0  0  0  0  0  0  0  0  0  0
  147.1271   69.4504  217.3790 H   0  0  0  0  0  0  0  0  0  0  0  0
  145.5475   69.2025  216.5603 H   0  0  0  0  0  0  0  0  0  0  0  0
  146.3139   70.8271  216.5603 H   0  0  0  0  0  0  0  0  0  0  0  0
  145.2900   69.0110  219.3290 C   0  0  0  0  0  0  0  0  0  0  0  0
  145.3232   69.3097  220.3871 H   0  0  0  0  0  0  0  0  0  0  0  0
  144.3311   68.5149  219.1180 H   0  0  0  0  0  0  0  0  0  0  0  0
  146.1164   68.3164  219.1180 H   0  0  0  0  0  0  0  0  0  0  0  0
  145.3810   73.3430  220.1380 C   0  0  0  0  0  0  0  0  0  0  0  0
  146.0822   73.9594  220.7197 H   0  0  0  0  0  0  0  0  0  0  0  0
  143.9700   73.2940  220.5850 C   0  0  0  0  0  0  0  0  0  0  0  0
  143.2720   74.4980  220.7590 C   0  0  0  0  0  0  0  0  0  0  0  0
  143.7711   75.4545  220.5447 H   0  0  0  0  0  0  0  0  0  0  0  0
  141.9460   74.4910  221.2030 C   0  0  0  0  0  0  0  0  0  0  0  0
  141.3977   75.4393  221.3040 H   0  0  0  0  0  0  0  0  0  0  0  0
  141.3100   73.2780  221.5210 C   0  0  0  0  0  0  0  0  0  0  0  0
  139.9410   73.2280  221.9550 N   0  0  0  0  0  0  0  0  0  0  0  0
  139.3840   72.2880  222.6630 C   0  0  0  0  0  0  0  0  0  0  0  0
  139.9140   71.8920  223.8530 N   0  0  0  0  0  0  0  0  0  0  0  0
  139.3580   70.8930  224.5910 C   0  0  0  0  0  0  0  0  0  0  0  0
  139.9800   70.5140  225.8860 C   0  0  0  0  0  0  0  0  0  0  0  0
  140.0350   69.1600  226.2660 C   0  0  0  0  0  0  0  0  0  0  0  0
  139.6232   68.3891  225.5981 H   0  0  0  0  0  0  0  0  0  0  0  0
  140.6090   68.7860  227.4860 C   0  0  0  0  0  0  0  0  0  0  0  0
  140.6507   67.7242  227.7705 H   0  0  0  0  0  0  0  0  0  0  0  0
  141.1290   69.7580  228.3430 C   0  0  0  0  0  0  0  0  0  0  0  0
  141.5847   69.4618  229.2994 H   0  0  0  0  0  0  0  0  0  0  0  0
  141.0700   71.1060  227.9850 C   0  0  0  0  0  0  0  0  0  0  0  0
  141.4748   71.8716  228.6632 H   0  0  0  0  0  0  0  0  0  0  0  0
  140.4980   71.4860  226.7670 C   0  0  0  0  0  0  0  0  0  0  0  0
  140.4517   72.5506  226.4940 H   0  0  0  0  0  0  0  0  0  0  0  0
  138.2020   70.2600  224.1080 C   0  0  0  0  0  0  0  0  0  0  0  0
  137.7194   69.4576  224.6853 H   0  0  0  0  0  0  0  0  0  0  0  0
  137.6770   70.6680  222.8820 C   0  0  0  0  0  0  0  0  0  0  0  0
  136.7757   70.1813  222.4810 H   0  0  0  0  0  0  0  0  0  0  0  0
  138.2770   71.6650  222.1830 N   0  0  0  0  0  0  0  0  0  0  0  0
  142.0040   72.0760  221.3430 C   0  0  0  0  0  0  0  0  0  0  0  0
  141.5032   71.1197  221.5545 H   0  0  0  0  0  0  0  0  0  0  0  0
  143.3300   72.0820  220.8980 C   0  0  0  0  0  0  0  0  0  0  0  0
  143.8754   71.1326  220.7923 H   0  0  0  0  0  0  0  0  0  0  0  0
  1  2  1  0
  2  3  1  0
  3  4  1  0
  4  5  1  0
  5  6  1  0
  5  7  1  0
  7  8  1  0
  7  9  1  0
  7 10  1  0
  5 11  1  0
 11 12  1  0
 11 13  1  0
 11 14  1  0
  3 15  2  0
 15 16  1  0
 15 17  1  0
 17 18  2  0
 18 19  1  0
 18 20  1  0
 20 21  1  0
 20 22  2  0
 22 23  1  0
 23 24  2  0
 24 25  1  0
 25 26  2  0
 26 27  1  0
 27 28  2  0
 28 29  1  0
 28 30  1  0
 30 31  1  0
 30 32  2  0
 32 33  1  0
 32 34  1  0
 34 35  1  0
 34 36  2  0
 36 37  1  0
 26 38  1  0
 38 39  1  0
 38 40  2  0
 40 41  1  0
 40 42  1  0
 22 43  1  0
 43 44  1  0
 43 45  2  0
 45 46  1  0
 45 17  1  0
 42 24  1  0
 36 27  1  0
M  CHG  2   4  -1  42  -1
M  END
>  <UniqueID>  (39) 
33

>  <SMILES>  (39) 
CC(C)[N-]/C(O)=C\c1ccc(/N=c2\nc(-c3ccccc3)cc[n-]2)cc1

>  <Energy>  (39) 
56.11859129716522

>  <Genealogy>  (39) 
CC(C)[N-]C(=O)Cc1ccc(N=c2nc(-c3ccccc3)cc[n-]2)cc1 (protonated)
CC(C)[N-]C(O)=Cc1ccc(N=c2nc(-c3ccccc3)cc[n-]2)cc1 (tautomer)
CC(C)[N-]/C(O)=C\c1ccc(/N=c2\nc(-c3ccccc3)cc[n-]2)cc1 (cis-trans isomerization)
CC(C)[N-]/C(O)=C\c1ccc(/N=c2\nc(-c3ccccc3)cc[n-]2)cc1 (3D coordinates assigned)
CC(C)[N-]/C(O)=C\c1ccc(/N=c2\nc(-c3ccccc3)cc[n-]2)cc1 (optimized conformer: 56.11859129716522 kcal/mol)

>  <smiles>  (39) 
CC(C)NC(=O)Cc1ccc(N=c2nc(-c3ccccc3)cc[nH]2)cc1

>  <score_type>  (39) 
oracle

>  <origin>  (39) 
autodockgpu

>  <m_score__min__energy>  (39) 
-8.1699999999999999

>  <m_primary>  (39) 
energy

>  <meeko>  (39) 
{"free_energy": -8.02, "intermolecular_energy": -10.4, "internal_energy": -0.96, "cluster_size": 15, "cluster_id": 1, "rank_in_cluster": 6}

>  <energy>  (39) 
-7.58

>  <cluster_rmsd>  (39) 
1.18

>  <rmsd>  (39) 
272.16

>  <cluster>  (39) 
3

$$$$
QCIVYEKZXQJEGX-QMMWQUDZNA-N
     RDKit          3D

 46 48  0  0  0  0  0  0  0  0999 V2000
  146.8500   74.3460  219.3620 H   0  0  0  0  0  0  0  0  0  0  0  0
  146.6590   73.3510  219.3510 O   0  0  0  0  0  0  0  0  0  0  0  0
  145.5810   72.8100  218.6500 C   0  0  0  0  0  0  0  0  0  0  0  0
  145.6490   71.4540  218.1940 N   0  0  0  0  0  0  0  0  0  0  0  0
  145.2150   70.3090  218.9880 C   0  0  0  0  0  0  0  0  0  0  0  0
  145.0674   70.6175  220.0335 H   0  0  0  0  0  0  0  0  0  0  0  0
  143.8940   69.7850  218.4260 C   0  0  0  0  0  0  0  0  0  0  0  0
  143.2225   69.5187  219.2556 H   0  0  0  0  0  0  0  0  0  0  0  0
  143.4231   70.5645  217.8089 H   0  0  0  0  0  0  0  0  0  0  0  0
  144.0855   68.8947  217.8089 H   0  0  0  0  0  0  0  0  0  0  0  0
  146.2840   69.2130  218.9620 C   0  0  0  0  0  0  0  0  0  0  0  0
  146.5523   68.9379  219.9927 H   0  0  0  0  0  0  0  0  0  0  0  0
  145.8909   68.3297  218.4373 H   0  0  0  0  0  0  0  0  0  0  0  0
  147.1768   69.5840  218.4373 H   0  0  0  0  0  0  0  0  0  0  0  0
  144.5050   73.5700  218.3890 C   0  0  0  0  0  0  0  0  0  0  0  0
  144.4338   74.0337  217.3941 H   0  0  0  0  0  0  0  0  0  0  0  0
  143.4080   73.8260  219.3500 C   0  0  0  0  0  0  0  0  0  0  0  0
  142.8730   72.7490  220.0710 C   0  0  0  0  0  0  0  0  0  0  0  0
  143.2852   71.7390  219.9296 H   0  0  0  0  0  0  0  0  0  0  0  0
  141.8200   72.9490  220.9680 C   0  0  0  0  0  0  0  0  0  0  0  0
  141.4292   72.1019  221.5509 H   0  0  0  0  0  0  0  0  0  0  0  0
  141.2580   74.2270  221.1290 C   0  0  0  0  0  0  0  0  0  0  0  0
  140.1930   74.4790  222.0610 N   0  0  0  0  0  0  0  0  0  0  0  0
  139.6080   75.6200  222.2830 C   0  0  0  0  0  0  0  0  0  0  0  0
  140.3290   76.7520  222.5090 N   0  0  0  0  0  0  0  0  0  0  0  0
  139.7320   77.9470  222.7700 C   0  0  0  0  0  0  0  0  0  0  0  0
  140.5760   79.1480  222.9990 C   0  0  0  0  0  0  0  0  0  0  0  0
  141.8280   79.0130  223.6290 C   0  0  0  0  0  0  0  0  0  0  0  0
  142.1762   78.0175  223.9416 H   0  0  0  0  0  0  0  0  0  0  0  0
  142.6330   80.1330  223.8610 C   0  0  0  0  0  0  0  0  0  0  0  0
  143.6114   80.0146  224.3495 H   0  0  0  0  0  0  0  0  0  0  0  0
  142.1960   81.4020  223.4730 C   0  0  0  0  0  0  0  0  0  0  0  0
  142.8315   82.2818  223.6520 H   0  0  0  0  0  0  0  0  0  0  0  0
  140.9520   81.5520  222.8580 C   0  0  0  0  0  0  0  0  0  0  0  0
  140.6067   82.5521  222.5570 H   0  0  0  0  0  0  0  0  0  0  0  0
  140.1430   80.4360  222.6230 C   0  0  0  0  0  0  0  0  0  0  0  0
  139.1622   80.5638  222.1416 H   0  0  0  0  0  0  0  0  0  0  0  0
  138.3300   78.0070  222.7990 C   0  0  0  0  0  0  0  0  0  0  0  0
  137.8138   78.9588  222.9933 H   0  0  0  0  0  0  0  0  0  0  0  0
  137.6040   76.8380  222.5770 C   0  0  0  0  0  0  0  0  0  0  0  0
  136.5045   76.8611  222.6020 H   0  0  0  0  0  0  0  0  0  0  0  0
  138.2520   75.6710  222.3300 N   0  0  0  0  0  0  0  0  0  0  0  0
  141.7940   75.3040  220.4130 C   0  0  0  0  0  0  0  0  0  0  0  0
  141.3833   76.3142  220.5576 H   0  0  0  0  0  0  0  0  0  0  0  0
  142.8480   75.1050  219.5150 C   0  0  0  0  0  0  0  0  0  0  0  0
  143.2406   75.9533  218.9351 H   0  0  0  0  0  0  0  0  0  0  0  0
  1  2  1  0
  2  3  1  0
  3  4  1  0
  4  5  1  0
  5  6  1  0
  5  7  1  0
  7  8  1  0
  7  9  1  0
  7 10  1  0
  5 11  1  0
 11 12  1  0
 11 13  1  0
 11 14  1  0
  3 15  2  0
 15 16  1  0
 15 17  1  0
 17 18  2  0
 18 19  1  0
 18 20  1  0
 20 21  1  0
 20 22  2  0
 22 23  1  0
 23 24  2  0
 24 25  1  0
 25 26  2  0
 26 27  1  0
 27 28  2  0
 28 29  1  0
 28 30  1  0
 30 31  1  0
 30 32  2  0
 32 33  1  0
 32 34  1  0
 34 35  1  0
 34 36  2  0
 36 37  1  0
 26 38  1  0
 38 39  1  0
 38 40  2  0
 40 41  1  0
 40 42  1  0
 22 43  1  0
 43 44  1  0
 43 45  2  0
 45 46  1  0
 45 17  1  0
 42 24  1  0
 36 27  1  0
M  CHG  2   4  -1  42  -1
M  END
>  <UniqueID>  (40) 
33

>  <SMILES>  (40) 
CC(C)[N-]/C(O)=C\c1ccc(/N=c2\nc(-c3ccccc3)cc[n-]2)cc1

>  <Energy>  (40) 
56.11859129716522

>  <Genealogy>  (40) 
CC(C)[N-]C(=O)Cc1ccc(N=c2nc(-c3ccccc3)cc[n-]2)cc1 (protonated)
CC(C)[N-]C(O)=Cc1ccc(N=c2nc(-c3ccccc3)cc[n-]2)cc1 (tautomer)
CC(C)[N-]/C(O)=C\c1ccc(/N=c2\nc(-c3ccccc3)cc[n-]2)cc1 (cis-trans isomerization)
CC(C)[N-]/C(O)=C\c1ccc(/N=c2\nc(-c3ccccc3)cc[n-]2)cc1 (3D coordinates assigned)
CC(C)[N-]/C(O)=C\c1ccc(/N=c2\nc(-c3ccccc3)cc[n-]2)cc1 (optimized conformer: 56.11859129716522 kcal/mol)

>  <smiles>  (40) 
CC(C)NC(=O)Cc1ccc(N=c2nc(-c3ccccc3)cc[nH]2)cc1

>  <score_type>  (40) 
oracle

>  <origin>  (40) 
autodockgpu

>  <m_score__min__energy>  (40) 
-8.1699999999999999

>  <m_primary>  (40) 
energy

>  <meeko>  (40) 
{"free_energy": -7.64, "intermolecular_energy": -10.03, "internal_energy": -0.96, "cluster_size": 4, "cluster_id": 3, "rank_in_cluster": 2}

>  <energy>  (40) 
-7.34

>  <cluster_rmsd>  (40) 
1.01

>  <rmsd>  (40) 
271.97

>  <cluster>  (40) 
3

$$$$
DPVNRQFUFIRJCL-RZTMHIGINA-N
     RDKit          3D

 48 50  0  0  0  0  0  0  0  0999 V2000
  146.1230   74.2390  217.5140 H   0  0  0  0  0  0  0  0  0  0  0  0
  146.2160   73.2990  217.8620 O   0  0  0  0  0  0  0  0  0  0  0  0
  145.7540   72.8910  219.1150 C   0  0  0  0  0  0  0  0  0  0  0  0
  145.1720   73.7890  219.9270 C   0  0  0  0  0  0  0  0  0  0  0  0
  145.7328   74.7042  220.1676 H   0  0  0  0  0  0  0  0  0  0  0  0
  143.8250   73.6270  220.5190 C   0  0  0  0  0  0  0  0  0  0  0  0
  143.3130   72.3640  220.8680 C   0  0  0  0  0  0  0  0  0  0  0  0
  143.9287   71.4642  220.7217 H   0  0  0  0  0  0  0  0  0  0  0  0
  142.0250   72.2470  221.4000 C   0  0  0  0  0  0  0  0  0  0  0  0
  141.6297   71.2550  221.6638 H   0  0  0  0  0  0  0  0  0  0  0  0
  141.2340   73.3900  221.5990 C   0  0  0  0  0  0  0  0  0  0  0  0
  139.8870   73.2870  222.0870 N   0  0  0  0  0  0  0  0  0  0  0  0
  139.3460   72.2710  222.6980 C   0  0  0  0  0  0  0  0  0  0  0  0
  139.8720   71.8730  223.8850 N   0  0  0  0  0  0  0  0  0  0  0  0
  139.3730   70.8160  224.5810 C   0  0  0  0  0  0  0  0  0  0  0  0
  139.9880   70.4420  225.8810 C   0  0  0  0  0  0  0  0  0  0  0  0
  140.0430   69.0890  226.2670 C   0  0  0  0  0  0  0  0  0  0  0  0
  139.6348   68.3148  225.6006 H   0  0  0  0  0  0  0  0  0  0  0  0
  140.6120   68.7210  227.4900 C   0  0  0  0  0  0  0  0  0  0  0  0
  140.6560   67.6602  227.7778 H   0  0  0  0  0  0  0  0  0  0  0  0
  141.1240   69.6960  228.3460 C   0  0  0  0  0  0  0  0  0  0  0  0
  141.5739   69.4040  229.3063 H   0  0  0  0  0  0  0  0  0  0  0  0
  141.0650   71.0430  227.9830 C   0  0  0  0  0  0  0  0  0  0  0  0
  141.4658   71.8115  228.6604 H   0  0  0  0  0  0  0  0  0  0  0  0
  140.4980   71.4180  226.7610 C   0  0  0  0  0  0  0  0  0  0  0  0
  140.4496   72.4816  226.4846 H   0  0  0  0  0  0  0  0  0  0  0  0
  138.2750   70.1200  224.0550 C   0  0  0  0  0  0  0  0  0  0  0  0
  137.8336   69.2736  224.6017 H   0  0  0  0  0  0  0  0  0  0  0  0
  137.7540   70.5210  222.8270 C   0  0  0  0  0  0  0  0  0  0  0  0
  136.9000   69.9808  222.3924 H   0  0  0  0  0  0  0  0  0  0  0  0
  138.2950   71.5760  222.1630 N   0  0  0  0  0  0  0  0  0  0  0  0
  137.9030   71.8090  221.2250 H   0  0  0  0  0  0  0  0  0  0  0  0
  141.7180   74.6390  221.1930 C   0  0  0  0  0  0  0  0  0  0  0  0
  141.0824   75.5312  221.2928 H   0  0  0  0  0  0  0  0  0  0  0  0
  143.0060   74.7580  220.6610 C   0  0  0  0  0  0  0  0  0  0  0  0
  143.3799   75.7452  220.3516 H   0  0  0  0  0  0  0  0  0  0  0  0
  145.8710   71.5220  219.5590 N   0  0  0  0  0  0  0  0  0  0  0  0
  146.0500   71.3620  220.5770 H   0  0  0  0  0  0  0  0  0  0  0  0
  145.5660   70.3130  218.7760 C   0  0  0  0  0  0  0  0  0  0  0  0
  145.9531   70.4809  217.7601 H   0  0  0  0  0  0  0  0  0  0  0  0
  146.3010   69.0760  219.3040 C   0  0  0  0  0  0  0  0  0  0  0  0
  146.2943   69.0872  220.4039 H   0  0  0  0  0  0  0  0  0  0  0  0
  145.7959   68.1677  218.9435 H   0  0  0  0  0  0  0  0  0  0  0  0
  147.3402   69.0853  218.9435 H   0  0  0  0  0  0  0  0  0  0  0  0
  144.0560   70.0930  218.6340 C   0  0  0  0  0  0  0  0  0  0  0  0
  143.5996   70.0265  219.6327 H   0  0  0  0  0  0  0  0  0  0  0  0
  143.6128   70.9361  218.0837 H   0  0  0  0  0  0  0  0  0  0  0  0
  143.8718   69.1585  218.0837 H   0  0  0  0  0  0  0  0  0  0  0  0
  1  2  1  0
  2  3  1  0
  3  4  2  0
  4  5  1  0
  4  6  1  0
  6  7  2  0
  7  8  1  0
  7  9  1  0
  9 10  1  0
  9 11  2  0
 11 12  1  0
 12 13  2  0
 13 14  1  0
 14 15  2  0
 15 16  1  0
 16 17  2  0
 17 18  1  0
 17 19  1  0
 19 20  1  0
 19 21  2  0
 21 22  1  0
 21 23  1  0
 23 24  1  0
 23 25  2  0
 25 26  1  0
 15 27  1  0
 27 28  1  0
 27 29  2  0
 29 30  1  0
 29 31  1  0
 31 32  1  0
 11 33  1  0
 33 34  1  0
 33 35  2  0
 35 36  1  0
  3 37  1  0
 37 38  1  0
 37 39  1  0
 39 40  1  0
 39 41  1  0
 41 42  1  0
 41 43  1  0
 41 44  1  0
 39 45  1  0
 45 46  1  0
 45 47  1  0
 45 48  1  0
 35  6  1  0
 31 13  1  0
 25 16  1  0
M  END
>  <UniqueID>  (41) 
34

>  <SMILES>  (41) 
CC(C)N/C(O)=C/c1ccc(/N=c2/nc(-c3ccccc3)cc[nH]2)cc1

>  <Energy>  (41) 
66.6193675389205

>  <Genealogy>  (41) 
CC(C)NC(O)=Cc1ccc(N=c2nc(-c3ccccc3)cc[nH]2)cc1 (tautomer)
CC(C)N/C(O)=C/c1ccc(/N=c2/nc(-c3ccccc3)cc[nH]2)cc1 (cis-trans isomerization)
CC(C)N/C(O)=C/c1ccc(/N=c2/nc(-c3ccccc3)cc[nH]2)cc1 (3D coordinates assigned)
CC(C)N/C(O)=C/c1ccc(/N=c2/nc(-c3ccccc3)cc[nH]2)cc1 (optimized conformer: 66.6193675389205 kcal/mol)

>  <smiles>  (41) 
CC(C)NC(=O)Cc1ccc(N=c2nc(-c3ccccc3)cc[nH]2)cc1

>  <score_type>  (41) 
oracle

>  <origin>  (41) 
autodockgpu

>  <m_score__min__energy>  (41) 
-8.3800000000000008

>  <m_primary>  (41) 
energy

>  <meeko>  (41) 
{"free_energy": -7.99, "intermolecular_energy": -10.38, "internal_energy": -0.95, "cluster_size": 9, "cluster_id": 2, "rank_in_cluster": 6}

>  <energy>  (41) 
-8.38

>  <cluster_rmsd>  (41) 
0.0

>  <rmsd>  (41) 
272.38

>  <cluster>  (41) 
1

$$$$
DPVNRQFUFIRJCL-RZTMHIGINA-N
     RDKit          3D

 48 50  0  0  0  0  0  0  0  0999 V2000
  140.1190   81.8000  220.3800 H   0  0  0  0  0  0  0  0  0  0  0  0
  140.5210   81.4690  221.2420 O   0  0  0  0  0  0  0  0  0  0  0  0
  140.8880   80.1400  221.4620 C   0  0  0  0  0  0  0  0  0  0  0  0
  140.0160   79.1600  221.1730 C   0  0  0  0  0  0  0  0  0  0  0  0
  139.0419   79.4465  220.7499 H   0  0  0  0  0  0  0  0  0  0  0  0
  140.2810   77.7190  221.3870 C   0  0  0  0  0  0  0  0  0  0  0  0
  141.3920   77.0740  220.8140 C   0  0  0  0  0  0  0  0  0  0  0  0
  142.1050   77.6491  220.2049 H   0  0  0  0  0  0  0  0  0  0  0  0
  141.5940   75.7060  221.0150 C   0  0  0  0  0  0  0  0  0  0  0  0
  142.4616   75.2083  220.5571 H   0  0  0  0  0  0  0  0  0  0  0  0
  140.6960   74.9630  221.7980 C   0  0  0  0  0  0  0  0  0  0  0  0
  140.8520   73.5460  221.9670 N   0  0  0  0  0  0  0  0  0  0  0  0
  140.0490   72.7340  222.5960 C   0  0  0  0  0  0  0  0  0  0  0  0
  140.4350   72.2470  223.8030 N   0  0  0  0  0  0  0  0  0  0  0  0
  139.6610   71.3850  224.5180 C   0  0  0  0  0  0  0  0  0  0  0  0
  140.1370   70.9010  225.8400 C   0  0  0  0  0  0  0  0  0  0  0  0
  140.7100   71.8070  226.7530 C   0  0  0  0  0  0  0  0  0  0  0  0
  140.7956   72.8704  226.4849 H   0  0  0  0  0  0  0  0  0  0  0  0
  141.1710   71.3670  227.9970 C   0  0  0  0  0  0  0  0  0  0  0  0
  141.6117   72.0847  228.7045 H   0  0  0  0  0  0  0  0  0  0  0  0
  141.0730   70.0180  228.3430 C   0  0  0  0  0  0  0  0  0  0  0  0
  141.4327   69.6738  229.3239 H   0  0  0  0  0  0  0  0  0  0  0  0
  140.5180   69.1060  227.4430 C   0  0  0  0  0  0  0  0  0  0  0  0
  140.4443   68.0427  227.7150 H   0  0  0  0  0  0  0  0  0  0  0  0
  140.0560   69.5400  226.1980 C   0  0  0  0  0  0  0  0  0  0  0  0
  139.6259   68.8144  225.4920 H   0  0  0  0  0  0  0  0  0  0  0  0
  138.4220   70.9960  223.9900 C   0  0  0  0  0  0  0  0  0  0  0  0
  137.7618   70.3186  224.5515 H   0  0  0  0  0  0  0  0  0  0  0  0
  138.0420   71.4830  222.7410 C   0  0  0  0  0  0  0  0  0  0  0  0
  137.0789   71.1796  222.3046 H   0  0  0  0  0  0  0  0  0  0  0  0
  138.8560   72.3310  222.0600 N   0  0  0  0  0  0  0  0  0  0  0  0
  138.5510   72.6310  221.1090 H   0  0  0  0  0  0  0  0  0  0  0  0
  139.5570   75.5900  222.3150 C   0  0  0  0  0  0  0  0  0  0  0  0
  138.8190   75.0032  222.8816 H   0  0  0  0  0  0  0  0  0  0  0  0
  139.3520   76.9590  222.1150 C   0  0  0  0  0  0  0  0  0  0  0  0
  138.4565   77.4436  222.5311 H   0  0  0  0  0  0  0  0  0  0  0  0
  142.1890   79.7860  221.9800 N   0  0  0  0  0  0  0  0  0  0  0  0
  142.9600   79.6540  221.2850 H   0  0  0  0  0  0  0  0  0  0  0  0
  142.6050   79.7870  223.3910 C   0  0  0  0  0  0  0  0  0  0  0  0
  143.6582   79.4705  223.4164 H   0  0  0  0  0  0  0  0  0  0  0  0
  142.5770   81.1900  224.0070 C   0  0  0  0  0  0  0  0  0  0  0  0
  142.5786   81.1089  225.1040 H   0  0  0  0  0  0  0  0  0  0  0  0
  143.4641   81.7520  223.6796 H   0  0  0  0  0  0  0  0  0  0  0  0
  141.6682   81.7161  223.6796 H   0  0  0  0  0  0  0  0  0  0  0  0
  141.8220   78.7590  224.2150 C   0  0  0  0  0  0  0  0  0  0  0  0
  141.9725   78.9566  225.2866 H   0  0  0  0  0  0  0  0  0  0  0  0
  140.7513   78.8355  223.9749 H   0  0  0  0  0  0  0  0  0  0  0  0
  142.1802   77.7471  223.9749 H   0  0  0  0  0  0  0  0  0  0  0  0
  1  2  1  0
  2  3  1  0
  3  4  2  0
  4  5  1  0
  4  6  1  0
  6  7  2  0
  7  8  1  0
  7  9  1  0
  9 10  1  0
  9 11  2  0
 11 12  1  0
 12 13  2  0
 13 14  1  0
 14 15  2  0
 15 16  1  0
 16 17  2  0
 17 18  1  0
 17 19  1  0
 19 20  1  0
 19 21  2  0
 21 22  1  0
 21 23  1  0
 23 24  1  0
 23 25  2  0
 25 26  1  0
 15 27  1  0
 27 28  1  0
 27 29  2  0
 29 30  1  0
 29 31  1  0
 31 32  1  0
 11 33  1  0
 33 34  1  0
 33 35  2  0
 35 36  1  0
  3 37  1  0
 37 38  1  0
 37 39  1  0
 39 40  1  0
 39 41  1  0
 41 42  1  0
 41 43  1  0
 41 44  1  0
 39 45  1  0
 45 46  1  0
 45 47  1  0
 45 48  1  0
 35  6  1  0
 31 13  1  0
 25 16  1  0
M  END
>  <UniqueID>  (42) 
34

>  <SMILES>  (42) 
CC(C)N/C(O)=C/c1ccc(/N=c2/nc(-c3ccccc3)cc[nH]2)cc1

>  <Energy>  (42) 
66.6193675389205

>  <Genealogy>  (42) 
CC(C)NC(O)=Cc1ccc(N=c2nc(-c3ccccc3)cc[nH]2)cc1 (tautomer)
CC(C)N/C(O)=C/c1ccc(/N=c2/nc(-c3ccccc3)cc[nH]2)cc1 (cis-trans isomerization)
CC(C)N/C(O)=C/c1ccc(/N=c2/nc(-c3ccccc3)cc[nH]2)cc1 (3D coordinates assigned)
CC(C)N/C(O)=C/c1ccc(/N=c2/nc(-c3ccccc3)cc[nH]2)cc1 (optimized conformer: 66.6193675389205 kcal/mol)

>  <smiles>  (42) 
CC(C)NC(=O)Cc1ccc(N=c2nc(-c3ccccc3)cc[nH]2)cc1

>  <score_type>  (42) 
oracle

>  <origin>  (42) 
autodockgpu

>  <m_score__min__energy>  (42) 
-8.3800000000000008

>  <m_primary>  (42) 
energy

>  <meeko>  (42) 
{"free_energy": -7.68, "intermolecular_energy": -10.06, "internal_energy": -1.03, "cluster_size": 9, "cluster_id": 3, "rank_in_cluster": 9}

>  <energy>  (42) 
-8.12

>  <cluster_rmsd>  (42) 
0.0

>  <rmsd>  (42) 
271.58

>  <cluster>  (42) 
2

$$$$
DPVNRQFUFIRJCL-RZTMHIGINA-N
     RDKit          3D

 48 50  0  0  0  0  0  0  0  0999 V2000
  146.2800   74.2940  217.6280 H   0  0  0  0  0  0  0  0  0  0  0  0
  146.2840   73.3610  218.0070 O   0  0  0  0  0  0  0  0  0  0  0  0
  145.6750   73.0170  219.2150 C   0  0  0  0  0  0  0  0  0  0  0  0
  145.0040   73.9530  219.9050 C   0  0  0  0  0  0  0  0  0  0  0  0
  145.4796   74.9365  220.0336 H   0  0  0  0  0  0  0  0  0  0  0  0
  143.6660   73.7480  220.5040 C   0  0  0  0  0  0  0  0  0  0  0  0
  143.1820   72.4670  220.8220 C   0  0  0  0  0  0  0  0  0  0  0  0
  143.8141   71.5840  220.6468 H   0  0  0  0  0  0  0  0  0  0  0  0
  141.9010   72.3100  221.3600 C   0  0  0  0  0  0  0  0  0  0  0  0
  141.5276   71.3032  221.5988 H   0  0  0  0  0  0  0  0  0  0  0  0
  141.0890   73.4300  221.5970 C   0  0  0  0  0  0  0  0  0  0  0  0
  139.7490   73.2870  222.0930 N   0  0  0  0  0  0  0  0  0  0  0  0
  139.2420   72.2560  222.7100 C   0  0  0  0  0  0  0  0  0  0  0  0
  139.7920   71.8740  223.8920 N   0  0  0  0  0  0  0  0  0  0  0  0
  139.3300   70.8030  224.5930 C   0  0  0  0  0  0  0  0  0  0  0  0
  139.9680   70.4480  225.8870 C   0  0  0  0  0  0  0  0  0  0  0  0
  140.0350   69.0990  226.2880 C   0  0  0  0  0  0  0  0  0  0  0  0
  139.6196   68.3153  225.6373 H   0  0  0  0  0  0  0  0  0  0  0  0
  140.6250   68.7480  227.5060 C   0  0  0  0  0  0  0  0  0  0  0  0
  140.6763   67.6913  227.8073 H   0  0  0  0  0  0  0  0  0  0  0  0
  141.1490   69.7370  228.3400 C   0  0  0  0  0  0  0  0  0  0  0  0
  141.6174   69.4588  229.2956 H   0  0  0  0  0  0  0  0  0  0  0  0
  141.0790   71.0790  227.9620 C   0  0  0  0  0  0  0  0  0  0  0  0
  141.4878   71.8573  228.6232 H   0  0  0  0  0  0  0  0  0  0  0  0
  140.4910   71.4360  226.7460 C   0  0  0  0  0  0  0  0  0  0  0  0
  140.4357   72.4958  226.4567 H   0  0  0  0  0  0  0  0  0  0  0  0
  138.2470   70.0770  224.0780 C   0  0  0  0  0  0  0  0  0  0  0  0
  137.8350   69.2190  224.6295 H   0  0  0  0  0  0  0  0  0  0  0  0
  137.7020   70.4620  222.8550 C   0  0  0  0  0  0  0  0  0  0  0  0
  136.8591   69.8979  222.4292 H   0  0  0  0  0  0  0  0  0  0  0  0
  138.2070   71.5310  222.1860 N   0  0  0  0  0  0  0  0  0  0  0  0
  137.7990   71.7530  221.2520 H   0  0  0  0  0  0  0  0  0  0  0  0
  141.5450   74.6990  221.2220 C   0  0  0  0  0  0  0  0  0  0  0  0
  140.8931   75.5754  221.3520 H   0  0  0  0  0  0  0  0  0  0  0  0
  142.8250   74.8580  220.6830 C   0  0  0  0  0  0  0  0  0  0  0  0
  143.1760   75.8605  220.3969 H   0  0  0  0  0  0  0  0  0  0  0  0
  145.7340   71.6720  219.7390 N   0  0  0  0  0  0  0  0  0  0  0  0
  146.0520   71.5580  220.7290 H   0  0  0  0  0  0  0  0  0  0  0  0
  145.2060   70.4550  219.1030 C   0  0  0  0  0  0  0  0  0  0  0  0
  144.4662   70.0245  219.7939 H   0  0  0  0  0  0  0  0  0  0  0  0
  144.4410   70.7580  217.8100 C   0  0  0  0  0  0  0  0  0  0  0  0
  143.4445   71.1527  218.0574 H   0  0  0  0  0  0  0  0  0  0  0  0
  144.9954   71.5044  217.2223 H   0  0  0  0  0  0  0  0  0  0  0  0
  144.3340   69.8344  217.2223 H   0  0  0  0  0  0  0  0  0  0  0  0
  146.2950   69.3930  218.9170 C   0  0  0  0  0  0  0  0  0  0  0  0
  146.6457   69.0510  219.9019 H   0  0  0  0  0  0  0  0  0  0  0  0
  145.8834   68.5398  218.3578 H   0  0  0  0  0  0  0  0  0  0  0  0
  147.1376   69.8258  218.3578 H   0  0  0  0  0  0  0  0  0  0  0  0
  1  2  1  0
  2  3  1  0
  3  4  2  0
  4  5  1  0
  4  6  1  0
  6  7  2  0
  7  8  1  0
  7  9  1  0
  9 10  1  0
  9 11  2  0
 11 12  1  0
 12 13  2  0
 13 14  1  0
 14 15  2  0
 15 16  1  0
 16 17  2  0
 17 18  1  0
 17 19  1  0
 19 20  1  0
 19 21  2  0
 21 22  1  0
 21 23  1  0
 23 24  1  0
 23 25  2  0
 25 26  1  0
 15 27  1  0
 27 28  1  0
 27 29  2  0
 29 30  1  0
 29 31  1  0
 31 32  1  0
 11 33  1  0
 33 34  1  0
 33 35  2  0
 35 36  1  0
  3 37  1  0
 37 38  1  0
 37 39  1  0
 39 40  1  0
 39 41  1  0
 41 42  1  0
 41 43  1  0
 41 44  1  0
 39 45  1  0
 45 46  1  0
 45 47  1  0
 45 48  1  0
 35  6  1  0
 31 13  1  0
 25 16  1  0
M  END
>  <UniqueID>  (43) 
34

>  <SMILES>  (43) 
CC(C)N/C(O)=C/c1ccc(/N=c2/nc(-c3ccccc3)cc[nH]2)cc1

>  <Energy>  (43) 
66.6193675389205

>  <Genealogy>  (43) 
CC(C)NC(O)=Cc1ccc(N=c2nc(-c3ccccc3)cc[nH]2)cc1 (tautomer)
CC(C)N/C(O)=C/c1ccc(/N=c2/nc(-c3ccccc3)cc[nH]2)cc1 (cis-trans isomerization)
CC(C)N/C(O)=C/c1ccc(/N=c2/nc(-c3ccccc3)cc[nH]2)cc1 (3D coordinates assigned)
CC(C)N/C(O)=C/c1ccc(/N=c2/nc(-c3ccccc3)cc[nH]2)cc1 (optimized conformer: 66.6193675389205 kcal/mol)

>  <smiles>  (43) 
CC(C)NC(=O)Cc1ccc(N=c2nc(-c3ccccc3)cc[nH]2)cc1

>  <score_type>  (43) 
oracle

>  <origin>  (43) 
autodockgpu

>  <m_score__min__energy>  (43) 
-8.3800000000000008

>  <m_primary>  (43) 
energy

>  <meeko>  (43) 
{"free_energy": -8.02, "intermolecular_energy": -10.4, "internal_energy": -0.92, "cluster_size": 9, "cluster_id": 2, "rank_in_cluster": 4}

>  <energy>  (43) 
-8.03

>  <cluster_rmsd>  (43) 
0.32

>  <rmsd>  (43) 
271.6

>  <cluster>  (43) 
2

$$$$
DPVNRQFUFIRJCL-RZTMHIGINA-N
     RDKit          3D

 48 50  0  0  0  0  0  0  0  0999 V2000
  146.2440   74.1800  217.5310 H   0  0  0  0  0  0  0  0  0  0  0  0
  146.2650   73.2700  217.9610 O   0  0  0  0  0  0  0  0  0  0  0  0
  145.5870   72.9580  219.1410 C   0  0  0  0  0  0  0  0  0  0  0  0
  144.9230   73.9260  219.7940 C   0  0  0  0  0  0  0  0  0  0  0  0
  145.3848   74.9231  219.8441 H   0  0  0  0  0  0  0  0  0  0  0  0
  143.6090   73.7370  220.4510 C   0  0  0  0  0  0  0  0  0  0  0  0
  143.1610   72.4710  220.8670 C   0  0  0  0  0  0  0  0  0  0  0  0
  143.8036   71.5895  220.7259 H   0  0  0  0  0  0  0  0  0  0  0  0
  141.9030   72.3270  221.4590 C   0  0  0  0  0  0  0  0  0  0  0  0
  141.5577   71.3318  221.7759 H   0  0  0  0  0  0  0  0  0  0  0  0
  141.0780   73.4470  221.6510 C   0  0  0  0  0  0  0  0  0  0  0  0
  139.7580   73.3130  222.2020 N   0  0  0  0  0  0  0  0  0  0  0  0
  139.2450   72.2600  222.7740 C   0  0  0  0  0  0  0  0  0  0  0  0
  139.7760   71.8390  223.9510 N   0  0  0  0  0  0  0  0  0  0  0  0
  139.3060   70.7420  224.6050 C   0  0  0  0  0  0  0  0  0  0  0  0
  139.9230   70.3430  225.8970 C   0  0  0  0  0  0  0  0  0  0  0  0
  140.4770   71.3250  226.7410 C   0  0  0  0  0  0  0  0  0  0  0  0
  140.4438   72.3831  226.4420 H   0  0  0  0  0  0  0  0  0  0  0  0
  141.0690   70.9660  227.9560 C   0  0  0  0  0  0  0  0  0  0  0  0
  141.4937   71.7417  228.6101 H   0  0  0  0  0  0  0  0  0  0  0  0
  141.1220   69.6260  228.3400 C   0  0  0  0  0  0  0  0  0  0  0  0
  141.5844   69.3462  229.2981 H   0  0  0  0  0  0  0  0  0  0  0  0
  140.5880   68.6400  227.5080 C   0  0  0  0  0  0  0  0  0  0  0  0
  140.6341   67.5833  227.8102 H   0  0  0  0  0  0  0  0  0  0  0  0
  139.9950   68.9920  226.2920 C   0  0  0  0  0  0  0  0  0  0  0  0
  139.5817   68.2092  225.6390 H   0  0  0  0  0  0  0  0  0  0  0  0
  138.2340   70.0310  224.0470 C   0  0  0  0  0  0  0  0  0  0  0  0
  137.8154   69.1534  224.5613 H   0  0  0  0  0  0  0  0  0  0  0  0
  137.7090   70.4570  222.8290 C   0  0  0  0  0  0  0  0  0  0  0  0
  136.8759   69.9052  222.3692 H   0  0  0  0  0  0  0  0  0  0  0  0
  138.2210   71.5510  222.2060 N   0  0  0  0  0  0  0  0  0  0  0  0
  137.8280   71.8040  221.2740 H   0  0  0  0  0  0  0  0  0  0  0  0
  141.4960   74.6960  221.1800 C   0  0  0  0  0  0  0  0  0  0  0  0
  140.8317   75.5675  221.2759 H   0  0  0  0  0  0  0  0  0  0  0  0
  142.7540   74.8420  220.5880 C   0  0  0  0  0  0  0  0  0  0  0  0
  143.0762   75.8298  220.2269 H   0  0  0  0  0  0  0  0  0  0  0  0
  145.5680   71.6160  219.6740 N   0  0  0  0  0  0  0  0  0  0  0  0
  145.7300   71.5070  220.7020 H   0  0  0  0  0  0  0  0  0  0  0  0
  145.1450   70.3950  218.9700 C   0  0  0  0  0  0  0  0  0  0  0  0
  144.7476   70.7070  217.9929 H   0  0  0  0  0  0  0  0  0  0  0  0
  146.3220   69.4620  218.6640 C   0  0  0  0  0  0  0  0  0  0  0  0
  146.7658   69.1102  219.6070 H   0  0  0  0  0  0  0  0  0  0  0  0
  145.9645   68.5993  218.0827 H   0  0  0  0  0  0  0  0  0  0  0  0
  147.0804   70.0070  218.0827 H   0  0  0  0  0  0  0  0  0  0  0  0
  143.9980   69.6870  219.6990 C   0  0  0  0  0  0  0  0  0  0  0  0
  144.1434   69.7767  220.7857 H   0  0  0  0  0  0  0  0  0  0  0  0
  143.0419   70.1523  219.4173 H   0  0  0  0  0  0  0  0  0  0  0  0
  143.9854   68.6237  219.4173 H   0  0  0  0  0  0  0  0  0  0  0  0
  1  2  1  0
  2  3  1  0
  3  4  2  0
  4  5  1  0
  4  6  1  0
  6  7  2  0
  7  8  1  0
  7  9  1  0
  9 10  1  0
  9 11  2  0
 11 12  1  0
 12 13  2  0
 13 14  1  0
 14 15  2  0
 15 16  1  0
 16 17  2  0
 17 18  1  0
 17 19  1  0
 19 20  1  0
 19 21  2  0
 21 22  1  0
 21 23  1  0
 23 24  1  0
 23 25  2  0
 25 26  1  0
 15 27  1  0
 27 28  1  0
 27 29  2  0
 29 30  1  0
 29 31  1  0
 31 32  1  0
 11 33  1  0
 33 34  1  0
 33 35  2  0
 35 36  1  0
  3 37  1  0
 37 38  1  0
 37 39  1  0
 39 40  1  0
 39 41  1  0
 41 42  1  0
 41 43  1  0
 41 44  1  0
 39 45  1  0
 45 46  1  0
 45 47  1  0
 45 48  1  0
 35  6  1  0
 31 13  1  0
 25 16  1  0
M  END
>  <UniqueID>  (44) 
34

>  <SMILES>  (44) 
CC(C)N/C(O)=C/c1ccc(/N=c2/nc(-c3ccccc3)cc[nH]2)cc1

>  <Energy>  (44) 
66.6193675389205

>  <Genealogy>  (44) 
CC(C)NC(O)=Cc1ccc(N=c2nc(-c3ccccc3)cc[nH]2)cc1 (tautomer)
CC(C)N/C(O)=C/c1ccc(/N=c2/nc(-c3ccccc3)cc[nH]2)cc1 (cis-trans isomerization)
CC(C)N/C(O)=C/c1ccc(/N=c2/nc(-c3ccccc3)cc[nH]2)cc1 (3D coordinates assigned)
CC(C)N/C(O)=C/c1ccc(/N=c2/nc(-c3ccccc3)cc[nH]2)cc1 (optimized conformer: 66.6193675389205 kcal/mol)

>  <smiles>  (44) 
CC(C)NC(=O)Cc1ccc(N=c2nc(-c3ccccc3)cc[nH]2)cc1

>  <score_type>  (44) 
oracle

>  <origin>  (44) 
autodockgpu

>  <m_score__min__energy>  (44) 
-8.3800000000000008

>  <m_primary>  (44) 
energy

>  <meeko>  (44) 
{"free_energy": -8.12, "intermolecular_energy": -10.5, "internal_energy": -0.83, "cluster_size": 9, "cluster_id": 2, "rank_in_cluster": 1}

>  <energy>  (44) 
-8.03

>  <cluster_rmsd>  (44) 
0.35

>  <rmsd>  (44) 
271.59

>  <cluster>  (44) 
2

$$$$
DPVNRQFUFIRJCL-RZTMHIGINA-N
     RDKit          3D

 48 50  0  0  0  0  0  0  0  0999 V2000
  146.1040   74.2580  217.6260 H   0  0  0  0  0  0  0  0  0  0  0  0
  146.2190   73.3270  217.9940 O   0  0  0  0  0  0  0  0  0  0  0  0
  145.7450   72.9280  219.2450 C   0  0  0  0  0  0  0  0  0  0  0  0
  145.1240   73.8230  220.0300 C   0  0  0  0  0  0  0  0  0  0  0  0
  145.6621   74.7496  220.2785 H   0  0  0  0  0  0  0  0  0  0  0  0
  143.7620   73.6440  220.5830 C   0  0  0  0  0  0  0  0  0  0  0  0
  143.2640   72.3780  220.9370 C   0  0  0  0  0  0  0  0  0  0  0  0
  143.9013   71.4884  220.8255 H   0  0  0  0  0  0  0  0  0  0  0  0
  141.9630   72.2440  221.4300 C   0  0  0  0  0  0  0  0  0  0  0  0
  141.5791   71.2486  221.6978 H   0  0  0  0  0  0  0  0  0  0  0  0
  141.1440   73.3730  221.5850 C   0  0  0  0  0  0  0  0  0  0  0  0
  139.7850   73.2510  222.0330 N   0  0  0  0  0  0  0  0  0  0  0  0
  139.2520   72.2490  222.6740 C   0  0  0  0  0  0  0  0  0  0  0  0
  139.8030   71.8710  223.8570 N   0  0  0  0  0  0  0  0  0  0  0  0
  139.3140   70.8270  224.5820 C   0  0  0  0  0  0  0  0  0  0  0  0
  139.9550   70.4750  225.8760 C   0  0  0  0  0  0  0  0  0  0  0  0
  140.0500   69.1250  226.2650 C   0  0  0  0  0  0  0  0  0  0  0  0
  139.6544   68.3381  225.6060 H   0  0  0  0  0  0  0  0  0  0  0  0
  140.6430   68.7770  227.4820 C   0  0  0  0  0  0  0  0  0  0  0  0
  140.7173   67.7190  227.7736 H   0  0  0  0  0  0  0  0  0  0  0  0
  141.1410   69.7690  228.3280 C   0  0  0  0  0  0  0  0  0  0  0  0
  141.6105   69.4925  229.2836 H   0  0  0  0  0  0  0  0  0  0  0  0
  141.0430   71.1120  227.9610 C   0  0  0  0  0  0  0  0  0  0  0  0
  141.4319   71.8933  228.6305 H   0  0  0  0  0  0  0  0  0  0  0  0
  140.4520   71.4670  226.7450 C   0  0  0  0  0  0  0  0  0  0  0  0
  140.3743   72.5278  226.4645 H   0  0  0  0  0  0  0  0  0  0  0  0
  138.2030   70.1270  224.0910 C   0  0  0  0  0  0  0  0  0  0  0  0
  137.7696   69.2928  224.6621 H   0  0  0  0  0  0  0  0  0  0  0  0
  137.6580   70.5070  222.8670 C   0  0  0  0  0  0  0  0  0  0  0  0
  136.7936   69.9620  222.4599 H   0  0  0  0  0  0  0  0  0  0  0  0
  138.1890   71.5480  222.1730 N   0  0  0  0  0  0  0  0  0  0  0  0
  137.7780   71.7650  221.2400 H   0  0  0  0  0  0  0  0  0  0  0  0
  141.6160   74.6240  221.1740 C   0  0  0  0  0  0  0  0  0  0  0  0
  140.9602   75.5047  221.2397 H   0  0  0  0  0  0  0  0  0  0  0  0
  142.9170   74.7610  220.6800 C   0  0  0  0  0  0  0  0  0  0  0  0
  143.2807   75.7503  220.3654 H   0  0  0  0  0  0  0  0  0  0  0  0
  145.8910   71.5700  219.7150 N   0  0  0  0  0  0  0  0  0  0  0  0
  146.3510   71.4320  220.6440 H   0  0  0  0  0  0  0  0  0  0  0  0
  145.2840   70.3650  219.1270 C   0  0  0  0  0  0  0  0  0  0  0  0
  144.5260   70.0053  219.8383 H   0  0  0  0  0  0  0  0  0  0  0  0
  144.5260   70.6670  217.8290 C   0  0  0  0  0  0  0  0  0  0  0  0
  143.5291   71.0642  218.0705 H   0  0  0  0  0  0  0  0  0  0  0  0
  145.0850   71.4111  217.2426 H   0  0  0  0  0  0  0  0  0  0  0  0
  144.4201   69.7424  217.2426 H   0  0  0  0  0  0  0  0  0  0  0  0
  146.3060   69.2340  218.9710 C   0  0  0  0  0  0  0  0  0  0  0  0
  146.6213   68.8850  219.9654 H   0  0  0  0  0  0  0  0  0  0  0  0
  145.8488   68.4004  218.4178 H   0  0  0  0  0  0  0  0  0  0  0  0
  147.1815   69.6047  218.4178 H   0  0  0  0  0  0  0  0  0  0  0  0
  1  2  1  0
  2  3  1  0
  3  4  2  0
  4  5  1  0
  4  6  1  0
  6  7  2  0
  7  8  1  0
  7  9  1  0
  9 10  1  0
  9 11  2  0
 11 12  1  0
 12 13  2  0
 13 14  1  0
 14 15  2  0
 15 16  1  0
 16 17  2  0
 17 18  1  0
 17 19  1  0
 19 20  1  0
 19 21  2  0
 21 22  1  0
 21 23  1  0
 23 24  1  0
 23 25  2  0
 25 26  1  0
 15 27  1  0
 27 28  1  0
 27 29  2  0
 29 30  1  0
 29 31  1  0
 31 32  1  0
 11 33  1  0
 33 34  1  0
 33 35  2  0
 35 36  1  0
  3 37  1  0
 37 38  1  0
 37 39  1  0
 39 40  1  0
 39 41  1  0
 41 42  1  0
 41 43  1  0
 41 44  1  0
 39 45  1  0
 45 46  1  0
 45 47  1  0
 45 48  1  0
 35  6  1  0
 31 13  1  0
 25 16  1  0
M  END
>  <UniqueID>  (45) 
34

>  <SMILES>  (45) 
CC(C)N/C(O)=C/c1ccc(/N=c2/nc(-c3ccccc3)cc[nH]2)cc1

>  <Energy>  (45) 
66.6193675389205

>  <Genealogy>  (45) 
CC(C)NC(O)=Cc1ccc(N=c2nc(-c3ccccc3)cc[nH]2)cc1 (tautomer)
CC(C)N/C(O)=C/c1ccc(/N=c2/nc(-c3ccccc3)cc[nH]2)cc1 (cis-trans isomerization)
CC(C)N/C(O)=C/c1ccc(/N=c2/nc(-c3ccccc3)cc[nH]2)cc1 (3D coordinates assigned)
CC(C)N/C(O)=C/c1ccc(/N=c2/nc(-c3ccccc3)cc[nH]2)cc1 (optimized conformer: 66.6193675389205 kcal/mol)

>  <smiles>  (45) 
CC(C)NC(=O)Cc1ccc(N=c2nc(-c3ccccc3)cc[nH]2)cc1

>  <score_type>  (45) 
oracle

>  <origin>  (45) 
autodockgpu

>  <m_score__min__energy>  (45) 
-8.3800000000000008

>  <m_primary>  (45) 
energy

>  <meeko>  (45) 
{"free_energy": -7.95, "intermolecular_energy": -10.33, "internal_energy": -0.98, "cluster_size": 9, "cluster_id": 2, "rank_in_cluster": 8}

>  <energy>  (45) 
-8.02

>  <cluster_rmsd>  (45) 
0.29

>  <rmsd>  (45) 
271.59

>  <cluster>  (45) 
2

$$$$
DPVNRQFUFIRJCL-RZTMHIGINA-N
     RDKit          3D

 48 50  0  0  0  0  0  0  0  0999 V2000
  140.4940   81.7890  220.3130 H   0  0  0  0  0  0  0  0  0  0  0  0
  141.3490   81.2910  220.5030 O   0  0  0  0  0  0  0  0  0  0  0  0
  141.3900   80.0210  221.0810 C   0  0  0  0  0  0  0  0  0  0  0  0
  140.4440   79.1230  220.7650 C   0  0  0  0  0  0  0  0  0  0  0  0
  139.5434   79.4851  220.2474 H   0  0  0  0  0  0  0  0  0  0  0  0
  140.5340   77.6760  221.0680 C   0  0  0  0  0  0  0  0  0  0  0  0
  139.7020   77.0630  222.0220 C   0  0  0  0  0  0  0  0  0  0  0  0
  138.9428   77.6590  222.5497 H   0  0  0  0  0  0  0  0  0  0  0  0
  139.8350   75.7000  222.3030 C   0  0  0  0  0  0  0  0  0  0  0  0
  139.1854   75.2303  223.0563 H   0  0  0  0  0  0  0  0  0  0  0  0
  140.7940   74.9280  221.6280 C   0  0  0  0  0  0  0  0  0  0  0  0
  140.9880   73.5400  221.9430 N   0  0  0  0  0  0  0  0  0  0  0  0
  140.1490   72.7430  222.5440 C   0  0  0  0  0  0  0  0  0  0  0  0
  140.4990   72.2240  223.7490 N   0  0  0  0  0  0  0  0  0  0  0  0
  139.6860   71.3760  224.4360 C   0  0  0  0  0  0  0  0  0  0  0  0
  140.1250   70.8550  225.7570 C   0  0  0  0  0  0  0  0  0  0  0  0
  140.6420   71.7410  226.7230 C   0  0  0  0  0  0  0  0  0  0  0  0
  140.7124   72.8150  226.4961 H   0  0  0  0  0  0  0  0  0  0  0  0
  141.0660   71.2660  227.9670 C   0  0  0  0  0  0  0  0  0  0  0  0
  141.4630   71.9673  228.7157 H   0  0  0  0  0  0  0  0  0  0  0  0
  140.9870   69.9040  228.2620 C   0  0  0  0  0  0  0  0  0  0  0  0
  141.3175   69.5331  229.2434 H   0  0  0  0  0  0  0  0  0  0  0  0
  140.4880   69.0130  227.3100 C   0  0  0  0  0  0  0  0  0  0  0  0
  140.4293   67.9393  227.5420 H   0  0  0  0  0  0  0  0  0  0  0  0
  140.0630   69.4800  226.0640 C   0  0  0  0  0  0  0  0  0  0  0  0
  139.6773   68.7704  225.3172 H   0  0  0  0  0  0  0  0  0  0  0  0
  138.4450   71.0340  223.8810 C   0  0  0  0  0  0  0  0  0  0  0  0
  137.7550   70.3675  224.4193 H   0  0  0  0  0  0  0  0  0  0  0  0
  138.1020   71.5540  222.6350 C   0  0  0  0  0  0  0  0  0  0  0  0
  137.1370   71.2892  222.1782 H   0  0  0  0  0  0  0  0  0  0  0  0
  138.9540   72.3870  221.9810 N   0  0  0  0  0  0  0  0  0  0  0  0
  138.6750   72.7130  221.0310 H   0  0  0  0  0  0  0  0  0  0  0  0
  141.6640   75.5490  220.7250 C   0  0  0  0  0  0  0  0  0  0  0  0
  142.4546   74.9620  220.2346 H   0  0  0  0  0  0  0  0  0  0  0  0
  141.5330   76.9130  220.4430 C   0  0  0  0  0  0  0  0  0  0  0  0
  142.2175   77.3909  219.7266 H   0  0  0  0  0  0  0  0  0  0  0  0
  142.4340   79.6400  222.0030 N   0  0  0  0  0  0  0  0  0  0  0  0
  143.3260   79.2790  221.5930 H   0  0  0  0  0  0  0  0  0  0  0  0
  142.4640   79.8910  223.4530 C   0  0  0  0  0  0  0  0  0  0  0  0
  143.5219   79.9233  223.7528 H   0  0  0  0  0  0  0  0  0  0  0  0
  141.8850   81.2620  223.8200 C   0  0  0  0  0  0  0  0  0  0  0  0
  141.8431   81.3612  224.9147 H   0  0  0  0  0  0  0  0  0  0  0  0
  142.5256   82.0538  223.4043 H   0  0  0  0  0  0  0  0  0  0  0  0
  140.8708   81.3549  223.4043 H   0  0  0  0  0  0  0  0  0  0  0  0
  141.8240   78.7440  224.2410 C   0  0  0  0  0  0  0  0  0  0  0  0
  141.9308   78.9353  225.3190 H   0  0  0  0  0  0  0  0  0  0  0  0
  140.7565   78.6741  223.9850 H   0  0  0  0  0  0  0  0  0  0  0  0
  142.3251   77.7988  223.9850 H   0  0  0  0  0  0  0  0  0  0  0  0
  1  2  1  0
  2  3  1  0
  3  4  2  0
  4  5  1  0
  4  6  1  0
  6  7  2  0
  7  8  1  0
  7  9  1  0
  9 10  1  0
  9 11  2  0
 11 12  1  0
 12 13  2  0
 13 14  1  0
 14 15  2  0
 15 16  1  0
 16 17  2  0
 17 18  1  0
 17 19  1  0
 19 20  1  0
 19 21  2  0
 21 22  1  0
 21 23  1  0
 23 24  1  0
 23 25  2  0
 25 26  1  0
 15 27  1  0
 27 28  1  0
 27 29  2  0
 29 30  1  0
 29 31  1  0
 31 32  1  0
 11 33  1  0
 33 34  1  0
 33 35  2  0
 35 36  1  0
  3 37  1  0
 37 38  1  0
 37 39  1  0
 39 40  1  0
 39 41  1  0
 41 42  1  0
 41 43  1  0
 41 44  1  0
 39 45  1  0
 45 46  1  0
 45 47  1  0
 45 48  1  0
 35  6  1  0
 31 13  1  0
 25 16  1  0
M  END
>  <UniqueID>  (46) 
34

>  <SMILES>  (46) 
CC(C)N/C(O)=C/c1ccc(/N=c2/nc(-c3ccccc3)cc[nH]2)cc1

>  <Energy>  (46) 
66.6193675389205

>  <Genealogy>  (46) 
CC(C)NC(O)=Cc1ccc(N=c2nc(-c3ccccc3)cc[nH]2)cc1 (tautomer)
CC(C)N/C(O)=C/c1ccc(/N=c2/nc(-c3ccccc3)cc[nH]2)cc1 (cis-trans isomerization)
CC(C)N/C(O)=C/c1ccc(/N=c2/nc(-c3ccccc3)cc[nH]2)cc1 (3D coordinates assigned)
CC(C)N/C(O)=C/c1ccc(/N=c2/nc(-c3ccccc3)cc[nH]2)cc1 (optimized conformer: 66.6193675389205 kcal/mol)

>  <smiles>  (46) 
CC(C)NC(=O)Cc1ccc(N=c2nc(-c3ccccc3)cc[nH]2)cc1

>  <score_type>  (46) 
oracle

>  <origin>  (46) 
autodockgpu

>  <m_score__min__energy>  (46) 
-8.3800000000000008

>  <m_primary>  (46) 
energy

>  <meeko>  (46) 
{"free_energy": -7.78, "intermolecular_energy": -10.17, "internal_energy": -1.06, "cluster_size": 9, "cluster_id": 3, "rank_in_cluster": 3}

>  <energy>  (46) 
-8.0

>  <cluster_rmsd>  (46) 
0.28

>  <rmsd>  (46) 
271.56

>  <cluster>  (46) 
2

$$$$
DPVNRQFUFIRJCL-RZTMHIGINA-N
     RDKit          3D

 48 50  0  0  0  0  0  0  0  0999 V2000
  146.0240   74.2770  217.6100 H   0  0  0  0  0  0  0  0  0  0  0  0
  146.0820   73.3170  217.9090 O   0  0  0  0  0  0  0  0  0  0  0  0
  145.7010   72.8800  219.1790 C   0  0  0  0  0  0  0  0  0  0  0  0
  145.1430   73.7520  220.0350 C   0  0  0  0  0  0  0  0  0  0  0  0
  145.7628   74.5853  220.3975 H   0  0  0  0  0  0  0  0  0  0  0  0
  143.7480   73.6640  220.5220 C   0  0  0  0  0  0  0  0  0  0  0  0
  142.9630   74.8100  220.7440 C   0  0  0  0  0  0  0  0  0  0  0  0
  143.3780   75.8067  220.5331 H   0  0  0  0  0  0  0  0  0  0  0  0
  141.6590   74.6890  221.2310 C   0  0  0  0  0  0  0  0  0  0  0  0
  141.0551   75.5912  221.4079 H   0  0  0  0  0  0  0  0  0  0  0  0
  141.1150   73.4210  221.4960 C   0  0  0  0  0  0  0  0  0  0  0  0
  139.8000   73.2770  222.0530 N   0  0  0  0  0  0  0  0  0  0  0  0
  139.3150   72.2370  222.6710 C   0  0  0  0  0  0  0  0  0  0  0  0
  139.8550   71.8840  223.8660 N   0  0  0  0  0  0  0  0  0  0  0  0
  139.4140   70.8050  224.5690 C   0  0  0  0  0  0  0  0  0  0  0  0
  140.0410   70.4820  225.8780 C   0  0  0  0  0  0  0  0  0  0  0  0
  140.1550   69.1390  226.2860 C   0  0  0  0  0  0  0  0  0  0  0  0
  139.7849   68.3364  225.6312 H   0  0  0  0  0  0  0  0  0  0  0  0
  140.7350   68.8180  227.5170 C   0  0  0  0  0  0  0  0  0  0  0  0
  140.8250   67.7654  227.8233 H   0  0  0  0  0  0  0  0  0  0  0  0
  141.2000   69.8300  228.3580 C   0  0  0  0  0  0  0  0  0  0  0  0
  141.6589   69.5752  229.3247 H   0  0  0  0  0  0  0  0  0  0  0  0
  141.0820   71.1660  227.9710 C   0  0  0  0  0  0  0  0  0  0  0  0
  141.4460   71.9634  228.6356 H   0  0  0  0  0  0  0  0  0  0  0  0
  140.5030   71.4940  226.7420 C   0  0  0  0  0  0  0  0  0  0  0  0
  140.4075   72.5495  226.4475 H   0  0  0  0  0  0  0  0  0  0  0  0
  138.3630   70.0400  224.0430 C   0  0  0  0  0  0  0  0  0  0  0  0
  137.9680   69.1748  224.5957 H   0  0  0  0  0  0  0  0  0  0  0  0
  137.8290   70.3970  222.8070 C   0  0  0  0  0  0  0  0  0  0  0  0
  137.0122   69.8024  222.3719 H   0  0  0  0  0  0  0  0  0  0  0  0
  138.3110   71.4750  222.1360 N   0  0  0  0  0  0  0  0  0  0  0  0
  137.9130   71.6750  221.1940 H   0  0  0  0  0  0  0  0  0  0  0  0
  141.9160   72.2850  221.3360 C   0  0  0  0  0  0  0  0  0  0  0  0
  141.5171   71.2932  221.5954 H   0  0  0  0  0  0  0  0  0  0  0  0
  143.2210   72.4040  220.8480 C   0  0  0  0  0  0  0  0  0  0  0  0
  143.8395   71.5036  220.7185 H   0  0  0  0  0  0  0  0  0  0  0  0
  145.8760   71.5080  219.5950 N   0  0  0  0  0  0  0  0  0  0  0  0
  146.1300   71.3410  220.5960 H   0  0  0  0  0  0  0  0  0  0  0  0
  145.5430   70.3030  218.8190 C   0  0  0  0  0  0  0  0  0  0  0  0
  145.8753   70.4817  217.7858 H   0  0  0  0  0  0  0  0  0  0  0  0
  146.3160   69.0690  219.2980 C   0  0  0  0  0  0  0  0  0  0  0  0
  146.3289   69.0485  220.3977 H   0  0  0  0  0  0  0  0  0  0  0  0
  145.8258   68.1597  218.9200 H   0  0  0  0  0  0  0  0  0  0  0  0
  147.3481   69.1133  218.9200 H   0  0  0  0  0  0  0  0  0  0  0  0
  144.0300   70.0700  218.7560 C   0  0  0  0  0  0  0  0  0  0  0  0
  143.6258   70.0077  219.7771 H   0  0  0  0  0  0  0  0  0  0  0  0
  143.5523   70.9052  218.2228 H   0  0  0  0  0  0  0  0  0  0  0  0
  143.8257   69.1298  218.2228 H   0  0  0  0  0  0  0  0  0  0  0  0
  1  2  1  0
  2  3  1  0
  3  4  2  0
  4  5  1  0
  4  6  1  0
  6  7  2  0
  7  8  1  0
  7  9  1  0
  9 10  1  0
  9 11  2  0
 11 12  1  0
 12 13  2  0
 13 14  1  0
 14 15  2  0
 15 16  1  0
 16 17  2  0
 17 18  1  0
 17 19  1  0
 19 20  1  0
 19 21  2  0
 21 22  1  0
 21 23  1  0
 23 24  1  0
 23 25  2  0
 25 26  1  0
 15 27  1  0
 27 28  1  0
 27 29  2  0
 29 30  1  0
 29 31  1  0
 31 32  1  0
 11 33  1  0
 33 34  1  0
 33 35  2  0
 35 36  1  0
  3 37  1  0
 37 38  1  0
 37 39  1  0
 39 40  1  0
 39 41  1  0
 41 42  1  0
 41 43  1  0
 41 44  1  0
 39 45  1  0
 45 46  1  0
 45 47  1  0
 45 48  1  0
 35  6  1  0
 31 13  1  0
 25 16  1  0
M  END
>  <UniqueID>  (47) 
34

>  <SMILES>  (47) 
CC(C)N/C(O)=C/c1ccc(/N=c2/nc(-c3ccccc3)cc[nH]2)cc1

>  <Energy>  (47) 
66.6193675389205

>  <Genealogy>  (47) 
CC(C)NC(O)=Cc1ccc(N=c2nc(-c3ccccc3)cc[nH]2)cc1 (tautomer)
CC(C)N/C(O)=C/c1ccc(/N=c2/nc(-c3ccccc3)cc[nH]2)cc1 (cis-trans isomerization)
CC(C)N/C(O)=C/c1ccc(/N=c2/nc(-c3ccccc3)cc[nH]2)cc1 (3D coordinates assigned)
CC(C)N/C(O)=C/c1ccc(/N=c2/nc(-c3ccccc3)cc[nH]2)cc1 (optimized conformer: 66.6193675389205 kcal/mol)

>  <smiles>  (47) 
CC(C)NC(=O)Cc1ccc(N=c2nc(-c3ccccc3)cc[nH]2)cc1

>  <score_type>  (47) 
oracle

>  <origin>  (47) 
autodockgpu

>  <m_score__min__energy>  (47) 
-8.3800000000000008

>  <m_primary>  (47) 
energy

>  <meeko>  (47) 
{"free_energy": -8.03, "intermolecular_energy": -10.42, "internal_energy": -0.97, "cluster_size": 9, "cluster_id": 2, "rank_in_cluster": 2}

>  <energy>  (47) 
-7.99

>  <cluster_rmsd>  (47) 
0.32

>  <rmsd>  (47) 
271.6

>  <cluster>  (47) 
2

$$$$
DPVNRQFUFIRJCL-RZTMHIGINA-N
     RDKit          3D

 48 50  0  0  0  0  0  0  0  0999 V2000
  143.0080   77.9170  219.8610 H   0  0  0  0  0  0  0  0  0  0  0  0
  142.0750   77.9450  220.2380 O   0  0  0  0  0  0  0  0  0  0  0  0
  141.7810   78.3660  221.5370 C   0  0  0  0  0  0  0  0  0  0  0  0
  140.8540   77.7050  222.2490 C   0  0  0  0  0  0  0  0  0  0  0  0
  140.3222   78.2566  223.0382 H   0  0  0  0  0  0  0  0  0  0  0  0
  140.5010   76.2820  222.0410 C   0  0  0  0  0  0  0  0  0  0  0  0
  141.4560   75.3290  221.6460 C   0  0  0  0  0  0  0  0  0  0  0  0
  142.5043   75.6308  221.5046 H   0  0  0  0  0  0  0  0  0  0  0  0
  141.0800   74.0000  221.4320 C   0  0  0  0  0  0  0  0  0  0  0  0
  141.8327   73.2627  221.1161 H   0  0  0  0  0  0  0  0  0  0  0  0
  139.7470   73.6010  221.6180 C   0  0  0  0  0  0  0  0  0  0  0  0
  139.3280   72.2550  221.3460 N   0  0  0  0  0  0  0  0  0  0  0  0
  139.1820   71.2860  222.2050 C   0  0  0  0  0  0  0  0  0  0  0  0
  139.6560   71.4610  223.4660 N   0  0  0  0  0  0  0  0  0  0  0  0
  139.5540   70.4940  224.4190 C   0  0  0  0  0  0  0  0  0  0  0  0
  140.0810   70.7570  225.7830 C   0  0  0  0  0  0  0  0  0  0  0  0
  140.8750   71.8950  226.0200 C   0  0  0  0  0  0  0  0  0  0  0  0
  141.0961   72.5872  225.1942 H   0  0  0  0  0  0  0  0  0  0  0  0
  141.3850   72.1530  227.2960 C   0  0  0  0  0  0  0  0  0  0  0  0
  141.9992   73.0486  227.4711 H   0  0  0  0  0  0  0  0  0  0  0  0
  141.1160   71.2760  228.3480 C   0  0  0  0  0  0  0  0  0  0  0  0
  141.5149   71.4827  229.3521 H   0  0  0  0  0  0  0  0  0  0  0  0
  140.3410   70.1370  228.1260 C   0  0  0  0  0  0  0  0  0  0  0  0
  140.1332   69.4449  228.9553 H   0  0  0  0  0  0  0  0  0  0  0  0
  139.8280   69.8730  226.8530 C   0  0  0  0  0  0  0  0  0  0  0  0
  139.2230   68.9700  226.6842 H   0  0  0  0  0  0  0  0  0  0  0  0
  138.9340   69.2810  224.0850 C   0  0  0  0  0  0  0  0  0  0  0  0
  138.8159   68.4866  224.8367 H   0  0  0  0  0  0  0  0  0  0  0  0
  138.4710   69.1010  222.7850 C   0  0  0  0  0  0  0  0  0  0  0  0
  137.9925   68.1521  222.5011 H   0  0  0  0  0  0  0  0  0  0  0  0
  138.6070   70.0920  221.8640 N   0  0  0  0  0  0  0  0  0  0  0  0
  138.2880   69.8940  220.8920 H   0  0  0  0  0  0  0  0  0  0  0  0
  138.7840   74.5610  221.9490 C   0  0  0  0  0  0  0  0  0  0  0  0
  137.7278   74.2677  222.0406 H   0  0  0  0  0  0  0  0  0  0  0  0
  139.1580   75.8920  222.1640 C   0  0  0  0  0  0  0  0  0  0  0  0
  138.3948   76.6377  222.4312 H   0  0  0  0  0  0  0  0  0  0  0  0
  142.4590   79.4870  222.1440 N   0  0  0  0  0  0  0  0  0  0  0  0
  143.4090   79.7260  221.7780 H   0  0  0  0  0  0  0  0  0  0  0  0
  141.8830   80.4610  223.0840 C   0  0  0  0  0  0  0  0  0  0  0  0
  141.0854   79.9421  223.6359 H   0  0  0  0  0  0  0  0  0  0  0  0
  142.8930   80.9190  224.1420 C   0  0  0  0  0  0  0  0  0  0  0  0
  142.4826   80.7329  225.1455 H   0  0  0  0  0  0  0  0  0  0  0  0
  143.8315   80.3584  224.0199 H   0  0  0  0  0  0  0  0  0  0  0  0
  143.0897   81.9944  224.0199 H   0  0  0  0  0  0  0  0  0  0  0  0
  141.2160   81.6310  222.3530 C   0  0  0  0  0  0  0  0  0  0  0  0
  140.8114   82.3408  223.0896 H   0  0  0  0  0  0  0  0  0  0  0  0
  141.9592   82.1409  221.7223 H   0  0  0  0  0  0  0  0  0  0  0  0
  140.3987   81.2512  221.7223 H   0  0  0  0  0  0  0  0  0  0  0  0
  1  2  1  0
  2  3  1  0
  3  4  2  0
  4  5  1  0
  4  6  1  0
  6  7  2  0
  7  8  1  0
  7  9  1  0
  9 10  1  0
  9 11  2  0
 11 12  1  0
 12 13  2  0
 13 14  1  0
 14 15  2  0
 15 16  1  0
 16 17  2  0
 17 18  1  0
 17 19  1  0
 19 20  1  0
 19 21  2  0
 21 22  1  0
 21 23  1  0
 23 24  1  0
 23 25  2  0
 25 26  1  0
 15 27  1  0
 27 28  1  0
 27 29  2  0
 29 30  1  0
 29 31  1  0
 31 32  1  0
 11 33  1  0
 33 34  1  0
 33 35  2  0
 35 36  1  0
  3 37  1  0
 37 38  1  0
 37 39  1  0
 39 40  1  0
 39 41  1  0
 41 42  1  0
 41 43  1  0
 41 44  1  0
 39 45  1  0
 45 46  1  0
 45 47  1  0
 45 48  1  0
 35  6  1  0
 31 13  1  0
 25 16  1  0
M  END
>  <UniqueID>  (48) 
34

>  <SMILES>  (48) 
CC(C)N/C(O)=C/c1ccc(/N=c2/nc(-c3ccccc3)cc[nH]2)cc1

>  <Energy>  (48) 
66.6193675389205

>  <Genealogy>  (48) 
CC(C)NC(O)=Cc1ccc(N=c2nc(-c3ccccc3)cc[nH]2)cc1 (tautomer)
CC(C)N/C(O)=C/c1ccc(/N=c2/nc(-c3ccccc3)cc[nH]2)cc1 (cis-trans isomerization)
CC(C)N/C(O)=C/c1ccc(/N=c2/nc(-c3ccccc3)cc[nH]2)cc1 (3D coordinates assigned)
CC(C)N/C(O)=C/c1ccc(/N=c2/nc(-c3ccccc3)cc[nH]2)cc1 (optimized conformer: 66.6193675389205 kcal/mol)

>  <smiles>  (48) 
CC(C)NC(=O)Cc1ccc(N=c2nc(-c3ccccc3)cc[nH]2)cc1

>  <score_type>  (48) 
oracle

>  <origin>  (48) 
autodockgpu

>  <m_score__min__energy>  (48) 
-8.3800000000000008

>  <m_primary>  (48) 
energy

>  <meeko>  (48) 
{"free_energy": -7.76, "intermolecular_energy": -10.15, "internal_energy": -0.88, "cluster_size": 9, "cluster_id": 3, "rank_in_cluster": 4}

>  <energy>  (48) 
-7.97

>  <cluster_rmsd>  (48) 
0.38

>  <rmsd>  (48) 
271.57

>  <cluster>  (48) 
2

$$$$
DPVNRQFUFIRJCL-RZTMHIGINA-N
     RDKit          3D

 48 50  0  0  0  0  0  0  0  0999 V2000
  140.3390   80.9220  219.4600 H   0  0  0  0  0  0  0  0  0  0  0  0
  141.0990   80.9110  220.1210 O   0  0  0  0  0  0  0  0  0  0  0  0
  141.1990   79.9890  221.1650 C   0  0  0  0  0  0  0  0  0  0  0  0
  140.1560   79.1900  221.4400 C   0  0  0  0  0  0  0  0  0  0  0  0
  139.1729   79.6605  221.5889 H   0  0  0  0  0  0  0  0  0  0  0  0
  140.2430   77.7160  221.5560 C   0  0  0  0  0  0  0  0  0  0  0  0
  139.2410   76.9590  222.1890 C   0  0  0  0  0  0  0  0  0  0  0  0
  138.3506   77.4608  222.5956 H   0  0  0  0  0  0  0  0  0  0  0  0
  139.3710   75.5720  222.3040 C   0  0  0  0  0  0  0  0  0  0  0  0
  138.5860   74.9885  222.8073 H   0  0  0  0  0  0  0  0  0  0  0  0
  140.4990   74.9200  221.7800 C   0  0  0  0  0  0  0  0  0  0  0  0
  140.6810   73.5040  221.9400 N   0  0  0  0  0  0  0  0  0  0  0  0
  139.9010   72.6760  222.5750 C   0  0  0  0  0  0  0  0  0  0  0  0
  140.3200   72.1730  223.7650 N   0  0  0  0  0  0  0  0  0  0  0  0
  139.5710   71.2940  224.4850 C   0  0  0  0  0  0  0  0  0  0  0  0
  140.0830   70.7940  225.7870 C   0  0  0  0  0  0  0  0  0  0  0  0
  140.5760   71.7040  226.7420 C   0  0  0  0  0  0  0  0  0  0  0  0
  140.5733   72.7816  226.5210 H   0  0  0  0  0  0  0  0  0  0  0  0
  141.0690   71.2490  227.9690 C   0  0  0  0  0  0  0  0  0  0  0  0
  141.4464   71.9690  228.7101 H   0  0  0  0  0  0  0  0  0  0  0  0
  141.0830   69.8830  228.2550 C   0  0  0  0  0  0  0  0  0  0  0  0
  141.4674   69.5274  229.2224 H   0  0  0  0  0  0  0  0  0  0  0  0
  140.6090   68.9680  227.3130 C   0  0  0  0  0  0  0  0  0  0  0  0
  140.6244   67.8914  227.5381 H   0  0  0  0  0  0  0  0  0  0  0  0
  140.1150   69.4160  226.0850 C   0  0  0  0  0  0  0  0  0  0  0  0
  139.7485   68.6887  225.3456 H   0  0  0  0  0  0  0  0  0  0  0  0
  138.3230   70.9020  223.9800 C   0  0  0  0  0  0  0  0  0  0  0  0
  137.6824   70.2096  224.5459 H   0  0  0  0  0  0  0  0  0  0  0  0
  137.9090   71.4050  222.7490 C   0  0  0  0  0  0  0  0  0  0  0  0
  136.9378   71.1005  222.3318 H   0  0  0  0  0  0  0  0  0  0  0  0
  138.6990   72.2700  222.0610 N   0  0  0  0  0  0  0  0  0  0  0  0
  138.3690   72.5830  221.1230 H   0  0  0  0  0  0  0  0  0  0  0  0
  141.5250   75.6790  221.2070 C   0  0  0  0  0  0  0  0  0  0  0  0
  142.4372   75.1816  220.8459 H   0  0  0  0  0  0  0  0  0  0  0  0
  141.3970   77.0660  221.0910 C   0  0  0  0  0  0  0  0  0  0  0  0
  142.2065   77.6525  220.6320 H   0  0  0  0  0  0  0  0  0  0  0  0
  142.4040   79.8600  221.9510 N   0  0  0  0  0  0  0  0  0  0  0  0
  143.3050   79.7550  221.4310 H   0  0  0  0  0  0  0  0  0  0  0  0
  142.5340   80.0600  223.4030 C   0  0  0  0  0  0  0  0  0  0  0  0
  143.6032   79.9722  223.6461 H   0  0  0  0  0  0  0  0  0  0  0  0
  142.1210   81.4720  223.8360 C   0  0  0  0  0  0  0  0  0  0  0  0
  142.1045   81.5286  224.9344 H   0  0  0  0  0  0  0  0  0  0  0  0
  142.8432   82.2023  223.4421 H   0  0  0  0  0  0  0  0  0  0  0  0
  141.1191   81.6980  223.4421 H   0  0  0  0  0  0  0  0  0  0  0  0
  141.8170   78.9610  224.1950 C   0  0  0  0  0  0  0  0  0  0  0  0
  141.9383   79.1469  225.2724 H   0  0  0  0  0  0  0  0  0  0  0  0
  140.7468   78.9644  223.9405 H   0  0  0  0  0  0  0  0  0  0  0  0
  142.2513   77.9829  223.9405 H   0  0  0  0  0  0  0  0  0  0  0  0
  1  2  1  0
  2  3  1  0
  3  4  2  0
  4  5  1  0
  4  6  1  0
  6  7  2  0
  7  8  1  0
  7  9  1  0
  9 10  1  0
  9 11  2  0
 11 12  1  0
 12 13  2  0
 13 14  1  0
 14 15  2  0
 15 16  1  0
 16 17  2  0
 17 18  1  0
 17 19  1  0
 19 20  1  0
 19 21  2  0
 21 22  1  0
 21 23  1  0
 23 24  1  0
 23 25  2  0
 25 26  1  0
 15 27  1  0
 27 28  1  0
 27 29  2  0
 29 30  1  0
 29 31  1  0
 31 32  1  0
 11 33  1  0
 33 34  1  0
 33 35  2  0
 35 36  1  0
  3 37  1  0
 37 38  1  0
 37 39  1  0
 39 40  1  0
 39 41  1  0
 41 42  1  0
 41 43  1  0
 41 44  1  0
 39 45  1  0
 45 46  1  0
 45 47  1  0
 45 48  1  0
 35  6  1  0
 31 13  1  0
 25 16  1  0
M  END
>  <UniqueID>  (49) 
34

>  <SMILES>  (49) 
CC(C)N/C(O)=C/c1ccc(/N=c2/nc(-c3ccccc3)cc[nH]2)cc1

>  <Energy>  (49) 
66.6193675389205

>  <Genealogy>  (49) 
CC(C)NC(O)=Cc1ccc(N=c2nc(-c3ccccc3)cc[nH]2)cc1 (tautomer)
CC(C)N/C(O)=C/c1ccc(/N=c2/nc(-c3ccccc3)cc[nH]2)cc1 (cis-trans isomerization)
CC(C)N/C(O)=C/c1ccc(/N=c2/nc(-c3ccccc3)cc[nH]2)cc1 (3D coordinates assigned)
CC(C)N/C(O)=C/c1ccc(/N=c2/nc(-c3ccccc3)cc[nH]2)cc1 (optimized conformer: 66.6193675389205 kcal/mol)

>  <smiles>  (49) 
CC(C)NC(=O)Cc1ccc(N=c2nc(-c3ccccc3)cc[nH]2)cc1

>  <score_type>  (49) 
oracle

>  <origin>  (49) 
autodockgpu

>  <m_score__min__energy>  (49) 
-8.3800000000000008

>  <m_primary>  (49) 
energy

>  <meeko>  (49) 
{"free_energy": -7.82, "intermolecular_energy": -10.21, "internal_energy": -0.96, "cluster_size": 9, "cluster_id": 3, "rank_in_cluster": 2}

>  <energy>  (49) 
-7.95

>  <cluster_rmsd>  (49) 
0.32

>  <rmsd>  (49) 
271.6

>  <cluster>  (49) 
2

$$$$
DPVNRQFUFIRJCL-RZTMHIGINA-N
     RDKit          3D

 48 50  0  0  0  0  0  0  0  0999 V2000
  145.9710   74.2440  217.5780 H   0  0  0  0  0  0  0  0  0  0  0  0
  146.0130   73.2680  217.8240 O   0  0  0  0  0  0  0  0  0  0  0  0
  145.6420   72.7710  219.0750 C   0  0  0  0  0  0  0  0  0  0  0  0
  145.1510   73.6120  219.9990 C   0  0  0  0  0  0  0  0  0  0  0  0
  145.8226   74.3865  220.3979 H   0  0  0  0  0  0  0  0  0  0  0  0
  143.7650   73.5650  220.5160 C   0  0  0  0  0  0  0  0  0  0  0  0
  142.9910   74.7280  220.6750 C   0  0  0  0  0  0  0  0  0  0  0  0
  143.4073   75.7056  220.3904 H   0  0  0  0  0  0  0  0  0  0  0  0
  141.6950   74.6480  221.1930 C   0  0  0  0  0  0  0  0  0  0  0  0
  141.0986   75.5636  221.3200 H   0  0  0  0  0  0  0  0  0  0  0  0
  141.1510   73.4040  221.5520 C   0  0  0  0  0  0  0  0  0  0  0  0
  139.8450   73.3050  222.1410 N   0  0  0  0  0  0  0  0  0  0  0  0
  139.3190   72.2640  222.7230 C   0  0  0  0  0  0  0  0  0  0  0  0
  139.8390   71.8530  223.9090 N   0  0  0  0  0  0  0  0  0  0  0  0
  139.3550   70.7690  224.5750 C   0  0  0  0  0  0  0  0  0  0  0  0
  139.9610   70.3820  225.8750 C   0  0  0  0  0  0  0  0  0  0  0  0
  139.9870   69.0270  226.2600 C   0  0  0  0  0  0  0  0  0  0  0  0
  139.5632   68.2620  225.5928 H   0  0  0  0  0  0  0  0  0  0  0  0
  140.5470   68.6470  227.4830 C   0  0  0  0  0  0  0  0  0  0  0  0
  140.5683   67.5855  227.7705 H   0  0  0  0  0  0  0  0  0  0  0  0
  141.0790   69.6110  228.3400 C   0  0  0  0  0  0  0  0  0  0  0  0
  141.5219   69.3090  229.3005 H   0  0  0  0  0  0  0  0  0  0  0  0
  141.0490   70.9590  227.9780 C   0  0  0  0  0  0  0  0  0  0  0  0
  141.4655   71.7185  228.6560 H   0  0  0  0  0  0  0  0  0  0  0  0
  140.4910   71.3460  226.7560 C   0  0  0  0  0  0  0  0  0  0  0  0
  140.4654   72.4105  226.4801 H   0  0  0  0  0  0  0  0  0  0  0  0
  138.2810   70.0600  224.0180 C   0  0  0  0  0  0  0  0  0  0  0  0
  137.8523   69.1918  224.5400 H   0  0  0  0  0  0  0  0  0  0  0  0
  137.7670   70.4750  222.7920 C   0  0  0  0  0  0  0  0  0  0  0  0
  136.9312   69.9252  222.3346 H   0  0  0  0  0  0  0  0  0  0  0  0
  138.2930   71.5560  222.1580 N   0  0  0  0  0  0  0  0  0  0  0  0
  137.9080   71.8000  221.2210 H   0  0  0  0  0  0  0  0  0  0  0  0
  141.9430   72.2550  221.4540 C   0  0  0  0  0  0  0  0  0  0  0  0
  141.5439   71.2853  221.7862 H   0  0  0  0  0  0  0  0  0  0  0  0
  143.2390   72.3330  220.9360 C   0  0  0  0  0  0  0  0  0  0  0  0
  143.8511   71.4225  220.8569 H   0  0  0  0  0  0  0  0  0  0  0  0
  145.7590   71.3680  219.4000 N   0  0  0  0  0  0  0  0  0  0  0  0
  146.1020   71.1260  220.3570 H   0  0  0  0  0  0  0  0  0  0  0  0
  145.2580   70.2360  218.6050 C   0  0  0  0  0  0  0  0  0  0  0  0
  144.1699   70.3664  218.5094 H   0  0  0  0  0  0  0  0  0  0  0  0
  145.8060   70.2400  217.1730 C   0  0  0  0  0  0  0  0  0  0  0  0
  146.9056   70.2480  217.2012 H   0  0  0  0  0  0  0  0  0  0  0  0
  145.4593   69.3393  216.6452 H   0  0  0  0  0  0  0  0  0  0  0  0
  145.4462   71.1355  216.6452 H   0  0  0  0  0  0  0  0  0  0  0  0
  145.4750   68.8990  219.3210 C   0  0  0  0  0  0  0  0  0  0  0  0
  145.4493   69.0574  220.4092 H   0  0  0  0  0  0  0  0  0  0  0  0
  144.6792   68.1959  219.0339 H   0  0  0  0  0  0  0  0  0  0  0  0
  146.4523   68.4837  219.0339 H   0  0  0  0  0  0  0  0  0  0  0  0
  1  2  1  0
  2  3  1  0
  3  4  2  0
  4  5  1  0
  4  6  1  0
  6  7  2  0
  7  8  1  0
  7  9  1  0
  9 10  1  0
  9 11  2  0
 11 12  1  0
 12 13  2  0
 13 14  1  0
 14 15  2  0
 15 16  1  0
 16 17  2  0
 17 18  1  0
 17 19  1  0
 19 20  1  0
 19 21  2  0
 21 22  1  0
 21 23  1  0
 23 24  1  0
 23 25  2  0
 25 26  1  0
 15 27  1  0
 27 28  1  0
 27 29  2  0
 29 30  1  0
 29 31  1  0
 31 32  1  0
 11 33  1  0
 33 34  1  0
 33 35  2  0
 35 36  1  0
  3 37  1  0
 37 38  1  0
 37 39  1  0
 39 40  1  0
 39 41  1  0
 41 42  1  0
 41 43  1  0
 41 44  1  0
 39 45  1  0
 45 46  1  0
 45 47  1  0
 45 48  1  0
 35  6  1  0
 31 13  1  0
 25 16  1  0
M  END
>  <UniqueID>  (50) 
34

>  <SMILES>  (50) 
CC(C)N/C(O)=C/c1ccc(/N=c2/nc(-c3ccccc3)cc[nH]2)cc1

>  <Energy>  (50) 
66.6193675389205

>  <Genealogy>  (50) 
CC(C)NC(O)=Cc1ccc(N=c2nc(-c3ccccc3)cc[nH]2)cc1 (tautomer)
CC(C)N/C(O)=C/c1ccc(/N=c2/nc(-c3ccccc3)cc[nH]2)cc1 (cis-trans isomerization)
CC(C)N/C(O)=C/c1ccc(/N=c2/nc(-c3ccccc3)cc[nH]2)cc1 (3D coordinates assigned)
CC(C)N/C(O)=C/c1ccc(/N=c2/nc(-c3ccccc3)cc[nH]2)cc1 (optimized conformer: 66.6193675389205 kcal/mol)

>  <smiles>  (50) 
CC(C)NC(=O)Cc1ccc(N=c2nc(-c3ccccc3)cc[nH]2)cc1

>  <score_type>  (50) 
oracle

>  <origin>  (50) 
autodockgpu

>  <m_score__min__energy>  (50) 
-8.3800000000000008

>  <m_primary>  (50) 
energy

>  <meeko>  (50) 
{"free_energy": -7.94, "intermolecular_energy": -10.33, "internal_energy": -0.95, "cluster_size": 9, "cluster_id": 2, "rank_in_cluster": 9}

>  <energy>  (50) 
-7.94

>  <cluster_rmsd>  (50) 
0.46

>  <rmsd>  (50) 
271.52

>  <cluster>  (50) 
2

$$$$
DPVNRQFUFIRJCL-RZTMHIGINA-N
     RDKit          3D

 48 50  0  0  0  0  0  0  0  0999 V2000
  140.8210   81.5570  219.7170 H   0  0  0  0  0  0  0  0  0  0  0  0
  141.1130   81.3350  220.6560 O   0  0  0  0  0  0  0  0  0  0  0  0
  141.3150   80.0320  221.1130 C   0  0  0  0  0  0  0  0  0  0  0  0
  140.5000   79.0520  220.6900 C   0  0  0  0  0  0  0  0  0  0  0  0
  139.6309   79.3340  220.0775 H   0  0  0  0  0  0  0  0  0  0  0  0
  140.6960   77.6160  220.9950 C   0  0  0  0  0  0  0  0  0  0  0  0
  141.7460   76.8720  220.4290 C   0  0  0  0  0  0  0  0  0  0  0  0
  142.4639   77.3631  219.7556 H   0  0  0  0  0  0  0  0  0  0  0  0
  141.8820   75.5110  220.7180 C   0  0  0  0  0  0  0  0  0  0  0  0
  142.7022   74.9348  220.2648 H   0  0  0  0  0  0  0  0  0  0  0  0
  140.9780   74.8760  221.5830 C   0  0  0  0  0  0  0  0  0  0  0  0
  141.0640   73.4670  221.8470 N   0  0  0  0  0  0  0  0  0  0  0  0
  140.2040   72.7320  222.4940 C   0  0  0  0  0  0  0  0  0  0  0  0
  140.5660   72.2220  223.7000 N   0  0  0  0  0  0  0  0  0  0  0  0
  139.7310   71.4360  224.4340 C   0  0  0  0  0  0  0  0  0  0  0  0
  140.1850   70.9230  225.7530 C   0  0  0  0  0  0  0  0  0  0  0  0
  140.0850   69.5480  226.0410 C   0  0  0  0  0  0  0  0  0  0  0  0
  139.6763   68.8606  225.2857 H   0  0  0  0  0  0  0  0  0  0  0  0
  140.5010   69.0500  227.2790 C   0  0  0  0  0  0  0  0  0  0  0  0
  140.4248   67.9733  227.4911 H   0  0  0  0  0  0  0  0  0  0  0  0
  141.0130   69.9160  228.2470 C   0  0  0  0  0  0  0  0  0  0  0  0
  141.3422   69.5214  229.2196 H   0  0  0  0  0  0  0  0  0  0  0  0
  141.1070   71.2830  227.9800 C   0  0  0  0  0  0  0  0  0  0  0  0
  141.5079   71.9651  228.7443 H   0  0  0  0  0  0  0  0  0  0  0  0
  140.6930   71.7870  226.7440 C   0  0  0  0  0  0  0  0  0  0  0  0
  140.7641   72.8661  226.5430 H   0  0  0  0  0  0  0  0  0  0  0  0
  138.4560   71.1500  223.9280 C   0  0  0  0  0  0  0  0  0  0  0  0
  137.7494   70.5351  224.5046 H   0  0  0  0  0  0  0  0  0  0  0  0
  138.1000   71.6590  222.6810 C   0  0  0  0  0  0  0  0  0  0  0  0
  137.1074   71.4367  222.2623 H   0  0  0  0  0  0  0  0  0  0  0  0
  138.9730   72.4290  221.9790 N   0  0  0  0  0  0  0  0  0  0  0  0
  138.6800   72.7470  221.0300 H   0  0  0  0  0  0  0  0  0  0  0  0
  139.8960   75.6000  222.0970 C   0  0  0  0  0  0  0  0  0  0  0  0
  139.1516   75.0960  222.7310 H   0  0  0  0  0  0  0  0  0  0  0  0
  139.7570   76.9620  221.8080 C   0  0  0  0  0  0  0  0  0  0  0  0
  138.9062   77.5240  222.2207 H   0  0  0  0  0  0  0  0  0  0  0  0
  142.3900   79.7030  222.0190 N   0  0  0  0  0  0  0  0  0  0  0  0
  143.2990   79.4060  221.5960 H   0  0  0  0  0  0  0  0  0  0  0  0
  142.4180   79.9330  223.4730 C   0  0  0  0  0  0  0  0  0  0  0  0
  143.4295   79.6772  223.8214 H   0  0  0  0  0  0  0  0  0  0  0  0
  142.2140   81.4090  223.8340 C   0  0  0  0  0  0  0  0  0  0  0  0
  142.1986   81.5201  224.9283 H   0  0  0  0  0  0  0  0  0  0  0  0
  143.0382   82.0059  223.4164 H   0  0  0  0  0  0  0  0  0  0  0  0
  141.2588   81.7600  223.4164 H   0  0  0  0  0  0  0  0  0  0  0  0
  141.4540   79.0000  224.2130 C   0  0  0  0  0  0  0  0  0  0  0  0
  141.5832   79.1251  225.2982 H   0  0  0  0  0  0  0  0  0  0  0  0
  140.4187   79.2479  223.9360 H   0  0  0  0  0  0  0  0  0  0  0  0
  141.6679   77.9572  223.9360 H   0  0  0  0  0  0  0  0  0  0  0  0
  1  2  1  0
  2  3  1  0
  3  4  2  0
  4  5  1  0
  4  6  1  0
  6  7  2  0
  7  8  1  0
  7  9  1  0
  9 10  1  0
  9 11  2  0
 11 12  1  0
 12 13  2  0
 13 14  1  0
 14 15  2  0
 15 16  1  0
 16 17  2  0
 17 18  1  0
 17 19  1  0
 19 20  1  0
 19 21  2  0
 21 22  1  0
 21 23  1  0
 23 24  1  0
 23 25  2  0
 25 26  1  0
 15 27  1  0
 27 28  1  0
 27 29  2  0
 29 30  1  0
 29 31  1  0
 31 32  1  0
 11 33  1  0
 33 34  1  0
 33 35  2  0
 35 36  1  0
  3 37  1  0
 37 38  1  0
 37 39  1  0
 39 40  1  0
 39 41  1  0
 41 42  1  0
 41 43  1  0
 41 44  1  0
 39 45  1  0
 45 46  1  0
 45 47  1  0
 45 48  1  0
 35  6  1  0
 31 13  1  0
 25 16  1  0
M  END
>  <UniqueID>  (51) 
34

>  <SMILES>  (51) 
CC(C)N/C(O)=C/c1ccc(/N=c2/nc(-c3ccccc3)cc[nH]2)cc1

>  <Energy>  (51) 
66.6193675389205

>  <Genealogy>  (51) 
CC(C)NC(O)=Cc1ccc(N=c2nc(-c3ccccc3)cc[nH]2)cc1 (tautomer)
CC(C)N/C(O)=C/c1ccc(/N=c2/nc(-c3ccccc3)cc[nH]2)cc1 (cis-trans isomerization)
CC(C)N/C(O)=C/c1ccc(/N=c2/nc(-c3ccccc3)cc[nH]2)cc1 (3D coordinates assigned)
CC(C)N/C(O)=C/c1ccc(/N=c2/nc(-c3ccccc3)cc[nH]2)cc1 (optimized conformer: 66.6193675389205 kcal/mol)

>  <smiles>  (51) 
CC(C)NC(=O)Cc1ccc(N=c2nc(-c3ccccc3)cc[nH]2)cc1

>  <score_type>  (51) 
oracle

>  <origin>  (51) 
autodockgpu

>  <m_score__min__energy>  (51) 
-8.3800000000000008

>  <m_primary>  (51) 
energy

>  <meeko>  (51) 
{"free_energy": -7.75, "intermolecular_energy": -10.14, "internal_energy": -1.04, "cluster_size": 9, "cluster_id": 3, "rank_in_cluster": 5}

>  <energy>  (51) 
-7.89

>  <cluster_rmsd>  (51) 
0.0

>  <rmsd>  (51) 
272.44

>  <cluster>  (51) 
3

$$$$
DPVNRQFUFIRJCL-RZTMHIGINA-N
     RDKit          3D

 48 50  0  0  0  0  0  0  0  0999 V2000
  141.0320   81.1510  219.3370 H   0  0  0  0  0  0  0  0  0  0  0  0
  141.3550   81.1380  220.2910 O   0  0  0  0  0  0  0  0  0  0  0  0
  141.3230   80.0000  221.1000 C   0  0  0  0  0  0  0  0  0  0  0  0
  140.2780   79.1600  221.0150 C   0  0  0  0  0  0  0  0  0  0  0  0
  139.2984   79.5833  220.7482 H   0  0  0  0  0  0  0  0  0  0  0  0
  140.3590   77.7020  221.2570 C   0  0  0  0  0  0  0  0  0  0  0  0
  139.4630   77.0390  222.1140 C   0  0  0  0  0  0  0  0  0  0  0  0
  138.6596   77.6042  222.6091 H   0  0  0  0  0  0  0  0  0  0  0  0
  139.5880   75.6650  222.3400 C   0  0  0  0  0  0  0  0  0  0  0  0
  138.8870   75.1557  223.0177 H   0  0  0  0  0  0  0  0  0  0  0  0
  140.6040   74.9320  221.7060 C   0  0  0  0  0  0  0  0  0  0  0  0
  140.7870   73.5320  221.9700 N   0  0  0  0  0  0  0  0  0  0  0  0
  139.9710   72.7360  222.6020 C   0  0  0  0  0  0  0  0  0  0  0  0
  140.3870   72.1750  223.7680 N   0  0  0  0  0  0  0  0  0  0  0  0
  139.6010   71.3250  224.4820 C   0  0  0  0  0  0  0  0  0  0  0  0
  140.1120   70.7570  225.7580 C   0  0  0  0  0  0  0  0  0  0  0  0
  140.1030   69.3630  225.9570 C   0  0  0  0  0  0  0  0  0  0  0  0
  139.7230   68.7011  225.1648 H   0  0  0  0  0  0  0  0  0  0  0  0
  140.5730   68.8140  227.1530 C   0  0  0  0  0  0  0  0  0  0  0  0
  140.5677   67.7233  227.2954 H   0  0  0  0  0  0  0  0  0  0  0  0
  141.0490   69.6460  228.1670 C   0  0  0  0  0  0  0  0  0  0  0  0
  141.4210   69.2110  229.1064 H   0  0  0  0  0  0  0  0  0  0  0  0
  141.0530   71.0310  227.9890 C   0  0  0  0  0  0  0  0  0  0  0  0
  141.4260   71.6861  228.7901 H   0  0  0  0  0  0  0  0  0  0  0  0
  140.5840   71.5870  226.7950 C   0  0  0  0  0  0  0  0  0  0  0  0
  140.5833   72.6792  226.6640 H   0  0  0  0  0  0  0  0  0  0  0  0
  138.3190   71.0240  223.9990 C   0  0  0  0  0  0  0  0  0  0  0  0
  137.6503   70.3566  224.5623 H   0  0  0  0  0  0  0  0  0  0  0  0
  137.9090   71.5860  222.7930 C   0  0  0  0  0  0  0  0  0  0  0  0
  136.9113   71.3534  222.3925 H   0  0  0  0  0  0  0  0  0  0  0  0
  138.7340   72.4200  222.1080 N   0  0  0  0  0  0  0  0  0  0  0  0
  138.4030   72.7780  221.1870 H   0  0  0  0  0  0  0  0  0  0  0  0
  141.5340   75.6010  220.9030 C   0  0  0  0  0  0  0  0  0  0  0  0
  142.3658   75.0433  220.4480 H   0  0  0  0  0  0  0  0  0  0  0  0
  141.4110   76.9760  220.6760 C   0  0  0  0  0  0  0  0  0  0  0  0
  142.1436   77.4919  220.0379 H   0  0  0  0  0  0  0  0  0  0  0  0
  142.3940   79.6910  222.0180 N   0  0  0  0  0  0  0  0  0  0  0  0
  143.3050   79.3830  221.6050 H   0  0  0  0  0  0  0  0  0  0  0  0
  142.4160   79.9530  223.4660 C   0  0  0  0  0  0  0  0  0  0  0  0
  143.4333   79.7291  223.8194 H   0  0  0  0  0  0  0  0  0  0  0  0
  142.1770   81.4310  223.7950 C   0  0  0  0  0  0  0  0  0  0  0  0
  142.1554   81.5648  224.8866 H   0  0  0  0  0  0  0  0  0  0  0  0
  142.9887   82.0378  223.3672 H   0  0  0  0  0  0  0  0  0  0  0  0
  141.2154   81.7510  223.3672 H   0  0  0  0  0  0  0  0  0  0  0  0
  141.4750   79.0130  224.2270 C   0  0  0  0  0  0  0  0  0  0  0  0
  141.6142   79.1521  225.3093 H   0  0  0  0  0  0  0  0  0  0  0  0
  140.4329   79.2415  223.9590 H   0  0  0  0  0  0  0  0  0  0  0  0
  141.7024   77.9707  223.9590 H   0  0  0  0  0  0  0  0  0  0  0  0
  1  2  1  0
  2  3  1  0
  3  4  2  0
  4  5  1  0
  4  6  1  0
  6  7  2  0
  7  8  1  0
  7  9  1  0
  9 10  1  0
  9 11  2  0
 11 12  1  0
 12 13  2  0
 13 14  1  0
 14 15  2  0
 15 16  1  0
 16 17  2  0
 17 18  1  0
 17 19  1  0
 19 20  1  0
 19 21  2  0
 21 22  1  0
 21 23  1  0
 23 24  1  0
 23 25  2  0
 25 26  1  0
 15 27  1  0
 27 28  1  0
 27 29  2  0
 29 30  1  0
 29 31  1  0
 31 32  1  0
 11 33  1  0
 33 34  1  0
 33 35  2  0
 35 36  1  0
  3 37  1  0
 37 38  1  0
 37 39  1  0
 39 40  1  0
 39 41  1  0
 41 42  1  0
 41 43  1  0
 41 44  1  0
 39 45  1  0
 45 46  1  0
 45 47  1  0
 45 48  1  0
 35  6  1  0
 31 13  1  0
 25 16  1  0
M  END
>  <UniqueID>  (52) 
34

>  <SMILES>  (52) 
CC(C)N/C(O)=C/c1ccc(/N=c2/nc(-c3ccccc3)cc[nH]2)cc1

>  <Energy>  (52) 
66.6193675389205

>  <Genealogy>  (52) 
CC(C)NC(O)=Cc1ccc(N=c2nc(-c3ccccc3)cc[nH]2)cc1 (tautomer)
CC(C)N/C(O)=C/c1ccc(/N=c2/nc(-c3ccccc3)cc[nH]2)cc1 (cis-trans isomerization)
CC(C)N/C(O)=C/c1ccc(/N=c2/nc(-c3ccccc3)cc[nH]2)cc1 (3D coordinates assigned)
CC(C)N/C(O)=C/c1ccc(/N=c2/nc(-c3ccccc3)cc[nH]2)cc1 (optimized conformer: 66.6193675389205 kcal/mol)

>  <smiles>  (52) 
CC(C)NC(=O)Cc1ccc(N=c2nc(-c3ccccc3)cc[nH]2)cc1

>  <score_type>  (52) 
oracle

>  <origin>  (52) 
autodockgpu

>  <m_score__min__energy>  (52) 
-8.3800000000000008

>  <m_primary>  (52) 
energy

>  <meeko>  (52) 
{"free_energy": -7.89, "intermolecular_energy": -10.27, "internal_energy": -1.01, "cluster_size": 9, "cluster_id": 3, "rank_in_cluster": 1}

>  <energy>  (52) 
-7.82

>  <cluster_rmsd>  (52) 
0.27

>  <rmsd>  (52) 
272.45

>  <cluster>  (52) 
3

$$$$
DPVNRQFUFIRJCL-RZTMHIGINA-N
     RDKit          3D

 48 50  0  0  0  0  0  0  0  0999 V2000
  141.5980   81.0240  219.3030 H   0  0  0  0  0  0  0  0  0  0  0  0
  141.7150   80.9300  220.2990 O   0  0  0  0  0  0  0  0  0  0  0  0
  141.6460   79.7080  220.9720 C   0  0  0  0  0  0  0  0  0  0  0  0
  140.8230   78.7510  220.5150 C   0  0  0  0  0  0  0  0  0  0  0  0
  140.0161   79.0505  219.8301 H   0  0  0  0  0  0  0  0  0  0  0  0
  140.9310   77.3190  220.8730 C   0  0  0  0  0  0  0  0  0  0  0  0
  141.9790   76.5100  220.3970 C   0  0  0  0  0  0  0  0  0  0  0  0
  142.7600   76.9461  219.7568 H   0  0  0  0  0  0  0  0  0  0  0  0
  142.0320   75.1550  220.7340 C   0  0  0  0  0  0  0  0  0  0  0  0
  142.8513   74.5282  220.3520 H   0  0  0  0  0  0  0  0  0  0  0  0
  141.0460   74.5890  221.5570 C   0  0  0  0  0  0  0  0  0  0  0  0
  141.0490   73.1860  221.8660 N   0  0  0  0  0  0  0  0  0  0  0  0
  140.1530   72.5260  222.5440 C   0  0  0  0  0  0  0  0  0  0  0  0
  140.5190   71.9640  223.7260 N   0  0  0  0  0  0  0  0  0  0  0  0
  139.6470   71.2500  224.4880 C   0  0  0  0  0  0  0  0  0  0  0  0
  140.1090   70.6730  225.7780 C   0  0  0  0  0  0  0  0  0  0  0  0
  140.6310   71.5190  226.7760 C   0  0  0  0  0  0  0  0  0  0  0  0
  140.6882   72.6029  226.5973 H   0  0  0  0  0  0  0  0  0  0  0  0
  141.0770   70.9920  227.9920 C   0  0  0  0  0  0  0  0  0  0  0  0
  141.4774   71.6621  228.7670 H   0  0  0  0  0  0  0  0  0  0  0  0
  141.0150   69.6170  228.2240 C   0  0  0  0  0  0  0  0  0  0  0  0
  141.3631   69.2046  229.1825 H   0  0  0  0  0  0  0  0  0  0  0  0
  140.5110   68.7650  227.2390 C   0  0  0  0  0  0  0  0  0  0  0  0
  140.4658   67.6812  227.4216 H   0  0  0  0  0  0  0  0  0  0  0  0
  140.0640   69.2860  226.0220 C   0  0  0  0  0  0  0  0  0  0  0  0
  139.6740   68.6081  225.2485 H   0  0  0  0  0  0  0  0  0  0  0  0
  138.3270   71.0960  224.0400 C   0  0  0  0  0  0  0  0  0  0  0  0
  137.5912   70.5431  224.6424 H   0  0  0  0  0  0  0  0  0  0  0  0
  137.9660   71.6570  222.8170 C   0  0  0  0  0  0  0  0  0  0  0  0
  136.9388   71.5374  222.4421 H   0  0  0  0  0  0  0  0  0  0  0  0
  138.8760   72.3510  222.0850 N   0  0  0  0  0  0  0  0  0  0  0  0
  138.5720   72.7120  221.1540 H   0  0  0  0  0  0  0  0  0  0  0  0
  139.9690   75.3770  221.9780 C   0  0  0  0  0  0  0  0  0  0  0  0
  139.1624   74.9272  222.5755 H   0  0  0  0  0  0  0  0  0  0  0  0
  139.9130   76.7330  221.6430 C   0  0  0  0  0  0  0  0  0  0  0  0
  139.0656   77.3454  221.9849 H   0  0  0  0  0  0  0  0  0  0  0  0
  142.4490   79.4390  222.1420 N   0  0  0  0  0  0  0  0  0  0  0  0
  143.4410   79.1500  221.9840 H   0  0  0  0  0  0  0  0  0  0  0  0
  142.0890   79.7190  223.5410 C   0  0  0  0  0  0  0  0  0  0  0  0
  142.6376   78.9986  224.1655 H   0  0  0  0  0  0  0  0  0  0  0  0
  142.5550   81.1070  223.9960 C   0  0  0  0  0  0  0  0  0  0  0  0
  142.5685   81.1472  225.0952 H   0  0  0  0  0  0  0  0  0  0  0  0
  143.5669   81.2990  223.6096 H   0  0  0  0  0  0  0  0  0  0  0  0
  141.8640   81.8707  223.6096 H   0  0  0  0  0  0  0  0  0  0  0  0
  140.5990   79.4760  223.8040 C   0  0  0  0  0  0  0  0  0  0  0  0
  140.4182   79.4465  224.8886 H   0  0  0  0  0  0  0  0  0  0  0  0
  140.0101   80.2900  223.3561 H   0  0  0  0  0  0  0  0  0  0  0  0
  140.2992   78.5171  223.3561 H   0  0  0  0  0  0  0  0  0  0  0  0
  1  2  1  0
  2  3  1  0
  3  4  2  0
  4  5  1  0
  4  6  1  0
  6  7  2  0
  7  8  1  0
  7  9  1  0
  9 10  1  0
  9 11  2  0
 11 12  1  0
 12 13  2  0
 13 14  1  0
 14 15  2  0
 15 16  1  0
 16 17  2  0
 17 18  1  0
 17 19  1  0
 19 20  1  0
 19 21  2  0
 21 22  1  0
 21 23  1  0
 23 24  1  0
 23 25  2  0
 25 26  1  0
 15 27  1  0
 27 28  1  0
 27 29  2  0
 29 30  1  0
 29 31  1  0
 31 32  1  0
 11 33  1  0
 33 34  1  0
 33 35  2  0
 35 36  1  0
  3 37  1  0
 37 38  1  0
 37 39  1  0
 39 40  1  0
 39 41  1  0
 41 42  1  0
 41 43  1  0
 41 44  1  0
 39 45  1  0
 45 46  1  0
 45 47  1  0
 45 48  1  0
 35  6  1  0
 31 13  1  0
 25 16  1  0
M  END
>  <UniqueID>  (53) 
34

>  <SMILES>  (53) 
CC(C)N/C(O)=C/c1ccc(/N=c2/nc(-c3ccccc3)cc[nH]2)cc1

>  <Energy>  (53) 
66.6193675389205

>  <Genealogy>  (53) 
CC(C)NC(O)=Cc1ccc(N=c2nc(-c3ccccc3)cc[nH]2)cc1 (tautomer)
CC(C)N/C(O)=C/c1ccc(/N=c2/nc(-c3ccccc3)cc[nH]2)cc1 (cis-trans isomerization)
CC(C)N/C(O)=C/c1ccc(/N=c2/nc(-c3ccccc3)cc[nH]2)cc1 (3D coordinates assigned)
CC(C)N/C(O)=C/c1ccc(/N=c2/nc(-c3ccccc3)cc[nH]2)cc1 (optimized conformer: 66.6193675389205 kcal/mol)

>  <smiles>  (53) 
CC(C)NC(=O)Cc1ccc(N=c2nc(-c3ccccc3)cc[nH]2)cc1

>  <score_type>  (53) 
oracle

>  <origin>  (53) 
autodockgpu

>  <m_score__min__energy>  (53) 
-8.3800000000000008

>  <m_primary>  (53) 
energy

>  <meeko>  (53) 
{"free_energy": -7.75, "intermolecular_energy": -10.13, "internal_energy": -0.98, "cluster_size": 9, "cluster_id": 3, "rank_in_cluster": 6}

>  <energy>  (53) 
-7.78

>  <cluster_rmsd>  (53) 
0.33

>  <rmsd>  (53) 
272.48

>  <cluster>  (53) 
3

$$$$
DPVNRQFUFIRJCL-RZTMHIGINA-N
     RDKit          3D

 48 50  0  0  0  0  0  0  0  0999 V2000
  146.2180   74.2150  217.5460 H   0  0  0  0  0  0  0  0  0  0  0  0
  146.2590   73.2920  217.9480 O   0  0  0  0  0  0  0  0  0  0  0  0
  145.6910   72.9610  219.1800 C   0  0  0  0  0  0  0  0  0  0  0  0
  145.0430   73.9050  219.8810 C   0  0  0  0  0  0  0  0  0  0  0  0
  145.5375   74.8788  220.0120 H   0  0  0  0  0  0  0  0  0  0  0  0
  143.7060   73.7200  220.4890 C   0  0  0  0  0  0  0  0  0  0  0  0
  143.2230   72.4500  220.8520 C   0  0  0  0  0  0  0  0  0  0  0  0
  143.8548   71.5616  220.7048 H   0  0  0  0  0  0  0  0  0  0  0  0
  141.9440   72.3110  221.3990 C   0  0  0  0  0  0  0  0  0  0  0  0
  141.5720   71.3132  221.6748 H   0  0  0  0  0  0  0  0  0  0  0  0
  141.1320   73.4390  221.5980 C   0  0  0  0  0  0  0  0  0  0  0  0
  139.7930   73.3120  222.1020 N   0  0  0  0  0  0  0  0  0  0  0  0
  139.2680   72.2770  222.6960 C   0  0  0  0  0  0  0  0  0  0  0  0
  139.8050   71.8660  223.8740 N   0  0  0  0  0  0  0  0  0  0  0  0
  139.3230   70.7880  224.5510 C   0  0  0  0  0  0  0  0  0  0  0  0
  139.9480   70.3990  225.8430 C   0  0  0  0  0  0  0  0  0  0  0  0
  140.0100   69.0410  226.2100 C   0  0  0  0  0  0  0  0  0  0  0  0
  139.6008   68.2745  225.5355 H   0  0  0  0  0  0  0  0  0  0  0  0
  140.5870   68.6590  227.4240 C   0  0  0  0  0  0  0  0  0  0  0  0
  140.6346   67.5948  227.6984 H   0  0  0  0  0  0  0  0  0  0  0  0
  141.1030   69.6250  228.2890 C   0  0  0  0  0  0  0  0  0  0  0  0
  141.5614   69.3219  229.2419 H   0  0  0  0  0  0  0  0  0  0  0  0
  141.0370   70.9770  227.9440 C   0  0  0  0  0  0  0  0  0  0  0  0
  141.4397   71.7381  228.6285 H   0  0  0  0  0  0  0  0  0  0  0  0
  140.4610   71.3650  226.7320 C   0  0  0  0  0  0  0  0  0  0  0  0
  140.4074   72.4319  226.4695 H   0  0  0  0  0  0  0  0  0  0  0  0
  138.2340   70.0860  224.0150 C   0  0  0  0  0  0  0  0  0  0  0  0
  137.8072   69.2228  224.5468 H   0  0  0  0  0  0  0  0  0  0  0  0
  137.7030   70.5020  222.7970 C   0  0  0  0  0  0  0  0  0  0  0  0
  136.8548   69.9582  222.3555 H   0  0  0  0  0  0  0  0  0  0  0  0
  138.2270   71.5760  222.1510 N   0  0  0  0  0  0  0  0  0  0  0  0
  137.8280   71.8210  221.2190 H   0  0  0  0  0  0  0  0  0  0  0  0
  141.5860   74.6940  221.1790 C   0  0  0  0  0  0  0  0  0  0  0  0
  140.9335   75.5737  221.2803 H   0  0  0  0  0  0  0  0  0  0  0  0
  142.8650   74.8360  220.6320 C   0  0  0  0  0  0  0  0  0  0  0  0
  143.2150   75.8284  220.3115 H   0  0  0  0  0  0  0  0  0  0  0  0
  145.7690   71.6230  219.7170 N   0  0  0  0  0  0  0  0  0  0  0  0
  146.1160   71.5210  220.6990 H   0  0  0  0  0  0  0  0  0  0  0  0
  145.2250   70.3970  219.1110 C   0  0  0  0  0  0  0  0  0  0  0  0
  144.5212   69.9633  219.8366 H   0  0  0  0  0  0  0  0  0  0  0  0
  144.4010   70.6860  217.8510 C   0  0  0  0  0  0  0  0  0  0  0  0
  143.3996   71.0372  218.1404 H   0  0  0  0  0  0  0  0  0  0  0  0
  144.9033   71.4616  217.2543 H   0  0  0  0  0  0  0  0  0  0  0  0
  144.3088   69.7665  217.2543 H   0  0  0  0  0  0  0  0  0  0  0  0
  146.3150   69.3450  218.8810 C   0  0  0  0  0  0  0  0  0  0  0  0
  146.6879   68.9851  219.8513 H   0  0  0  0  0  0  0  0  0  0  0  0
  145.8961   68.5011  218.3133 H   0  0  0  0  0  0  0  0  0  0  0  0
  147.1436   69.7936  218.3133 H   0  0  0  0  0  0  0  0  0  0  0  0
  1  2  1  0
  2  3  1  0
  3  4  2  0
  4  5  1  0
  4  6  1  0
  6  7  2  0
  7  8  1  0
  7  9  1  0
  9 10  1  0
  9 11  2  0
 11 12  1  0
 12 13  2  0
 13 14  1  0
 14 15  2  0
 15 16  1  0
 16 17  2  0
 17 18  1  0
 17 19  1  0
 19 20  1  0
 19 21  2  0
 21 22  1  0
 21 23  1  0
 23 24  1  0
 23 25  2  0
 25 26  1  0
 15 27  1  0
 27 28  1  0
 27 29  2  0
 29 30  1  0
 29 31  1  0
 31 32  1  0
 11 33  1  0
 33 34  1  0
 33 35  2  0
 35 36  1  0
  3 37  1  0
 37 38  1  0
 37 39  1  0
 39 40  1  0
 39 41  1  0
 41 42  1  0
 41 43  1  0
 41 44  1  0
 39 45  1  0
 45 46  1  0
 45 47  1  0
 45 48  1  0
 35  6  1  0
 31 13  1  0
 25 16  1  0
M  END
>  <UniqueID>  (54) 
34

>  <SMILES>  (54) 
CC(C)N/C(O)=C/c1ccc(/N=c2/nc(-c3ccccc3)cc[nH]2)cc1

>  <Energy>  (54) 
66.6193675389205

>  <Genealogy>  (54) 
CC(C)NC(O)=Cc1ccc(N=c2nc(-c3ccccc3)cc[nH]2)cc1 (tautomer)
CC(C)N/C(O)=C/c1ccc(/N=c2/nc(-c3ccccc3)cc[nH]2)cc1 (cis-trans isomerization)
CC(C)N/C(O)=C/c1ccc(/N=c2/nc(-c3ccccc3)cc[nH]2)cc1 (3D coordinates assigned)
CC(C)N/C(O)=C/c1ccc(/N=c2/nc(-c3ccccc3)cc[nH]2)cc1 (optimized conformer: 66.6193675389205 kcal/mol)

>  <smiles>  (54) 
CC(C)NC(=O)Cc1ccc(N=c2nc(-c3ccccc3)cc[nH]2)cc1

>  <score_type>  (54) 
oracle

>  <origin>  (54) 
autodockgpu

>  <m_score__min__energy>  (54) 
-8.3800000000000008

>  <m_primary>  (54) 
energy

>  <meeko>  (54) 
{"free_energy": -8.0, "intermolecular_energy": -10.38, "internal_energy": -0.94, "cluster_size": 9, "cluster_id": 2, "rank_in_cluster": 5}

>  <energy>  (54) 
-7.76

>  <cluster_rmsd>  (54) 
1.55

>  <rmsd>  (54) 
272.24

>  <cluster>  (54) 
3

$$$$
DPVNRQFUFIRJCL-RZTMHIGINA-N
     RDKit          3D

 48 50  0  0  0  0  0  0  0  0999 V2000
  140.7230   81.3780  219.5350 H   0  0  0  0  0  0  0  0  0  0  0  0
  141.4920   81.1810  220.1550 O   0  0  0  0  0  0  0  0  0  0  0  0
  141.5110   80.1030  221.0420 C   0  0  0  0  0  0  0  0  0  0  0  0
  140.5120   79.2060  221.0100 C   0  0  0  0  0  0  0  0  0  0  0  0
  139.4935   79.5767  220.8223 H   0  0  0  0  0  0  0  0  0  0  0  0
  140.6930   77.7510  221.2110 C   0  0  0  0  0  0  0  0  0  0  0  0
  141.7000   77.0270  220.5490 C   0  0  0  0  0  0  0  0  0  0  0  0
  142.3951   77.5485  219.8745 H   0  0  0  0  0  0  0  0  0  0  0  0
  141.8230   75.6480  220.7430 C   0  0  0  0  0  0  0  0  0  0  0  0
  142.6099   75.0891  220.2154 H   0  0  0  0  0  0  0  0  0  0  0  0
  140.9470   74.9730  221.6080 C   0  0  0  0  0  0  0  0  0  0  0  0
  141.0170   73.5490  221.7760 N   0  0  0  0  0  0  0  0  0  0  0  0
  140.1680   72.7860  222.4050 C   0  0  0  0  0  0  0  0  0  0  0  0
  140.5230   72.2820  223.6150 N   0  0  0  0  0  0  0  0  0  0  0  0
  139.6990   71.4690  224.3310 C   0  0  0  0  0  0  0  0  0  0  0  0
  140.1450   70.9630  225.6560 C   0  0  0  0  0  0  0  0  0  0  0  0
  140.6730   71.8590  226.6060 C   0  0  0  0  0  0  0  0  0  0  0  0
  140.7469   72.9296  226.3644 H   0  0  0  0  0  0  0  0  0  0  0  0
  141.1040   71.3980  227.8540 C   0  0  0  0  0  0  0  0  0  0  0  0
  141.5099   72.1067  228.5909 H   0  0  0  0  0  0  0  0  0  0  0  0
  141.0200   70.0410  228.1660 C   0  0  0  0  0  0  0  0  0  0  0  0
  141.3557   69.6813  229.1498 H   0  0  0  0  0  0  0  0  0  0  0  0
  140.5100   69.1390  227.2300 C   0  0  0  0  0  0  0  0  0  0  0  0
  140.4489   68.0686  227.4762 H   0  0  0  0  0  0  0  0  0  0  0  0
  140.0770   69.5930  225.9810 C   0  0  0  0  0  0  0  0  0  0  0  0
  139.6805   68.8764  225.2467 H   0  0  0  0  0  0  0  0  0  0  0  0
  138.4410   71.1490  223.8020 C   0  0  0  0  0  0  0  0  0  0  0  0
  137.7423   70.5123  224.3645 H   0  0  0  0  0  0  0  0  0  0  0  0
  138.0920   71.6520  222.5510 C   0  0  0  0  0  0  0  0  0  0  0  0
  137.1139   71.4025  222.1138 H   0  0  0  0  0  0  0  0  0  0  0  0
  138.9550   72.4500  221.8680 N   0  0  0  0  0  0  0  0  0  0  0  0
  138.6700   72.7640  220.9150 H   0  0  0  0  0  0  0  0  0  0  0  0
  139.9050   75.6810  222.2190 C   0  0  0  0  0  0  0  0  0  0  0  0
  139.1806   75.1497  222.8538 H   0  0  0  0  0  0  0  0  0  0  0  0
  139.7810   77.0600  222.0260 C   0  0  0  0  0  0  0  0  0  0  0  0
  138.9630   77.6083  222.5161 H   0  0  0  0  0  0  0  0  0  0  0  0
  142.5860   79.9170  221.9880 N   0  0  0  0  0  0  0  0  0  0  0  0
  143.5440   79.7610  221.5990 H   0  0  0  0  0  0  0  0  0  0  0  0
  142.5240   80.1220  223.4440 C   0  0  0  0  0  0  0  0  0  0  0  0
  143.5598   80.1222  223.8142 H   0  0  0  0  0  0  0  0  0  0  0  0
  141.9480   81.4930  223.8160 C   0  0  0  0  0  0  0  0  0  0  0  0
  141.9077   81.5889  224.9111 H   0  0  0  0  0  0  0  0  0  0  0  0
  142.5895   82.2848  223.4019 H   0  0  0  0  0  0  0  0  0  0  0  0
  140.9334   81.5891  223.4019 H   0  0  0  0  0  0  0  0  0  0  0  0
  141.8100   78.9650  224.1500 C   0  0  0  0  0  0  0  0  0  0  0  0
  141.8901   79.0948  225.2394 H   0  0  0  0  0  0  0  0  0  0  0  0
  140.7493   78.9564  223.8588 H   0  0  0  0  0  0  0  0  0  0  0  0
  142.2779   78.0130  223.8588 H   0  0  0  0  0  0  0  0  0  0  0  0
  1  2  1  0
  2  3  1  0
  3  4  2  0
  4  5  1  0
  4  6  1  0
  6  7  2  0
  7  8  1  0
  7  9  1  0
  9 10  1  0
  9 11  2  0
 11 12  1  0
 12 13  2  0
 13 14  1  0
 14 15  2  0
 15 16  1  0
 16 17  2  0
 17 18  1  0
 17 19  1  0
 19 20  1  0
 19 21  2  0
 21 22  1  0
 21 23  1  0
 23 24  1  0
 23 25  2  0
 25 26  1  0
 15 27  1  0
 27 28  1  0
 27 29  2  0
 29 30  1  0
 29 31  1  0
 31 32  1  0
 11 33  1  0
 33 34  1  0
 33 35  2  0
 35 36  1  0
  3 37  1  0
 37 38  1  0
 37 39  1  0
 39 40  1  0
 39 41  1  0
 41 42  1  0
 41 43  1  0
 41 44  1  0
 39 45  1  0
 45 46  1  0
 45 47  1  0
 45 48  1  0
 35  6  1  0
 31 13  1  0
 25 16  1  0
M  END
>  <UniqueID>  (55) 
34

>  <SMILES>  (55) 
CC(C)N/C(O)=C/c1ccc(/N=c2/nc(-c3ccccc3)cc[nH]2)cc1

>  <Energy>  (55) 
66.6193675389205

>  <Genealogy>  (55) 
CC(C)NC(O)=Cc1ccc(N=c2nc(-c3ccccc3)cc[nH]2)cc1 (tautomer)
CC(C)N/C(O)=C/c1ccc(/N=c2/nc(-c3ccccc3)cc[nH]2)cc1 (cis-trans isomerization)
CC(C)N/C(O)=C/c1ccc(/N=c2/nc(-c3ccccc3)cc[nH]2)cc1 (3D coordinates assigned)
CC(C)N/C(O)=C/c1ccc(/N=c2/nc(-c3ccccc3)cc[nH]2)cc1 (optimized conformer: 66.6193675389205 kcal/mol)

>  <smiles>  (55) 
CC(C)NC(=O)Cc1ccc(N=c2nc(-c3ccccc3)cc[nH]2)cc1

>  <score_type>  (55) 
oracle

>  <origin>  (55) 
autodockgpu

>  <m_score__min__energy>  (55) 
-8.3800000000000008

>  <m_primary>  (55) 
energy

>  <meeko>  (55) 
{"free_energy": -7.73, "intermolecular_energy": -10.12, "internal_energy": -1.02, "cluster_size": 9, "cluster_id": 3, "rank_in_cluster": 7}

>  <energy>  (55) 
-7.75

>  <cluster_rmsd>  (55) 
0.3

>  <rmsd>  (55) 
272.47

>  <cluster>  (55) 
3

$$$$
DPVNRQFUFIRJCL-RZTMHIGINA-N
     RDKit          3D

 48 50  0  0  0  0  0  0  0  0999 V2000
  146.4910   74.0190  218.1330 H   0  0  0  0  0  0  0  0  0  0  0  0
  146.3150   73.0290  218.1860 O   0  0  0  0  0  0  0  0  0  0  0  0
  145.2790   72.4700  218.9380 C   0  0  0  0  0  0  0  0  0  0  0  0
  144.9730   73.0000  220.1330 C   0  0  0  0  0  0  0  0  0  0  0  0
  145.7927   73.1663  220.8474 H   0  0  0  0  0  0  0  0  0  0  0  0
  143.6030   73.3750  220.5510 C   0  0  0  0  0  0  0  0  0  0  0  0
  143.1290   74.6950  220.4460 C   0  0  0  0  0  0  0  0  0  0  0  0
  143.7765   75.4770  220.0227 H   0  0  0  0  0  0  0  0  0  0  0  0
  141.8390   75.0180  220.8770 C   0  0  0  0  0  0  0  0  0  0  0  0
  141.4787   76.0543  220.7974 H   0  0  0  0  0  0  0  0  0  0  0  0
  141.0010   74.0260  221.4110 C   0  0  0  0  0  0  0  0  0  0  0  0
  139.6950   74.3470  221.9160 N   0  0  0  0  0  0  0  0  0  0  0  0
  139.2170   75.5330  222.1700 C   0  0  0  0  0  0  0  0  0  0  0  0
  140.0910   76.5470  222.4020 N   0  0  0  0  0  0  0  0  0  0  0  0
  139.6740   77.8110  222.6860 C   0  0  0  0  0  0  0  0  0  0  0  0
  140.6830   78.8770  222.9150 C   0  0  0  0  0  0  0  0  0  0  0  0
  140.2890   80.1030  223.4850 C   0  0  0  0  0  0  0  0  0  0  0  0
  139.2366   80.2623  223.7627 H   0  0  0  0  0  0  0  0  0  0  0  0
  141.2250   81.1200  223.7010 C   0  0  0  0  0  0  0  0  0  0  0  0
  140.9074   82.0714  224.1525 H   0  0  0  0  0  0  0  0  0  0  0  0
  142.5600   80.9300  223.3450 C   0  0  0  0  0  0  0  0  0  0  0  0
  143.2949   81.7297  223.5193 H   0  0  0  0  0  0  0  0  0  0  0  0
  142.9640   79.7240  222.7670 C   0  0  0  0  0  0  0  0  0  0  0  0
  144.0165   79.5770  222.4829 H   0  0  0  0  0  0  0  0  0  0  0  0
  142.0340   78.7040  222.5490 C   0  0  0  0  0  0  0  0  0  0  0  0
  142.3581   77.7591  222.0885 H   0  0  0  0  0  0  0  0  0  0  0  0
  138.2970   78.0720  222.7340 C   0  0  0  0  0  0  0  0  0  0  0  0
  137.9259   79.0868  222.9399 H   0  0  0  0  0  0  0  0  0  0  0  0
  137.4080   77.0220  222.5160 C   0  0  0  0  0  0  0  0  0  0  0  0
  136.3241   77.2044  222.5603 H   0  0  0  0  0  0  0  0  0  0  0  0
  137.8730   75.7740  222.2490 N   0  0  0  0  0  0  0  0  0  0  0  0
  137.1700   75.0110  222.1400 H   0  0  0  0  0  0  0  0  0  0  0  0
  141.4940   72.7270  221.5750 C   0  0  0  0  0  0  0  0  0  0  0  0
  140.8635   71.9576  222.0446 H   0  0  0  0  0  0  0  0  0  0  0  0
  142.7840   72.4020  221.1450 C   0  0  0  0  0  0  0  0  0  0  0  0
  143.1599   71.3762  221.2731 H   0  0  0  0  0  0  0  0  0  0  0  0
  144.5160   71.3420  218.4580 N   0  0  0  0  0  0  0  0  0  0  0  0
  143.7360   71.5420  217.7900 H   0  0  0  0  0  0  0  0  0  0  0  0
  144.8360   69.9180  218.6430 C   0  0  0  0  0  0  0  0  0  0  0  0
  144.6603   69.4196  217.6783 H   0  0  0  0  0  0  0  0  0  0  0  0
  146.3170   69.6910  218.9670 C   0  0  0  0  0  0  0  0  0  0  0  0
  146.4546   69.6699  220.0582 H   0  0  0  0  0  0  0  0  0  0  0  0
  146.6435   68.7323  218.5377 H   0  0  0  0  0  0  0  0  0  0  0  0
  146.9157   70.5079  218.5377 H   0  0  0  0  0  0  0  0  0  0  0  0
  143.8970   69.2520  219.6540 C   0  0  0  0  0  0  0  0  0  0  0  0
  144.2305   69.4885  220.6752 H   0  0  0  0  0  0  0  0  0  0  0  0
  142.8736   69.6272  219.5063 H   0  0  0  0  0  0  0  0  0  0  0  0
  143.9128   68.1621  219.5063 H   0  0  0  0  0  0  0  0  0  0  0  0
  1  2  1  0
  2  3  1  0
  3  4  2  0
  4  5  1  0
  4  6  1  0
  6  7  2  0
  7  8  1  0
  7  9  1  0
  9 10  1  0
  9 11  2  0
 11 12  1  0
 12 13  2  0
 13 14  1  0
 14 15  2  0
 15 16  1  0
 16 17  2  0
 17 18  1  0
 17 19  1  0
 19 20  1  0
 19 21  2  0
 21 22  1  0
 21 23  1  0
 23 24  1  0
 23 25  2  0
 25 26  1  0
 15 27  1  0
 27 28  1  0
 27 29  2  0
 29 30  1  0
 29 31  1  0
 31 32  1  0
 11 33  1  0
 33 34  1  0
 33 35  2  0
 35 36  1  0
  3 37  1  0
 37 38  1  0
 37 39  1  0
 39 40  1  0
 39 41  1  0
 41 42  1  0
 41 43  1  0
 41 44  1  0
 39 45  1  0
 45 46  1  0
 45 47  1  0
 45 48  1  0
 35  6  1  0
 31 13  1  0
 25 16  1  0
M  END
>  <UniqueID>  (56) 
34

>  <SMILES>  (56) 
CC(C)N/C(O)=C/c1ccc(/N=c2/nc(-c3ccccc3)cc[nH]2)cc1

>  <Energy>  (56) 
66.6193675389205

>  <Genealogy>  (56) 
CC(C)NC(O)=Cc1ccc(N=c2nc(-c3ccccc3)cc[nH]2)cc1 (tautomer)
CC(C)N/C(O)=C/c1ccc(/N=c2/nc(-c3ccccc3)cc[nH]2)cc1 (cis-trans isomerization)
CC(C)N/C(O)=C/c1ccc(/N=c2/nc(-c3ccccc3)cc[nH]2)cc1 (3D coordinates assigned)
CC(C)N/C(O)=C/c1ccc(/N=c2/nc(-c3ccccc3)cc[nH]2)cc1 (optimized conformer: 66.6193675389205 kcal/mol)

>  <smiles>  (56) 
CC(C)NC(=O)Cc1ccc(N=c2nc(-c3ccccc3)cc[nH]2)cc1

>  <score_type>  (56) 
oracle

>  <origin>  (56) 
autodockgpu

>  <m_score__min__energy>  (56) 
-8.3800000000000008

>  <m_primary>  (56) 
energy

>  <meeko>  (56) 
{"free_energy": -7.3, "intermolecular_energy": -9.69, "internal_energy": -0.96, "cluster_size": 1, "cluster_id": 4, "rank_in_cluster": 1}

>  <energy>  (56) 
-7.75

>  <cluster_rmsd>  (56) 
0.47

>  <rmsd>  (56) 
272.42

>  <cluster>  (56) 
3

$$$$
DPVNRQFUFIRJCL-RZTMHIGINA-N
     RDKit          3D

 48 50  0  0  0  0  0  0  0  0999 V2000
  140.4520   81.6100  220.0150 H   0  0  0  0  0  0  0  0  0  0  0  0
  140.9920   81.3570  220.8260 O   0  0  0  0  0  0  0  0  0  0  0  0
  141.2850   80.0380  221.1770 C   0  0  0  0  0  0  0  0  0  0  0  0
  140.4840   79.0490  220.7470 C   0  0  0  0  0  0  0  0  0  0  0  0
  139.6198   79.3215  220.1234 H   0  0  0  0  0  0  0  0  0  0  0  0
  140.6890   77.6160  221.0580 C   0  0  0  0  0  0  0  0  0  0  0  0
  141.6840   76.8520  220.4230 C   0  0  0  0  0  0  0  0  0  0  0  0
  142.3512   77.3246  219.6871 H   0  0  0  0  0  0  0  0  0  0  0  0
  141.8290   75.4940  220.7230 C   0  0  0  0  0  0  0  0  0  0  0  0
  142.6052   74.9019  220.2161 H   0  0  0  0  0  0  0  0  0  0  0  0
  140.9900   74.8820  221.6670 C   0  0  0  0  0  0  0  0  0  0  0  0
  141.0820   73.4770  221.9450 N   0  0  0  0  0  0  0  0  0  0  0  0
  140.2040   72.7350  222.5600 C   0  0  0  0  0  0  0  0  0  0  0  0
  140.5540   72.1600  223.7400 N   0  0  0  0  0  0  0  0  0  0  0  0
  139.7010   71.3630  224.4390 C   0  0  0  0  0  0  0  0  0  0  0  0
  140.1430   70.7770  225.7310 C   0  0  0  0  0  0  0  0  0  0  0  0
  140.6540   71.6140  226.7410 C   0  0  0  0  0  0  0  0  0  0  0  0
  140.7180   72.6987  226.5699 H   0  0  0  0  0  0  0  0  0  0  0  0
  141.0810   71.0780  227.9600 C   0  0  0  0  0  0  0  0  0  0  0  0
  141.4727   71.7421  228.7446 H   0  0  0  0  0  0  0  0  0  0  0  0
  141.0110   69.7020  228.1830 C   0  0  0  0  0  0  0  0  0  0  0  0
  141.3438   69.2825  229.1439 H   0  0  0  0  0  0  0  0  0  0  0  0
  140.5180   68.8580  227.1850 C   0  0  0  0  0  0  0  0  0  0  0  0
  140.4666   67.7732  227.3600 H   0  0  0  0  0  0  0  0  0  0  0  0
  140.0900   69.3880  225.9650 C   0  0  0  0  0  0  0  0  0  0  0  0
  139.7089   68.7164  225.1815 H   0  0  0  0  0  0  0  0  0  0  0  0
  138.4170   71.1350  223.9230 C   0  0  0  0  0  0  0  0  0  0  0  0
  137.6948   70.5134  224.4726 H   0  0  0  0  0  0  0  0  0  0  0  0
  138.0730   71.7100  222.7020 C   0  0  0  0  0  0  0  0  0  0  0  0
  137.0747   71.5328  222.2754 H   0  0  0  0  0  0  0  0  0  0  0  0
  138.9650   72.4890  222.0350 N   0  0  0  0  0  0  0  0  0  0  0  0
  138.6800   72.8580  221.1030 H   0  0  0  0  0  0  0  0  0  0  0  0
  139.9590   75.6260  222.2520 C   0  0  0  0  0  0  0  0  0  0  0  0
  139.2609   75.1399  222.9494 H   0  0  0  0  0  0  0  0  0  0  0  0
  139.8120   76.9850  221.9540 C   0  0  0  0  0  0  0  0  0  0  0  0
  139.0034   77.5631  222.4252 H   0  0  0  0  0  0  0  0  0  0  0  0
  142.4370   79.7040  221.9820 N   0  0  0  0  0  0  0  0  0  0  0  0
  143.3140   79.4440  221.4750 H   0  0  0  0  0  0  0  0  0  0  0  0
  142.5770   79.8810  223.4360 C   0  0  0  0  0  0  0  0  0  0  0  0
  143.6432   79.7553  223.6754 H   0  0  0  0  0  0  0  0  0  0  0  0
  142.2130   81.2990  223.8880 C   0  0  0  0  0  0  0  0  0  0  0  0
  142.2020   81.3420  224.9871 H   0  0  0  0  0  0  0  0  0  0  0  0
  142.9578   82.0098  223.5007 H   0  0  0  0  0  0  0  0  0  0  0  0
  141.2179   81.5632  223.5007 H   0  0  0  0  0  0  0  0  0  0  0  0
  141.8270   78.7960  224.2150 C   0  0  0  0  0  0  0  0  0  0  0  0
  141.9474   78.9701  225.2944 H   0  0  0  0  0  0  0  0  0  0  0  0
  140.7587   78.8301  223.9550 H   0  0  0  0  0  0  0  0  0  0  0  0
  142.2363   77.8087  223.9550 H   0  0  0  0  0  0  0  0  0  0  0  0
  1  2  1  0
  2  3  1  0
  3  4  2  0
  4  5  1  0
  4  6  1  0
  6  7  2  0
  7  8  1  0
  7  9  1  0
  9 10  1  0
  9 11  2  0
 11 12  1  0
 12 13  2  0
 13 14  1  0
 14 15  2  0
 15 16  1  0
 16 17  2  0
 17 18  1  0
 17 19  1  0
 19 20  1  0
 19 21  2  0
 21 22  1  0
 21 23  1  0
 23 24  1  0
 23 25  2  0
 25 26  1  0
 15 27  1  0
 27 28  1  0
 27 29  2  0
 29 30  1  0
 29 31  1  0
 31 32  1  0
 11 33  1  0
 33 34  1  0
 33 35  2  0
 35 36  1  0
  3 37  1  0
 37 38  1  0
 37 39  1  0
 39 40  1  0
 39 41  1  0
 41 42  1  0
 41 43  1  0
 41 44  1  0
 39 45  1  0
 45 46  1  0
 45 47  1  0
 45 48  1  0
 35  6  1  0
 31 13  1  0
 25 16  1  0
M  END
>  <UniqueID>  (57) 
34

>  <SMILES>  (57) 
CC(C)N/C(O)=C/c1ccc(/N=c2/nc(-c3ccccc3)cc[nH]2)cc1

>  <Energy>  (57) 
66.6193675389205

>  <Genealogy>  (57) 
CC(C)NC(O)=Cc1ccc(N=c2nc(-c3ccccc3)cc[nH]2)cc1 (tautomer)
CC(C)N/C(O)=C/c1ccc(/N=c2/nc(-c3ccccc3)cc[nH]2)cc1 (cis-trans isomerization)
CC(C)N/C(O)=C/c1ccc(/N=c2/nc(-c3ccccc3)cc[nH]2)cc1 (3D coordinates assigned)
CC(C)N/C(O)=C/c1ccc(/N=c2/nc(-c3ccccc3)cc[nH]2)cc1 (optimized conformer: 66.6193675389205 kcal/mol)

>  <smiles>  (57) 
CC(C)NC(=O)Cc1ccc(N=c2nc(-c3ccccc3)cc[nH]2)cc1

>  <score_type>  (57) 
oracle

>  <origin>  (57) 
autodockgpu

>  <m_score__min__energy>  (57) 
-8.3800000000000008

>  <m_primary>  (57) 
energy

>  <meeko>  (57) 
{"free_energy": -7.71, "intermolecular_energy": -10.1, "internal_energy": -1.05, "cluster_size": 9, "cluster_id": 3, "rank_in_cluster": 8}

>  <energy>  (57) 
-7.73

>  <cluster_rmsd>  (57) 
0.31

>  <rmsd>  (57) 
272.47

>  <cluster>  (57) 
3

$$$$
DPVNRQFUFIRJCL-RZTMHIGINA-N
     RDKit          3D

 48 50  0  0  0  0  0  0  0  0999 V2000
  146.1630   74.2390  217.5770 H   0  0  0  0  0  0  0  0  0  0  0  0
  146.2630   73.3100  217.9510 O   0  0  0  0  0  0  0  0  0  0  0  0
  145.7870   72.9290  219.2070 C   0  0  0  0  0  0  0  0  0  0  0  0
  145.2010   73.8450  219.9950 C   0  0  0  0  0  0  0  0  0  0  0  0
  145.7907   74.7272  220.2848 H   0  0  0  0  0  0  0  0  0  0  0  0
  143.8120   73.7440  220.4990 C   0  0  0  0  0  0  0  0  0  0  0  0
  143.0010   74.8790  220.6770 C   0  0  0  0  0  0  0  0  0  0  0  0
  143.3887   75.8752  220.4175 H   0  0  0  0  0  0  0  0  0  0  0  0
  141.7050   74.7470  221.1820 C   0  0  0  0  0  0  0  0  0  0  0  0
  141.0798   75.6408  221.3242 H   0  0  0  0  0  0  0  0  0  0  0  0
  141.1960   73.4800  221.5090 C   0  0  0  0  0  0  0  0  0  0  0  0
  139.8890   73.3280  222.0850 N   0  0  0  0  0  0  0  0  0  0  0  0
  139.3940   72.2610  222.6460 C   0  0  0  0  0  0  0  0  0  0  0  0
  139.8840   71.8780  223.8540 N   0  0  0  0  0  0  0  0  0  0  0  0
  139.4290   70.7700  224.5010 C   0  0  0  0  0  0  0  0  0  0  0  0
  139.9990   70.4150  225.8270 C   0  0  0  0  0  0  0  0  0  0  0  0
  140.4950   71.4280  226.6700 C   0  0  0  0  0  0  0  0  0  0  0  0
  140.4525   72.4779  226.3447 H   0  0  0  0  0  0  0  0  0  0  0  0
  141.0410   71.1100  227.9170 C   0  0  0  0  0  0  0  0  0  0  0  0
  141.4202   71.9097  228.5702 H   0  0  0  0  0  0  0  0  0  0  0  0
  141.1060   69.7800  228.3350 C   0  0  0  0  0  0  0  0  0  0  0  0
  141.5329   69.5324  229.3181 H   0  0  0  0  0  0  0  0  0  0  0  0
  140.6290   68.7640  227.5050 C   0  0  0  0  0  0  0  0  0  0  0  0
  140.6838   67.7158  227.8341 H   0  0  0  0  0  0  0  0  0  0  0  0
  140.0820   69.0750  226.2570 C   0  0  0  0  0  0  0  0  0  0  0  0
  139.7137   68.2686  225.6058 H   0  0  0  0  0  0  0  0  0  0  0  0
  138.4170   70.0060  223.9010 C   0  0  0  0  0  0  0  0  0  0  0  0
  138.0119   69.1169  224.4064 H   0  0  0  0  0  0  0  0  0  0  0  0
  137.9350   70.3940  222.6540 C   0  0  0  0  0  0  0  0  0  0  0  0
  137.1494   69.8014  222.1624 H   0  0  0  0  0  0  0  0  0  0  0  0
  138.4300   71.5010  222.0410 N   0  0  0  0  0  0  0  0  0  0  0  0
  138.0730   71.7250  221.0870 H   0  0  0  0  0  0  0  0  0  0  0  0
  142.0240   72.3580  221.3920 C   0  0  0  0  0  0  0  0  0  0  0  0
  141.6523   71.3693  221.6990 H   0  0  0  0  0  0  0  0  0  0  0  0
  143.3210   72.4870  220.8870 C   0  0  0  0  0  0  0  0  0  0  0  0
  143.9615   71.5976  220.7929 H   0  0  0  0  0  0  0  0  0  0  0  0
  145.8940   71.5680  219.6800 N   0  0  0  0  0  0  0  0  0  0  0  0
  146.3270   71.4210  220.6210 H   0  0  0  0  0  0  0  0  0  0  0  0
  145.2810   70.3750  219.0750 C   0  0  0  0  0  0  0  0  0  0  0  0
  144.4880   70.0382  219.7589 H   0  0  0  0  0  0  0  0  0  0  0  0
  144.5820   70.6880  217.7470 C   0  0  0  0  0  0  0  0  0  0  0  0
  143.5949   71.1300  217.9475 H   0  0  0  0  0  0  0  0  0  0  0  0
  145.1918   71.3990  217.1703 H   0  0  0  0  0  0  0  0  0  0  0  0
  144.4577   69.7596  217.1703 H   0  0  0  0  0  0  0  0  0  0  0  0
  146.2800   69.2180  218.9630 C   0  0  0  0  0  0  0  0  0  0  0  0
  146.5685   68.8839  219.9705 H   0  0  0  0  0  0  0  0  0  0  0  0
  145.8144   68.3829  218.4190 H   0  0  0  0  0  0  0  0  0  0  0  0
  147.1740   69.5569  218.4190 H   0  0  0  0  0  0  0  0  0  0  0  0
  1  2  1  0
  2  3  1  0
  3  4  2  0
  4  5  1  0
  4  6  1  0
  6  7  2  0
  7  8  1  0
  7  9  1  0
  9 10  1  0
  9 11  2  0
 11 12  1  0
 12 13  2  0
 13 14  1  0
 14 15  2  0
 15 16  1  0
 16 17  2  0
 17 18  1  0
 17 19  1  0
 19 20  1  0
 19 21  2  0
 21 22  1  0
 21 23  1  0
 23 24  1  0
 23 25  2  0
 25 26  1  0
 15 27  1  0
 27 28  1  0
 27 29  2  0
 29 30  1  0
 29 31  1  0
 31 32  1  0
 11 33  1  0
 33 34  1  0
 33 35  2  0
 35 36  1  0
  3 37  1  0
 37 38  1  0
 37 39  1  0
 39 40  1  0
 39 41  1  0
 41 42  1  0
 41 43  1  0
 41 44  1  0
 39 45  1  0
 45 46  1  0
 45 47  1  0
 45 48  1  0
 35  6  1  0
 31 13  1  0
 25 16  1  0
M  END
>  <UniqueID>  (58) 
34

>  <SMILES>  (58) 
CC(C)N/C(O)=C/c1ccc(/N=c2/nc(-c3ccccc3)cc[nH]2)cc1

>  <Energy>  (58) 
66.6193675389205

>  <Genealogy>  (58) 
CC(C)NC(O)=Cc1ccc(N=c2nc(-c3ccccc3)cc[nH]2)cc1 (tautomer)
CC(C)N/C(O)=C/c1ccc(/N=c2/nc(-c3ccccc3)cc[nH]2)cc1 (cis-trans isomerization)
CC(C)N/C(O)=C/c1ccc(/N=c2/nc(-c3ccccc3)cc[nH]2)cc1 (3D coordinates assigned)
CC(C)N/C(O)=C/c1ccc(/N=c2/nc(-c3ccccc3)cc[nH]2)cc1 (optimized conformer: 66.6193675389205 kcal/mol)

>  <smiles>  (58) 
CC(C)NC(=O)Cc1ccc(N=c2nc(-c3ccccc3)cc[nH]2)cc1

>  <score_type>  (58) 
oracle

>  <origin>  (58) 
autodockgpu

>  <m_score__min__energy>  (58) 
-8.3800000000000008

>  <m_primary>  (58) 
energy

>  <meeko>  (58) 
{"free_energy": -8.03, "intermolecular_energy": -10.41, "internal_energy": -0.97, "cluster_size": 9, "cluster_id": 2, "rank_in_cluster": 3}

>  <energy>  (58) 
-7.71

>  <cluster_rmsd>  (58) 
0.33

>  <rmsd>  (58) 
272.49

>  <cluster>  (58) 
3

$$$$
DPVNRQFUFIRJCL-RZTMHIGINA-N
     RDKit          3D

 48 50  0  0  0  0  0  0  0  0999 V2000
  145.9460   74.2930  217.6220 H   0  0  0  0  0  0  0  0  0  0  0  0
  146.1040   73.3410  217.9120 O   0  0  0  0  0  0  0  0  0  0  0  0
  145.7430   72.8470  219.1670 C   0  0  0  0  0  0  0  0  0  0  0  0
  145.2110   73.6810  220.0750 C   0  0  0  0  0  0  0  0  0  0  0  0
  145.8588   74.4639  220.4961 H   0  0  0  0  0  0  0  0  0  0  0  0
  143.8090   73.6150  220.5460 C   0  0  0  0  0  0  0  0  0  0  0  0
  143.0200   74.7690  220.6980 C   0  0  0  0  0  0  0  0  0  0  0  0
  143.4367   75.7545  220.4426 H   0  0  0  0  0  0  0  0  0  0  0  0
  141.7090   74.6700  221.1720 C   0  0  0  0  0  0  0  0  0  0  0  0
  141.1012   75.5786  221.2941 H   0  0  0  0  0  0  0  0  0  0  0  0
  141.1640   73.4170  221.4930 C   0  0  0  0  0  0  0  0  0  0  0  0
  139.8400   73.2980  222.0380 N   0  0  0  0  0  0  0  0  0  0  0  0
  139.3280   72.2670  222.6490 C   0  0  0  0  0  0  0  0  0  0  0  0
  139.8520   71.8970  223.8460 N   0  0  0  0  0  0  0  0  0  0  0  0
  139.3830   70.8260  224.5420 C   0  0  0  0  0  0  0  0  0  0  0  0
  139.9930   70.4840  225.8530 C   0  0  0  0  0  0  0  0  0  0  0  0
  140.0810   69.1370  226.2550 C   0  0  0  0  0  0  0  0  0  0  0  0
  139.7025   68.3444  225.5928 H   0  0  0  0  0  0  0  0  0  0  0  0
  140.6450   68.7990  227.4880 C   0  0  0  0  0  0  0  0  0  0  0  0
  140.7148   67.7432  227.7886 H   0  0  0  0  0  0  0  0  0  0  0  0
  141.1200   69.7980  228.3390 C   0  0  0  0  0  0  0  0  0  0  0  0
  141.5666   69.5293  229.3077 H   0  0  0  0  0  0  0  0  0  0  0  0
  141.0280   71.1390  227.9600 C   0  0  0  0  0  0  0  0  0  0  0  0
  141.3990   71.9259  228.6332 H   0  0  0  0  0  0  0  0  0  0  0  0
  140.4660   71.4840  226.7280 C   0  0  0  0  0  0  0  0  0  0  0  0
  140.3920   72.5427  226.4386 H   0  0  0  0  0  0  0  0  0  0  0  0
  138.3190   70.0870  224.0050 C   0  0  0  0  0  0  0  0  0  0  0  0
  137.9012   69.2286  224.5514 H   0  0  0  0  0  0  0  0  0  0  0  0
  137.8010   70.4600  222.7670 C   0  0  0  0  0  0  0  0  0  0  0  0
  136.9739   69.8857  222.3243 H   0  0  0  0  0  0  0  0  0  0  0  0
  138.3120   71.5290  222.1040 N   0  0  0  0  0  0  0  0  0  0  0  0
  137.9250   71.7410  221.1590 H   0  0  0  0  0  0  0  0  0  0  0  0
  141.9680   72.2750  221.4030 C   0  0  0  0  0  0  0  0  0  0  0  0
  141.5662   71.2970  221.7064 H   0  0  0  0  0  0  0  0  0  0  0  0
  143.2800   72.3720  220.9290 C   0  0  0  0  0  0  0  0  0  0  0  0
  143.9022   71.4679  220.8556 H   0  0  0  0  0  0  0  0  0  0  0  0
  145.9130   71.4550  219.5120 N   0  0  0  0  0  0  0  0  0  0  0  0
  146.2160   71.2380  220.4900 H   0  0  0  0  0  0  0  0  0  0  0  0
  145.5130   70.2920  218.7040 C   0  0  0  0  0  0  0  0  0  0  0  0
  146.0138   70.3887  217.7294 H   0  0  0  0  0  0  0  0  0  0  0  0
  146.0100   68.9700  219.3000 C   0  0  0  0  0  0  0  0  0  0  0  0
  145.9870   69.0312  220.3981 H   0  0  0  0  0  0  0  0  0  0  0  0
  145.3591   68.1490  218.9648 H   0  0  0  0  0  0  0  0  0  0  0  0
  147.0405   68.7811  218.9648 H   0  0  0  0  0  0  0  0  0  0  0  0
  144.0080   70.2880  218.4200 C   0  0  0  0  0  0  0  0  0  0  0  0
  143.4554   70.2865  219.3711 H   0  0  0  0  0  0  0  0  0  0  0  0
  143.7415   71.1854  217.8425 H   0  0  0  0  0  0  0  0  0  0  0  0
  143.7462   69.3892  217.8425 H   0  0  0  0  0  0  0  0  0  0  0  0
  1  2  1  0
  2  3  1  0
  3  4  2  0
  4  5  1  0
  4  6  1  0
  6  7  2  0
  7  8  1  0
  7  9  1  0
  9 10  1  0
  9 11  2  0
 11 12  1  0
 12 13  2  0
 13 14  1  0
 14 15  2  0
 15 16  1  0
 16 17  2  0
 17 18  1  0
 17 19  1  0
 19 20  1  0
 19 21  2  0
 21 22  1  0
 21 23  1  0
 23 24  1  0
 23 25  2  0
 25 26  1  0
 15 27  1  0
 27 28  1  0
 27 29  2  0
 29 30  1  0
 29 31  1  0
 31 32  1  0
 11 33  1  0
 33 34  1  0
 33 35  2  0
 35 36  1  0
  3 37  1  0
 37 38  1  0
 37 39  1  0
 39 40  1  0
 39 41  1  0
 41 42  1  0
 41 43  1  0
 41 44  1  0
 39 45  1  0
 45 46  1  0
 45 47  1  0
 45 48  1  0
 35  6  1  0
 31 13  1  0
 25 16  1  0
M  END
>  <UniqueID>  (59) 
34

>  <SMILES>  (59) 
CC(C)N/C(O)=C/c1ccc(/N=c2/nc(-c3ccccc3)cc[nH]2)cc1

>  <Energy>  (59) 
66.6193675389205

>  <Genealogy>  (59) 
CC(C)NC(O)=Cc1ccc(N=c2nc(-c3ccccc3)cc[nH]2)cc1 (tautomer)
CC(C)N/C(O)=C/c1ccc(/N=c2/nc(-c3ccccc3)cc[nH]2)cc1 (cis-trans isomerization)
CC(C)N/C(O)=C/c1ccc(/N=c2/nc(-c3ccccc3)cc[nH]2)cc1 (3D coordinates assigned)
CC(C)N/C(O)=C/c1ccc(/N=c2/nc(-c3ccccc3)cc[nH]2)cc1 (optimized conformer: 66.6193675389205 kcal/mol)

>  <smiles>  (59) 
CC(C)NC(=O)Cc1ccc(N=c2nc(-c3ccccc3)cc[nH]2)cc1

>  <score_type>  (59) 
oracle

>  <origin>  (59) 
autodockgpu

>  <m_score__min__energy>  (59) 
-8.3800000000000008

>  <m_primary>  (59) 
energy

>  <meeko>  (59) 
{"free_energy": -7.97, "intermolecular_energy": -10.36, "internal_energy": -1.01, "cluster_size": 9, "cluster_id": 2, "rank_in_cluster": 7}

>  <energy>  (59) 
-7.68

>  <cluster_rmsd>  (59) 
0.47

>  <rmsd>  (59) 
272.53

>  <cluster>  (59) 
3

$$$$
DPVNRQFUFIRJCL-RZTMHIGINA-N
     RDKit          3D

 48 50  0  0  0  0  0  0  0  0999 V2000
  139.5890   66.7460  227.0380 H   0  0  0  0  0  0  0  0  0  0  0  0
  139.2460   67.0670  226.1470 O   0  0  0  0  0  0  0  0  0  0  0  0
  139.1480   68.4150  225.7990 C   0  0  0  0  0  0  0  0  0  0  0  0
  138.7930   68.7480  224.5480 C   0  0  0  0  0  0  0  0  0  0  0  0
  138.2481   68.0010  223.9521 H   0  0  0  0  0  0  0  0  0  0  0  0
  139.0870   70.0550  223.9180 C   0  0  0  0  0  0  0  0  0  0  0  0
  138.1900   70.6710  223.0280 C   0  0  0  0  0  0  0  0  0  0  0  0
  137.2279   70.1889  222.8000 H   0  0  0  0  0  0  0  0  0  0  0  0
  138.5140   71.8930  222.4310 C   0  0  0  0  0  0  0  0  0  0  0  0
  137.8086   72.3639  221.7305 H   0  0  0  0  0  0  0  0  0  0  0  0
  139.7350   72.5220  222.7210 C   0  0  0  0  0  0  0  0  0  0  0  0
  140.1150   73.7460  222.0740 N   0  0  0  0  0  0  0  0  0  0  0  0
  139.5980   74.9290  222.2580 C   0  0  0  0  0  0  0  0  0  0  0  0
  140.4340   75.9960  222.3370 N   0  0  0  0  0  0  0  0  0  0  0  0
  139.9760   77.2610  222.5390 C   0  0  0  0  0  0  0  0  0  0  0  0
  140.9450   78.3870  222.6020 C   0  0  0  0  0  0  0  0  0  0  0  0
  141.2890   79.0800  221.4250 C   0  0  0  0  0  0  0  0  0  0  0  0
  140.8337   78.7884  220.4671 H   0  0  0  0  0  0  0  0  0  0  0  0
  142.2050   80.1360  221.4650 C   0  0  0  0  0  0  0  0  0  0  0  0
  142.4626   80.6745  220.5411 H   0  0  0  0  0  0  0  0  0  0  0  0
  142.7930   80.5080  222.6750 C   0  0  0  0  0  0  0  0  0  0  0  0
  143.5097   81.3420  222.7052 H   0  0  0  0  0  0  0  0  0  0  0  0
  142.4710   79.8210  223.8470 C   0  0  0  0  0  0  0  0  0  0  0  0
  142.9388   80.1117  224.7992 H   0  0  0  0  0  0  0  0  0  0  0  0
  141.5560   78.7650  223.8140 C   0  0  0  0  0  0  0  0  0  0  0  0
  141.3112   78.2253  224.7407 H   0  0  0  0  0  0  0  0  0  0  0  0
  138.5950   77.4670  222.6640 C   0  0  0  0  0  0  0  0  0  0  0  0
  138.1902   78.4797  222.8075 H   0  0  0  0  0  0  0  0  0  0  0  0
  137.7450   76.3650  222.6030 C   0  0  0  0  0  0  0  0  0  0  0  0
  136.6591   76.5047  222.7099 H   0  0  0  0  0  0  0  0  0  0  0  0
  138.2510   75.1180  222.4120 N   0  0  0  0  0  0  0  0  0  0  0  0
  137.5820   74.3190  222.4220 H   0  0  0  0  0  0  0  0  0  0  0  0
  140.6560   71.8800  223.5570 C   0  0  0  0  0  0  0  0  0  0  0  0
  141.6379   72.3389  223.7447 H   0  0  0  0  0  0  0  0  0  0  0  0
  140.3330   70.6570  224.1550 C   0  0  0  0  0  0  0  0  0  0  0  0
  141.0608   70.1634  224.8158 H   0  0  0  0  0  0  0  0  0  0  0  0
  139.4030   69.4670  226.7560 N   0  0  0  0  0  0  0  0  0  0  0  0
  138.5740   69.9650  227.1520 H   0  0  0  0  0  0  0  0  0  0  0  0
  140.6920   69.7860  227.3910 C   0  0  0  0  0  0  0  0  0  0  0  0
  141.4604   69.7345  226.6056 H   0  0  0  0  0  0  0  0  0  0  0  0
  140.7390   71.2210  227.9260 C   0  0  0  0  0  0  0  0  0  0  0  0
  140.7384   71.2025  229.0258 H   0  0  0  0  0  0  0  0  0  0  0  0
  141.6538   71.7160  227.5681 H   0  0  0  0  0  0  0  0  0  0  0  0
  139.8585   71.7748  227.5681 H   0  0  0  0  0  0  0  0  0  0  0  0
  141.0780   68.7440  228.4460 C   0  0  0  0  0  0  0  0  0  0  0  0
  140.9223   69.1643  229.4506 H   0  0  0  0  0  0  0  0  0  0  0  0
  140.4522   67.8479  228.3224 H   0  0  0  0  0  0  0  0  0  0  0  0
  142.1366   68.4718  228.3224 H   0  0  0  0  0  0  0  0  0  0  0  0
  1  2  1  0
  2  3  1  0
  3  4  2  0
  4  5  1  0
  4  6  1  0
  6  7  2  0
  7  8  1  0
  7  9  1  0
  9 10  1  0
  9 11  2  0
 11 12  1  0
 12 13  2  0
 13 14  1  0
 14 15  2  0
 15 16  1  0
 16 17  2  0
 17 18  1  0
 17 19  1  0
 19 20  1  0
 19 21  2  0
 21 22  1  0
 21 23  1  0
 23 24  1  0
 23 25  2  0
 25 26  1  0
 15 27  1  0
 27 28  1  0
 27 29  2  0
 29 30  1  0
 29 31  1  0
 31 32  1  0
 11 33  1  0
 33 34  1  0
 33 35  2  0
 35 36  1  0
  3 37  1  0
 37 38  1  0
 37 39  1  0
 39 40  1  0
 39 41  1  0
 41 42  1  0
 41 43  1  0
 41 44  1  0
 39 45  1  0
 45 46  1  0
 45 47  1  0
 45 48  1  0
 35  6  1  0
 31 13  1  0
 25 16  1  0
M  END
>  <UniqueID>  (60) 
34

>  <SMILES>  (60) 
CC(C)N/C(O)=C/c1ccc(/N=c2/nc(-c3ccccc3)cc[nH]2)cc1

>  <Energy>  (60) 
66.6193675389205

>  <Genealogy>  (60) 
CC(C)NC(O)=Cc1ccc(N=c2nc(-c3ccccc3)cc[nH]2)cc1 (tautomer)
CC(C)N/C(O)=C/c1ccc(/N=c2/nc(-c3ccccc3)cc[nH]2)cc1 (cis-trans isomerization)
CC(C)N/C(O)=C/c1ccc(/N=c2/nc(-c3ccccc3)cc[nH]2)cc1 (3D coordinates assigned)
CC(C)N/C(O)=C/c1ccc(/N=c2/nc(-c3ccccc3)cc[nH]2)cc1 (optimized conformer: 66.6193675389205 kcal/mol)

>  <smiles>  (60) 
CC(C)NC(=O)Cc1ccc(N=c2nc(-c3ccccc3)cc[nH]2)cc1

>  <score_type>  (60) 
oracle

>  <origin>  (60) 
autodockgpu

>  <m_score__min__energy>  (60) 
-8.3800000000000008

>  <m_primary>  (60) 
energy

>  <meeko>  (60) 
{"free_energy": -8.38, "intermolecular_energy": -10.77, "internal_energy": -0.87, "cluster_size": 1, "cluster_id": 1, "rank_in_cluster": 1}

>  <energy>  (60) 
-7.3

>  <cluster_rmsd>  (60) 
0.0

>  <rmsd>  (60) 
271.59

>  <cluster>  (60) 
4

$$$$
QCIVYEKZXQJEGX-FPGWWKSRNA-N
     RDKit          3D

 46 48  0  0  0  0  0  0  0  0999 V2000
  145.9250   74.3530  217.9570 H   0  0  0  0  0  0  0  0  0  0  0  0
  146.1530   73.3750  218.0710 O   0  0  0  0  0  0  0  0  0  0  0  0
  145.9420   72.6670  219.2580 C   0  0  0  0  0  0  0  0  0  0  0  0
  146.3120   71.2870  219.3230 N   0  0  0  0  0  0  0  0  0  0  0  0
  145.4130   70.1920  218.9700 C   0  0  0  0  0  0  0  0  0  0  0  0
  144.4719   70.2912  219.5307 H   0  0  0  0  0  0  0  0  0  0  0  0
  146.0490   68.8490  219.3380 C   0  0  0  0  0  0  0  0  0  0  0  0
  146.0946   68.7526  220.4328 H   0  0  0  0  0  0  0  0  0  0  0  0
  145.4430   68.0303  218.9228 H   0  0  0  0  0  0  0  0  0  0  0  0
  147.0664   68.7991  218.9228 H   0  0  0  0  0  0  0  0  0  0  0  0
  145.1140   70.2520  217.4740 C   0  0  0  0  0  0  0  0  0  0  0  0
  144.0459   70.4663  217.3219 H   0  0  0  0  0  0  0  0  0  0  0  0
  145.7171   71.0470  217.0111 H   0  0  0  0  0  0  0  0  0  0  0  0
  145.3637   69.2859  217.0111 H   0  0  0  0  0  0  0  0  0  0  0  0
  145.4340   73.2450  220.3570 C   0  0  0  0  0  0  0  0  0  0  0  0
  146.1261   73.7950  221.0116 H   0  0  0  0  0  0  0  0  0  0  0  0
  144.0110   73.1950  220.7500 C   0  0  0  0  0  0  0  0  0  0  0  0
  143.2720   74.3870  220.8030 C   0  0  0  0  0  0  0  0  0  0  0  0
  143.7455   75.3377  220.5166 H   0  0  0  0  0  0  0  0  0  0  0  0
  141.9370   74.3720  221.2180 C   0  0  0  0  0  0  0  0  0  0  0  0
  141.3674   75.3122  221.2573 H   0  0  0  0  0  0  0  0  0  0  0  0
  141.3190   73.1700  221.5840 C   0  0  0  0  0  0  0  0  0  0  0  0
  139.9550   73.2060  222.0360 N   0  0  0  0  0  0  0  0  0  0  0  0
  139.3340   72.2900  222.7220 C   0  0  0  0  0  0  0  0  0  0  0  0
  139.8730   71.8640  223.8940 N   0  0  0  0  0  0  0  0  0  0  0  0
  139.2570   70.9280  224.6700 C   0  0  0  0  0  0  0  0  0  0  0  0
  139.9020   70.4950  225.9360 C   0  0  0  0  0  0  0  0  0  0  0  0
  140.4620   71.4540  226.8010 C   0  0  0  0  0  0  0  0  0  0  0  0
  140.4241   72.5197  226.5311 H   0  0  0  0  0  0  0  0  0  0  0  0
  141.0660   71.0640  228.0000 C   0  0  0  0  0  0  0  0  0  0  0  0
  141.5050   71.8219  228.6655 H   0  0  0  0  0  0  0  0  0  0  0  0
  141.1130   69.7150  228.3540 C   0  0  0  0  0  0  0  0  0  0  0  0
  141.5913   69.4102  229.2965 H   0  0  0  0  0  0  0  0  0  0  0  0
  140.5530   68.7520  227.5120 C   0  0  0  0  0  0  0  0  0  0  0  0
  140.5884   67.6893  227.7936 H   0  0  0  0  0  0  0  0  0  0  0  0
  139.9470   69.1360  226.3110 C   0  0  0  0  0  0  0  0  0  0  0  0
  139.5027   68.3731  225.6548 H   0  0  0  0  0  0  0  0  0  0  0  0
  138.0350   70.3890  224.2380 C   0  0  0  0  0  0  0  0  0  0  0  0
  137.5190   69.6219  224.8340 H   0  0  0  0  0  0  0  0  0  0  0  0
  137.4880   70.8440  223.0400 C   0  0  0  0  0  0  0  0  0  0  0  0
  136.5276   70.4412  222.6859 H   0  0  0  0  0  0  0  0  0  0  0  0
  138.1400   71.7840  222.3100 N   0  0  0  0  0  0  0  0  0  0  0  0
  142.0770   71.9850  221.5920 C   0  0  0  0  0  0  0  0  0  0  0  0
  141.6167   71.0430  221.9247 H   0  0  0  0  0  0  0  0  0  0  0  0
  143.4130   71.9990  221.1790 C   0  0  0  0  0  0  0  0  0  0  0  0
  143.9987   71.0680  221.1902 H   0  0  0  0  0  0  0  0  0  0  0  0
  1  2  1  0
  2  3  1  0
  3  4  1  0
  4  5  1  0
  5  6  1  0
  5  7  1  0
  7  8  1  0
  7  9  1  0
  7 10  1  0
  5 11  1  0
 11 12  1  0
 11 13  1  0
 11 14  1  0
  3 15  2  0
 15 16  1  0
 15 17  1  0
 17 18  2  0
 18 19  1  0
 18 20  1  0
 20 21  1  0
 20 22  2  0
 22 23  1  0
 23 24  2  0
 24 25  1  0
 25 26  2  0
 26 27  1  0
 27 28  2  0
 28 29  1  0
 28 30  1  0
 30 31  1  0
 30 32  2  0
 32 33  1  0
 32 34  1  0
 34 35  1  0
 34 36  2  0
 36 37  1  0
 26 38  1  0
 38 39  1  0
 38 40  2  0
 40 41  1  0
 40 42  1  0
 22 43  1  0
 43 44  1  0
 43 45  2  0
 45 46  1  0
 45 17  1  0
 42 24  1  0
 36 27  1  0
M  CHG  2   4  -1  42  -1
M  END
>  <UniqueID>  (61) 
35

>  <SMILES>  (61) 
CC(C)[N-]/C(O)=C/c1ccc(/N=c2/nc(-c3ccccc3)cc[n-]2)cc1

>  <Energy>  (61) 
58.52458763086021

>  <Genealogy>  (61) 
CC(C)[N-]C(=O)Cc1ccc(N=c2nc(-c3ccccc3)cc[n-]2)cc1 (protonated)
CC(C)[N-]C(O)=Cc1ccc(N=c2nc(-c3ccccc3)cc[n-]2)cc1 (tautomer)
CC(C)[N-]/C(O)=C/c1ccc(/N=c2/nc(-c3ccccc3)cc[n-]2)cc1 (cis-trans isomerization)
CC(C)[N-]/C(O)=C/c1ccc(/N=c2/nc(-c3ccccc3)cc[n-]2)cc1 (3D coordinates assigned)
CC(C)[N-]/C(O)=C/c1ccc(/N=c2/nc(-c3ccccc3)cc[n-]2)cc1 (optimized conformer: 58.52458763086021 kcal/mol)

>  <smiles>  (61) 
CC(C)NC(=O)Cc1ccc(N=c2nc(-c3ccccc3)cc[nH]2)cc1

>  <score_type>  (61) 
oracle

>  <origin>  (61) 
autodockgpu

>  <m_score__min__energy>  (61) 
-8.1600000000000001

>  <m_primary>  (61) 
energy

>  <meeko>  (61) 
{"free_energy": -7.98, "intermolecular_energy": -10.37, "internal_energy": -0.99, "cluster_size": 17, "cluster_id": 1, "rank_in_cluster": 10}

>  <energy>  (61) 
-8.16

>  <cluster_rmsd>  (61) 
0.0

>  <rmsd>  (61) 
269.25

>  <cluster>  (61) 
1

$$$$
QCIVYEKZXQJEGX-FPGWWKSRNA-N
     RDKit          3D

 46 48  0  0  0  0  0  0  0  0999 V2000
  146.3190   71.8970  221.1460 H   0  0  0  0  0  0  0  0  0  0  0  0
  146.5620   72.5240  220.3910 O   0  0  0  0  0  0  0  0  0  0  0  0
  145.7440   72.7430  219.2780 C   0  0  0  0  0  0  0  0  0  0  0  0
  145.9330   71.9440  218.1050 N   0  0  0  0  0  0  0  0  0  0  0  0
  145.9500   70.4850  218.1160 C   0  0  0  0  0  0  0  0  0  0  0  0
  146.9457   70.1298  218.4201 H   0  0  0  0  0  0  0  0  0  0  0  0
  145.6570   69.9440  216.7140 C   0  0  0  0  0  0  0  0  0  0  0  0
  145.1346   68.9794  216.7950 H   0  0  0  0  0  0  0  0  0  0  0  0
  145.0232   70.6597  216.1699 H   0  0  0  0  0  0  0  0  0  0  0  0
  146.6027   69.8042  216.1699 H   0  0  0  0  0  0  0  0  0  0  0  0
  144.9100   69.9790  219.1140 C   0  0  0  0  0  0  0  0  0  0  0  0
  145.2696   70.1540  220.1387 H   0  0  0  0  0  0  0  0  0  0  0  0
  143.9628   70.5170  218.9610 H   0  0  0  0  0  0  0  0  0  0  0  0
  144.7487   68.9017  218.9610 H   0  0  0  0  0  0  0  0  0  0  0  0
  144.7610   73.6550  219.2790 C   0  0  0  0  0  0  0  0  0  0  0  0
  144.9048   74.5620  218.6735 H   0  0  0  0  0  0  0  0  0  0  0  0
  143.4980   73.5280  220.0360 C   0  0  0  0  0  0  0  0  0  0  0  0
  142.8180   74.6880  220.4340 C   0  0  0  0  0  0  0  0  0  0  0  0
  143.2085   75.6761  220.1493 H   0  0  0  0  0  0  0  0  0  0  0  0
  141.6460   74.5950  221.1910 C   0  0  0  0  0  0  0  0  0  0  0  0
  141.1203   75.5113  221.4976 H   0  0  0  0  0  0  0  0  0  0  0  0
  141.1360   73.3440  221.5620 C   0  0  0  0  0  0  0  0  0  0  0  0
  139.9470   73.2960  222.3690 N   0  0  0  0  0  0  0  0  0  0  0  0
  139.3930   72.2360  222.8810 C   0  0  0  0  0  0  0  0  0  0  0  0
  139.8800   71.7310  224.0430 N   0  0  0  0  0  0  0  0  0  0  0  0
  139.3260   70.6400  224.6430 C   0  0  0  0  0  0  0  0  0  0  0  0
  139.9110   70.1290  225.9080 C   0  0  0  0  0  0  0  0  0  0  0  0
  139.9390   68.7430  226.1570 C   0  0  0  0  0  0  0  0  0  0  0  0
  139.5222   68.0468  225.4143 H   0  0  0  0  0  0  0  0  0  0  0  0
  140.4920   68.2450  227.3400 C   0  0  0  0  0  0  0  0  0  0  0  0
  140.5042   67.1609  227.5261 H   0  0  0  0  0  0  0  0  0  0  0  0
  141.0290   69.1200  228.2860 C   0  0  0  0  0  0  0  0  0  0  0  0
  141.4599   68.7255  229.2180 H   0  0  0  0  0  0  0  0  0  0  0  0
  141.0190   70.4950  228.0490 C   0  0  0  0  0  0  0  0  0  0  0  0
  141.4462   71.1830  228.7934 H   0  0  0  0  0  0  0  0  0  0  0  0
  140.4670   71.0010  226.8670 C   0  0  0  0  0  0  0  0  0  0  0  0
  140.4667   72.0858  226.6846 H   0  0  0  0  0  0  0  0  0  0  0  0
  138.2220   70.0220  224.0330 C   0  0  0  0  0  0  0  0  0  0  0  0
  137.7591   69.1314  224.4831 H   0  0  0  0  0  0  0  0  0  0  0  0
  137.7240   70.5580  222.8470 C   0  0  0  0  0  0  0  0  0  0  0  0
  136.8556   70.0943  222.3562 H   0  0  0  0  0  0  0  0  0  0  0  0
  138.3100   71.6520  222.2970 N   0  0  0  0  0  0  0  0  0  0  0  0
  141.8520   72.1830  221.2170 C   0  0  0  0  0  0  0  0  0  0  0  0
  141.4879   71.1978  221.5437 H   0  0  0  0  0  0  0  0  0  0  0  0
  143.0240   72.2760  220.4610 C   0  0  0  0  0  0  0  0  0  0  0  0
  143.5784   71.3632  220.1973 H   0  0  0  0  0  0  0  0  0  0  0  0
  1  2  1  0
  2  3  1  0
  3  4  1  0
  4  5  1  0
  5  6  1  0
  5  7  1  0
  7  8  1  0
  7  9  1  0
  7 10  1  0
  5 11  1  0
 11 12  1  0
 11 13  1  0
 11 14  1  0
  3 15  2  0
 15 16  1  0
 15 17  1  0
 17 18  2  0
 18 19  1  0
 18 20  1  0
 20 21  1  0
 20 22  2  0
 22 23  1  0
 23 24  2  0
 24 25  1  0
 25 26  2  0
 26 27  1  0
 27 28  2  0
 28 29  1  0
 28 30  1  0
 30 31  1  0
 30 32  2  0
 32 33  1  0
 32 34  1  0
 34 35  1  0
 34 36  2  0
 36 37  1  0
 26 38  1  0
 38 39  1  0
 38 40  2  0
 40 41  1  0
 40 42  1  0
 22 43  1  0
 43 44  1  0
 43 45  2  0
 45 46  1  0
 45 17  1  0
 42 24  1  0
 36 27  1  0
M  CHG  2   4  -1  42  -1
M  END
>  <UniqueID>  (62) 
35

>  <SMILES>  (62) 
CC(C)[N-]/C(O)=C/c1ccc(/N=c2/nc(-c3ccccc3)cc[n-]2)cc1

>  <Energy>  (62) 
58.52458763086021

>  <Genealogy>  (62) 
CC(C)[N-]C(=O)Cc1ccc(N=c2nc(-c3ccccc3)cc[n-]2)cc1 (protonated)
CC(C)[N-]C(O)=Cc1ccc(N=c2nc(-c3ccccc3)cc[n-]2)cc1 (tautomer)
CC(C)[N-]/C(O)=C/c1ccc(/N=c2/nc(-c3ccccc3)cc[n-]2)cc1 (cis-trans isomerization)
CC(C)[N-]/C(O)=C/c1ccc(/N=c2/nc(-c3ccccc3)cc[n-]2)cc1 (3D coordinates assigned)
CC(C)[N-]/C(O)=C/c1ccc(/N=c2/nc(-c3ccccc3)cc[n-]2)cc1 (optimized conformer: 58.52458763086021 kcal/mol)

>  <smiles>  (62) 
CC(C)NC(=O)Cc1ccc(N=c2nc(-c3ccccc3)cc[nH]2)cc1

>  <score_type>  (62) 
oracle

>  <origin>  (62) 
autodockgpu

>  <m_score__min__energy>  (62) 
-8.1600000000000001

>  <m_primary>  (62) 
energy

>  <meeko>  (62) 
{"free_energy": -7.85, "intermolecular_energy": -10.23, "internal_energy": -0.94, "cluster_size": 17, "cluster_id": 1, "rank_in_cluster": 14}

>  <energy>  (62) 
-8.14

>  <cluster_rmsd>  (62) 
0.08

>  <rmsd>  (62) 
269.25

>  <cluster>  (62) 
1

$$$$
QCIVYEKZXQJEGX-FPGWWKSRNA-N
     RDKit          3D

 46 48  0  0  0  0  0  0  0  0999 V2000
  146.7500   74.5700  217.2160 H   0  0  0  0  0  0  0  0  0  0  0  0
  146.6920   73.5890  217.4520 O   0  0  0  0  0  0  0  0  0  0  0  0
  145.5670   73.0040  218.0420 C   0  0  0  0  0  0  0  0  0  0  0  0
  145.7050   71.7480  218.7140 N   0  0  0  0  0  0  0  0  0  0  0  0
  145.2000   70.4870  218.1800 C   0  0  0  0  0  0  0  0  0  0  0  0
  144.2713   70.6699  217.6196 H   0  0  0  0  0  0  0  0  0  0  0  0
  144.8860   69.5180  219.3230 C   0  0  0  0  0  0  0  0  0  0  0  0
  145.0495   70.0225  220.2867 H   0  0  0  0  0  0  0  0  0  0  0  0
  143.8371   69.1945  219.2517 H   0  0  0  0  0  0  0  0  0  0  0  0
  145.5459   68.6408  219.2517 H   0  0  0  0  0  0  0  0  0  0  0  0
  146.2440   69.8860  217.2400 C   0  0  0  0  0  0  0  0  0  0  0  0
  147.0475   69.4235  217.8321 H   0  0  0  0  0  0  0  0  0  0  0  0
  145.7700   69.1225  216.6056 H   0  0  0  0  0  0  0  0  0  0  0  0
  146.6662   70.6793  216.6056 H   0  0  0  0  0  0  0  0  0  0  0  0
  144.3630   73.5940  218.0310 C   0  0  0  0  0  0  0  0  0  0  0  0
  144.0588   74.1174  217.1126 H   0  0  0  0  0  0  0  0  0  0  0  0
  143.4160   73.5910  219.1650 C   0  0  0  0  0  0  0  0  0  0  0  0
  142.8150   72.3840  219.5530 C   0  0  0  0  0  0  0  0  0  0  0  0
  143.0800   71.4497  219.0364 H   0  0  0  0  0  0  0  0  0  0  0  0
  141.8810   72.3630  220.5930 C   0  0  0  0  0  0  0  0  0  0  0  0
  141.4156   71.4113  220.8891 H   0  0  0  0  0  0  0  0  0  0  0  0
  141.5330   73.5440  221.2610 C   0  0  0  0  0  0  0  0  0  0  0  0
  140.5420   73.4810  222.3010 N   0  0  0  0  0  0  0  0  0  0  0  0
  139.9540   72.4130  222.7570 C   0  0  0  0  0  0  0  0  0  0  0  0
  140.3190   71.9250  223.9710 N   0  0  0  0  0  0  0  0  0  0  0  0
  139.7230   70.8280  224.5140 C   0  0  0  0  0  0  0  0  0  0  0  0
  140.1730   70.3360  225.8420 C   0  0  0  0  0  0  0  0  0  0  0  0
  140.6500   71.2490  226.8020 C   0  0  0  0  0  0  0  0  0  0  0  0
  140.6909   72.3217  226.5618 H   0  0  0  0  0  0  0  0  0  0  0  0
  141.0720   70.8030  228.0580 C   0  0  0  0  0  0  0  0  0  0  0  0
  141.4475   71.5243  228.7988 H   0  0  0  0  0  0  0  0  0  0  0  0
  141.0180   69.4450  228.3740 C   0  0  0  0  0  0  0  0  0  0  0  0
  141.3545   69.0966  229.3616 H   0  0  0  0  0  0  0  0  0  0  0  0
  140.5370   68.5280  227.4370 C   0  0  0  0  0  0  0  0  0  0  0  0
  140.4909   67.4583  227.6893 H   0  0  0  0  0  0  0  0  0  0  0  0
  140.1140   68.9670  226.1790 C   0  0  0  0  0  0  0  0  0  0  0  0
  139.7325   68.2402  225.4467 H   0  0  0  0  0  0  0  0  0  0  0  0
  138.7060   70.1830  223.7920 C   0  0  0  0  0  0  0  0  0  0  0  0
  138.2140   69.2859  224.1959 H   0  0  0  0  0  0  0  0  0  0  0  0
  138.3320   70.7020  222.5530 C   0  0  0  0  0  0  0  0  0  0  0  0
  137.5317   70.2188  221.9734 H   0  0  0  0  0  0  0  0  0  0  0  0
  138.9550   71.8030  222.0620 N   0  0  0  0  0  0  0  0  0  0  0  0
  142.0860   74.7630  220.8300 C   0  0  0  0  0  0  0  0  0  0  0  0
  141.7823   75.7033  221.3133 H   0  0  0  0  0  0  0  0  0  0  0  0
  143.0200   74.7850  219.7900 C   0  0  0  0  0  0  0  0  0  0  0  0
  143.4474   75.7431  219.4591 H   0  0  0  0  0  0  0  0  0  0  0  0
  1  2  1  0
  2  3  1  0
  3  4  1  0
  4  5  1  0
  5  6  1  0
  5  7  1  0
  7  8  1  0
  7  9  1  0
  7 10  1  0
  5 11  1  0
 11 12  1  0
 11 13  1  0
 11 14  1  0
  3 15  2  0
 15 16  1  0
 15 17  1  0
 17 18  2  0
 18 19  1  0
 18 20  1  0
 20 21  1  0
 20 22  2  0
 22 23  1  0
 23 24  2  0
 24 25  1  0
 25 26  2  0
 26 27  1  0
 27 28  2  0
 28 29  1  0
 28 30  1  0
 30 31  1  0
 30 32  2  0
 32 33  1  0
 32 34  1  0
 34 35  1  0
 34 36  2  0
 36 37  1  0
 26 38  1  0
 38 39  1  0
 38 40  2  0
 40 41  1  0
 40 42  1  0
 22 43  1  0
 43 44  1  0
 43 45  2  0
 45 46  1  0
 45 17  1  0
 42 24  1  0
 36 27  1  0
M  CHG  2   4  -1  42  -1
M  END
>  <UniqueID>  (63) 
35

>  <SMILES>  (63) 
CC(C)[N-]/C(O)=C/c1ccc(/N=c2/nc(-c3ccccc3)cc[n-]2)cc1

>  <Energy>  (63) 
58.52458763086021

>  <Genealogy>  (63) 
CC(C)[N-]C(=O)Cc1ccc(N=c2nc(-c3ccccc3)cc[n-]2)cc1 (protonated)
CC(C)[N-]C(O)=Cc1ccc(N=c2nc(-c3ccccc3)cc[n-]2)cc1 (tautomer)
CC(C)[N-]/C(O)=C/c1ccc(/N=c2/nc(-c3ccccc3)cc[n-]2)cc1 (cis-trans isomerization)
CC(C)[N-]/C(O)=C/c1ccc(/N=c2/nc(-c3ccccc3)cc[n-]2)cc1 (3D coordinates assigned)
CC(C)[N-]/C(O)=C/c1ccc(/N=c2/nc(-c3ccccc3)cc[n-]2)cc1 (optimized conformer: 58.52458763086021 kcal/mol)

>  <smiles>  (63) 
CC(C)NC(=O)Cc1ccc(N=c2nc(-c3ccccc3)cc[nH]2)cc1

>  <score_type>  (63) 
oracle

>  <origin>  (63) 
autodockgpu

>  <m_score__min__energy>  (63) 
-8.1600000000000001

>  <m_primary>  (63) 
energy

>  <meeko>  (63) 
{"free_energy": -7.74, "intermolecular_energy": -10.13, "internal_energy": -0.9, "cluster_size": 17, "cluster_id": 1, "rank_in_cluster": 16}

>  <energy>  (63) 
-8.12

>  <cluster_rmsd>  (63) 
0.17

>  <rmsd>  (63) 
269.25

>  <cluster>  (63) 
1

$$$$
QCIVYEKZXQJEGX-FPGWWKSRNA-N
     RDKit          3D

 46 48  0  0  0  0  0  0  0  0999 V2000
  146.2230   74.3540  217.4940 H   0  0  0  0  0  0  0  0  0  0  0  0
  146.2640   73.3780  217.7560 O   0  0  0  0  0  0  0  0  0  0  0  0
  145.8600   72.8980  219.0050 C   0  0  0  0  0  0  0  0  0  0  0  0
  146.0140   71.5060  219.3010 N   0  0  0  0  0  0  0  0  0  0  0  0
  145.5950   70.4380  218.4000 C   0  0  0  0  0  0  0  0  0  0  0  0
  146.1242   70.5358  217.4406 H   0  0  0  0  0  0  0  0  0  0  0  0
  144.0910   70.5370  218.1290 C   0  0  0  0  0  0  0  0  0  0  0  0
  143.5478   70.5728  219.0848 H   0  0  0  0  0  0  0  0  0  0  0  0
  143.8815   71.4509  217.5538 H   0  0  0  0  0  0  0  0  0  0  0  0
  143.7635   69.6585  217.5538 H   0  0  0  0  0  0  0  0  0  0  0  0
  145.9390   69.0890  219.0270 C   0  0  0  0  0  0  0  0  0  0  0  0
  145.9164   69.1777  220.1232 H   0  0  0  0  0  0  0  0  0  0  0  0
  145.2039   68.3368  218.7048 H   0  0  0  0  0  0  0  0  0  0  0  0
  146.9445   68.7806  218.7048 H   0  0  0  0  0  0  0  0  0  0  0  0
  145.3610   73.7020  219.9560 C   0  0  0  0  0  0  0  0  0  0  0  0
  146.0220   74.4796  220.3663 H   0  0  0  0  0  0  0  0  0  0  0  0
  143.9870   73.6170  220.4910 C   0  0  0  0  0  0  0  0  0  0  0  0
  143.4680   72.3660  220.8540 C   0  0  0  0  0  0  0  0  0  0  0  0
  144.0982   71.4681  220.7723 H   0  0  0  0  0  0  0  0  0  0  0  0
  142.1550   72.2530  221.3190 C   0  0  0  0  0  0  0  0  0  0  0  0
  141.7590   71.2660  221.6002 H   0  0  0  0  0  0  0  0  0  0  0  0
  141.3390   73.3860  221.4300 C   0  0  0  0  0  0  0  0  0  0  0  0
  139.9840   73.2200  221.8800 N   0  0  0  0  0  0  0  0  0  0  0  0
  139.4910   72.1940  222.5110 C   0  0  0  0  0  0  0  0  0  0  0  0
  139.9640   71.8890  223.7470 N   0  0  0  0  0  0  0  0  0  0  0  0
  139.4690   70.8440  224.4690 C   0  0  0  0  0  0  0  0  0  0  0  0
  140.0350   70.5540  225.8110 C   0  0  0  0  0  0  0  0  0  0  0  0
  140.1100   69.2240  226.2670 C   0  0  0  0  0  0  0  0  0  0  0  0
  139.7444   68.4069  225.6277 H   0  0  0  0  0  0  0  0  0  0  0  0
  140.6450   68.9330  227.5250 C   0  0  0  0  0  0  0  0  0  0  0  0
  140.6927   67.8906  227.8731 H   0  0  0  0  0  0  0  0  0  0  0  0
  141.1190   69.9620  228.3410 C   0  0  0  0  0  0  0  0  0  0  0  0
  141.5369   69.7307  229.3319 H   0  0  0  0  0  0  0  0  0  0  0  0
  141.0620   71.2850  227.8980 C   0  0  0  0  0  0  0  0  0  0  0  0
  141.4390   72.0950  228.5397 H   0  0  0  0  0  0  0  0  0  0  0  0
  140.5270   71.5830  226.6410 C   0  0  0  0  0  0  0  0  0  0  0  0
  140.4895   72.6271  226.2970 H   0  0  0  0  0  0  0  0  0  0  0  0
  138.4450   70.0620  223.9110 C   0  0  0  0  0  0  0  0  0  0  0  0
  138.0328   69.2032  224.4611 H   0  0  0  0  0  0  0  0  0  0  0  0
  137.9610   70.3940  222.6480 C   0  0  0  0  0  0  0  0  0  0  0  0
  137.1540   69.7994  222.1950 H   0  0  0  0  0  0  0  0  0  0  0  0
  138.4840   71.4500  221.9760 N   0  0  0  0  0  0  0  0  0  0  0  0
  141.8370   74.6320  221.0060 C   0  0  0  0  0  0  0  0  0  0  0  0
  141.1902   75.5210  221.0414 H   0  0  0  0  0  0  0  0  0  0  0  0
  143.1500   74.7450  220.5400 C   0  0  0  0  0  0  0  0  0  0  0  0
  143.5305   75.7228  220.2096 H   0  0  0  0  0  0  0  0  0  0  0  0
  1  2  1  0
  2  3  1  0
  3  4  1  0
  4  5  1  0
  5  6  1  0
  5  7  1  0
  7  8  1  0
  7  9  1  0
  7 10  1  0
  5 11  1  0
 11 12  1  0
 11 13  1  0
 11 14  1  0
  3 15  2  0
 15 16  1  0
 15 17  1  0
 17 18  2  0
 18 19  1  0
 18 20  1  0
 20 21  1  0
 20 22  2  0
 22 23  1  0
 23 24  2  0
 24 25  1  0
 25 26  2  0
 26 27  1  0
 27 28  2  0
 28 29  1  0
 28 30  1  0
 30 31  1  0
 30 32  2  0
 32 33  1  0
 32 34  1  0
 34 35  1  0
 34 36  2  0
 36 37  1  0
 26 38  1  0
 38 39  1  0
 38 40  2  0
 40 41  1  0
 40 42  1  0
 22 43  1  0
 43 44  1  0
 43 45  2  0
 45 46  1  0
 45 17  1  0
 42 24  1  0
 36 27  1  0
M  CHG  2   4  -1  42  -1
M  END
>  <UniqueID>  (64) 
35

>  <SMILES>  (64) 
CC(C)[N-]/C(O)=C/c1ccc(/N=c2/nc(-c3ccccc3)cc[n-]2)cc1

>  <Energy>  (64) 
58.52458763086021

>  <Genealogy>  (64) 
CC(C)[N-]C(=O)Cc1ccc(N=c2nc(-c3ccccc3)cc[n-]2)cc1 (protonated)
CC(C)[N-]C(O)=Cc1ccc(N=c2nc(-c3ccccc3)cc[n-]2)cc1 (tautomer)
CC(C)[N-]/C(O)=C/c1ccc(/N=c2/nc(-c3ccccc3)cc[n-]2)cc1 (cis-trans isomerization)
CC(C)[N-]/C(O)=C/c1ccc(/N=c2/nc(-c3ccccc3)cc[n-]2)cc1 (3D coordinates assigned)
CC(C)[N-]/C(O)=C/c1ccc(/N=c2/nc(-c3ccccc3)cc[n-]2)cc1 (optimized conformer: 58.52458763086021 kcal/mol)

>  <smiles>  (64) 
CC(C)NC(=O)Cc1ccc(N=c2nc(-c3ccccc3)cc[nH]2)cc1

>  <score_type>  (64) 
oracle

>  <origin>  (64) 
autodockgpu

>  <m_score__min__energy>  (64) 
-8.1600000000000001

>  <m_primary>  (64) 
energy

>  <meeko>  (64) 
{"free_energy": -8.12, "intermolecular_energy": -10.5, "internal_energy": -0.98, "cluster_size": 17, "cluster_id": 1, "rank_in_cluster": 3}

>  <energy>  (64) 
-8.12

>  <cluster_rmsd>  (64) 
0.78

>  <rmsd>  (64) 
269.26

>  <cluster>  (64) 
1

$$$$
QCIVYEKZXQJEGX-FPGWWKSRNA-N
     RDKit          3D

 46 48  0  0  0  0  0  0  0  0999 V2000
  145.9330   74.3650  217.5010 H   0  0  0  0  0  0  0  0  0  0  0  0
  146.0440   73.3850  217.7250 O   0  0  0  0  0  0  0  0  0  0  0  0
  145.7520   72.8450  218.9810 C   0  0  0  0  0  0  0  0  0  0  0  0
  145.9480   71.4450  219.2010 N   0  0  0  0  0  0  0  0  0  0  0  0
  145.2440   70.4040  218.4570 C   0  0  0  0  0  0  0  0  0  0  0  0
  144.5260   70.8667  217.7639 H   0  0  0  0  0  0  0  0  0  0  0  0
  144.4660   69.5030  219.4200 C   0  0  0  0  0  0  0  0  0  0  0  0
  144.7060   69.7809  220.4569 H   0  0  0  0  0  0  0  0  0  0  0  0
  143.3868   69.6274  219.2475 H   0  0  0  0  0  0  0  0  0  0  0  0
  144.7463   68.4534  219.2475 H   0  0  0  0  0  0  0  0  0  0  0  0
  146.2570   69.5870  217.6580 C   0  0  0  0  0  0  0  0  0  0  0  0
  146.9226   69.0502  218.3500 H   0  0  0  0  0  0  0  0  0  0  0  0
  145.7252   68.8620  217.0243 H   0  0  0  0  0  0  0  0  0  0  0  0
  146.8529   70.2603  217.0243 H   0  0  0  0  0  0  0  0  0  0  0  0
  145.3250   73.5990  220.0050 C   0  0  0  0  0  0  0  0  0  0  0  0
  146.0450   74.2929  220.4634 H   0  0  0  0  0  0  0  0  0  0  0  0
  143.9570   73.5640  220.5610 C   0  0  0  0  0  0  0  0  0  0  0  0
  143.4080   72.3340  220.9530 C   0  0  0  0  0  0  0  0  0  0  0  0
  144.0108   71.4169  220.8783 H   0  0  0  0  0  0  0  0  0  0  0  0
  142.0990   72.2680  221.4380 C   0  0  0  0  0  0  0  0  0  0  0  0
  141.6785   71.2982  221.7423 H   0  0  0  0  0  0  0  0  0  0  0  0
  141.3180   73.4260  221.5400 C   0  0  0  0  0  0  0  0  0  0  0  0
  139.9660   73.3070  222.0130 N   0  0  0  0  0  0  0  0  0  0  0  0
  139.4400   72.2890  222.6290 C   0  0  0  0  0  0  0  0  0  0  0  0
  139.9370   71.9190  223.8370 N   0  0  0  0  0  0  0  0  0  0  0  0
  139.4120   70.8790  224.5440 C   0  0  0  0  0  0  0  0  0  0  0  0
  140.0070   70.5160  225.8560 C   0  0  0  0  0  0  0  0  0  0  0  0
  140.4810   71.5270  226.7130 C   0  0  0  0  0  0  0  0  0  0  0  0
  140.4121   72.5806  226.4046 H   0  0  0  0  0  0  0  0  0  0  0  0
  141.0390   71.2020  227.9540 C   0  0  0  0  0  0  0  0  0  0  0  0
  141.4123   71.9992  228.6136 H   0  0  0  0  0  0  0  0  0  0  0  0
  141.1230   69.8680  228.3570 C   0  0  0  0  0  0  0  0  0  0  0  0
  141.5645   69.6151  229.3322 H   0  0  0  0  0  0  0  0  0  0  0  0
  140.6470   68.8550  227.5230 C   0  0  0  0  0  0  0  0  0  0  0  0
  140.7107   67.8047  227.8436 H   0  0  0  0  0  0  0  0  0  0  0  0
  140.0890   69.1730  226.2800 C   0  0  0  0  0  0  0  0  0  0  0  0
  139.7118   68.3705  225.6291 H   0  0  0  0  0  0  0  0  0  0  0  0
  138.3300   70.1690  223.9990 C   0  0  0  0  0  0  0  0  0  0  0  0
  137.8924   69.3149  224.5366 H   0  0  0  0  0  0  0  0  0  0  0  0
  137.8210   70.5670  222.7640 C   0  0  0  0  0  0  0  0  0  0  0  0
  136.9681   70.0311  222.3219 H   0  0  0  0  0  0  0  0  0  0  0  0
  138.3780   71.6160  222.1070 N   0  0  0  0  0  0  0  0  0  0  0  0
  141.8460   74.6490  221.0880 C   0  0  0  0  0  0  0  0  0  0  0  0
  141.2260   75.5572  221.1178 H   0  0  0  0  0  0  0  0  0  0  0  0
  143.1550   74.7160  220.6010 C   0  0  0  0  0  0  0  0  0  0  0  0
  143.5587   75.6762  220.2473 H   0  0  0  0  0  0  0  0  0  0  0  0
  1  2  1  0
  2  3  1  0
  3  4  1  0
  4  5  1  0
  5  6  1  0
  5  7  1  0
  7  8  1  0
  7  9  1  0
  7 10  1  0
  5 11  1  0
 11 12  1  0
 11 13  1  0
 11 14  1  0
  3 15  2  0
 15 16  1  0
 15 17  1  0
 17 18  2  0
 18 19  1  0
 18 20  1  0
 20 21  1  0
 20 22  2  0
 22 23  1  0
 23 24  2  0
 24 25  1  0
 25 26  2  0
 26 27  1  0
 27 28  2  0
 28 29  1  0
 28 30  1  0
 30 31  1  0
 30 32  2  0
 32 33  1  0
 32 34  1  0
 34 35  1  0
 34 36  2  0
 36 37  1  0
 26 38  1  0
 38 39  1  0
 38 40  2  0
 40 41  1  0
 40 42  1  0
 22 43  1  0
 43 44  1  0
 43 45  2  0
 45 46  1  0
 45 17  1  0
 42 24  1  0
 36 27  1  0
M  CHG  2   4  -1  42  -1
M  END
>  <UniqueID>  (65) 
35

>  <SMILES>  (65) 
CC(C)[N-]/C(O)=C/c1ccc(/N=c2/nc(-c3ccccc3)cc[n-]2)cc1

>  <Energy>  (65) 
58.52458763086021

>  <Genealogy>  (65) 
CC(C)[N-]C(=O)Cc1ccc(N=c2nc(-c3ccccc3)cc[n-]2)cc1 (protonated)
CC(C)[N-]C(O)=Cc1ccc(N=c2nc(-c3ccccc3)cc[n-]2)cc1 (tautomer)
CC(C)[N-]/C(O)=C/c1ccc(/N=c2/nc(-c3ccccc3)cc[n-]2)cc1 (cis-trans isomerization)
CC(C)[N-]/C(O)=C/c1ccc(/N=c2/nc(-c3ccccc3)cc[n-]2)cc1 (3D coordinates assigned)
CC(C)[N-]/C(O)=C/c1ccc(/N=c2/nc(-c3ccccc3)cc[n-]2)cc1 (optimized conformer: 58.52458763086021 kcal/mol)

>  <smiles>  (65) 
CC(C)NC(=O)Cc1ccc(N=c2nc(-c3ccccc3)cc[nH]2)cc1

>  <score_type>  (65) 
oracle

>  <origin>  (65) 
autodockgpu

>  <m_score__min__energy>  (65) 
-8.1600000000000001

>  <m_primary>  (65) 
energy

>  <meeko>  (65) 
{"free_energy": -8.01, "intermolecular_energy": -10.4, "internal_energy": -0.97, "cluster_size": 17, "cluster_id": 1, "rank_in_cluster": 9}

>  <energy>  (65) 
-8.1

>  <cluster_rmsd>  (65) 
0.26

>  <rmsd>  (65) 
269.27

>  <cluster>  (65) 
1

$$$$
QCIVYEKZXQJEGX-FPGWWKSRNA-N
     RDKit          3D

 46 48  0  0  0  0  0  0  0  0999 V2000
  146.8080   74.3500  219.5890 H   0  0  0  0  0  0  0  0  0  0  0  0
  146.6410   73.3920  219.3130 O   0  0  0  0  0  0  0  0  0  0  0  0
  145.6010   73.0060  218.4610 C   0  0  0  0  0  0  0  0  0  0  0  0
  145.7620   71.8400  217.6470 N   0  0  0  0  0  0  0  0  0  0  0  0
  145.2690   70.5190  218.0220 C   0  0  0  0  0  0  0  0  0  0  0  0
  144.3005   70.6182  218.5339 H   0  0  0  0  0  0  0  0  0  0  0  0
  146.2520   69.8430  218.9830 C   0  0  0  0  0  0  0  0  0  0  0  0
  145.9512   70.0498  220.0207 H   0  0  0  0  0  0  0  0  0  0  0  0
  146.2464   68.7568  218.8092 H   0  0  0  0  0  0  0  0  0  0  0  0
  147.2642   70.2369  218.8092 H   0  0  0  0  0  0  0  0  0  0  0  0
  145.0870   69.6750  216.7610 C   0  0  0  0  0  0  0  0  0  0  0  0
  144.8630   68.6360  217.0444 H   0  0  0  0  0  0  0  0  0  0  0  0
  144.2556   70.0801  216.1655 H   0  0  0  0  0  0  0  0  0  0  0  0
  146.0115   69.7014  216.1655 H   0  0  0  0  0  0  0  0  0  0  0  0
  144.4370   73.6700  218.4030 C   0  0  0  0  0  0  0  0  0  0  0  0
  144.2432   74.2838  217.5110 H   0  0  0  0  0  0  0  0  0  0  0  0
  143.3970   73.6360  219.4510 C   0  0  0  0  0  0  0  0  0  0  0  0
  142.9500   72.3980  219.9340 C   0  0  0  0  0  0  0  0  0  0  0  0
  143.4014   71.4688  219.5562 H   0  0  0  0  0  0  0  0  0  0  0  0
  141.9350   72.3370  220.8920 C   0  0  0  0  0  0  0  0  0  0  0  0
  141.5925   71.3597  221.2628 H   0  0  0  0  0  0  0  0  0  0  0  0
  141.3500   73.5110  221.3840 C   0  0  0  0  0  0  0  0  0  0  0  0
  140.2850   73.4020  222.3430 N   0  0  0  0  0  0  0  0  0  0  0  0
  139.7530   72.3050  222.7990 C   0  0  0  0  0  0  0  0  0  0  0  0
  140.1570   71.8260  224.0040 N   0  0  0  0  0  0  0  0  0  0  0  0
  139.6190   70.6980  224.5460 C   0  0  0  0  0  0  0  0  0  0  0  0
  140.1100   70.2180  225.8630 C   0  0  0  0  0  0  0  0  0  0  0  0
  140.1280   68.8380  226.1430 C   0  0  0  0  0  0  0  0  0  0  0  0
  139.7735   68.1231  225.3859 H   0  0  0  0  0  0  0  0  0  0  0  0
  140.5930   68.3690  227.3760 C   0  0  0  0  0  0  0  0  0  0  0  0
  140.5977   67.2893  227.5862 H   0  0  0  0  0  0  0  0  0  0  0  0
  141.0510   69.2680  228.3400 C   0  0  0  0  0  0  0  0  0  0  0  0
  141.4130   68.8966  229.3100 H   0  0  0  0  0  0  0  0  0  0  0  0
  141.0500   70.6390  228.0740 C   0  0  0  0  0  0  0  0  0  0  0  0
  141.4146   71.3462  228.8336 H   0  0  0  0  0  0  0  0  0  0  0  0
  140.5860   71.1140  226.8430 C   0  0  0  0  0  0  0  0  0  0  0  0
  140.5923   72.1946  226.6375 H   0  0  0  0  0  0  0  0  0  0  0  0
  138.6220   70.0130  223.8320 C   0  0  0  0  0  0  0  0  0  0  0  0
  138.1765   69.0916  224.2353 H   0  0  0  0  0  0  0  0  0  0  0  0
  138.2080   70.5230  222.6030 C   0  0  0  0  0  0  0  0  0  0  0  0
  137.4230   70.0077  222.0301 H   0  0  0  0  0  0  0  0  0  0  0  0
  138.7730   71.6550  222.1130 N   0  0  0  0  0  0  0  0  0  0  0  0
  141.7530   74.7510  220.8540 C   0  0  0  0  0  0  0  0  0  0  0  0
  141.2671   75.6767  221.1959 H   0  0  0  0  0  0  0  0  0  0  0  0
  142.7680   74.8110  219.8950 C   0  0  0  0  0  0  0  0  0  0  0  0
  143.0762   75.7843  219.4854 H   0  0  0  0  0  0  0  0  0  0  0  0
  1  2  1  0
  2  3  1  0
  3  4  1  0
  4  5  1  0
  5  6  1  0
  5  7  1  0
  7  8  1  0
  7  9  1  0
  7 10  1  0
  5 11  1  0
 11 12  1  0
 11 13  1  0
 11 14  1  0
  3 15  2  0
 15 16  1  0
 15 17  1  0
 17 18  2  0
 18 19  1  0
 18 20  1  0
 20 21  1  0
 20 22  2  0
 22 23  1  0
 23 24  2  0
 24 25  1  0
 25 26  2  0
 26 27  1  0
 27 28  2  0
 28 29  1  0
 28 30  1  0
 30 31  1  0
 30 32  2  0
 32 33  1  0
 32 34  1  0
 34 35  1  0
 34 36  2  0
 36 37  1  0
 26 38  1  0
 38 39  1  0
 38 40  2  0
 40 41  1  0
 40 42  1  0
 22 43  1  0
 43 44  1  0
 43 45  2  0
 45 46  1  0
 45 17  1  0
 42 24  1  0
 36 27  1  0
M  CHG  2   4  -1  42  -1
M  END
>  <UniqueID>  (66) 
35

>  <SMILES>  (66) 
CC(C)[N-]/C(O)=C/c1ccc(/N=c2/nc(-c3ccccc3)cc[n-]2)cc1

>  <Energy>  (66) 
58.52458763086021

>  <Genealogy>  (66) 
CC(C)[N-]C(=O)Cc1ccc(N=c2nc(-c3ccccc3)cc[n-]2)cc1 (protonated)
CC(C)[N-]C(O)=Cc1ccc(N=c2nc(-c3ccccc3)cc[n-]2)cc1 (tautomer)
CC(C)[N-]/C(O)=C/c1ccc(/N=c2/nc(-c3ccccc3)cc[n-]2)cc1 (cis-trans isomerization)
CC(C)[N-]/C(O)=C/c1ccc(/N=c2/nc(-c3ccccc3)cc[n-]2)cc1 (3D coordinates assigned)
CC(C)[N-]/C(O)=C/c1ccc(/N=c2/nc(-c3ccccc3)cc[n-]2)cc1 (optimized conformer: 58.52458763086021 kcal/mol)

>  <smiles>  (66) 
CC(C)NC(=O)Cc1ccc(N=c2nc(-c3ccccc3)cc[nH]2)cc1

>  <score_type>  (66) 
oracle

>  <origin>  (66) 
autodockgpu

>  <m_score__min__energy>  (66) 
-8.1600000000000001

>  <m_primary>  (66) 
energy

>  <meeko>  (66) 
{"free_energy": -8.02, "intermolecular_energy": -10.41, "internal_energy": -0.92, "cluster_size": 17, "cluster_id": 1, "rank_in_cluster": 8}

>  <energy>  (66) 
-8.05

>  <cluster_rmsd>  (66) 
0.79

>  <rmsd>  (66) 
269.25

>  <cluster>  (66) 
1

$$$$
QCIVYEKZXQJEGX-FPGWWKSRNA-N
     RDKit          3D

 46 48  0  0  0  0  0  0  0  0999 V2000
  146.0310   74.3490  217.4750 H   0  0  0  0  0  0  0  0  0  0  0  0
  146.1770   73.3920  217.7650 O   0  0  0  0  0  0  0  0  0  0  0  0
  145.7890   72.8980  219.0140 C   0  0  0  0  0  0  0  0  0  0  0  0
  146.0200   71.5190  219.3220 N   0  0  0  0  0  0  0  0  0  0  0  0
  145.6150   70.4190  218.4530 C   0  0  0  0  0  0  0  0  0  0  0  0
  146.0743   70.5435  217.4612 H   0  0  0  0  0  0  0  0  0  0  0  0
  144.0940   70.4180  218.2780 C   0  0  0  0  0  0  0  0  0  0  0  0
  143.6112   70.4177  219.2664 H   0  0  0  0  0  0  0  0  0  0  0  0
  143.7884   71.3159  217.7209 H   0  0  0  0  0  0  0  0  0  0  0  0
  143.7896   69.5197  217.7209 H   0  0  0  0  0  0  0  0  0  0  0  0
  146.0860   69.1000  219.0620 C   0  0  0  0  0  0  0  0  0  0  0  0
  146.0600   69.1728  220.1593 H   0  0  0  0  0  0  0  0  0  0  0  0
  145.4228   68.2866  218.7327 H   0  0  0  0  0  0  0  0  0  0  0  0
  147.1144   68.8906  218.7327 H   0  0  0  0  0  0  0  0  0  0  0  0
  145.2360   73.6780  219.9540 C   0  0  0  0  0  0  0  0  0  0  0  0
  145.8564   74.4784  220.3834 H   0  0  0  0  0  0  0  0  0  0  0  0
  143.8530   73.5390  220.4540 C   0  0  0  0  0  0  0  0  0  0  0  0
  143.0630   74.6870  220.6150 C   0  0  0  0  0  0  0  0  0  0  0  0
  143.4652   75.6717  220.3347 H   0  0  0  0  0  0  0  0  0  0  0  0
  141.7670   74.5860  221.1300 C   0  0  0  0  0  0  0  0  0  0  0  0
  141.1565   75.4928  221.2526 H   0  0  0  0  0  0  0  0  0  0  0  0
  141.2400   73.3400  221.4910 C   0  0  0  0  0  0  0  0  0  0  0  0
  139.9160   73.2870  222.0490 N   0  0  0  0  0  0  0  0  0  0  0  0
  139.3670   72.2800  222.6640 C   0  0  0  0  0  0  0  0  0  0  0  0
  139.8630   71.8900  223.8670 N   0  0  0  0  0  0  0  0  0  0  0  0
  139.3140   70.8610  224.5720 C   0  0  0  0  0  0  0  0  0  0  0  0
  139.9080   70.4750  225.8770 C   0  0  0  0  0  0  0  0  0  0  0  0
  139.9170   69.1230  226.2700 C   0  0  0  0  0  0  0  0  0  0  0  0
  139.4791   68.3601  225.6095 H   0  0  0  0  0  0  0  0  0  0  0  0
  140.4780   68.7420  227.4930 C   0  0  0  0  0  0  0  0  0  0  0  0
  140.4748   67.6835  227.7922 H   0  0  0  0  0  0  0  0  0  0  0  0
  141.0420   69.7020  228.3350 C   0  0  0  0  0  0  0  0  0  0  0  0
  141.4792   69.4004  229.2983 H   0  0  0  0  0  0  0  0  0  0  0  0
  141.0510   71.0450  227.9540 C   0  0  0  0  0  0  0  0  0  0  0  0
  141.4999   71.8000  228.6162 H   0  0  0  0  0  0  0  0  0  0  0  0
  140.4910   71.4330  226.7330 C   0  0  0  0  0  0  0  0  0  0  0  0
  140.5051   72.4926  226.4378 H   0  0  0  0  0  0  0  0  0  0  0  0
  138.2080   70.1850  224.0320 C   0  0  0  0  0  0  0  0  0  0  0  0
  137.7498   69.3414  224.5691 H   0  0  0  0  0  0  0  0  0  0  0  0
  137.7020   70.6030  222.8030 C   0  0  0  0  0  0  0  0  0  0  0  0
  136.8319   70.0924  222.3646 H   0  0  0  0  0  0  0  0  0  0  0  0
  138.2820   71.6400  222.1460 N   0  0  0  0  0  0  0  0  0  0  0  0
  142.0540   72.1970  221.3900 C   0  0  0  0  0  0  0  0  0  0  0  0
  141.6687   71.2200  221.7171 H   0  0  0  0  0  0  0  0  0  0  0  0
  143.3500   72.2970  220.8760 C   0  0  0  0  0  0  0  0  0  0  0  0
  143.9796   71.3981  220.8015 H   0  0  0  0  0  0  0  0  0  0  0  0
  1  2  1  0
  2  3  1  0
  3  4  1  0
  4  5  1  0
  5  6  1  0
  5  7  1  0
  7  8  1  0
  7  9  1  0
  7 10  1  0
  5 11  1  0
 11 12  1  0
 11 13  1  0
 11 14  1  0
  3 15  2  0
 15 16  1  0
 15 17  1  0
 17 18  2  0
 18 19  1  0
 18 20  1  0
 20 21  1  0
 20 22  2  0
 22 23  1  0
 23 24  2  0
 24 25  1  0
 25 26  2  0
 26 27  1  0
 27 28  2  0
 28 29  1  0
 28 30  1  0
 30 31  1  0
 30 32  2  0
 32 33  1  0
 32 34  1  0
 34 35  1  0
 34 36  2  0
 36 37  1  0
 26 38  1  0
 38 39  1  0
 38 40  2  0
 40 41  1  0
 40 42  1  0
 22 43  1  0
 43 44  1  0
 43 45  2  0
 45 46  1  0
 45 17  1  0
 42 24  1  0
 36 27  1  0
M  CHG  2   4  -1  42  -1
M  END
>  <UniqueID>  (67) 
35

>  <SMILES>  (67) 
CC(C)[N-]/C(O)=C/c1ccc(/N=c2/nc(-c3ccccc3)cc[n-]2)cc1

>  <Energy>  (67) 
58.52458763086021

>  <Genealogy>  (67) 
CC(C)[N-]C(=O)Cc1ccc(N=c2nc(-c3ccccc3)cc[n-]2)cc1 (protonated)
CC(C)[N-]C(O)=Cc1ccc(N=c2nc(-c3ccccc3)cc[n-]2)cc1 (tautomer)
CC(C)[N-]/C(O)=C/c1ccc(/N=c2/nc(-c3ccccc3)cc[n-]2)cc1 (cis-trans isomerization)
CC(C)[N-]/C(O)=C/c1ccc(/N=c2/nc(-c3ccccc3)cc[n-]2)cc1 (3D coordinates assigned)
CC(C)[N-]/C(O)=C/c1ccc(/N=c2/nc(-c3ccccc3)cc[n-]2)cc1 (optimized conformer: 58.52458763086021 kcal/mol)

>  <smiles>  (67) 
CC(C)NC(=O)Cc1ccc(N=c2nc(-c3ccccc3)cc[nH]2)cc1

>  <score_type>  (67) 
oracle

>  <origin>  (67) 
autodockgpu

>  <m_score__min__energy>  (67) 
-8.1600000000000001

>  <m_primary>  (67) 
energy

>  <meeko>  (67) 
{"free_energy": -8.14, "intermolecular_energy": -10.53, "internal_energy": -0.97, "cluster_size": 17, "cluster_id": 1, "rank_in_cluster": 2}

>  <energy>  (67) 
-8.02

>  <cluster_rmsd>  (67) 
0.9

>  <rmsd>  (67) 
269.2

>  <cluster>  (67) 
1

$$$$
QCIVYEKZXQJEGX-FPGWWKSRNA-N
     RDKit          3D

 46 48  0  0  0  0  0  0  0  0999 V2000
  146.5320   74.4100  217.8380 H   0  0  0  0  0  0  0  0  0  0  0  0
  146.5950   73.4010  217.8230 O   0  0  0  0  0  0  0  0  0  0  0  0
  145.5750   72.5580  218.2750 C   0  0  0  0  0  0  0  0  0  0  0  0
  145.9200   71.3280  218.9200 N   0  0  0  0  0  0  0  0  0  0  0  0
  145.5170   70.0160  218.4250 C   0  0  0  0  0  0  0  0  0  0  0  0
  144.4203   69.9338  218.4480 H   0  0  0  0  0  0  0  0  0  0  0  0
  146.0980   68.9150  219.3170 C   0  0  0  0  0  0  0  0  0  0  0  0
  145.9552   69.1856  220.3736 H   0  0  0  0  0  0  0  0  0  0  0  0
  145.5837   67.9651  219.1091 H   0  0  0  0  0  0  0  0  0  0  0  0
  147.1724   68.8035  219.1091 H   0  0  0  0  0  0  0  0  0  0  0  0
  146.0020   69.8520  216.9860 C   0  0  0  0  0  0  0  0  0  0  0  0
  147.0440   69.4996  216.9882 H   0  0  0  0  0  0  0  0  0  0  0  0
  145.3679   69.1183  216.4667 H   0  0  0  0  0  0  0  0  0  0  0  0
  145.9433   70.8199  216.4667 H   0  0  0  0  0  0  0  0  0  0  0  0
  144.2770   72.8760  218.1580 C   0  0  0  0  0  0  0  0  0  0  0  0
  143.8838   73.0549  217.1464 H   0  0  0  0  0  0  0  0  0  0  0  0
  143.3380   73.0030  219.2920 C   0  0  0  0  0  0  0  0  0  0  0  0
  142.7220   71.8520  219.8040 C   0  0  0  0  0  0  0  0  0  0  0  0
  142.9704   70.8661  219.3840 H   0  0  0  0  0  0  0  0  0  0  0  0
  141.7940   71.9500  220.8450 C   0  0  0  0  0  0  0  0  0  0  0  0
  141.3164   71.0404  221.2381 H   0  0  0  0  0  0  0  0  0  0  0  0
  141.4680   73.1980  221.3910 C   0  0  0  0  0  0  0  0  0  0  0  0
  140.4840   73.2570  222.4380 N   0  0  0  0  0  0  0  0  0  0  0  0
  139.8290   72.2570  222.9510 C   0  0  0  0  0  0  0  0  0  0  0  0
  140.2510   71.7250  224.1270 N   0  0  0  0  0  0  0  0  0  0  0  0
  139.5910   70.6950  224.7290 C   0  0  0  0  0  0  0  0  0  0  0  0
  140.1080   70.1490  226.0100 C   0  0  0  0  0  0  0  0  0  0  0  0
  140.1550   68.7550  226.2090 C   0  0  0  0  0  0  0  0  0  0  0  0
  139.8040   68.0785  225.4158 H   0  0  0  0  0  0  0  0  0  0  0  0
  140.6440   68.2250  227.4060 C   0  0  0  0  0  0  0  0  0  0  0  0
  140.6705   67.1352  227.5530 H   0  0  0  0  0  0  0  0  0  0  0  0
  141.0990   69.0750  228.4160 C   0  0  0  0  0  0  0  0  0  0  0  0
  141.4808   68.6551  229.3583 H   0  0  0  0  0  0  0  0  0  0  0  0
  141.0690   70.4580  228.2290 C   0  0  0  0  0  0  0  0  0  0  0  0
  141.4304   71.1267  229.0241 H   0  0  0  0  0  0  0  0  0  0  0  0
  140.5810   70.9960  227.0340 C   0  0  0  0  0  0  0  0  0  0  0  0
  140.5659   72.0866  226.8917 H   0  0  0  0  0  0  0  0  0  0  0  0
  138.4470   70.1700  224.1070 C   0  0  0  0  0  0  0  0  0  0  0  0
  137.8997   69.3293  224.5583 H   0  0  0  0  0  0  0  0  0  0  0  0
  138.0180   70.7340  222.9070 C   0  0  0  0  0  0  0  0  0  0  0  0
  137.1196   70.3439  222.4064 H   0  0  0  0  0  0  0  0  0  0  0  0
  138.7080   71.7640  222.3560 N   0  0  0  0  0  0  0  0  0  0  0  0
  142.0380   74.3580  220.8360 C   0  0  0  0  0  0  0  0  0  0  0  0
  141.7534   75.3472  221.2241 H   0  0  0  0  0  0  0  0  0  0  0  0
  142.9640   74.2600  219.7940 C   0  0  0  0  0  0  0  0  0  0  0  0
  143.4025   75.1728  219.3645 H   0  0  0  0  0  0  0  0  0  0  0  0
  1  2  1  0
  2  3  1  0
  3  4  1  0
  4  5  1  0
  5  6  1  0
  5  7  1  0
  7  8  1  0
  7  9  1  0
  7 10  1  0
  5 11  1  0
 11 12  1  0
 11 13  1  0
 11 14  1  0
  3 15  2  0
 15 16  1  0
 15 17  1  0
 17 18  2  0
 18 19  1  0
 18 20  1  0
 20 21  1  0
 20 22  2  0
 22 23  1  0
 23 24  2  0
 24 25  1  0
 25 26  2  0
 26 27  1  0
 27 28  2  0
 28 29  1  0
 28 30  1  0
 30 31  1  0
 30 32  2  0
 32 33  1  0
 32 34  1  0
 34 35  1  0
 34 36  2  0
 36 37  1  0
 26 38  1  0
 38 39  1  0
 38 40  2  0
 40 41  1  0
 40 42  1  0
 22 43  1  0
 43 44  1  0
 43 45  2  0
 45 46  1  0
 45 17  1  0
 42 24  1  0
 36 27  1  0
M  CHG  2   4  -1  42  -1
M  END
>  <UniqueID>  (68) 
35

>  <SMILES>  (68) 
CC(C)[N-]/C(O)=C/c1ccc(/N=c2/nc(-c3ccccc3)cc[n-]2)cc1

>  <Energy>  (68) 
58.52458763086021

>  <Genealogy>  (68) 
CC(C)[N-]C(=O)Cc1ccc(N=c2nc(-c3ccccc3)cc[n-]2)cc1 (protonated)
CC(C)[N-]C(O)=Cc1ccc(N=c2nc(-c3ccccc3)cc[n-]2)cc1 (tautomer)
CC(C)[N-]/C(O)=C/c1ccc(/N=c2/nc(-c3ccccc3)cc[n-]2)cc1 (cis-trans isomerization)
CC(C)[N-]/C(O)=C/c1ccc(/N=c2/nc(-c3ccccc3)cc[n-]2)cc1 (3D coordinates assigned)
CC(C)[N-]/C(O)=C/c1ccc(/N=c2/nc(-c3ccccc3)cc[n-]2)cc1 (optimized conformer: 58.52458763086021 kcal/mol)

>  <smiles>  (68) 
CC(C)NC(=O)Cc1ccc(N=c2nc(-c3ccccc3)cc[nH]2)cc1

>  <score_type>  (68) 
oracle

>  <origin>  (68) 
autodockgpu

>  <m_score__min__energy>  (68) 
-8.1600000000000001

>  <m_primary>  (68) 
energy

>  <meeko>  (68) 
{"free_energy": -7.89, "intermolecular_energy": -10.28, "internal_energy": -0.91, "cluster_size": 17, "cluster_id": 1, "rank_in_cluster": 12}

>  <energy>  (68) 
-8.02

>  <cluster_rmsd>  (68) 
0.93

>  <rmsd>  (68) 
269.13

>  <cluster>  (68) 
1

$$$$
QCIVYEKZXQJEGX-FPGWWKSRNA-N
     RDKit          3D

 46 48  0  0  0  0  0  0  0  0999 V2000
  145.9400   74.3070  217.5600 H   0  0  0  0  0  0  0  0  0  0  0  0
  146.0410   73.3290  217.7940 O   0  0  0  0  0  0  0  0  0  0  0  0
  145.7620   72.8070  219.0600 C   0  0  0  0  0  0  0  0  0  0  0  0
  145.9950   71.4170  219.3090 N   0  0  0  0  0  0  0  0  0  0  0  0
  145.4520   70.3460  218.4790 C   0  0  0  0  0  0  0  0  0  0  0  0
  145.7821   70.4815  217.4385 H   0  0  0  0  0  0  0  0  0  0  0  0
  143.9210   70.3850  218.5040 C   0  0  0  0  0  0  0  0  0  0  0  0
  143.5714   70.3939  219.5469 H   0  0  0  0  0  0  0  0  0  0  0  0
  143.5689   71.2924  217.9915 H   0  0  0  0  0  0  0  0  0  0  0  0
  143.5232   69.4967  217.9915 H   0  0  0  0  0  0  0  0  0  0  0  0
  145.9630   69.0030  218.9960 C   0  0  0  0  0  0  0  0  0  0  0  0
  145.9608   69.0087  220.0960 H   0  0  0  0  0  0  0  0  0  0  0  0
  145.3087   68.1971  218.6322 H   0  0  0  0  0  0  0  0  0  0  0  0
  146.9876   68.8359  218.6322 H   0  0  0  0  0  0  0  0  0  0  0  0
  145.3140   73.5700  220.0680 C   0  0  0  0  0  0  0  0  0  0  0  0
  146.0532   74.1584  220.6314 H   0  0  0  0  0  0  0  0  0  0  0  0
  143.8980   73.6760  220.4750 C   0  0  0  0  0  0  0  0  0  0  0  0
  143.2730   74.9320  220.4640 C   0  0  0  0  0  0  0  0  0  0  0  0
  143.8290   75.8165  220.1197 H   0  0  0  0  0  0  0  0  0  0  0  0
  141.9480   75.0660  220.8880 C   0  0  0  0  0  0  0  0  0  0  0  0
  141.4678   76.0555  220.8737 H   0  0  0  0  0  0  0  0  0  0  0  0
  141.2270   73.9500  221.3310 C   0  0  0  0  0  0  0  0  0  0  0  0
  139.8770   74.1390  221.7910 N   0  0  0  0  0  0  0  0  0  0  0  0
  139.3060   75.2680  222.0930 C   0  0  0  0  0  0  0  0  0  0  0  0
  140.0810   76.3480  222.3730 N   0  0  0  0  0  0  0  0  0  0  0  0
  139.5420   77.5630  222.6690 C   0  0  0  0  0  0  0  0  0  0  0  0
  140.4430   78.7040  222.9770 C   0  0  0  0  0  0  0  0  0  0  0  0
  141.8220   78.5980  222.7120 C   0  0  0  0  0  0  0  0  0  0  0  0
  142.2251   77.6689  222.2828 H   0  0  0  0  0  0  0  0  0  0  0  0
  142.6830   79.6640  222.9900 C   0  0  0  0  0  0  0  0  0  0  0  0
  143.7594   79.5685  222.7843 H   0  0  0  0  0  0  0  0  0  0  0  0
  142.1790   80.8490  223.5280 C   0  0  0  0  0  0  0  0  0  0  0  0
  142.8588   81.6853  223.7482 H   0  0  0  0  0  0  0  0  0  0  0  0
  140.8130   80.9740  223.7870 C   0  0  0  0  0  0  0  0  0  0  0  0
  140.4175   81.9098  224.2088 H   0  0  0  0  0  0  0  0  0  0  0  0
  139.9460   79.9110  223.5110 C   0  0  0  0  0  0  0  0  0  0  0  0
  138.8697   80.0174  223.7118 H   0  0  0  0  0  0  0  0  0  0  0  0
  138.1450   77.6970  222.6900 C   0  0  0  0  0  0  0  0  0  0  0  0
  137.6780   78.6610  222.9400 H   0  0  0  0  0  0  0  0  0  0  0  0
  137.3610   76.5850  222.3880 C   0  0  0  0  0  0  0  0  0  0  0  0
  136.2642   76.6691  222.3895 H   0  0  0  0  0  0  0  0  0  0  0  0
  137.9500   75.3980  222.0920 N   0  0  0  0  0  0  0  0  0  0  0  0
  141.8720   72.7020  221.4020 C   0  0  0  0  0  0  0  0  0  0  0  0
  141.3308   71.8275  221.7923 H   0  0  0  0  0  0  0  0  0  0  0  0
  143.1970   72.5680  220.9790 C   0  0  0  0  0  0  0  0  0  0  0  0
  143.6942   71.5887  221.0411 H   0  0  0  0  0  0  0  0  0  0  0  0
  1  2  1  0
  2  3  1  0
  3  4  1  0
  4  5  1  0
  5  6  1  0
  5  7  1  0
  7  8  1  0
  7  9  1  0
  7 10  1  0
  5 11  1  0
 11 12  1  0
 11 13  1  0
 11 14  1  0
  3 15  2  0
 15 16  1  0
 15 17  1  0
 17 18  2  0
 18 19  1  0
 18 20  1  0
 20 21  1  0
 20 22  2  0
 22 23  1  0
 23 24  2  0
 24 25  1  0
 25 26  2  0
 26 27  1  0
 27 28  2  0
 28 29  1  0
 28 30  1  0
 30 31  1  0
 30 32  2  0
 32 33  1  0
 32 34  1  0
 34 35  1  0
 34 36  2  0
 36 37  1  0
 26 38  1  0
 38 39  1  0
 38 40  2  0
 40 41  1  0
 40 42  1  0
 22 43  1  0
 43 44  1  0
 43 45  2  0
 45 46  1  0
 45 17  1  0
 42 24  1  0
 36 27  1  0
M  CHG  2   4  -1  42  -1
M  END
>  <UniqueID>  (69) 
35

>  <SMILES>  (69) 
CC(C)[N-]/C(O)=C/c1ccc(/N=c2/nc(-c3ccccc3)cc[n-]2)cc1

>  <Energy>  (69) 
58.52458763086021

>  <Genealogy>  (69) 
CC(C)[N-]C(=O)Cc1ccc(N=c2nc(-c3ccccc3)cc[n-]2)cc1 (protonated)
CC(C)[N-]C(O)=Cc1ccc(N=c2nc(-c3ccccc3)cc[n-]2)cc1 (tautomer)
CC(C)[N-]/C(O)=C/c1ccc(/N=c2/nc(-c3ccccc3)cc[n-]2)cc1 (cis-trans isomerization)
CC(C)[N-]/C(O)=C/c1ccc(/N=c2/nc(-c3ccccc3)cc[n-]2)cc1 (3D coordinates assigned)
CC(C)[N-]/C(O)=C/c1ccc(/N=c2/nc(-c3ccccc3)cc[n-]2)cc1 (optimized conformer: 58.52458763086021 kcal/mol)

>  <smiles>  (69) 
CC(C)NC(=O)Cc1ccc(N=c2nc(-c3ccccc3)cc[nH]2)cc1

>  <score_type>  (69) 
oracle

>  <origin>  (69) 
autodockgpu

>  <m_score__min__energy>  (69) 
-8.1600000000000001

>  <m_primary>  (69) 
energy

>  <meeko>  (69) 
{"free_energy": -7.78, "intermolecular_energy": -10.17, "internal_energy": -0.88, "cluster_size": 3, "cluster_id": 2, "rank_in_cluster": 1}

>  <energy>  (69) 
-8.01

>  <cluster_rmsd>  (69) 
0.42

>  <rmsd>  (69) 
269.27

>  <cluster>  (69) 
1

$$$$
QCIVYEKZXQJEGX-FPGWWKSRNA-N
     RDKit          3D

 46 48  0  0  0  0  0  0  0  0999 V2000
  145.6720   74.3600  217.9130 H   0  0  0  0  0  0  0  0  0  0  0  0
  145.9340   73.3910  217.7950 O   0  0  0  0  0  0  0  0  0  0  0  0
  145.5840   72.3830  218.6990 C   0  0  0  0  0  0  0  0  0  0  0  0
  145.5260   71.0270  218.2440 N   0  0  0  0  0  0  0  0  0  0  0  0
  145.0290   69.9230  219.0600 C   0  0  0  0  0  0  0  0  0  0  0  0
  144.9626   70.2405  220.1111 H   0  0  0  0  0  0  0  0  0  0  0  0
  145.9910   68.7350  218.9790 C   0  0  0  0  0  0  0  0  0  0  0  0
  146.2559   68.4078  219.9952 H   0  0  0  0  0  0  0  0  0  0  0  0
  145.5062   67.9066  218.4418 H   0  0  0  0  0  0  0  0  0  0  0  0
  146.9022   69.0370  218.4418 H   0  0  0  0  0  0  0  0  0  0  0  0
  143.6400   69.5230  218.5690 C   0  0  0  0  0  0  0  0  0  0  0  0
  142.9858   69.3346  219.4331 H   0  0  0  0  0  0  0  0  0  0  0  0
  143.2181   70.3362  217.9601 H   0  0  0  0  0  0  0  0  0  0  0  0
  143.7152   68.6100  217.9601 H   0  0  0  0  0  0  0  0  0  0  0  0
  145.3330   72.6350  219.9920 C   0  0  0  0  0  0  0  0  0  0  0  0
  146.1910   72.6884  220.6783 H   0  0  0  0  0  0  0  0  0  0  0  0
  143.9850   72.8460  220.5600 C   0  0  0  0  0  0  0  0  0  0  0  0
  143.2770   71.7490  221.0720 C   0  0  0  0  0  0  0  0  0  0  0  0
  143.7431   70.7527  221.0802 H   0  0  0  0  0  0  0  0  0  0  0  0
  141.9820   71.9150  221.5720 C   0  0  0  0  0  0  0  0  0  0  0  0
  141.4358   71.0478  221.9716 H   0  0  0  0  0  0  0  0  0  0  0  0
  141.3750   73.1770  221.5680 C   0  0  0  0  0  0  0  0  0  0  0  0
  140.0290   73.2960  222.0610 N   0  0  0  0  0  0  0  0  0  0  0  0
  139.3580   72.4000  222.7250 C   0  0  0  0  0  0  0  0  0  0  0  0
  139.8890   71.8870  223.8640 N   0  0  0  0  0  0  0  0  0  0  0  0
  139.2240   70.9670  224.6180 C   0  0  0  0  0  0  0  0  0  0  0  0
  139.8620   70.4350  225.8490 C   0  0  0  0  0  0  0  0  0  0  0  0
  139.9210   69.0440  226.0620 C   0  0  0  0  0  0  0  0  0  0  0  0
  139.4901   68.3591  225.3169 H   0  0  0  0  0  0  0  0  0  0  0  0
  140.5230   68.5270  227.2130 C   0  0  0  0  0  0  0  0  0  0  0  0
  140.5571   67.4392  227.3729 H   0  0  0  0  0  0  0  0  0  0  0  0
  141.0810   69.3880  228.1600 C   0  0  0  0  0  0  0  0  0  0  0  0
  141.5527   68.9787  229.0655 H   0  0  0  0  0  0  0  0  0  0  0  0
  141.0400   70.7690  227.9570 C   0  0  0  0  0  0  0  0  0  0  0  0
  141.4819   71.4463  228.7026 H   0  0  0  0  0  0  0  0  0  0  0  0
  140.4390   71.2930  226.8090 C   0  0  0  0  0  0  0  0  0  0  0  0
  140.4157   72.3816  226.6530 H   0  0  0  0  0  0  0  0  0  0  0  0
  137.9550   70.5370  224.1950 C   0  0  0  0  0  0  0  0  0  0  0  0
  137.3969   69.7850  224.7721 H   0  0  0  0  0  0  0  0  0  0  0  0
  137.4170   71.0810  223.0310 C   0  0  0  0  0  0  0  0  0  0  0  0
  136.4217   70.7647  222.6854 H   0  0  0  0  0  0  0  0  0  0  0  0
  138.1200   72.0010  222.3230 N   0  0  0  0  0  0  0  0  0  0  0  0
  142.0590   74.2650  220.9970 C   0  0  0  0  0  0  0  0  0  0  0  0
  141.5737   75.2508  220.9452 H   0  0  0  0  0  0  0  0  0  0  0  0
  143.3530   74.0990  220.4950 C   0  0  0  0  0  0  0  0  0  0  0  0
  143.8795   74.9544  220.0465 H   0  0  0  0  0  0  0  0  0  0  0  0
  1  2  1  0
  2  3  1  0
  3  4  1  0
  4  5  1  0
  5  6  1  0
  5  7  1  0
  7  8  1  0
  7  9  1  0
  7 10  1  0
  5 11  1  0
 11 12  1  0
 11 13  1  0
 11 14  1  0
  3 15  2  0
 15 16  1  0
 15 17  1  0
 17 18  2  0
 18 19  1  0
 18 20  1  0
 20 21  1  0
 20 22  2  0
 22 23  1  0
 23 24  2  0
 24 25  1  0
 25 26  2  0
 26 27  1  0
 27 28  2  0
 28 29  1  0
 28 30  1  0
 30 31  1  0
 30 32  2  0
 32 33  1  0
 32 34  1  0
 34 35  1  0
 34 36  2  0
 36 37  1  0
 26 38  1  0
 38 39  1  0
 38 40  2  0
 40 41  1  0
 40 42  1  0
 22 43  1  0
 43 44  1  0
 43 45  2  0
 45 46  1  0
 45 17  1  0
 42 24  1  0
 36 27  1  0
M  CHG  2   4  -1  42  -1
M  END
>  <UniqueID>  (70) 
35

>  <SMILES>  (70) 
CC(C)[N-]/C(O)=C/c1ccc(/N=c2/nc(-c3ccccc3)cc[n-]2)cc1

>  <Energy>  (70) 
58.52458763086021

>  <Genealogy>  (70) 
CC(C)[N-]C(=O)Cc1ccc(N=c2nc(-c3ccccc3)cc[n-]2)cc1 (protonated)
CC(C)[N-]C(O)=Cc1ccc(N=c2nc(-c3ccccc3)cc[n-]2)cc1 (tautomer)
CC(C)[N-]/C(O)=C/c1ccc(/N=c2/nc(-c3ccccc3)cc[n-]2)cc1 (cis-trans isomerization)
CC(C)[N-]/C(O)=C/c1ccc(/N=c2/nc(-c3ccccc3)cc[n-]2)cc1 (3D coordinates assigned)
CC(C)[N-]/C(O)=C/c1ccc(/N=c2/nc(-c3ccccc3)cc[n-]2)cc1 (optimized conformer: 58.52458763086021 kcal/mol)

>  <smiles>  (70) 
CC(C)NC(=O)Cc1ccc(N=c2nc(-c3ccccc3)cc[nH]2)cc1

>  <score_type>  (70) 
oracle

>  <origin>  (70) 
autodockgpu

>  <m_score__min__energy>  (70) 
-8.1600000000000001

>  <m_primary>  (70) 
energy

>  <meeko>  (70) 
{"free_energy": -7.68, "intermolecular_energy": -10.06, "internal_energy": -0.99, "cluster_size": 17, "cluster_id": 1, "rank_in_cluster": 17}

>  <energy>  (70) 
-7.98

>  <cluster_rmsd>  (70) 
0.39

>  <rmsd>  (70) 
269.36

>  <cluster>  (70) 
1

$$$$
QCIVYEKZXQJEGX-FPGWWKSRNA-N
     RDKit          3D

 46 48  0  0  0  0  0  0  0  0999 V2000
  146.5730   74.3460  219.3270 H   0  0  0  0  0  0  0  0  0  0  0  0
  146.7010   73.3950  219.0070 O   0  0  0  0  0  0  0  0  0  0  0  0
  145.6640   72.4620  218.9290 C   0  0  0  0  0  0  0  0  0  0  0  0
  145.9450   71.0830  219.1880 N   0  0  0  0  0  0  0  0  0  0  0  0
  145.3680   69.9830  218.4190 C   0  0  0  0  0  0  0  0  0  0  0  0
  144.2773   70.1097  218.3531 H   0  0  0  0  0  0  0  0  0  0  0  0
  145.6530   68.6490  219.1140 C   0  0  0  0  0  0  0  0  0  0  0  0
  145.6229   68.7899  220.2045 H   0  0  0  0  0  0  0  0  0  0  0  0
  144.8921   67.9116  218.8184 H   0  0  0  0  0  0  0  0  0  0  0  0
  146.6488   68.2869  218.8184 H   0  0  0  0  0  0  0  0  0  0  0  0
  145.9600   69.9920  217.0110 C   0  0  0  0  0  0  0  0  0  0  0  0
  147.0580   70.0087  217.0750 H   0  0  0  0  0  0  0  0  0  0  0  0
  145.6378   69.0889  216.4720 H   0  0  0  0  0  0  0  0  0  0  0  0
  145.6105   70.8849  216.4720 H   0  0  0  0  0  0  0  0  0  0  0  0
  144.4000   72.8160  218.6530 C   0  0  0  0  0  0  0  0  0  0  0  0
  144.1670   73.1156  217.6206 H   0  0  0  0  0  0  0  0  0  0  0  0
  143.2980   72.8320  219.6380 C   0  0  0  0  0  0  0  0  0  0  0  0
  142.6960   74.0540  219.9720 C   0  0  0  0  0  0  0  0  0  0  0  0
  143.0222   74.9790  219.4741 H   0  0  0  0  0  0  0  0  0  0  0  0
  141.6830   74.1020  220.9350 C   0  0  0  0  0  0  0  0  0  0  0  0
  141.2172   75.0655  221.1892 H   0  0  0  0  0  0  0  0  0  0  0  0
  141.2570   72.9340  221.5780 C   0  0  0  0  0  0  0  0  0  0  0  0
  140.2370   73.0340  222.5870 N   0  0  0  0  0  0  0  0  0  0  0  0
  139.5630   72.0560  223.1160 C   0  0  0  0  0  0  0  0  0  0  0  0
  140.0420   71.4510  224.2340 N   0  0  0  0  0  0  0  0  0  0  0  0
  139.3680   70.4400  224.8500 C   0  0  0  0  0  0  0  0  0  0  0  0
  139.9500   69.8120  226.0640 C   0  0  0  0  0  0  0  0  0  0  0  0
  140.1210   68.4150  226.1170 C   0  0  0  0  0  0  0  0  0  0  0  0
  139.8192   67.7957  225.2595 H   0  0  0  0  0  0  0  0  0  0  0  0
  140.6710   67.8090  227.2500 C   0  0  0  0  0  0  0  0  0  0  0  0
  140.7937   66.7164  227.2829 H   0  0  0  0  0  0  0  0  0  0  0  0
  141.0650   68.5870  228.3400 C   0  0  0  0  0  0  0  0  0  0  0  0
  141.4960   68.1072  229.2311 H   0  0  0  0  0  0  0  0  0  0  0  0
  140.9120   69.9740  228.2990 C   0  0  0  0  0  0  0  0  0  0  0  0
  141.2255   70.5862  229.1574 H   0  0  0  0  0  0  0  0  0  0  0  0
  140.3610   70.5870  227.1690 C   0  0  0  0  0  0  0  0  0  0  0  0
  140.2473   71.6808  227.1416 H   0  0  0  0  0  0  0  0  0  0  0  0
  138.1470   70.0110  224.3060 C   0  0  0  0  0  0  0  0  0  0  0  0
  137.5846   69.1880  224.7713 H   0  0  0  0  0  0  0  0  0  0  0  0
  137.6610   70.6470  223.1660 C   0  0  0  0  0  0  0  0  0  0  0  0
  136.7032   70.3316  222.7266 H   0  0  0  0  0  0  0  0  0  0  0  0
  138.3690   71.6560  222.5970 N   0  0  0  0  0  0  0  0  0  0  0  0
  141.9050   71.7190  221.2900 C   0  0  0  0  0  0  0  0  0  0  0  0
  141.6131   70.8030  221.8245 H   0  0  0  0  0  0  0  0  0  0  0  0
  142.9180   71.6700  220.3280 C   0  0  0  0  0  0  0  0  0  0  0  0
  143.4201   70.7158  220.1105 H   0  0  0  0  0  0  0  0  0  0  0  0
  1  2  1  0
  2  3  1  0
  3  4  1  0
  4  5  1  0
  5  6  1  0
  5  7  1  0
  7  8  1  0
  7  9  1  0
  7 10  1  0
  5 11  1  0
 11 12  1  0
 11 13  1  0
 11 14  1  0
  3 15  2  0
 15 16  1  0
 15 17  1  0
 17 18  2  0
 18 19  1  0
 18 20  1  0
 20 21  1  0
 20 22  2  0
 22 23  1  0
 23 24  2  0
 24 25  1  0
 25 26  2  0
 26 27  1  0
 27 28  2  0
 28 29  1  0
 28 30  1  0
 30 31  1  0
 30 32  2  0
 32 33  1  0
 32 34  1  0
 34 35  1  0
 34 36  2  0
 36 37  1  0
 26 38  1  0
 38 39  1  0
 38 40  2  0
 40 41  1  0
 40 42  1  0
 22 43  1  0
 43 44  1  0
 43 45  2  0
 45 46  1  0
 45 17  1  0
 42 24  1  0
 36 27  1  0
M  CHG  2   4  -1  42  -1
M  END
>  <UniqueID>  (71) 
35

>  <SMILES>  (71) 
CC(C)[N-]/C(O)=C/c1ccc(/N=c2/nc(-c3ccccc3)cc[n-]2)cc1

>  <Energy>  (71) 
58.52458763086021

>  <Genealogy>  (71) 
CC(C)[N-]C(=O)Cc1ccc(N=c2nc(-c3ccccc3)cc[n-]2)cc1 (protonated)
CC(C)[N-]C(O)=Cc1ccc(N=c2nc(-c3ccccc3)cc[n-]2)cc1 (tautomer)
CC(C)[N-]/C(O)=C/c1ccc(/N=c2/nc(-c3ccccc3)cc[n-]2)cc1 (cis-trans isomerization)
CC(C)[N-]/C(O)=C/c1ccc(/N=c2/nc(-c3ccccc3)cc[n-]2)cc1 (3D coordinates assigned)
CC(C)[N-]/C(O)=C/c1ccc(/N=c2/nc(-c3ccccc3)cc[n-]2)cc1 (optimized conformer: 58.52458763086021 kcal/mol)

>  <smiles>  (71) 
CC(C)NC(=O)Cc1ccc(N=c2nc(-c3ccccc3)cc[nH]2)cc1

>  <score_type>  (71) 
oracle

>  <origin>  (71) 
autodockgpu

>  <m_score__min__energy>  (71) 
-8.1600000000000001

>  <m_primary>  (71) 
energy

>  <meeko>  (71) 
{"free_energy": -7.83, "intermolecular_energy": -10.21, "internal_energy": -0.91, "cluster_size": 17, "cluster_id": 1, "rank_in_cluster": 15}

>  <energy>  (71) 
-7.98

>  <cluster_rmsd>  (71) 
1.16

>  <rmsd>  (71) 
269.37

>  <cluster>  (71) 
1

$$$$
QCIVYEKZXQJEGX-FPGWWKSRNA-N
     RDKit          3D

 46 48  0  0  0  0  0  0  0  0999 V2000
  146.1150   74.3030  217.4780 H   0  0  0  0  0  0  0  0  0  0  0  0
  146.3530   73.3840  217.8260 O   0  0  0  0  0  0  0  0  0  0  0  0
  145.9100   72.8870  219.0560 C   0  0  0  0  0  0  0  0  0  0  0  0
  146.0410   71.4890  219.3320 N   0  0  0  0  0  0  0  0  0  0  0  0
  145.5980   70.4410  218.4180 C   0  0  0  0  0  0  0  0  0  0  0  0
  146.0810   70.5765  217.4391 H   0  0  0  0  0  0  0  0  0  0  0  0
  144.0820   70.5220  218.2170 C   0  0  0  0  0  0  0  0  0  0  0  0
  143.5831   70.5487  219.1970 H   0  0  0  0  0  0  0  0  0  0  0  0
  143.8349   71.4346  217.6548 H   0  0  0  0  0  0  0  0  0  0  0  0
  143.7391   69.6409  217.6548 H   0  0  0  0  0  0  0  0  0  0  0  0
  145.9920   69.0800  218.9880 C   0  0  0  0  0  0  0  0  0  0  0  0
  145.9790   69.1251  220.0870 H   0  0  0  0  0  0  0  0  0  0  0  0
  145.2777   68.3176  218.6438 H   0  0  0  0  0  0  0  0  0  0  0  0
  147.0031   68.8171  218.6438 H   0  0  0  0  0  0  0  0  0  0  0  0
  145.3950   73.6810  220.0060 C   0  0  0  0  0  0  0  0  0  0  0  0
  146.0558   74.4389  220.4521 H   0  0  0  0  0  0  0  0  0  0  0  0
  144.0030   73.6100  220.4960 C   0  0  0  0  0  0  0  0  0  0  0  0
  143.4700   72.3670  220.8690 C   0  0  0  0  0  0  0  0  0  0  0  0
  144.1013   71.4671  220.8282 H   0  0  0  0  0  0  0  0  0  0  0  0
  142.1420   72.2650  221.2920 C   0  0  0  0  0  0  0  0  0  0  0  0
  141.7350   71.2849  221.5816 H   0  0  0  0  0  0  0  0  0  0  0  0
  141.3250   73.4020  221.3500 C   0  0  0  0  0  0  0  0  0  0  0  0
  139.9550   73.2470  221.7580 N   0  0  0  0  0  0  0  0  0  0  0  0
  139.4510   72.2630  222.4450 C   0  0  0  0  0  0  0  0  0  0  0  0
  139.9380   72.0060  223.6870 N   0  0  0  0  0  0  0  0  0  0  0  0
  139.4340   71.0080  224.4650 C   0  0  0  0  0  0  0  0  0  0  0  0
  140.0160   70.7700  225.8110 C   0  0  0  0  0  0  0  0  0  0  0  0
  140.0020   69.4730  226.3600 C   0  0  0  0  0  0  0  0  0  0  0  0
  139.5558   68.6442  225.7909 H   0  0  0  0  0  0  0  0  0  0  0  0
  140.5510   69.2310  227.6230 C   0  0  0  0  0  0  0  0  0  0  0  0
  140.5290   68.2156  228.0455 H   0  0  0  0  0  0  0  0  0  0  0  0
  141.1270   70.2750  228.3490 C   0  0  0  0  0  0  0  0  0  0  0  0
  141.5563   70.0824  229.3433 H   0  0  0  0  0  0  0  0  0  0  0  0
  141.1580   71.5630  227.8130 C   0  0  0  0  0  0  0  0  0  0  0  0
  141.6149   72.3841  228.3849 H   0  0  0  0  0  0  0  0  0  0  0  0
  140.6100   71.8130  226.5510 C   0  0  0  0  0  0  0  0  0  0  0  0
  140.6425   72.8299  226.1328 H   0  0  0  0  0  0  0  0  0  0  0  0
  138.3840   70.2230  223.9620 C   0  0  0  0  0  0  0  0  0  0  0  0
  137.9628   69.4010  224.5595 H   0  0  0  0  0  0  0  0  0  0  0  0
  137.8860   70.5050  222.6920 C   0  0  0  0  0  0  0  0  0  0  0  0
  137.0589   69.9077  222.2809 H   0  0  0  0  0  0  0  0  0  0  0  0
  138.4210   71.5170  221.9610 N   0  0  0  0  0  0  0  0  0  0  0  0
  141.8390   74.6370  220.9160 C   0  0  0  0  0  0  0  0  0  0  0  0
  141.1928   75.5271  220.9102 H   0  0  0  0  0  0  0  0  0  0  0  0
  143.1670   74.7390  220.4920 C   0  0  0  0  0  0  0  0  0  0  0  0
  143.5598   75.7090  220.1532 H   0  0  0  0  0  0  0  0  0  0  0  0
  1  2  1  0
  2  3  1  0
  3  4  1  0
  4  5  1  0
  5  6  1  0
  5  7  1  0
  7  8  1  0
  7  9  1  0
  7 10  1  0
  5 11  1  0
 11 12  1  0
 11 13  1  0
 11 14  1  0
  3 15  2  0
 15 16  1  0
 15 17  1  0
 17 18  2  0
 18 19  1  0
 18 20  1  0
 20 21  1  0
 20 22  2  0
 22 23  1  0
 23 24  2  0
 24 25  1  0
 25 26  2  0
 26 27  1  0
 27 28  2  0
 28 29  1  0
 28 30  1  0
 30 31  1  0
 30 32  2  0
 32 33  1  0
 32 34  1  0
 34 35  1  0
 34 36  2  0
 36 37  1  0
 26 38  1  0
 38 39  1  0
 38 40  2  0
 40 41  1  0
 40 42  1  0
 22 43  1  0
 43 44  1  0
 43 45  2  0
 45 46  1  0
 45 17  1  0
 42 24  1  0
 36 27  1  0
M  CHG  2   4  -1  42  -1
M  END
>  <UniqueID>  (72) 
35

>  <SMILES>  (72) 
CC(C)[N-]/C(O)=C/c1ccc(/N=c2/nc(-c3ccccc3)cc[n-]2)cc1

>  <Energy>  (72) 
58.52458763086021

>  <Genealogy>  (72) 
CC(C)[N-]C(=O)Cc1ccc(N=c2nc(-c3ccccc3)cc[n-]2)cc1 (protonated)
CC(C)[N-]C(O)=Cc1ccc(N=c2nc(-c3ccccc3)cc[n-]2)cc1 (tautomer)
CC(C)[N-]/C(O)=C/c1ccc(/N=c2/nc(-c3ccccc3)cc[n-]2)cc1 (cis-trans isomerization)
CC(C)[N-]/C(O)=C/c1ccc(/N=c2/nc(-c3ccccc3)cc[n-]2)cc1 (3D coordinates assigned)
CC(C)[N-]/C(O)=C/c1ccc(/N=c2/nc(-c3ccccc3)cc[n-]2)cc1 (optimized conformer: 58.52458763086021 kcal/mol)

>  <smiles>  (72) 
CC(C)NC(=O)Cc1ccc(N=c2nc(-c3ccccc3)cc[nH]2)cc1

>  <score_type>  (72) 
oracle

>  <origin>  (72) 
autodockgpu

>  <m_score__min__energy>  (72) 
-8.1600000000000001

>  <m_primary>  (72) 
energy

>  <meeko>  (72) 
{"free_energy": -8.1, "intermolecular_energy": -10.49, "internal_energy": -0.98, "cluster_size": 17, "cluster_id": 1, "rank_in_cluster": 5}

>  <energy>  (72) 
-7.89

>  <cluster_rmsd>  (72) 
0.76

>  <rmsd>  (72) 
269.09

>  <cluster>  (72) 
1

$$$$
QCIVYEKZXQJEGX-FPGWWKSRNA-N
     RDKit          3D

 46 48  0  0  0  0  0  0  0  0999 V2000
  146.9770   74.4920  219.4990 H   0  0  0  0  0  0  0  0  0  0  0  0
  146.7250   73.5130  219.4810 O   0  0  0  0  0  0  0  0  0  0  0  0
  145.6090   73.0180  218.8010 C   0  0  0  0  0  0  0  0  0  0  0  0
  145.6750   71.7190  218.2030 N   0  0  0  0  0  0  0  0  0  0  0  0
  145.1930   70.5050  218.8550 C   0  0  0  0  0  0  0  0  0  0  0  0
  144.8602   70.7419  219.8763 H   0  0  0  0  0  0  0  0  0  0  0  0
  146.3210   69.4730  218.9460 C   0  0  0  0  0  0  0  0  0  0  0  0
  146.5456   69.2675  220.0030 H   0  0  0  0  0  0  0  0  0  0  0  0
  146.0075   68.5425  218.4502 H   0  0  0  0  0  0  0  0  0  0  0  0
  147.2200   69.8678  218.4502 H   0  0  0  0  0  0  0  0  0  0  0  0
  144.0150   69.9430  218.0620 C   0  0  0  0  0  0  0  0  0  0  0  0
  143.2461   69.5762  218.7579 H   0  0  0  0  0  0  0  0  0  0  0  0
  143.5885   70.7346  217.4284 H   0  0  0  0  0  0  0  0  0  0  0  0
  144.3619   69.1134  217.4284 H   0  0  0  0  0  0  0  0  0  0  0  0
  144.4590   73.7030  218.7150 C   0  0  0  0  0  0  0  0  0  0  0  0
  144.3522   74.4201  217.8877 H   0  0  0  0  0  0  0  0  0  0  0  0
  143.3260   73.5630  219.6520 C   0  0  0  0  0  0  0  0  0  0  0  0
  142.5800   74.6980  220.0000 C   0  0  0  0  0  0  0  0  0  0  0  0
  142.8203   75.6708  219.5462 H   0  0  0  0  0  0  0  0  0  0  0  0
  141.5320   74.6000  220.9210 C   0  0  0  0  0  0  0  0  0  0  0  0
  140.9533   75.4969  221.1869 H   0  0  0  0  0  0  0  0  0  0  0  0
  141.2140   73.3690  221.5070 C   0  0  0  0  0  0  0  0  0  0  0  0
  140.1510   73.3200  222.4750 N   0  0  0  0  0  0  0  0  0  0  0  0
  139.5850   72.2540  222.9610 C   0  0  0  0  0  0  0  0  0  0  0  0
  140.0430   71.7390  224.1320 N   0  0  0  0  0  0  0  0  0  0  0  0
  139.4760   70.6420  224.7060 C   0  0  0  0  0  0  0  0  0  0  0  0
  140.0280   70.1190  225.9820 C   0  0  0  0  0  0  0  0  0  0  0  0
  140.0910   68.7300  226.2010 C   0  0  0  0  0  0  0  0  0  0  0  0
  139.7258   68.0386  225.4273 H   0  0  0  0  0  0  0  0  0  0  0  0
  140.6140   68.2220  227.3940 C   0  0  0  0  0  0  0  0  0  0  0  0
  140.6527   67.1349  227.5573 H   0  0  0  0  0  0  0  0  0  0  0  0
  141.0870   69.0910  228.3780 C   0  0  0  0  0  0  0  0  0  0  0  0
  141.4960   68.6889  229.3166 H   0  0  0  0  0  0  0  0  0  0  0  0
  141.0410   70.4710  228.1710 C   0  0  0  0  0  0  0  0  0  0  0  0
  141.4162   71.1549  228.9465 H   0  0  0  0  0  0  0  0  0  0  0  0
  140.5190   70.9860  226.9800 C   0  0  0  0  0  0  0  0  0  0  0  0
  140.4913   72.0741  226.8208 H   0  0  0  0  0  0  0  0  0  0  0  0
  138.3900   70.0260  224.0610 C   0  0  0  0  0  0  0  0  0  0  0  0
  137.9179   69.1299  224.4901 H   0  0  0  0  0  0  0  0  0  0  0  0
  137.9230   70.5720  222.8680 C   0  0  0  0  0  0  0  0  0  0  0  0
  137.0692   70.1112  222.3497 H   0  0  0  0  0  0  0  0  0  0  0  0
  138.5210   71.6730  222.3440 N   0  0  0  0  0  0  0  0  0  0  0  0
  142.0020   72.2430  221.2070 C   0  0  0  0  0  0  0  0  0  0  0  0
  141.7923   71.2812  221.6980 H   0  0  0  0  0  0  0  0  0  0  0  0
  143.0500   72.3410  220.2880 C   0  0  0  0  0  0  0  0  0  0  0  0
  143.6627   71.4560  220.0611 H   0  0  0  0  0  0  0  0  0  0  0  0
  1  2  1  0
  2  3  1  0
  3  4  1  0
  4  5  1  0
  5  6  1  0
  5  7  1  0
  7  8  1  0
  7  9  1  0
  7 10  1  0
  5 11  1  0
 11 12  1  0
 11 13  1  0
 11 14  1  0
  3 15  2  0
 15 16  1  0
 15 17  1  0
 17 18  2  0
 18 19  1  0
 18 20  1  0
 20 21  1  0
 20 22  2  0
 22 23  1  0
 23 24  2  0
 24 25  1  0
 25 26  2  0
 26 27  1  0
 27 28  2  0
 28 29  1  0
 28 30  1  0
 30 31  1  0
 30 32  2  0
 32 33  1  0
 32 34  1  0
 34 35  1  0
 34 36  2  0
 36 37  1  0
 26 38  1  0
 38 39  1  0
 38 40  2  0
 40 41  1  0
 40 42  1  0
 22 43  1  0
 43 44  1  0
 43 45  2  0
 45 46  1  0
 45 17  1  0
 42 24  1  0
 36 27  1  0
M  CHG  2   4  -1  42  -1
M  END
>  <UniqueID>  (73) 
35

>  <SMILES>  (73) 
CC(C)[N-]/C(O)=C/c1ccc(/N=c2/nc(-c3ccccc3)cc[n-]2)cc1

>  <Energy>  (73) 
58.52458763086021

>  <Genealogy>  (73) 
CC(C)[N-]C(=O)Cc1ccc(N=c2nc(-c3ccccc3)cc[n-]2)cc1 (protonated)
CC(C)[N-]C(O)=Cc1ccc(N=c2nc(-c3ccccc3)cc[n-]2)cc1 (tautomer)
CC(C)[N-]/C(O)=C/c1ccc(/N=c2/nc(-c3ccccc3)cc[n-]2)cc1 (cis-trans isomerization)
CC(C)[N-]/C(O)=C/c1ccc(/N=c2/nc(-c3ccccc3)cc[n-]2)cc1 (3D coordinates assigned)
CC(C)[N-]/C(O)=C/c1ccc(/N=c2/nc(-c3ccccc3)cc[n-]2)cc1 (optimized conformer: 58.52458763086021 kcal/mol)

>  <smiles>  (73) 
CC(C)NC(=O)Cc1ccc(N=c2nc(-c3ccccc3)cc[nH]2)cc1

>  <score_type>  (73) 
oracle

>  <origin>  (73) 
autodockgpu

>  <m_score__min__energy>  (73) 
-8.1600000000000001

>  <m_primary>  (73) 
energy

>  <meeko>  (73) 
{"free_energy": -8.05, "intermolecular_energy": -10.44, "internal_energy": -0.9, "cluster_size": 17, "cluster_id": 1, "rank_in_cluster": 6}

>  <energy>  (73) 
-7.89

>  <cluster_rmsd>  (73) 
0.34

>  <rmsd>  (73) 
269.27

>  <cluster>  (73) 
1

$$$$
QCIVYEKZXQJEGX-FPGWWKSRNA-N
     RDKit          3D

 46 48  0  0  0  0  0  0  0  0999 V2000
  145.5800   74.3080  218.0880 H   0  0  0  0  0  0  0  0  0  0  0  0
  145.9450   73.3650  218.0580 O   0  0  0  0  0  0  0  0  0  0  0  0
  145.5750   72.3670  218.9630 C   0  0  0  0  0  0  0  0  0  0  0  0
  145.5940   71.0000  218.5410 N   0  0  0  0  0  0  0  0  0  0  0  0
  145.0450   69.9020  219.3320 C   0  0  0  0  0  0  0  0  0  0  0  0
  145.0337   70.1827  220.3955 H   0  0  0  0  0  0  0  0  0  0  0  0
  145.9170   68.6530  219.1770 C   0  0  0  0  0  0  0  0  0  0  0  0
  146.1859   68.2678  220.1716 H   0  0  0  0  0  0  0  0  0  0  0  0
  145.3594   67.8828  218.6240 H   0  0  0  0  0  0  0  0  0  0  0  0
  146.8322   68.9111  218.6240 H   0  0  0  0  0  0  0  0  0  0  0  0
  143.6160   69.6190  218.8720 C   0  0  0  0  0  0  0  0  0  0  0  0
  142.9667   69.4904  219.7505 H   0  0  0  0  0  0  0  0  0  0  0  0
  143.2517   70.4624  218.2671 H   0  0  0  0  0  0  0  0  0  0  0  0
  143.6007   68.7004  218.2671 H   0  0  0  0  0  0  0  0  0  0  0  0
  145.2350   72.6390  220.2320 C   0  0  0  0  0  0  0  0  0  0  0  0
  146.0152   72.5458  221.0018 H   0  0  0  0  0  0  0  0  0  0  0  0
  143.8860   73.0550  220.6680 C   0  0  0  0  0  0  0  0  0  0  0  0
  143.0060   72.0940  221.1870 C   0  0  0  0  0  0  0  0  0  0  0  0
  143.3385   71.0514  221.2987 H   0  0  0  0  0  0  0  0  0  0  0  0
  141.7090   72.4540  221.5630 C   0  0  0  0  0  0  0  0  0  0  0  0
  141.0269   71.6920  221.9682 H   0  0  0  0  0  0  0  0  0  0  0  0
  141.2710   73.7770  221.4280 C   0  0  0  0  0  0  0  0  0  0  0  0
  139.9180   74.0960  221.7960 N   0  0  0  0  0  0  0  0  0  0  0  0
  139.4470   75.2700  222.1040 C   0  0  0  0  0  0  0  0  0  0  0  0
  140.3020   76.3220  222.1900 N   0  0  0  0  0  0  0  0  0  0  0  0
  139.8670   77.5800  222.4810 C   0  0  0  0  0  0  0  0  0  0  0  0
  140.8520   78.6880  222.5720 C   0  0  0  0  0  0  0  0  0  0  0  0
  141.4480   78.9960  223.8100 C   0  0  0  0  0  0  0  0  0  0  0  0
  141.1773   78.4169  224.7052 H   0  0  0  0  0  0  0  0  0  0  0  0
  142.3810   80.0320  223.9100 C   0  0  0  0  0  0  0  0  0  0  0  0
  142.8369   80.2672  224.8830 H   0  0  0  0  0  0  0  0  0  0  0  0
  142.7360   80.7690  222.7790 C   0  0  0  0  0  0  0  0  0  0  0  0
  143.4674   81.5864  222.8620 H   0  0  0  0  0  0  0  0  0  0  0  0
  142.1620   80.4680  221.5420 C   0  0  0  0  0  0  0  0  0  0  0  0
  142.4461   81.0456  220.6500 H   0  0  0  0  0  0  0  0  0  0  0  0
  141.2270   79.4340  221.4350 C   0  0  0  0  0  0  0  0  0  0  0  0
  140.7806   79.2005  220.4571 H   0  0  0  0  0  0  0  0  0  0  0  0
  138.4960   77.7870  222.7040 C   0  0  0  0  0  0  0  0  0  0  0  0
  138.1138   78.7872  222.9559 H   0  0  0  0  0  0  0  0  0  0  0  0
  137.6290   76.7010  222.6000 C   0  0  0  0  0  0  0  0  0  0  0  0
  136.5501   76.8415  222.7620 H   0  0  0  0  0  0  0  0  0  0  0  0
  138.1150   75.4700  222.2990 N   0  0  0  0  0  0  0  0  0  0  0  0
  142.1310   74.7280  220.8500 C   0  0  0  0  0  0  0  0  0  0  0  0
  141.7817   75.7594  220.6947 H   0  0  0  0  0  0  0  0  0  0  0  0
  143.4280   74.3680  220.4720 C   0  0  0  0  0  0  0  0  0  0  0  0
  144.0934   75.1174  220.0185 H   0  0  0  0  0  0  0  0  0  0  0  0
  1  2  1  0
  2  3  1  0
  3  4  1  0
  4  5  1  0
  5  6  1  0
  5  7  1  0
  7  8  1  0
  7  9  1  0
  7 10  1  0
  5 11  1  0
 11 12  1  0
 11 13  1  0
 11 14  1  0
  3 15  2  0
 15 16  1  0
 15 17  1  0
 17 18  2  0
 18 19  1  0
 18 20  1  0
 20 21  1  0
 20 22  2  0
 22 23  1  0
 23 24  2  0
 24 25  1  0
 25 26  2  0
 26 27  1  0
 27 28  2  0
 28 29  1  0
 28 30  1  0
 30 31  1  0
 30 32  2  0
 32 33  1  0
 32 34  1  0
 34 35  1  0
 34 36  2  0
 36 37  1  0
 26 38  1  0
 38 39  1  0
 38 40  2  0
 40 41  1  0
 40 42  1  0
 22 43  1  0
 43 44  1  0
 43 45  2  0
 45 46  1  0
 45 17  1  0
 42 24  1  0
 36 27  1  0
M  CHG  2   4  -1  42  -1
M  END
>  <UniqueID>  (74) 
35

>  <SMILES>  (74) 
CC(C)[N-]/C(O)=C/c1ccc(/N=c2/nc(-c3ccccc3)cc[n-]2)cc1

>  <Energy>  (74) 
58.52458763086021

>  <Genealogy>  (74) 
CC(C)[N-]C(=O)Cc1ccc(N=c2nc(-c3ccccc3)cc[n-]2)cc1 (protonated)
CC(C)[N-]C(O)=Cc1ccc(N=c2nc(-c3ccccc3)cc[n-]2)cc1 (tautomer)
CC(C)[N-]/C(O)=C/c1ccc(/N=c2/nc(-c3ccccc3)cc[n-]2)cc1 (cis-trans isomerization)
CC(C)[N-]/C(O)=C/c1ccc(/N=c2/nc(-c3ccccc3)cc[n-]2)cc1 (3D coordinates assigned)
CC(C)[N-]/C(O)=C/c1ccc(/N=c2/nc(-c3ccccc3)cc[n-]2)cc1 (optimized conformer: 58.52458763086021 kcal/mol)

>  <smiles>  (74) 
CC(C)NC(=O)Cc1ccc(N=c2nc(-c3ccccc3)cc[nH]2)cc1

>  <score_type>  (74) 
oracle

>  <origin>  (74) 
autodockgpu

>  <m_score__min__energy>  (74) 
-8.1600000000000001

>  <m_primary>  (74) 
energy

>  <meeko>  (74) 
{"free_energy": -7.68, "intermolecular_energy": -10.07, "internal_energy": -0.91, "cluster_size": 3, "cluster_id": 2, "rank_in_cluster": 2}

>  <energy>  (74) 
-7.85

>  <cluster_rmsd>  (74) 
1.17

>  <rmsd>  (74) 
269.26

>  <cluster>  (74) 
1

$$$$
QCIVYEKZXQJEGX-FPGWWKSRNA-N
     RDKit          3D

 46 48  0  0  0  0  0  0  0  0999 V2000
  146.1740   71.9000  221.3690 H   0  0  0  0  0  0  0  0  0  0  0  0
  146.5160   72.5500  220.6740 O   0  0  0  0  0  0  0  0  0  0  0  0
  145.7510   72.9910  219.5900 C   0  0  0  0  0  0  0  0  0  0  0  0
  145.9440   72.3880  218.3070 N   0  0  0  0  0  0  0  0  0  0  0  0
  145.4490   71.0590  217.9570 C   0  0  0  0  0  0  0  0  0  0  0  0
  145.8279   70.7730  216.9647 H   0  0  0  0  0  0  0  0  0  0  0  0
  143.9190   71.0650  217.9010 C   0  0  0  0  0  0  0  0  0  0  0  0
  143.5147   71.0666  218.9240 H   0  0  0  0  0  0  0  0  0  0  0  0
  143.5751   71.9645  217.3694 H   0  0  0  0  0  0  0  0  0  0  0  0
  143.5680   70.1682  217.3694 H   0  0  0  0  0  0  0  0  0  0  0  0
  145.9440   70.0510  218.9930 C   0  0  0  0  0  0  0  0  0  0  0  0
  145.7528   70.4403  220.0039 H   0  0  0  0  0  0  0  0  0  0  0  0
  145.4116   69.0976  218.8605 H   0  0  0  0  0  0  0  0  0  0  0  0
  147.0240   69.8894  218.8605 H   0  0  0  0  0  0  0  0  0  0  0  0
  144.8120   73.9420  219.7150 C   0  0  0  0  0  0  0  0  0  0  0  0
  145.0417   74.9421  219.3187 H   0  0  0  0  0  0  0  0  0  0  0  0
  143.4920   73.7410  220.3470 C   0  0  0  0  0  0  0  0  0  0  0  0
  142.6900   74.8560  220.6280 C   0  0  0  0  0  0  0  0  0  0  0  0
  143.0324   75.8619  220.3436 H   0  0  0  0  0  0  0  0  0  0  0  0
  141.4570   74.6960  221.2680 C   0  0  0  0  0  0  0  0  0  0  0  0
  140.8356   75.5777  221.4834 H   0  0  0  0  0  0  0  0  0  0  0  0
  141.0070   73.4220  221.6370 C   0  0  0  0  0  0  0  0  0  0  0  0
  139.7490   73.3080  222.3230 N   0  0  0  0  0  0  0  0  0  0  0  0
  139.2490   72.2350  222.8650 C   0  0  0  0  0  0  0  0  0  0  0  0
  139.7770   71.7750  224.0280 N   0  0  0  0  0  0  0  0  0  0  0  0
  139.2800   70.6730  224.6570 C   0  0  0  0  0  0  0  0  0  0  0  0
  139.9080   70.2120  225.9220 C   0  0  0  0  0  0  0  0  0  0  0  0
  140.4680   71.1520  226.8090 C   0  0  0  0  0  0  0  0  0  0  0  0
  140.4415   72.2225  226.5574 H   0  0  0  0  0  0  0  0  0  0  0  0
  141.0570   70.7360  228.0060 C   0  0  0  0  0  0  0  0  0  0  0  0
  141.4965   71.4785  228.6883 H   0  0  0  0  0  0  0  0  0  0  0  0
  141.0890   69.3800  228.3380 C   0  0  0  0  0  0  0  0  0  0  0  0
  141.5562   69.0550  229.2793 H   0  0  0  0  0  0  0  0  0  0  0  0
  140.5280   68.4370  227.4750 C   0  0  0  0  0  0  0  0  0  0  0  0
  140.5507   67.3694  227.7390 H   0  0  0  0  0  0  0  0  0  0  0  0
  139.9370   68.8470  226.2750 C   0  0  0  0  0  0  0  0  0  0  0  0
  139.4918   68.0993  225.6021 H   0  0  0  0  0  0  0  0  0  0  0  0
  138.1940   69.9960  224.0790 C   0  0  0  0  0  0  0  0  0  0  0  0
  137.7775   69.0958  224.5545 H   0  0  0  0  0  0  0  0  0  0  0  0
  137.6540   70.4860  222.8920 C   0  0  0  0  0  0  0  0  0  0  0  0
  136.7983   69.9762  222.4254 H   0  0  0  0  0  0  0  0  0  0  0  0
  138.1840   71.5930  222.3110 N   0  0  0  0  0  0  0  0  0  0  0  0
  141.8390   72.3110  221.4130 C   0  0  0  0  0  0  0  0  0  0  0  0
  141.5181   71.3117  221.7422 H   0  0  0  0  0  0  0  0  0  0  0  0
  143.0720   72.4700  220.7740 C   0  0  0  0  0  0  0  0  0  0  0  0
  143.7171   71.5953  220.6045 H   0  0  0  0  0  0  0  0  0  0  0  0
  1  2  1  0
  2  3  1  0
  3  4  1  0
  4  5  1  0
  5  6  1  0
  5  7  1  0
  7  8  1  0
  7  9  1  0
  7 10  1  0
  5 11  1  0
 11 12  1  0
 11 13  1  0
 11 14  1  0
  3 15  2  0
 15 16  1  0
 15 17  1  0
 17 18  2  0
 18 19  1  0
 18 20  1  0
 20 21  1  0
 20 22  2  0
 22 23  1  0
 23 24  2  0
 24 25  1  0
 25 26  2  0
 26 27  1  0
 27 28  2  0
 28 29  1  0
 28 30  1  0
 30 31  1  0
 30 32  2  0
 32 33  1  0
 32 34  1  0
 34 35  1  0
 34 36  2  0
 36 37  1  0
 26 38  1  0
 38 39  1  0
 38 40  2  0
 40 41  1  0
 40 42  1  0
 22 43  1  0
 43 44  1  0
 43 45  2  0
 45 46  1  0
 45 17  1  0
 42 24  1  0
 36 27  1  0
M  CHG  2   4  -1  42  -1
M  END
>  <UniqueID>  (75) 
35

>  <SMILES>  (75) 
CC(C)[N-]/C(O)=C/c1ccc(/N=c2/nc(-c3ccccc3)cc[n-]2)cc1

>  <Energy>  (75) 
58.52458763086021

>  <Genealogy>  (75) 
CC(C)[N-]C(=O)Cc1ccc(N=c2nc(-c3ccccc3)cc[n-]2)cc1 (protonated)
CC(C)[N-]C(O)=Cc1ccc(N=c2nc(-c3ccccc3)cc[n-]2)cc1 (tautomer)
CC(C)[N-]/C(O)=C/c1ccc(/N=c2/nc(-c3ccccc3)cc[n-]2)cc1 (cis-trans isomerization)
CC(C)[N-]/C(O)=C/c1ccc(/N=c2/nc(-c3ccccc3)cc[n-]2)cc1 (3D coordinates assigned)
CC(C)[N-]/C(O)=C/c1ccc(/N=c2/nc(-c3ccccc3)cc[n-]2)cc1 (optimized conformer: 58.52458763086021 kcal/mol)

>  <smiles>  (75) 
CC(C)NC(=O)Cc1ccc(N=c2nc(-c3ccccc3)cc[nH]2)cc1

>  <score_type>  (75) 
oracle

>  <origin>  (75) 
autodockgpu

>  <m_score__min__energy>  (75) 
-8.1600000000000001

>  <m_primary>  (75) 
energy

>  <meeko>  (75) 
{"free_energy": -7.98, "intermolecular_energy": -10.36, "internal_energy": -1.01, "cluster_size": 17, "cluster_id": 1, "rank_in_cluster": 11}

>  <energy>  (75) 
-7.83

>  <cluster_rmsd>  (75) 
0.88

>  <rmsd>  (75) 
269.18

>  <cluster>  (75) 
1

$$$$
QCIVYEKZXQJEGX-FPGWWKSRNA-N
     RDKit          3D

 46 48  0  0  0  0  0  0  0  0999 V2000
  145.8730   71.9180  221.3120 H   0  0  0  0  0  0  0  0  0  0  0  0
  146.3490   72.3090  220.5100 O   0  0  0  0  0  0  0  0  0  0  0  0
  145.6980   72.6700  219.3270 C   0  0  0  0  0  0  0  0  0  0  0  0
  145.8440   71.8420  218.1690 N   0  0  0  0  0  0  0  0  0  0  0  0
  145.3920   70.4550  218.1050 C   0  0  0  0  0  0  0  0  0  0  0  0
  145.4306   70.1011  217.0642 H   0  0  0  0  0  0  0  0  0  0  0  0
  143.9440   70.3500  218.5920 C   0  0  0  0  0  0  0  0  0  0  0  0
  143.9262   70.3487  219.6919 H   0  0  0  0  0  0  0  0  0  0  0  0
  143.3678   71.2087  218.2170 H   0  0  0  0  0  0  0  0  0  0  0  0
  143.4978   69.4171  218.2170 H   0  0  0  0  0  0  0  0  0  0  0  0
  146.3110   69.5890  218.9640 C   0  0  0  0  0  0  0  0  0  0  0  0
  146.1071   69.7811  220.0277 H   0  0  0  0  0  0  0  0  0  0  0  0
  146.1280   68.5274  218.7415 H   0  0  0  0  0  0  0  0  0  0  0  0
  147.3599   69.8347  218.7415 H   0  0  0  0  0  0  0  0  0  0  0  0
  144.9080   73.7510  219.2440 C   0  0  0  0  0  0  0  0  0  0  0  0
  145.2533   74.5900  218.6221 H   0  0  0  0  0  0  0  0  0  0  0  0
  143.6070   73.8940  219.9290 C   0  0  0  0  0  0  0  0  0  0  0  0
  143.0380   75.1700  220.0600 C   0  0  0  0  0  0  0  0  0  0  0  0
  143.5443   76.0425  219.6214 H   0  0  0  0  0  0  0  0  0  0  0  0
  141.8310   75.3380  220.7450 C   0  0  0  0  0  0  0  0  0  0  0  0
  141.3944   76.3429  220.8427 H   0  0  0  0  0  0  0  0  0  0  0  0
  141.1730   74.2370  221.3080 C   0  0  0  0  0  0  0  0  0  0  0  0
  139.9510   74.4610  222.0320 N   0  0  0  0  0  0  0  0  0  0  0  0
  139.3700   75.6040  222.2510 C   0  0  0  0  0  0  0  0  0  0  0  0
  140.1360   76.6960  222.5080 N   0  0  0  0  0  0  0  0  0  0  0  0
  139.5890   77.9260  222.7190 C   0  0  0  0  0  0  0  0  0  0  0  0
  140.4790   79.0800  223.0060 C   0  0  0  0  0  0  0  0  0  0  0  0
  141.7710   78.8570  223.5200 C   0  0  0  0  0  0  0  0  0  0  0  0
  142.1123   77.8288  223.7105 H   0  0  0  0  0  0  0  0  0  0  0  0
  142.6230   79.9310  223.7900 C   0  0  0  0  0  0  0  0  0  0  0  0
  143.6282   79.7455  224.1964 H   0  0  0  0  0  0  0  0  0  0  0  0
  142.2010   81.2390  223.5450 C   0  0  0  0  0  0  0  0  0  0  0  0
  142.8726   82.0830  223.7610 H   0  0  0  0  0  0  0  0  0  0  0  0
  140.9270   81.4760  223.0260 C   0  0  0  0  0  0  0  0  0  0  0  0
  140.5970   82.5070  222.8305 H   0  0  0  0  0  0  0  0  0  0  0  0
  140.0690   80.4050  222.7540 C   0  0  0  0  0  0  0  0  0  0  0  0
  139.0680   80.5981  222.3408 H   0  0  0  0  0  0  0  0  0  0  0  0
  138.1920   78.0610  222.6720 C   0  0  0  0  0  0  0  0  0  0  0  0
  137.7172   79.0371  222.8504 H   0  0  0  0  0  0  0  0  0  0  0  0
  137.4180   76.9350  222.3950 C   0  0  0  0  0  0  0  0  0  0  0  0
  136.3223   77.0190  222.3458 H   0  0  0  0  0  0  0  0  0  0  0  0
  138.0170   75.7350  222.1860 N   0  0  0  0  0  0  0  0  0  0  0  0
  141.7740   72.9680  221.2320 C   0  0  0  0  0  0  0  0  0  0  0  0
  141.2913   72.1041  221.7123 H   0  0  0  0  0  0  0  0  0  0  0  0
  142.9820   72.7990  220.5490 C   0  0  0  0  0  0  0  0  0  0  0  0
  143.4459   71.8030  220.4967 H   0  0  0  0  0  0  0  0  0  0  0  0
  1  2  1  0
  2  3  1  0
  3  4  1  0
  4  5  1  0
  5  6  1  0
  5  7  1  0
  7  8  1  0
  7  9  1  0
  7 10  1  0
  5 11  1  0
 11 12  1  0
 11 13  1  0
 11 14  1  0
  3 15  2  0
 15 16  1  0
 15 17  1  0
 17 18  2  0
 18 19  1  0
 18 20  1  0
 20 21  1  0
 20 22  2  0
 22 23  1  0
 23 24  2  0
 24 25  1  0
 25 26  2  0
 26 27  1  0
 27 28  2  0
 28 29  1  0
 28 30  1  0
 30 31  1  0
 30 32  2  0
 32 33  1  0
 32 34  1  0
 34 35  1  0
 34 36  2  0
 36 37  1  0
 26 38  1  0
 38 39  1  0
 38 40  2  0
 40 41  1  0
 40 42  1  0
 22 43  1  0
 43 44  1  0
 43 45  2  0
 45 46  1  0
 45 17  1  0
 42 24  1  0
 36 27  1  0
M  CHG  2   4  -1  42  -1
M  END
>  <UniqueID>  (76) 
35

>  <SMILES>  (76) 
CC(C)[N-]/C(O)=C/c1ccc(/N=c2/nc(-c3ccccc3)cc[n-]2)cc1

>  <Energy>  (76) 
58.52458763086021

>  <Genealogy>  (76) 
CC(C)[N-]C(=O)Cc1ccc(N=c2nc(-c3ccccc3)cc[n-]2)cc1 (protonated)
CC(C)[N-]C(O)=Cc1ccc(N=c2nc(-c3ccccc3)cc[n-]2)cc1 (tautomer)
CC(C)[N-]/C(O)=C/c1ccc(/N=c2/nc(-c3ccccc3)cc[n-]2)cc1 (cis-trans isomerization)
CC(C)[N-]/C(O)=C/c1ccc(/N=c2/nc(-c3ccccc3)cc[n-]2)cc1 (3D coordinates assigned)
CC(C)[N-]/C(O)=C/c1ccc(/N=c2/nc(-c3ccccc3)cc[n-]2)cc1 (optimized conformer: 58.52458763086021 kcal/mol)

>  <smiles>  (76) 
CC(C)NC(=O)Cc1ccc(N=c2nc(-c3ccccc3)cc[nH]2)cc1

>  <score_type>  (76) 
oracle

>  <origin>  (76) 
autodockgpu

>  <m_score__min__energy>  (76) 
-8.1600000000000001

>  <m_primary>  (76) 
energy

>  <meeko>  (76) 
{"free_energy": -7.66, "intermolecular_energy": -10.04, "internal_energy": -0.94, "cluster_size": 3, "cluster_id": 2, "rank_in_cluster": 3}

>  <energy>  (76) 
-7.74

>  <cluster_rmsd>  (76) 
0.81

>  <rmsd>  (76) 
269.04

>  <cluster>  (76) 
1

$$$$
QCIVYEKZXQJEGX-FPGWWKSRNA-N
     RDKit          3D

 46 48  0  0  0  0  0  0  0  0999 V2000
  146.1910   74.3400  217.4830 H   0  0  0  0  0  0  0  0  0  0  0  0
  146.2970   73.3790  217.7780 O   0  0  0  0  0  0  0  0  0  0  0  0
  145.8310   72.8940  219.0040 C   0  0  0  0  0  0  0  0  0  0  0  0
  145.9790   71.5020  219.3050 N   0  0  0  0  0  0  0  0  0  0  0  0
  145.5690   70.4320  218.4010 C   0  0  0  0  0  0  0  0  0  0  0  0
  146.0725   70.5550  217.4308 H   0  0  0  0  0  0  0  0  0  0  0  0
  144.0570   70.4910  218.1660 C   0  0  0  0  0  0  0  0  0  0  0  0
  143.5359   70.5113  219.1345 H   0  0  0  0  0  0  0  0  0  0  0  0
  143.8095   71.3995  217.5973 H   0  0  0  0  0  0  0  0  0  0  0  0
  143.7395   69.6046  217.5973 H   0  0  0  0  0  0  0  0  0  0  0  0
  145.9650   69.0860  219.0060 C   0  0  0  0  0  0  0  0  0  0  0  0
  145.9441   69.1569  220.1035 H   0  0  0  0  0  0  0  0  0  0  0  0
  145.2563   68.3125  218.6750 H   0  0  0  0  0  0  0  0  0  0  0  0
  146.9796   68.8195  218.6750 H   0  0  0  0  0  0  0  0  0  0  0  0
  145.2780   73.6930  219.9280 C   0  0  0  0  0  0  0  0  0  0  0  0
  145.8963   74.5051  220.3381 H   0  0  0  0  0  0  0  0  0  0  0  0
  143.8960   73.5590  220.4340 C   0  0  0  0  0  0  0  0  0  0  0  0
  143.1050   74.7080  220.5770 C   0  0  0  0  0  0  0  0  0  0  0  0
  143.5049   75.6880  220.2775 H   0  0  0  0  0  0  0  0  0  0  0  0
  141.8110   74.6150  221.0980 C   0  0  0  0  0  0  0  0  0  0  0  0
  141.1995   75.5230  221.2058 H   0  0  0  0  0  0  0  0  0  0  0  0
  141.2870   73.3740  221.4840 C   0  0  0  0  0  0  0  0  0  0  0  0
  139.9650   73.3280  222.0460 N   0  0  0  0  0  0  0  0  0  0  0  0
  139.4090   72.3220  222.6550 C   0  0  0  0  0  0  0  0  0  0  0  0
  139.9140   71.9100  223.8460 N   0  0  0  0  0  0  0  0  0  0  0  0
  139.3600   70.8800  224.5450 C   0  0  0  0  0  0  0  0  0  0  0  0
  139.9640   70.4680  225.8380 C   0  0  0  0  0  0  0  0  0  0  0  0
  140.4630   71.4450  226.7200 C   0  0  0  0  0  0  0  0  0  0  0  0
  140.4063   72.5085  226.4446 H   0  0  0  0  0  0  0  0  0  0  0  0
  141.0300   71.0750  227.9430 C   0  0  0  0  0  0  0  0  0  0  0  0
  141.4227   71.8466  228.6216 H   0  0  0  0  0  0  0  0  0  0  0  0
  141.0990   69.7290  228.3050 C   0  0  0  0  0  0  0  0  0  0  0  0
  141.5474   69.4404  229.2671 H   0  0  0  0  0  0  0  0  0  0  0  0
  140.5990   68.7490  227.4460 C   0  0  0  0  0  0  0  0  0  0  0  0
  140.6517   67.6886  227.7337 H   0  0  0  0  0  0  0  0  0  0  0  0
  140.0310   69.1120  226.2200 C   0  0  0  0  0  0  0  0  0  0  0  0
  139.6343   68.3351  225.5499 H   0  0  0  0  0  0  0  0  0  0  0  0
  138.2370   70.2260  224.0100 C   0  0  0  0  0  0  0  0  0  0  0  0
  137.7735   69.3821  224.5420 H   0  0  0  0  0  0  0  0  0  0  0  0
  137.7220   70.6670  222.7930 C   0  0  0  0  0  0  0  0  0  0  0  0
  136.8394   70.1747  222.3587 H   0  0  0  0  0  0  0  0  0  0  0  0
  138.3090   71.7040  222.1430 N   0  0  0  0  0  0  0  0  0  0  0  0
  142.1030   72.2310  221.4000 C   0  0  0  0  0  0  0  0  0  0  0  0
  141.7206   71.2588  221.7445 H   0  0  0  0  0  0  0  0  0  0  0  0
  143.3970   72.3250  220.8810 C   0  0  0  0  0  0  0  0  0  0  0  0
  144.0288   71.4265  220.8222 H   0  0  0  0  0  0  0  0  0  0  0  0
  1  2  1  0
  2  3  1  0
  3  4  1  0
  4  5  1  0
  5  6  1  0
  5  7  1  0
  7  8  1  0
  7  9  1  0
  7 10  1  0
  5 11  1  0
 11 12  1  0
 11 13  1  0
 11 14  1  0
  3 15  2  0
 15 16  1  0
 15 17  1  0
 17 18  2  0
 18 19  1  0
 18 20  1  0
 20 21  1  0
 20 22  2  0
 22 23  1  0
 23 24  2  0
 24 25  1  0
 25 26  2  0
 26 27  1  0
 27 28  2  0
 28 29  1  0
 28 30  1  0
 30 31  1  0
 30 32  2  0
 32 33  1  0
 32 34  1  0
 34 35  1  0
 34 36  2  0
 36 37  1  0
 26 38  1  0
 38 39  1  0
 38 40  2  0
 40 41  1  0
 40 42  1  0
 22 43  1  0
 43 44  1  0
 43 45  2  0
 45 46  1  0
 45 17  1  0
 42 24  1  0
 36 27  1  0
M  CHG  2   4  -1  42  -1
M  END
>  <UniqueID>  (77) 
35

>  <SMILES>  (77) 
CC(C)[N-]/C(O)=C/c1ccc(/N=c2/nc(-c3ccccc3)cc[n-]2)cc1

>  <Energy>  (77) 
58.52458763086021

>  <Genealogy>  (77) 
CC(C)[N-]C(=O)Cc1ccc(N=c2nc(-c3ccccc3)cc[n-]2)cc1 (protonated)
CC(C)[N-]C(O)=Cc1ccc(N=c2nc(-c3ccccc3)cc[n-]2)cc1 (tautomer)
CC(C)[N-]/C(O)=C/c1ccc(/N=c2/nc(-c3ccccc3)cc[n-]2)cc1 (cis-trans isomerization)
CC(C)[N-]/C(O)=C/c1ccc(/N=c2/nc(-c3ccccc3)cc[n-]2)cc1 (3D coordinates assigned)
CC(C)[N-]/C(O)=C/c1ccc(/N=c2/nc(-c3ccccc3)cc[n-]2)cc1 (optimized conformer: 58.52458763086021 kcal/mol)

>  <smiles>  (77) 
CC(C)NC(=O)Cc1ccc(N=c2nc(-c3ccccc3)cc[nH]2)cc1

>  <score_type>  (77) 
oracle

>  <origin>  (77) 
autodockgpu

>  <m_score__min__energy>  (77) 
-8.1600000000000001

>  <m_primary>  (77) 
energy

>  <meeko>  (77) 
{"free_energy": -8.16, "intermolecular_energy": -10.55, "internal_energy": -0.97, "cluster_size": 17, "cluster_id": 1, "rank_in_cluster": 1}

>  <energy>  (77) 
-7.68

>  <cluster_rmsd>  (77) 
0.58

>  <rmsd>  (77) 
269.15

>  <cluster>  (77) 
1

$$$$
QCIVYEKZXQJEGX-FPGWWKSRNA-N
     RDKit          3D

 46 48  0  0  0  0  0  0  0  0999 V2000
  147.0550   74.4250  219.5210 H   0  0  0  0  0  0  0  0  0  0  0  0
  146.7130   73.4740  219.5590 O   0  0  0  0  0  0  0  0  0  0  0  0
  145.5810   73.0340  218.8670 C   0  0  0  0  0  0  0  0  0  0  0  0
  145.5960   71.7400  218.2560 N   0  0  0  0  0  0  0  0  0  0  0  0
  145.1730   70.5210  218.9380 C   0  0  0  0  0  0  0  0  0  0  0  0
  144.8805   70.7581  219.9716 H   0  0  0  0  0  0  0  0  0  0  0  0
  146.3280   69.5170  218.9860 C   0  0  0  0  0  0  0  0  0  0  0  0
  146.5801   69.2979  220.0341 H   0  0  0  0  0  0  0  0  0  0  0  0
  146.0276   68.5881  218.4792 H   0  0  0  0  0  0  0  0  0  0  0  0
  147.2061   69.9437  218.4792 H   0  0  0  0  0  0  0  0  0  0  0  0
  143.9750   69.9250  218.2010 C   0  0  0  0  0  0  0  0  0  0  0  0
  143.2395   69.5591  218.9325 H   0  0  0  0  0  0  0  0  0  0  0  0
  143.5114   70.6975  217.5699 H   0  0  0  0  0  0  0  0  0  0  0  0
  144.3115   69.0893  217.5699 H   0  0  0  0  0  0  0  0  0  0  0  0
  144.4620   73.7690  218.7820 C   0  0  0  0  0  0  0  0  0  0  0  0
  144.3739   74.4699  217.9388 H   0  0  0  0  0  0  0  0  0  0  0  0
  143.3400   73.7040  219.7400 C   0  0  0  0  0  0  0  0  0  0  0  0
  142.8980   72.4530  220.1950 C   0  0  0  0  0  0  0  0  0  0  0  0
  143.4116   71.5382  219.8643 H   0  0  0  0  0  0  0  0  0  0  0  0
  141.8090   72.3620  221.0660 C   0  0  0  0  0  0  0  0  0  0  0  0
  141.4715   71.3755  221.4166 H   0  0  0  0  0  0  0  0  0  0  0  0
  141.1440   73.5170  221.4960 C   0  0  0  0  0  0  0  0  0  0  0  0
  140.0070   73.3750  222.3650 N   0  0  0  0  0  0  0  0  0  0  0  0
  139.5320   72.2680  222.8570 C   0  0  0  0  0  0  0  0  0  0  0  0
  139.9890   71.8280  224.0570 N   0  0  0  0  0  0  0  0  0  0  0  0
  139.5120   70.6910  224.6370 C   0  0  0  0  0  0  0  0  0  0  0  0
  140.0600   70.2560  225.9470 C   0  0  0  0  0  0  0  0  0  0  0  0
  140.1020   68.8860  226.2690 C   0  0  0  0  0  0  0  0  0  0  0  0
  139.7239   68.1448  225.5495 H   0  0  0  0  0  0  0  0  0  0  0  0
  140.6200   68.4600  227.4950 C   0  0  0  0  0  0  0  0  0  0  0  0
  140.6431   67.3874  227.7379 H   0  0  0  0  0  0  0  0  0  0  0  0
  141.1080   69.3920  228.4120 C   0  0  0  0  0  0  0  0  0  0  0  0
  141.5124   69.0538  229.3775 H   0  0  0  0  0  0  0  0  0  0  0  0
  141.0830   70.7540  228.1040 C   0  0  0  0  0  0  0  0  0  0  0  0
  141.4713   71.4874  228.8260 H   0  0  0  0  0  0  0  0  0  0  0  0
  140.5650   71.1870  226.8790 C   0  0  0  0  0  0  0  0  0  0  0  0
  140.5513   72.2608  226.6406 H   0  0  0  0  0  0  0  0  0  0  0  0
  138.5230   69.9540  223.9650 C   0  0  0  0  0  0  0  0  0  0  0  0
  138.1262   69.0239  224.3979 H   0  0  0  0  0  0  0  0  0  0  0  0
  138.0540   70.4230  222.7400 C   0  0  0  0  0  0  0  0  0  0  0  0
  137.2740   69.8660  222.2003 H   0  0  0  0  0  0  0  0  0  0  0  0
  138.5590   71.5670  222.2120 N   0  0  0  0  0  0  0  0  0  0  0  0
  141.5460   74.7670  220.9910 C   0  0  0  0  0  0  0  0  0  0  0  0
  141.0012   75.6767  221.2835 H   0  0  0  0  0  0  0  0  0  0  0  0
  142.6350   74.8580  220.1190 C   0  0  0  0  0  0  0  0  0  0  0  0
  142.9414   75.8392  219.7275 H   0  0  0  0  0  0  0  0  0  0  0  0
  1  2  1  0
  2  3  1  0
  3  4  1  0
  4  5  1  0
  5  6  1  0
  5  7  1  0
  7  8  1  0
  7  9  1  0
  7 10  1  0
  5 11  1  0
 11 12  1  0
 11 13  1  0
 11 14  1  0
  3 15  2  0
 15 16  1  0
 15 17  1  0
 17 18  2  0
 18 19  1  0
 18 20  1  0
 20 21  1  0
 20 22  2  0
 22 23  1  0
 23 24  2  0
 24 25  1  0
 25 26  2  0
 26 27  1  0
 27 28  2  0
 28 29  1  0
 28 30  1  0
 30 31  1  0
 30 32  2  0
 32 33  1  0
 32 34  1  0
 34 35  1  0
 34 36  2  0
 36 37  1  0
 26 38  1  0
 38 39  1  0
 38 40  2  0
 40 41  1  0
 40 42  1  0
 22 43  1  0
 43 44  1  0
 43 45  2  0
 45 46  1  0
 45 17  1  0
 42 24  1  0
 36 27  1  0
M  CHG  2   4  -1  42  -1
M  END
>  <UniqueID>  (78) 
35

>  <SMILES>  (78) 
CC(C)[N-]/C(O)=C/c1ccc(/N=c2/nc(-c3ccccc3)cc[n-]2)cc1

>  <Energy>  (78) 
58.52458763086021

>  <Genealogy>  (78) 
CC(C)[N-]C(=O)Cc1ccc(N=c2nc(-c3ccccc3)cc[n-]2)cc1 (protonated)
CC(C)[N-]C(O)=Cc1ccc(N=c2nc(-c3ccccc3)cc[n-]2)cc1 (tautomer)
CC(C)[N-]/C(O)=C/c1ccc(/N=c2/nc(-c3ccccc3)cc[n-]2)cc1 (cis-trans isomerization)
CC(C)[N-]/C(O)=C/c1ccc(/N=c2/nc(-c3ccccc3)cc[n-]2)cc1 (3D coordinates assigned)
CC(C)[N-]/C(O)=C/c1ccc(/N=c2/nc(-c3ccccc3)cc[n-]2)cc1 (optimized conformer: 58.52458763086021 kcal/mol)

>  <smiles>  (78) 
CC(C)NC(=O)Cc1ccc(N=c2nc(-c3ccccc3)cc[nH]2)cc1

>  <score_type>  (78) 
oracle

>  <origin>  (78) 
autodockgpu

>  <m_score__min__energy>  (78) 
-8.1600000000000001

>  <m_primary>  (78) 
energy

>  <meeko>  (78) 
{"free_energy": -8.12, "intermolecular_energy": -10.5, "internal_energy": -0.92, "cluster_size": 17, "cluster_id": 1, "rank_in_cluster": 4}

>  <energy>  (78) 
-7.78

>  <cluster_rmsd>  (78) 
0.0

>  <rmsd>  (78) 
269.36

>  <cluster>  (78) 
2

$$$$
QCIVYEKZXQJEGX-FPGWWKSRNA-N
     RDKit          3D

 46 48  0  0  0  0  0  0  0  0999 V2000
  145.8800   74.3050  217.9360 H   0  0  0  0  0  0  0  0  0  0  0  0
  146.2220   73.3720  218.1200 O   0  0  0  0  0  0  0  0  0  0  0  0
  145.9260   72.6580  219.2850 C   0  0  0  0  0  0  0  0  0  0  0  0
  146.2560   71.2680  219.3550 N   0  0  0  0  0  0  0  0  0  0  0  0
  145.6600   70.2520  218.4930 C   0  0  0  0  0  0  0  0  0  0  0  0
  146.3262   70.0537  217.6404 H   0  0  0  0  0  0  0  0  0  0  0  0
  144.3180   70.7470  217.9460 C   0  0  0  0  0  0  0  0  0  0  0  0
  143.6491   70.9937  218.7837 H   0  0  0  0  0  0  0  0  0  0  0  0
  144.4813   71.6441  217.3307 H   0  0  0  0  0  0  0  0  0  0  0  0
  143.8596   69.9588  217.3307 H   0  0  0  0  0  0  0  0  0  0  0  0
  145.4720   68.9640  219.2920 C   0  0  0  0  0  0  0  0  0  0  0  0
  145.5052   69.1916  220.3677 H   0  0  0  0  0  0  0  0  0  0  0  0
  144.4990   68.5161  219.0419 H   0  0  0  0  0  0  0  0  0  0  0  0
  146.2764   68.2566  219.0419 H   0  0  0  0  0  0  0  0  0  0  0  0
  145.3720   73.2390  220.3600 C   0  0  0  0  0  0  0  0  0  0  0  0
  146.0326   73.8076  221.0310 H   0  0  0  0  0  0  0  0  0  0  0  0
  143.9380   73.1690  220.7060 C   0  0  0  0  0  0  0  0  0  0  0  0
  143.2010   74.3580  220.8180 C   0  0  0  0  0  0  0  0  0  0  0  0
  143.6862   75.3236  220.6127 H   0  0  0  0  0  0  0  0  0  0  0  0
  141.8540   74.3220  221.1890 C   0  0  0  0  0  0  0  0  0  0  0  0
  141.2858   75.2601  221.2736 H   0  0  0  0  0  0  0  0  0  0  0  0
  141.2220   73.1000  221.4540 C   0  0  0  0  0  0  0  0  0  0  0  0
  139.8440   73.1120  221.8660 N   0  0  0  0  0  0  0  0  0  0  0  0
  139.2410   72.2240  222.6010 C   0  0  0  0  0  0  0  0  0  0  0  0
  139.8210   71.8230  223.7620 N   0  0  0  0  0  0  0  0  0  0  0  0
  139.2260   70.9180  224.5880 C   0  0  0  0  0  0  0  0  0  0  0  0
  139.9160   70.5110  225.8390 C   0  0  0  0  0  0  0  0  0  0  0  0
  140.4290   71.4930  226.7070 C   0  0  0  0  0  0  0  0  0  0  0  0
  140.3201   72.5572  226.4511 H   0  0  0  0  0  0  0  0  0  0  0  0
  141.0760   71.1280  227.8920 C   0  0  0  0  0  0  0  0  0  0  0  0
  141.4784   71.9042  228.5595 H   0  0  0  0  0  0  0  0  0  0  0  0
  141.2120   69.7800  228.2290 C   0  0  0  0  0  0  0  0  0  0  0  0
  141.7239   69.4946  229.1599 H   0  0  0  0  0  0  0  0  0  0  0  0
  140.6980   68.7940  227.3840 C   0  0  0  0  0  0  0  0  0  0  0  0
  140.8022   67.7324  227.6526 H   0  0  0  0  0  0  0  0  0  0  0  0
  140.0510   69.1530  226.1970 C   0  0  0  0  0  0  0  0  0  0  0  0
  139.6447   68.3713  225.5383 H   0  0  0  0  0  0  0  0  0  0  0  0
  137.9800   70.3830  224.2210 C   0  0  0  0  0  0  0  0  0  0  0  0
  137.4793   69.6393  224.8583 H   0  0  0  0  0  0  0  0  0  0  0  0
  137.3910   70.8130  223.0340 C   0  0  0  0  0  0  0  0  0  0  0  0
  136.4120   70.4138  222.7303 H   0  0  0  0  0  0  0  0  0  0  0  0
  138.0240   71.7240  222.2520 N   0  0  0  0  0  0  0  0  0  0  0  0
  141.9760   71.9140  221.4040 C   0  0  0  0  0  0  0  0  0  0  0  0
  141.5030   70.9538  221.6575 H   0  0  0  0  0  0  0  0  0  0  0  0
  143.3230   71.9490  221.0340 C   0  0  0  0  0  0  0  0  0  0  0  0
  143.9051   71.0163  220.9993 H   0  0  0  0  0  0  0  0  0  0  0  0
  1  2  1  0
  2  3  1  0
  3  4  1  0
  4  5  1  0
  5  6  1  0
  5  7  1  0
  7  8  1  0
  7  9  1  0
  7 10  1  0
  5 11  1  0
 11 12  1  0
 11 13  1  0
 11 14  1  0
  3 15  2  0
 15 16  1  0
 15 17  1  0
 17 18  2  0
 18 19  1  0
 18 20  1  0
 20 21  1  0
 20 22  2  0
 22 23  1  0
 23 24  2  0
 24 25  1  0
 25 26  2  0
 26 27  1  0
 27 28  2  0
 28 29  1  0
 28 30  1  0
 30 31  1  0
 30 32  2  0
 32 33  1  0
 32 34  1  0
 34 35  1  0
 34 36  2  0
 36 37  1  0
 26 38  1  0
 38 39  1  0
 38 40  2  0
 40 41  1  0
 40 42  1  0
 22 43  1  0
 43 44  1  0
 43 45  2  0
 45 46  1  0
 45 17  1  0
 42 24  1  0
 36 27  1  0
M  CHG  2   4  -1  42  -1
M  END
>  <UniqueID>  (79) 
35

>  <SMILES>  (79) 
CC(C)[N-]/C(O)=C/c1ccc(/N=c2/nc(-c3ccccc3)cc[n-]2)cc1

>  <Energy>  (79) 
58.52458763086021

>  <Genealogy>  (79) 
CC(C)[N-]C(=O)Cc1ccc(N=c2nc(-c3ccccc3)cc[n-]2)cc1 (protonated)
CC(C)[N-]C(O)=Cc1ccc(N=c2nc(-c3ccccc3)cc[n-]2)cc1 (tautomer)
CC(C)[N-]/C(O)=C/c1ccc(/N=c2/nc(-c3ccccc3)cc[n-]2)cc1 (cis-trans isomerization)
CC(C)[N-]/C(O)=C/c1ccc(/N=c2/nc(-c3ccccc3)cc[n-]2)cc1 (3D coordinates assigned)
CC(C)[N-]/C(O)=C/c1ccc(/N=c2/nc(-c3ccccc3)cc[n-]2)cc1 (optimized conformer: 58.52458763086021 kcal/mol)

>  <smiles>  (79) 
CC(C)NC(=O)Cc1ccc(N=c2nc(-c3ccccc3)cc[nH]2)cc1

>  <score_type>  (79) 
oracle

>  <origin>  (79) 
autodockgpu

>  <m_score__min__energy>  (79) 
-8.1600000000000001

>  <m_primary>  (79) 
energy

>  <meeko>  (79) 
{"free_energy": -7.89, "intermolecular_energy": -10.28, "internal_energy": -1.06, "cluster_size": 17, "cluster_id": 1, "rank_in_cluster": 13}

>  <energy>  (79) 
-7.68

>  <cluster_rmsd>  (79) 
0.77

>  <rmsd>  (79) 
269.31

>  <cluster>  (79) 
2

$$$$
QCIVYEKZXQJEGX-FPGWWKSRNA-N
     RDKit          3D

 46 48  0  0  0  0  0  0  0  0999 V2000
  146.9100   74.3190  219.5790 H   0  0  0  0  0  0  0  0  0  0  0  0
  146.6910   73.3610  219.3420 O   0  0  0  0  0  0  0  0  0  0  0  0
  145.5680   72.9900  218.5970 C   0  0  0  0  0  0  0  0  0  0  0  0
  145.5850   71.7530  217.8770 N   0  0  0  0  0  0  0  0  0  0  0  0
  145.9270   70.4700  218.4850 C   0  0  0  0  0  0  0  0  0  0  0  0
  146.7829   70.5983  219.1639 H   0  0  0  0  0  0  0  0  0  0  0  0
  146.3230   69.4640  217.4010 C   0  0  0  0  0  0  0  0  0  0  0  0
  146.6868   68.5398  217.8738 H   0  0  0  0  0  0  0  0  0  0  0  0
  145.4476   69.2357  216.7752 H   0  0  0  0  0  0  0  0  0  0  0  0
  147.1191   69.8937  216.7752 H   0  0  0  0  0  0  0  0  0  0  0  0
  144.7290   69.9580  219.2810 C   0  0  0  0  0  0  0  0  0  0  0  0
  144.9385   70.0475  220.3572 H   0  0  0  0  0  0  0  0  0  0  0  0
  143.8397   70.5547  219.0297 H   0  0  0  0  0  0  0  0  0  0  0  0
  144.5457   68.9029  219.0297 H   0  0  0  0  0  0  0  0  0  0  0  0
  144.4540   73.7370  218.5570 C   0  0  0  0  0  0  0  0  0  0  0  0
  144.3755   74.4954  217.7642 H   0  0  0  0  0  0  0  0  0  0  0  0
  143.3260   73.6130  219.5020 C   0  0  0  0  0  0  0  0  0  0  0  0
  142.7820   74.7720  220.0760 C   0  0  0  0  0  0  0  0  0  0  0  0
  143.1740   75.7594  219.7907 H   0  0  0  0  0  0  0  0  0  0  0  0
  141.7450   74.6790  221.0080 C   0  0  0  0  0  0  0  0  0  0  0  0
  141.3257   75.5945  221.4508 H   0  0  0  0  0  0  0  0  0  0  0  0
  141.2350   73.4290  221.3830 C   0  0  0  0  0  0  0  0  0  0  0  0
  140.1920   73.3780  222.3700 N   0  0  0  0  0  0  0  0  0  0  0  0
  139.6330   72.3100  222.8630 C   0  0  0  0  0  0  0  0  0  0  0  0
  140.0840   71.8140  224.0440 N   0  0  0  0  0  0  0  0  0  0  0  0
  139.5220   70.7160  224.6240 C   0  0  0  0  0  0  0  0  0  0  0  0
  140.0660   70.2150  225.9120 C   0  0  0  0  0  0  0  0  0  0  0  0
  140.1130   68.8300  226.1610 C   0  0  0  0  0  0  0  0  0  0  0  0
  139.7419   68.1266  225.4011 H   0  0  0  0  0  0  0  0  0  0  0  0
  140.6270   68.3410  227.3650 C   0  0  0  0  0  0  0  0  0  0  0  0
  140.6527   67.2572  227.5512 H   0  0  0  0  0  0  0  0  0  0  0  0
  141.1080   69.2260  228.3320 C   0  0  0  0  0  0  0  0  0  0  0  0
  141.5099   68.8392  229.2801 H   0  0  0  0  0  0  0  0  0  0  0  0
  141.0790   70.6010  228.0960 C   0  0  0  0  0  0  0  0  0  0  0  0
  141.4612   71.2966  228.8576 H   0  0  0  0  0  0  0  0  0  0  0  0
  140.5650   71.0970  226.8930 C   0  0  0  0  0  0  0  0  0  0  0  0
  140.5500   72.1818  226.7111 H   0  0  0  0  0  0  0  0  0  0  0  0
  138.4520   70.0810  223.9740 C   0  0  0  0  0  0  0  0  0  0  0  0
  137.9855   69.1842  224.4078 H   0  0  0  0  0  0  0  0  0  0  0  0
  137.9920   70.6080  222.7690 C   0  0  0  0  0  0  0  0  0  0  0  0
  137.1493   70.1314  222.2468 H   0  0  0  0  0  0  0  0  0  0  0  0
  138.5830   71.7090  222.2390 N   0  0  0  0  0  0  0  0  0  0  0  0
  141.8230   72.2650  220.8560 C   0  0  0  0  0  0  0  0  0  0  0  0
  141.4641   71.2766  221.1790 H   0  0  0  0  0  0  0  0  0  0  0  0
  142.8610   72.3570  219.9240 C   0  0  0  0  0  0  0  0  0  0  0  0
  143.3157   71.4408  219.5192 H   0  0  0  0  0  0  0  0  0  0  0  0
  1  2  1  0
  2  3  1  0
  3  4  1  0
  4  5  1  0
  5  6  1  0
  5  7  1  0
  7  8  1  0
  7  9  1  0
  7 10  1  0
  5 11  1  0
 11 12  1  0
 11 13  1  0
 11 14  1  0
  3 15  2  0
 15 16  1  0
 15 17  1  0
 17 18  2  0
 18 19  1  0
 18 20  1  0
 20 21  1  0
 20 22  2  0
 22 23  1  0
 23 24  2  0
 24 25  1  0
 25 26  2  0
 26 27  1  0
 27 28  2  0
 28 29  1  0
 28 30  1  0
 30 31  1  0
 30 32  2  0
 32 33  1  0
 32 34  1  0
 34 35  1  0
 34 36  2  0
 36 37  1  0
 26 38  1  0
 38 39  1  0
 38 40  2  0
 40 41  1  0
 40 42  1  0
 22 43  1  0
 43 44  1  0
 43 45  2  0
 45 46  1  0
 45 17  1  0
 42 24  1  0
 36 27  1  0
M  CHG  2   4  -1  42  -1
M  END
>  <UniqueID>  (80) 
35

>  <SMILES>  (80) 
CC(C)[N-]/C(O)=C/c1ccc(/N=c2/nc(-c3ccccc3)cc[n-]2)cc1

>  <Energy>  (80) 
58.52458763086021

>  <Genealogy>  (80) 
CC(C)[N-]C(=O)Cc1ccc(N=c2nc(-c3ccccc3)cc[n-]2)cc1 (protonated)
CC(C)[N-]C(O)=Cc1ccc(N=c2nc(-c3ccccc3)cc[n-]2)cc1 (tautomer)
CC(C)[N-]/C(O)=C/c1ccc(/N=c2/nc(-c3ccccc3)cc[n-]2)cc1 (cis-trans isomerization)
CC(C)[N-]/C(O)=C/c1ccc(/N=c2/nc(-c3ccccc3)cc[n-]2)cc1 (3D coordinates assigned)
CC(C)[N-]/C(O)=C/c1ccc(/N=c2/nc(-c3ccccc3)cc[n-]2)cc1 (optimized conformer: 58.52458763086021 kcal/mol)

>  <smiles>  (80) 
CC(C)NC(=O)Cc1ccc(N=c2nc(-c3ccccc3)cc[nH]2)cc1

>  <score_type>  (80) 
oracle

>  <origin>  (80) 
autodockgpu

>  <m_score__min__energy>  (80) 
-8.1600000000000001

>  <m_primary>  (80) 
energy

>  <meeko>  (80) 
{"free_energy": -8.02, "intermolecular_energy": -10.41, "internal_energy": -0.86, "cluster_size": 17, "cluster_id": 1, "rank_in_cluster": 7}

>  <energy>  (80) 
-7.66

>  <cluster_rmsd>  (80) 
1.17

>  <rmsd>  (80) 
269.5

>  <cluster>  (80) 
2

$$$$
