
     RDKit          3D

 49 53  0  0  0  0  0  0  0  0999 V2000
  142.6520   76.6890  219.5460 O   0  0  0  0  0  0  0  0  0  0  0  0
  141.8220   76.3570  220.4360 C   0  0  0  0  0  0  0  0  0  0  0  0
  141.3700   77.3900  221.2450 C   0  0  0  0  0  0  0  0  0  0  0  0
  141.8150   78.6860  221.0730 C   0  0  0  0  0  0  0  0  0  0  0  0
  141.3710   79.7210  221.8740 C   0  0  0  0  0  0  0  0  0  0  0  0
  141.8430   80.9730  221.6550 F   0  0  0  0  0  0  0  0  0  0  0  0
  140.4600   79.4220  222.8660 C   0  0  0  0  0  0  0  0  0  0  0  0
  139.9950   78.1440  223.0680 C   0  0  0  0  0  0  0  0  0  0  0  0
  140.4540   77.1240  222.2530 C   0  0  0  0  0  0  0  0  0  0  0  0
  140.0560   75.8560  222.3780 N   0  0  0  0  0  0  0  0  0  0  0  0
  140.5070   74.8620  221.5790 C   0  0  0  0  0  0  0  0  0  0  0  0
  139.9560   73.5330  221.8330 C   0  0  0  0  0  0  0  0  0  0  0  0
  140.7020   72.5730  222.3300 C   0  0  0  0  0  0  0  0  0  0  0  0
  140.2860   71.6610  223.3840 C   0  0  0  0  0  0  0  0  0  0  0  0
  139.4830   70.5600  223.1760 C   0  0  0  0  0  0  0  0  0  0  0  0
  139.1020   69.7220  224.1600 N   0  0  0  0  0  0  0  0  0  0  0  0
  139.5330   69.9820  225.4030 C   0  0  0  0  0  0  0  0  0  0  0  0
  139.1190   69.0940  226.3940 C   0  0  0  0  0  0  0  0  0  0  0  0
  139.5430   69.3230  227.7080 C   0  0  0  0  0  0  0  0  0  0  0  0
  140.3570   70.4110  228.0170 C   0  0  0  0  0  0  0  0  0  0  0  0
  140.7380   71.2550  227.0180 C   0  0  0  0  0  0  0  0  0  0  0  0
  140.3360   71.0540  225.7180 C   0  0  0  0  0  0  0  0  0  0  0  0
  140.7020   71.8860  224.6810 C   0  0  0  0  0  0  0  0  0  0  0  0
  141.3960   75.0780  220.5930 N   0  0  0  0  0  0  0  0  0  0  0  0
  141.9180   74.0290  219.7410 C   0  0  0  0  0  0  0  0  0  0  0  0
  143.3120   73.6490  220.0330 C   0  0  0  0  0  0  0  0  0  0  0  0
  144.2770   74.4920  220.5240 C   0  0  0  0  0  0  0  0  0  0  0  0
  145.5850   74.0710  220.7890 C   0  0  0  0  0  0  0  0  0  0  0  0
  145.9600   72.7660  220.5630 C   0  0  0  0  0  0  0  0  0  0  0  0
  145.0110   71.9100  220.0750 C   0  0  0  0  0  0  0  0  0  0  0  0
  143.7160   72.3250  219.8120 C   0  0  0  0  0  0  0  0  0  0  0  0
  142.5428   78.9004  220.2766 H   0  0  0  0  0  0  0  0  0  0  0  0
  140.0944   80.2311  223.5154 H   0  0  0  0  0  0  0  0  0  0  0  0
  139.2680   77.9351  223.8666 H   0  0  0  0  0  0  0  0  0  0  0  0
  138.8988   73.3330  221.6042 H   0  0  0  0  0  0  0  0  0  0  0  0
  141.7150   72.4497  221.9193 H   0  0  0  0  0  0  0  0  0  0  0  0
  139.1350   70.3547  222.1529 H   0  0  0  0  0  0  0  0  0  0  0  0
  138.4759   68.2356  226.1499 H   0  0  0  0  0  0  0  0  0  0  0  0
  139.2296   68.6352  228.5072 H   0  0  0  0  0  0  0  0  0  0  0  0
  140.6868   70.5856  229.0518 H   0  0  0  0  0  0  0  0  0  0  0  0
  141.3807   72.1154  227.2559 H   0  0  0  0  0  0  0  0  0  0  0  0
  141.3438   72.7538  224.8933 H   0  0  0  0  0  0  0  0  0  0  0  0
  141.2848   73.1380  219.8641 H   0  0  0  0  0  0  0  0  0  0  0  0
  141.9068   74.4222  218.7137 H   0  0  0  0  0  0  0  0  0  0  0  0
  144.0115   75.5418  220.7172 H   0  0  0  0  0  0  0  0  0  0  0  0
  146.3200   74.7893  221.1814 H   0  0  0  0  0  0  0  0  0  0  0  0
  146.9853   72.4239  220.7673 H   0  0  0  0  0  0  0  0  0  0  0  0
  145.2844   70.8614  219.8859 H   0  0  0  0  0  0  0  0  0  0  0  0
  142.9880   71.5991  219.4208 H   0  0  0  0  0  0  0  0  0  0  0  0
  1  2  2  0
  2  3  1  0
  3  4  2  0
  4  5  1  0
  5  6  1  0
  5  7  2  0
  7  8  1  0
  8  9  2  0
  9 10  1  0
 10 11  2  0
 11 12  1  0
 12 13  2  0
 13 14  1  0
 14 15  2  0
 15 16  1  0
 16 17  2  0
 17 18  1  0
 18 19  2  0
 19 20  1  0
 20 21  2  0
 21 22  1  0
 22 23  2  0
 11 24  1  0
 24 25  1  0
 25 26  1  0
 26 27  2  0
 27 28  1  0
 28 29  2  0
 29 30  1  0
 30 31  2  0
 24  2  1  0
 31 26  1  0
  9  3  1  0
 23 14  1  0
 22 17  1  0
  4 32  1  0
  7 33  1  0
  8 34  1  0
 12 35  1  0
 13 36  1  0
 15 37  1  0
 18 38  1  0
 19 39  1  0
 20 40  1  0
 21 41  1  0
 23 42  1  0
 25 43  1  0
 25 44  1  0
 27 45  1  0
 28 46  1  0
 29 47  1  0
 30 48  1  0
 31 49  1  0
M  END
>  <smiles>  (1) 
O=c1c2cc(F)ccc2nc(/C=C/c2cnc3ccccc3c2)n1Cc1ccccc1

>  <score_type>  (1) 
oracle

>  <origin>  (1) 
autodockgpu

>  <m_score__min__energy>  (1) 
-9.6699999999999999

>  <m_primary>  (1) 
energy

>  <meeko>  (1) 
{"free_energy": -9.56, "intermolecular_energy": -11.05, "internal_energy": -1.09, "cluster_size": 12, "cluster_id": 1, "rank_in_cluster": 5}

>  <energy>  (1) 
-9.67

>  <cluster_rmsd>  (1) 
0.0

>  <rmsd>  (1) 
271.49

>  <cluster>  (1) 
1

$$$$

     RDKit          3D

 49 53  0  0  0  0  0  0  0  0999 V2000
  142.7610   76.1260  219.4760 O   0  0  0  0  0  0  0  0  0  0  0  0
  141.8810   75.8420  220.3360 C   0  0  0  0  0  0  0  0  0  0  0  0
  141.3790   76.9200  221.0510 C   0  0  0  0  0  0  0  0  0  0  0  0
  141.8250   78.2070  220.8230 C   0  0  0  0  0  0  0  0  0  0  0  0
  141.3310   79.2860  221.5310 C   0  0  0  0  0  0  0  0  0  0  0  0
  141.8080   80.5260  221.2610 F   0  0  0  0  0  0  0  0  0  0  0  0
  140.3650   79.0420  222.4860 C   0  0  0  0  0  0  0  0  0  0  0  0
  139.8950   77.7740  222.7400 C   0  0  0  0  0  0  0  0  0  0  0  0
  140.4060   76.7100  222.0190 C   0  0  0  0  0  0  0  0  0  0  0  0
  140.0080   75.4490  222.2000 N   0  0  0  0  0  0  0  0  0  0  0  0
  140.5100   74.4110  221.4930 C   0  0  0  0  0  0  0  0  0  0  0  0
  139.9520   73.0960  221.7970 C   0  0  0  0  0  0  0  0  0  0  0  0
  140.6870   72.1580  222.3520 C   0  0  0  0  0  0  0  0  0  0  0  0
  140.3130   71.4030  223.5370 C   0  0  0  0  0  0  0  0  0  0  0  0
  139.5890   70.2310  223.5060 C   0  0  0  0  0  0  0  0  0  0  0  0
  139.2470   69.5390  224.6110 N   0  0  0  0  0  0  0  0  0  0  0  0
  139.6360   70.0280  225.7980 C   0  0  0  0  0  0  0  0  0  0  0  0
  139.2640   69.2860  226.9180 C   0  0  0  0  0  0  0  0  0  0  0  0
  139.6470   69.7540  228.1790 C   0  0  0  0  0  0  0  0  0  0  0  0
  140.3800   70.9320  228.3120 C   0  0  0  0  0  0  0  0  0  0  0  0
  140.7230   71.6260  227.1910 C   0  0  0  0  0  0  0  0  0  0  0  0
  140.3600   71.1890  225.9390 C   0  0  0  0  0  0  0  0  0  0  0  0
  140.6890   71.8650  224.7820 C   0  0  0  0  0  0  0  0  0  0  0  0
  141.4540   74.5720  220.5490 N   0  0  0  0  0  0  0  0  0  0  0  0
  142.0300   73.4770  219.7960 C   0  0  0  0  0  0  0  0  0  0  0  0
  143.4610   73.2460  220.0620 C   0  0  0  0  0  0  0  0  0  0  0  0
  144.2600   74.0400  220.8450 C   0  0  0  0  0  0  0  0  0  0  0  0
  145.6140   73.7660  221.0680 C   0  0  0  0  0  0  0  0  0  0  0  0
  146.2070   72.6630  220.4980 C   0  0  0  0  0  0  0  0  0  0  0  0
  145.4270   71.8570  219.7150 C   0  0  0  0  0  0  0  0  0  0  0  0
  144.0870   72.1280  219.4930 C   0  0  0  0  0  0  0  0  0  0  0  0
  142.5950   78.3780  220.0563 H   0  0  0  0  0  0  0  0  0  0  0  0
  139.9585   79.8867  223.0615 H   0  0  0  0  0  0  0  0  0  0  0  0
  139.1232   77.6087  223.5062 H   0  0  0  0  0  0  0  0  0  0  0  0
  138.8989   72.8869  221.5575 H   0  0  0  0  0  0  0  0  0  0  0  0
  141.6562   71.9273  221.8857 H   0  0  0  0  0  0  0  0  0  0  0  0
  139.2734   69.8394  222.5277 H   0  0  0  0  0  0  0  0  0  0  0  0
  138.6845   68.3570  226.8127 H   0  0  0  0  0  0  0  0  0  0  0  0
  139.3661   69.1850  229.0775 H   0  0  0  0  0  0  0  0  0  0  0  0
  140.6770   71.2957  229.3067 H   0  0  0  0  0  0  0  0  0  0  0  0
  141.3027   72.5557  227.2896 H   0  0  0  0  0  0  0  0  0  0  0  0
  141.2670   72.7981  224.8539 H   0  0  0  0  0  0  0  0  0  0  0  0
  141.4799   72.5584  220.0480 H   0  0  0  0  0  0  0  0  0  0  0  0
  141.9463   73.7467  218.7329 H   0  0  0  0  0  0  0  0  0  0  0  0
  143.8177   74.9295  221.3174 H   0  0  0  0  0  0  0  0  0  0  0  0
  146.2090   74.4378  221.7041 H   0  0  0  0  0  0  0  0  0  0  0  0
  147.2704   72.4374  220.6660 H   0  0  0  0  0  0  0  0  0  0  0  0
  145.8768   70.9683  219.2483 H   0  0  0  0  0  0  0  0  0  0  0  0
  143.5003   71.4503  218.8554 H   0  0  0  0  0  0  0  0  0  0  0  0
  1  2  2  0
  2  3  1  0
  3  4  2  0
  4  5  1  0
  5  6  1  0
  5  7  2  0
  7  8  1  0
  8  9  2  0
  9 10  1  0
 10 11  2  0
 11 12  1  0
 12 13  2  0
 13 14  1  0
 14 15  2  0
 15 16  1  0
 16 17  2  0
 17 18  1  0
 18 19  2  0
 19 20  1  0
 20 21  2  0
 21 22  1  0
 22 23  2  0
 11 24  1  0
 24 25  1  0
 25 26  1  0
 26 27  2  0
 27 28  1  0
 28 29  2  0
 29 30  1  0
 30 31  2  0
 24  2  1  0
 31 26  1  0
  9  3  1  0
 23 14  1  0
 22 17  1  0
  4 32  1  0
  7 33  1  0
  8 34  1  0
 12 35  1  0
 13 36  1  0
 15 37  1  0
 18 38  1  0
 19 39  1  0
 20 40  1  0
 21 41  1  0
 23 42  1  0
 25 43  1  0
 25 44  1  0
 27 45  1  0
 28 46  1  0
 29 47  1  0
 30 48  1  0
 31 49  1  0
M  END
>  <smiles>  (2) 
O=c1c2cc(F)ccc2nc(/C=C/c2cnc3ccccc3c2)n1Cc1ccccc1

>  <score_type>  (2) 
oracle

>  <origin>  (2) 
autodockgpu

>  <m_score__min__energy>  (2) 
-9.6699999999999999

>  <m_primary>  (2) 
energy

>  <meeko>  (2) 
{"free_energy": -9.67, "intermolecular_energy": -11.16, "internal_energy": -1.03, "cluster_size": 12, "cluster_id": 1, "rank_in_cluster": 1}

>  <energy>  (2) 
-9.64

>  <cluster_rmsd>  (2) 
0.15

>  <rmsd>  (2) 
271.55

>  <cluster>  (2) 
1

$$$$

     RDKit          3D

 49 53  0  0  0  0  0  0  0  0999 V2000
  142.6630   76.0550  219.6740 O   0  0  0  0  0  0  0  0  0  0  0  0
  142.3850   74.9540  220.2250 C   0  0  0  0  0  0  0  0  0  0  0  0
  143.3100   73.9390  220.0290 C   0  0  0  0  0  0  0  0  0  0  0  0
  144.4490   74.1390  219.2750 C   0  0  0  0  0  0  0  0  0  0  0  0
  145.3750   73.1330  219.0740 C   0  0  0  0  0  0  0  0  0  0  0  0
  146.4760   73.3910  218.3250 F   0  0  0  0  0  0  0  0  0  0  0  0
  145.1290   71.9050  219.6530 C   0  0  0  0  0  0  0  0  0  0  0  0
  144.0050   71.6690  220.4100 C   0  0  0  0  0  0  0  0  0  0  0  0
  143.0920   72.6910  220.5960 C   0  0  0  0  0  0  0  0  0  0  0  0
  141.9760   72.5500  221.3160 N   0  0  0  0  0  0  0  0  0  0  0  0
  141.0860   73.5520  221.4960 C   0  0  0  0  0  0  0  0  0  0  0  0
  139.9270   73.2400  222.3290 C   0  0  0  0  0  0  0  0  0  0  0  0
  139.5140   72.0020  222.4800 C   0  0  0  0  0  0  0  0  0  0  0  0
  139.6420   71.2290  223.7050 C   0  0  0  0  0  0  0  0  0  0  0  0
  139.1700   69.9430  223.8570 C   0  0  0  0  0  0  0  0  0  0  0  0
  139.2940   69.2360  224.9980 N   0  0  0  0  0  0  0  0  0  0  0  0
  139.9100   69.8260  226.0340 C   0  0  0  0  0  0  0  0  0  0  0  0
  140.0190   69.0640  227.1960 C   0  0  0  0  0  0  0  0  0  0  0  0
  140.6540   69.6350  228.3040 C   0  0  0  0  0  0  0  0  0  0  0  0
  141.1630   70.9310  228.2470 C   0  0  0  0  0  0  0  0  0  0  0  0
  141.0350   71.6410  227.0910 C   0  0  0  0  0  0  0  0  0  0  0  0
  140.4160   71.1040  225.9870 C   0  0  0  0  0  0  0  0  0  0  0  0
  140.2670   71.7920  224.8000 C   0  0  0  0  0  0  0  0  0  0  0  0
  141.2590   74.7740  220.9620 N   0  0  0  0  0  0  0  0  0  0  0  0
  140.3100   75.8580  221.1140 C   0  0  0  0  0  0  0  0  0  0  0  0
  140.8730   77.0730  221.7290 C   0  0  0  0  0  0  0  0  0  0  0  0
  141.0970   77.2520  223.0710 C   0  0  0  0  0  0  0  0  0  0  0  0
  141.6410   78.4290  223.5960 C   0  0  0  0  0  0  0  0  0  0  0  0
  141.9800   79.4740  222.7680 C   0  0  0  0  0  0  0  0  0  0  0  0
  141.7660   79.3150  221.4270 C   0  0  0  0  0  0  0  0  0  0  0  0
  141.2270   78.1500  220.9040 C   0  0  0  0  0  0  0  0  0  0  0  0
  144.6243   75.1259  218.8219 H   0  0  0  0  0  0  0  0  0  0  0  0
  145.8533   71.0905  219.5048 H   0  0  0  0  0  0  0  0  0  0  0  0
  143.8346   70.6805  220.8615 H   0  0  0  0  0  0  0  0  0  0  0  0
  139.3915   74.0549  222.8380 H   0  0  0  0  0  0  0  0  0  0  0  0
  139.0367   71.5148  221.6170 H   0  0  0  0  0  0  0  0  0  0  0  0
  138.6656   69.4686  223.0023 H   0  0  0  0  0  0  0  0  0  0  0  0
  139.6165   68.0412  227.2406 H   0  0  0  0  0  0  0  0  0  0  0  0
  140.7529   69.0534  229.2324 H   0  0  0  0  0  0  0  0  0  0  0  0
  141.6607   71.3742  229.1221 H   0  0  0  0  0  0  0  0  0  0  0  0
  141.4350   72.6644  227.0401 H   0  0  0  0  0  0  0  0  0  0  0  0
  140.6571   72.8177  224.7241 H   0  0  0  0  0  0  0  0  0  0  0  0
  139.9258   76.1222  220.1177 H   0  0  0  0  0  0  0  0  0  0  0  0
  139.5234   75.4962  221.7925 H   0  0  0  0  0  0  0  0  0  0  0  0
  140.8381   76.4365  223.7623 H   0  0  0  0  0  0  0  0  0  0  0  0
  141.7992   78.5198  224.6808 H   0  0  0  0  0  0  0  0  0  0  0  0
  142.4078   80.4041  223.1704 H   0  0  0  0  0  0  0  0  0  0  0  0
  142.0293   80.1355  220.7433 H   0  0  0  0  0  0  0  0  0  0  0  0
  141.0736   78.0686  219.8178 H   0  0  0  0  0  0  0  0  0  0  0  0
  1  2  2  0
  2  3  1  0
  3  4  2  0
  4  5  1  0
  5  6  1  0
  5  7  2  0
  7  8  1  0
  8  9  2  0
  9 10  1  0
 10 11  2  0
 11 12  1  0
 12 13  2  0
 13 14  1  0
 14 15  2  0
 15 16  1  0
 16 17  2  0
 17 18  1  0
 18 19  2  0
 19 20  1  0
 20 21  2  0
 21 22  1  0
 22 23  2  0
 11 24  1  0
 24 25  1  0
 25 26  1  0
 26 27  2  0
 27 28  1  0
 28 29  2  0
 29 30  1  0
 30 31  2  0
 24  2  1  0
 31 26  1  0
  9  3  1  0
 23 14  1  0
 22 17  1  0
  4 32  1  0
  7 33  1  0
  8 34  1  0
 12 35  1  0
 13 36  1  0
 15 37  1  0
 18 38  1  0
 19 39  1  0
 20 40  1  0
 21 41  1  0
 23 42  1  0
 25 43  1  0
 25 44  1  0
 27 45  1  0
 28 46  1  0
 29 47  1  0
 30 48  1  0
 31 49  1  0
M  END
>  <smiles>  (3) 
O=c1c2cc(F)ccc2nc(/C=C/c2cnc3ccccc3c2)n1Cc1ccccc1

>  <score_type>  (3) 
oracle

>  <origin>  (3) 
autodockgpu

>  <m_score__min__energy>  (3) 
-9.6699999999999999

>  <m_primary>  (3) 
energy

>  <meeko>  (3) 
{"free_energy": -9.18, "intermolecular_energy": -10.67, "internal_energy": -1.08, "cluster_size": 1, "cluster_id": 2, "rank_in_cluster": 1}

>  <energy>  (3) 
-9.62

>  <cluster_rmsd>  (3) 
0.18

>  <rmsd>  (3) 
271.46

>  <cluster>  (3) 
1

$$$$

     RDKit          3D

 49 53  0  0  0  0  0  0  0  0999 V2000
  142.6340   76.6860  219.5510 O   0  0  0  0  0  0  0  0  0  0  0  0
  141.8100   76.3460  220.4450 C   0  0  0  0  0  0  0  0  0  0  0  0
  141.3580   77.3750  221.2600 C   0  0  0  0  0  0  0  0  0  0  0  0
  141.7940   78.6740  221.0890 C   0  0  0  0  0  0  0  0  0  0  0  0
  141.3490   79.7030  221.8960 C   0  0  0  0  0  0  0  0  0  0  0  0
  141.8120   80.9590  221.6790 F   0  0  0  0  0  0  0  0  0  0  0  0
  140.4450   79.3960  222.8930 C   0  0  0  0  0  0  0  0  0  0  0  0
  139.9880   78.1140  223.0930 C   0  0  0  0  0  0  0  0  0  0  0  0
  140.4490   77.1000  222.2720 C   0  0  0  0  0  0  0  0  0  0  0  0
  140.0580   75.8300  222.3950 N   0  0  0  0  0  0  0  0  0  0  0  0
  140.5110   74.8410  221.5900 C   0  0  0  0  0  0  0  0  0  0  0  0
  139.9680   73.5080  221.8420 C   0  0  0  0  0  0  0  0  0  0  0  0
  140.7270   72.5460  222.3180 C   0  0  0  0  0  0  0  0  0  0  0  0
  140.3310   71.6220  223.3690 C   0  0  0  0  0  0  0  0  0  0  0  0
  139.5740   70.4910  223.1550 C   0  0  0  0  0  0  0  0  0  0  0  0
  139.2130   69.6410  224.1380 N   0  0  0  0  0  0  0  0  0  0  0  0
  139.6180   69.9220  225.3850 C   0  0  0  0  0  0  0  0  0  0  0  0
  139.2250   69.0220  226.3740 C   0  0  0  0  0  0  0  0  0  0  0  0
  139.6230   69.2710  227.6920 C   0  0  0  0  0  0  0  0  0  0  0  0
  140.3900   70.3910  228.0080 C   0  0  0  0  0  0  0  0  0  0  0  0
  140.7510   71.2460  227.0100 C   0  0  0  0  0  0  0  0  0  0  0  0
  140.3750   71.0250  225.7060 C   0  0  0  0  0  0  0  0  0  0  0  0
  140.7220   71.8670  224.6710 C   0  0  0  0  0  0  0  0  0  0  0  0
  141.3920   75.0640  220.6000 N   0  0  0  0  0  0  0  0  0  0  0  0
  141.9160   74.0220  219.7410 C   0  0  0  0  0  0  0  0  0  0  0  0
  143.3050   73.6310  220.0410 C   0  0  0  0  0  0  0  0  0  0  0  0
  144.2810   74.4730  220.5110 C   0  0  0  0  0  0  0  0  0  0  0  0
  145.5840   74.0430  220.7840 C   0  0  0  0  0  0  0  0  0  0  0  0
  145.9430   72.7290  220.5860 C   0  0  0  0  0  0  0  0  0  0  0  0
  144.9840   71.8740  220.1190 C   0  0  0  0  0  0  0  0  0  0  0  0
  143.6930   72.2980  219.8480 C   0  0  0  0  0  0  0  0  0  0  0  0
  142.5152   78.8954  220.2885 H   0  0  0  0  0  0  0  0  0  0  0  0
  140.0790   80.2009  223.5474 H   0  0  0  0  0  0  0  0  0  0  0  0
  139.2662   77.8980  223.8944 H   0  0  0  0  0  0  0  0  0  0  0  0
  138.9076   73.3064  221.6301 H   0  0  0  0  0  0  0  0  0  0  0  0
  141.7341   72.4316  221.8906 H   0  0  0  0  0  0  0  0  0  0  0  0
  139.2468   70.2695  222.1284 H   0  0  0  0  0  0  0  0  0  0  0  0
  138.6179   68.1392  226.1249 H   0  0  0  0  0  0  0  0  0  0  0  0
  139.3266   68.5736  228.4894 H   0  0  0  0  0  0  0  0  0  0  0  0
  140.6990   70.5818  229.0463 H   0  0  0  0  0  0  0  0  0  0  0  0
  141.3562   72.1319  227.2529 H   0  0  0  0  0  0  0  0  0  0  0  0
  141.3275   72.7593  224.8882 H   0  0  0  0  0  0  0  0  0  0  0  0
  141.2769   73.1331  219.8482 H   0  0  0  0  0  0  0  0  0  0  0  0
  141.9163   74.4270  218.7183 H   0  0  0  0  0  0  0  0  0  0  0  0
  144.0285   75.5302  220.6802 H   0  0  0  0  0  0  0  0  0  0  0  0
  146.3278   74.7609  221.1600 H   0  0  0  0  0  0  0  0  0  0  0  0
  146.9647   72.3795  220.7960 H   0  0  0  0  0  0  0  0  0  0  0  0
  145.2449   70.8183  219.9535 H   0  0  0  0  0  0  0  0  0  0  0  0
  142.9562   71.5723  219.4731 H   0  0  0  0  0  0  0  0  0  0  0  0
  1  2  2  0
  2  3  1  0
  3  4  2  0
  4  5  1  0
  5  6  1  0
  5  7  2  0
  7  8  1  0
  8  9  2  0
  9 10  1  0
 10 11  2  0
 11 12  1  0
 12 13  2  0
 13 14  1  0
 14 15  2  0
 15 16  1  0
 16 17  2  0
 17 18  1  0
 18 19  2  0
 19 20  1  0
 20 21  2  0
 21 22  1  0
 22 23  2  0
 11 24  1  0
 24 25  1  0
 25 26  1  0
 26 27  2  0
 27 28  1  0
 28 29  2  0
 29 30  1  0
 30 31  2  0
 24  2  1  0
 31 26  1  0
  9  3  1  0
 23 14  1  0
 22 17  1  0
  4 32  1  0
  7 33  1  0
  8 34  1  0
 12 35  1  0
 13 36  1  0
 15 37  1  0
 18 38  1  0
 19 39  1  0
 20 40  1  0
 21 41  1  0
 23 42  1  0
 25 43  1  0
 25 44  1  0
 27 45  1  0
 28 46  1  0
 29 47  1  0
 30 48  1  0
 31 49  1  0
M  END
>  <smiles>  (4) 
O=c1c2cc(F)ccc2nc(/C=C/c2cnc3ccccc3c2)n1Cc1ccccc1

>  <score_type>  (4) 
oracle

>  <origin>  (4) 
autodockgpu

>  <m_score__min__energy>  (4) 
-9.6699999999999999

>  <m_primary>  (4) 
energy

>  <meeko>  (4) 
{"free_energy": -9.52, "intermolecular_energy": -11.01, "internal_energy": -1.11, "cluster_size": 12, "cluster_id": 1, "rank_in_cluster": 7}

>  <energy>  (4) 
-9.57

>  <cluster_rmsd>  (4) 
0.48

>  <rmsd>  (4) 
271.5

>  <cluster>  (4) 
1

$$$$

     RDKit          3D

 49 53  0  0  0  0  0  0  0  0999 V2000
  142.5360   75.9810  219.3720 O   0  0  0  0  0  0  0  0  0  0  0  0
  141.7680   75.4440  220.2180 C   0  0  0  0  0  0  0  0  0  0  0  0
  141.0220   76.3240  220.9900 C   0  0  0  0  0  0  0  0  0  0  0  0
  141.1290   77.6910  220.8290 C   0  0  0  0  0  0  0  0  0  0  0  0
  140.3910   78.5750  221.5930 C   0  0  0  0  0  0  0  0  0  0  0  0
  140.5390   79.9070  221.3880 F   0  0  0  0  0  0  0  0  0  0  0  0
  139.5310   78.0490  222.5350 C   0  0  0  0  0  0  0  0  0  0  0  0
  139.3970   76.6920  222.7240 C   0  0  0  0  0  0  0  0  0  0  0  0
  140.1480   75.8280  221.9470 C   0  0  0  0  0  0  0  0  0  0  0  0
  140.0810   74.5000  222.0620 N   0  0  0  0  0  0  0  0  0  0  0  0
  140.8160   73.6580  221.3000 C   0  0  0  0  0  0  0  0  0  0  0  0
  140.6090   72.2310  221.5360 C   0  0  0  0  0  0  0  0  0  0  0  0
  139.6290   71.8050  222.3010 C   0  0  0  0  0  0  0  0  0  0  0  0
  139.8050   71.1620  223.5930 C   0  0  0  0  0  0  0  0  0  0  0  0
  139.4450   69.8580  223.8590 C   0  0  0  0  0  0  0  0  0  0  0  0
  139.6130   69.2720  225.0610 N   0  0  0  0  0  0  0  0  0  0  0  0
  140.1600   70.0050  226.0420 C   0  0  0  0  0  0  0  0  0  0  0  0
  140.3180   69.3650  227.2710 C   0  0  0  0  0  0  0  0  0  0  0  0
  140.8840   70.0890  228.3260 C   0  0  0  0  0  0  0  0  0  0  0  0
  141.2790   71.4140  228.1530 C   0  0  0  0  0  0  0  0  0  0  0  0
  141.1060   72.0010  226.9360 C   0  0  0  0  0  0  0  0  0  0  0  0
  140.5530   71.3140  225.8820 C   0  0  0  0  0  0  0  0  0  0  0  0
  140.3630   71.8740  224.6360 C   0  0  0  0  0  0  0  0  0  0  0  0
  141.6750   74.0970  220.3640 N   0  0  0  0  0  0  0  0  0  0  0  0
  142.4960   73.2210  219.5540 C   0  0  0  0  0  0  0  0  0  0  0  0
  143.9010   73.1340  219.9890 C   0  0  0  0  0  0  0  0  0  0  0  0
  144.7770   72.1350  219.6460 C   0  0  0  0  0  0  0  0  0  0  0  0
  146.1050   72.1100  220.0860 C   0  0  0  0  0  0  0  0  0  0  0  0
  146.5930   73.1090  220.8960 C   0  0  0  0  0  0  0  0  0  0  0  0
  145.7360   74.1150  221.2480 C   0  0  0  0  0  0  0  0  0  0  0  0
  144.4210   74.1420  220.8140 C   0  0  0  0  0  0  0  0  0  0  0  0
  141.8210   78.0876  220.0714 H   0  0  0  0  0  0  0  0  0  0  0  0
  138.9341   78.7350  223.1540 H   0  0  0  0  0  0  0  0  0  0  0  0
  138.7027   76.3002  223.4820 H   0  0  0  0  0  0  0  0  0  0  0  0
  141.2845   71.5013  221.0656 H   0  0  0  0  0  0  0  0  0  0  0  0
  138.6004   71.9452  221.9372 H   0  0  0  0  0  0  0  0  0  0  0  0
  138.9973   69.2649  223.0479 H   0  0  0  0  0  0  0  0  0  0  0  0
  140.0060   68.3190  227.4073 H   0  0  0  0  0  0  0  0  0  0  0  0
  141.0190   69.6058  229.3050 H   0  0  0  0  0  0  0  0  0  0  0  0
  141.7238   71.9774  228.9865 H   0  0  0  0  0  0  0  0  0  0  0  0
  141.4155   73.0470  226.7939 H   0  0  0  0  0  0  0  0  0  0  0  0
  140.6649   72.9184  224.4683 H   0  0  0  0  0  0  0  0  0  0  0  0
  142.0612   72.2112  219.5892 H   0  0  0  0  0  0  0  0  0  0  0  0
  142.5058   73.6468  218.5398 H   0  0  0  0  0  0  0  0  0  0  0  0
  144.4205   71.3203  218.9985 H   0  0  0  0  0  0  0  0  0  0  0  0
  146.7647   71.2841  219.7815 H   0  0  0  0  0  0  0  0  0  0  0  0
  147.6351   73.0991  221.2480 H   0  0  0  0  0  0  0  0  0  0  0  0
  146.1017   74.9263  221.8946 H   0  0  0  0  0  0  0  0  0  0  0  0
  143.7698   74.9728  221.1233 H   0  0  0  0  0  0  0  0  0  0  0  0
  1  2  2  0
  2  3  1  0
  3  4  2  0
  4  5  1  0
  5  6  1  0
  5  7  2  0
  7  8  1  0
  8  9  2  0
  9 10  1  0
 10 11  2  0
 11 12  1  0
 12 13  2  0
 13 14  1  0
 14 15  2  0
 15 16  1  0
 16 17  2  0
 17 18  1  0
 18 19  2  0
 19 20  1  0
 20 21  2  0
 21 22  1  0
 22 23  2  0
 11 24  1  0
 24 25  1  0
 25 26  1  0
 26 27  2  0
 27 28  1  0
 28 29  2  0
 29 30  1  0
 30 31  2  0
 24  2  1  0
 31 26  1  0
  9  3  1  0
 23 14  1  0
 22 17  1  0
  4 32  1  0
  7 33  1  0
  8 34  1  0
 12 35  1  0
 13 36  1  0
 15 37  1  0
 18 38  1  0
 19 39  1  0
 20 40  1  0
 21 41  1  0
 23 42  1  0
 25 43  1  0
 25 44  1  0
 27 45  1  0
 28 46  1  0
 29 47  1  0
 30 48  1  0
 31 49  1  0
M  END
>  <smiles>  (5) 
O=c1c2cc(F)ccc2nc(/C=C/c2cnc3ccccc3c2)n1Cc1ccccc1

>  <score_type>  (5) 
oracle

>  <origin>  (5) 
autodockgpu

>  <m_score__min__energy>  (5) 
-9.6699999999999999

>  <m_primary>  (5) 
energy

>  <meeko>  (5) 
{"free_energy": -9.41, "intermolecular_energy": -10.9, "internal_energy": -1.1, "cluster_size": 12, "cluster_id": 1, "rank_in_cluster": 9}

>  <energy>  (5) 
-9.56

>  <cluster_rmsd>  (5) 
0.49

>  <rmsd>  (5) 
271.51

>  <cluster>  (5) 
1

$$$$

     RDKit          3D

 49 53  0  0  0  0  0  0  0  0999 V2000
  136.4470   76.6810  222.6320 O   0  0  0  0  0  0  0  0  0  0  0  0
  137.4650   75.9540  222.4590 C   0  0  0  0  0  0  0  0  0  0  0  0
  138.6840   76.6170  222.4960 C   0  0  0  0  0  0  0  0  0  0  0  0
  138.7570   77.9790  222.7060 C   0  0  0  0  0  0  0  0  0  0  0  0
  139.9660   78.6470  222.7440 C   0  0  0  0  0  0  0  0  0  0  0  0
  139.9730   79.9870  222.9550 F   0  0  0  0  0  0  0  0  0  0  0  0
  141.1160   77.9070  222.5630 C   0  0  0  0  0  0  0  0  0  0  0  0
  141.0830   76.5480  222.3510 C   0  0  0  0  0  0  0  0  0  0  0  0
  139.8600   75.9020  222.3170 C   0  0  0  0  0  0  0  0  0  0  0  0
  139.7360   74.5880  222.1180 N   0  0  0  0  0  0  0  0  0  0  0  0
  138.5380   73.9600  222.0860 C   0  0  0  0  0  0  0  0  0  0  0  0
  138.5760   72.5140  221.8800 C   0  0  0  0  0  0  0  0  0  0  0  0
  139.6230   71.8050  222.2370 C   0  0  0  0  0  0  0  0  0  0  0  0
  139.7870   71.1610  223.5310 C   0  0  0  0  0  0  0  0  0  0  0  0
  139.4150   69.8610  223.7950 C   0  0  0  0  0  0  0  0  0  0  0  0
  139.5700   69.2730  224.9980 N   0  0  0  0  0  0  0  0  0  0  0  0
  140.1170   70.0030  225.9820 C   0  0  0  0  0  0  0  0  0  0  0  0
  140.2610   69.3620  227.2120 C   0  0  0  0  0  0  0  0  0  0  0  0
  140.8270   70.0820  228.2710 C   0  0  0  0  0  0  0  0  0  0  0  0
  141.2330   71.4040  228.1000 C   0  0  0  0  0  0  0  0  0  0  0  0
  141.0730   71.9920  226.8810 C   0  0  0  0  0  0  0  0  0  0  0  0
  140.5210   71.3080  225.8240 C   0  0  0  0  0  0  0  0  0  0  0  0
  140.3430   71.8700  224.5760 C   0  0  0  0  0  0  0  0  0  0  0  0
  137.3760   74.6150  222.2530 N   0  0  0  0  0  0  0  0  0  0  0  0
  136.0780   73.9750  222.1950 C   0  0  0  0  0  0  0  0  0  0  0  0
  135.4660   73.7260  223.5130 C   0  0  0  0  0  0  0  0  0  0  0  0
  135.0480   74.6950  224.3880 C   0  0  0  0  0  0  0  0  0  0  0  0
  134.4670   74.3970  225.6260 C   0  0  0  0  0  0  0  0  0  0  0  0
  134.2890   73.0900  226.0190 C   0  0  0  0  0  0  0  0  0  0  0  0
  134.6990   72.1090  225.1590 C   0  0  0  0  0  0  0  0  0  0  0  0
  135.2750   72.4020  223.9330 C   0  0  0  0  0  0  0  0  0  0  0  0
  137.8267   78.5488  222.8471 H   0  0  0  0  0  0  0  0  0  0  0  0
  142.0892   78.4191  222.5890 H   0  0  0  0  0  0  0  0  0  0  0  0
  142.0162   75.9828  222.2105 H   0  0  0  0  0  0  0  0  0  0  0  0
  137.7138   72.0106  221.4184 H   0  0  0  0  0  0  0  0  0  0  0  0
  140.4349   71.6900  221.5038 H   0  0  0  0  0  0  0  0  0  0  0  0
  138.9678   69.2717  222.9809 H   0  0  0  0  0  0  0  0  0  0  0  0
  139.9386   68.3189  227.3466 H   0  0  0  0  0  0  0  0  0  0  0  0
  140.9528   69.5978  229.2507 H   0  0  0  0  0  0  0  0  0  0  0  0
  141.6760   71.9646  228.9364 H   0  0  0  0  0  0  0  0  0  0  0  0
  141.3921   73.0352  226.7400 H   0  0  0  0  0  0  0  0  0  0  0  0
  140.6531   72.9122  224.4098 H   0  0  0  0  0  0  0  0  0  0  0  0
  135.4007   74.6209  221.6170 H   0  0  0  0  0  0  0  0  0  0  0  0
  136.2320   72.9911  221.7278 H   0  0  0  0  0  0  0  0  0  0  0  0
  135.1745   75.7505  224.1054 H   0  0  0  0  0  0  0  0  0  0  0  0
  134.1500   75.2143  226.2905 H   0  0  0  0  0  0  0  0  0  0  0  0
  133.8336   72.8435  226.9895 H   0  0  0  0  0  0  0  0  0  0  0  0
  134.5677   71.0561  225.4489 H   0  0  0  0  0  0  0  0  0  0  0  0
  135.5891   71.5781  223.2753 H   0  0  0  0  0  0  0  0  0  0  0  0
  1  2  2  0
  2  3  1  0
  3  4  2  0
  4  5  1  0
  5  6  1  0
  5  7  2  0
  7  8  1  0
  8  9  2  0
  9 10  1  0
 10 11  2  0
 11 12  1  0
 12 13  2  0
 13 14  1  0
 14 15  2  0
 15 16  1  0
 16 17  2  0
 17 18  1  0
 18 19  2  0
 19 20  1  0
 20 21  2  0
 21 22  1  0
 22 23  2  0
 11 24  1  0
 24 25  1  0
 25 26  1  0
 26 27  2  0
 27 28  1  0
 28 29  2  0
 29 30  1  0
 30 31  2  0
 24  2  1  0
 31 26  1  0
  9  3  1  0
 23 14  1  0
 22 17  1  0
  4 32  1  0
  7 33  1  0
  8 34  1  0
 12 35  1  0
 13 36  1  0
 15 37  1  0
 18 38  1  0
 19 39  1  0
 20 40  1  0
 21 41  1  0
 23 42  1  0
 25 43  1  0
 25 44  1  0
 27 45  1  0
 28 46  1  0
 29 47  1  0
 30 48  1  0
 31 49  1  0
M  END
>  <smiles>  (6) 
O=c1c2cc(F)ccc2nc(/C=C/c2cnc3ccccc3c2)n1Cc1ccccc1

>  <score_type>  (6) 
oracle

>  <origin>  (6) 
autodockgpu

>  <m_score__min__energy>  (6) 
-9.6699999999999999

>  <m_primary>  (6) 
energy

>  <meeko>  (6) 
{"free_energy": -8.64, "intermolecular_energy": -10.13, "internal_energy": -1.47, "cluster_size": 2, "cluster_id": 4, "rank_in_cluster": 1}

>  <energy>  (6) 
-9.52

>  <cluster_rmsd>  (6) 
0.19

>  <rmsd>  (6) 
271.51

>  <cluster>  (6) 
1

$$$$

     RDKit          3D

 49 53  0  0  0  0  0  0  0  0999 V2000
  142.6100   76.4220  219.0120 O   0  0  0  0  0  0  0  0  0  0  0  0
  141.9270   75.9980  219.9860 C   0  0  0  0  0  0  0  0  0  0  0  0
  141.3820   76.9790  220.8020 C   0  0  0  0  0  0  0  0  0  0  0  0
  141.5880   78.3210  220.5510 C   0  0  0  0  0  0  0  0  0  0  0  0
  141.0490   79.3040  221.3600 C   0  0  0  0  0  0  0  0  0  0  0  0
  141.2850   80.6050  221.0610 F   0  0  0  0  0  0  0  0  0  0  0  0
  140.2900   78.9050  222.4410 C   0  0  0  0  0  0  0  0  0  0  0  0
  140.0640   77.5770  222.7220 C   0  0  0  0  0  0  0  0  0  0  0  0
  140.6140   76.6110  221.8980 C   0  0  0  0  0  0  0  0  0  0  0  0
  140.4450   75.3020  222.0970 N   0  0  0  0  0  0  0  0  0  0  0  0
  140.9850   74.3610  221.2890 C   0  0  0  0  0  0  0  0  0  0  0  0
  140.6860   72.9720  221.6320 C   0  0  0  0  0  0  0  0  0  0  0  0
  139.7500   72.6750  222.5040 C   0  0  0  0  0  0  0  0  0  0  0  0
  139.8390   71.6040  223.4840 C   0  0  0  0  0  0  0  0  0  0  0  0
  139.4480   70.3050  223.2430 C   0  0  0  0  0  0  0  0  0  0  0  0
  139.5350   69.3210  224.1590 N   0  0  0  0  0  0  0  0  0  0  0  0
  140.0310   69.6330  225.3660 C   0  0  0  0  0  0  0  0  0  0  0  0
  140.1060   68.5900  226.2870 C   0  0  0  0  0  0  0  0  0  0  0  0
  140.6160   68.8660  227.5600 C   0  0  0  0  0  0  0  0  0  0  0  0
  141.0380   70.1510  227.8980 C   0  0  0  0  0  0  0  0  0  0  0  0
  140.9460   71.1410  226.9670 C   0  0  0  0  0  0  0  0  0  0  0  0
  140.4490   70.8980  225.7090 C   0  0  0  0  0  0  0  0  0  0  0  0
  140.3420   71.8750  224.7410 C   0  0  0  0  0  0  0  0  0  0  0  0
  141.7360   74.6740  220.2190 N   0  0  0  0  0  0  0  0  0  0  0  0
  142.3490   73.6890  219.3530 C   0  0  0  0  0  0  0  0  0  0  0  0
  143.7090   73.2900  219.7580 C   0  0  0  0  0  0  0  0  0  0  0  0
  144.3930   72.2030  219.2750 C   0  0  0  0  0  0  0  0  0  0  0  0
  145.6880   71.8770  219.6930 C   0  0  0  0  0  0  0  0  0  0  0  0
  146.3380   72.6530  220.6250 C   0  0  0  0  0  0  0  0  0  0  0  0
  145.6740   73.7420  221.1170 C   0  0  0  0  0  0  0  0  0  0  0  0
  144.3920   74.0660  220.7050 C   0  0  0  0  0  0  0  0  0  0  0  0
  142.1974   78.6159  219.6840 H   0  0  0  0  0  0  0  0  0  0  0  0
  139.8525   79.6713  223.0978 H   0  0  0  0  0  0  0  0  0  0  0  0
  139.4541   77.2872  223.5903 H   0  0  0  0  0  0  0  0  0  0  0  0
  141.2545   72.1619  221.1518 H   0  0  0  0  0  0  0  0  0  0  0  0
  138.8317   73.2804  222.4924 H   0  0  0  0  0  0  0  0  0  0  0  0
  139.0434   70.0584  222.2503 H   0  0  0  0  0  0  0  0  0  0  0  0
  139.7729   67.5762  226.0200 H   0  0  0  0  0  0  0  0  0  0  0  0
  140.6850   68.0587  228.3040 H   0  0  0  0  0  0  0  0  0  0  0  0
  141.4388   70.3620  228.9004 H   0  0  0  0  0  0  0  0  0  0  0  0
  141.2767   72.1572  227.2278 H   0  0  0  0  0  0  0  0  0  0  0  0
  140.6666   72.8991  224.9773 H   0  0  0  0  0  0  0  0  0  0  0  0
  141.7134   72.7912  219.3478 H   0  0  0  0  0  0  0  0  0  0  0  0
  142.4389   74.1539  218.3601 H   0  0  0  0  0  0  0  0  0  0  0  0
  143.9029   71.5611  218.5281 H   0  0  0  0  0  0  0  0  0  0  0  0
  146.1905   70.9932  219.2731 H   0  0  0  0  0  0  0  0  0  0  0  0
  147.3555   72.4059  220.9621 H   0  0  0  0  0  0  0  0  0  0  0  0
  146.1725   74.3796  221.8619 H   0  0  0  0  0  0  0  0  0  0  0  0
  143.8985   74.9523  221.1305 H   0  0  0  0  0  0  0  0  0  0  0  0
  1  2  2  0
  2  3  1  0
  3  4  2  0
  4  5  1  0
  5  6  1  0
  5  7  2  0
  7  8  1  0
  8  9  2  0
  9 10  1  0
 10 11  2  0
 11 12  1  0
 12 13  2  0
 13 14  1  0
 14 15  2  0
 15 16  1  0
 16 17  2  0
 17 18  1  0
 18 19  2  0
 19 20  1  0
 20 21  2  0
 21 22  1  0
 22 23  2  0
 11 24  1  0
 24 25  1  0
 25 26  1  0
 26 27  2  0
 27 28  1  0
 28 29  2  0
 29 30  1  0
 30 31  2  0
 24  2  1  0
 31 26  1  0
  9  3  1  0
 23 14  1  0
 22 17  1  0
  4 32  1  0
  7 33  1  0
  8 34  1  0
 12 35  1  0
 13 36  1  0
 15 37  1  0
 18 38  1  0
 19 39  1  0
 20 40  1  0
 21 41  1  0
 23 42  1  0
 25 43  1  0
 25 44  1  0
 27 45  1  0
 28 46  1  0
 29 47  1  0
 30 48  1  0
 31 49  1  0
M  END
>  <smiles>  (7) 
O=c1c2cc(F)ccc2nc(/C=C/c2cnc3ccccc3c2)n1Cc1ccccc1

>  <score_type>  (7) 
oracle

>  <origin>  (7) 
autodockgpu

>  <m_score__min__energy>  (7) 
-9.6699999999999999

>  <m_primary>  (7) 
energy

>  <meeko>  (7) 
{"free_energy": -9.38, "intermolecular_energy": -10.87, "internal_energy": -1.13, "cluster_size": 12, "cluster_id": 1, "rank_in_cluster": 11}

>  <energy>  (7) 
-9.52

>  <cluster_rmsd>  (7) 
0.49

>  <rmsd>  (7) 
271.52

>  <cluster>  (7) 
1

$$$$

     RDKit          3D

 49 53  0  0  0  0  0  0  0  0999 V2000
  141.5000   70.9550  221.2000 O   0  0  0  0  0  0  0  0  0  0  0  0
  141.4870   72.2180  221.2170 C   0  0  0  0  0  0  0  0  0  0  0  0
  142.6580   72.8320  220.7950 C   0  0  0  0  0  0  0  0  0  0  0  0
  143.7520   72.0940  220.3920 C   0  0  0  0  0  0  0  0  0  0  0  0
  144.9230   72.6970  219.9710 C   0  0  0  0  0  0  0  0  0  0  0  0
  145.9640   71.9190  219.5850 F   0  0  0  0  0  0  0  0  0  0  0  0
  144.9700   74.0760  219.9650 C   0  0  0  0  0  0  0  0  0  0  0  0
  143.9000   74.8440  220.3600 C   0  0  0  0  0  0  0  0  0  0  0  0
  142.7390   74.2170  220.7780 C   0  0  0  0  0  0  0  0  0  0  0  0
  141.6540   74.8840  221.1770 N   0  0  0  0  0  0  0  0  0  0  0  0
  140.5210   74.2670  221.5840 C   0  0  0  0  0  0  0  0  0  0  0  0
  139.4160   75.1410  221.9690 C   0  0  0  0  0  0  0  0  0  0  0  0
  139.2860   76.3400  221.4460 C   0  0  0  0  0  0  0  0  0  0  0  0
  139.7400   77.5710  222.0730 C   0  0  0  0  0  0  0  0  0  0  0  0
  138.9010   78.4760  222.6870 C   0  0  0  0  0  0  0  0  0  0  0  0
  139.3320   79.6150  223.2650 N   0  0  0  0  0  0  0  0  0  0  0  0
  140.6490   79.8700  223.2350 C   0  0  0  0  0  0  0  0  0  0  0  0
  141.0570   81.0560  223.8430 C   0  0  0  0  0  0  0  0  0  0  0  0
  142.4220   81.3670  223.8370 C   0  0  0  0  0  0  0  0  0  0  0  0
  143.3470   80.5130  223.2400 C   0  0  0  0  0  0  0  0  0  0  0  0
  142.9040   79.3640  222.6570 C   0  0  0  0  0  0  0  0  0  0  0  0
  141.5700   79.0340  222.6480 C   0  0  0  0  0  0  0  0  0  0  0  0
  141.0850   77.8800  222.0680 C   0  0  0  0  0  0  0  0  0  0  0  0
  140.4020   72.9280  221.6180 N   0  0  0  0  0  0  0  0  0  0  0  0
  139.2120   72.2400  222.0760 C   0  0  0  0  0  0  0  0  0  0  0  0
  139.3850   71.5110  223.3450 C   0  0  0  0  0  0  0  0  0  0  0  0
  138.6020   70.4700  223.7740 C   0  0  0  0  0  0  0  0  0  0  0  0
  138.8190   69.8110  224.9900 C   0  0  0  0  0  0  0  0  0  0  0  0
  139.8490   70.1930  225.8180 C   0  0  0  0  0  0  0  0  0  0  0  0
  140.6420   71.2280  225.4070 C   0  0  0  0  0  0  0  0  0  0  0  0
  140.4290   71.8820  224.2040 C   0  0  0  0  0  0  0  0  0  0  0  0
  143.6909   70.9958  220.4060 H   0  0  0  0  0  0  0  0  0  0  0  0
  145.8919   74.5764  219.6340 H   0  0  0  0  0  0  0  0  0  0  0  0
  143.9658   75.9419  220.3440 H   0  0  0  0  0  0  0  0  0  0  0  0
  138.6809   74.7904  222.7083 H   0  0  0  0  0  0  0  0  0  0  0  0
  138.7985   76.4177  220.4630 H   0  0  0  0  0  0  0  0  0  0  0  0
  137.8231   78.2573  222.7063 H   0  0  0  0  0  0  0  0  0  0  0  0
  140.3263   81.7294  224.3148 H   0  0  0  0  0  0  0  0  0  0  0  0
  142.7688   82.2977  224.3098 H   0  0  0  0  0  0  0  0  0  0  0  0
  144.4183   80.7626  223.2394 H   0  0  0  0  0  0  0  0  0  0  0  0
  143.6295   78.6862  222.1835 H   0  0  0  0  0  0  0  0  0  0  0  0
  141.7907   77.1862  221.5877 H   0  0  0  0  0  0  0  0  0  0  0  0
  138.4141   72.9848  222.2123 H   0  0  0  0  0  0  0  0  0  0  0  0
  138.9680   71.4882  221.3110 H   0  0  0  0  0  0  0  0  0  0  0  0
  137.7690   70.1391  223.1363 H   0  0  0  0  0  0  0  0  0  0  0  0
  138.1605   68.9810  225.2858 H   0  0  0  0  0  0  0  0  0  0  0  0
  140.0281   69.6839  226.7765 H   0  0  0  0  0  0  0  0  0  0  0  0
  141.4737   71.5512  226.0503 H   0  0  0  0  0  0  0  0  0  0  0  0
  141.0935   72.7102  223.9168 H   0  0  0  0  0  0  0  0  0  0  0  0
  1  2  2  0
  2  3  1  0
  3  4  2  0
  4  5  1  0
  5  6  1  0
  5  7  2  0
  7  8  1  0
  8  9  2  0
  9 10  1  0
 10 11  2  0
 11 12  1  0
 12 13  2  0
 13 14  1  0
 14 15  2  0
 15 16  1  0
 16 17  2  0
 17 18  1  0
 18 19  2  0
 19 20  1  0
 20 21  2  0
 21 22  1  0
 22 23  2  0
 11 24  1  0
 24 25  1  0
 25 26  1  0
 26 27  2  0
 27 28  1  0
 28 29  2  0
 29 30  1  0
 30 31  2  0
 24  2  1  0
 31 26  1  0
  9  3  1  0
 23 14  1  0
 22 17  1  0
  4 32  1  0
  7 33  1  0
  8 34  1  0
 12 35  1  0
 13 36  1  0
 15 37  1  0
 18 38  1  0
 19 39  1  0
 20 40  1  0
 21 41  1  0
 23 42  1  0
 25 43  1  0
 25 44  1  0
 27 45  1  0
 28 46  1  0
 29 47  1  0
 30 48  1  0
 31 49  1  0
M  END
>  <smiles>  (8) 
O=c1c2cc(F)ccc2nc(/C=C/c2cnc3ccccc3c2)n1Cc1ccccc1

>  <score_type>  (8) 
oracle

>  <origin>  (8) 
autodockgpu

>  <m_score__min__energy>  (8) 
-9.6699999999999999

>  <m_primary>  (8) 
energy

>  <meeko>  (8) 
{"free_energy": -8.9, "intermolecular_energy": -10.39, "internal_energy": -1.28, "cluster_size": 5, "cluster_id": 3, "rank_in_cluster": 2}

>  <energy>  (8) 
-9.49

>  <cluster_rmsd>  (8) 
0.5

>  <rmsd>  (8) 
271.48

>  <cluster>  (8) 
1

$$$$

     RDKit          3D

 49 53  0  0  0  0  0  0  0  0999 V2000
  141.5190   70.9720  221.2310 O   0  0  0  0  0  0  0  0  0  0  0  0
  141.4990   72.2350  221.2470 C   0  0  0  0  0  0  0  0  0  0  0  0
  142.6560   72.8540  220.7940 C   0  0  0  0  0  0  0  0  0  0  0  0
  143.7430   72.1210  220.3620 C   0  0  0  0  0  0  0  0  0  0  0  0
  144.8990   72.7300  219.9100 C   0  0  0  0  0  0  0  0  0  0  0  0
  145.9330   71.9560  219.4970 F   0  0  0  0  0  0  0  0  0  0  0  0
  144.9400   74.1090  219.9020 C   0  0  0  0  0  0  0  0  0  0  0  0
  143.8760   74.8720  220.3250 C   0  0  0  0  0  0  0  0  0  0  0  0
  142.7300   74.2400  220.7740 C   0  0  0  0  0  0  0  0  0  0  0  0
  141.6520   74.9020  221.2010 N   0  0  0  0  0  0  0  0  0  0  0  0
  140.5340   74.2790  221.6390 C   0  0  0  0  0  0  0  0  0  0  0  0
  139.4350   75.1490  222.0510 C   0  0  0  0  0  0  0  0  0  0  0  0
  139.2790   76.3430  221.5240 C   0  0  0  0  0  0  0  0  0  0  0  0
  139.7400   77.5820  222.1300 C   0  0  0  0  0  0  0  0  0  0  0  0
  138.9050   78.5100  222.7150 C   0  0  0  0  0  0  0  0  0  0  0  0
  139.3430   79.6560  223.2730 N   0  0  0  0  0  0  0  0  0  0  0  0
  140.6620   79.8960  223.2520 C   0  0  0  0  0  0  0  0  0  0  0  0
  141.0780   81.0900  223.8380 C   0  0  0  0  0  0  0  0  0  0  0  0
  142.4450   81.3860  223.8420 C   0  0  0  0  0  0  0  0  0  0  0  0
  143.3680   80.5090  223.2730 C   0  0  0  0  0  0  0  0  0  0  0  0
  142.9180   79.3520  222.7100 C   0  0  0  0  0  0  0  0  0  0  0  0
  141.5810   79.0360  222.6930 C   0  0  0  0  0  0  0  0  0  0  0  0
  141.0890   77.8750  222.1330 C   0  0  0  0  0  0  0  0  0  0  0  0
  140.4220   72.9400  221.6760 N   0  0  0  0  0  0  0  0  0  0  0  0
  139.2490   72.2460  222.1660 C   0  0  0  0  0  0  0  0  0  0  0  0
  139.4560   71.5260  223.4350 C   0  0  0  0  0  0  0  0  0  0  0  0
  140.4210   71.8200  224.3640 C   0  0  0  0  0  0  0  0  0  0  0  0
  140.5670   71.1030  225.5570 C   0  0  0  0  0  0  0  0  0  0  0  0
  139.7260   70.0530  225.8490 C   0  0  0  0  0  0  0  0  0  0  0  0
  138.7570   69.7450  224.9350 C   0  0  0  0  0  0  0  0  0  0  0  0
  138.6120   70.4530  223.7540 C   0  0  0  0  0  0  0  0  0  0  0  0
  143.6880   71.0225  220.3778 H   0  0  0  0  0  0  0  0  0  0  0  0
  145.8506   74.6136  219.5468 H   0  0  0  0  0  0  0  0  0  0  0  0
  143.9357   75.9702  220.3064 H   0  0  0  0  0  0  0  0  0  0  0  0
  138.7258   74.7988  222.8154 H   0  0  0  0  0  0  0  0  0  0  0  0
  138.7627   76.4099  220.5550 H   0  0  0  0  0  0  0  0  0  0  0  0
  137.8245   78.3043  222.7270 H   0  0  0  0  0  0  0  0  0  0  0  0
  140.3498   81.7821  224.2860 H   0  0  0  0  0  0  0  0  0  0  0  0
  142.7965   82.3224  224.2998 H   0  0  0  0  0  0  0  0  0  0  0  0
  144.4419   80.7471  223.2784 H   0  0  0  0  0  0  0  0  0  0  0  0
  143.6411   78.6561  222.2595 H   0  0  0  0  0  0  0  0  0  0  0  0
  141.7916   77.1626  221.6759 H   0  0  0  0  0  0  0  0  0  0  0  0
  138.4488   72.9857  222.3162 H   0  0  0  0  0  0  0  0  0  0  0  0
  138.9939   71.4873  221.4115 H   0  0  0  0  0  0  0  0  0  0  0  0
  141.1091   72.6543  224.1631 H   0  0  0  0  0  0  0  0  0  0  0  0
  141.3600   71.3807  226.2670 H   0  0  0  0  0  0  0  0  0  0  0  0
  139.8298   69.4825  226.7837 H   0  0  0  0  0  0  0  0  0  0  0  0
  138.0722   68.9099  225.1441 H   0  0  0  0  0  0  0  0  0  0  0  0
  137.8165   70.1671  223.0501 H   0  0  0  0  0  0  0  0  0  0  0  0
  1  2  2  0
  2  3  1  0
  3  4  2  0
  4  5  1  0
  5  6  1  0
  5  7  2  0
  7  8  1  0
  8  9  2  0
  9 10  1  0
 10 11  2  0
 11 12  1  0
 12 13  2  0
 13 14  1  0
 14 15  2  0
 15 16  1  0
 16 17  2  0
 17 18  1  0
 18 19  2  0
 19 20  1  0
 20 21  2  0
 21 22  1  0
 22 23  2  0
 11 24  1  0
 24 25  1  0
 25 26  1  0
 26 27  2  0
 27 28  1  0
 28 29  2  0
 29 30  1  0
 30 31  2  0
 24  2  1  0
 31 26  1  0
  9  3  1  0
 23 14  1  0
 22 17  1  0
  4 32  1  0
  7 33  1  0
  8 34  1  0
 12 35  1  0
 13 36  1  0
 15 37  1  0
 18 38  1  0
 19 39  1  0
 20 40  1  0
 21 41  1  0
 23 42  1  0
 25 43  1  0
 25 44  1  0
 27 45  1  0
 28 46  1  0
 29 47  1  0
 30 48  1  0
 31 49  1  0
M  END
>  <smiles>  (9) 
O=c1c2cc(F)ccc2nc(/C=C/c2cnc3ccccc3c2)n1Cc1ccccc1

>  <score_type>  (9) 
oracle

>  <origin>  (9) 
autodockgpu

>  <m_score__min__energy>  (9) 
-9.6699999999999999

>  <m_primary>  (9) 
energy

>  <meeko>  (9) 
{"free_energy": -8.88, "intermolecular_energy": -10.38, "internal_energy": -1.28, "cluster_size": 5, "cluster_id": 3, "rank_in_cluster": 3}

>  <energy>  (9) 
-9.41

>  <cluster_rmsd>  (9) 
0.77

>  <rmsd>  (9) 
271.46

>  <cluster>  (9) 
1

$$$$

     RDKit          3D

 49 53  0  0  0  0  0  0  0  0999 V2000
  141.4850   70.9710  221.2440 O   0  0  0  0  0  0  0  0  0  0  0  0
  141.4700   72.2330  221.2570 C   0  0  0  0  0  0  0  0  0  0  0  0
  142.6330   72.8470  220.8130 C   0  0  0  0  0  0  0  0  0  0  0  0
  143.7220   72.1090  220.3930 C   0  0  0  0  0  0  0  0  0  0  0  0
  144.8830   72.7120  219.9510 C   0  0  0  0  0  0  0  0  0  0  0  0
  145.9190   71.9330  219.5500 F   0  0  0  0  0  0  0  0  0  0  0  0
  144.9290   74.0910  219.9390 C   0  0  0  0  0  0  0  0  0  0  0  0
  143.8650   74.8590  220.3490 C   0  0  0  0  0  0  0  0  0  0  0  0
  142.7120   74.2320  220.7890 C   0  0  0  0  0  0  0  0  0  0  0  0
  141.6330   74.8990  221.2040 N   0  0  0  0  0  0  0  0  0  0  0  0
  140.5080   74.2820  221.6330 C   0  0  0  0  0  0  0  0  0  0  0  0
  139.4080   75.1570  222.0330 C   0  0  0  0  0  0  0  0  0  0  0  0
  139.2670   76.3530  221.5060 C   0  0  0  0  0  0  0  0  0  0  0  0
  139.7220   77.5890  222.1230 C   0  0  0  0  0  0  0  0  0  0  0  0
  138.8830   78.5070  222.7160 C   0  0  0  0  0  0  0  0  0  0  0  0
  139.3150   79.6500  223.2850 N   0  0  0  0  0  0  0  0  0  0  0  0
  140.6340   79.8960  223.2660 C   0  0  0  0  0  0  0  0  0  0  0  0
  141.0440   81.0870  223.8630 C   0  0  0  0  0  0  0  0  0  0  0  0
  142.4100   81.3890  223.8700 C   0  0  0  0  0  0  0  0  0  0  0  0
  143.3360   80.5210  223.2940 C   0  0  0  0  0  0  0  0  0  0  0  0
  142.8920   79.3680  222.7210 C   0  0  0  0  0  0  0  0  0  0  0  0
  141.5560   79.0460  222.7000 C   0  0  0  0  0  0  0  0  0  0  0  0
  141.0700   77.8880  222.1300 C   0  0  0  0  0  0  0  0  0  0  0  0
  140.3910   72.9440  221.6740 N   0  0  0  0  0  0  0  0  0  0  0  0
  139.2110   72.2560  222.1540 C   0  0  0  0  0  0  0  0  0  0  0  0
  139.4150   71.5050  223.4060 C   0  0  0  0  0  0  0  0  0  0  0  0
  138.6620   70.4360  223.8210 C   0  0  0  0  0  0  0  0  0  0  0  0
  138.9080   69.7570  225.0200 C   0  0  0  0  0  0  0  0  0  0  0  0
  139.9390   70.1450  225.8450 C   0  0  0  0  0  0  0  0  0  0  0  0
  140.7020   71.2080  225.4470 C   0  0  0  0  0  0  0  0  0  0  0  0
  140.4600   71.8810  224.2610 C   0  0  0  0  0  0  0  0  0  0  0  0
  143.6630   71.0107  220.4110 H   0  0  0  0  0  0  0  0  0  0  0  0
  145.8448   74.5910  219.5908 H   0  0  0  0  0  0  0  0  0  0  0  0
  143.9290   75.9569  220.3277 H   0  0  0  0  0  0  0  0  0  0  0  0
  138.6866   74.8093  222.7871 H   0  0  0  0  0  0  0  0  0  0  0  0
  138.7690   76.4241  220.5278 H   0  0  0  0  0  0  0  0  0  0  0  0
  137.8035   78.2960  222.7256 H   0  0  0  0  0  0  0  0  0  0  0  0
  140.3124   81.7717  224.3169 H   0  0  0  0  0  0  0  0  0  0  0  0
  142.7575   82.3230  224.3358 H   0  0  0  0  0  0  0  0  0  0  0  0
  144.4089   80.7635  223.3021 H   0  0  0  0  0  0  0  0  0  0  0  0
  143.6186   78.6794  222.2650 H   0  0  0  0  0  0  0  0  0  0  0  0
  141.7763   77.1826  221.6679 H   0  0  0  0  0  0  0  0  0  0  0  0
  138.4220   73.0032  222.3249 H   0  0  0  0  0  0  0  0  0  0  0  0
  138.9409   71.5182  221.3841 H   0  0  0  0  0  0  0  0  0  0  0  0
  137.8304   70.0984  223.1851 H   0  0  0  0  0  0  0  0  0  0  0  0
  138.2719   68.9061  225.3053 H   0  0  0  0  0  0  0  0  0  0  0  0
  140.1419   69.6195  226.7898 H   0  0  0  0  0  0  0  0  0  0  0  0
  141.5327   71.5383  226.0880 H   0  0  0  0  0  0  0  0  0  0  0  0
  141.1025   72.7298  223.9838 H   0  0  0  0  0  0  0  0  0  0  0  0
  1  2  2  0
  2  3  1  0
  3  4  2  0
  4  5  1  0
  5  6  1  0
  5  7  2  0
  7  8  1  0
  8  9  2  0
  9 10  1  0
 10 11  2  0
 11 12  1  0
 12 13  2  0
 13 14  1  0
 14 15  2  0
 15 16  1  0
 16 17  2  0
 17 18  1  0
 18 19  2  0
 19 20  1  0
 20 21  2  0
 21 22  1  0
 22 23  2  0
 11 24  1  0
 24 25  1  0
 25 26  1  0
 26 27  2  0
 27 28  1  0
 28 29  2  0
 29 30  1  0
 30 31  2  0
 24  2  1  0
 31 26  1  0
  9  3  1  0
 23 14  1  0
 22 17  1  0
  4 32  1  0
  7 33  1  0
  8 34  1  0
 12 35  1  0
 13 36  1  0
 15 37  1  0
 18 38  1  0
 19 39  1  0
 20 40  1  0
 21 41  1  0
 23 42  1  0
 25 43  1  0
 25 44  1  0
 27 45  1  0
 28 46  1  0
 29 47  1  0
 30 48  1  0
 31 49  1  0
M  END
>  <smiles>  (10) 
O=c1c2cc(F)ccc2nc(/C=C/c2cnc3ccccc3c2)n1Cc1ccccc1

>  <score_type>  (10) 
oracle

>  <origin>  (10) 
autodockgpu

>  <m_score__min__energy>  (10) 
-9.6699999999999999

>  <m_primary>  (10) 
energy

>  <meeko>  (10) 
{"free_energy": -8.93, "intermolecular_energy": -10.42, "internal_energy": -1.27, "cluster_size": 5, "cluster_id": 3, "rank_in_cluster": 1}

>  <energy>  (10) 
-9.39

>  <cluster_rmsd>  (10) 
2.0

>  <rmsd>  (10) 
271.55

>  <cluster>  (10) 
1

$$$$

     RDKit          3D

 49 53  0  0  0  0  0  0  0  0999 V2000
  141.5780   71.1780  221.2600 O   0  0  0  0  0  0  0  0  0  0  0  0
  141.3300   72.4150  221.2980 C   0  0  0  0  0  0  0  0  0  0  0  0
  142.3020   73.2360  220.7440 C   0  0  0  0  0  0  0  0  0  0  0  0
  143.4570   72.7150  220.1960 C   0  0  0  0  0  0  0  0  0  0  0  0
  144.4310   73.5240  219.6430 C   0  0  0  0  0  0  0  0  0  0  0  0
  145.5430   72.9530  219.1180 F   0  0  0  0  0  0  0  0  0  0  0  0
  144.2170   74.8870  219.6530 C   0  0  0  0  0  0  0  0  0  0  0  0
  143.0790   75.4430  220.1890 C   0  0  0  0  0  0  0  0  0  0  0  0
  142.1190   74.6110  220.7380 C   0  0  0  0  0  0  0  0  0  0  0  0
  140.9860   75.0650  221.2790 N   0  0  0  0  0  0  0  0  0  0  0  0
  140.0490   74.2480  221.8140 C   0  0  0  0  0  0  0  0  0  0  0  0
  138.8560   74.9010  222.3470 C   0  0  0  0  0  0  0  0  0  0  0  0
  138.4680   76.0740  221.8990 C   0  0  0  0  0  0  0  0  0  0  0  0
  138.9720   77.3520  222.3770 C   0  0  0  0  0  0  0  0  0  0  0  0
  138.1670   78.4100  222.7390 C   0  0  0  0  0  0  0  0  0  0  0  0
  138.6450   79.5910  223.1800 N   0  0  0  0  0  0  0  0  0  0  0  0
  139.9760   79.7320  223.2670 C   0  0  0  0  0  0  0  0  0  0  0  0
  140.4330   80.9650  223.7270 C   0  0  0  0  0  0  0  0  0  0  0  0
  141.8140   81.1610  223.8350 C   0  0  0  0  0  0  0  0  0  0  0  0
  142.7090   80.1490  223.4920 C   0  0  0  0  0  0  0  0  0  0  0  0
  142.2190   78.9590  223.0460 C   0  0  0  0  0  0  0  0  0  0  0  0
  140.8670   78.7390  222.9300 C   0  0  0  0  0  0  0  0  0  0  0  0
  140.3350   77.5470  222.4830 C   0  0  0  0  0  0  0  0  0  0  0  0
  140.1890   72.9110  221.8420 N   0  0  0  0  0  0  0  0  0  0  0  0
  139.2170   72.0150  222.4330 C   0  0  0  0  0  0  0  0  0  0  0  0
  139.6150   71.4680  223.7430 C   0  0  0  0  0  0  0  0  0  0  0  0
  140.7040   71.8730  224.4720 C   0  0  0  0  0  0  0  0  0  0  0  0
  141.0290   71.3200  225.7160 C   0  0  0  0  0  0  0  0  0  0  0  0
  140.2500   70.3280  226.2660 C   0  0  0  0  0  0  0  0  0  0  0  0
  139.1590   69.9120  225.5540 C   0  0  0  0  0  0  0  0  0  0  0  0
  138.8360   70.4580  224.3230 C   0  0  0  0  0  0  0  0  0  0  0  0
  143.6061   71.6251  220.1997 H   0  0  0  0  0  0  0  0  0  0  0  0
  144.9802   75.5495  219.2188 H   0  0  0  0  0  0  0  0  0  0  0  0
  142.9339   76.5334  220.1814 H   0  0  0  0  0  0  0  0  0  0  0  0
  138.2731   74.4030  223.1359 H   0  0  0  0  0  0  0  0  0  0  0  0
  137.7069   76.0905  221.1050 H   0  0  0  0  0  0  0  0  0  0  0  0
  137.0768   78.2845  222.6643 H   0  0  0  0  0  0  0  0  0  0  0  0
  139.7266   81.7634  223.9982 H   0  0  0  0  0  0  0  0  0  0  0  0
  142.1986   82.1265  224.1954 H   0  0  0  0  0  0  0  0  0  0  0  0
  143.7937   80.3089  223.5801 H   0  0  0  0  0  0  0  0  0  0  0  0
  142.9202   78.1567  222.7728 H   0  0  0  0  0  0  0  0  0  0  0  0
  141.0155   76.7293  222.2033 H   0  0  0  0  0  0  0  0  0  0  0  0
  138.2738   72.5662  222.5618 H   0  0  0  0  0  0  0  0  0  0  0  0
  139.1212   71.1584  221.7495 H   0  0  0  0  0  0  0  0  0  0  0  0
  141.3483   72.6648  224.0622 H   0  0  0  0  0  0  0  0  0  0  0  0
  141.9149   71.6815  226.2587 H   0  0  0  0  0  0  0  0  0  0  0  0
  140.4958   69.8857  227.2427 H   0  0  0  0  0  0  0  0  0  0  0  0
  138.5192   69.1205  225.9714 H   0  0  0  0  0  0  0  0  0  0  0  0
  137.9477   70.0904  223.7884 H   0  0  0  0  0  0  0  0  0  0  0  0
  1  2  2  0
  2  3  1  0
  3  4  2  0
  4  5  1  0
  5  6  1  0
  5  7  2  0
  7  8  1  0
  8  9  2  0
  9 10  1  0
 10 11  2  0
 11 12  1  0
 12 13  2  0
 13 14  1  0
 14 15  2  0
 15 16  1  0
 16 17  2  0
 17 18  1  0
 18 19  2  0
 19 20  1  0
 20 21  2  0
 21 22  1  0
 22 23  2  0
 11 24  1  0
 24 25  1  0
 25 26  1  0
 26 27  2  0
 27 28  1  0
 28 29  2  0
 29 30  1  0
 30 31  2  0
 24  2  1  0
 31 26  1  0
  9  3  1  0
 23 14  1  0
 22 17  1  0
  4 32  1  0
  7 33  1  0
  8 34  1  0
 12 35  1  0
 13 36  1  0
 15 37  1  0
 18 38  1  0
 19 39  1  0
 20 40  1  0
 21 41  1  0
 23 42  1  0
 25 43  1  0
 25 44  1  0
 27 45  1  0
 28 46  1  0
 29 47  1  0
 30 48  1  0
 31 49  1  0
M  END
>  <smiles>  (11) 
O=c1c2cc(F)ccc2nc(/C=C/c2cnc3ccccc3c2)n1Cc1ccccc1

>  <score_type>  (11) 
oracle

>  <origin>  (11) 
autodockgpu

>  <m_score__min__energy>  (11) 
-9.6699999999999999

>  <m_primary>  (11) 
energy

>  <meeko>  (11) 
{"free_energy": -8.53, "intermolecular_energy": -10.02, "internal_energy": -1.28, "cluster_size": 5, "cluster_id": 3, "rank_in_cluster": 5}

>  <energy>  (11) 
-9.38

>  <cluster_rmsd>  (11) 
0.59

>  <rmsd>  (11) 
271.35

>  <cluster>  (11) 
1

$$$$

     RDKit          3D

 49 53  0  0  0  0  0  0  0  0999 V2000
  142.6360   76.6840  219.5270 O   0  0  0  0  0  0  0  0  0  0  0  0
  141.8100   76.3480  220.4210 C   0  0  0  0  0  0  0  0  0  0  0  0
  141.3620   77.3770  221.2360 C   0  0  0  0  0  0  0  0  0  0  0  0
  141.8020   78.6750  221.0650 C   0  0  0  0  0  0  0  0  0  0  0  0
  141.3610   79.7060  221.8720 C   0  0  0  0  0  0  0  0  0  0  0  0
  141.8290   80.9600  221.6540 F   0  0  0  0  0  0  0  0  0  0  0  0
  140.4560   79.4030  222.8680 C   0  0  0  0  0  0  0  0  0  0  0  0
  139.9940   78.1220  223.0680 C   0  0  0  0  0  0  0  0  0  0  0  0
  140.4510   77.1060  222.2470 C   0  0  0  0  0  0  0  0  0  0  0  0
  140.0560   75.8370  222.3700 N   0  0  0  0  0  0  0  0  0  0  0  0
  140.5050   74.8470  221.5650 C   0  0  0  0  0  0  0  0  0  0  0  0
  139.9570   73.5160  221.8180 C   0  0  0  0  0  0  0  0  0  0  0  0
  140.7080   72.5560  222.3090 C   0  0  0  0  0  0  0  0  0  0  0  0
  140.3020   71.6460  223.3690 C   0  0  0  0  0  0  0  0  0  0  0  0
  139.5200   70.5300  223.1680 C   0  0  0  0  0  0  0  0  0  0  0  0
  139.1490   69.6940  224.1580 N   0  0  0  0  0  0  0  0  0  0  0  0
  139.5690   69.9740  225.4010 C   0  0  0  0  0  0  0  0  0  0  0  0
  139.1660   69.0880  226.3980 C   0  0  0  0  0  0  0  0  0  0  0  0
  139.5790   69.3370  227.7120 C   0  0  0  0  0  0  0  0  0  0  0  0
  140.3720   70.4420  228.0140 C   0  0  0  0  0  0  0  0  0  0  0  0
  140.7430   71.2830  227.0090 C   0  0  0  0  0  0  0  0  0  0  0  0
  140.3520   71.0620  225.7090 C   0  0  0  0  0  0  0  0  0  0  0  0
  140.7080   71.8910  224.6660 C   0  0  0  0  0  0  0  0  0  0  0  0
  141.3880   75.0670  220.5760 N   0  0  0  0  0  0  0  0  0  0  0  0
  141.9080   74.0220  219.7170 C   0  0  0  0  0  0  0  0  0  0  0  0
  143.3020   73.6400  220.0050 C   0  0  0  0  0  0  0  0  0  0  0  0
  144.2770   74.4870  220.4680 C   0  0  0  0  0  0  0  0  0  0  0  0
  145.5850   74.0650  220.7300 C   0  0  0  0  0  0  0  0  0  0  0  0
  145.9500   72.7530  220.5280 C   0  0  0  0  0  0  0  0  0  0  0  0
  144.9910   71.8930  220.0680 C   0  0  0  0  0  0  0  0  0  0  0  0
  143.6960   72.3090  219.8080 C   0  0  0  0  0  0  0  0  0  0  0  0
  142.5236   78.8939  220.2641 H   0  0  0  0  0  0  0  0  0  0  0  0
  140.0926   80.2094  223.5220 H   0  0  0  0  0  0  0  0  0  0  0  0
  139.2714   77.9087  223.8695 H   0  0  0  0  0  0  0  0  0  0  0  0
  138.8991   73.3146  221.5938 H   0  0  0  0  0  0  0  0  0  0  0  0
  141.7166   72.4314  221.8881 H   0  0  0  0  0  0  0  0  0  0  0  0
  139.1803   70.3094  222.1453 H   0  0  0  0  0  0  0  0  0  0  0  0
  138.5398   68.2159  226.1588 H   0  0  0  0  0  0  0  0  0  0  0  0
  139.2736   68.6516  228.5164 H   0  0  0  0  0  0  0  0  0  0  0  0
  140.6936   70.6323  229.0486 H   0  0  0  0  0  0  0  0  0  0  0  0
  141.3685   72.1574  227.2419 H   0  0  0  0  0  0  0  0  0  0  0  0
  141.3329   72.7722  224.8730 H   0  0  0  0  0  0  0  0  0  0  0  0
  141.2746   73.1306  219.8362 H   0  0  0  0  0  0  0  0  0  0  0  0
  141.8952   74.4205  218.6918 H   0  0  0  0  0  0  0  0  0  0  0  0
  144.0195   75.5424  220.6405 H   0  0  0  0  0  0  0  0  0  0  0  0
  146.3275   74.7872  221.1003 H   0  0  0  0  0  0  0  0  0  0  0  0
  146.9753   72.4089  220.7292 H   0  0  0  0  0  0  0  0  0  0  0  0
  145.2565   70.8389  219.8995 H   0  0  0  0  0  0  0  0  0  0  0  0
  142.9604   71.5792  219.4388 H   0  0  0  0  0  0  0  0  0  0  0  0
  1  2  2  0
  2  3  1  0
  3  4  2  0
  4  5  1  0
  5  6  1  0
  5  7  2  0
  7  8  1  0
  8  9  2  0
  9 10  1  0
 10 11  2  0
 11 12  1  0
 12 13  2  0
 13 14  1  0
 14 15  2  0
 15 16  1  0
 16 17  2  0
 17 18  1  0
 18 19  2  0
 19 20  1  0
 20 21  2  0
 21 22  1  0
 22 23  2  0
 11 24  1  0
 24 25  1  0
 25 26  1  0
 26 27  2  0
 27 28  1  0
 28 29  2  0
 29 30  1  0
 30 31  2  0
 24  2  1  0
 31 26  1  0
  9  3  1  0
 23 14  1  0
 22 17  1  0
  4 32  1  0
  7 33  1  0
  8 34  1  0
 12 35  1  0
 13 36  1  0
 15 37  1  0
 18 38  1  0
 19 39  1  0
 20 40  1  0
 21 41  1  0
 23 42  1  0
 25 43  1  0
 25 44  1  0
 27 45  1  0
 28 46  1  0
 29 47  1  0
 30 48  1  0
 31 49  1  0
M  END
>  <smiles>  (12) 
O=c1c2cc(F)ccc2nc(/C=C/c2cnc3ccccc3c2)n1Cc1ccccc1

>  <score_type>  (12) 
oracle

>  <origin>  (12) 
autodockgpu

>  <m_score__min__energy>  (12) 
-9.6699999999999999

>  <m_primary>  (12) 
energy

>  <meeko>  (12) 
{"free_energy": -9.57, "intermolecular_energy": -11.06, "internal_energy": -1.1, "cluster_size": 12, "cluster_id": 1, "rank_in_cluster": 4}

>  <energy>  (12) 
-9.29

>  <cluster_rmsd>  (12) 
0.31

>  <rmsd>  (12) 
271.45

>  <cluster>  (12) 
1

$$$$

     RDKit          3D

 49 53  0  0  0  0  0  0  0  0999 V2000
  136.4530   76.1260  222.3330 O   0  0  0  0  0  0  0  0  0  0  0  0
  137.5910   75.5910  222.2170 C   0  0  0  0  0  0  0  0  0  0  0  0
  138.6710   76.4340  222.4370 C   0  0  0  0  0  0  0  0  0  0  0  0
  138.4920   77.7650  222.7580 C   0  0  0  0  0  0  0  0  0  0  0  0
  139.5620   78.6110  222.9780 C   0  0  0  0  0  0  0  0  0  0  0  0
  139.3220   79.9090  223.2920 F   0  0  0  0  0  0  0  0  0  0  0  0
  140.8330   78.0860  222.8670 C   0  0  0  0  0  0  0  0  0  0  0  0
  141.0500   76.7650  222.5500 C   0  0  0  0  0  0  0  0  0  0  0  0
  139.9620   75.9370  222.3330 C   0  0  0  0  0  0  0  0  0  0  0  0
  140.0820   74.6450  222.0210 N   0  0  0  0  0  0  0  0  0  0  0  0
  139.0160   73.8390  221.8110 C   0  0  0  0  0  0  0  0  0  0  0  0
  139.3170   72.4430  221.4990 C   0  0  0  0  0  0  0  0  0  0  0  0
  140.2720   71.7980  222.1310 C   0  0  0  0  0  0  0  0  0  0  0  0
  140.1400   71.2140  223.4570 C   0  0  0  0  0  0  0  0  0  0  0  0
  139.5120   70.0140  223.7100 C   0  0  0  0  0  0  0  0  0  0  0  0
  139.3960   69.4820  224.9430 N   0  0  0  0  0  0  0  0  0  0  0  0
  139.9220   70.1650  225.9700 C   0  0  0  0  0  0  0  0  0  0  0  0
  139.7820   69.5840  227.2290 C   0  0  0  0  0  0  0  0  0  0  0  0
  140.3150   70.2590  228.3330 C   0  0  0  0  0  0  0  0  0  0  0  0
  140.9680   71.4800  228.1760 C   0  0  0  0  0  0  0  0  0  0  0  0
  141.0830   72.0130  226.9280 C   0  0  0  0  0  0  0  0  0  0  0  0
  140.5690   71.3710  225.8260 C   0  0  0  0  0  0  0  0  0  0  0  0
  140.6650   71.8790  224.5470 C   0  0  0  0  0  0  0  0  0  0  0  0
  137.7500   74.2810  221.9000 N   0  0  0  0  0  0  0  0  0  0  0  0
  136.5900   73.4480  221.6520 C   0  0  0  0  0  0  0  0  0  0  0  0
  136.1630   72.6440  222.8110 C   0  0  0  0  0  0  0  0  0  0  0  0
  135.4200   73.1070  223.8660 C   0  0  0  0  0  0  0  0  0  0  0  0
  135.0380   72.2920  224.9380 C   0  0  0  0  0  0  0  0  0  0  0  0
  135.4030   70.9650  224.9730 C   0  0  0  0  0  0  0  0  0  0  0  0
  136.1430   70.4850  223.9280 C   0  0  0  0  0  0  0  0  0  0  0  0
  136.5220   71.2900  222.8670 C   0  0  0  0  0  0  0  0  0  0  0  0
  137.4697   78.1626  222.8408 H   0  0  0  0  0  0  0  0  0  0  0  0
  141.6986   78.7432  223.0370 H   0  0  0  0  0  0  0  0  0  0  0  0
  142.0743   76.3720  222.4700 H   0  0  0  0  0  0  0  0  0  0  0  0
  138.7351   71.9241  220.7230 H   0  0  0  0  0  0  0  0  0  0  0  0
  141.2407   71.6921  221.6207 H   0  0  0  0  0  0  0  0  0  0  0  0
  139.0828   69.4612  222.8613 H   0  0  0  0  0  0  0  0  0  0  0  0
  139.2661   68.6202  227.3517 H   0  0  0  0  0  0  0  0  0  0  0  0
  140.2173   69.8204  229.3370 H   0  0  0  0  0  0  0  0  0  0  0  0
  141.3847   72.0059  229.0477 H   0  0  0  0  0  0  0  0  0  0  0  0
  141.5975   72.9767  226.7989 H   0  0  0  0  0  0  0  0  0  0  0  0
  141.1744   72.8414  224.3912 H   0  0  0  0  0  0  0  0  0  0  0  0
  135.7541   74.0998  221.3579 H   0  0  0  0  0  0  0  0  0  0  0  0
  136.8752   72.7369  220.8626 H   0  0  0  0  0  0  0  0  0  0  0  0
  135.1112   74.1628  223.8702 H   0  0  0  0  0  0  0  0  0  0  0  0
  134.4412   72.7153  225.7593 H   0  0  0  0  0  0  0  0  0  0  0  0
  135.1102   70.3149  225.8106 H   0  0  0  0  0  0  0  0  0  0  0  0
  136.4463   69.4276  223.9303 H   0  0  0  0  0  0  0  0  0  0  0  0
  137.1180   70.8575  222.0499 H   0  0  0  0  0  0  0  0  0  0  0  0
  1  2  2  0
  2  3  1  0
  3  4  2  0
  4  5  1  0
  5  6  1  0
  5  7  2  0
  7  8  1  0
  8  9  2  0
  9 10  1  0
 10 11  2  0
 11 12  1  0
 12 13  2  0
 13 14  1  0
 14 15  2  0
 15 16  1  0
 16 17  2  0
 17 18  1  0
 18 19  2  0
 19 20  1  0
 20 21  2  0
 21 22  1  0
 22 23  2  0
 11 24  1  0
 24 25  1  0
 25 26  1  0
 26 27  2  0
 27 28  1  0
 28 29  2  0
 29 30  1  0
 30 31  2  0
 24  2  1  0
 31 26  1  0
  9  3  1  0
 23 14  1  0
 22 17  1  0
  4 32  1  0
  7 33  1  0
  8 34  1  0
 12 35  1  0
 13 36  1  0
 15 37  1  0
 18 38  1  0
 19 39  1  0
 20 40  1  0
 21 41  1  0
 23 42  1  0
 25 43  1  0
 25 44  1  0
 27 45  1  0
 28 46  1  0
 29 47  1  0
 30 48  1  0
 31 49  1  0
M  END
>  <smiles>  (13) 
O=c1c2cc(F)ccc2nc(/C=C/c2cnc3ccccc3c2)n1Cc1ccccc1

>  <score_type>  (13) 
oracle

>  <origin>  (13) 
autodockgpu

>  <m_score__min__energy>  (13) 
-9.6699999999999999

>  <m_primary>  (13) 
energy

>  <meeko>  (13) 
{"free_energy": -8.27, "intermolecular_energy": -9.77, "internal_energy": -1.96, "cluster_size": 2, "cluster_id": 4, "rank_in_cluster": 2}

>  <energy>  (13) 
-9.18

>  <cluster_rmsd>  (13) 
0.0

>  <rmsd>  (13) 
271.52

>  <cluster>  (13) 
2

$$$$

     RDKit          3D

 49 53  0  0  0  0  0  0  0  0999 V2000
  142.8250   76.0960  219.5110 O   0  0  0  0  0  0  0  0  0  0  0  0
  141.9180   75.7580  220.3220 C   0  0  0  0  0  0  0  0  0  0  0  0
  141.3600   76.7930  221.0580 C   0  0  0  0  0  0  0  0  0  0  0  0
  141.7850   78.0980  220.9010 C   0  0  0  0  0  0  0  0  0  0  0  0
  141.2350   79.1350  221.6300 C   0  0  0  0  0  0  0  0  0  0  0  0
  141.6930   80.3960  221.4310 F   0  0  0  0  0  0  0  0  0  0  0  0
  140.2380   78.8310  222.5330 C   0  0  0  0  0  0  0  0  0  0  0  0
  139.7890   77.5430  222.7160 C   0  0  0  0  0  0  0  0  0  0  0  0
  140.3550   76.5210  221.9750 C   0  0  0  0  0  0  0  0  0  0  0  0
  139.9800   75.2450  222.0890 N   0  0  0  0  0  0  0  0  0  0  0  0
  140.5360   74.2490  221.3610 C   0  0  0  0  0  0  0  0  0  0  0  0
  139.9980   72.9100  221.5890 C   0  0  0  0  0  0  0  0  0  0  0  0
  140.7060   71.9900  222.2060 C   0  0  0  0  0  0  0  0  0  0  0  0
  140.3150   71.3340  223.4440 C   0  0  0  0  0  0  0  0  0  0  0  0
  139.5700   70.1760  223.4990 C   0  0  0  0  0  0  0  0  0  0  0  0
  139.2120   69.5770  224.6520 N   0  0  0  0  0  0  0  0  0  0  0  0
  139.6080   70.1480  225.8000 C   0  0  0  0  0  0  0  0  0  0  0  0
  139.2200   69.5000  226.9720 C   0  0  0  0  0  0  0  0  0  0  0  0
  139.6080   70.0560  228.1960 C   0  0  0  0  0  0  0  0  0  0  0  0
  140.3640   71.2270  228.2410 C   0  0  0  0  0  0  0  0  0  0  0  0
  140.7210   71.8270  227.0720 C   0  0  0  0  0  0  0  0  0  0  0  0
  140.3530   71.3030  225.8560 C   0  0  0  0  0  0  0  0  0  0  0  0
  140.6970   71.8820  224.6520 C   0  0  0  0  0  0  0  0  0  0  0  0
  141.5130   74.4700  220.4650 N   0  0  0  0  0  0  0  0  0  0  0  0
  142.1460   73.4200  219.6930 C   0  0  0  0  0  0  0  0  0  0  0  0
  143.5700   73.2080  220.0120 C   0  0  0  0  0  0  0  0  0  0  0  0
  144.3220   74.0010  220.8410 C   0  0  0  0  0  0  0  0  0  0  0  0
  145.6710   73.7450  221.1120 C   0  0  0  0  0  0  0  0  0  0  0  0
  146.3060   72.6640  220.5450 C   0  0  0  0  0  0  0  0  0  0  0  0
  145.5720   71.8620  219.7160 C   0  0  0  0  0  0  0  0  0  0  0  0
  144.2370   72.1130  219.4460 C   0  0  0  0  0  0  0  0  0  0  0  0
  142.5827   78.3175  220.1761 H   0  0  0  0  0  0  0  0  0  0  0  0
  139.7883   79.6421  223.1246 H   0  0  0  0  0  0  0  0  0  0  0  0
  138.9907   77.3290  223.4418 H   0  0  0  0  0  0  0  0  0  0  0  0
  138.9838   72.6676  221.2387 H   0  0  0  0  0  0  0  0  0  0  0  0
  141.6639   71.6948  221.7530 H   0  0  0  0  0  0  0  0  0  0  0  0
  139.2507   69.7164  222.5520 H   0  0  0  0  0  0  0  0  0  0  0  0
  138.6245   68.5759  226.9353 H   0  0  0  0  0  0  0  0  0  0  0  0
  139.3131   69.5634  229.1343 H   0  0  0  0  0  0  0  0  0  0  0  0
  140.6672   71.6593  229.2060 H   0  0  0  0  0  0  0  0  0  0  0  0
  141.3169   72.7512  227.1016 H   0  0  0  0  0  0  0  0  0  0  0  0
  141.2927   72.8067  224.6547 H   0  0  0  0  0  0  0  0  0  0  0  0
  141.6067   72.4801  219.8822 H   0  0  0  0  0  0  0  0  0  0  0  0
  142.1019   73.7328  218.6393 H   0  0  0  0  0  0  0  0  0  0  0  0
  143.8455   74.8735  221.3119 H   0  0  0  0  0  0  0  0  0  0  0  0
  146.2285   74.4139  221.7842 H   0  0  0  0  0  0  0  0  0  0  0  0
  147.3656   72.4528  220.7512 H   0  0  0  0  0  0  0  0  0  0  0  0
  146.0562   70.9914  219.2495 H   0  0  0  0  0  0  0  0  0  0  0  0
  143.6882   71.4382  218.7726 H   0  0  0  0  0  0  0  0  0  0  0  0
  1  2  2  0
  2  3  1  0
  3  4  2  0
  4  5  1  0
  5  6  1  0
  5  7  2  0
  7  8  1  0
  8  9  2  0
  9 10  1  0
 10 11  2  0
 11 12  1  0
 12 13  2  0
 13 14  1  0
 14 15  2  0
 15 16  1  0
 16 17  2  0
 17 18  1  0
 18 19  2  0
 19 20  1  0
 20 21  2  0
 21 22  1  0
 22 23  2  0
 11 24  1  0
 24 25  1  0
 25 26  1  0
 26 27  2  0
 27 28  1  0
 28 29  2  0
 29 30  1  0
 30 31  2  0
 24  2  1  0
 31 26  1  0
  9  3  1  0
 23 14  1  0
 22 17  1  0
  4 32  1  0
  7 33  1  0
  8 34  1  0
 12 35  1  0
 13 36  1  0
 15 37  1  0
 18 38  1  0
 19 39  1  0
 20 40  1  0
 21 41  1  0
 23 42  1  0
 25 43  1  0
 25 44  1  0
 27 45  1  0
 28 46  1  0
 29 47  1  0
 30 48  1  0
 31 49  1  0
M  END
>  <smiles>  (14) 
O=c1c2cc(F)ccc2nc(/C=C/c2cnc3ccccc3c2)n1Cc1ccccc1

>  <score_type>  (14) 
oracle

>  <origin>  (14) 
autodockgpu

>  <m_score__min__energy>  (14) 
-9.6699999999999999

>  <m_primary>  (14) 
energy

>  <meeko>  (14) 
{"free_energy": -9.62, "intermolecular_energy": -11.11, "internal_energy": -1.06, "cluster_size": 12, "cluster_id": 1, "rank_in_cluster": 3}

>  <energy>  (14) 
-8.93

>  <cluster_rmsd>  (14) 
0.0

>  <rmsd>  (14) 
271.53

>  <cluster>  (14) 
3

$$$$

     RDKit          3D

 49 53  0  0  0  0  0  0  0  0999 V2000
  142.6030   76.2540  219.3950 O   0  0  0  0  0  0  0  0  0  0  0  0
  141.7960   75.9780  220.3270 C   0  0  0  0  0  0  0  0  0  0  0  0
  141.3830   77.0570  221.0950 C   0  0  0  0  0  0  0  0  0  0  0  0
  141.8370   78.3370  220.8440 C   0  0  0  0  0  0  0  0  0  0  0  0
  141.4320   79.4170  221.6040 C   0  0  0  0  0  0  0  0  0  0  0  0
  141.9120   80.6500  221.3070 F   0  0  0  0  0  0  0  0  0  0  0  0
  140.5490   79.1810  222.6380 C   0  0  0  0  0  0  0  0  0  0  0  0
  140.0750   77.9200  222.9190 C   0  0  0  0  0  0  0  0  0  0  0  0
  140.4960   76.8550  222.1430 C   0  0  0  0  0  0  0  0  0  0  0  0
  140.0870   75.6000  222.3450 N   0  0  0  0  0  0  0  0  0  0  0  0
  140.5010   74.5610  221.5840 C   0  0  0  0  0  0  0  0  0  0  0  0
  139.9420   73.2550  221.9210 C   0  0  0  0  0  0  0  0  0  0  0  0
  140.6910   72.3110  222.4460 C   0  0  0  0  0  0  0  0  0  0  0  0
  140.3110   71.4880  223.5830 C   0  0  0  0  0  0  0  0  0  0  0  0
  139.5750   70.3270  223.4810 C   0  0  0  0  0  0  0  0  0  0  0  0
  139.2290   69.5710  224.5420 N   0  0  0  0  0  0  0  0  0  0  0  0
  139.6260   69.9810  225.7560 C   0  0  0  0  0  0  0  0  0  0  0  0
  139.2490   69.1740  226.8290 C   0  0  0  0  0  0  0  0  0  0  0  0
  139.6400   69.5590  228.1160 C   0  0  0  0  0  0  0  0  0  0  0  0
  140.3870   70.7190  228.3200 C   0  0  0  0  0  0  0  0  0  0  0  0
  140.7330   71.4780  227.2430 C   0  0  0  0  0  0  0  0  0  0  0  0
  140.3630   71.1240  225.9680 C   0  0  0  0  0  0  0  0  0  0  0  0
  140.6960   71.8670  224.8540 C   0  0  0  0  0  0  0  0  0  0  0  0
  141.3600   74.7140  220.5610 N   0  0  0  0  0  0  0  0  0  0  0  0
  141.8430   73.6170  219.7480 C   0  0  0  0  0  0  0  0  0  0  0  0
  143.2540   73.2620  219.9860 C   0  0  0  0  0  0  0  0  0  0  0  0
  143.9080   72.1950  219.4240 C   0  0  0  0  0  0  0  0  0  0  0  0
  145.2530   71.9100  219.6830 C   0  0  0  0  0  0  0  0  0  0  0  0
  145.9860   72.7100  220.5300 C   0  0  0  0  0  0  0  0  0  0  0  0
  145.3520   73.7790  221.0990 C   0  0  0  0  0  0  0  0  0  0  0  0
  144.0200   74.0620  220.8440 C   0  0  0  0  0  0  0  0  0  0  0  0
  142.5413   78.5011  220.0151 H   0  0  0  0  0  0  0  0  0  0  0  0
  140.2138   80.0267  223.2564 H   0  0  0  0  0  0  0  0  0  0  0  0
  139.3711   77.7611  223.7492 H   0  0  0  0  0  0  0  0  0  0  0  0
  138.8764   73.0578  221.7324 H   0  0  0  0  0  0  0  0  0  0  0  0
  141.6767   72.1305  221.9924 H   0  0  0  0  0  0  0  0  0  0  0  0
  139.2531   70.0003  222.4812 H   0  0  0  0  0  0  0  0  0  0  0  0
  138.6599   68.2591  226.6678 H   0  0  0  0  0  0  0  0  0  0  0  0
  139.3545   68.9386  228.9783 H   0  0  0  0  0  0  0  0  0  0  0  0
  140.6918   71.0162  229.3343 H   0  0  0  0  0  0  0  0  0  0  0  0
  141.3215   72.3944  227.3975 H   0  0  0  0  0  0  0  0  0  0  0  0
  141.2848   72.7873  224.9819 H   0  0  0  0  0  0  0  0  0  0  0  0
  141.2245   72.7324  219.9601 H   0  0  0  0  0  0  0  0  0  0  0  0
  141.7729   73.9459  218.7007 H   0  0  0  0  0  0  0  0  0  0  0  0
  143.3517   71.5360  218.7412 H   0  0  0  0  0  0  0  0  0  0  0  0
  145.7283   71.0401  219.2062 H   0  0  0  0  0  0  0  0  0  0  0  0
  147.0442   72.4967  220.7414 H   0  0  0  0  0  0  0  0  0  0  0  0
  145.9161   74.4339  221.7794 H   0  0  0  0  0  0  0  0  0  0  0  0
  143.5536   74.9340  221.3258 H   0  0  0  0  0  0  0  0  0  0  0  0
  1  2  2  0
  2  3  1  0
  3  4  2  0
  4  5  1  0
  5  6  1  0
  5  7  2  0
  7  8  1  0
  8  9  2  0
  9 10  1  0
 10 11  2  0
 11 12  1  0
 12 13  2  0
 13 14  1  0
 14 15  2  0
 15 16  1  0
 16 17  2  0
 17 18  1  0
 18 19  2  0
 19 20  1  0
 20 21  2  0
 21 22  1  0
 22 23  2  0
 11 24  1  0
 24 25  1  0
 25 26  1  0
 26 27  2  0
 27 28  1  0
 28 29  2  0
 29 30  1  0
 30 31  2  0
 24  2  1  0
 31 26  1  0
  9  3  1  0
 23 14  1  0
 22 17  1  0
  4 32  1  0
  7 33  1  0
  8 34  1  0
 12 35  1  0
 13 36  1  0
 15 37  1  0
 18 38  1  0
 19 39  1  0
 20 40  1  0
 21 41  1  0
 23 42  1  0
 25 43  1  0
 25 44  1  0
 27 45  1  0
 28 46  1  0
 29 47  1  0
 30 48  1  0
 31 49  1  0
M  END
>  <smiles>  (15) 
O=c1c2cc(F)ccc2nc(/C=C/c2cnc3ccccc3c2)n1Cc1ccccc1

>  <score_type>  (15) 
oracle

>  <origin>  (15) 
autodockgpu

>  <m_score__min__energy>  (15) 
-9.6699999999999999

>  <m_primary>  (15) 
energy

>  <meeko>  (15) 
{"free_energy": -9.52, "intermolecular_energy": -11.01, "internal_energy": -1.07, "cluster_size": 12, "cluster_id": 1, "rank_in_cluster": 6}

>  <energy>  (15) 
-8.9

>  <cluster_rmsd>  (15) 
0.06

>  <rmsd>  (15) 
271.5

>  <cluster>  (15) 
3

$$$$

     RDKit          3D

 49 53  0  0  0  0  0  0  0  0999 V2000
  142.5940   76.7180  219.4430 O   0  0  0  0  0  0  0  0  0  0  0  0
  141.7950   76.3700  220.3560 C   0  0  0  0  0  0  0  0  0  0  0  0
  141.3650   77.3900  221.1930 C   0  0  0  0  0  0  0  0  0  0  0  0
  141.7950   78.6910  221.0220 C   0  0  0  0  0  0  0  0  0  0  0  0
  141.3720   79.7120  221.8510 C   0  0  0  0  0  0  0  0  0  0  0  0
  141.8290   80.9700  221.6330 F   0  0  0  0  0  0  0  0  0  0  0  0
  140.4960   79.3960  222.8690 C   0  0  0  0  0  0  0  0  0  0  0  0
  140.0450   78.1120  223.0690 C   0  0  0  0  0  0  0  0  0  0  0  0
  140.4840   77.1050  222.2270 C   0  0  0  0  0  0  0  0  0  0  0  0
  140.0970   75.8330  222.3480 N   0  0  0  0  0  0  0  0  0  0  0  0
  140.5280   74.8530  221.5220 C   0  0  0  0  0  0  0  0  0  0  0  0
  139.9930   73.5170  221.7770 C   0  0  0  0  0  0  0  0  0  0  0  0
  140.7450   72.5720  222.2950 C   0  0  0  0  0  0  0  0  0  0  0  0
  140.3240   71.6610  223.3480 C   0  0  0  0  0  0  0  0  0  0  0  0
  139.5210   70.5620  223.1380 C   0  0  0  0  0  0  0  0  0  0  0  0
  139.1360   69.7240  224.1210 N   0  0  0  0  0  0  0  0  0  0  0  0
  139.5640   69.9850  225.3660 C   0  0  0  0  0  0  0  0  0  0  0  0
  139.1460   69.0970  226.3560 C   0  0  0  0  0  0  0  0  0  0  0  0
  139.5660   69.3260  227.6710 C   0  0  0  0  0  0  0  0  0  0  0  0
  140.3810   70.4140  227.9810 C   0  0  0  0  0  0  0  0  0  0  0  0
  140.7650   71.2570  226.9830 C   0  0  0  0  0  0  0  0  0  0  0  0
  140.3680   71.0550  225.6820 C   0  0  0  0  0  0  0  0  0  0  0  0
  140.7380   71.8870  224.6450 C   0  0  0  0  0  0  0  0  0  0  0  0
  141.3820   75.0860  220.5110 N   0  0  0  0  0  0  0  0  0  0  0  0
  141.8820   74.0520  219.6280 C   0  0  0  0  0  0  0  0  0  0  0  0
  143.2480   73.5950  219.9430 C   0  0  0  0  0  0  0  0  0  0  0  0
  143.7200   72.3210  219.7580 C   0  0  0  0  0  0  0  0  0  0  0  0
  145.0320   71.9470  220.0700 C   0  0  0  0  0  0  0  0  0  0  0  0
  145.9170   72.8660  220.5840 C   0  0  0  0  0  0  0  0  0  0  0  0
  145.4660   74.1430  220.7750 C   0  0  0  0  0  0  0  0  0  0  0  0
  144.1670   74.5150  220.4670 C   0  0  0  0  0  0  0  0  0  0  0  0
  142.4932   78.9207  220.2036 H   0  0  0  0  0  0  0  0  0  0  0  0
  140.1479   80.1946  223.5406 H   0  0  0  0  0  0  0  0  0  0  0  0
  139.3447   77.8884  223.8873 H   0  0  0  0  0  0  0  0  0  0  0  0
  138.9432   73.2989  221.5312 H   0  0  0  0  0  0  0  0  0  0  0  0
  141.7672   72.4618  221.9039 H   0  0  0  0  0  0  0  0  0  0  0  0
  139.1756   70.3573  222.1139 H   0  0  0  0  0  0  0  0  0  0  0  0
  138.5031   68.2390  226.1100 H   0  0  0  0  0  0  0  0  0  0  0  0
  139.2493   68.6393  228.4699 H   0  0  0  0  0  0  0  0  0  0  0  0
  140.7089   70.5887  229.0164 H   0  0  0  0  0  0  0  0  0  0  0  0
  141.4064   72.1179  227.2226 H   0  0  0  0  0  0  0  0  0  0  0  0
  141.3805   72.7541  224.8580 H   0  0  0  0  0  0  0  0  0  0  0  0
  141.2056   73.1869  219.6924 H   0  0  0  0  0  0  0  0  0  0  0  0
  141.9204   74.4897  218.6196 H   0  0  0  0  0  0  0  0  0  0  0  0
  143.0389   71.5611  219.3472 H   0  0  0  0  0  0  0  0  0  0  0  0
  145.3581   70.9098  219.9029 H   0  0  0  0  0  0  0  0  0  0  0  0
  146.9507   72.5839  220.8326 H   0  0  0  0  0  0  0  0  0  0  0  0
  146.1543   74.8967  221.1850 H   0  0  0  0  0  0  0  0  0  0  0  0
  143.8502   75.5545  220.6373 H   0  0  0  0  0  0  0  0  0  0  0  0
  1  2  2  0
  2  3  1  0
  3  4  2  0
  4  5  1  0
  5  6  1  0
  5  7  2  0
  7  8  1  0
  8  9  2  0
  9 10  1  0
 10 11  2  0
 11 12  1  0
 12 13  2  0
 13 14  1  0
 14 15  2  0
 15 16  1  0
 16 17  2  0
 17 18  1  0
 18 19  2  0
 19 20  1  0
 20 21  2  0
 21 22  1  0
 22 23  2  0
 11 24  1  0
 24 25  1  0
 25 26  1  0
 26 27  2  0
 27 28  1  0
 28 29  2  0
 29 30  1  0
 30 31  2  0
 24  2  1  0
 31 26  1  0
  9  3  1  0
 23 14  1  0
 22 17  1  0
  4 32  1  0
  7 33  1  0
  8 34  1  0
 12 35  1  0
 13 36  1  0
 15 37  1  0
 18 38  1  0
 19 39  1  0
 20 40  1  0
 21 41  1  0
 23 42  1  0
 25 43  1  0
 25 44  1  0
 27 45  1  0
 28 46  1  0
 29 47  1  0
 30 48  1  0
 31 49  1  0
M  END
>  <smiles>  (16) 
O=c1c2cc(F)ccc2nc(/C=C/c2cnc3ccccc3c2)n1Cc1ccccc1

>  <score_type>  (16) 
oracle

>  <origin>  (16) 
autodockgpu

>  <m_score__min__energy>  (16) 
-9.6699999999999999

>  <m_primary>  (16) 
energy

>  <meeko>  (16) 
{"free_energy": -9.49, "intermolecular_energy": -10.98, "internal_energy": -1.09, "cluster_size": 12, "cluster_id": 1, "rank_in_cluster": 8}

>  <energy>  (16) 
-8.88

>  <cluster_rmsd>  (16) 
0.08

>  <rmsd>  (16) 
271.52

>  <cluster>  (16) 
3

$$$$

     RDKit          3D

 49 53  0  0  0  0  0  0  0  0999 V2000
  141.5130   70.9340  221.2190 O   0  0  0  0  0  0  0  0  0  0  0  0
  141.4790   72.1950  221.2670 C   0  0  0  0  0  0  0  0  0  0  0  0
  142.6260   72.8400  220.8240 C   0  0  0  0  0  0  0  0  0  0  0  0
  143.7200   72.1310  220.3690 C   0  0  0  0  0  0  0  0  0  0  0  0
  144.8660   72.7640  219.9270 C   0  0  0  0  0  0  0  0  0  0  0  0
  145.9070   72.0140  219.4900 F   0  0  0  0  0  0  0  0  0  0  0  0
  144.8900   74.1440  219.9530 C   0  0  0  0  0  0  0  0  0  0  0  0
  143.8200   74.8830  220.3990 C   0  0  0  0  0  0  0  0  0  0  0  0
  142.6830   74.2260  220.8370 C   0  0  0  0  0  0  0  0  0  0  0  0
  141.6000   74.8640  221.2860 N   0  0  0  0  0  0  0  0  0  0  0  0
  140.4910   74.2180  221.7130 C   0  0  0  0  0  0  0  0  0  0  0  0
  139.3840   75.0640  222.1530 C   0  0  0  0  0  0  0  0  0  0  0  0
  139.1790   76.2460  221.6160 C   0  0  0  0  0  0  0  0  0  0  0  0
  139.6130   77.5060  222.1970 C   0  0  0  0  0  0  0  0  0  0  0  0
  138.7550   78.4440  222.7310 C   0  0  0  0  0  0  0  0  0  0  0  0
  139.1680   79.6090  223.2670 N   0  0  0  0  0  0  0  0  0  0  0  0
  140.4860   79.8590  223.2760 C   0  0  0  0  0  0  0  0  0  0  0  0
  140.8750   81.0740  223.8380 C   0  0  0  0  0  0  0  0  0  0  0  0
  142.2400   81.3810  223.8710 C   0  0  0  0  0  0  0  0  0  0  0  0
  143.1850   80.4950  223.3550 C   0  0  0  0  0  0  0  0  0  0  0  0
  142.7600   79.3190  222.8150 C   0  0  0  0  0  0  0  0  0  0  0  0
  141.4260   78.9920  222.7690 C   0  0  0  0  0  0  0  0  0  0  0  0
  140.9590   77.8110  222.2300 C   0  0  0  0  0  0  0  0  0  0  0  0
  140.3960   72.8770  221.7180 N   0  0  0  0  0  0  0  0  0  0  0  0
  139.2330   72.1570  222.1960 C   0  0  0  0  0  0  0  0  0  0  0  0
  139.4400   71.4510  223.4720 C   0  0  0  0  0  0  0  0  0  0  0  0
  138.6990   70.3860  223.9180 C   0  0  0  0  0  0  0  0  0  0  0  0
  138.9480   69.7500  225.1400 C   0  0  0  0  0  0  0  0  0  0  0  0
  139.9690   70.1780  225.9570 C   0  0  0  0  0  0  0  0  0  0  0  0
  140.7200   71.2380  225.5280 C   0  0  0  0  0  0  0  0  0  0  0  0
  140.4750   71.8690  224.3200 C   0  0  0  0  0  0  0  0  0  0  0  0
  143.6781   71.0318  220.3581 H   0  0  0  0  0  0  0  0  0  0  0  0
  145.7927   74.6683  219.6063 H   0  0  0  0  0  0  0  0  0  0  0  0
  143.8667   75.9820  220.4077 H   0  0  0  0  0  0  0  0  0  0  0  0
  138.7114   74.7060  222.9464 H   0  0  0  0  0  0  0  0  0  0  0  0
  138.6402   76.2847  220.6578 H   0  0  0  0  0  0  0  0  0  0  0  0
  137.6761   78.2298  222.7187 H   0  0  0  0  0  0  0  0  0  0  0  0
  140.1290   81.7727  224.2446 H   0  0  0  0  0  0  0  0  0  0  0  0
  142.5717   82.3336  224.3097 H   0  0  0  0  0  0  0  0  0  0  0  0
  144.2566   80.7418  223.3836 H   0  0  0  0  0  0  0  0  0  0  0  0
  143.5007   78.6156  222.4068 H   0  0  0  0  0  0  0  0  0  0  0  0
  141.6800   77.0916  221.8145 H   0  0  0  0  0  0  0  0  0  0  0  0
  138.4127   72.8775  222.3299 H   0  0  0  0  0  0  0  0  0  0  0  0
  139.0071   71.3876  221.4430 H   0  0  0  0  0  0  0  0  0  0  0  0
  137.8753   70.0166  223.2895 H   0  0  0  0  0  0  0  0  0  0  0  0
  138.3217   68.9004  225.4498 H   0  0  0  0  0  0  0  0  0  0  0  0
  140.1738   69.6862  226.9194 H   0  0  0  0  0  0  0  0  0  0  0  0
  141.5431   71.5999  226.1617 H   0  0  0  0  0  0  0  0  0  0  0  0
  141.1069   72.7176  224.0190 H   0  0  0  0  0  0  0  0  0  0  0  0
  1  2  2  0
  2  3  1  0
  3  4  2  0
  4  5  1  0
  5  6  1  0
  5  7  2  0
  7  8  1  0
  8  9  2  0
  9 10  1  0
 10 11  2  0
 11 12  1  0
 12 13  2  0
 13 14  1  0
 14 15  2  0
 15 16  1  0
 16 17  2  0
 17 18  1  0
 18 19  2  0
 19 20  1  0
 20 21  2  0
 21 22  1  0
 22 23  2  0
 11 24  1  0
 24 25  1  0
 25 26  1  0
 26 27  2  0
 27 28  1  0
 28 29  2  0
 29 30  1  0
 30 31  2  0
 24  2  1  0
 31 26  1  0
  9  3  1  0
 23 14  1  0
 22 17  1  0
  4 32  1  0
  7 33  1  0
  8 34  1  0
 12 35  1  0
 13 36  1  0
 15 37  1  0
 18 38  1  0
 19 39  1  0
 20 40  1  0
 21 41  1  0
 23 42  1  0
 25 43  1  0
 25 44  1  0
 27 45  1  0
 28 46  1  0
 29 47  1  0
 30 48  1  0
 31 49  1  0
M  END
>  <smiles>  (17) 
O=c1c2cc(F)ccc2nc(/C=C/c2cnc3ccccc3c2)n1Cc1ccccc1

>  <score_type>  (17) 
oracle

>  <origin>  (17) 
autodockgpu

>  <m_score__min__energy>  (17) 
-9.6699999999999999

>  <m_primary>  (17) 
energy

>  <meeko>  (17) 
{"free_energy": -8.88, "intermolecular_energy": -10.37, "internal_energy": -1.29, "cluster_size": 5, "cluster_id": 3, "rank_in_cluster": 4}

>  <energy>  (17) 
-8.88

>  <cluster_rmsd>  (17) 
0.12

>  <rmsd>  (17) 
271.53

>  <cluster>  (17) 
3

$$$$

     RDKit          3D

 49 53  0  0  0  0  0  0  0  0999 V2000
  142.8320   76.1700  220.0530 O   0  0  0  0  0  0  0  0  0  0  0  0
  142.4430   75.0500  220.4870 C   0  0  0  0  0  0  0  0  0  0  0  0
  143.3520   74.0110  220.3550 C   0  0  0  0  0  0  0  0  0  0  0  0
  144.5930   74.2080  219.7820 C   0  0  0  0  0  0  0  0  0  0  0  0
  145.5050   73.1780  219.6460 C   0  0  0  0  0  0  0  0  0  0  0  0
  146.7080   73.4350  219.0760 F   0  0  0  0  0  0  0  0  0  0  0  0
  145.1390   71.9290  220.1030 C   0  0  0  0  0  0  0  0  0  0  0  0
  143.9120   71.6950  220.6790 C   0  0  0  0  0  0  0  0  0  0  0  0
  143.0150   72.7420  220.8040 C   0  0  0  0  0  0  0  0  0  0  0  0
  141.8050   72.6030  221.3500 N   0  0  0  0  0  0  0  0  0  0  0  0
  140.9320   73.6300  221.4700 C   0  0  0  0  0  0  0  0  0  0  0  0
  139.6570   73.3170  222.1110 C   0  0  0  0  0  0  0  0  0  0  0  0
  139.2670   72.0730  222.2740 C   0  0  0  0  0  0  0  0  0  0  0  0
  139.4810   71.2880  223.4800 C   0  0  0  0  0  0  0  0  0  0  0  0
  139.0980   69.9710  223.6190 C   0  0  0  0  0  0  0  0  0  0  0  0
  139.3010   69.2530  224.7410 N   0  0  0  0  0  0  0  0  0  0  0  0
  139.9070   69.8630  225.7710 C   0  0  0  0  0  0  0  0  0  0  0  0
  140.0990   69.0890  226.9140 C   0  0  0  0  0  0  0  0  0  0  0  0
  140.7280   69.6800  228.0160 C   0  0  0  0  0  0  0  0  0  0  0  0
  141.1500   71.0080  227.9700 C   0  0  0  0  0  0  0  0  0  0  0  0
  140.9420   71.7280  226.8330 C   0  0  0  0  0  0  0  0  0  0  0  0
  140.3270   71.1730  225.7360 C   0  0  0  0  0  0  0  0  0  0  0  0
  140.1000   71.8700  224.5680 C   0  0  0  0  0  0  0  0  0  0  0  0
  141.2190   74.8730  221.0470 N   0  0  0  0  0  0  0  0  0  0  0  0
  140.2940   75.9840  221.1360 C   0  0  0  0  0  0  0  0  0  0  0  0
  140.8670   77.2020  221.7370 C   0  0  0  0  0  0  0  0  0  0  0  0
  141.1230   77.3830  223.0720 C   0  0  0  0  0  0  0  0  0  0  0  0
  141.6760   78.5620  223.5840 C   0  0  0  0  0  0  0  0  0  0  0  0
  141.9910   79.6080  222.7470 C   0  0  0  0  0  0  0  0  0  0  0  0
  141.7450   79.4460  221.4110 C   0  0  0  0  0  0  0  0  0  0  0  0
  141.1980   78.2800  220.9030 C   0  0  0  0  0  0  0  0  0  0  0  0
  144.8633   75.2123  219.4239 H   0  0  0  0  0  0  0  0  0  0  0  0
  145.8496   71.0952  220.0038 H   0  0  0  0  0  0  0  0  0  0  0  0
  143.6469   70.6888  221.0357 H   0  0  0  0  0  0  0  0  0  0  0  0
  139.0129   74.1364  222.4629 H   0  0  0  0  0  0  0  0  0  0  0  0
  138.7404   71.5899  221.4378 H   0  0  0  0  0  0  0  0  0  0  0  0
  138.6006   69.4805  222.7693 H   0  0  0  0  0  0  0  0  0  0  0  0
  139.7651   68.0415  226.9492 H   0  0  0  0  0  0  0  0  0  0  0  0
  140.8913   69.0894  228.9295 H   0  0  0  0  0  0  0  0  0  0  0  0
  141.6436   71.4673  228.8391 H   0  0  0  0  0  0  0  0  0  0  0  0
  141.2732   72.7761  226.7915 H   0  0  0  0  0  0  0  0  0  0  0  0
  140.4214   72.9199  224.5013 H   0  0  0  0  0  0  0  0  0  0  0  0
  139.9511   76.2294  220.1200 H   0  0  0  0  0  0  0  0  0  0  0  0
  139.4756   75.6612  221.7963 H   0  0  0  0  0  0  0  0  0  0  0  0
  140.8836   76.5670  223.7697 H   0  0  0  0  0  0  0  0  0  0  0  0
  141.8605   78.6535  224.6646 H   0  0  0  0  0  0  0  0  0  0  0  0
  142.4247   80.5403  223.1379 H   0  0  0  0  0  0  0  0  0  0  0  0
  141.9890   80.2664  220.7200 H   0  0  0  0  0  0  0  0  0  0  0  0
  141.0189   78.1972  219.8208 H   0  0  0  0  0  0  0  0  0  0  0  0
  1  2  2  0
  2  3  1  0
  3  4  2  0
  4  5  1  0
  5  6  1  0
  5  7  2  0
  7  8  1  0
  8  9  2  0
  9 10  1  0
 10 11  2  0
 11 12  1  0
 12 13  2  0
 13 14  1  0
 14 15  2  0
 15 16  1  0
 16 17  2  0
 17 18  1  0
 18 19  2  0
 19 20  1  0
 20 21  2  0
 21 22  1  0
 22 23  2  0
 11 24  1  0
 24 25  1  0
 25 26  1  0
 26 27  2  0
 27 28  1  0
 28 29  2  0
 29 30  1  0
 30 31  2  0
 24  2  1  0
 31 26  1  0
  9  3  1  0
 23 14  1  0
 22 17  1  0
  4 32  1  0
  7 33  1  0
  8 34  1  0
 12 35  1  0
 13 36  1  0
 15 37  1  0
 18 38  1  0
 19 39  1  0
 20 40  1  0
 21 41  1  0
 23 42  1  0
 25 43  1  0
 25 44  1  0
 27 45  1  0
 28 46  1  0
 29 47  1  0
 30 48  1  0
 31 49  1  0
M  END
>  <smiles>  (18) 
O=c1c2cc(F)ccc2nc(/C=C/c2cnc3ccccc3c2)n1Cc1ccccc1

>  <score_type>  (18) 
oracle

>  <origin>  (18) 
autodockgpu

>  <m_score__min__energy>  (18) 
-9.6699999999999999

>  <m_primary>  (18) 
energy

>  <meeko>  (18) 
{"free_energy": -9.39, "intermolecular_energy": -10.89, "internal_energy": -1.11, "cluster_size": 12, "cluster_id": 1, "rank_in_cluster": 10}

>  <energy>  (18) 
-8.53

>  <cluster_rmsd>  (18) 
0.67

>  <rmsd>  (18) 
271.45

>  <cluster>  (18) 
3

$$$$

     RDKit          3D

 49 53  0  0  0  0  0  0  0  0999 V2000
  142.8680   76.2630  219.3470 O   0  0  0  0  0  0  0  0  0  0  0  0
  142.0060   75.8600  220.1760 C   0  0  0  0  0  0  0  0  0  0  0  0
  141.4490   76.8430  220.9810 C   0  0  0  0  0  0  0  0  0  0  0  0
  141.8270   78.1660  220.8690 C   0  0  0  0  0  0  0  0  0  0  0  0
  141.2780   79.1520  221.6670 C   0  0  0  0  0  0  0  0  0  0  0  0
  141.6900   80.4340  221.5080 F   0  0  0  0  0  0  0  0  0  0  0  0
  140.3280   78.7750  222.5930 C   0  0  0  0  0  0  0  0  0  0  0  0
  139.9250   77.4670  222.7340 C   0  0  0  0  0  0  0  0  0  0  0  0
  140.4900   76.4980  221.9240 C   0  0  0  0  0  0  0  0  0  0  0  0
  140.1590   75.2070  221.9930 N   0  0  0  0  0  0  0  0  0  0  0  0
  140.7130   74.2630  221.1980 C   0  0  0  0  0  0  0  0  0  0  0  0
  140.2250   72.8990  221.3850 C   0  0  0  0  0  0  0  0  0  0  0  0
  140.9140   72.0200  222.0760 C   0  0  0  0  0  0  0  0  0  0  0  0
  140.4620   71.3980  223.3110 C   0  0  0  0  0  0  0  0  0  0  0  0
  139.5800   70.3410  223.3620 C   0  0  0  0  0  0  0  0  0  0  0  0
  139.1680   69.7720  224.5130 N   0  0  0  0  0  0  0  0  0  0  0  0
  139.6470   70.2710  225.6620 C   0  0  0  0  0  0  0  0  0  0  0  0
  139.1980   69.6580  226.8310 C   0  0  0  0  0  0  0  0  0  0  0  0
  139.6710   70.1420  228.0560 C   0  0  0  0  0  0  0  0  0  0  0  0
  140.5660   71.2090  228.1050 C   0  0  0  0  0  0  0  0  0  0  0  0
  140.9790   71.7790  226.9390 C   0  0  0  0  0  0  0  0  0  0  0  0
  140.5310   71.3240  225.7220 C   0  0  0  0  0  0  0  0  0  0  0  0
  140.9270   71.8750  224.5210 C   0  0  0  0  0  0  0  0  0  0  0  0
  141.6450   74.5550  220.2750 N   0  0  0  0  0  0  0  0  0  0  0  0
  142.2770   73.5620  219.4300 C   0  0  0  0  0  0  0  0  0  0  0  0
  143.6530   73.2160  219.8280 C   0  0  0  0  0  0  0  0  0  0  0  0
  144.3780   72.1590  219.3380 C   0  0  0  0  0  0  0  0  0  0  0  0
  145.6860   71.8840  219.7500 C   0  0  0  0  0  0  0  0  0  0  0  0
  146.3100   72.6820  220.6810 C   0  0  0  0  0  0  0  0  0  0  0  0
  145.6040   73.7430  221.1800 C   0  0  0  0  0  0  0  0  0  0  0  0
  144.3090   74.0170  220.7740 C   0  0  0  0  0  0  0  0  0  0  0  0
  142.5867   78.4434  220.1234 H   0  0  0  0  0  0  0  0  0  0  0  0
  139.8786   79.5438  223.2388 H   0  0  0  0  0  0  0  0  0  0  0  0
  139.1641   77.1954  223.4805 H   0  0  0  0  0  0  0  0  0  0  0  0
  139.2639   72.6029  220.9394 H   0  0  0  0  0  0  0  0  0  0  0  0
  141.9046   71.7333  221.6932 H   0  0  0  0  0  0  0  0  0  0  0  0
  139.1915   69.9402  222.4142 H   0  0  0  0  0  0  0  0  0  0  0  0
  138.4908   68.8164  226.7915 H   0  0  0  0  0  0  0  0  0  0  0  0
  139.3320   69.6742  228.9921 H   0  0  0  0  0  0  0  0  0  0  0  0
  140.9335   71.5853  229.0711 H   0  0  0  0  0  0  0  0  0  0  0  0
  141.6859   72.6211  226.9720 H   0  0  0  0  0  0  0  0  0  0  0  0
  141.6332   72.7183  224.5271 H   0  0  0  0  0  0  0  0  0  0  0  0
  141.6687   72.6460  219.4603 H   0  0  0  0  0  0  0  0  0  0  0  0
  142.3403   73.9991  218.4226 H   0  0  0  0  0  0  0  0  0  0  0  0
  143.9112   71.5008  218.5904 H   0  0  0  0  0  0  0  0  0  0  0  0
  146.2209   71.0215  219.3257 H   0  0  0  0  0  0  0  0  0  0  0  0
  147.3383   72.4749  221.0121 H   0  0  0  0  0  0  0  0  0  0  0  0
  146.0794   74.3973  221.9255 H   0  0  0  0  0  0  0  0  0  0  0  0
  143.7828   74.8824  221.2031 H   0  0  0  0  0  0  0  0  0  0  0  0
  1  2  2  0
  2  3  1  0
  3  4  2  0
  4  5  1  0
  5  6  1  0
  5  7  2  0
  7  8  1  0
  8  9  2  0
  9 10  1  0
 10 11  2  0
 11 12  1  0
 12 13  2  0
 13 14  1  0
 14 15  2  0
 15 16  1  0
 16 17  2  0
 17 18  1  0
 18 19  2  0
 19 20  1  0
 20 21  2  0
 21 22  1  0
 22 23  2  0
 11 24  1  0
 24 25  1  0
 25 26  1  0
 26 27  2  0
 27 28  1  0
 28 29  2  0
 29 30  1  0
 30 31  2  0
 24  2  1  0
 31 26  1  0
  9  3  1  0
 23 14  1  0
 22 17  1  0
  4 32  1  0
  7 33  1  0
  8 34  1  0
 12 35  1  0
 13 36  1  0
 15 37  1  0
 18 38  1  0
 19 39  1  0
 20 40  1  0
 21 41  1  0
 23 42  1  0
 25 43  1  0
 25 44  1  0
 27 45  1  0
 28 46  1  0
 29 47  1  0
 30 48  1  0
 31 49  1  0
M  END
>  <smiles>  (19) 
O=c1c2cc(F)ccc2nc(/C=C/c2cnc3ccccc3c2)n1Cc1ccccc1

>  <score_type>  (19) 
oracle

>  <origin>  (19) 
autodockgpu

>  <m_score__min__energy>  (19) 
-9.6699999999999999

>  <m_primary>  (19) 
energy

>  <meeko>  (19) 
{"free_energy": -9.29, "intermolecular_energy": -10.78, "internal_energy": -1.17, "cluster_size": 12, "cluster_id": 1, "rank_in_cluster": 12}

>  <energy>  (19) 
-8.64

>  <cluster_rmsd>  (19) 
0.0

>  <rmsd>  (19) 
271.17

>  <cluster>  (19) 
4

$$$$

     RDKit          3D

 49 53  0  0  0  0  0  0  0  0999 V2000
  142.6930   76.2590  219.5300 O   0  0  0  0  0  0  0  0  0  0  0  0
  141.8390   75.9770  220.4160 C   0  0  0  0  0  0  0  0  0  0  0  0
  141.3730   77.0530  221.1580 C   0  0  0  0  0  0  0  0  0  0  0  0
  141.8280   78.3370  220.9280 C   0  0  0  0  0  0  0  0  0  0  0  0
  141.3700   79.4140  221.6630 C   0  0  0  0  0  0  0  0  0  0  0  0
  141.8540   80.6510  221.3900 F   0  0  0  0  0  0  0  0  0  0  0  0
  140.4330   79.1720  222.6470 C   0  0  0  0  0  0  0  0  0  0  0  0
  139.9570   77.9070  222.9040 C   0  0  0  0  0  0  0  0  0  0  0  0
  140.4310   76.8440  222.1550 C   0  0  0  0  0  0  0  0  0  0  0  0
  140.0240   75.5860  222.3370 N   0  0  0  0  0  0  0  0  0  0  0  0
  140.4900   74.5500  221.6030 C   0  0  0  0  0  0  0  0  0  0  0  0
  139.9250   73.2380  221.9120 C   0  0  0  0  0  0  0  0  0  0  0  0
  140.6690   72.2840  222.4260 C   0  0  0  0  0  0  0  0  0  0  0  0
  140.3040   71.4810  223.5820 C   0  0  0  0  0  0  0  0  0  0  0  0
  139.5790   70.3110  223.5090 C   0  0  0  0  0  0  0  0  0  0  0  0
  139.2460   69.5740  224.5870 N   0  0  0  0  0  0  0  0  0  0  0  0
  139.6460   70.0130  225.7900 C   0  0  0  0  0  0  0  0  0  0  0  0
  139.2830   69.2250  226.8810 C   0  0  0  0  0  0  0  0  0  0  0  0
  139.6780   69.6400  228.1580 C   0  0  0  0  0  0  0  0  0  0  0  0
  140.4140   70.8110  228.3330 C   0  0  0  0  0  0  0  0  0  0  0  0
  140.7470   71.5510  227.2390 C   0  0  0  0  0  0  0  0  0  0  0  0
  140.3730   71.1670  225.9730 C   0  0  0  0  0  0  0  0  0  0  0  0
  140.6920   71.8900  224.8430 C   0  0  0  0  0  0  0  0  0  0  0  0
  141.4030   74.7090  220.6300 N   0  0  0  0  0  0  0  0  0  0  0  0
  141.9410   73.6160  219.8470 C   0  0  0  0  0  0  0  0  0  0  0  0
  143.3660   73.3360  220.0960 C   0  0  0  0  0  0  0  0  0  0  0  0
  144.2070   74.1160  220.8490 C   0  0  0  0  0  0  0  0  0  0  0  0
  145.5530   73.7960  221.0570 C   0  0  0  0  0  0  0  0  0  0  0  0
  146.0950   72.6590  220.5010 C   0  0  0  0  0  0  0  0  0  0  0  0
  145.2730   71.8670  219.7480 C   0  0  0  0  0  0  0  0  0  0  0  0
  143.9400   72.1830  219.5420 C   0  0  0  0  0  0  0  0  0  0  0  0
  142.5750   78.5067  220.1385 H   0  0  0  0  0  0  0  0  0  0  0  0
  140.0555   80.0156  223.2435 H   0  0  0  0  0  0  0  0  0  0  0  0
  139.2097   77.7426  223.6942 H   0  0  0  0  0  0  0  0  0  0  0  0
  138.8607   73.0459  221.7113 H   0  0  0  0  0  0  0  0  0  0  0  0
  141.6377   72.0783  221.9470 H   0  0  0  0  0  0  0  0  0  0  0  0
  139.2550   69.9602  222.5181 H   0  0  0  0  0  0  0  0  0  0  0  0
  138.7016   68.3016  226.7420 H   0  0  0  0  0  0  0  0  0  0  0  0
  139.4042   69.0346  229.0346 H   0  0  0  0  0  0  0  0  0  0  0  0
  140.7211   71.1324  229.3392 H   0  0  0  0  0  0  0  0  0  0  0  0
  141.3277   72.4758  227.3713 H   0  0  0  0  0  0  0  0  0  0  0  0
  141.2719   72.8187  224.9488 H   0  0  0  0  0  0  0  0  0  0  0  0
  141.3654   72.7083  220.0813 H   0  0  0  0  0  0  0  0  0  0  0  0
  141.8582   73.9139  218.7914 H   0  0  0  0  0  0  0  0  0  0  0  0
  143.8060   75.0315  221.3085 H   0  0  0  0  0  0  0  0  0  0  0  0
  146.1830   74.4578  221.6694 H   0  0  0  0  0  0  0  0  0  0  0  0
  147.1519   72.3970  220.6570 H   0  0  0  0  0  0  0  0  0  0  0  0
  145.6819   70.9529  219.2928 H   0  0  0  0  0  0  0  0  0  0  0  0
  143.3176   71.5139  218.9297 H   0  0  0  0  0  0  0  0  0  0  0  0
  1  2  2  0
  2  3  1  0
  3  4  2  0
  4  5  1  0
  5  6  1  0
  5  7  2  0
  7  8  1  0
  8  9  2  0
  9 10  1  0
 10 11  2  0
 11 12  1  0
 12 13  2  0
 13 14  1  0
 14 15  2  0
 15 16  1  0
 16 17  2  0
 17 18  1  0
 18 19  2  0
 19 20  1  0
 20 21  2  0
 21 22  1  0
 22 23  2  0
 11 24  1  0
 24 25  1  0
 25 26  1  0
 26 27  2  0
 27 28  1  0
 28 29  2  0
 29 30  1  0
 30 31  2  0
 24  2  1  0
 31 26  1  0
  9  3  1  0
 23 14  1  0
 22 17  1  0
  4 32  1  0
  7 33  1  0
  8 34  1  0
 12 35  1  0
 13 36  1  0
 15 37  1  0
 18 38  1  0
 19 39  1  0
 20 40  1  0
 21 41  1  0
 23 42  1  0
 25 43  1  0
 25 44  1  0
 27 45  1  0
 28 46  1  0
 29 47  1  0
 30 48  1  0
 31 49  1  0
M  END
>  <smiles>  (20) 
O=c1c2cc(F)ccc2nc(/C=C/c2cnc3ccccc3c2)n1Cc1ccccc1

>  <score_type>  (20) 
oracle

>  <origin>  (20) 
autodockgpu

>  <m_score__min__energy>  (20) 
-9.6699999999999999

>  <m_primary>  (20) 
energy

>  <meeko>  (20) 
{"free_energy": -9.64, "intermolecular_energy": -11.13, "internal_energy": -1.05, "cluster_size": 12, "cluster_id": 1, "rank_in_cluster": 2}

>  <energy>  (20) 
-8.27

>  <cluster_rmsd>  (20) 
0.78

>  <rmsd>  (20) 
271.0

>  <cluster>  (20) 
4

$$$$
