DWYNEBQVPRLYJI-JJGLYHRGNA-M
     RDKit          3D

 58 61  0  0  0  0  0  0  0  0999 V2000
  141.2650   67.9630  218.3710 C   0  0  0  0  0  0  0  0  0  0  0  0
  142.4110   68.7900  217.7690 C   0  0  1  0  0  0  0  0  0  0  0  0
  142.2900   70.1890  218.1720 N   0  0  0  0  0  0  0  0  0  0  0  0
  142.9880   70.7560  219.2890 C   0  0  0  0  0  0  0  0  0  0  0  0
  142.7690   70.3370  220.4560 O   0  0  0  0  0  0  0  0  0  0  0  0
  143.9260   71.9110  219.0810 C   0  0  2  0  0  0  0  0  0  0  0  0
  145.3700   71.5060  219.3970 C   0  0  0  0  0  0  0  0  0  0  0  0
  145.9680   72.6750  220.1900 C   0  0  1  0  0  0  0  0  0  0  0  0
  146.7520   73.5050  219.3620 O   0  0  0  0  0  0  0  0  0  0  0  0
  144.7730   73.4410  220.7650 C   0  0  0  0  0  0  0  0  0  0  0  0
  143.6230   73.0210  219.9800 N   0  0  0  0  0  0  0  0  0  0  0  0
  142.3600   73.7170  220.0590 C   0  0  0  0  0  0  0  0  0  0  0  0
  142.3550   74.9630  220.2700 O   0  0  0  0  0  0  0  0  0  0  0  0
  141.0390   73.0080  219.9270 C   0  0  0  0  0  0  0  0  0  0  0  0
  140.8360   72.0700  221.0330 N   0  0  0  0  0  0  0  0  0  0  0  0
  140.3120   72.5080  222.2940 C   0  0  0  0  0  0  0  0  0  0  0  0
  139.9490   73.7110  222.4360 O   0  0  0  0  0  0  0  0  0  0  0  0
  140.1840   71.5620  223.4240 C   0  0  0  0  0  0  0  0  0  0  0  0
  139.5810   70.3040  223.2500 C   0  0  0  0  0  0  0  0  0  0  0  0
  139.4950   69.4220  224.3300 C   0  0  0  0  0  0  0  0  0  0  0  0
  140.0110   69.7950  225.5770 C   0  0  0  0  0  0  0  0  0  0  0  0
  139.9590   68.9260  226.6750 C   0  0  0  0  0  0  0  0  0  0  0  0
  140.4830   69.3290  227.9090 C   0  0  0  0  0  0  0  0  0  0  0  0
  140.4370   68.4870  228.9690 F   0  0  0  0  0  0  0  0  0  0  0  0
  141.0560   70.5990  228.0520 C   0  0  0  0  0  0  0  0  0  0  0  0
  141.1140   71.4690  226.9590 C   0  0  0  0  0  0  0  0  0  0  0  0
  140.5970   71.0720  225.7200 C   0  0  0  0  0  0  0  0  0  0  0  0
  140.6680   71.9080  224.6520 N   0  0  0  0  0  0  0  0  0  0  0  0
  143.7970   68.2870  218.1350 C   0  0  0  0  0  0  0  0  0  0  0  0
  144.9180   68.4500  217.2910 C   0  0  0  0  0  0  0  0  0  0  0  0
  146.1720   67.9620  217.6740 C   0  0  0  0  0  0  0  0  0  0  0  0
  146.3220   67.2850  218.8870 C   0  0  0  0  0  0  0  0  0  0  0  0
  145.2130   67.0750  219.7090 C   0  0  0  0  0  0  0  0  0  0  0  0
  143.9580   67.5660  219.3340 C   0  0  0  0  0  0  0  0  0  0  0  0
  141.3210   68.0034  219.4688 H   0  0  0  0  0  0  0  0  0  0  0  0
  140.3011   68.3750  218.0376 H   0  0  0  0  0  0  0  0  0  0  0  0
  141.3522   66.9184  218.0376 H   0  0  0  0  0  0  0  0  0  0  0  0
  142.3108   68.6842  216.6787 H   0  0  0  0  0  0  0  0  0  0  0  0
  143.8052   72.2098  218.0293 H   0  0  0  0  0  0  0  0  0  0  0  0
  145.3866   70.5860  219.9998 H   0  0  0  0  0  0  0  0  0  0  0  0
  145.9434   71.3032  218.4804 H   0  0  0  0  0  0  0  0  0  0  0  0
  146.6387   72.3184  220.9856 H   0  0  0  0  0  0  0  0  0  0  0  0
  146.3520   74.4140  219.3730 H   0  0  0  0  0  0  0  0  0  0  0  0
  144.6278   73.1859  221.8251 H   0  0  0  0  0  0  0  0  0  0  0  0
  144.9248   74.5292  220.7133 H   0  0  0  0  0  0  0  0  0  0  0  0
  140.2289   73.7521  219.9327 H   0  0  0  0  0  0  0  0  0  0  0  0
  141.0361   72.4436  218.9828 H   0  0  0  0  0  0  0  0  0  0  0  0
  141.1100   71.0680  220.9150 H   0  0  0  0  0  0  0  0  0  0  0  0
  139.1786   70.0154  222.2677 H   0  0  0  0  0  0  0  0  0  0  0  0
  139.0230   68.4368  224.2010 H   0  0  0  0  0  0  0  0  0  0  0  0
  139.5072   67.9288  226.5675 H   0  0  0  0  0  0  0  0  0  0  0  0
  141.4609   70.9124  229.0256 H   0  0  0  0  0  0  0  0  0  0  0  0
  141.5659   72.4655  227.0726 H   0  0  0  0  0  0  0  0  0  0  0  0
  144.8041   68.9645  216.3254 H   0  0  0  0  0  0  0  0  0  0  0  0
  147.0424   68.1117  217.0182 H   0  0  0  0  0  0  0  0  0  0  0  0
  147.3125   66.9179  219.1940 H   0  0  0  0  0  0  0  0  0  0  0  0
  145.3265   66.5224  220.6533 H   0  0  0  0  0  0  0  0  0  0  0  0
  143.0877   67.3871  219.9825 H   0  0  0  0  0  0  0  0  0  0  0  0
  1  2  1  0
  2  3  1  0
  3  4  1  0
  4  5  2  0
  4  6  1  0
  6  7  1  0
  7  8  1  0
  8  9  1  0
  8 10  1  0
 10 11  1  0
 11 12  1  0
 12 13  2  0
 12 14  1  0
 14 15  1  0
 15 16  1  0
 16 17  2  0
 16 18  1  0
 18 19  2  0
 19 20  1  0
 20 21  2  0
 21 22  1  0
 22 23  2  0
 23 24  1  0
 23 25  1  0
 25 26  2  0
 26 27  1  0
 27 28  2  0
  2 29  1  0
 29 30  2  0
 30 31  1  0
 31 32  2  0
 32 33  1  0
 33 34  2  0
 11  6  1  0
 28 18  1  0
 34 29  1  0
 27 21  1  0
  1 35  1  0
  1 36  1  0
  1 37  1  0
  2 38  1  6
  6 39  1  6
  7 40  1  0
  7 41  1  0
  8 42  1  1
  9 43  1  0
 10 44  1  0
 10 45  1  0
 14 46  1  0
 14 47  1  0
 15 48  1  0
 19 49  1  0
 20 50  1  0
 22 51  1  0
 25 52  1  0
 26 53  1  0
 30 54  1  0
 31 55  1  0
 32 56  1  0
 33 57  1  0
 34 58  1  0
M  CHG  1   3  -1
M  END
>  <UniqueID>  (1) 
84

>  <SMILES>  (1) 
C[C@@H]([N-]C(=O)[C@@H]1C[C@@H](O)CN1C(=O)CNC(=O)c1ccc2cc(F)ccc2n1)c1ccccc1

>  <Energy>  (1) 
59.316515999798234

>  <Genealogy>  (1) 
C[C@@H]([N-]C(=O)[C@@H]1C[C@@H](O)CN1C(=O)CNC(=O)c1ccc2cc(F)ccc2n1)c1ccccc1 (protonated)
C[C@@H]([N-]C(=O)[C@@H]1C[C@@H](O)CN1C(=O)CNC(=O)c1ccc2cc(F)ccc2n1)c1ccccc1 (3D coordinates assigned)
C[C@@H]([N-]C(=O)[C@@H]1C[C@@H](O)CN1C(=O)CNC(=O)c1ccc2cc(F)ccc2n1)c1ccccc1 (nonaromatic ring conformer: 59.316515999798234 kcal/mol)

>  <smiles>  (1) 
C[C@@H](NC(=O)[C@@H]1C[C@@H](O)CN1C(=O)CNC(=O)c1ccc2cc(F)ccc2n1)c1ccccc1

>  <score_type>  (1) 
oracle

>  <origin>  (1) 
autodockgpu

>  <m_score__min__energy>  (1) 
-9.0600000000000005

>  <m_primary>  (1) 
energy

>  <meeko>  (1) 
{"free_energy": -8.0, "intermolecular_energy": -10.68, "internal_energy": -2.85, "cluster_size": 1, "cluster_id": 2, "rank_in_cluster": 1}

>  <energy>  (1) 
-9.06

>  <cluster_rmsd>  (1) 
0.0

>  <rmsd>  (1) 
271.1

>  <cluster>  (1) 
1

$$$$
DWYNEBQVPRLYJI-JJGLYHRGNA-M
     RDKit          3D

 58 61  0  0  0  0  0  0  0  0999 V2000
  137.7290   79.2970  222.9730 C   0  0  0  0  0  0  0  0  0  0  0  0
  139.0850   78.5960  222.7980 C   0  0  1  0  0  0  0  0  0  0  0  0
  139.1740   77.9930  221.4710 N   0  0  0  0  0  0  0  0  0  0  0  0
  140.2790   78.1980  220.5800 C   0  0  0  0  0  0  0  0  0  0  0  0
  140.2310   79.0970  219.7000 O   0  0  0  0  0  0  0  0  0  0  0  0
  141.4710   77.2840  220.6400 C   0  0  2  0  0  0  0  0  0  0  0  0
  142.3650   77.4700  219.4090 C   0  0  0  0  0  0  0  0  0  0  0  0
  142.7690   76.0580  218.9680 C   0  0  1  0  0  0  0  0  0  0  0  0
  144.0620   75.7310  219.4250 O   0  0  0  0  0  0  0  0  0  0  0  0
  141.7190   75.1190  219.5690 C   0  0  0  0  0  0  0  0  0  0  0  0
  141.0730   75.8780  220.6280 N   0  0  0  0  0  0  0  0  0  0  0  0
  140.2040   75.2430  221.5910 C   0  0  0  0  0  0  0  0  0  0  0  0
  140.0060   75.8030  222.7060 O   0  0  0  0  0  0  0  0  0  0  0  0
  139.5420   73.9180  221.3280 C   0  0  0  0  0  0  0  0  0  0  0  0
  139.6290   73.0470  222.5020 N   0  0  0  0  0  0  0  0  0  0  0  0
  139.7070   71.6210  222.3680 C   0  0  0  0  0  0  0  0  0  0  0  0
  139.7730   71.1050  221.2170 O   0  0  0  0  0  0  0  0  0  0  0  0
  139.7190   70.7540  223.5670 C   0  0  0  0  0  0  0  0  0  0  0  0
  139.1880   69.4520  223.5230 C   0  0  0  0  0  0  0  0  0  0  0  0
  139.2330   68.6480  224.6650 C   0  0  0  0  0  0  0  0  0  0  0  0
  139.8080   69.1410  225.8420 C   0  0  0  0  0  0  0  0  0  0  0  0
  139.8890   68.3530  226.9980 C   0  0  0  0  0  0  0  0  0  0  0  0
  140.4680   68.8760  228.1600 C   0  0  0  0  0  0  0  0  0  0  0  0
  140.5500   68.1120  229.2760 F   0  0  0  0  0  0  0  0  0  0  0  0
  140.9670   70.1850  228.1730 C   0  0  0  0  0  0  0  0  0  0  0  0
  140.8930   70.9750  227.0220 C   0  0  0  0  0  0  0  0  0  0  0  0
  140.3190   70.4580  225.8550 C   0  0  0  0  0  0  0  0  0  0  0  0
  140.2620   71.2160  224.7290 N   0  0  0  0  0  0  0  0  0  0  0  0
  140.2840   79.5050  223.0120 C   0  0  0  0  0  0  0  0  0  0  0  0
  140.3170   80.8450  222.5670 C   0  0  0  0  0  0  0  0  0  0  0  0
  141.4490   81.6370  222.7840 C   0  0  0  0  0  0  0  0  0  0  0  0
  142.5700   81.1010  223.4240 C   0  0  0  0  0  0  0  0  0  0  0  0
  142.5680   79.7640  223.8270 C   0  0  0  0  0  0  0  0  0  0  0  0
  141.4370   78.9690  223.6180 C   0  0  0  0  0  0  0  0  0  0  0  0
  137.5103   79.4100  224.0451 H   0  0  0  0  0  0  0  0  0  0  0  0
  137.7654   80.2892  222.4996 H   0  0  0  0  0  0  0  0  0  0  0  0
  136.9405   78.6936  222.4996 H   0  0  0  0  0  0  0  0  0  0  0  0
  139.1242   77.8263  223.5828 H   0  0  0  0  0  0  0  0  0  0  0  0
  141.9983   77.5387  221.5712 H   0  0  0  0  0  0  0  0  0  0  0  0
  141.8104   77.9779  218.6062 H   0  0  0  0  0  0  0  0  0  0  0  0
  143.2446   78.0896  219.6377 H   0  0  0  0  0  0  0  0  0  0  0  0
  142.8039   75.9753  217.8717 H   0  0  0  0  0  0  0  0  0  0  0  0
  144.6550   75.6450  218.6330 H   0  0  0  0  0  0  0  0  0  0  0  0
  140.9845   74.8254  218.8046 H   0  0  0  0  0  0  0  0  0  0  0  0
  142.1735   74.1934  219.9519 H   0  0  0  0  0  0  0  0  0  0  0  0
  138.4831   74.0871  221.0829 H   0  0  0  0  0  0  0  0  0  0  0  0
  140.0578   73.4284  220.4888 H   0  0  0  0  0  0  0  0  0  0  0  0
  139.6010   73.4690  223.4590 H   0  0  0  0  0  0  0  0  0  0  0  0
  138.7397   69.0689  222.5944 H   0  0  0  0  0  0  0  0  0  0  0  0
  138.8174   67.6299  224.6390 H   0  0  0  0  0  0  0  0  0  0  0  0
  139.4981   67.3248  226.9922 H   0  0  0  0  0  0  0  0  0  0  0  0
  141.4177   70.5918  229.0903 H   0  0  0  0  0  0  0  0  0  0  0  0
  141.2857   72.0024  227.0336 H   0  0  0  0  0  0  0  0  0  0  0  0
  139.4459   81.2688  222.0459 H   0  0  0  0  0  0  0  0  0  0  0  0
  141.4572   82.6850  222.4500 H   0  0  0  0  0  0  0  0  0  0  0  0
  143.4522   81.7312  223.6099 H   0  0  0  0  0  0  0  0  0  0  0  0
  143.4584   79.3352  224.3101 H   0  0  0  0  0  0  0  0  0  0  0  0
  141.4477   77.9142  223.9300 H   0  0  0  0  0  0  0  0  0  0  0  0
  1  2  1  0
  2  3  1  0
  3  4  1  0
  4  5  2  0
  4  6  1  0
  6  7  1  0
  7  8  1  0
  8  9  1  0
  8 10  1  0
 10 11  1  0
 11 12  1  0
 12 13  2  0
 12 14  1  0
 14 15  1  0
 15 16  1  0
 16 17  2  0
 16 18  1  0
 18 19  2  0
 19 20  1  0
 20 21  2  0
 21 22  1  0
 22 23  2  0
 23 24  1  0
 23 25  1  0
 25 26  2  0
 26 27  1  0
 27 28  2  0
  2 29  1  0
 29 30  2  0
 30 31  1  0
 31 32  2  0
 32 33  1  0
 33 34  2  0
 11  6  1  0
 28 18  1  0
 34 29  1  0
 27 21  1  0
  1 35  1  0
  1 36  1  0
  1 37  1  0
  2 38  1  1
  6 39  1  1
  7 40  1  0
  7 41  1  0
  8 42  1  6
  9 43  1  0
 10 44  1  0
 10 45  1  0
 14 46  1  0
 14 47  1  0
 15 48  1  0
 19 49  1  0
 20 50  1  0
 22 51  1  0
 25 52  1  0
 26 53  1  0
 30 54  1  0
 31 55  1  0
 32 56  1  0
 33 57  1  0
 34 58  1  0
M  CHG  1   3  -1
M  END
>  <UniqueID>  (2) 
84

>  <SMILES>  (2) 
C[C@@H]([N-]C(=O)[C@@H]1C[C@@H](O)CN1C(=O)CNC(=O)c1ccc2cc(F)ccc2n1)c1ccccc1

>  <Energy>  (2) 
59.316515999798234

>  <Genealogy>  (2) 
C[C@@H]([N-]C(=O)[C@@H]1C[C@@H](O)CN1C(=O)CNC(=O)c1ccc2cc(F)ccc2n1)c1ccccc1 (protonated)
C[C@@H]([N-]C(=O)[C@@H]1C[C@@H](O)CN1C(=O)CNC(=O)c1ccc2cc(F)ccc2n1)c1ccccc1 (3D coordinates assigned)
C[C@@H]([N-]C(=O)[C@@H]1C[C@@H](O)CN1C(=O)CNC(=O)c1ccc2cc(F)ccc2n1)c1ccccc1 (nonaromatic ring conformer: 59.316515999798234 kcal/mol)

>  <smiles>  (2) 
C[C@@H](NC(=O)[C@@H]1C[C@@H](O)CN1C(=O)CNC(=O)c1ccc2cc(F)ccc2n1)c1ccccc1

>  <score_type>  (2) 
oracle

>  <origin>  (2) 
autodockgpu

>  <m_score__min__energy>  (2) 
-9.0600000000000005

>  <m_primary>  (2) 
energy

>  <meeko>  (2) 
{"free_energy": -8.63, "intermolecular_energy": -11.31, "internal_energy": -2.08, "cluster_size": 11, "cluster_id": 1, "rank_in_cluster": 6}

>  <energy>  (2) 
-8.87

>  <cluster_rmsd>  (2) 
1.4

>  <rmsd>  (2) 
271.12

>  <cluster>  (2) 
1

$$$$
DWYNEBQVPRLYJI-JJGLYHRGNA-M
     RDKit          3D

 58 61  0  0  0  0  0  0  0  0999 V2000
  141.9280   77.4580  219.7990 C   0  0  0  0  0  0  0  0  0  0  0  0
  141.0750   77.6340  221.0640 C   0  0  1  0  0  0  0  0  0  0  0  0
  141.1110   76.4170  221.8710 N   0  0  0  0  0  0  0  0  0  0  0  0
  140.0280   75.4800  221.9430 C   0  0  0  0  0  0  0  0  0  0  0  0
  138.9000   75.8410  222.3710 O   0  0  0  0  0  0  0  0  0  0  0  0
  140.2570   74.0390  221.5810 C   0  0  2  0  0  0  0  0  0  0  0  0
  141.7150   73.8040  221.1710 C   0  0  0  0  0  0  0  0  0  0  0  0
  141.6610   72.8930  219.9380 C   0  0  1  0  0  0  0  0  0  0  0  0
  141.9080   71.5490  220.2860 O   0  0  0  0  0  0  0  0  0  0  0  0
  140.2530   73.0620  219.3590 C   0  0  0  0  0  0  0  0  0  0  0  0
  139.4540   73.6390  220.4280 N   0  0  0  0  0  0  0  0  0  0  0  0
  138.0150   73.7070  220.3430 C   0  0  0  0  0  0  0  0  0  0  0  0
  137.4830   74.4850  219.5020 O   0  0  0  0  0  0  0  0  0  0  0  0
  137.1150   72.9020  221.2420 C   0  0  0  0  0  0  0  0  0  0  0  0
  137.8120   72.5180  222.4720 N   0  0  0  0  0  0  0  0  0  0  0  0
  138.7600   71.4420  222.4860 C   0  0  0  0  0  0  0  0  0  0  0  0
  139.0570   70.8580  221.4050 O   0  0  0  0  0  0  0  0  0  0  0  0
  139.3980   71.0190  223.7510 C   0  0  0  0  0  0  0  0  0  0  0  0
  140.3510   71.8330  224.3890 C   0  0  0  0  0  0  0  0  0  0  0  0
  140.9200   71.4180  225.5950 C   0  0  0  0  0  0  0  0  0  0  0  0
  140.5360   70.1970  226.1630 C   0  0  0  0  0  0  0  0  0  0  0  0
  141.0720   69.7600  227.3820 C   0  0  0  0  0  0  0  0  0  0  0  0
  140.6690   68.5330  227.9220 C   0  0  0  0  0  0  0  0  0  0  0  0
  141.1830   68.1150  229.1030 F   0  0  0  0  0  0  0  0  0  0  0  0
  139.7330   67.7390  227.2480 C   0  0  0  0  0  0  0  0  0  0  0  0
  139.1920   68.1700  226.0330 C   0  0  0  0  0  0  0  0  0  0  0  0
  139.5870   69.3970  225.4890 C   0  0  0  0  0  0  0  0  0  0  0  0
  139.0500   69.8280  224.3170 N   0  0  0  0  0  0  0  0  0  0  0  0
  141.4860   78.8150  221.9290 C   0  0  0  0  0  0  0  0  0  0  0  0
  141.7960   78.6870  223.3000 C   0  0  0  0  0  0  0  0  0  0  0  0
  142.1630   79.8080  224.0520 C   0  0  0  0  0  0  0  0  0  0  0  0
  142.2030   81.0720  223.4570 C   0  0  0  0  0  0  0  0  0  0  0  0
  141.8520   81.2200  222.1130 C   0  0  0  0  0  0  0  0  0  0  0  0
  141.4900   80.1010  221.3550 C   0  0  0  0  0  0  0  0  0  0  0  0
  142.9682   77.2434  220.0851 H   0  0  0  0  0  0  0  0  0  0  0  0
  141.5319   76.6227  219.2029 H   0  0  0  0  0  0  0  0  0  0  0  0
  141.8948   78.3819  219.2029 H   0  0  0  0  0  0  0  0  0  0  0  0
  140.0550   77.8392  220.7069 H   0  0  0  0  0  0  0  0  0  0  0  0
  139.9842   73.4574  222.4739 H   0  0  0  0  0  0  0  0  0  0  0  0
  142.2012   74.7585  220.9210 H   0  0  0  0  0  0  0  0  0  0  0  0
  142.2962   73.3480  221.9860 H   0  0  0  0  0  0  0  0  0  0  0  0
  142.4343   73.1645  219.2043 H   0  0  0  0  0  0  0  0  0  0  0  0
  141.0640   71.1640  220.6410 H   0  0  0  0  0  0  0  0  0  0  0  0
  140.2742   73.7357  218.4897 H   0  0  0  0  0  0  0  0  0  0  0  0
  139.8382   72.1032  219.0146 H   0  0  0  0  0  0  0  0  0  0  0  0
  136.2325   73.5052  221.5015 H   0  0  0  0  0  0  0  0  0  0  0  0
  136.8130   71.9881  220.7095 H   0  0  0  0  0  0  0  0  0  0  0  0
  137.5900   73.0140  223.3650 H   0  0  0  0  0  0  0  0  0  0  0  0
  140.6470   72.7926  223.9400 H   0  0  0  0  0  0  0  0  0  0  0  0
  141.6681   72.0488  226.0975 H   0  0  0  0  0  0  0  0  0  0  0  0
  141.8084   70.3804  227.9137 H   0  0  0  0  0  0  0  0  0  0  0  0
  139.4227   66.7741  227.6754 H   0  0  0  0  0  0  0  0  0  0  0  0
  138.4565   67.5450  225.5053 H   0  0  0  0  0  0  0  0  0  0  0  0
  141.7487   77.6987  223.7806 H   0  0  0  0  0  0  0  0  0  0  0  0
  142.4210   79.6943  225.1153 H   0  0  0  0  0  0  0  0  0  0  0  0
  142.5103   81.9487  224.0460 H   0  0  0  0  0  0  0  0  0  0  0  0
  141.8602   82.2177  221.6499 H   0  0  0  0  0  0  0  0  0  0  0  0
  141.2056   80.2271  220.2999 H   0  0  0  0  0  0  0  0  0  0  0  0
  1  2  1  0
  2  3  1  0
  3  4  1  0
  4  5  2  0
  4  6  1  0
  6  7  1  0
  7  8  1  0
  8  9  1  0
  8 10  1  0
 10 11  1  0
 11 12  1  0
 12 13  2  0
 12 14  1  0
 14 15  1  0
 15 16  1  0
 16 17  2  0
 16 18  1  0
 18 19  2  0
 19 20  1  0
 20 21  2  0
 21 22  1  0
 22 23  2  0
 23 24  1  0
 23 25  1  0
 25 26  2  0
 26 27  1  0
 27 28  2  0
  2 29  1  0
 29 30  2  0
 30 31  1  0
 31 32  2  0
 32 33  1  0
 33 34  2  0
 11  6  1  0
 28 18  1  0
 34 29  1  0
 27 21  1  0
  1 35  1  0
  1 36  1  0
  1 37  1  0
  2 38  1  6
  6 39  1  1
  7 40  1  0
  7 41  1  0
  8 42  1  6
  9 43  1  0
 10 44  1  0
 10 45  1  0
 14 46  1  0
 14 47  1  0
 15 48  1  0
 19 49  1  0
 20 50  1  0
 22 51  1  0
 25 52  1  0
 26 53  1  0
 30 54  1  0
 31 55  1  0
 32 56  1  0
 33 57  1  0
 34 58  1  0
M  CHG  1   3  -1
M  END
>  <UniqueID>  (3) 
84

>  <SMILES>  (3) 
C[C@@H]([N-]C(=O)[C@@H]1C[C@@H](O)CN1C(=O)CNC(=O)c1ccc2cc(F)ccc2n1)c1ccccc1

>  <Energy>  (3) 
59.316515999798234

>  <Genealogy>  (3) 
C[C@@H]([N-]C(=O)[C@@H]1C[C@@H](O)CN1C(=O)CNC(=O)c1ccc2cc(F)ccc2n1)c1ccccc1 (protonated)
C[C@@H]([N-]C(=O)[C@@H]1C[C@@H](O)CN1C(=O)CNC(=O)c1ccc2cc(F)ccc2n1)c1ccccc1 (3D coordinates assigned)
C[C@@H]([N-]C(=O)[C@@H]1C[C@@H](O)CN1C(=O)CNC(=O)c1ccc2cc(F)ccc2n1)c1ccccc1 (nonaromatic ring conformer: 59.316515999798234 kcal/mol)

>  <smiles>  (3) 
C[C@@H](NC(=O)[C@@H]1C[C@@H](O)CN1C(=O)CNC(=O)c1ccc2cc(F)ccc2n1)c1ccccc1

>  <score_type>  (3) 
oracle

>  <origin>  (3) 
autodockgpu

>  <m_score__min__energy>  (3) 
-9.0600000000000005

>  <m_primary>  (3) 
energy

>  <meeko>  (3) 
{"free_energy": -7.39, "intermolecular_energy": -10.07, "internal_energy": -2.83, "cluster_size": 11, "cluster_id": 1, "rank_in_cluster": 10}

>  <energy>  (3) 
-8.8

>  <cluster_rmsd>  (3) 
1.46

>  <rmsd>  (3) 
271.09

>  <cluster>  (3) 
1

$$$$
DWYNEBQVPRLYJI-JJGLYHRGNA-M
     RDKit          3D

 58 61  0  0  0  0  0  0  0  0999 V2000
  142.3850   70.0470  219.5990 C   0  0  0  0  0  0  0  0  0  0  0  0
  142.5690   71.4650  219.0360 C   0  0  1  0  0  0  0  0  0  0  0  0
  141.4140   72.2940  219.3670 N   0  0  0  0  0  0  0  0  0  0  0  0
  140.8620   73.2770  218.4800 C   0  0  0  0  0  0  0  0  0  0  0  0
  140.1300   72.9270  217.5170 O   0  0  0  0  0  0  0  0  0  0  0  0
  141.2230   74.7260  218.6480 C   0  0  2  0  0  0  0  0  0  0  0  0
  142.4270   75.0940  217.7740 C   0  0  0  0  0  0  0  0  0  0  0  0
  143.3280   75.9730  218.6510 C   0  0  1  0  0  0  0  0  0  0  0  0
  143.1430   77.3410  218.3620 O   0  0  0  0  0  0  0  0  0  0  0  0
  142.9340   75.6580  220.0970 C   0  0  0  0  0  0  0  0  0  0  0  0
  141.6260   75.0260  220.0200 N   0  0  0  0  0  0  0  0  0  0  0  0
  140.8170   74.8170  221.1970 C   0  0  0  0  0  0  0  0  0  0  0  0
  141.0680   75.4790  222.2430 O   0  0  0  0  0  0  0  0  0  0  0  0
  139.6950   73.8150  221.2370 C   0  0  0  0  0  0  0  0  0  0  0  0
  139.8050   72.9530  222.4160 N   0  0  0  0  0  0  0  0  0  0  0  0
  139.6830   71.5270  222.3100 C   0  0  0  0  0  0  0  0  0  0  0  0
  139.5510   70.9940  221.1720 O   0  0  0  0  0  0  0  0  0  0  0  0
  139.7220   70.6790  223.5210 C   0  0  0  0  0  0  0  0  0  0  0  0
  139.1950   69.3750  223.5090 C   0  0  0  0  0  0  0  0  0  0  0  0
  139.2660   68.5890  224.6610 C   0  0  0  0  0  0  0  0  0  0  0  0
  139.8610   69.1020  225.8200 C   0  0  0  0  0  0  0  0  0  0  0  0
  139.9660   68.3330  226.9860 C   0  0  0  0  0  0  0  0  0  0  0  0
  140.5660   68.8760  228.1290 C   0  0  0  0  0  0  0  0  0  0  0  0
  140.6720   68.1300  229.2540 F   0  0  0  0  0  0  0  0  0  0  0  0
  141.0590   70.1870  228.1120 C   0  0  0  0  0  0  0  0  0  0  0  0
  140.9610   70.9590  226.9500 C   0  0  0  0  0  0  0  0  0  0  0  0
  140.3670   70.4210  225.8020 C   0  0  0  0  0  0  0  0  0  0  0  0
  140.2850   71.1620  224.6660 N   0  0  0  0  0  0  0  0  0  0  0  0
  143.8330   72.1610  219.5140 C   0  0  0  0  0  0  0  0  0  0  0  0
  144.0770   72.4530  220.8740 C   0  0  0  0  0  0  0  0  0  0  0  0
  145.2550   73.1010  221.2610 C   0  0  0  0  0  0  0  0  0  0  0  0
  146.1920   73.4880  220.2990 C   0  0  0  0  0  0  0  0  0  0  0  0
  145.9410   73.2490  218.9460 C   0  0  0  0  0  0  0  0  0  0  0  0
  144.7680   72.5950  218.5550 C   0  0  0  0  0  0  0  0  0  0  0  0
  142.3900   70.0855  220.6983 H   0  0  0  0  0  0  0  0  0  0  0  0
  141.4260   69.6358  219.2508 H   0  0  0  0  0  0  0  0  0  0  0  0
  143.2073   69.4047  219.2508 H   0  0  0  0  0  0  0  0  0  0  0  0
  142.6643   71.3414  217.9471 H   0  0  0  0  0  0  0  0  0  0  0  0
  140.3240   75.2940  218.3667 H   0  0  0  0  0  0  0  0  0  0  0  0
  142.9646   74.1868  217.4612 H   0  0  0  0  0  0  0  0  0  0  0  0
  142.1169   75.6192  216.8586 H   0  0  0  0  0  0  0  0  0  0  0  0
  144.3924   75.7643  218.4681 H   0  0  0  0  0  0  0  0  0  0  0  0
  143.6930   77.8660  219.0000 H   0  0  0  0  0  0  0  0  0  0  0  0
  143.6644   74.9735  220.5531 H   0  0  0  0  0  0  0  0  0  0  0  0
  142.9104   76.5655  220.7182 H   0  0  0  0  0  0  0  0  0  0  0  0
  138.7349   74.3508  221.2710 H   0  0  0  0  0  0  0  0  0  0  0  0
  139.7530   73.1867  220.3360 H   0  0  0  0  0  0  0  0  0  0  0  0
  139.9400   73.3850  223.3580 H   0  0  0  0  0  0  0  0  0  0  0  0
  138.7289   68.9760  222.5960 H   0  0  0  0  0  0  0  0  0  0  0  0
  138.8552   67.5686  224.6579 H   0  0  0  0  0  0  0  0  0  0  0  0
  139.5777   67.3040  227.0039 H   0  0  0  0  0  0  0  0  0  0  0  0
  141.5242   70.6102  229.0145 H   0  0  0  0  0  0  0  0  0  0  0  0
  141.3502   71.9878  226.9380 H   0  0  0  0  0  0  0  0  0  0  0  0
  143.3352   72.1688  221.6349 H   0  0  0  0  0  0  0  0  0  0  0  0
  145.4442   73.3064  222.3250 H   0  0  0  0  0  0  0  0  0  0  0  0
  147.1262   73.9803  220.6071 H   0  0  0  0  0  0  0  0  0  0  0  0
  146.6669   73.5756  218.1867 H   0  0  0  0  0  0  0  0  0  0  0  0
  144.5740   72.4179  217.4868 H   0  0  0  0  0  0  0  0  0  0  0  0
  1  2  1  0
  2  3  1  0
  3  4  1  0
  4  5  2  0
  4  6  1  0
  6  7  1  0
  7  8  1  0
  8  9  1  0
  8 10  1  0
 10 11  1  0
 11 12  1  0
 12 13  2  0
 12 14  1  0
 14 15  1  0
 15 16  1  0
 16 17  2  0
 16 18  1  0
 18 19  2  0
 19 20  1  0
 20 21  2  0
 21 22  1  0
 22 23  2  0
 23 24  1  0
 23 25  1  0
 25 26  2  0
 26 27  1  0
 27 28  2  0
  2 29  1  0
 29 30  2  0
 30 31  1  0
 31 32  2  0
 32 33  1  0
 33 34  2  0
 11  6  1  0
 28 18  1  0
 34 29  1  0
 27 21  1  0
  1 35  1  0
  1 36  1  0
  1 37  1  0
  2 38  1  6
  6 39  1  6
  7 40  1  0
  7 41  1  0
  8 42  1  1
  9 43  1  0
 10 44  1  0
 10 45  1  0
 14 46  1  0
 14 47  1  0
 15 48  1  0
 19 49  1  0
 20 50  1  0
 22 51  1  0
 25 52  1  0
 26 53  1  0
 30 54  1  0
 31 55  1  0
 32 56  1  0
 33 57  1  0
 34 58  1  0
M  CHG  1   3  -1
M  END
>  <UniqueID>  (4) 
84

>  <SMILES>  (4) 
C[C@@H]([N-]C(=O)[C@@H]1C[C@@H](O)CN1C(=O)CNC(=O)c1ccc2cc(F)ccc2n1)c1ccccc1

>  <Energy>  (4) 
59.316515999798234

>  <Genealogy>  (4) 
C[C@@H]([N-]C(=O)[C@@H]1C[C@@H](O)CN1C(=O)CNC(=O)c1ccc2cc(F)ccc2n1)c1ccccc1 (protonated)
C[C@@H]([N-]C(=O)[C@@H]1C[C@@H](O)CN1C(=O)CNC(=O)c1ccc2cc(F)ccc2n1)c1ccccc1 (3D coordinates assigned)
C[C@@H]([N-]C(=O)[C@@H]1C[C@@H](O)CN1C(=O)CNC(=O)c1ccc2cc(F)ccc2n1)c1ccccc1 (nonaromatic ring conformer: 59.316515999798234 kcal/mol)

>  <smiles>  (4) 
C[C@@H](NC(=O)[C@@H]1C[C@@H](O)CN1C(=O)CNC(=O)c1ccc2cc(F)ccc2n1)c1ccccc1

>  <score_type>  (4) 
oracle

>  <origin>  (4) 
autodockgpu

>  <m_score__min__energy>  (4) 
-9.0600000000000005

>  <m_primary>  (4) 
energy

>  <meeko>  (4) 
{"free_energy": -7.12, "intermolecular_energy": -9.8, "internal_energy": -2.94, "cluster_size": 1, "cluster_id": 5, "rank_in_cluster": 1}

>  <energy>  (4) 
-8.79

>  <cluster_rmsd>  (4) 
1.21

>  <rmsd>  (4) 
271.11

>  <cluster>  (4) 
1

$$$$
DWYNEBQVPRLYJI-JJGLYHRGNA-M
     RDKit          3D

 58 61  0  0  0  0  0  0  0  0999 V2000
  137.6490   79.5400  222.9660 C   0  0  0  0  0  0  0  0  0  0  0  0
  138.9470   78.7300  223.1040 C   0  0  1  0  0  0  0  0  0  0  0  0
  139.0760   77.7880  221.9950 N   0  0  0  0  0  0  0  0  0  0  0  0
  139.7580   76.5300  222.0970 C   0  0  0  0  0  0  0  0  0  0  0  0
  139.3470   75.6450  222.8930 O   0  0  0  0  0  0  0  0  0  0  0  0
  141.0180   76.2940  221.3120 C   0  0  2  0  0  0  0  0  0  0  0  0
  141.5660   77.6100  220.7500 C   0  0  0  0  0  0  0  0  0  0  0  0
  141.9980   77.3030  219.3100 C   0  0  1  0  0  0  0  0  0  0  0  0
  143.3890   77.0930  219.2290 O   0  0  0  0  0  0  0  0  0  0  0  0
  141.2260   76.0420  218.9060 C   0  0  0  0  0  0  0  0  0  0  0  0
  140.7770   75.4400  220.1520 N   0  0  0  0  0  0  0  0  0  0  0  0
  140.2360   74.1020  220.1910 C   0  0  0  0  0  0  0  0  0  0  0  0
  140.8530   73.1690  219.6040 O   0  0  0  0  0  0  0  0  0  0  0  0
  138.9410   73.7770  220.8860 C   0  0  0  0  0  0  0  0  0  0  0  0
  139.1820   72.9970  222.1020 N   0  0  0  0  0  0  0  0  0  0  0  0
  139.3290   71.5710  222.0560 C   0  0  0  0  0  0  0  0  0  0  0  0
  139.3230   70.9790  220.9400 O   0  0  0  0  0  0  0  0  0  0  0  0
  139.4960   70.7920  223.3030 C   0  0  0  0  0  0  0  0  0  0  0  0
  139.0950   69.4460  223.3740 C   0  0  0  0  0  0  0  0  0  0  0  0
  139.2860   68.7300  224.5580 C   0  0  0  0  0  0  0  0  0  0  0  0
  139.8760   69.3540  225.6630 C   0  0  0  0  0  0  0  0  0  0  0  0
  140.1000   68.6580  226.8580 C   0  0  0  0  0  0  0  0  0  0  0  0
  140.6910   69.3110  227.9470 C   0  0  0  0  0  0  0  0  0  0  0  0
  140.9130   68.6360  229.1000 F   0  0  0  0  0  0  0  0  0  0  0  0
  141.0580   70.6590  227.8460 C   0  0  0  0  0  0  0  0  0  0  0  0
  140.8400   71.3590  226.6550 C   0  0  0  0  0  0  0  0  0  0  0  0
  140.2530   70.7110  225.5620 C   0  0  0  0  0  0  0  0  0  0  0  0
  140.0570   71.3830  224.3970 N   0  0  0  0  0  0  0  0  0  0  0  0
  140.2040   79.5820  223.1790 C   0  0  0  0  0  0  0  0  0  0  0  0
  140.2870   80.8730  222.6140 C   0  0  0  0  0  0  0  0  0  0  0  0
  141.4710   81.6130  222.7060 C   0  0  0  0  0  0  0  0  0  0  0  0
  142.5920   81.0700  223.3390 C   0  0  0  0  0  0  0  0  0  0  0  0
  142.5380   79.7750  223.8610 C   0  0  0  0  0  0  0  0  0  0  0  0
  141.3550   79.0330  223.7760 C   0  0  0  0  0  0  0  0  0  0  0  0
  137.2602   79.7827  223.9660 H   0  0  0  0  0  0  0  0  0  0  0  0
  137.8542   80.4706  222.4166 H   0  0  0  0  0  0  0  0  0  0  0  0
  136.9032   78.9467  222.4166 H   0  0  0  0  0  0  0  0  0  0  0  0
  138.8629   78.1987  224.0635 H   0  0  0  0  0  0  0  0  0  0  0  0
  141.7244   75.8223  222.0109 H   0  0  0  0  0  0  0  0  0  0  0  0
  140.7851   78.3847  220.7586 H   0  0  0  0  0  0  0  0  0  0  0  0
  142.4051   77.9887  221.3520 H   0  0  0  0  0  0  0  0  0  0  0  0
  141.7778   78.1445  218.6367 H   0  0  0  0  0  0  0  0  0  0  0  0
  143.8070   77.4900  220.0370 H   0  0  0  0  0  0  0  0  0  0  0  0
  140.3645   76.3053  218.2748 H   0  0  0  0  0  0  0  0  0  0  0  0
  141.8531   75.3508  218.3237 H   0  0  0  0  0  0  0  0  0  0  0  0
  138.4312   74.7141  221.1543 H   0  0  0  0  0  0  0  0  0  0  0  0
  138.3161   73.1813  220.2044 H   0  0  0  0  0  0  0  0  0  0  0  0
  139.2130   73.4830  223.0270 H   0  0  0  0  0  0  0  0  0  0  0  0
  138.6335   68.9597  222.5019 H   0  0  0  0  0  0  0  0  0  0  0  0
  138.9732   67.6774  224.6218 H   0  0  0  0  0  0  0  0  0  0  0  0
  139.8120   67.5996  226.9409 H   0  0  0  0  0  0  0  0  0  0  0  0
  141.5187   71.1682  228.7053 H   0  0  0  0  0  0  0  0  0  0  0  0
  141.1295   72.4174  226.5773 H   0  0  0  0  0  0  0  0  0  0  0  0
  139.4147   81.3003  222.0977 H   0  0  0  0  0  0  0  0  0  0  0  0
  141.5194   82.6254  222.2786 H   0  0  0  0  0  0  0  0  0  0  0  0
  143.5156   81.6610  223.4263 H   0  0  0  0  0  0  0  0  0  0  0  0
  143.4270   79.3383  224.3395 H   0  0  0  0  0  0  0  0  0  0  0  0
  141.3237   78.0102  224.1797 H   0  0  0  0  0  0  0  0  0  0  0  0
  1  2  1  0
  2  3  1  0
  3  4  1  0
  4  5  2  0
  4  6  1  0
  6  7  1  0
  7  8  1  0
  8  9  1  0
  8 10  1  0
 10 11  1  0
 11 12  1  0
 12 13  2  0
 12 14  1  0
 14 15  1  0
 15 16  1  0
 16 17  2  0
 16 18  1  0
 18 19  2  0
 19 20  1  0
 20 21  2  0
 21 22  1  0
 22 23  2  0
 23 24  1  0
 23 25  1  0
 25 26  2  0
 26 27  1  0
 27 28  2  0
  2 29  1  0
 29 30  2  0
 30 31  1  0
 31 32  2  0
 32 33  1  0
 33 34  2  0
 11  6  1  0
 28 18  1  0
 34 29  1  0
 27 21  1  0
  1 35  1  0
  1 36  1  0
  1 37  1  0
  2 38  1  1
  6 39  1  1
  7 40  1  0
  7 41  1  0
  8 42  1  6
  9 43  1  0
 10 44  1  0
 10 45  1  0
 14 46  1  0
 14 47  1  0
 15 48  1  0
 19 49  1  0
 20 50  1  0
 22 51  1  0
 25 52  1  0
 26 53  1  0
 30 54  1  0
 31 55  1  0
 32 56  1  0
 33 57  1  0
 34 58  1  0
M  CHG  1   3  -1
M  END
>  <UniqueID>  (5) 
84

>  <SMILES>  (5) 
C[C@@H]([N-]C(=O)[C@@H]1C[C@@H](O)CN1C(=O)CNC(=O)c1ccc2cc(F)ccc2n1)c1ccccc1

>  <Energy>  (5) 
59.316515999798234

>  <Genealogy>  (5) 
C[C@@H]([N-]C(=O)[C@@H]1C[C@@H](O)CN1C(=O)CNC(=O)c1ccc2cc(F)ccc2n1)c1ccccc1 (protonated)
C[C@@H]([N-]C(=O)[C@@H]1C[C@@H](O)CN1C(=O)CNC(=O)c1ccc2cc(F)ccc2n1)c1ccccc1 (3D coordinates assigned)
C[C@@H]([N-]C(=O)[C@@H]1C[C@@H](O)CN1C(=O)CNC(=O)c1ccc2cc(F)ccc2n1)c1ccccc1 (nonaromatic ring conformer: 59.316515999798234 kcal/mol)

>  <smiles>  (5) 
C[C@@H](NC(=O)[C@@H]1C[C@@H](O)CN1C(=O)CNC(=O)c1ccc2cc(F)ccc2n1)c1ccccc1

>  <score_type>  (5) 
oracle

>  <origin>  (5) 
autodockgpu

>  <m_score__min__energy>  (5) 
-9.0600000000000005

>  <m_primary>  (5) 
energy

>  <meeko>  (5) 
{"free_energy": -8.61, "intermolecular_energy": -11.3, "internal_energy": -2.55, "cluster_size": 11, "cluster_id": 1, "rank_in_cluster": 7}

>  <energy>  (5) 
-8.69

>  <cluster_rmsd>  (5) 
1.56

>  <rmsd>  (5) 
271.08

>  <cluster>  (5) 
1

$$$$
DWYNEBQVPRLYJI-JJGLYHRGNA-M
     RDKit          3D

 58 61  0  0  0  0  0  0  0  0999 V2000
  138.8080   68.9840  223.9880 C   0  0  0  0  0  0  0  0  0  0  0  0
  139.3440   70.4150  224.1510 C   0  0  1  0  0  0  0  0  0  0  0  0
  138.2970   71.3850  223.8420 N   0  0  0  0  0  0  0  0  0  0  0  0
  136.9430   71.0220  223.5420 C   0  0  0  0  0  0  0  0  0  0  0  0
  136.5410   70.9860  222.3490 O   0  0  0  0  0  0  0  0  0  0  0  0
  135.9710   70.7600  224.6590 C   0  0  2  0  0  0  0  0  0  0  0  0
  135.3870   69.3470  224.5550 C   0  0  0  0  0  0  0  0  0  0  0  0
  133.8880   69.4920  224.8490 C   0  0  1  0  0  0  0  0  0  0  0  0
  133.5940   69.1380  226.1820 O   0  0  0  0  0  0  0  0  0  0  0  0
  133.5530   70.9620  224.5830 C   0  0  0  0  0  0  0  0  0  0  0  0
  134.8260   71.6650  224.6010 N   0  0  0  0  0  0  0  0  0  0  0  0
  134.8930   73.1070  224.6410 C   0  0  0  0  0  0  0  0  0  0  0  0
  134.7350   73.7010  225.7450 O   0  0  0  0  0  0  0  0  0  0  0  0
  135.1160   73.9380  223.4060 C   0  0  0  0  0  0  0  0  0  0  0  0
  136.5230   73.9080  223.0030 N   0  0  0  0  0  0  0  0  0  0  0  0
  137.1860   75.0870  222.5230 C   0  0  0  0  0  0  0  0  0  0  0  0
  136.5700   76.1900  222.5150 O   0  0  0  0  0  0  0  0  0  0  0  0
  138.5860   75.0210  222.0490 C   0  0  0  0  0  0  0  0  0  0  0  0
  139.2680   76.1810  221.6440 C   0  0  0  0  0  0  0  0  0  0  0  0
  140.5970   76.0910  221.2220 C   0  0  0  0  0  0  0  0  0  0  0  0
  141.2410   74.8480  221.2070 C   0  0  0  0  0  0  0  0  0  0  0  0
  142.5790   74.7260  220.8090 C   0  0  0  0  0  0  0  0  0  0  0  0
  143.1930   73.4680  220.8040 C   0  0  0  0  0  0  0  0  0  0  0  0
  144.4880   73.3520  220.4240 F   0  0  0  0  0  0  0  0  0  0  0  0
  142.4750   72.3300  221.1920 C   0  0  0  0  0  0  0  0  0  0  0  0
  141.1410   72.4450  221.5940 C   0  0  0  0  0  0  0  0  0  0  0  0
  140.5210   73.7000  221.6070 C   0  0  0  0  0  0  0  0  0  0  0  0
  139.2300   73.8180  222.0130 N   0  0  0  0  0  0  0  0  0  0  0  0
  139.9040   70.7120  225.5320 C   0  0  0  0  0  0  0  0  0  0  0  0
  139.5780   69.9430  226.6710 C   0  0  0  0  0  0  0  0  0  0  0  0
  140.1180   70.2640  227.9220 C   0  0  0  0  0  0  0  0  0  0  0  0
  140.9670   71.3650  228.0590 C   0  0  0  0  0  0  0  0  0  0  0  0
  141.2600   72.1620  226.9500 C   0  0  0  0  0  0  0  0  0  0  0  0
  140.7280   71.8420  225.6960 C   0  0  0  0  0  0  0  0  0  0  0  0
  138.6415   68.5396  224.9804 H   0  0  0  0  0  0  0  0  0  0  0  0
  137.8583   69.0091  223.4335 H   0  0  0  0  0  0  0  0  0  0  0  0
  139.5405   68.3790  223.4335 H   0  0  0  0  0  0  0  0  0  0  0  0
  140.1804   70.5008  223.4418 H   0  0  0  0  0  0  0  0  0  0  0  0
  136.5390   70.9004  225.5905 H   0  0  0  0  0  0  0  0  0  0  0  0
  135.5417   68.9420  223.5441 H   0  0  0  0  0  0  0  0  0  0  0  0
  135.8727   68.6552  225.2588 H   0  0  0  0  0  0  0  0  0  0  0  0
  133.2883   68.8213  224.2162 H   0  0  0  0  0  0  0  0  0  0  0  0
  133.4780   69.9750  226.7030 H   0  0  0  0  0  0  0  0  0  0  0  0
  133.0672   71.0733  223.6024 H   0  0  0  0  0  0  0  0  0  0  0  0
  132.8573   71.3625  225.3351 H   0  0  0  0  0  0  0  0  0  0  0  0
  134.4984   73.5396  222.5875 H   0  0  0  0  0  0  0  0  0  0  0  0
  134.8360   74.9785  223.6273 H   0  0  0  0  0  0  0  0  0  0  0  0
  137.0470   73.0040  223.0310 H   0  0  0  0  0  0  0  0  0  0  0  0
  138.7579   77.1555  221.6591 H   0  0  0  0  0  0  0  0  0  0  0  0
  141.1361   76.9949  220.9022 H   0  0  0  0  0  0  0  0  0  0  0  0
  143.1458   75.6170  220.5011 H   0  0  0  0  0  0  0  0  0  0  0  0
  142.9617   71.3436  221.1804 H   0  0  0  0  0  0  0  0  0  0  0  0
  140.5791   71.5502  221.8998 H   0  0  0  0  0  0  0  0  0  0  0  0
  138.8951   69.0860  226.5744 H   0  0  0  0  0  0  0  0  0  0  0  0
  139.8732   69.6476  228.7996 H   0  0  0  0  0  0  0  0  0  0  0  0
  141.4044   71.6041  229.0396 H   0  0  0  0  0  0  0  0  0  0  0  0
  141.9098   73.0424  227.0626 H   0  0  0  0  0  0  0  0  0  0  0  0
  140.9558   72.4799  224.8293 H   0  0  0  0  0  0  0  0  0  0  0  0
  1  2  1  0
  2  3  1  0
  3  4  1  0
  4  5  2  0
  4  6  1  0
  6  7  1  0
  7  8  1  0
  8  9  1  0
  8 10  1  0
 10 11  1  0
 11 12  1  0
 12 13  2  0
 12 14  1  0
 14 15  1  0
 15 16  1  0
 16 17  2  0
 16 18  1  0
 18 19  2  0
 19 20  1  0
 20 21  2  0
 21 22  1  0
 22 23  2  0
 23 24  1  0
 23 25  1  0
 25 26  2  0
 26 27  1  0
 27 28  2  0
  2 29  1  0
 29 30  2  0
 30 31  1  0
 31 32  2  0
 32 33  1  0
 33 34  2  0
 11  6  1  0
 28 18  1  0
 34 29  1  0
 27 21  1  0
  1 35  1  0
  1 36  1  0
  1 37  1  0
  2 38  1  6
  6 39  1  1
  7 40  1  0
  7 41  1  0
  8 42  1  6
  9 43  1  0
 10 44  1  0
 10 45  1  0
 14 46  1  0
 14 47  1  0
 15 48  1  0
 19 49  1  0
 20 50  1  0
 22 51  1  0
 25 52  1  0
 26 53  1  0
 30 54  1  0
 31 55  1  0
 32 56  1  0
 33 57  1  0
 34 58  1  0
M  CHG  1   3  -1
M  END
>  <UniqueID>  (6) 
84

>  <SMILES>  (6) 
C[C@@H]([N-]C(=O)[C@@H]1C[C@@H](O)CN1C(=O)CNC(=O)c1ccc2cc(F)ccc2n1)c1ccccc1

>  <Energy>  (6) 
59.316515999798234

>  <Genealogy>  (6) 
C[C@@H]([N-]C(=O)[C@@H]1C[C@@H](O)CN1C(=O)CNC(=O)c1ccc2cc(F)ccc2n1)c1ccccc1 (protonated)
C[C@@H]([N-]C(=O)[C@@H]1C[C@@H](O)CN1C(=O)CNC(=O)c1ccc2cc(F)ccc2n1)c1ccccc1 (3D coordinates assigned)
C[C@@H]([N-]C(=O)[C@@H]1C[C@@H](O)CN1C(=O)CNC(=O)c1ccc2cc(F)ccc2n1)c1ccccc1 (nonaromatic ring conformer: 59.316515999798234 kcal/mol)

>  <smiles>  (6) 
C[C@@H](NC(=O)[C@@H]1C[C@@H](O)CN1C(=O)CNC(=O)c1ccc2cc(F)ccc2n1)c1ccccc1

>  <score_type>  (6) 
oracle

>  <origin>  (6) 
autodockgpu

>  <m_score__min__energy>  (6) 
-9.0600000000000005

>  <m_primary>  (6) 
energy

>  <meeko>  (6) 
{"free_energy": -6.61, "intermolecular_energy": -9.3, "internal_energy": -3.85, "cluster_size": 1, "cluster_id": 7, "rank_in_cluster": 1}

>  <energy>  (6) 
-8.63

>  <cluster_rmsd>  (6) 
1.44

>  <rmsd>  (6) 
271.07

>  <cluster>  (6) 
1

$$$$
DWYNEBQVPRLYJI-JJGLYHRGNA-M
     RDKit          3D

 58 61  0  0  0  0  0  0  0  0999 V2000
  137.7870   80.2330  223.9700 C   0  0  0  0  0  0  0  0  0  0  0  0
  138.6990   79.1270  223.4150 C   0  0  1  0  0  0  0  0  0  0  0  0
  138.1490   78.5960  222.1700 N   0  0  0  0  0  0  0  0  0  0  0  0
  138.7570   77.5320  221.4250 C   0  0  0  0  0  0  0  0  0  0  0  0
  139.1020   77.7080  220.2270 O   0  0  0  0  0  0  0  0  0  0  0  0
  138.9110   76.1730  222.0490 C   0  0  2  0  0  0  0  0  0  0  0  0
  140.3660   75.6990  221.9730 C   0  0  0  0  0  0  0  0  0  0  0  0
  140.3040   74.2210  221.5670 C   0  0  1  0  0  0  0  0  0  0  0  0
  140.4540   73.3780  222.6880 O   0  0  0  0  0  0  0  0  0  0  0  0
  138.9330   74.0270  220.9130 C   0  0  0  0  0  0  0  0  0  0  0  0
  138.1300   75.1620  221.3390 N   0  0  0  0  0  0  0  0  0  0  0  0
  136.7020   75.1980  221.1320 C   0  0  0  0  0  0  0  0  0  0  0  0
  136.2290   75.9280  220.2160 O   0  0  0  0  0  0  0  0  0  0  0  0
  135.7430   74.4150  221.9890 C   0  0  0  0  0  0  0  0  0  0  0  0
  136.4640   73.5330  222.9090 N   0  0  0  0  0  0  0  0  0  0  0  0
  136.7640   72.1750  222.5580 C   0  0  0  0  0  0  0  0  0  0  0  0
  136.4670   71.7470  221.4060 O   0  0  0  0  0  0  0  0  0  0  0  0
  137.4260   71.2760  223.5290 C   0  0  0  0  0  0  0  0  0  0  0  0
  136.7580   70.1540  224.0490 C   0  0  0  0  0  0  0  0  0  0  0  0
  137.4160   69.3110  224.9470 C   0  0  0  0  0  0  0  0  0  0  0  0
  138.7370   69.5870  225.3220 C   0  0  0  0  0  0  0  0  0  0  0  0
  139.4330   68.7500  226.2050 C   0  0  0  0  0  0  0  0  0  0  0  0
  140.7520   69.0550  226.5610 C   0  0  0  0  0  0  0  0  0  0  0  0
  141.4260   68.2430  227.4100 F   0  0  0  0  0  0  0  0  0  0  0  0
  141.3790   70.1940  226.0410 C   0  0  0  0  0  0  0  0  0  0  0  0
  140.6910   71.0310  225.1560 C   0  0  0  0  0  0  0  0  0  0  0  0
  139.3740   70.7310  224.7920 C   0  0  0  0  0  0  0  0  0  0  0  0
  138.7090   71.5320  223.9190 N   0  0  0  0  0  0  0  0  0  0  0  0
  140.1330   79.5700  223.1750 C   0  0  0  0  0  0  0  0  0  0  0  0
  141.2390   78.7090  223.3530 C   0  0  0  0  0  0  0  0  0  0  0  0
  142.5400   79.1690  223.1240 C   0  0  0  0  0  0  0  0  0  0  0  0
  142.7590   80.4950  222.7390 C   0  0  0  0  0  0  0  0  0  0  0  0
  141.6780   81.3690  222.6060 C   0  0  0  0  0  0  0  0  0  0  0  0
  140.3750   80.9130  222.8280 C   0  0  0  0  0  0  0  0  0  0  0  0
  137.8077   80.2079  225.0695 H   0  0  0  0  0  0  0  0  0  0  0  0
  138.1433   81.2127  223.6188 H   0  0  0  0  0  0  0  0  0  0  0  0
  136.7574   80.0699  223.6188 H   0  0  0  0  0  0  0  0  0  0  0  0
  138.7305   78.3504  224.1934 H   0  0  0  0  0  0  0  0  0  0  0  0
  138.5687   76.2792  223.0890 H   0  0  0  0  0  0  0  0  0  0  0  0
  140.9192   76.2800  221.2204 H   0  0  0  0  0  0  0  0  0  0  0  0
  140.8860   75.8334  222.9330 H   0  0  0  0  0  0  0  0  0  0  0  0
  141.1204   73.9601  220.8774 H   0  0  0  0  0  0  0  0  0  0  0  0
  139.5860   73.3490  223.1680 H   0  0  0  0  0  0  0  0  0  0  0  0
  139.0290   74.0147  219.8173 H   0  0  0  0  0  0  0  0  0  0  0  0
  138.4742   73.0716  221.2074 H   0  0  0  0  0  0  0  0  0  0  0  0
  135.1259   75.1154  222.5710 H   0  0  0  0  0  0  0  0  0  0  0  0
  135.1103   73.7978  221.3342 H   0  0  0  0  0  0  0  0  0  0  0  0
  136.7370   73.8870  223.8540 H   0  0  0  0  0  0  0  0  0  0  0  0
  135.7212   69.9408  223.7498 H   0  0  0  0  0  0  0  0  0  0  0  0
  136.8981   68.4323  225.3589 H   0  0  0  0  0  0  0  0  0  0  0  0
  138.9437   67.8553  226.6174 H   0  0  0  0  0  0  0  0  0  0  0  0
  142.4139   70.4309  226.3288 H   0  0  0  0  0  0  0  0  0  0  0  0
  141.1853   71.9244  224.7467 H   0  0  0  0  0  0  0  0  0  0  0  0
  141.0758   77.6696  223.6739 H   0  0  0  0  0  0  0  0  0  0  0  0
  143.3931   78.4856  223.2472 H   0  0  0  0  0  0  0  0  0  0  0  0
  143.7814   80.8494  222.5411 H   0  0  0  0  0  0  0  0  0  0  0  0
  141.8519   82.4184  222.3260 H   0  0  0  0  0  0  0  0  0  0  0  0
  139.5302   81.6107  222.7306 H   0  0  0  0  0  0  0  0  0  0  0  0
  1  2  1  0
  2  3  1  0
  3  4  1  0
  4  5  2  0
  4  6  1  0
  6  7  1  0
  7  8  1  0
  8  9  1  0
  8 10  1  0
 10 11  1  0
 11 12  1  0
 12 13  2  0
 12 14  1  0
 14 15  1  0
 15 16  1  0
 16 17  2  0
 16 18  1  0
 18 19  2  0
 19 20  1  0
 20 21  2  0
 21 22  1  0
 22 23  2  0
 23 24  1  0
 23 25  1  0
 25 26  2  0
 26 27  1  0
 27 28  2  0
  2 29  1  0
 29 30  2  0
 30 31  1  0
 31 32  2  0
 32 33  1  0
 33 34  2  0
 11  6  1  0
 28 18  1  0
 34 29  1  0
 27 21  1  0
  1 35  1  0
  1 36  1  0
  1 37  1  0
  2 38  1  1
  6 39  1  1
  7 40  1  0
  7 41  1  0
  8 42  1  6
  9 43  1  0
 10 44  1  0
 10 45  1  0
 14 46  1  0
 14 47  1  0
 15 48  1  0
 19 49  1  0
 20 50  1  0
 22 51  1  0
 25 52  1  0
 26 53  1  0
 30 54  1  0
 31 55  1  0
 32 56  1  0
 33 57  1  0
 34 58  1  0
M  CHG  1   3  -1
M  END
>  <UniqueID>  (7) 
84

>  <SMILES>  (7) 
C[C@@H]([N-]C(=O)[C@@H]1C[C@@H](O)CN1C(=O)CNC(=O)c1ccc2cc(F)ccc2n1)c1ccccc1

>  <Energy>  (7) 
59.316515999798234

>  <Genealogy>  (7) 
C[C@@H]([N-]C(=O)[C@@H]1C[C@@H](O)CN1C(=O)CNC(=O)c1ccc2cc(F)ccc2n1)c1ccccc1 (protonated)
C[C@@H]([N-]C(=O)[C@@H]1C[C@@H](O)CN1C(=O)CNC(=O)c1ccc2cc(F)ccc2n1)c1ccccc1 (3D coordinates assigned)
C[C@@H]([N-]C(=O)[C@@H]1C[C@@H](O)CN1C(=O)CNC(=O)c1ccc2cc(F)ccc2n1)c1ccccc1 (nonaromatic ring conformer: 59.316515999798234 kcal/mol)

>  <smiles>  (7) 
C[C@@H](NC(=O)[C@@H]1C[C@@H](O)CN1C(=O)CNC(=O)c1ccc2cc(F)ccc2n1)c1ccccc1

>  <score_type>  (7) 
oracle

>  <origin>  (7) 
autodockgpu

>  <m_score__min__energy>  (7) 
-9.0600000000000005

>  <m_primary>  (7) 
energy

>  <meeko>  (7) 
{"free_energy": -7.56, "intermolecular_energy": -10.25, "internal_energy": -2.88, "cluster_size": 4, "cluster_id": 3, "rank_in_cluster": 3}

>  <energy>  (7) 
-8.61

>  <cluster_rmsd>  (7) 
1.67

>  <rmsd>  (7) 
270.94

>  <cluster>  (7) 
1

$$$$
DWYNEBQVPRLYJI-JJGLYHRGNA-M
     RDKit          3D

 58 61  0  0  0  0  0  0  0  0999 V2000
  139.3710   77.0850  220.7090 C   0  0  0  0  0  0  0  0  0  0  0  0
  139.9990   77.0740  222.1110 C   0  0  1  0  0  0  0  0  0  0  0  0
  140.7060   75.8170  222.3390 N   0  0  0  0  0  0  0  0  0  0  0  0
  141.4230   75.1130  221.3150 C   0  0  0  0  0  0  0  0  0  0  0  0
  142.1430   75.7410  220.4940 O   0  0  0  0  0  0  0  0  0  0  0  0
  141.2540   73.6270  221.1660 C   0  0  2  0  0  0  0  0  0  0  0  0
  142.5870   72.9570  220.8180 C   0  0  0  0  0  0  0  0  0  0  0  0
  142.2650   71.9280  219.7270 C   0  0  1  0  0  0  0  0  0  0  0  0
  142.1550   70.6300  220.2670 O   0  0  0  0  0  0  0  0  0  0  0  0
  140.9400   72.3800  219.1070 C   0  0  0  0  0  0  0  0  0  0  0  0
  140.3470   73.2950  220.0700 N   0  0  0  0  0  0  0  0  0  0  0  0
  138.9760   73.7300  219.9530 C   0  0  0  0  0  0  0  0  0  0  0  0
  138.6470   74.4820  218.9930 O   0  0  0  0  0  0  0  0  0  0  0  0
  137.9190   73.3440  220.9530 C   0  0  0  0  0  0  0  0  0  0  0  0
  138.5260   72.8720  222.2000 N   0  0  0  0  0  0  0  0  0  0  0  0
  139.1180   71.5680  222.2930 C   0  0  0  0  0  0  0  0  0  0  0  0
  139.1830   70.8370  221.2650 O   0  0  0  0  0  0  0  0  0  0  0  0
  139.6580   71.0790  223.5810 C   0  0  0  0  0  0  0  0  0  0  0  0
  140.5250   71.8750  224.3500 C   0  0  0  0  0  0  0  0  0  0  0  0
  141.0020   71.3960  225.5730 C   0  0  0  0  0  0  0  0  0  0  0  0
  140.6130   70.1300  226.0250 C   0  0  0  0  0  0  0  0  0  0  0  0
  141.0560   69.6280  227.2550 C   0  0  0  0  0  0  0  0  0  0  0  0
  140.6500   68.3560  227.6780 C   0  0  0  0  0  0  0  0  0  0  0  0
  141.0750   67.8740  228.8710 F   0  0  0  0  0  0  0  0  0  0  0  0
  139.8030   67.5820  226.8750 C   0  0  0  0  0  0  0  0  0  0  0  0
  139.3540   68.0780  225.6470 C   0  0  0  0  0  0  0  0  0  0  0  0
  139.7520   69.3510  225.2200 C   0  0  0  0  0  0  0  0  0  0  0  0
  139.3040   69.8430  224.0360 N   0  0  0  0  0  0  0  0  0  0  0  0
  140.9480   78.2320  222.3730 C   0  0  0  0  0  0  0  0  0  0  0  0
  141.4090   78.5660  223.6660 C   0  0  0  0  0  0  0  0  0  0  0  0
  142.2780   79.6460  223.8530 C   0  0  0  0  0  0  0  0  0  0  0  0
  142.6800   80.4210  222.7620 C   0  0  0  0  0  0  0  0  0  0  0  0
  142.1950   80.1310  221.4840 C   0  0  0  0  0  0  0  0  0  0  0  0
  141.3300   79.0480  221.2910 C   0  0  0  0  0  0  0  0  0  0  0  0
  138.2748   77.1042  220.7984 H   0  0  0  0  0  0  0  0  0  0  0  0
  139.7100   77.9773  220.1624 H   0  0  0  0  0  0  0  0  0  0  0  0
  139.6785   76.1813  220.1624 H   0  0  0  0  0  0  0  0  0  0  0  0
  139.1587   77.1843  222.8123 H   0  0  0  0  0  0  0  0  0  0  0  0
  140.8576   73.2718  222.1286 H   0  0  0  0  0  0  0  0  0  0  0  0
  143.3037   73.7021  220.4423 H   0  0  0  0  0  0  0  0  0  0  0  0
  143.0443   72.4833  221.6992 H   0  0  0  0  0  0  0  0  0  0  0  0
  143.0658   71.8782  218.9745 H   0  0  0  0  0  0  0  0  0  0  0  0
  141.2310   70.5200  220.6150 H   0  0  0  0  0  0  0  0  0  0  0  0
  141.1193   72.8929  218.1506 H   0  0  0  0  0  0  0  0  0  0  0  0
  140.2782   71.5269  218.8965 H   0  0  0  0  0  0  0  0  0  0  0  0
  137.2896   74.2202  221.1680 H   0  0  0  0  0  0  0  0  0  0  0  0
  137.3131   72.5305  220.5274 H   0  0  0  0  0  0  0  0  0  0  0  0
  138.4990   73.4810  223.0490 H   0  0  0  0  0  0  0  0  0  0  0  0
  140.8264   72.8700  223.9907 H   0  0  0  0  0  0  0  0  0  0  0  0
  141.6818   72.0128  226.1792 H   0  0  0  0  0  0  0  0  0  0  0  0
  141.7222   70.2321  227.8884 H   0  0  0  0  0  0  0  0  0  0  0  0
  139.4904   66.5822  227.2108 H   0  0  0  0  0  0  0  0  0  0  0  0
  138.6889   67.4689  225.0171 H   0  0  0  0  0  0  0  0  0  0  0  0
  141.0820   77.9722  224.5323 H   0  0  0  0  0  0  0  0  0  0  0  0
  142.6459   79.8859  224.8615 H   0  0  0  0  0  0  0  0  0  0  0  0
  143.3776   81.2587  222.9091 H   0  0  0  0  0  0  0  0  0  0  0  0
  142.4935   80.7548  220.6286 H   0  0  0  0  0  0  0  0  0  0  0  0
  140.9445   78.8320  220.2836 H   0  0  0  0  0  0  0  0  0  0  0  0
  1  2  1  0
  2  3  1  0
  3  4  1  0
  4  5  2  0
  4  6  1  0
  6  7  1  0
  7  8  1  0
  8  9  1  0
  8 10  1  0
 10 11  1  0
 11 12  1  0
 12 13  2  0
 12 14  1  0
 14 15  1  0
 15 16  1  0
 16 17  2  0
 16 18  1  0
 18 19  2  0
 19 20  1  0
 20 21  2  0
 21 22  1  0
 22 23  2  0
 23 24  1  0
 23 25  1  0
 25 26  2  0
 26 27  1  0
 27 28  2  0
  2 29  1  0
 29 30  2  0
 30 31  1  0
 31 32  2  0
 32 33  1  0
 33 34  2  0
 11  6  1  0
 28 18  1  0
 34 29  1  0
 27 21  1  0
  1 35  1  0
  1 36  1  0
  1 37  1  0
  2 38  1  1
  6 39  1  1
  7 40  1  0
  7 41  1  0
  8 42  1  6
  9 43  1  0
 10 44  1  0
 10 45  1  0
 14 46  1  0
 14 47  1  0
 15 48  1  0
 19 49  1  0
 20 50  1  0
 22 51  1  0
 25 52  1  0
 26 53  1  0
 30 54  1  0
 31 55  1  0
 32 56  1  0
 33 57  1  0
 34 58  1  0
M  CHG  1   3  -1
M  END
>  <UniqueID>  (8) 
84

>  <SMILES>  (8) 
C[C@@H]([N-]C(=O)[C@@H]1C[C@@H](O)CN1C(=O)CNC(=O)c1ccc2cc(F)ccc2n1)c1ccccc1

>  <Energy>  (8) 
59.316515999798234

>  <Genealogy>  (8) 
C[C@@H]([N-]C(=O)[C@@H]1C[C@@H](O)CN1C(=O)CNC(=O)c1ccc2cc(F)ccc2n1)c1ccccc1 (protonated)
C[C@@H]([N-]C(=O)[C@@H]1C[C@@H](O)CN1C(=O)CNC(=O)c1ccc2cc(F)ccc2n1)c1ccccc1 (3D coordinates assigned)
C[C@@H]([N-]C(=O)[C@@H]1C[C@@H](O)CN1C(=O)CNC(=O)c1ccc2cc(F)ccc2n1)c1ccccc1 (nonaromatic ring conformer: 59.316515999798234 kcal/mol)

>  <smiles>  (8) 
C[C@@H](NC(=O)[C@@H]1C[C@@H](O)CN1C(=O)CNC(=O)c1ccc2cc(F)ccc2n1)c1ccccc1

>  <score_type>  (8) 
oracle

>  <origin>  (8) 
autodockgpu

>  <m_score__min__energy>  (8) 
-9.0600000000000005

>  <m_primary>  (8) 
energy

>  <meeko>  (8) 
{"free_energy": -7.31, "intermolecular_energy": -9.99, "internal_energy": -3.02, "cluster_size": 11, "cluster_id": 1, "rank_in_cluster": 11}

>  <energy>  (8) 
-7.79

>  <cluster_rmsd>  (8) 
1.62

>  <rmsd>  (8) 
270.96

>  <cluster>  (8) 
1

$$$$
DWYNEBQVPRLYJI-JJGLYHRGNA-M
     RDKit          3D

 58 61  0  0  0  0  0  0  0  0999 V2000
  140.0600   79.9270  219.4700 C   0  0  0  0  0  0  0  0  0  0  0  0
  139.6120   79.6940  220.9210 C   0  0  1  0  0  0  0  0  0  0  0  0
  139.1410   78.3220  221.0910 N   0  0  0  0  0  0  0  0  0  0  0  0
  138.5660   77.8260  222.3080 C   0  0  0  0  0  0  0  0  0  0  0  0
  137.9590   78.6040  223.0900 O   0  0  0  0  0  0  0  0  0  0  0  0
  138.7570   76.3860  222.6950 C   0  0  2  0  0  0  0  0  0  0  0  0
  140.0760   75.8410  222.1370 C   0  0  0  0  0  0  0  0  0  0  0  0
  139.7550   74.4400  221.5990 C   0  0  1  0  0  0  0  0  0  0  0  0
  140.1350   73.4410  222.5190 O   0  0  0  0  0  0  0  0  0  0  0  0
  138.2420   74.4230  221.3630 C   0  0  0  0  0  0  0  0  0  0  0  0
  137.7110   75.5340  222.1360 N   0  0  0  0  0  0  0  0  0  0  0  0
  136.2930   75.6840  222.3670 C   0  0  0  0  0  0  0  0  0  0  0  0
  135.7610   76.8200  222.2170 O   0  0  0  0  0  0  0  0  0  0  0  0
  135.4230   74.5400  222.8110 C   0  0  0  0  0  0  0  0  0  0  0  0
  136.1960   73.5610  223.5790 N   0  0  0  0  0  0  0  0  0  0  0  0
  136.5670   72.2960  223.0140 C   0  0  0  0  0  0  0  0  0  0  0  0
  136.2850   72.0440  221.8080 O   0  0  0  0  0  0  0  0  0  0  0  0
  137.2820   71.2900  223.8290 C   0  0  0  0  0  0  0  0  0  0  0  0
  136.6490   70.1000  224.2300 C   0  0  0  0  0  0  0  0  0  0  0  0
  137.3570   69.1580  224.9810 C   0  0  0  0  0  0  0  0  0  0  0  0
  138.6920   69.4040  225.3270 C   0  0  0  0  0  0  0  0  0  0  0  0
  139.4370   68.4710  226.0610 C   0  0  0  0  0  0  0  0  0  0  0  0
  140.7680   68.7470  226.3920 C   0  0  0  0  0  0  0  0  0  0  0  0
  141.4890   67.8430  227.0980 F   0  0  0  0  0  0  0  0  0  0  0  0
  141.3590   69.9530  225.9950 C   0  0  0  0  0  0  0  0  0  0  0  0
  140.6230   70.8860  225.2590 C   0  0  0  0  0  0  0  0  0  0  0  0
  139.2920   70.6160  224.9200 C   0  0  0  0  0  0  0  0  0  0  0  0
  138.5790   71.5120  224.1900 N   0  0  0  0  0  0  0  0  0  0  0  0
  140.6890   79.9800  221.9550 C   0  0  0  0  0  0  0  0  0  0  0  0
  140.6100   81.0590  222.8630 C   0  0  0  0  0  0  0  0  0  0  0  0
  141.6330   81.2810  223.7910 C   0  0  0  0  0  0  0  0  0  0  0  0
  142.7570   80.4500  223.8120 C   0  0  0  0  0  0  0  0  0  0  0  0
  142.8690   79.4090  222.8880 C   0  0  0  0  0  0  0  0  0  0  0  0
  141.8470   79.1780  221.9620 C   0  0  0  0  0  0  0  0  0  0  0  0
  141.0359   80.4346  219.4646 H   0  0  0  0  0  0  0  0  0  0  0  0
  140.1469   78.9598  218.9533 H   0  0  0  0  0  0  0  0  0  0  0  0
  139.3180   80.5535  218.9533 H   0  0  0  0  0  0  0  0  0  0  0  0
  138.7990   80.4134  221.0984 H   0  0  0  0  0  0  0  0  0  0  0  0
  138.7379   76.3654  223.7946 H   0  0  0  0  0  0  0  0  0  0  0  0
  140.4453   76.4871  221.3269 H   0  0  0  0  0  0  0  0  0  0  0  0
  140.8595   75.8089  222.9084 H   0  0  0  0  0  0  0  0  0  0  0  0
  140.3105   74.2291  220.6733 H   0  0  0  0  0  0  0  0  0  0  0  0
  139.3550   73.2480  223.1020 H   0  0  0  0  0  0  0  0  0  0  0  0
  138.0189   74.5580  220.2943 H   0  0  0  0  0  0  0  0  0  0  0  0
  137.7942   73.4656  221.6677 H   0  0  0  0  0  0  0  0  0  0  0  0
  134.6094   74.9298  223.4404 H   0  0  0  0  0  0  0  0  0  0  0  0
  135.0149   74.0427  221.9187 H   0  0  0  0  0  0  0  0  0  0  0  0
  136.4550   73.7730  224.5690 H   0  0  0  0  0  0  0  0  0  0  0  0
  135.6011   69.9115  223.9537 H   0  0  0  0  0  0  0  0  0  0  0  0
  136.8674   68.2259  225.2996 H   0  0  0  0  0  0  0  0  0  0  0  0
  138.9760   67.5233  226.3763 H   0  0  0  0  0  0  0  0  0  0  0  0
  142.4043   70.1664  226.2629 H   0  0  0  0  0  0  0  0  0  0  0  0
  141.0895   71.8319  224.9464 H   0  0  0  0  0  0  0  0  0  0  0  0
  139.7381   81.7293  222.8403 H   0  0  0  0  0  0  0  0  0  0  0  0
  141.5527   82.1124  224.5068 H   0  0  0  0  0  0  0  0  0  0  0  0
  143.5513   80.6158  224.5547 H   0  0  0  0  0  0  0  0  0  0  0  0
  143.7636   78.7689  222.8886 H   0  0  0  0  0  0  0  0  0  0  0  0
  141.9484   78.3617  221.2316 H   0  0  0  0  0  0  0  0  0  0  0  0
  1  2  1  0
  2  3  1  0
  3  4  1  0
  4  5  2  0
  4  6  1  0
  6  7  1  0
  7  8  1  0
  8  9  1  0
  8 10  1  0
 10 11  1  0
 11 12  1  0
 12 13  2  0
 12 14  1  0
 14 15  1  0
 15 16  1  0
 16 17  2  0
 16 18  1  0
 18 19  2  0
 19 20  1  0
 20 21  2  0
 21 22  1  0
 22 23  2  0
 23 24  1  0
 23 25  1  0
 25 26  2  0
 26 27  1  0
 27 28  2  0
  2 29  1  0
 29 30  2  0
 30 31  1  0
 31 32  2  0
 32 33  1  0
 33 34  2  0
 11  6  1  0
 28 18  1  0
 34 29  1  0
 27 21  1  0
  1 35  1  0
  1 36  1  0
  1 37  1  0
  2 38  1  1
  6 39  1  1
  7 40  1  0
  7 41  1  0
  8 42  1  6
  9 43  1  0
 10 44  1  0
 10 45  1  0
 14 46  1  0
 14 47  1  0
 15 48  1  0
 19 49  1  0
 20 50  1  0
 22 51  1  0
 25 52  1  0
 26 53  1  0
 30 54  1  0
 31 55  1  0
 32 56  1  0
 33 57  1  0
 34 58  1  0
M  CHG  1   3  -1
M  END
>  <UniqueID>  (9) 
84

>  <SMILES>  (9) 
C[C@@H]([N-]C(=O)[C@@H]1C[C@@H](O)CN1C(=O)CNC(=O)c1ccc2cc(F)ccc2n1)c1ccccc1

>  <Energy>  (9) 
59.316515999798234

>  <Genealogy>  (9) 
C[C@@H]([N-]C(=O)[C@@H]1C[C@@H](O)CN1C(=O)CNC(=O)c1ccc2cc(F)ccc2n1)c1ccccc1 (protonated)
C[C@@H]([N-]C(=O)[C@@H]1C[C@@H](O)CN1C(=O)CNC(=O)c1ccc2cc(F)ccc2n1)c1ccccc1 (3D coordinates assigned)
C[C@@H]([N-]C(=O)[C@@H]1C[C@@H](O)CN1C(=O)CNC(=O)c1ccc2cc(F)ccc2n1)c1ccccc1 (nonaromatic ring conformer: 59.316515999798234 kcal/mol)

>  <smiles>  (9) 
C[C@@H](NC(=O)[C@@H]1C[C@@H](O)CN1C(=O)CNC(=O)c1ccc2cc(F)ccc2n1)c1ccccc1

>  <score_type>  (9) 
oracle

>  <origin>  (9) 
autodockgpu

>  <m_score__min__energy>  (9) 
-9.0600000000000005

>  <m_primary>  (9) 
energy

>  <meeko>  (9) 
{"free_energy": -7.5, "intermolecular_energy": -10.18, "internal_energy": -2.72, "cluster_size": 4, "cluster_id": 3, "rank_in_cluster": 4}

>  <energy>  (9) 
-7.62

>  <cluster_rmsd>  (9) 
1.56

>  <rmsd>  (9) 
270.65

>  <cluster>  (9) 
1

$$$$
DWYNEBQVPRLYJI-JJGLYHRGNA-M
     RDKit          3D

 58 61  0  0  0  0  0  0  0  0999 V2000
  142.9400   76.0690  218.7510 C   0  0  0  0  0  0  0  0  0  0  0  0
  142.9230   75.2050  220.0220 C   0  0  1  0  0  0  0  0  0  0  0  0
  141.6510   74.4970  220.1340 N   0  0  0  0  0  0  0  0  0  0  0  0
  140.7350   74.6790  221.2220 C   0  0  0  0  0  0  0  0  0  0  0  0
  140.6650   73.8270  222.1470 O   0  0  0  0  0  0  0  0  0  0  0  0
  139.7930   75.8510  221.2220 C   0  0  2  0  0  0  0  0  0  0  0  0
  140.0900   76.7900  222.3950 C   0  0  0  0  0  0  0  0  0  0  0  0
  138.7240   77.1840  222.9720 C   0  0  1  0  0  0  0  0  0  0  0  0
  138.3220   78.4540  222.5110 O   0  0  0  0  0  0  0  0  0  0  0  0
  137.7490   76.0970  222.5090 C   0  0  0  0  0  0  0  0  0  0  0  0
  138.4060   75.4280  221.3970 N   0  0  0  0  0  0  0  0  0  0  0  0
  137.6920   74.5150  220.5360 C   0  0  0  0  0  0  0  0  0  0  0  0
  137.1140   74.9630  219.5060 O   0  0  0  0  0  0  0  0  0  0  0  0
  137.5830   73.0440  220.8350 C   0  0  0  0  0  0  0  0  0  0  0  0
  138.3310   72.6990  222.0460 N   0  0  0  0  0  0  0  0  0  0  0  0
  138.6690   71.3380  222.3510 C   0  0  0  0  0  0  0  0  0  0  0  0
  138.3800   70.4240  221.5280 O   0  0  0  0  0  0  0  0  0  0  0  0
  139.3580   71.0010  223.6150 C   0  0  0  0  0  0  0  0  0  0  0  0
  140.2930   71.8820  224.1870 C   0  0  0  0  0  0  0  0  0  0  0  0
  140.9120   71.5470  225.3940 C   0  0  0  0  0  0  0  0  0  0  0  0
  140.5960   70.3390  226.0270 C   0  0  0  0  0  0  0  0  0  0  0  0
  141.1830   69.9810  227.2480 C   0  0  0  0  0  0  0  0  0  0  0  0
  140.8480   68.7650  227.8540 C   0  0  0  0  0  0  0  0  0  0  0  0
  141.4120   68.4230  229.0370 F   0  0  0  0  0  0  0  0  0  0  0  0
  139.9290   67.9020  227.2440 C   0  0  0  0  0  0  0  0  0  0  0  0
  139.3370   68.2530  226.0270 C   0  0  0  0  0  0  0  0  0  0  0  0
  139.6640   69.4700  225.4170 C   0  0  0  0  0  0  0  0  0  0  0  0
  139.0770   69.8230  224.2440 N   0  0  0  0  0  0  0  0  0  0  0  0
  144.0590   74.1990  220.1020 C   0  0  0  0  0  0  0  0  0  0  0  0
  145.2470   74.4430  220.8270 C   0  0  0  0  0  0  0  0  0  0  0  0
  146.2650   73.4840  220.8630 C   0  0  0  0  0  0  0  0  0  0  0  0
  146.1270   72.2840  220.1600 C   0  0  0  0  0  0  0  0  0  0  0  0
  144.9780   72.0510  219.4010 C   0  0  0  0  0  0  0  0  0  0  0  0
  143.9540   73.0030  219.3660 C   0  0  0  0  0  0  0  0  0  0  0  0
  142.9609   77.1326  219.0309 H   0  0  0  0  0  0  0  0  0  0  0  0
  143.8336   75.8287  218.1562 H   0  0  0  0  0  0  0  0  0  0  0  0
  142.0377   75.8641  218.1562 H   0  0  0  0  0  0  0  0  0  0  0  0
  143.0580   75.9063  220.8586 H   0  0  0  0  0  0  0  0  0  0  0  0
  139.9345   76.3503  220.2521 H   0  0  0  0  0  0  0  0  0  0  0  0
  140.6926   76.2730  223.1563 H   0  0  0  0  0  0  0  0  0  0  0  0
  140.6626   77.6720  222.0723 H   0  0  0  0  0  0  0  0  0  0  0  0
  138.7582   77.2554  224.0691 H   0  0  0  0  0  0  0  0  0  0  0  0
  137.6590   78.3210  221.7840 H   0  0  0  0  0  0  0  0  0  0  0  0
  137.5534   75.3846  223.3240 H   0  0  0  0  0  0  0  0  0  0  0  0
  136.7785   76.5213  222.2120 H   0  0  0  0  0  0  0  0  0  0  0  0
  136.5241   72.7836  220.9795 H   0  0  0  0  0  0  0  0  0  0  0  0
  138.0055   72.4816  219.9893 H   0  0  0  0  0  0  0  0  0  0  0  0
  138.5960   73.4530  222.7190 H   0  0  0  0  0  0  0  0  0  0  0  0
  140.5360   72.8308  223.6863 H   0  0  0  0  0  0  0  0  0  0  0  0
  141.6458   72.2307  225.8457 H   0  0  0  0  0  0  0  0  0  0  0  0
  141.9065   70.6552  227.7297 H   0  0  0  0  0  0  0  0  0  0  0  0
  139.6724   66.9458  227.7235 H   0  0  0  0  0  0  0  0  0  0  0  0
  138.6153   67.5739  225.5494 H   0  0  0  0  0  0  0  0  0  0  0  0
  145.3723   75.3933  221.3667 H   0  0  0  0  0  0  0  0  0  0  0  0
  147.1775   73.6752  221.4468 H   0  0  0  0  0  0  0  0  0  0  0  0
  146.9216   71.5247  220.2044 H   0  0  0  0  0  0  0  0  0  0  0  0
  144.8782   71.1165  218.8294 H   0  0  0  0  0  0  0  0  0  0  0  0
  143.0572   72.8156  218.7572 H   0  0  0  0  0  0  0  0  0  0  0  0
  1  2  1  0
  2  3  1  0
  3  4  1  0
  4  5  2  0
  4  6  1  0
  6  7  1  0
  7  8  1  0
  8  9  1  0
  8 10  1  0
 10 11  1  0
 11 12  1  0
 12 13  2  0
 12 14  1  0
 14 15  1  0
 15 16  1  0
 16 17  2  0
 16 18  1  0
 18 19  2  0
 19 20  1  0
 20 21  2  0
 21 22  1  0
 22 23  2  0
 23 24  1  0
 23 25  1  0
 25 26  2  0
 26 27  1  0
 27 28  2  0
  2 29  1  0
 29 30  2  0
 30 31  1  0
 31 32  2  0
 32 33  1  0
 33 34  2  0
 11  6  1  0
 28 18  1  0
 34 29  1  0
 27 21  1  0
  1 35  1  0
  1 36  1  0
  1 37  1  0
  2 38  1  1
  6 39  1  6
  7 40  1  0
  7 41  1  0
  8 42  1  1
  9 43  1  0
 10 44  1  0
 10 45  1  0
 14 46  1  0
 14 47  1  0
 15 48  1  0
 19 49  1  0
 20 50  1  0
 22 51  1  0
 25 52  1  0
 26 53  1  0
 30 54  1  0
 31 55  1  0
 32 56  1  0
 33 57  1  0
 34 58  1  0
M  CHG  1   3  -1
M  END
>  <UniqueID>  (10) 
84

>  <SMILES>  (10) 
C[C@@H]([N-]C(=O)[C@@H]1C[C@@H](O)CN1C(=O)CNC(=O)c1ccc2cc(F)ccc2n1)c1ccccc1

>  <Energy>  (10) 
59.316515999798234

>  <Genealogy>  (10) 
C[C@@H]([N-]C(=O)[C@@H]1C[C@@H](O)CN1C(=O)CNC(=O)c1ccc2cc(F)ccc2n1)c1ccccc1 (protonated)
C[C@@H]([N-]C(=O)[C@@H]1C[C@@H](O)CN1C(=O)CNC(=O)c1ccc2cc(F)ccc2n1)c1ccccc1 (3D coordinates assigned)
C[C@@H]([N-]C(=O)[C@@H]1C[C@@H](O)CN1C(=O)CNC(=O)c1ccc2cc(F)ccc2n1)c1ccccc1 (nonaromatic ring conformer: 59.316515999798234 kcal/mol)

>  <smiles>  (10) 
C[C@@H](NC(=O)[C@@H]1C[C@@H](O)CN1C(=O)CNC(=O)c1ccc2cc(F)ccc2n1)c1ccccc1

>  <score_type>  (10) 
oracle

>  <origin>  (10) 
autodockgpu

>  <m_score__min__energy>  (10) 
-9.0600000000000005

>  <m_primary>  (10) 
energy

>  <meeko>  (10) 
{"free_energy": -7.61, "intermolecular_energy": -10.3, "internal_energy": -2.51, "cluster_size": 1, "cluster_id": 4, "rank_in_cluster": 1}

>  <energy>  (10) 
-7.39

>  <cluster_rmsd>  (10) 
1.73

>  <rmsd>  (10) 
270.49

>  <cluster>  (10) 
1

$$$$
DWYNEBQVPRLYJI-JJGLYHRGNA-M
     RDKit          3D

 58 61  0  0  0  0  0  0  0  0999 V2000
  137.7640   79.2870  223.0910 C   0  0  0  0  0  0  0  0  0  0  0  0
  139.0540   78.7470  222.4540 C   0  0  1  0  0  0  0  0  0  0  0  0
  138.9440   78.7650  220.9980 N   0  0  0  0  0  0  0  0  0  0  0  0
  139.6300   77.8430  220.1390 C   0  0  0  0  0  0  0  0  0  0  0  0
  139.0820   77.4240  219.0860 O   0  0  0  0  0  0  0  0  0  0  0  0
  140.9780   77.3100  220.5360 C   0  0  2  0  0  0  0  0  0  0  0  0
  142.0190   77.5910  219.4470 C   0  0  0  0  0  0  0  0  0  0  0  0
  142.8450   76.3050  219.3150 C   0  0  1  0  0  0  0  0  0  0  0  0
  144.0630   76.4080  220.0160 O   0  0  0  0  0  0  0  0  0  0  0  0
  141.9690   75.1890  219.8930 C   0  0  0  0  0  0  0  0  0  0  0  0
  140.9590   75.8580  220.6960 N   0  0  0  0  0  0  0  0  0  0  0  0
  140.1070   75.1250  221.6030 C   0  0  0  0  0  0  0  0  0  0  0  0
  139.7660   75.6590  222.6960 O   0  0  0  0  0  0  0  0  0  0  0  0
  139.6290   73.7290  221.3090 C   0  0  0  0  0  0  0  0  0  0  0  0
  139.6870   72.8920  222.5090 N   0  0  0  0  0  0  0  0  0  0  0  0
  139.7700   71.4630  222.4180 C   0  0  0  0  0  0  0  0  0  0  0  0
  139.8680   70.9150  221.2830 O   0  0  0  0  0  0  0  0  0  0  0  0
  139.7520   70.6300  223.6400 C   0  0  0  0  0  0  0  0  0  0  0  0
  139.1930   69.3400  223.6280 C   0  0  0  0  0  0  0  0  0  0  0  0
  139.2110   68.5670  224.7910 C   0  0  0  0  0  0  0  0  0  0  0  0
  139.7860   69.0800  225.9600 C   0  0  0  0  0  0  0  0  0  0  0  0
  139.8380   68.3240  227.1380 C   0  0  0  0  0  0  0  0  0  0  0  0
  140.4190   68.8670  228.2910 C   0  0  0  0  0  0  0  0  0  0  0  0
  140.4740   68.1330  229.4280 F   0  0  0  0  0  0  0  0  0  0  0  0
  140.9460   70.1640  228.2720 C   0  0  0  0  0  0  0  0  0  0  0  0
  140.9000   70.9230  227.0990 C   0  0  0  0  0  0  0  0  0  0  0  0
  140.3260   70.3850  225.9410 C   0  0  0  0  0  0  0  0  0  0  0  0
  140.2960   71.1130  224.7940 N   0  0  0  0  0  0  0  0  0  0  0  0
  140.3090   79.4990  222.8650 C   0  0  0  0  0  0  0  0  0  0  0  0
  141.4130   78.8660  223.4770 C   0  0  0  0  0  0  0  0  0  0  0  0
  142.5430   79.6070  223.8420 C   0  0  0  0  0  0  0  0  0  0  0  0
  142.5790   80.9870  223.6250 C   0  0  0  0  0  0  0  0  0  0  0  0
  141.4750   81.6320  223.0640 C   0  0  0  0  0  0  0  0  0  0  0  0
  140.3450   80.8960  222.6920 C   0  0  0  0  0  0  0  0  0  0  0  0
  137.8528   79.2498  224.1868 H   0  0  0  0  0  0  0  0  0  0  0  0
  137.6047   80.3273  222.7711 H   0  0  0  0  0  0  0  0  0  0  0  0
  136.9111   78.6704  222.7711 H   0  0  0  0  0  0  0  0  0  0  0  0
  139.1606   77.7181  222.8280 H   0  0  0  0  0  0  0  0  0  0  0  0
  141.2305   77.8091  221.4832 H   0  0  0  0  0  0  0  0  0  0  0  0
  141.5223   77.8265  218.4942 H   0  0  0  0  0  0  0  0  0  0  0  0
  142.6515   78.4532  219.7050 H   0  0  0  0  0  0  0  0  0  0  0  0
  143.1132   76.1055  218.2670 H   0  0  0  0  0  0  0  0  0  0  0  0
  144.0400   77.2440  220.5510 H   0  0  0  0  0  0  0  0  0  0  0  0
  141.4962   74.6141  219.0831 H   0  0  0  0  0  0  0  0  0  0  0  0
  142.5585   74.4787  220.4913 H   0  0  0  0  0  0  0  0  0  0  0  0
  138.5900   73.7724  220.9503 H   0  0  0  0  0  0  0  0  0  0  0  0
  140.2829   73.2884  220.5419 H   0  0  0  0  0  0  0  0  0  0  0  0
  139.6320   73.3400  223.4520 H   0  0  0  0  0  0  0  0  0  0  0  0
  138.7434   68.9413  222.7066 H   0  0  0  0  0  0  0  0  0  0  0  0
  138.7744   67.5574  224.7886 H   0  0  0  0  0  0  0  0  0  0  0  0
  139.4232   67.3054  227.1576 H   0  0  0  0  0  0  0  0  0  0  0  0
  141.3971   70.5866  229.1819 H   0  0  0  0  0  0  0  0  0  0  0  0
  141.3144   71.9419  227.0859 H   0  0  0  0  0  0  0  0  0  0  0  0
  141.3847   77.7831  223.6682 H   0  0  0  0  0  0  0  0  0  0  0  0
  143.4054   79.1015  224.3011 H   0  0  0  0  0  0  0  0  0  0  0  0
  143.4755   81.5641  223.8957 H   0  0  0  0  0  0  0  0  0  0  0  0
  141.4939   82.7216  222.9142 H   0  0  0  0  0  0  0  0  0  0  0  0
  139.4759   81.4137  222.2600 H   0  0  0  0  0  0  0  0  0  0  0  0
  1  2  1  0
  2  3  1  0
  3  4  1  0
  4  5  2  0
  4  6  1  0
  6  7  1  0
  7  8  1  0
  8  9  1  0
  8 10  1  0
 10 11  1  0
 11 12  1  0
 12 13  2  0
 12 14  1  0
 14 15  1  0
 15 16  1  0
 16 17  2  0
 16 18  1  0
 18 19  2  0
 19 20  1  0
 20 21  2  0
 21 22  1  0
 22 23  2  0
 23 24  1  0
 23 25  1  0
 25 26  2  0
 26 27  1  0
 27 28  2  0
  2 29  1  0
 29 30  2  0
 30 31  1  0
 31 32  2  0
 32 33  1  0
 33 34  2  0
 11  6  1  0
 28 18  1  0
 34 29  1  0
 27 21  1  0
  1 35  1  0
  1 36  1  0
  1 37  1  0
  2 38  1  1
  6 39  1  1
  7 40  1  0
  7 41  1  0
  8 42  1  6
  9 43  1  0
 10 44  1  0
 10 45  1  0
 14 46  1  0
 14 47  1  0
 15 48  1  0
 19 49  1  0
 20 50  1  0
 22 51  1  0
 25 52  1  0
 26 53  1  0
 30 54  1  0
 31 55  1  0
 32 56  1  0
 33 57  1  0
 34 58  1  0
M  CHG  1   3  -1
M  END
>  <UniqueID>  (11) 
84

>  <SMILES>  (11) 
C[C@@H]([N-]C(=O)[C@@H]1C[C@@H](O)CN1C(=O)CNC(=O)c1ccc2cc(F)ccc2n1)c1ccccc1

>  <Energy>  (11) 
59.316515999798234

>  <Genealogy>  (11) 
C[C@@H]([N-]C(=O)[C@@H]1C[C@@H](O)CN1C(=O)CNC(=O)c1ccc2cc(F)ccc2n1)c1ccccc1 (protonated)
C[C@@H]([N-]C(=O)[C@@H]1C[C@@H](O)CN1C(=O)CNC(=O)c1ccc2cc(F)ccc2n1)c1ccccc1 (3D coordinates assigned)
C[C@@H]([N-]C(=O)[C@@H]1C[C@@H](O)CN1C(=O)CNC(=O)c1ccc2cc(F)ccc2n1)c1ccccc1 (nonaromatic ring conformer: 59.316515999798234 kcal/mol)

>  <smiles>  (11) 
C[C@@H](NC(=O)[C@@H]1C[C@@H](O)CN1C(=O)CNC(=O)c1ccc2cc(F)ccc2n1)c1ccccc1

>  <score_type>  (11) 
oracle

>  <origin>  (11) 
autodockgpu

>  <m_score__min__energy>  (11) 
-9.0600000000000005

>  <m_primary>  (11) 
energy

>  <meeko>  (11) 
{"free_energy": -8.8, "intermolecular_energy": -11.49, "internal_energy": -2.31, "cluster_size": 11, "cluster_id": 1, "rank_in_cluster": 3}

>  <energy>  (11) 
-7.31

>  <cluster_rmsd>  (11) 
1.87

>  <rmsd>  (11) 
270.42

>  <cluster>  (11) 
1

$$$$
DWYNEBQVPRLYJI-JJGLYHRGNA-M
     RDKit          3D

 58 61  0  0  0  0  0  0  0  0999 V2000
  137.7700   80.0150  223.1510 C   0  0  0  0  0  0  0  0  0  0  0  0
  138.9290   79.1740  222.5950 C   0  0  1  0  0  0  0  0  0  0  0  0
  138.8280   79.0720  221.1410 N   0  0  0  0  0  0  0  0  0  0  0  0
  139.3060   77.9470  220.3900 C   0  0  0  0  0  0  0  0  0  0  0  0
  138.5360   77.3280  219.6100 O   0  0  0  0  0  0  0  0  0  0  0  0
  140.7110   77.4530  220.5910 C   0  0  2  0  0  0  0  0  0  0  0  0
  141.6060   77.8550  219.4150 C   0  0  0  0  0  0  0  0  0  0  0  0
  142.4600   76.6210  219.0980 C   0  0  1  0  0  0  0  0  0  0  0  0
  143.7470   76.7330  219.6620 O   0  0  0  0  0  0  0  0  0  0  0  0
  141.7020   75.4290  219.6890 C   0  0  0  0  0  0  0  0  0  0  0  0
  140.7660   75.9940  220.6480 N   0  0  0  0  0  0  0  0  0  0  0  0
  140.0550   75.1630  221.5900 C   0  0  0  0  0  0  0  0  0  0  0  0
  139.7730   75.6260  222.7310 O   0  0  0  0  0  0  0  0  0  0  0  0
  139.6580   73.7460  221.2750 C   0  0  0  0  0  0  0  0  0  0  0  0
  139.6900   72.9130  222.4790 N   0  0  0  0  0  0  0  0  0  0  0  0
  139.8220   71.4870  222.3960 C   0  0  0  0  0  0  0  0  0  0  0  0
  139.9870   70.9400  221.2690 O   0  0  0  0  0  0  0  0  0  0  0  0
  139.7770   70.6560  223.6190 C   0  0  0  0  0  0  0  0  0  0  0  0
  139.1860   69.3800  223.6050 C   0  0  0  0  0  0  0  0  0  0  0  0
  139.1780   68.6090  224.7700 C   0  0  0  0  0  0  0  0  0  0  0  0
  139.7590   69.1090  225.9410 C   0  0  0  0  0  0  0  0  0  0  0  0
  139.7860   68.3530  227.1210 C   0  0  0  0  0  0  0  0  0  0  0  0
  140.3740   68.8820  228.2760 C   0  0  0  0  0  0  0  0  0  0  0  0
  140.4050   68.1480  229.4140 F   0  0  0  0  0  0  0  0  0  0  0  0
  140.9340   70.1660  228.2580 C   0  0  0  0  0  0  0  0  0  0  0  0
  140.9130   70.9240  227.0840 C   0  0  0  0  0  0  0  0  0  0  0  0
  140.3310   70.4000  225.9240 C   0  0  0  0  0  0  0  0  0  0  0  0
  140.3260   71.1270  224.7760 N   0  0  0  0  0  0  0  0  0  0  0  0
  140.3070   79.7000  222.9600 C   0  0  0  0  0  0  0  0  0  0  0  0
  141.3210   78.8780  223.4990 C   0  0  0  0  0  0  0  0  0  0  0  0
  142.5720   79.4150  223.8240 C   0  0  0  0  0  0  0  0  0  0  0  0
  142.8200   80.7780  223.6410 C   0  0  0  0  0  0  0  0  0  0  0  0
  141.8110   81.6110  223.1540 C   0  0  0  0  0  0  0  0  0  0  0  0
  140.5610   81.0780  222.8210 C   0  0  0  0  0  0  0  0  0  0  0  0
  137.7972   79.9953  224.2505 H   0  0  0  0  0  0  0  0  0  0  0  0
  137.8689   81.0529  222.8003 H   0  0  0  0  0  0  0  0  0  0  0  0
  136.8140   79.5990  222.8003 H   0  0  0  0  0  0  0  0  0  0  0  0
  138.8291   78.1853  223.0667 H   0  0  0  0  0  0  0  0  0  0  0  0
  141.0538   77.8993  221.5361 H   0  0  0  0  0  0  0  0  0  0  0  0
  140.9932   78.1306  218.5441 H   0  0  0  0  0  0  0  0  0  0  0  0
  142.2302   78.7267  219.6611 H   0  0  0  0  0  0  0  0  0  0  0  0
  142.6115   76.5058  218.0146 H   0  0  0  0  0  0  0  0  0  0  0  0
  143.7230   77.4600  220.3370 H   0  0  0  0  0  0  0  0  0  0  0  0
  141.1613   74.8882  218.8983 H   0  0  0  0  0  0  0  0  0  0  0  0
  142.3846   74.7089  220.1639 H   0  0  0  0  0  0  0  0  0  0  0  0
  138.6389   73.7413  220.8611 H   0  0  0  0  0  0  0  0  0  0  0  0
  140.3716   73.3356  220.5454 H   0  0  0  0  0  0  0  0  0  0  0  0
  139.5790   73.3610  223.4170 H   0  0  0  0  0  0  0  0  0  0  0  0
  138.7324   68.9910  222.6815 H   0  0  0  0  0  0  0  0  0  0  0  0
  138.7159   67.6108  224.7670 H   0  0  0  0  0  0  0  0  0  0  0  0
  139.3456   67.3452  227.1394 H   0  0  0  0  0  0  0  0  0  0  0  0
  141.3911   70.5784  229.1696 H   0  0  0  0  0  0  0  0  0  0  0  0
  141.3536   71.9318  227.0717 H   0  0  0  0  0  0  0  0  0  0  0  0
  141.1263   77.8081  223.6646 H   0  0  0  0  0  0  0  0  0  0  0  0
  143.3619   78.7625  224.2245 H   0  0  0  0  0  0  0  0  0  0  0  0
  143.8096   81.1943  223.8805 H   0  0  0  0  0  0  0  0  0  0  0  0
  141.9991   82.6879  223.0319 H   0  0  0  0  0  0  0  0  0  0  0  0
  139.7683   81.7424  222.4466 H   0  0  0  0  0  0  0  0  0  0  0  0
  1  2  1  0
  2  3  1  0
  3  4  1  0
  4  5  2  0
  4  6  1  0
  6  7  1  0
  7  8  1  0
  8  9  1  0
  8 10  1  0
 10 11  1  0
 11 12  1  0
 12 13  2  0
 12 14  1  0
 14 15  1  0
 15 16  1  0
 16 17  2  0
 16 18  1  0
 18 19  2  0
 19 20  1  0
 20 21  2  0
 21 22  1  0
 22 23  2  0
 23 24  1  0
 23 25  1  0
 25 26  2  0
 26 27  1  0
 27 28  2  0
  2 29  1  0
 29 30  2  0
 30 31  1  0
 31 32  2  0
 32 33  1  0
 33 34  2  0
 11  6  1  0
 28 18  1  0
 34 29  1  0
 27 21  1  0
  1 35  1  0
  1 36  1  0
  1 37  1  0
  2 38  1  1
  6 39  1  1
  7 40  1  0
  7 41  1  0
  8 42  1  6
  9 43  1  0
 10 44  1  0
 10 45  1  0
 14 46  1  0
 14 47  1  0
 15 48  1  0
 19 49  1  0
 20 50  1  0
 22 51  1  0
 25 52  1  0
 26 53  1  0
 30 54  1  0
 31 55  1  0
 32 56  1  0
 33 57  1  0
 34 58  1  0
M  CHG  1   3  -1
M  END
>  <UniqueID>  (12) 
84

>  <SMILES>  (12) 
C[C@@H]([N-]C(=O)[C@@H]1C[C@@H](O)CN1C(=O)CNC(=O)c1ccc2cc(F)ccc2n1)c1ccccc1

>  <Energy>  (12) 
59.316515999798234

>  <Genealogy>  (12) 
C[C@@H]([N-]C(=O)[C@@H]1C[C@@H](O)CN1C(=O)CNC(=O)c1ccc2cc(F)ccc2n1)c1ccccc1 (protonated)
C[C@@H]([N-]C(=O)[C@@H]1C[C@@H](O)CN1C(=O)CNC(=O)c1ccc2cc(F)ccc2n1)c1ccccc1 (3D coordinates assigned)
C[C@@H]([N-]C(=O)[C@@H]1C[C@@H](O)CN1C(=O)CNC(=O)c1ccc2cc(F)ccc2n1)c1ccccc1 (nonaromatic ring conformer: 59.316515999798234 kcal/mol)

>  <smiles>  (12) 
C[C@@H](NC(=O)[C@@H]1C[C@@H](O)CN1C(=O)CNC(=O)c1ccc2cc(F)ccc2n1)c1ccccc1

>  <score_type>  (12) 
oracle

>  <origin>  (12) 
autodockgpu

>  <m_score__min__energy>  (12) 
-9.0600000000000005

>  <m_primary>  (12) 
energy

>  <meeko>  (12) 
{"free_energy": -8.69, "intermolecular_energy": -11.37, "internal_energy": -2.35, "cluster_size": 11, "cluster_id": 1, "rank_in_cluster": 5}

>  <energy>  (12) 
-8.0

>  <cluster_rmsd>  (12) 
0.0

>  <rmsd>  (12) 
269.86

>  <cluster>  (12) 
2

$$$$
DWYNEBQVPRLYJI-JJGLYHRGNA-M
     RDKit          3D

 58 61  0  0  0  0  0  0  0  0999 V2000
  137.7690   79.2060  223.0380 C   0  0  0  0  0  0  0  0  0  0  0  0
  139.0880   78.7410  222.4010 C   0  0  1  0  0  0  0  0  0  0  0  0
  138.9790   78.7580  220.9450 N   0  0  0  0  0  0  0  0  0  0  0  0
  139.7110   77.8740  220.0840 C   0  0  0  0  0  0  0  0  0  0  0  0
  139.2160   77.4930  218.9920 O   0  0  0  0  0  0  0  0  0  0  0  0
  141.0440   77.3340  220.5230 C   0  0  2  0  0  0  0  0  0  0  0  0
  142.1110   77.5740  219.4500 C   0  0  0  0  0  0  0  0  0  0  0  0
  142.9210   76.2740  219.3670 C   0  0  1  0  0  0  0  0  0  0  0  0
  144.1260   76.3780  220.0920 O   0  0  0  0  0  0  0  0  0  0  0  0
  142.0190   75.1850  219.9530 C   0  0  0  0  0  0  0  0  0  0  0  0
  141.0000   75.8860  220.7180 N   0  0  0  0  0  0  0  0  0  0  0  0
  140.1200   75.1870  221.6240 C   0  0  0  0  0  0  0  0  0  0  0  0
  139.8020   75.7320  222.7180 O   0  0  0  0  0  0  0  0  0  0  0  0
  139.5850   73.8120  221.3270 C   0  0  0  0  0  0  0  0  0  0  0  0
  139.5980   72.9750  222.5290 N   0  0  0  0  0  0  0  0  0  0  0  0
  139.9260   71.5800  222.4610 C   0  0  0  0  0  0  0  0  0  0  0  0
  140.2800   71.0750  221.3580 O   0  0  0  0  0  0  0  0  0  0  0  0
  139.8610   70.7340  223.6720 C   0  0  0  0  0  0  0  0  0  0  0  0
  139.2400   69.4730  223.6420 C   0  0  0  0  0  0  0  0  0  0  0  0
  139.2140   68.6860  224.7960 C   0  0  0  0  0  0  0  0  0  0  0  0
  139.8080   69.1560  225.9730 C   0  0  0  0  0  0  0  0  0  0  0  0
  139.8180   68.3830  227.1420 C   0  0  0  0  0  0  0  0  0  0  0  0
  140.4190   68.8830  228.3040 C   0  0  0  0  0  0  0  0  0  0  0  0
  140.4320   68.1330  229.4320 F   0  0  0  0  0  0  0  0  0  0  0  0
  141.0090   70.1530  228.3040 C   0  0  0  0  0  0  0  0  0  0  0  0
  141.0060   70.9270  227.1400 C   0  0  0  0  0  0  0  0  0  0  0  0
  140.4110   70.4330  225.9730 C   0  0  0  0  0  0  0  0  0  0  0  0
  140.4220   71.1750  224.8350 N   0  0  0  0  0  0  0  0  0  0  0  0
  140.2990   79.5590  222.8180 C   0  0  0  0  0  0  0  0  0  0  0  0
  140.4110   80.9440  222.5630 C   0  0  0  0  0  0  0  0  0  0  0  0
  141.5510   81.6490  222.9630 C   0  0  0  0  0  0  0  0  0  0  0  0
  142.6030   80.9820  223.5980 C   0  0  0  0  0  0  0  0  0  0  0  0
  142.5260   79.6050  223.8130 C   0  0  0  0  0  0  0  0  0  0  0  0
  141.3850   78.8960  223.4210 C   0  0  0  0  0  0  0  0  0  0  0  0
  137.8597   79.1740  224.1338 H   0  0  0  0  0  0  0  0  0  0  0  0
  137.5502   80.2355  222.7181 H   0  0  0  0  0  0  0  0  0  0  0  0
  136.9530   78.5414  222.7181 H   0  0  0  0  0  0  0  0  0  0  0  0
  139.2513   77.7180  222.7709 H   0  0  0  0  0  0  0  0  0  0  0  0
  141.2848   77.8533  221.4623 H   0  0  0  0  0  0  0  0  0  0  0  0
  141.6376   77.7927  218.4814 H   0  0  0  0  0  0  0  0  0  0  0  0
  142.7501   78.4337  219.7001 H   0  0  0  0  0  0  0  0  0  0  0  0
  143.2076   76.0453  218.3299 H   0  0  0  0  0  0  0  0  0  0  0  0
  144.0780   77.1970  220.6520 H   0  0  0  0  0  0  0  0  0  0  0  0
  141.5562   74.5961  219.1474 H   0  0  0  0  0  0  0  0  0  0  0  0
  142.5866   74.4830  220.5815 H   0  0  0  0  0  0  0  0  0  0  0  0
  138.5517   73.8991  220.9600 H   0  0  0  0  0  0  0  0  0  0  0  0
  140.2251   73.3429  220.5652 H   0  0  0  0  0  0  0  0  0  0  0  0
  139.3310   73.3920  223.4490 H   0  0  0  0  0  0  0  0  0  0  0  0
  138.7765   69.1076  222.7137 H   0  0  0  0  0  0  0  0  0  0  0  0
  138.7279   67.6994  224.7797 H   0  0  0  0  0  0  0  0  0  0  0  0
  139.3546   67.3854  227.1468 H   0  0  0  0  0  0  0  0  0  0  0  0
  141.4754   70.5420  229.2211 H   0  0  0  0  0  0  0  0  0  0  0  0
  141.4710   71.9239  227.1410 H   0  0  0  0  0  0  0  0  0  0  0  0
  139.5959   81.4718  222.0462 H   0  0  0  0  0  0  0  0  0  0  0  0
  141.6200   82.7310  222.7775 H   0  0  0  0  0  0  0  0  0  0  0  0
  143.4905   81.5419  223.9279 H   0  0  0  0  0  0  0  0  0  0  0  0
  143.3636   79.0763  224.2914 H   0  0  0  0  0  0  0  0  0  0  0  0
  141.3360   77.8095  223.5857 H   0  0  0  0  0  0  0  0  0  0  0  0
  1  2  1  0
  2  3  1  0
  3  4  1  0
  4  5  2  0
  4  6  1  0
  6  7  1  0
  7  8  1  0
  8  9  1  0
  8 10  1  0
 10 11  1  0
 11 12  1  0
 12 13  2  0
 12 14  1  0
 14 15  1  0
 15 16  1  0
 16 17  2  0
 16 18  1  0
 18 19  2  0
 19 20  1  0
 20 21  2  0
 21 22  1  0
 22 23  2  0
 23 24  1  0
 23 25  1  0
 25 26  2  0
 26 27  1  0
 27 28  2  0
  2 29  1  0
 29 30  2  0
 30 31  1  0
 31 32  2  0
 32 33  1  0
 33 34  2  0
 11  6  1  0
 28 18  1  0
 34 29  1  0
 27 21  1  0
  1 35  1  0
  1 36  1  0
  1 37  1  0
  2 38  1  1
  6 39  1  1
  7 40  1  0
  7 41  1  0
  8 42  1  6
  9 43  1  0
 10 44  1  0
 10 45  1  0
 14 46  1  0
 14 47  1  0
 15 48  1  0
 19 49  1  0
 20 50  1  0
 22 51  1  0
 25 52  1  0
 26 53  1  0
 30 54  1  0
 31 55  1  0
 32 56  1  0
 33 57  1  0
 34 58  1  0
M  CHG  1   3  -1
M  END
>  <UniqueID>  (13) 
84

>  <SMILES>  (13) 
C[C@@H]([N-]C(=O)[C@@H]1C[C@@H](O)CN1C(=O)CNC(=O)c1ccc2cc(F)ccc2n1)c1ccccc1

>  <Energy>  (13) 
59.316515999798234

>  <Genealogy>  (13) 
C[C@@H]([N-]C(=O)[C@@H]1C[C@@H](O)CN1C(=O)CNC(=O)c1ccc2cc(F)ccc2n1)c1ccccc1 (protonated)
C[C@@H]([N-]C(=O)[C@@H]1C[C@@H](O)CN1C(=O)CNC(=O)c1ccc2cc(F)ccc2n1)c1ccccc1 (3D coordinates assigned)
C[C@@H]([N-]C(=O)[C@@H]1C[C@@H](O)CN1C(=O)CNC(=O)c1ccc2cc(F)ccc2n1)c1ccccc1 (nonaromatic ring conformer: 59.316515999798234 kcal/mol)

>  <smiles>  (13) 
C[C@@H](NC(=O)[C@@H]1C[C@@H](O)CN1C(=O)CNC(=O)c1ccc2cc(F)ccc2n1)c1ccccc1

>  <score_type>  (13) 
oracle

>  <origin>  (13) 
autodockgpu

>  <m_score__min__energy>  (13) 
-9.0600000000000005

>  <m_primary>  (13) 
energy

>  <meeko>  (13) 
{"free_energy": -8.87, "intermolecular_energy": -11.56, "internal_energy": -2.21, "cluster_size": 11, "cluster_id": 1, "rank_in_cluster": 2}

>  <energy>  (13) 
-7.92

>  <cluster_rmsd>  (13) 
0.0

>  <rmsd>  (13) 
270.96

>  <cluster>  (13) 
3

$$$$
DWYNEBQVPRLYJI-JJGLYHRGNA-M
     RDKit          3D

 58 61  0  0  0  0  0  0  0  0999 V2000
  137.9780   80.7430  221.7690 C   0  0  0  0  0  0  0  0  0  0  0  0
  138.9680   79.5770  221.6190 C   0  0  1  0  0  0  0  0  0  0  0  0
  139.3150   79.3870  220.2130 N   0  0  0  0  0  0  0  0  0  0  0  0
  139.8240   78.1560  219.6820 C   0  0  0  0  0  0  0  0  0  0  0  0
  139.1870   77.5340  218.7920 O   0  0  0  0  0  0  0  0  0  0  0  0
  141.0840   77.5590  220.2440 C   0  0  2  0  0  0  0  0  0  0  0  0
  142.2060   77.5680  219.2010 C   0  0  0  0  0  0  0  0  0  0  0  0
  142.8950   76.2020  219.3160 C   0  0  1  0  0  0  0  0  0  0  0  0
  144.0780   76.2900  220.0780 O   0  0  0  0  0  0  0  0  0  0  0  0
  141.8740   75.2780  219.9880 C   0  0  0  0  0  0  0  0  0  0  0  0
  140.8990   76.1580  220.6130 N   0  0  0  0  0  0  0  0  0  0  0  0
  139.9260   75.6580  221.5550 C   0  0  0  0  0  0  0  0  0  0  0  0
  140.1080   74.5270  222.0880 O   0  0  0  0  0  0  0  0  0  0  0  0
  138.6810   76.4250  221.9100 C   0  0  0  0  0  0  0  0  0  0  0  0
  137.7840   75.6130  222.7360 N   0  0  0  0  0  0  0  0  0  0  0  0
  136.5590   76.1490  223.2550 C   0  0  0  0  0  0  0  0  0  0  0  0
  136.2070   77.3210  222.9380 O   0  0  0  0  0  0  0  0  0  0  0  0
  135.7040   75.3390  224.1490 C   0  0  0  0  0  0  0  0  0  0  0  0
  134.8350   75.9510  225.0700 C   0  0  0  0  0  0  0  0  0  0  0  0
  134.0220   75.1600  225.8860 C   0  0  0  0  0  0  0  0  0  0  0  0
  134.0760   73.7650  225.7810 C   0  0  0  0  0  0  0  0  0  0  0  0
  133.2600   72.9430  226.5690 C   0  0  0  0  0  0  0  0  0  0  0  0
  133.3390   71.5510  226.4410 C   0  0  0  0  0  0  0  0  0  0  0  0
  132.5460   70.7580  227.2000 F   0  0  0  0  0  0  0  0  0  0  0  0
  134.2330   70.9760  225.5290 C   0  0  0  0  0  0  0  0  0  0  0  0
  135.0470   71.7900  224.7370 C   0  0  0  0  0  0  0  0  0  0  0  0
  134.9710   73.1830  224.8560 C   0  0  0  0  0  0  0  0  0  0  0  0
  135.7480   73.9770  224.0740 N   0  0  0  0  0  0  0  0  0  0  0  0
  140.2440   79.7410  222.4280 C   0  0  0  0  0  0  0  0  0  0  0  0
  140.6490   78.8130  223.4130 C   0  0  0  0  0  0  0  0  0  0  0  0
  141.8310   79.0150  224.1340 C   0  0  0  0  0  0  0  0  0  0  0  0
  142.6110   80.1510  223.9010 C   0  0  0  0  0  0  0  0  0  0  0  0
  142.1980   81.1000  222.9640 C   0  0  0  0  0  0  0  0  0  0  0  0
  141.0200   80.9000  222.2360 C   0  0  0  0  0  0  0  0  0  0  0  0
  137.8073   80.9440  222.8369 H   0  0  0  0  0  0  0  0  0  0  0  0
  138.3937   81.6411  221.2887 H   0  0  0  0  0  0  0  0  0  0  0  0
  137.0244   80.4784  221.2887 H   0  0  0  0  0  0  0  0  0  0  0  0
  138.4484   78.6934  222.0182 H   0  0  0  0  0  0  0  0  0  0  0  0
  141.3388   78.1688  221.1233 H   0  0  0  0  0  0  0  0  0  0  0  0
  141.7897   77.7032  218.1918 H   0  0  0  0  0  0  0  0  0  0  0  0
  142.9124   78.3934  219.3735 H   0  0  0  0  0  0  0  0  0  0  0  0
  143.1966   75.8204  218.3294 H   0  0  0  0  0  0  0  0  0  0  0  0
  144.0990   77.1830  220.5100 H   0  0  0  0  0  0  0  0  0  0  0  0
  141.3868   74.6358  219.2395 H   0  0  0  0  0  0  0  0  0  0  0  0
  142.3504   74.6125  220.7229 H   0  0  0  0  0  0  0  0  0  0  0  0
  138.9626   77.3305  222.4674 H   0  0  0  0  0  0  0  0  0  0  0  0
  138.1566   76.6930  220.9809 H   0  0  0  0  0  0  0  0  0  0  0  0
  138.0570   74.6340  222.9820 H   0  0  0  0  0  0  0  0  0  0  0  0
  134.7955   77.0475  225.1477 H   0  0  0  0  0  0  0  0  0  0  0  0
  133.3410   75.6324  226.6093 H   0  0  0  0  0  0  0  0  0  0  0  0
  132.5578   73.3908  227.2877 H   0  0  0  0  0  0  0  0  0  0  0  0
  134.2945   69.8817  225.4361 H   0  0  0  0  0  0  0  0  0  0  0  0
  135.7474   71.3365  224.0202 H   0  0  0  0  0  0  0  0  0  0  0  0
  140.0310   77.9256  223.6145 H   0  0  0  0  0  0  0  0  0  0  0  0
  142.1472   78.2775  224.8864 H   0  0  0  0  0  0  0  0  0  0  0  0
  143.5497   80.2973  224.4555 H   0  0  0  0  0  0  0  0  0  0  0  0
  142.7994   82.0060  222.7979 H   0  0  0  0  0  0  0  0  0  0  0  0
  140.6967   81.6564  221.5057 H   0  0  0  0  0  0  0  0  0  0  0  0
  1  2  1  0
  2  3  1  0
  3  4  1  0
  4  5  2  0
  4  6  1  0
  6  7  1  0
  7  8  1  0
  8  9  1  0
  8 10  1  0
 10 11  1  0
 11 12  1  0
 12 13  2  0
 12 14  1  0
 14 15  1  0
 15 16  1  0
 16 17  2  0
 16 18  1  0
 18 19  2  0
 19 20  1  0
 20 21  2  0
 21 22  1  0
 22 23  2  0
 23 24  1  0
 23 25  1  0
 25 26  2  0
 26 27  1  0
 27 28  2  0
  2 29  1  0
 29 30  2  0
 30 31  1  0
 31 32  2  0
 32 33  1  0
 33 34  2  0
 11  6  1  0
 28 18  1  0
 34 29  1  0
 27 21  1  0
  1 35  1  0
  1 36  1  0
  1 37  1  0
  2 38  1  1
  6 39  1  1
  7 40  1  0
  7 41  1  0
  8 42  1  6
  9 43  1  0
 10 44  1  0
 10 45  1  0
 14 46  1  0
 14 47  1  0
 15 48  1  0
 19 49  1  0
 20 50  1  0
 22 51  1  0
 25 52  1  0
 26 53  1  0
 30 54  1  0
 31 55  1  0
 32 56  1  0
 33 57  1  0
 34 58  1  0
M  CHG  1   3  -1
M  END
>  <UniqueID>  (14) 
84

>  <SMILES>  (14) 
C[C@@H]([N-]C(=O)[C@@H]1C[C@@H](O)CN1C(=O)CNC(=O)c1ccc2cc(F)ccc2n1)c1ccccc1

>  <Energy>  (14) 
59.316515999798234

>  <Genealogy>  (14) 
C[C@@H]([N-]C(=O)[C@@H]1C[C@@H](O)CN1C(=O)CNC(=O)c1ccc2cc(F)ccc2n1)c1ccccc1 (protonated)
C[C@@H]([N-]C(=O)[C@@H]1C[C@@H](O)CN1C(=O)CNC(=O)c1ccc2cc(F)ccc2n1)c1ccccc1 (3D coordinates assigned)
C[C@@H]([N-]C(=O)[C@@H]1C[C@@H](O)CN1C(=O)CNC(=O)c1ccc2cc(F)ccc2n1)c1ccccc1 (nonaromatic ring conformer: 59.316515999798234 kcal/mol)

>  <smiles>  (14) 
C[C@@H](NC(=O)[C@@H]1C[C@@H](O)CN1C(=O)CNC(=O)c1ccc2cc(F)ccc2n1)c1ccccc1

>  <score_type>  (14) 
oracle

>  <origin>  (14) 
autodockgpu

>  <m_score__min__energy>  (14) 
-9.0600000000000005

>  <m_primary>  (14) 
energy

>  <meeko>  (14) 
{"free_energy": -7.09, "intermolecular_energy": -9.77, "internal_energy": -2.83, "cluster_size": 1, "cluster_id": 6, "rank_in_cluster": 1}

>  <energy>  (14) 
-7.8

>  <cluster_rmsd>  (14) 
1.68

>  <rmsd>  (14) 
270.91

>  <cluster>  (14) 
3

$$$$
DWYNEBQVPRLYJI-JJGLYHRGNA-M
     RDKit          3D

 58 61  0  0  0  0  0  0  0  0999 V2000
  138.9120   77.8990  221.7660 C   0  0  0  0  0  0  0  0  0  0  0  0
  140.2690   77.7440  222.4690 C   0  0  1  0  0  0  0  0  0  0  0  0
  141.1980   77.0050  221.6170 N   0  0  0  0  0  0  0  0  0  0  0  0
  141.6570   77.4820  220.3450 C   0  0  0  0  0  0  0  0  0  0  0  0
  141.1310   78.4970  219.8170 O   0  0  0  0  0  0  0  0  0  0  0  0
  142.7150   76.7220  219.5960 C   0  0  2  0  0  0  0  0  0  0  0  0
  142.8650   77.2570  218.1680 C   0  0  0  0  0  0  0  0  0  0  0  0
  142.9910   76.0200  217.2690 C   0  0  1  0  0  0  0  0  0  0  0  0
  144.3380   75.7630  216.9410 O   0  0  0  0  0  0  0  0  0  0  0  0
  142.3880   74.8620  218.0700 C   0  0  0  0  0  0  0  0  0  0  0  0
  142.3650   75.3100  219.4530 N   0  0  0  0  0  0  0  0  0  0  0  0
  142.1020   74.3970  220.5390 C   0  0  0  0  0  0  0  0  0  0  0  0
  143.0730   73.8790  221.1590 O   0  0  0  0  0  0  0  0  0  0  0  0
  140.7050   74.0110  220.9470 C   0  0  0  0  0  0  0  0  0  0  0  0
  140.7290   73.0670  222.0670 N   0  0  0  0  0  0  0  0  0  0  0  0
  139.6200   72.1960  222.3300 C   0  0  0  0  0  0  0  0  0  0  0  0
  138.6310   72.1890  221.5430 O   0  0  0  0  0  0  0  0  0  0  0  0
  139.6300   71.3030  223.5090 C   0  0  0  0  0  0  0  0  0  0  0  0
  138.9780   70.0580  223.4790 C   0  0  0  0  0  0  0  0  0  0  0  0
  139.0240   69.2250  224.6000 C   0  0  0  0  0  0  0  0  0  0  0  0
  139.7200   69.6340  225.7440 C   0  0  0  0  0  0  0  0  0  0  0  0
  139.8030   68.8150  226.8780 C   0  0  0  0  0  0  0  0  0  0  0  0
  140.5060   69.2540  228.0070 C   0  0  0  0  0  0  0  0  0  0  0  0
  140.5900   68.4590  229.1000 F   0  0  0  0  0  0  0  0  0  0  0  0
  141.1240   70.5100  228.0090 C   0  0  0  0  0  0  0  0  0  0  0  0
  141.0490   71.3320  226.8790 C   0  0  0  0  0  0  0  0  0  0  0  0
  140.3520   70.8980  225.7450 C   0  0  0  0  0  0  0  0  0  0  0  0
  140.2910   71.6850  224.6400 N   0  0  0  0  0  0  0  0  0  0  0  0
  140.9090   79.0600  222.8770 C   0  0  0  0  0  0  0  0  0  0  0  0
  140.5050   80.3040  222.3450 C   0  0  0  0  0  0  0  0  0  0  0  0
  141.1330   81.4870  222.7510 C   0  0  0  0  0  0  0  0  0  0  0  0
  142.1850   81.4450  223.6700 C   0  0  0  0  0  0  0  0  0  0  0  0
  142.6260   80.2170  224.1680 C   0  0  0  0  0  0  0  0  0  0  0  0
  141.9980   79.0320  223.7700 C   0  0  0  0  0  0  0  0  0  0  0  0
  138.1165   77.9899  222.5203 H   0  0  0  0  0  0  0  0  0  0  0  0
  138.9258   78.8014  221.1371 H   0  0  0  0  0  0  0  0  0  0  0  0
  138.7219   77.0167  221.1371 H   0  0  0  0  0  0  0  0  0  0  0  0
  140.0605   77.1900  223.3961 H   0  0  0  0  0  0  0  0  0  0  0  0
  143.6407   76.8436  220.1776 H   0  0  0  0  0  0  0  0  0  0  0  0
  141.9810   77.8474  217.8854 H   0  0  0  0  0  0  0  0  0  0  0  0
  143.7397   77.9173  218.0729 H   0  0  0  0  0  0  0  0  0  0  0  0
  142.4675   76.1642  216.3124 H   0  0  0  0  0  0  0  0  0  0  0  0
  144.8150   75.5190  217.7760 H   0  0  0  0  0  0  0  0  0  0  0  0
  141.3680   74.6441  217.7205 H   0  0  0  0  0  0  0  0  0  0  0  0
  142.9739   73.9385  217.9522 H   0  0  0  0  0  0  0  0  0  0  0  0
  140.1556   74.9147  221.2495 H   0  0  0  0  0  0  0  0  0  0  0  0
  140.2099   73.5284  220.0914 H   0  0  0  0  0  0  0  0  0  0  0  0
  141.5550   73.0500  222.7070 H   0  0  0  0  0  0  0  0  0  0  0  0
  138.4340   69.7409  222.5771 H   0  0  0  0  0  0  0  0  0  0  0  0
  138.5146   68.2502  224.5837 H   0  0  0  0  0  0  0  0  0  0  0  0
  139.3165   67.8284  226.8815 H   0  0  0  0  0  0  0  0  0  0  0  0
  141.6698   70.8516  228.9008 H   0  0  0  0  0  0  0  0  0  0  0  0
  141.5370   72.3178  226.8817 H   0  0  0  0  0  0  0  0  0  0  0  0
  139.6910   80.3436  221.6062 H   0  0  0  0  0  0  0  0  0  0  0  0
  140.7975   82.4529  222.3455 H   0  0  0  0  0  0  0  0  0  0  0  0
  142.6650   82.3779  224.0007 H   0  0  0  0  0  0  0  0  0  0  0  0
  143.4685   80.1815  224.8743 H   0  0  0  0  0  0  0  0  0  0  0  0
  142.3584   78.0681  224.1586 H   0  0  0  0  0  0  0  0  0  0  0  0
  1  2  1  0
  2  3  1  0
  3  4  1  0
  4  5  2  0
  4  6  1  0
  6  7  1  0
  7  8  1  0
  8  9  1  0
  8 10  1  0
 10 11  1  0
 11 12  1  0
 12 13  2  0
 12 14  1  0
 14 15  1  0
 15 16  1  0
 16 17  2  0
 16 18  1  0
 18 19  2  0
 19 20  1  0
 20 21  2  0
 21 22  1  0
 22 23  2  0
 23 24  1  0
 23 25  1  0
 25 26  2  0
 26 27  1  0
 27 28  2  0
  2 29  1  0
 29 30  2  0
 30 31  1  0
 31 32  2  0
 32 33  1  0
 33 34  2  0
 11  6  1  0
 28 18  1  0
 34 29  1  0
 27 21  1  0
  1 35  1  0
  1 36  1  0
  1 37  1  0
  2 38  1  1
  6 39  1  1
  7 40  1  0
  7 41  1  0
  8 42  1  6
  9 43  1  0
 10 44  1  0
 10 45  1  0
 14 46  1  0
 14 47  1  0
 15 48  1  0
 19 49  1  0
 20 50  1  0
 22 51  1  0
 25 52  1  0
 26 53  1  0
 30 54  1  0
 31 55  1  0
 32 56  1  0
 33 57  1  0
 34 58  1  0
M  CHG  1   3  -1
M  END
>  <UniqueID>  (15) 
84

>  <SMILES>  (15) 
C[C@@H]([N-]C(=O)[C@@H]1C[C@@H](O)CN1C(=O)CNC(=O)c1ccc2cc(F)ccc2n1)c1ccccc1

>  <Energy>  (15) 
59.316515999798234

>  <Genealogy>  (15) 
C[C@@H]([N-]C(=O)[C@@H]1C[C@@H](O)CN1C(=O)CNC(=O)c1ccc2cc(F)ccc2n1)c1ccccc1 (protonated)
C[C@@H]([N-]C(=O)[C@@H]1C[C@@H](O)CN1C(=O)CNC(=O)c1ccc2cc(F)ccc2n1)c1ccccc1 (3D coordinates assigned)
C[C@@H]([N-]C(=O)[C@@H]1C[C@@H](O)CN1C(=O)CNC(=O)c1ccc2cc(F)ccc2n1)c1ccccc1 (nonaromatic ring conformer: 59.316515999798234 kcal/mol)

>  <smiles>  (15) 
C[C@@H](NC(=O)[C@@H]1C[C@@H](O)CN1C(=O)CNC(=O)c1ccc2cc(F)ccc2n1)c1ccccc1

>  <score_type>  (15) 
oracle

>  <origin>  (15) 
autodockgpu

>  <m_score__min__energy>  (15) 
-9.0600000000000005

>  <m_primary>  (15) 
energy

>  <meeko>  (15) 
{"free_energy": -7.79, "intermolecular_energy": -10.48, "internal_energy": -2.33, "cluster_size": 11, "cluster_id": 1, "rank_in_cluster": 8}

>  <energy>  (15) 
-7.56

>  <cluster_rmsd>  (15) 
1.7

>  <rmsd>  (15) 
270.37

>  <cluster>  (15) 
3

$$$$
DWYNEBQVPRLYJI-JJGLYHRGNA-M
     RDKit          3D

 58 61  0  0  0  0  0  0  0  0999 V2000
  137.9420   79.5270  222.0040 C   0  0  0  0  0  0  0  0  0  0  0  0
  139.1010   78.6130  222.4300 C   0  0  1  0  0  0  0  0  0  0  0  0
  139.2380   77.5010  221.4920 N   0  0  0  0  0  0  0  0  0  0  0  0
  139.8320   76.2410  221.8370 C   0  0  0  0  0  0  0  0  0  0  0  0
  139.4040   75.5820  222.8210 O   0  0  0  0  0  0  0  0  0  0  0  0
  141.0250   75.7400  221.0720 C   0  0  2  0  0  0  0  0  0  0  0  0
  141.8680   76.9070  220.5480 C   0  0  0  0  0  0  0  0  0  0  0  0
  142.2530   76.5340  219.1110 C   0  0  1  0  0  0  0  0  0  0  0  0
  143.5640   76.0170  219.0530 O   0  0  0  0  0  0  0  0  0  0  0  0
  141.2280   75.4870  218.6650 C   0  0  0  0  0  0  0  0  0  0  0  0
  140.6260   74.9810  219.8890 N   0  0  0  0  0  0  0  0  0  0  0  0
  139.7960   73.7990  219.8890 C   0  0  0  0  0  0  0  0  0  0  0  0
  140.0570   72.8620  219.0830 O   0  0  0  0  0  0  0  0  0  0  0  0
  138.6070   73.6500  220.8000 C   0  0  0  0  0  0  0  0  0  0  0  0
  138.9690   72.9190  222.0170 N   0  0  0  0  0  0  0  0  0  0  0  0
  138.9190   71.4860  222.0680 C   0  0  0  0  0  0  0  0  0  0  0  0
  138.6280   70.8340  221.0260 O   0  0  0  0  0  0  0  0  0  0  0  0
  139.2140   70.7690  223.3280 C   0  0  0  0  0  0  0  0  0  0  0  0
  138.9230   69.4010  223.4670 C   0  0  0  0  0  0  0  0  0  0  0  0
  139.2340   68.7450  224.6600 C   0  0  0  0  0  0  0  0  0  0  0  0
  139.8350   69.4520  225.7080 C   0  0  0  0  0  0  0  0  0  0  0  0
  140.1790   68.8200  226.9100 C   0  0  0  0  0  0  0  0  0  0  0  0
  140.7780   69.5560  227.9400 C   0  0  0  0  0  0  0  0  0  0  0  0
  141.1150   68.9430  229.1000 F   0  0  0  0  0  0  0  0  0  0  0  0
  141.0330   70.9230  227.7740 C   0  0  0  0  0  0  0  0  0  0  0  0
  140.6960   71.5600  226.5760 C   0  0  0  0  0  0  0  0  0  0  0  0
  140.1010   70.8300  225.5400 C   0  0  0  0  0  0  0  0  0  0  0  0
  139.7890   71.4400  224.3680 N   0  0  0  0  0  0  0  0  0  0  0  0
  140.4380   79.3240  222.5530 C   0  0  0  0  0  0  0  0  0  0  0  0
  140.9790   80.1200  221.5200 C   0  0  0  0  0  0  0  0  0  0  0  0
  142.2180   80.7490  221.6830 C   0  0  0  0  0  0  0  0  0  0  0  0
  142.9440   80.5750  222.8640 C   0  0  0  0  0  0  0  0  0  0  0  0
  142.4430   79.7520  223.8750 C   0  0  0  0  0  0  0  0  0  0  0  0
  141.2020   79.1260  223.7200 C   0  0  0  0  0  0  0  0  0  0  0  0
  137.4396   79.9232  222.8987 H   0  0  0  0  0  0  0  0  0  0  0  0
  138.3344   80.3613  221.4041 H   0  0  0  0  0  0  0  0  0  0  0  0
  137.2221   78.9509  221.4041 H   0  0  0  0  0  0  0  0  0  0  0  0
  138.8380   78.2511  223.4349 H   0  0  0  0  0  0  0  0  0  0  0  0
  141.5900   75.1104  221.7751 H   0  0  0  0  0  0  0  0  0  0  0  0
  141.2816   77.8376  220.5579 H   0  0  0  0  0  0  0  0  0  0  0  0
  142.7567   77.0767  221.1736 H   0  0  0  0  0  0  0  0  0  0  0  0
  142.2430   77.4143  218.4514 H   0  0  0  0  0  0  0  0  0  0  0  0
  144.0460   76.4850  218.3210 H   0  0  0  0  0  0  0  0  0  0  0  0
  140.4629   75.9481  218.0231 H   0  0  0  0  0  0  0  0  0  0  0  0
  141.6971   74.6823  218.0798 H   0  0  0  0  0  0  0  0  0  0  0  0
  138.2376   74.6486  221.0762 H   0  0  0  0  0  0  0  0  0  0  0  0
  137.8266   73.0847  220.2696 H   0  0  0  0  0  0  0  0  0  0  0  0
  139.2350   73.4510  222.8760 H   0  0  0  0  0  0  0  0  0  0  0  0
  138.4524   68.8495  222.6397 H   0  0  0  0  0  0  0  0  0  0  0  0
  139.0071   67.6749  224.7759 H   0  0  0  0  0  0  0  0  0  0  0  0
  139.9788   67.7468  227.0447 H   0  0  0  0  0  0  0  0  0  0  0  0
  141.4996   71.4969  228.5882 H   0  0  0  0  0  0  0  0  0  0  0  0
  140.8981   72.6336  226.4475 H   0  0  0  0  0  0  0  0  0  0  0  0
  140.4221   80.2466  220.5799 H   0  0  0  0  0  0  0  0  0  0  0  0
  142.6217   81.3822  220.8792 H   0  0  0  0  0  0  0  0  0  0  0  0
  143.9091   81.0857  222.9974 H   0  0  0  0  0  0  0  0  0  0  0  0
  143.0255   79.5958  224.7949 H   0  0  0  0  0  0  0  0  0  0  0  0
  140.8186   78.4724  224.5174 H   0  0  0  0  0  0  0  0  0  0  0  0
  1  2  1  0
  2  3  1  0
  3  4  1  0
  4  5  2  0
  4  6  1  0
  6  7  1  0
  7  8  1  0
  8  9  1  0
  8 10  1  0
 10 11  1  0
 11 12  1  0
 12 13  2  0
 12 14  1  0
 14 15  1  0
 15 16  1  0
 16 17  2  0
 16 18  1  0
 18 19  2  0
 19 20  1  0
 20 21  2  0
 21 22  1  0
 22 23  2  0
 23 24  1  0
 23 25  1  0
 25 26  2  0
 26 27  1  0
 27 28  2  0
  2 29  1  0
 29 30  2  0
 30 31  1  0
 31 32  2  0
 32 33  1  0
 33 34  2  0
 11  6  1  0
 28 18  1  0
 34 29  1  0
 27 21  1  0
  1 35  1  0
  1 36  1  0
  1 37  1  0
  2 38  1  1
  6 39  1  1
  7 40  1  0
  7 41  1  0
  8 42  1  6
  9 43  1  0
 10 44  1  0
 10 45  1  0
 14 46  1  0
 14 47  1  0
 15 48  1  0
 19 49  1  0
 20 50  1  0
 22 51  1  0
 25 52  1  0
 26 53  1  0
 30 54  1  0
 31 55  1  0
 32 56  1  0
 33 57  1  0
 34 58  1  0
M  CHG  1   3  -1
M  END
>  <UniqueID>  (16) 
84

>  <SMILES>  (16) 
C[C@@H]([N-]C(=O)[C@@H]1C[C@@H](O)CN1C(=O)CNC(=O)c1ccc2cc(F)ccc2n1)c1ccccc1

>  <Energy>  (16) 
59.316515999798234

>  <Genealogy>  (16) 
C[C@@H]([N-]C(=O)[C@@H]1C[C@@H](O)CN1C(=O)CNC(=O)c1ccc2cc(F)ccc2n1)c1ccccc1 (protonated)
C[C@@H]([N-]C(=O)[C@@H]1C[C@@H](O)CN1C(=O)CNC(=O)c1ccc2cc(F)ccc2n1)c1ccccc1 (3D coordinates assigned)
C[C@@H]([N-]C(=O)[C@@H]1C[C@@H](O)CN1C(=O)CNC(=O)c1ccc2cc(F)ccc2n1)c1ccccc1 (nonaromatic ring conformer: 59.316515999798234 kcal/mol)

>  <smiles>  (16) 
C[C@@H](NC(=O)[C@@H]1C[C@@H](O)CN1C(=O)CNC(=O)c1ccc2cc(F)ccc2n1)c1ccccc1

>  <score_type>  (16) 
oracle

>  <origin>  (16) 
autodockgpu

>  <m_score__min__energy>  (16) 
-9.0600000000000005

>  <m_primary>  (16) 
energy

>  <meeko>  (16) 
{"free_energy": -7.62, "intermolecular_energy": -10.3, "internal_energy": -2.73, "cluster_size": 11, "cluster_id": 1, "rank_in_cluster": 9}

>  <energy>  (16) 
-7.5

>  <cluster_rmsd>  (16) 
1.89

>  <rmsd>  (16) 
270.46

>  <cluster>  (16) 
3

$$$$
DWYNEBQVPRLYJI-JJGLYHRGNA-M
     RDKit          3D

 58 61  0  0  0  0  0  0  0  0999 V2000
  142.1270   80.0300  219.0270 C   0  0  0  0  0  0  0  0  0  0  0  0
  140.9940   79.7780  220.0330 C   0  0  1  0  0  0  0  0  0  0  0  0
  140.3660   78.4850  219.7740 N   0  0  0  0  0  0  0  0  0  0  0  0
  141.0640   77.3600  219.2230 C   0  0  0  0  0  0  0  0  0  0  0  0
  140.7500   76.9070  218.0910 O   0  0  0  0  0  0  0  0  0  0  0  0
  142.1240   76.6650  220.0320 C   0  0  2  0  0  0  0  0  0  0  0  0
  143.3360   76.3180  219.1610 C   0  0  0  0  0  0  0  0  0  0  0  0
  143.7440   74.8940  219.5620 C   0  0  1  0  0  0  0  0  0  0  0  0
  144.8330   74.9100  220.4580 O   0  0  0  0  0  0  0  0  0  0  0  0
  142.5050   74.2740  220.2130 C   0  0  0  0  0  0  0  0  0  0  0  0
  141.6450   75.3930  220.5670 N   0  0  0  0  0  0  0  0  0  0  0  0
  140.5000   75.2230  221.4300 C   0  0  0  0  0  0  0  0  0  0  0  0
  140.3710   75.9730  222.4380 O   0  0  0  0  0  0  0  0  0  0  0  0
  139.4610   74.1610  221.1890 C   0  0  0  0  0  0  0  0  0  0  0  0
  139.3510   73.2660  222.3430 N   0  0  0  0  0  0  0  0  0  0  0  0
  140.3410   72.2600  222.6020 C   0  0  0  0  0  0  0  0  0  0  0  0
  141.3660   72.1880  221.8660 O   0  0  0  0  0  0  0  0  0  0  0  0
  140.1750   71.3150  223.7280 C   0  0  0  0  0  0  0  0  0  0  0  0
  139.5090   70.0900  223.5520 C   0  0  0  0  0  0  0  0  0  0  0  0
  139.3870   69.2080  224.6290 C   0  0  0  0  0  0  0  0  0  0  0  0
  139.9300   69.5480  225.8730 C   0  0  0  0  0  0  0  0  0  0  0  0
  139.8440   68.6770  226.9680 C   0  0  0  0  0  0  0  0  0  0  0  0
  140.3950   69.0480  228.2000 C   0  0  0  0  0  0  0  0  0  0  0  0
  140.3160   68.2030  229.2560 F   0  0  0  0  0  0  0  0  0  0  0  0
  141.0320   70.2870  228.3440 C   0  0  0  0  0  0  0  0  0  0  0  0
  141.1250   71.1590  227.2560 C   0  0  0  0  0  0  0  0  0  0  0  0
  140.5800   70.7940  226.0190 C   0  0  0  0  0  0  0  0  0  0  0  0
  140.6840   71.6310  224.9540 N   0  0  0  0  0  0  0  0  0  0  0  0
  141.4330   79.8340  221.4870 C   0  0  0  0  0  0  0  0  0  0  0  0
  142.2000   80.8960  222.0140 C   0  0  0  0  0  0  0  0  0  0  0  0
  142.5830   80.8950  223.3600 C   0  0  0  0  0  0  0  0  0  0  0  0
  142.2290   79.8290  224.1900 C   0  0  0  0  0  0  0  0  0  0  0  0
  141.5110   78.7500  223.6710 C   0  0  0  0  0  0  0  0  0  0  0  0
  141.1200   78.7480  222.3280 C   0  0  0  0  0  0  0  0  0  0  0  0
  143.0605   80.2376  219.5705 H   0  0  0  0  0  0  0  0  0  0  0  0
  142.2609   79.1397  218.3950 H   0  0  0  0  0  0  0  0  0  0  0  0
  141.8709   80.8931  218.3950 H   0  0  0  0  0  0  0  0  0  0  0  0
  140.2779   80.5995  219.8837 H   0  0  0  0  0  0  0  0  0  0  0  0
  142.3888   77.3602  220.8423 H   0  0  0  0  0  0  0  0  0  0  0  0
  143.0649   76.3532  218.0955 H   0  0  0  0  0  0  0  0  0  0  0  0
  144.1593   77.0323  219.3092 H   0  0  0  0  0  0  0  0  0  0  0  0
  144.0747   74.3110  218.6898 H   0  0  0  0  0  0  0  0  0  0  0  0
  145.6690   74.8660  219.9260 H   0  0  0  0  0  0  0  0  0  0  0  0
  141.9932   73.6060  219.5046 H   0  0  0  0  0  0  0  0  0  0  0  0
  142.7683   73.6697  221.0936 H   0  0  0  0  0  0  0  0  0  0  0  0
  138.4879   74.6426  221.0127 H   0  0  0  0  0  0  0  0  0  0  0  0
  139.7609   73.5685  220.3121 H   0  0  0  0  0  0  0  0  0  0  0  0
  138.5190   73.3360  222.9710 H   0  0  0  0  0  0  0  0  0  0  0  0
  139.0859   69.8268  222.5713 H   0  0  0  0  0  0  0  0  0  0  0  0
  138.8652   68.2484  224.4991 H   0  0  0  0  0  0  0  0  0  0  0  0
  139.3441   67.7032  226.8592 H   0  0  0  0  0  0  0  0  0  0  0  0
  141.4600   70.5743  229.3157 H   0  0  0  0  0  0  0  0  0  0  0  0
  141.6260   72.1315  227.3713 H   0  0  0  0  0  0  0  0  0  0  0  0
  142.4986   81.7300  221.3619 H   0  0  0  0  0  0  0  0  0  0  0  0
  143.1645   81.7361  223.7654 H   0  0  0  0  0  0  0  0  0  0  0  0
  142.5157   79.8396  225.2519 H   0  0  0  0  0  0  0  0  0  0  0  0
  141.2523   77.8999  224.3194 H   0  0  0  0  0  0  0  0  0  0  0  0
  140.5625   77.8899  221.9245 H   0  0  0  0  0  0  0  0  0  0  0  0
  1  2  1  0
  2  3  1  0
  3  4  1  0
  4  5  2  0
  4  6  1  0
  6  7  1  0
  7  8  1  0
  8  9  1  0
  8 10  1  0
 10 11  1  0
 11 12  1  0
 12 13  2  0
 12 14  1  0
 14 15  1  0
 15 16  1  0
 16 17  2  0
 16 18  1  0
 18 19  2  0
 19 20  1  0
 20 21  2  0
 21 22  1  0
 22 23  2  0
 23 24  1  0
 23 25  1  0
 25 26  2  0
 26 27  1  0
 27 28  2  0
  2 29  1  0
 29 30  2  0
 30 31  1  0
 31 32  2  0
 32 33  1  0
 33 34  2  0
 11  6  1  0
 28 18  1  0
 34 29  1  0
 27 21  1  0
  1 35  1  0
  1 36  1  0
  1 37  1  0
  2 38  1  1
  6 39  1  1
  7 40  1  0
  7 41  1  0
  8 42  1  6
  9 43  1  0
 10 44  1  0
 10 45  1  0
 14 46  1  0
 14 47  1  0
 15 48  1  0
 19 49  1  0
 20 50  1  0
 22 51  1  0
 25 52  1  0
 26 53  1  0
 30 54  1  0
 31 55  1  0
 32 56  1  0
 33 57  1  0
 34 58  1  0
M  CHG  1   3  -1
M  END
>  <UniqueID>  (17) 
84

>  <SMILES>  (17) 
C[C@@H]([N-]C(=O)[C@@H]1C[C@@H](O)CN1C(=O)CNC(=O)c1ccc2cc(F)ccc2n1)c1ccccc1

>  <Energy>  (17) 
59.316515999798234

>  <Genealogy>  (17) 
C[C@@H]([N-]C(=O)[C@@H]1C[C@@H](O)CN1C(=O)CNC(=O)c1ccc2cc(F)ccc2n1)c1ccccc1 (protonated)
C[C@@H]([N-]C(=O)[C@@H]1C[C@@H](O)CN1C(=O)CNC(=O)c1ccc2cc(F)ccc2n1)c1ccccc1 (3D coordinates assigned)
C[C@@H]([N-]C(=O)[C@@H]1C[C@@H](O)CN1C(=O)CNC(=O)c1ccc2cc(F)ccc2n1)c1ccccc1 (nonaromatic ring conformer: 59.316515999798234 kcal/mol)

>  <smiles>  (17) 
C[C@@H](NC(=O)[C@@H]1C[C@@H](O)CN1C(=O)CNC(=O)c1ccc2cc(F)ccc2n1)c1ccccc1

>  <score_type>  (17) 
oracle

>  <origin>  (17) 
autodockgpu

>  <m_score__min__energy>  (17) 
-9.0600000000000005

>  <m_primary>  (17) 
energy

>  <meeko>  (17) 
{"free_energy": -9.06, "intermolecular_energy": -11.75, "internal_energy": -1.92, "cluster_size": 11, "cluster_id": 1, "rank_in_cluster": 1}

>  <energy>  (17) 
-7.61

>  <cluster_rmsd>  (17) 
0.0

>  <rmsd>  (17) 
270.27

>  <cluster>  (17) 
4

$$$$
DWYNEBQVPRLYJI-JJGLYHRGNA-M
     RDKit          3D

 58 61  0  0  0  0  0  0  0  0999 V2000
  138.3850   81.4360  221.4090 C   0  0  0  0  0  0  0  0  0  0  0  0
  139.0800   80.0690  221.5110 C   0  0  1  0  0  0  0  0  0  0  0  0
  139.4390   79.5840  220.1810 N   0  0  0  0  0  0  0  0  0  0  0  0
  139.7250   78.2090  219.8880 C   0  0  0  0  0  0  0  0  0  0  0  0
  138.8520   77.4770  219.3510 O   0  0  0  0  0  0  0  0  0  0  0  0
  141.0430   77.6130  220.2960 C   0  0  2  0  0  0  0  0  0  0  0  0
  142.0790   77.7630  219.1770 C   0  0  0  0  0  0  0  0  0  0  0  0
  142.8180   76.4200  219.1090 C   0  0  1  0  0  0  0  0  0  0  0  0
  144.0530   76.4830  219.7860 O   0  0  0  0  0  0  0  0  0  0  0  0
  141.8830   75.3980  219.7640 C   0  0  0  0  0  0  0  0  0  0  0  0
  140.9320   76.1770  220.5410 N   0  0  0  0  0  0  0  0  0  0  0  0
  140.0520   75.5550  221.5010 C   0  0  0  0  0  0  0  0  0  0  0  0
  140.0230   75.9940  222.6860 O   0  0  0  0  0  0  0  0  0  0  0  0
  139.1820   74.3770  221.1530 C   0  0  0  0  0  0  0  0  0  0  0  0
  139.1040   73.4360  222.2720 N   0  0  0  0  0  0  0  0  0  0  0  0
  140.2200   72.6080  222.6290 C   0  0  0  0  0  0  0  0  0  0  0  0
  141.3170   72.7410  222.0160 O   0  0  0  0  0  0  0  0  0  0  0  0
  140.0980   71.6090  223.7130 C   0  0  0  0  0  0  0  0  0  0  0  0
  139.4780   70.3680  223.4870 C   0  0  0  0  0  0  0  0  0  0  0  0
  139.3970   69.4360  224.5240 C   0  0  0  0  0  0  0  0  0  0  0  0
  139.9360   69.7410  225.7800 C   0  0  0  0  0  0  0  0  0  0  0  0
  139.8900   68.8210  226.8360 C   0  0  0  0  0  0  0  0  0  0  0  0
  140.4360   69.1580  228.0800 C   0  0  0  0  0  0  0  0  0  0  0  0
  140.3960   68.2660  229.0980 F   0  0  0  0  0  0  0  0  0  0  0  0
  141.0260   70.4130  228.2750 C   0  0  0  0  0  0  0  0  0  0  0  0
  141.0790   71.3350  227.2250 C   0  0  0  0  0  0  0  0  0  0  0  0
  140.5390   71.0040  225.9770 C   0  0  0  0  0  0  0  0  0  0  0  0
  140.6040   71.8900  224.9490 N   0  0  0  0  0  0  0  0  0  0  0  0
  140.3200   80.0690  222.3900 C   0  0  0  0  0  0  0  0  0  0  0  0
  140.6530   78.9930  223.2420 C   0  0  0  0  0  0  0  0  0  0  0  0
  141.8040   79.0460  224.0360 C   0  0  0  0  0  0  0  0  0  0  0  0
  142.6230   80.1780  224.0110 C   0  0  0  0  0  0  0  0  0  0  0  0
  142.2800   81.2680  223.2080 C   0  0  0  0  0  0  0  0  0  0  0  0
  141.1340   81.2180  222.4080 C   0  0  0  0  0  0  0  0  0  0  0  0
  138.1880   81.8235  222.4195 H   0  0  0  0  0  0  0  0  0  0  0  0
  139.0354   82.1385  220.8673 H   0  0  0  0  0  0  0  0  0  0  0  0
  137.4342   81.3244  220.8673 H   0  0  0  0  0  0  0  0  0  0  0  0
  138.3490   79.4005  221.9893 H   0  0  0  0  0  0  0  0  0  0  0  0
  141.3459   78.1474  221.2085 H   0  0  0  0  0  0  0  0  0  0  0  0
  141.5807   77.9750  218.2195 H   0  0  0  0  0  0  0  0  0  0  0  0
  142.7700   78.5959  219.3739 H   0  0  0  0  0  0  0  0  0  0  0  0
  143.0534   76.1441  218.0705 H   0  0  0  0  0  0  0  0  0  0  0  0
  144.0110   77.2350  220.4320 H   0  0  0  0  0  0  0  0  0  0  0  0
  141.3599   74.8092  218.9961 H   0  0  0  0  0  0  0  0  0  0  0  0
  142.4365   74.6865  220.3944 H   0  0  0  0  0  0  0  0  0  0  0  0
  138.1701   74.7352  220.9126 H   0  0  0  0  0  0  0  0  0  0  0  0
  139.6219   73.8587  220.2882 H   0  0  0  0  0  0  0  0  0  0  0  0
  138.2070   73.3380  222.8000 H   0  0  0  0  0  0  0  0  0  0  0  0
  139.0585   70.1319  222.4979 H   0  0  0  0  0  0  0  0  0  0  0  0
  138.9107   68.4640  224.3545 H   0  0  0  0  0  0  0  0  0  0  0  0
  139.4253   67.8351  226.6875 H   0  0  0  0  0  0  0  0  0  0  0  0
  141.4487   70.6741  229.2564 H   0  0  0  0  0  0  0  0  0  0  0  0
  141.5447   72.3195  227.3798 H   0  0  0  0  0  0  0  0  0  0  0  0
  140.0027   78.1067  223.2817 H   0  0  0  0  0  0  0  0  0  0  0  0
  142.0648   78.1944  224.6815 H   0  0  0  0  0  0  0  0  0  0  0  0
  143.5365   80.2105  224.6229 H   0  0  0  0  0  0  0  0  0  0  0  0
  142.9127   82.1678  223.2048 H   0  0  0  0  0  0  0  0  0  0  0  0
  140.8657   82.0850  221.7865 H   0  0  0  0  0  0  0  0  0  0  0  0
  1  2  1  0
  2  3  1  0
  3  4  1  0
  4  5  2  0
  4  6  1  0
  6  7  1  0
  7  8  1  0
  8  9  1  0
  8 10  1  0
 10 11  1  0
 11 12  1  0
 12 13  2  0
 12 14  1  0
 14 15  1  0
 15 16  1  0
 16 17  2  0
 16 18  1  0
 18 19  2  0
 19 20  1  0
 20 21  2  0
 21 22  1  0
 22 23  2  0
 23 24  1  0
 23 25  1  0
 25 26  2  0
 26 27  1  0
 27 28  2  0
  2 29  1  0
 29 30  2  0
 30 31  1  0
 31 32  2  0
 32 33  1  0
 33 34  2  0
 11  6  1  0
 28 18  1  0
 34 29  1  0
 27 21  1  0
  1 35  1  0
  1 36  1  0
  1 37  1  0
  2 38  1  1
  6 39  1  1
  7 40  1  0
  7 41  1  0
  8 42  1  6
  9 43  1  0
 10 44  1  0
 10 45  1  0
 14 46  1  0
 14 47  1  0
 15 48  1  0
 19 49  1  0
 20 50  1  0
 22 51  1  0
 25 52  1  0
 26 53  1  0
 30 54  1  0
 31 55  1  0
 32 56  1  0
 33 57  1  0
 34 58  1  0
M  CHG  1   3  -1
M  END
>  <UniqueID>  (18) 
84

>  <SMILES>  (18) 
C[C@@H]([N-]C(=O)[C@@H]1C[C@@H](O)CN1C(=O)CNC(=O)c1ccc2cc(F)ccc2n1)c1ccccc1

>  <Energy>  (18) 
59.316515999798234

>  <Genealogy>  (18) 
C[C@@H]([N-]C(=O)[C@@H]1C[C@@H](O)CN1C(=O)CNC(=O)c1ccc2cc(F)ccc2n1)c1ccccc1 (protonated)
C[C@@H]([N-]C(=O)[C@@H]1C[C@@H](O)CN1C(=O)CNC(=O)c1ccc2cc(F)ccc2n1)c1ccccc1 (3D coordinates assigned)
C[C@@H]([N-]C(=O)[C@@H]1C[C@@H](O)CN1C(=O)CNC(=O)c1ccc2cc(F)ccc2n1)c1ccccc1 (nonaromatic ring conformer: 59.316515999798234 kcal/mol)

>  <smiles>  (18) 
C[C@@H](NC(=O)[C@@H]1C[C@@H](O)CN1C(=O)CNC(=O)c1ccc2cc(F)ccc2n1)c1ccccc1

>  <score_type>  (18) 
oracle

>  <origin>  (18) 
autodockgpu

>  <m_score__min__energy>  (18) 
-9.0600000000000005

>  <m_primary>  (18) 
energy

>  <meeko>  (18) 
{"free_energy": -8.79, "intermolecular_energy": -11.47, "internal_energy": -2.03, "cluster_size": 11, "cluster_id": 1, "rank_in_cluster": 4}

>  <energy>  (18) 
-7.12

>  <cluster_rmsd>  (18) 
0.0

>  <rmsd>  (18) 
270.08

>  <cluster>  (18) 
5

$$$$
DWYNEBQVPRLYJI-JJGLYHRGNA-M
     RDKit          3D

 58 61  0  0  0  0  0  0  0  0999 V2000
  137.9200   80.9930  224.0600 C   0  0  0  0  0  0  0  0  0  0  0  0
  138.7370   79.7090  223.8460 C   0  0  1  0  0  0  0  0  0  0  0  0
  138.0840   78.8540  222.8580 N   0  0  0  0  0  0  0  0  0  0  0  0
  138.5940   77.5760  222.4540 C   0  0  0  0  0  0  0  0  0  0  0  0
  138.2410   76.5290  223.0580 O   0  0  0  0  0  0  0  0  0  0  0  0
  139.6180   77.4890  221.3580 C   0  0  2  0  0  0  0  0  0  0  0  0
  139.2620   78.4300  220.2020 C   0  0  0  0  0  0  0  0  0  0  0  0
  139.5250   77.6330  218.9180 C   0  0  1  0  0  0  0  0  0  0  0  0
  140.7700   77.9750  218.3510 O   0  0  0  0  0  0  0  0  0  0  0  0
  139.4940   76.1590  219.3300 C   0  0  0  0  0  0  0  0  0  0  0  0
  139.6710   76.1510  220.7740 N   0  0  0  0  0  0  0  0  0  0  0  0
  139.9500   74.9310  221.4940 C   0  0  0  0  0  0  0  0  0  0  0  0
  141.0810   74.7810  222.0380 O   0  0  0  0  0  0  0  0  0  0  0  0
  138.9510   73.8100  221.6000 C   0  0  0  0  0  0  0  0  0  0  0  0
  139.3230   72.8780  222.6670 N   0  0  0  0  0  0  0  0  0  0  0  0
  138.8250   71.5320  222.6870 C   0  0  0  0  0  0  0  0  0  0  0  0
  138.1100   71.1170  221.7310 O   0  0  0  0  0  0  0  0  0  0  0  0
  139.1500   70.6280  223.8110 C   0  0  0  0  0  0  0  0  0  0  0  0
  138.8500   69.2560  223.7460 C   0  0  0  0  0  0  0  0  0  0  0  0
  139.1890   68.4220  224.8150 C   0  0  0  0  0  0  0  0  0  0  0  0
  139.8260   68.9560  225.9410 C   0  0  0  0  0  0  0  0  0  0  0  0
  140.1980   68.1450  227.0210 C   0  0  0  0  0  0  0  0  0  0  0  0
  140.8330   68.7100  228.1330 C   0  0  0  0  0  0  0  0  0  0  0  0
  141.1970   67.9240  229.1740 F   0  0  0  0  0  0  0  0  0  0  0  0
  141.0950   70.0850  228.1730 C   0  0  0  0  0  0  0  0  0  0  0  0
  140.7300   70.9000  227.0970 C   0  0  0  0  0  0  0  0  0  0  0  0
  140.0990   70.3420  225.9790 C   0  0  0  0  0  0  0  0  0  0  0  0
  139.7590   71.1280  224.9250 N   0  0  0  0  0  0  0  0  0  0  0  0
  140.1740   79.9540  223.4160 C   0  0  0  0  0  0  0  0  0  0  0  0
  141.2460   79.1340  223.8320 C   0  0  0  0  0  0  0  0  0  0  0  0
  142.5530   79.4080  223.4120 C   0  0  0  0  0  0  0  0  0  0  0  0
  142.8120   80.5120  222.5950 C   0  0  0  0  0  0  0  0  0  0  0  0
  141.7670   81.3580  222.2160 C   0  0  0  0  0  0  0  0  0  0  0  0
  140.4580   81.0860  222.6280 C   0  0  0  0  0  0  0  0  0  0  0  0
  137.8026   81.1775  225.1380 H   0  0  0  0  0  0  0  0  0  0  0  0
  138.4441   81.8424  223.5976 H   0  0  0  0  0  0  0  0  0  0  0  0
  136.9286   80.8781  223.5976 H   0  0  0  0  0  0  0  0  0  0  0  0
  138.7767   79.2162  224.8286 H   0  0  0  0  0  0  0  0  0  0  0  0
  140.5786   77.7560  221.8228 H   0  0  0  0  0  0  0  0  0  0  0  0
  138.2038   78.7246  220.2599 H   0  0  0  0  0  0  0  0  0  0  0  0
  139.8579   79.3541  220.2341 H   0  0  0  0  0  0  0  0  0  0  0  0
  138.7699   77.8524  218.1488 H   0  0  0  0  0  0  0  0  0  0  0  0
  141.4780   77.4950  218.8550 H   0  0  0  0  0  0  0  0  0  0  0  0
  138.5293   75.7051  219.0592 H   0  0  0  0  0  0  0  0  0  0  0  0
  140.2776   75.5783  218.8213 H   0  0  0  0  0  0  0  0  0  0  0  0
  137.9588   74.2312  221.8194 H   0  0  0  0  0  0  0  0  0  0  0  0
  138.9336   73.2631  220.6457 H   0  0  0  0  0  0  0  0  0  0  0  0
  139.9340   73.2070  223.4480 H   0  0  0  0  0  0  0  0  0  0  0  0
  138.3509   68.8409  222.8580 H   0  0  0  0  0  0  0  0  0  0  0  0
  138.9556   67.3479  224.7715 H   0  0  0  0  0  0  0  0  0  0  0  0
  139.9912   67.0649  226.9951 H   0  0  0  0  0  0  0  0  0  0  0  0
  141.5887   70.5246  229.0522 H   0  0  0  0  0  0  0  0  0  0  0  0
  140.9387   71.9795  227.1291 H   0  0  0  0  0  0  0  0  0  0  0  0
  141.0527   78.2743  224.4904 H   0  0  0  0  0  0  0  0  0  0  0  0
  143.3786   78.7524  223.7259 H   0  0  0  0  0  0  0  0  0  0  0  0
  143.8370   80.7144  222.2510 H   0  0  0  0  0  0  0  0  0  0  0  0
  141.9738   82.2401  221.5922 H   0  0  0  0  0  0  0  0  0  0  0  0
  139.6426   81.7630  222.3335 H   0  0  0  0  0  0  0  0  0  0  0  0
  1  2  1  0
  2  3  1  0
  3  4  1  0
  4  5  2  0
  4  6  1  0
  6  7  1  0
  7  8  1  0
  8  9  1  0
  8 10  1  0
 10 11  1  0
 11 12  1  0
 12 13  2  0
 12 14  1  0
 14 15  1  0
 15 16  1  0
 16 17  2  0
 16 18  1  0
 18 19  2  0
 19 20  1  0
 20 21  2  0
 21 22  1  0
 22 23  2  0
 23 24  1  0
 23 25  1  0
 25 26  2  0
 26 27  1  0
 27 28  2  0
  2 29  1  0
 29 30  2  0
 30 31  1  0
 31 32  2  0
 32 33  1  0
 33 34  2  0
 11  6  1  0
 28 18  1  0
 34 29  1  0
 27 21  1  0
  1 35  1  0
  1 36  1  0
  1 37  1  0
  2 38  1  1
  6 39  1  1
  7 40  1  0
  7 41  1  0
  8 42  1  6
  9 43  1  0
 10 44  1  0
 10 45  1  0
 14 46  1  0
 14 47  1  0
 15 48  1  0
 19 49  1  0
 20 50  1  0
 22 51  1  0
 25 52  1  0
 26 53  1  0
 30 54  1  0
 31 55  1  0
 32 56  1  0
 33 57  1  0
 34 58  1  0
M  CHG  1   3  -1
M  END
>  <UniqueID>  (19) 
84

>  <SMILES>  (19) 
C[C@@H]([N-]C(=O)[C@@H]1C[C@@H](O)CN1C(=O)CNC(=O)c1ccc2cc(F)ccc2n1)c1ccccc1

>  <Energy>  (19) 
59.316515999798234

>  <Genealogy>  (19) 
C[C@@H]([N-]C(=O)[C@@H]1C[C@@H](O)CN1C(=O)CNC(=O)c1ccc2cc(F)ccc2n1)c1ccccc1 (protonated)
C[C@@H]([N-]C(=O)[C@@H]1C[C@@H](O)CN1C(=O)CNC(=O)c1ccc2cc(F)ccc2n1)c1ccccc1 (3D coordinates assigned)
C[C@@H]([N-]C(=O)[C@@H]1C[C@@H](O)CN1C(=O)CNC(=O)c1ccc2cc(F)ccc2n1)c1ccccc1 (nonaromatic ring conformer: 59.316515999798234 kcal/mol)

>  <smiles>  (19) 
C[C@@H](NC(=O)[C@@H]1C[C@@H](O)CN1C(=O)CNC(=O)c1ccc2cc(F)ccc2n1)c1ccccc1

>  <score_type>  (19) 
oracle

>  <origin>  (19) 
autodockgpu

>  <m_score__min__energy>  (19) 
-9.0600000000000005

>  <m_primary>  (19) 
energy

>  <meeko>  (19) 
{"free_energy": -7.92, "intermolecular_energy": -10.61, "internal_energy": -2.42, "cluster_size": 4, "cluster_id": 3, "rank_in_cluster": 1}

>  <energy>  (19) 
-7.09

>  <cluster_rmsd>  (19) 
0.0

>  <rmsd>  (19) 
270.23

>  <cluster>  (19) 
6

$$$$
DWYNEBQVPRLYJI-JJGLYHRGNA-M
     RDKit          3D

 58 61  0  0  0  0  0  0  0  0999 V2000
  137.9440   80.8460  223.2070 C   0  0  0  0  0  0  0  0  0  0  0  0
  138.8280   79.7350  223.7940 C   0  0  1  0  0  0  0  0  0  0  0  0
  138.4060   78.4320  223.2870 N   0  0  0  0  0  0  0  0  0  0  0  0
  138.3630   78.0990  221.8930 C   0  0  0  0  0  0  0  0  0  0  0  0
  139.0090   78.7810  221.0540 O   0  0  0  0  0  0  0  0  0  0  0  0
  137.4780   76.9810  221.4150 C   0  0  2  0  0  0  0  0  0  0  0  0
  136.0140   77.2510  221.7740 C   0  0  0  0  0  0  0  0  0  0  0  0
  135.4540   75.9160  222.2810 C   0  0  1  0  0  0  0  0  0  0  0  0
  134.7210   75.2560  221.2730 O   0  0  0  0  0  0  0  0  0  0  0  0
  136.6710   75.0900  222.7060 C   0  0  0  0  0  0  0  0  0  0  0  0
  137.8150   75.7140  222.0610 N   0  0  0  0  0  0  0  0  0  0  0  0
  139.1050   75.0680  222.0190 C   0  0  0  0  0  0  0  0  0  0  0  0
  140.1340   75.7230  222.3470 O   0  0  0  0  0  0  0  0  0  0  0  0
  139.2780   73.6410  221.5700 C   0  0  0  0  0  0  0  0  0  0  0  0
  139.5440   72.7630  222.7110 N   0  0  0  0  0  0  0  0  0  0  0  0
  139.2470   71.3600  222.6570 C   0  0  0  0  0  0  0  0  0  0  0  0
  138.8140   70.8550  221.5830 O   0  0  0  0  0  0  0  0  0  0  0  0
  139.4510   70.5030  223.8450 C   0  0  0  0  0  0  0  0  0  0  0  0
  139.0770   69.1470  223.8320 C   0  0  0  0  0  0  0  0  0  0  0  0
  139.3040   68.3560  224.9610 C   0  0  0  0  0  0  0  0  0  0  0  0
  139.9030   68.9160  226.0950 C   0  0  0  0  0  0  0  0  0  0  0  0
  140.1630   68.1450  227.2360 C   0  0  0  0  0  0  0  0  0  0  0  0
  140.7630   68.7350  228.3550 C   0  0  0  0  0  0  0  0  0  0  0  0
  141.0180   67.9880  229.4560 F   0  0  0  0  0  0  0  0  0  0  0  0
  141.1020   70.0940  228.3400 C   0  0  0  0  0  0  0  0  0  0  0  0
  140.8480   70.8680  227.2040 C   0  0  0  0  0  0  0  0  0  0  0  0
  140.2530   70.2840  226.0790 C   0  0  0  0  0  0  0  0  0  0  0  0
  140.0220   71.0290  224.9670 N   0  0  0  0  0  0  0  0  0  0  0  0
  140.3130   79.9160  223.5210 C   0  0  0  0  0  0  0  0  0  0  0  0
  141.2020   78.8280  223.3820 C   0  0  0  0  0  0  0  0  0  0  0  0
  142.5620   79.0510  223.1370 C   0  0  0  0  0  0  0  0  0  0  0  0
  143.0570   80.3550  223.0520 C   0  0  0  0  0  0  0  0  0  0  0  0
  142.1960   81.4390  223.2360 C   0  0  0  0  0  0  0  0  0  0  0  0
  140.8350   81.2230  223.4740 C   0  0  0  0  0  0  0  0  0  0  0  0
  137.4863   81.4212  224.0253 H   0  0  0  0  0  0  0  0  0  0  0  0
  138.5592   81.5153  222.5877 H   0  0  0  0  0  0  0  0  0  0  0  0
  137.1536   80.3969  222.5877 H   0  0  0  0  0  0  0  0  0  0  0  0
  138.6934   79.7950  224.8841 H   0  0  0  0  0  0  0  0  0  0  0  0
  137.6279   76.9232  220.3268 H   0  0  0  0  0  0  0  0  0  0  0  0
  135.9477   78.0174  222.5603 H   0  0  0  0  0  0  0  0  0  0  0  0
  135.4475   77.6246  220.9083 H   0  0  0  0  0  0  0  0  0  0  0  0
  134.7560   76.0655  223.1179 H   0  0  0  0  0  0  0  0  0  0  0  0
  135.1670   74.3890  221.0870 H   0  0  0  0  0  0  0  0  0  0  0  0
  136.7874   75.1134  223.7996 H   0  0  0  0  0  0  0  0  0  0  0  0
  136.5668   74.0343  222.4149 H   0  0  0  0  0  0  0  0  0  0  0  0
  138.3587   73.3080  221.0660 H   0  0  0  0  0  0  0  0  0  0  0  0
  140.1338   73.5907  220.8808 H   0  0  0  0  0  0  0  0  0  0  0  0
  139.9260   73.1690  223.5960 H   0  0  0  0  0  0  0  0  0  0  0  0
  138.6081   68.7116  222.9373 H   0  0  0  0  0  0  0  0  0  0  0  0
  139.0125   67.2953  224.9585 H   0  0  0  0  0  0  0  0  0  0  0  0
  139.8961   67.0780  227.2524 H   0  0  0  0  0  0  0  0  0  0  0  0
  141.5690   70.5531  229.2238 H   0  0  0  0  0  0  0  0  0  0  0  0
  141.1153   71.9350  227.1938 H   0  0  0  0  0  0  0  0  0  0  0  0
  140.8235   77.7987  223.4668 H   0  0  0  0  0  0  0  0  0  0  0  0
  143.2435   78.1968  223.0109 H   0  0  0  0  0  0  0  0  0  0  0  0
  144.1227   80.5273  222.8406 H   0  0  0  0  0  0  0  0  0  0  0  0
  142.5894   82.4654  223.1936 H   0  0  0  0  0  0  0  0  0  0  0  0
  140.1656   82.0825  223.6260 H   0  0  0  0  0  0  0  0  0  0  0  0
  1  2  1  0
  2  3  1  0
  3  4  1  0
  4  5  2  0
  4  6  1  0
  6  7  1  0
  7  8  1  0
  8  9  1  0
  8 10  1  0
 10 11  1  0
 11 12  1  0
 12 13  2  0
 12 14  1  0
 14 15  1  0
 15 16  1  0
 16 17  2  0
 16 18  1  0
 18 19  2  0
 19 20  1  0
 20 21  2  0
 21 22  1  0
 22 23  2  0
 23 24  1  0
 23 25  1  0
 25 26  2  0
 26 27  1  0
 27 28  2  0
  2 29  1  0
 29 30  2  0
 30 31  1  0
 31 32  2  0
 32 33  1  0
 33 34  2  0
 11  6  1  0
 28 18  1  0
 34 29  1  0
 27 21  1  0
  1 35  1  0
  1 36  1  0
  1 37  1  0
  2 38  1  1
  6 39  1  6
  7 40  1  0
  7 41  1  0
  8 42  1  1
  9 43  1  0
 10 44  1  0
 10 45  1  0
 14 46  1  0
 14 47  1  0
 15 48  1  0
 19 49  1  0
 20 50  1  0
 22 51  1  0
 25 52  1  0
 26 53  1  0
 30 54  1  0
 31 55  1  0
 32 56  1  0
 33 57  1  0
 34 58  1  0
M  CHG  1   3  -1
M  END
>  <UniqueID>  (20) 
84

>  <SMILES>  (20) 
C[C@@H]([N-]C(=O)[C@@H]1C[C@@H](O)CN1C(=O)CNC(=O)c1ccc2cc(F)ccc2n1)c1ccccc1

>  <Energy>  (20) 
59.316515999798234

>  <Genealogy>  (20) 
C[C@@H]([N-]C(=O)[C@@H]1C[C@@H](O)CN1C(=O)CNC(=O)c1ccc2cc(F)ccc2n1)c1ccccc1 (protonated)
C[C@@H]([N-]C(=O)[C@@H]1C[C@@H](O)CN1C(=O)CNC(=O)c1ccc2cc(F)ccc2n1)c1ccccc1 (3D coordinates assigned)
C[C@@H]([N-]C(=O)[C@@H]1C[C@@H](O)CN1C(=O)CNC(=O)c1ccc2cc(F)ccc2n1)c1ccccc1 (nonaromatic ring conformer: 59.316515999798234 kcal/mol)

>  <smiles>  (20) 
C[C@@H](NC(=O)[C@@H]1C[C@@H](O)CN1C(=O)CNC(=O)c1ccc2cc(F)ccc2n1)c1ccccc1

>  <score_type>  (20) 
oracle

>  <origin>  (20) 
autodockgpu

>  <m_score__min__energy>  (20) 
-9.0600000000000005

>  <m_primary>  (20) 
energy

>  <meeko>  (20) 
{"free_energy": -7.8, "intermolecular_energy": -10.49, "internal_energy": -1.95, "cluster_size": 4, "cluster_id": 3, "rank_in_cluster": 2}

>  <energy>  (20) 
-6.61

>  <cluster_rmsd>  (20) 
0.0

>  <rmsd>  (20) 
269.85

>  <cluster>  (20) 
7

$$$$
DWYNEBQVPRLYJI-JJGLYHRGNA-M
     RDKit          3D

 58 61  0  0  0  0  0  0  0  0999 V2000
  141.2650   67.9630  218.3710 C   0  0  0  0  0  0  0  0  0  0  0  0
  142.4110   68.7900  217.7690 C   0  0  1  0  0  0  0  0  0  0  0  0
  142.2900   70.1890  218.1720 N   0  0  0  0  0  0  0  0  0  0  0  0
  142.9880   70.7560  219.2890 C   0  0  0  0  0  0  0  0  0  0  0  0
  142.7690   70.3370  220.4560 O   0  0  0  0  0  0  0  0  0  0  0  0
  143.9260   71.9110  219.0810 C   0  0  2  0  0  0  0  0  0  0  0  0
  145.3700   71.5060  219.3970 C   0  0  0  0  0  0  0  0  0  0  0  0
  145.9680   72.6750  220.1900 C   0  0  1  0  0  0  0  0  0  0  0  0
  146.7520   73.5050  219.3620 O   0  0  0  0  0  0  0  0  0  0  0  0
  144.7730   73.4410  220.7650 C   0  0  0  0  0  0  0  0  0  0  0  0
  143.6230   73.0210  219.9800 N   0  0  0  0  0  0  0  0  0  0  0  0
  142.3600   73.7170  220.0590 C   0  0  0  0  0  0  0  0  0  0  0  0
  142.3550   74.9630  220.2700 O   0  0  0  0  0  0  0  0  0  0  0  0
  141.0390   73.0080  219.9270 C   0  0  0  0  0  0  0  0  0  0  0  0
  140.8360   72.0700  221.0330 N   0  0  0  0  0  0  0  0  0  0  0  0
  140.3120   72.5080  222.2940 C   0  0  0  0  0  0  0  0  0  0  0  0
  139.9490   73.7110  222.4360 O   0  0  0  0  0  0  0  0  0  0  0  0
  140.1840   71.5620  223.4240 C   0  0  0  0  0  0  0  0  0  0  0  0
  139.5810   70.3040  223.2500 C   0  0  0  0  0  0  0  0  0  0  0  0
  139.4950   69.4220  224.3300 C   0  0  0  0  0  0  0  0  0  0  0  0
  140.0110   69.7950  225.5770 C   0  0  0  0  0  0  0  0  0  0  0  0
  139.9590   68.9260  226.6750 C   0  0  0  0  0  0  0  0  0  0  0  0
  140.4830   69.3290  227.9090 C   0  0  0  0  0  0  0  0  0  0  0  0
  140.4370   68.4870  228.9690 F   0  0  0  0  0  0  0  0  0  0  0  0
  141.0560   70.5990  228.0520 C   0  0  0  0  0  0  0  0  0  0  0  0
  141.1140   71.4690  226.9590 C   0  0  0  0  0  0  0  0  0  0  0  0
  140.5970   71.0720  225.7200 C   0  0  0  0  0  0  0  0  0  0  0  0
  140.6680   71.9080  224.6520 N   0  0  0  0  0  0  0  0  0  0  0  0
  143.7970   68.2870  218.1350 C   0  0  0  0  0  0  0  0  0  0  0  0
  144.9180   68.4500  217.2910 C   0  0  0  0  0  0  0  0  0  0  0  0
  146.1720   67.9620  217.6740 C   0  0  0  0  0  0  0  0  0  0  0  0
  146.3220   67.2850  218.8870 C   0  0  0  0  0  0  0  0  0  0  0  0
  145.2130   67.0750  219.7090 C   0  0  0  0  0  0  0  0  0  0  0  0
  143.9580   67.5660  219.3340 C   0  0  0  0  0  0  0  0  0  0  0  0
  141.3210   68.0034  219.4688 H   0  0  0  0  0  0  0  0  0  0  0  0
  140.3011   68.3750  218.0376 H   0  0  0  0  0  0  0  0  0  0  0  0
  141.3522   66.9184  218.0376 H   0  0  0  0  0  0  0  0  0  0  0  0
  142.3108   68.6842  216.6787 H   0  0  0  0  0  0  0  0  0  0  0  0
  143.8052   72.2098  218.0293 H   0  0  0  0  0  0  0  0  0  0  0  0
  145.3866   70.5860  219.9998 H   0  0  0  0  0  0  0  0  0  0  0  0
  145.9434   71.3032  218.4804 H   0  0  0  0  0  0  0  0  0  0  0  0
  146.6387   72.3184  220.9856 H   0  0  0  0  0  0  0  0  0  0  0  0
  146.3520   74.4140  219.3730 H   0  0  0  0  0  0  0  0  0  0  0  0
  144.6278   73.1859  221.8251 H   0  0  0  0  0  0  0  0  0  0  0  0
  144.9248   74.5292  220.7133 H   0  0  0  0  0  0  0  0  0  0  0  0
  140.2289   73.7521  219.9327 H   0  0  0  0  0  0  0  0  0  0  0  0
  141.0361   72.4436  218.9828 H   0  0  0  0  0  0  0  0  0  0  0  0
  141.1100   71.0680  220.9150 H   0  0  0  0  0  0  0  0  0  0  0  0
  139.1786   70.0154  222.2677 H   0  0  0  0  0  0  0  0  0  0  0  0
  139.0230   68.4368  224.2010 H   0  0  0  0  0  0  0  0  0  0  0  0
  139.5072   67.9288  226.5675 H   0  0  0  0  0  0  0  0  0  0  0  0
  141.4609   70.9124  229.0256 H   0  0  0  0  0  0  0  0  0  0  0  0
  141.5659   72.4655  227.0726 H   0  0  0  0  0  0  0  0  0  0  0  0
  144.8041   68.9645  216.3254 H   0  0  0  0  0  0  0  0  0  0  0  0
  147.0424   68.1117  217.0182 H   0  0  0  0  0  0  0  0  0  0  0  0
  147.3125   66.9179  219.1940 H   0  0  0  0  0  0  0  0  0  0  0  0
  145.3265   66.5224  220.6533 H   0  0  0  0  0  0  0  0  0  0  0  0
  143.0877   67.3871  219.9825 H   0  0  0  0  0  0  0  0  0  0  0  0
  1  2  1  0
  2  3  1  0
  3  4  1  0
  4  5  2  0
  4  6  1  0
  6  7  1  0
  7  8  1  0
  8  9  1  0
  8 10  1  0
 10 11  1  0
 11 12  1  0
 12 13  2  0
 12 14  1  0
 14 15  1  0
 15 16  1  0
 16 17  2  0
 16 18  1  0
 18 19  2  0
 19 20  1  0
 20 21  2  0
 21 22  1  0
 22 23  2  0
 23 24  1  0
 23 25  1  0
 25 26  2  0
 26 27  1  0
 27 28  2  0
  2 29  1  0
 29 30  2  0
 30 31  1  0
 31 32  2  0
 32 33  1  0
 33 34  2  0
 11  6  1  0
 28 18  1  0
 34 29  1  0
 27 21  1  0
  1 35  1  0
  1 36  1  0
  1 37  1  0
  2 38  1  6
  6 39  1  6
  7 40  1  0
  7 41  1  0
  8 42  1  1
  9 43  1  0
 10 44  1  0
 10 45  1  0
 14 46  1  0
 14 47  1  0
 15 48  1  0
 19 49  1  0
 20 50  1  0
 22 51  1  0
 25 52  1  0
 26 53  1  0
 30 54  1  0
 31 55  1  0
 32 56  1  0
 33 57  1  0
 34 58  1  0
M  CHG  1   3  -1
M  END
>  <UniqueID>  (21) 
85

>  <SMILES>  (21) 
C[C@@H]([N-]C(=O)[C@@H]1C[C@@H](O)CN1C(=O)CNC(=O)c1ccc2cc(F)ccc2n1)c1ccccc1

>  <Energy>  (21) 
63.06073797193395

>  <Genealogy>  (21) 
C[C@@H]([N-]C(=O)[C@@H]1C[C@@H](O)CN1C(=O)CNC(=O)c1ccc2cc(F)ccc2n1)c1ccccc1 (protonated)
C[C@@H]([N-]C(=O)[C@@H]1C[C@@H](O)CN1C(=O)CNC(=O)c1ccc2cc(F)ccc2n1)c1ccccc1 (3D coordinates assigned)
C[C@@H]([N-]C(=O)[C@@H]1C[C@@H](O)CN1C(=O)CNC(=O)c1ccc2cc(F)ccc2n1)c1ccccc1 (nonaromatic ring conformer: 63.06073797193395 kcal/mol)

>  <smiles>  (21) 
C[C@@H](NC(=O)[C@@H]1C[C@@H](O)CN1C(=O)CNC(=O)c1ccc2cc(F)ccc2n1)c1ccccc1

>  <score_type>  (21) 
oracle

>  <origin>  (21) 
autodockgpu

>  <m_score__min__energy>  (21) 
-9.0600000000000005

>  <m_primary>  (21) 
energy

>  <meeko>  (21) 
{"free_energy": -8.0, "intermolecular_energy": -10.68, "internal_energy": -2.85, "cluster_size": 1, "cluster_id": 2, "rank_in_cluster": 1}

>  <energy>  (21) 
-9.06

>  <cluster_rmsd>  (21) 
0.0

>  <rmsd>  (21) 
271.1

>  <cluster>  (21) 
1

$$$$
DWYNEBQVPRLYJI-JJGLYHRGNA-M
     RDKit          3D

 58 61  0  0  0  0  0  0  0  0999 V2000
  137.7290   79.2970  222.9730 C   0  0  0  0  0  0  0  0  0  0  0  0
  139.0850   78.5960  222.7980 C   0  0  1  0  0  0  0  0  0  0  0  0
  139.1740   77.9930  221.4710 N   0  0  0  0  0  0  0  0  0  0  0  0
  140.2790   78.1980  220.5800 C   0  0  0  0  0  0  0  0  0  0  0  0
  140.2310   79.0970  219.7000 O   0  0  0  0  0  0  0  0  0  0  0  0
  141.4710   77.2840  220.6400 C   0  0  2  0  0  0  0  0  0  0  0  0
  142.3650   77.4700  219.4090 C   0  0  0  0  0  0  0  0  0  0  0  0
  142.7690   76.0580  218.9680 C   0  0  1  0  0  0  0  0  0  0  0  0
  144.0620   75.7310  219.4250 O   0  0  0  0  0  0  0  0  0  0  0  0
  141.7190   75.1190  219.5690 C   0  0  0  0  0  0  0  0  0  0  0  0
  141.0730   75.8780  220.6280 N   0  0  0  0  0  0  0  0  0  0  0  0
  140.2040   75.2430  221.5910 C   0  0  0  0  0  0  0  0  0  0  0  0
  140.0060   75.8030  222.7060 O   0  0  0  0  0  0  0  0  0  0  0  0
  139.5420   73.9180  221.3280 C   0  0  0  0  0  0  0  0  0  0  0  0
  139.6290   73.0470  222.5020 N   0  0  0  0  0  0  0  0  0  0  0  0
  139.7070   71.6210  222.3680 C   0  0  0  0  0  0  0  0  0  0  0  0
  139.7730   71.1050  221.2170 O   0  0  0  0  0  0  0  0  0  0  0  0
  139.7190   70.7540  223.5670 C   0  0  0  0  0  0  0  0  0  0  0  0
  139.1880   69.4520  223.5230 C   0  0  0  0  0  0  0  0  0  0  0  0
  139.2330   68.6480  224.6650 C   0  0  0  0  0  0  0  0  0  0  0  0
  139.8080   69.1410  225.8420 C   0  0  0  0  0  0  0  0  0  0  0  0
  139.8890   68.3530  226.9980 C   0  0  0  0  0  0  0  0  0  0  0  0
  140.4680   68.8760  228.1600 C   0  0  0  0  0  0  0  0  0  0  0  0
  140.5500   68.1120  229.2760 F   0  0  0  0  0  0  0  0  0  0  0  0
  140.9670   70.1850  228.1730 C   0  0  0  0  0  0  0  0  0  0  0  0
  140.8930   70.9750  227.0220 C   0  0  0  0  0  0  0  0  0  0  0  0
  140.3190   70.4580  225.8550 C   0  0  0  0  0  0  0  0  0  0  0  0
  140.2620   71.2160  224.7290 N   0  0  0  0  0  0  0  0  0  0  0  0
  140.2840   79.5050  223.0120 C   0  0  0  0  0  0  0  0  0  0  0  0
  140.3170   80.8450  222.5670 C   0  0  0  0  0  0  0  0  0  0  0  0
  141.4490   81.6370  222.7840 C   0  0  0  0  0  0  0  0  0  0  0  0
  142.5700   81.1010  223.4240 C   0  0  0  0  0  0  0  0  0  0  0  0
  142.5680   79.7640  223.8270 C   0  0  0  0  0  0  0  0  0  0  0  0
  141.4370   78.9690  223.6180 C   0  0  0  0  0  0  0  0  0  0  0  0
  137.5103   79.4100  224.0451 H   0  0  0  0  0  0  0  0  0  0  0  0
  137.7654   80.2892  222.4996 H   0  0  0  0  0  0  0  0  0  0  0  0
  136.9405   78.6936  222.4996 H   0  0  0  0  0  0  0  0  0  0  0  0
  139.1242   77.8263  223.5828 H   0  0  0  0  0  0  0  0  0  0  0  0
  141.9983   77.5387  221.5712 H   0  0  0  0  0  0  0  0  0  0  0  0
  141.8104   77.9779  218.6062 H   0  0  0  0  0  0  0  0  0  0  0  0
  143.2446   78.0896  219.6377 H   0  0  0  0  0  0  0  0  0  0  0  0
  142.8039   75.9753  217.8717 H   0  0  0  0  0  0  0  0  0  0  0  0
  144.6550   75.6450  218.6330 H   0  0  0  0  0  0  0  0  0  0  0  0
  140.9845   74.8254  218.8046 H   0  0  0  0  0  0  0  0  0  0  0  0
  142.1735   74.1934  219.9519 H   0  0  0  0  0  0  0  0  0  0  0  0
  138.4831   74.0871  221.0829 H   0  0  0  0  0  0  0  0  0  0  0  0
  140.0578   73.4284  220.4888 H   0  0  0  0  0  0  0  0  0  0  0  0
  139.6010   73.4690  223.4590 H   0  0  0  0  0  0  0  0  0  0  0  0
  138.7397   69.0689  222.5944 H   0  0  0  0  0  0  0  0  0  0  0  0
  138.8174   67.6299  224.6390 H   0  0  0  0  0  0  0  0  0  0  0  0
  139.4981   67.3248  226.9922 H   0  0  0  0  0  0  0  0  0  0  0  0
  141.4177   70.5918  229.0903 H   0  0  0  0  0  0  0  0  0  0  0  0
  141.2857   72.0024  227.0336 H   0  0  0  0  0  0  0  0  0  0  0  0
  139.4459   81.2688  222.0459 H   0  0  0  0  0  0  0  0  0  0  0  0
  141.4572   82.6850  222.4500 H   0  0  0  0  0  0  0  0  0  0  0  0
  143.4522   81.7312  223.6099 H   0  0  0  0  0  0  0  0  0  0  0  0
  143.4584   79.3352  224.3101 H   0  0  0  0  0  0  0  0  0  0  0  0
  141.4477   77.9142  223.9300 H   0  0  0  0  0  0  0  0  0  0  0  0
  1  2  1  0
  2  3  1  0
  3  4  1  0
  4  5  2  0
  4  6  1  0
  6  7  1  0
  7  8  1  0
  8  9  1  0
  8 10  1  0
 10 11  1  0
 11 12  1  0
 12 13  2  0
 12 14  1  0
 14 15  1  0
 15 16  1  0
 16 17  2  0
 16 18  1  0
 18 19  2  0
 19 20  1  0
 20 21  2  0
 21 22  1  0
 22 23  2  0
 23 24  1  0
 23 25  1  0
 25 26  2  0
 26 27  1  0
 27 28  2  0
  2 29  1  0
 29 30  2  0
 30 31  1  0
 31 32  2  0
 32 33  1  0
 33 34  2  0
 11  6  1  0
 28 18  1  0
 34 29  1  0
 27 21  1  0
  1 35  1  0
  1 36  1  0
  1 37  1  0
  2 38  1  1
  6 39  1  1
  7 40  1  0
  7 41  1  0
  8 42  1  6
  9 43  1  0
 10 44  1  0
 10 45  1  0
 14 46  1  0
 14 47  1  0
 15 48  1  0
 19 49  1  0
 20 50  1  0
 22 51  1  0
 25 52  1  0
 26 53  1  0
 30 54  1  0
 31 55  1  0
 32 56  1  0
 33 57  1  0
 34 58  1  0
M  CHG  1   3  -1
M  END
>  <UniqueID>  (22) 
85

>  <SMILES>  (22) 
C[C@@H]([N-]C(=O)[C@@H]1C[C@@H](O)CN1C(=O)CNC(=O)c1ccc2cc(F)ccc2n1)c1ccccc1

>  <Energy>  (22) 
63.06073797193395

>  <Genealogy>  (22) 
C[C@@H]([N-]C(=O)[C@@H]1C[C@@H](O)CN1C(=O)CNC(=O)c1ccc2cc(F)ccc2n1)c1ccccc1 (protonated)
C[C@@H]([N-]C(=O)[C@@H]1C[C@@H](O)CN1C(=O)CNC(=O)c1ccc2cc(F)ccc2n1)c1ccccc1 (3D coordinates assigned)
C[C@@H]([N-]C(=O)[C@@H]1C[C@@H](O)CN1C(=O)CNC(=O)c1ccc2cc(F)ccc2n1)c1ccccc1 (nonaromatic ring conformer: 63.06073797193395 kcal/mol)

>  <smiles>  (22) 
C[C@@H](NC(=O)[C@@H]1C[C@@H](O)CN1C(=O)CNC(=O)c1ccc2cc(F)ccc2n1)c1ccccc1

>  <score_type>  (22) 
oracle

>  <origin>  (22) 
autodockgpu

>  <m_score__min__energy>  (22) 
-9.0600000000000005

>  <m_primary>  (22) 
energy

>  <meeko>  (22) 
{"free_energy": -8.63, "intermolecular_energy": -11.31, "internal_energy": -2.08, "cluster_size": 11, "cluster_id": 1, "rank_in_cluster": 6}

>  <energy>  (22) 
-8.87

>  <cluster_rmsd>  (22) 
1.4

>  <rmsd>  (22) 
271.12

>  <cluster>  (22) 
1

$$$$
DWYNEBQVPRLYJI-JJGLYHRGNA-M
     RDKit          3D

 58 61  0  0  0  0  0  0  0  0999 V2000
  141.9280   77.4580  219.7990 C   0  0  0  0  0  0  0  0  0  0  0  0
  141.0750   77.6340  221.0640 C   0  0  1  0  0  0  0  0  0  0  0  0
  141.1110   76.4170  221.8710 N   0  0  0  0  0  0  0  0  0  0  0  0
  140.0280   75.4800  221.9430 C   0  0  0  0  0  0  0  0  0  0  0  0
  138.9000   75.8410  222.3710 O   0  0  0  0  0  0  0  0  0  0  0  0
  140.2570   74.0390  221.5810 C   0  0  2  0  0  0  0  0  0  0  0  0
  141.7150   73.8040  221.1710 C   0  0  0  0  0  0  0  0  0  0  0  0
  141.6610   72.8930  219.9380 C   0  0  1  0  0  0  0  0  0  0  0  0
  141.9080   71.5490  220.2860 O   0  0  0  0  0  0  0  0  0  0  0  0
  140.2530   73.0620  219.3590 C   0  0  0  0  0  0  0  0  0  0  0  0
  139.4540   73.6390  220.4280 N   0  0  0  0  0  0  0  0  0  0  0  0
  138.0150   73.7070  220.3430 C   0  0  0  0  0  0  0  0  0  0  0  0
  137.4830   74.4850  219.5020 O   0  0  0  0  0  0  0  0  0  0  0  0
  137.1150   72.9020  221.2420 C   0  0  0  0  0  0  0  0  0  0  0  0
  137.8120   72.5180  222.4720 N   0  0  0  0  0  0  0  0  0  0  0  0
  138.7600   71.4420  222.4860 C   0  0  0  0  0  0  0  0  0  0  0  0
  139.0570   70.8580  221.4050 O   0  0  0  0  0  0  0  0  0  0  0  0
  139.3980   71.0190  223.7510 C   0  0  0  0  0  0  0  0  0  0  0  0
  140.3510   71.8330  224.3890 C   0  0  0  0  0  0  0  0  0  0  0  0
  140.9200   71.4180  225.5950 C   0  0  0  0  0  0  0  0  0  0  0  0
  140.5360   70.1970  226.1630 C   0  0  0  0  0  0  0  0  0  0  0  0
  141.0720   69.7600  227.3820 C   0  0  0  0  0  0  0  0  0  0  0  0
  140.6690   68.5330  227.9220 C   0  0  0  0  0  0  0  0  0  0  0  0
  141.1830   68.1150  229.1030 F   0  0  0  0  0  0  0  0  0  0  0  0
  139.7330   67.7390  227.2480 C   0  0  0  0  0  0  0  0  0  0  0  0
  139.1920   68.1700  226.0330 C   0  0  0  0  0  0  0  0  0  0  0  0
  139.5870   69.3970  225.4890 C   0  0  0  0  0  0  0  0  0  0  0  0
  139.0500   69.8280  224.3170 N   0  0  0  0  0  0  0  0  0  0  0  0
  141.4860   78.8150  221.9290 C   0  0  0  0  0  0  0  0  0  0  0  0
  141.7960   78.6870  223.3000 C   0  0  0  0  0  0  0  0  0  0  0  0
  142.1630   79.8080  224.0520 C   0  0  0  0  0  0  0  0  0  0  0  0
  142.2030   81.0720  223.4570 C   0  0  0  0  0  0  0  0  0  0  0  0
  141.8520   81.2200  222.1130 C   0  0  0  0  0  0  0  0  0  0  0  0
  141.4900   80.1010  221.3550 C   0  0  0  0  0  0  0  0  0  0  0  0
  142.9682   77.2434  220.0851 H   0  0  0  0  0  0  0  0  0  0  0  0
  141.5319   76.6227  219.2029 H   0  0  0  0  0  0  0  0  0  0  0  0
  141.8948   78.3819  219.2029 H   0  0  0  0  0  0  0  0  0  0  0  0
  140.0550   77.8392  220.7069 H   0  0  0  0  0  0  0  0  0  0  0  0
  139.9842   73.4574  222.4739 H   0  0  0  0  0  0  0  0  0  0  0  0
  142.2012   74.7585  220.9210 H   0  0  0  0  0  0  0  0  0  0  0  0
  142.2962   73.3480  221.9860 H   0  0  0  0  0  0  0  0  0  0  0  0
  142.4343   73.1645  219.2043 H   0  0  0  0  0  0  0  0  0  0  0  0
  141.0640   71.1640  220.6410 H   0  0  0  0  0  0  0  0  0  0  0  0
  140.2742   73.7357  218.4897 H   0  0  0  0  0  0  0  0  0  0  0  0
  139.8382   72.1032  219.0146 H   0  0  0  0  0  0  0  0  0  0  0  0
  136.2325   73.5052  221.5015 H   0  0  0  0  0  0  0  0  0  0  0  0
  136.8130   71.9881  220.7095 H   0  0  0  0  0  0  0  0  0  0  0  0
  137.5900   73.0140  223.3650 H   0  0  0  0  0  0  0  0  0  0  0  0
  140.6470   72.7926  223.9400 H   0  0  0  0  0  0  0  0  0  0  0  0
  141.6681   72.0488  226.0975 H   0  0  0  0  0  0  0  0  0  0  0  0
  141.8084   70.3804  227.9137 H   0  0  0  0  0  0  0  0  0  0  0  0
  139.4227   66.7741  227.6754 H   0  0  0  0  0  0  0  0  0  0  0  0
  138.4565   67.5450  225.5053 H   0  0  0  0  0  0  0  0  0  0  0  0
  141.7487   77.6987  223.7806 H   0  0  0  0  0  0  0  0  0  0  0  0
  142.4210   79.6943  225.1153 H   0  0  0  0  0  0  0  0  0  0  0  0
  142.5103   81.9487  224.0460 H   0  0  0  0  0  0  0  0  0  0  0  0
  141.8602   82.2177  221.6499 H   0  0  0  0  0  0  0  0  0  0  0  0
  141.2056   80.2271  220.2999 H   0  0  0  0  0  0  0  0  0  0  0  0
  1  2  1  0
  2  3  1  0
  3  4  1  0
  4  5  2  0
  4  6  1  0
  6  7  1  0
  7  8  1  0
  8  9  1  0
  8 10  1  0
 10 11  1  0
 11 12  1  0
 12 13  2  0
 12 14  1  0
 14 15  1  0
 15 16  1  0
 16 17  2  0
 16 18  1  0
 18 19  2  0
 19 20  1  0
 20 21  2  0
 21 22  1  0
 22 23  2  0
 23 24  1  0
 23 25  1  0
 25 26  2  0
 26 27  1  0
 27 28  2  0
  2 29  1  0
 29 30  2  0
 30 31  1  0
 31 32  2  0
 32 33  1  0
 33 34  2  0
 11  6  1  0
 28 18  1  0
 34 29  1  0
 27 21  1  0
  1 35  1  0
  1 36  1  0
  1 37  1  0
  2 38  1  6
  6 39  1  1
  7 40  1  0
  7 41  1  0
  8 42  1  6
  9 43  1  0
 10 44  1  0
 10 45  1  0
 14 46  1  0
 14 47  1  0
 15 48  1  0
 19 49  1  0
 20 50  1  0
 22 51  1  0
 25 52  1  0
 26 53  1  0
 30 54  1  0
 31 55  1  0
 32 56  1  0
 33 57  1  0
 34 58  1  0
M  CHG  1   3  -1
M  END
>  <UniqueID>  (23) 
85

>  <SMILES>  (23) 
C[C@@H]([N-]C(=O)[C@@H]1C[C@@H](O)CN1C(=O)CNC(=O)c1ccc2cc(F)ccc2n1)c1ccccc1

>  <Energy>  (23) 
63.06073797193395

>  <Genealogy>  (23) 
C[C@@H]([N-]C(=O)[C@@H]1C[C@@H](O)CN1C(=O)CNC(=O)c1ccc2cc(F)ccc2n1)c1ccccc1 (protonated)
C[C@@H]([N-]C(=O)[C@@H]1C[C@@H](O)CN1C(=O)CNC(=O)c1ccc2cc(F)ccc2n1)c1ccccc1 (3D coordinates assigned)
C[C@@H]([N-]C(=O)[C@@H]1C[C@@H](O)CN1C(=O)CNC(=O)c1ccc2cc(F)ccc2n1)c1ccccc1 (nonaromatic ring conformer: 63.06073797193395 kcal/mol)

>  <smiles>  (23) 
C[C@@H](NC(=O)[C@@H]1C[C@@H](O)CN1C(=O)CNC(=O)c1ccc2cc(F)ccc2n1)c1ccccc1

>  <score_type>  (23) 
oracle

>  <origin>  (23) 
autodockgpu

>  <m_score__min__energy>  (23) 
-9.0600000000000005

>  <m_primary>  (23) 
energy

>  <meeko>  (23) 
{"free_energy": -7.39, "intermolecular_energy": -10.07, "internal_energy": -2.83, "cluster_size": 11, "cluster_id": 1, "rank_in_cluster": 10}

>  <energy>  (23) 
-8.8

>  <cluster_rmsd>  (23) 
1.46

>  <rmsd>  (23) 
271.09

>  <cluster>  (23) 
1

$$$$
DWYNEBQVPRLYJI-JJGLYHRGNA-M
     RDKit          3D

 58 61  0  0  0  0  0  0  0  0999 V2000
  142.3850   70.0470  219.5990 C   0  0  0  0  0  0  0  0  0  0  0  0
  142.5690   71.4650  219.0360 C   0  0  1  0  0  0  0  0  0  0  0  0
  141.4140   72.2940  219.3670 N   0  0  0  0  0  0  0  0  0  0  0  0
  140.8620   73.2770  218.4800 C   0  0  0  0  0  0  0  0  0  0  0  0
  140.1300   72.9270  217.5170 O   0  0  0  0  0  0  0  0  0  0  0  0
  141.2230   74.7260  218.6480 C   0  0  2  0  0  0  0  0  0  0  0  0
  142.4270   75.0940  217.7740 C   0  0  0  0  0  0  0  0  0  0  0  0
  143.3280   75.9730  218.6510 C   0  0  1  0  0  0  0  0  0  0  0  0
  143.1430   77.3410  218.3620 O   0  0  0  0  0  0  0  0  0  0  0  0
  142.9340   75.6580  220.0970 C   0  0  0  0  0  0  0  0  0  0  0  0
  141.6260   75.0260  220.0200 N   0  0  0  0  0  0  0  0  0  0  0  0
  140.8170   74.8170  221.1970 C   0  0  0  0  0  0  0  0  0  0  0  0
  141.0680   75.4790  222.2430 O   0  0  0  0  0  0  0  0  0  0  0  0
  139.6950   73.8150  221.2370 C   0  0  0  0  0  0  0  0  0  0  0  0
  139.8050   72.9530  222.4160 N   0  0  0  0  0  0  0  0  0  0  0  0
  139.6830   71.5270  222.3100 C   0  0  0  0  0  0  0  0  0  0  0  0
  139.5510   70.9940  221.1720 O   0  0  0  0  0  0  0  0  0  0  0  0
  139.7220   70.6790  223.5210 C   0  0  0  0  0  0  0  0  0  0  0  0
  139.1950   69.3750  223.5090 C   0  0  0  0  0  0  0  0  0  0  0  0
  139.2660   68.5890  224.6610 C   0  0  0  0  0  0  0  0  0  0  0  0
  139.8610   69.1020  225.8200 C   0  0  0  0  0  0  0  0  0  0  0  0
  139.9660   68.3330  226.9860 C   0  0  0  0  0  0  0  0  0  0  0  0
  140.5660   68.8760  228.1290 C   0  0  0  0  0  0  0  0  0  0  0  0
  140.6720   68.1300  229.2540 F   0  0  0  0  0  0  0  0  0  0  0  0
  141.0590   70.1870  228.1120 C   0  0  0  0  0  0  0  0  0  0  0  0
  140.9610   70.9590  226.9500 C   0  0  0  0  0  0  0  0  0  0  0  0
  140.3670   70.4210  225.8020 C   0  0  0  0  0  0  0  0  0  0  0  0
  140.2850   71.1620  224.6660 N   0  0  0  0  0  0  0  0  0  0  0  0
  143.8330   72.1610  219.5140 C   0  0  0  0  0  0  0  0  0  0  0  0
  144.0770   72.4530  220.8740 C   0  0  0  0  0  0  0  0  0  0  0  0
  145.2550   73.1010  221.2610 C   0  0  0  0  0  0  0  0  0  0  0  0
  146.1920   73.4880  220.2990 C   0  0  0  0  0  0  0  0  0  0  0  0
  145.9410   73.2490  218.9460 C   0  0  0  0  0  0  0  0  0  0  0  0
  144.7680   72.5950  218.5550 C   0  0  0  0  0  0  0  0  0  0  0  0
  142.3900   70.0855  220.6983 H   0  0  0  0  0  0  0  0  0  0  0  0
  141.4260   69.6358  219.2508 H   0  0  0  0  0  0  0  0  0  0  0  0
  143.2073   69.4047  219.2508 H   0  0  0  0  0  0  0  0  0  0  0  0
  142.6643   71.3414  217.9471 H   0  0  0  0  0  0  0  0  0  0  0  0
  140.3240   75.2940  218.3667 H   0  0  0  0  0  0  0  0  0  0  0  0
  142.9646   74.1868  217.4612 H   0  0  0  0  0  0  0  0  0  0  0  0
  142.1169   75.6192  216.8586 H   0  0  0  0  0  0  0  0  0  0  0  0
  144.3924   75.7643  218.4681 H   0  0  0  0  0  0  0  0  0  0  0  0
  143.6930   77.8660  219.0000 H   0  0  0  0  0  0  0  0  0  0  0  0
  143.6644   74.9735  220.5531 H   0  0  0  0  0  0  0  0  0  0  0  0
  142.9104   76.5655  220.7182 H   0  0  0  0  0  0  0  0  0  0  0  0
  138.7349   74.3508  221.2710 H   0  0  0  0  0  0  0  0  0  0  0  0
  139.7530   73.1867  220.3360 H   0  0  0  0  0  0  0  0  0  0  0  0
  139.9400   73.3850  223.3580 H   0  0  0  0  0  0  0  0  0  0  0  0
  138.7289   68.9760  222.5960 H   0  0  0  0  0  0  0  0  0  0  0  0
  138.8552   67.5686  224.6579 H   0  0  0  0  0  0  0  0  0  0  0  0
  139.5777   67.3040  227.0039 H   0  0  0  0  0  0  0  0  0  0  0  0
  141.5242   70.6102  229.0145 H   0  0  0  0  0  0  0  0  0  0  0  0
  141.3502   71.9878  226.9380 H   0  0  0  0  0  0  0  0  0  0  0  0
  143.3352   72.1688  221.6349 H   0  0  0  0  0  0  0  0  0  0  0  0
  145.4442   73.3064  222.3250 H   0  0  0  0  0  0  0  0  0  0  0  0
  147.1262   73.9803  220.6071 H   0  0  0  0  0  0  0  0  0  0  0  0
  146.6669   73.5756  218.1867 H   0  0  0  0  0  0  0  0  0  0  0  0
  144.5740   72.4179  217.4868 H   0  0  0  0  0  0  0  0  0  0  0  0
  1  2  1  0
  2  3  1  0
  3  4  1  0
  4  5  2  0
  4  6  1  0
  6  7  1  0
  7  8  1  0
  8  9  1  0
  8 10  1  0
 10 11  1  0
 11 12  1  0
 12 13  2  0
 12 14  1  0
 14 15  1  0
 15 16  1  0
 16 17  2  0
 16 18  1  0
 18 19  2  0
 19 20  1  0
 20 21  2  0
 21 22  1  0
 22 23  2  0
 23 24  1  0
 23 25  1  0
 25 26  2  0
 26 27  1  0
 27 28  2  0
  2 29  1  0
 29 30  2  0
 30 31  1  0
 31 32  2  0
 32 33  1  0
 33 34  2  0
 11  6  1  0
 28 18  1  0
 34 29  1  0
 27 21  1  0
  1 35  1  0
  1 36  1  0
  1 37  1  0
  2 38  1  6
  6 39  1  6
  7 40  1  0
  7 41  1  0
  8 42  1  1
  9 43  1  0
 10 44  1  0
 10 45  1  0
 14 46  1  0
 14 47  1  0
 15 48  1  0
 19 49  1  0
 20 50  1  0
 22 51  1  0
 25 52  1  0
 26 53  1  0
 30 54  1  0
 31 55  1  0
 32 56  1  0
 33 57  1  0
 34 58  1  0
M  CHG  1   3  -1
M  END
>  <UniqueID>  (24) 
85

>  <SMILES>  (24) 
C[C@@H]([N-]C(=O)[C@@H]1C[C@@H](O)CN1C(=O)CNC(=O)c1ccc2cc(F)ccc2n1)c1ccccc1

>  <Energy>  (24) 
63.06073797193395

>  <Genealogy>  (24) 
C[C@@H]([N-]C(=O)[C@@H]1C[C@@H](O)CN1C(=O)CNC(=O)c1ccc2cc(F)ccc2n1)c1ccccc1 (protonated)
C[C@@H]([N-]C(=O)[C@@H]1C[C@@H](O)CN1C(=O)CNC(=O)c1ccc2cc(F)ccc2n1)c1ccccc1 (3D coordinates assigned)
C[C@@H]([N-]C(=O)[C@@H]1C[C@@H](O)CN1C(=O)CNC(=O)c1ccc2cc(F)ccc2n1)c1ccccc1 (nonaromatic ring conformer: 63.06073797193395 kcal/mol)

>  <smiles>  (24) 
C[C@@H](NC(=O)[C@@H]1C[C@@H](O)CN1C(=O)CNC(=O)c1ccc2cc(F)ccc2n1)c1ccccc1

>  <score_type>  (24) 
oracle

>  <origin>  (24) 
autodockgpu

>  <m_score__min__energy>  (24) 
-9.0600000000000005

>  <m_primary>  (24) 
energy

>  <meeko>  (24) 
{"free_energy": -7.12, "intermolecular_energy": -9.8, "internal_energy": -2.94, "cluster_size": 1, "cluster_id": 5, "rank_in_cluster": 1}

>  <energy>  (24) 
-8.79

>  <cluster_rmsd>  (24) 
1.21

>  <rmsd>  (24) 
271.11

>  <cluster>  (24) 
1

$$$$
DWYNEBQVPRLYJI-JJGLYHRGNA-M
     RDKit          3D

 58 61  0  0  0  0  0  0  0  0999 V2000
  137.6490   79.5400  222.9660 C   0  0  0  0  0  0  0  0  0  0  0  0
  138.9470   78.7300  223.1040 C   0  0  1  0  0  0  0  0  0  0  0  0
  139.0760   77.7880  221.9950 N   0  0  0  0  0  0  0  0  0  0  0  0
  139.7580   76.5300  222.0970 C   0  0  0  0  0  0  0  0  0  0  0  0
  139.3470   75.6450  222.8930 O   0  0  0  0  0  0  0  0  0  0  0  0
  141.0180   76.2940  221.3120 C   0  0  2  0  0  0  0  0  0  0  0  0
  141.5660   77.6100  220.7500 C   0  0  0  0  0  0  0  0  0  0  0  0
  141.9980   77.3030  219.3100 C   0  0  1  0  0  0  0  0  0  0  0  0
  143.3890   77.0930  219.2290 O   0  0  0  0  0  0  0  0  0  0  0  0
  141.2260   76.0420  218.9060 C   0  0  0  0  0  0  0  0  0  0  0  0
  140.7770   75.4400  220.1520 N   0  0  0  0  0  0  0  0  0  0  0  0
  140.2360   74.1020  220.1910 C   0  0  0  0  0  0  0  0  0  0  0  0
  140.8530   73.1690  219.6040 O   0  0  0  0  0  0  0  0  0  0  0  0
  138.9410   73.7770  220.8860 C   0  0  0  0  0  0  0  0  0  0  0  0
  139.1820   72.9970  222.1020 N   0  0  0  0  0  0  0  0  0  0  0  0
  139.3290   71.5710  222.0560 C   0  0  0  0  0  0  0  0  0  0  0  0
  139.3230   70.9790  220.9400 O   0  0  0  0  0  0  0  0  0  0  0  0
  139.4960   70.7920  223.3030 C   0  0  0  0  0  0  0  0  0  0  0  0
  139.0950   69.4460  223.3740 C   0  0  0  0  0  0  0  0  0  0  0  0
  139.2860   68.7300  224.5580 C   0  0  0  0  0  0  0  0  0  0  0  0
  139.8760   69.3540  225.6630 C   0  0  0  0  0  0  0  0  0  0  0  0
  140.1000   68.6580  226.8580 C   0  0  0  0  0  0  0  0  0  0  0  0
  140.6910   69.3110  227.9470 C   0  0  0  0  0  0  0  0  0  0  0  0
  140.9130   68.6360  229.1000 F   0  0  0  0  0  0  0  0  0  0  0  0
  141.0580   70.6590  227.8460 C   0  0  0  0  0  0  0  0  0  0  0  0
  140.8400   71.3590  226.6550 C   0  0  0  0  0  0  0  0  0  0  0  0
  140.2530   70.7110  225.5620 C   0  0  0  0  0  0  0  0  0  0  0  0
  140.0570   71.3830  224.3970 N   0  0  0  0  0  0  0  0  0  0  0  0
  140.2040   79.5820  223.1790 C   0  0  0  0  0  0  0  0  0  0  0  0
  140.2870   80.8730  222.6140 C   0  0  0  0  0  0  0  0  0  0  0  0
  141.4710   81.6130  222.7060 C   0  0  0  0  0  0  0  0  0  0  0  0
  142.5920   81.0700  223.3390 C   0  0  0  0  0  0  0  0  0  0  0  0
  142.5380   79.7750  223.8610 C   0  0  0  0  0  0  0  0  0  0  0  0
  141.3550   79.0330  223.7760 C   0  0  0  0  0  0  0  0  0  0  0  0
  137.2602   79.7827  223.9660 H   0  0  0  0  0  0  0  0  0  0  0  0
  137.8542   80.4706  222.4166 H   0  0  0  0  0  0  0  0  0  0  0  0
  136.9032   78.9467  222.4166 H   0  0  0  0  0  0  0  0  0  0  0  0
  138.8629   78.1987  224.0635 H   0  0  0  0  0  0  0  0  0  0  0  0
  141.7244   75.8223  222.0109 H   0  0  0  0  0  0  0  0  0  0  0  0
  140.7851   78.3847  220.7586 H   0  0  0  0  0  0  0  0  0  0  0  0
  142.4051   77.9887  221.3520 H   0  0  0  0  0  0  0  0  0  0  0  0
  141.7778   78.1445  218.6367 H   0  0  0  0  0  0  0  0  0  0  0  0
  143.8070   77.4900  220.0370 H   0  0  0  0  0  0  0  0  0  0  0  0
  140.3645   76.3053  218.2748 H   0  0  0  0  0  0  0  0  0  0  0  0
  141.8531   75.3508  218.3237 H   0  0  0  0  0  0  0  0  0  0  0  0
  138.4312   74.7141  221.1543 H   0  0  0  0  0  0  0  0  0  0  0  0
  138.3161   73.1813  220.2044 H   0  0  0  0  0  0  0  0  0  0  0  0
  139.2130   73.4830  223.0270 H   0  0  0  0  0  0  0  0  0  0  0  0
  138.6335   68.9597  222.5019 H   0  0  0  0  0  0  0  0  0  0  0  0
  138.9732   67.6774  224.6218 H   0  0  0  0  0  0  0  0  0  0  0  0
  139.8120   67.5996  226.9409 H   0  0  0  0  0  0  0  0  0  0  0  0
  141.5187   71.1682  228.7053 H   0  0  0  0  0  0  0  0  0  0  0  0
  141.1295   72.4174  226.5773 H   0  0  0  0  0  0  0  0  0  0  0  0
  139.4147   81.3003  222.0977 H   0  0  0  0  0  0  0  0  0  0  0  0
  141.5194   82.6254  222.2786 H   0  0  0  0  0  0  0  0  0  0  0  0
  143.5156   81.6610  223.4263 H   0  0  0  0  0  0  0  0  0  0  0  0
  143.4270   79.3383  224.3395 H   0  0  0  0  0  0  0  0  0  0  0  0
  141.3237   78.0102  224.1797 H   0  0  0  0  0  0  0  0  0  0  0  0
  1  2  1  0
  2  3  1  0
  3  4  1  0
  4  5  2  0
  4  6  1  0
  6  7  1  0
  7  8  1  0
  8  9  1  0
  8 10  1  0
 10 11  1  0
 11 12  1  0
 12 13  2  0
 12 14  1  0
 14 15  1  0
 15 16  1  0
 16 17  2  0
 16 18  1  0
 18 19  2  0
 19 20  1  0
 20 21  2  0
 21 22  1  0
 22 23  2  0
 23 24  1  0
 23 25  1  0
 25 26  2  0
 26 27  1  0
 27 28  2  0
  2 29  1  0
 29 30  2  0
 30 31  1  0
 31 32  2  0
 32 33  1  0
 33 34  2  0
 11  6  1  0
 28 18  1  0
 34 29  1  0
 27 21  1  0
  1 35  1  0
  1 36  1  0
  1 37  1  0
  2 38  1  1
  6 39  1  1
  7 40  1  0
  7 41  1  0
  8 42  1  6
  9 43  1  0
 10 44  1  0
 10 45  1  0
 14 46  1  0
 14 47  1  0
 15 48  1  0
 19 49  1  0
 20 50  1  0
 22 51  1  0
 25 52  1  0
 26 53  1  0
 30 54  1  0
 31 55  1  0
 32 56  1  0
 33 57  1  0
 34 58  1  0
M  CHG  1   3  -1
M  END
>  <UniqueID>  (25) 
85

>  <SMILES>  (25) 
C[C@@H]([N-]C(=O)[C@@H]1C[C@@H](O)CN1C(=O)CNC(=O)c1ccc2cc(F)ccc2n1)c1ccccc1

>  <Energy>  (25) 
63.06073797193395

>  <Genealogy>  (25) 
C[C@@H]([N-]C(=O)[C@@H]1C[C@@H](O)CN1C(=O)CNC(=O)c1ccc2cc(F)ccc2n1)c1ccccc1 (protonated)
C[C@@H]([N-]C(=O)[C@@H]1C[C@@H](O)CN1C(=O)CNC(=O)c1ccc2cc(F)ccc2n1)c1ccccc1 (3D coordinates assigned)
C[C@@H]([N-]C(=O)[C@@H]1C[C@@H](O)CN1C(=O)CNC(=O)c1ccc2cc(F)ccc2n1)c1ccccc1 (nonaromatic ring conformer: 63.06073797193395 kcal/mol)

>  <smiles>  (25) 
C[C@@H](NC(=O)[C@@H]1C[C@@H](O)CN1C(=O)CNC(=O)c1ccc2cc(F)ccc2n1)c1ccccc1

>  <score_type>  (25) 
oracle

>  <origin>  (25) 
autodockgpu

>  <m_score__min__energy>  (25) 
-9.0600000000000005

>  <m_primary>  (25) 
energy

>  <meeko>  (25) 
{"free_energy": -8.61, "intermolecular_energy": -11.3, "internal_energy": -2.55, "cluster_size": 11, "cluster_id": 1, "rank_in_cluster": 7}

>  <energy>  (25) 
-8.69

>  <cluster_rmsd>  (25) 
1.56

>  <rmsd>  (25) 
271.08

>  <cluster>  (25) 
1

$$$$
DWYNEBQVPRLYJI-JJGLYHRGNA-M
     RDKit          3D

 58 61  0  0  0  0  0  0  0  0999 V2000
  138.8080   68.9840  223.9880 C   0  0  0  0  0  0  0  0  0  0  0  0
  139.3440   70.4150  224.1510 C   0  0  1  0  0  0  0  0  0  0  0  0
  138.2970   71.3850  223.8420 N   0  0  0  0  0  0  0  0  0  0  0  0
  136.9430   71.0220  223.5420 C   0  0  0  0  0  0  0  0  0  0  0  0
  136.5410   70.9860  222.3490 O   0  0  0  0  0  0  0  0  0  0  0  0
  135.9710   70.7600  224.6590 C   0  0  2  0  0  0  0  0  0  0  0  0
  135.3870   69.3470  224.5550 C   0  0  0  0  0  0  0  0  0  0  0  0
  133.8880   69.4920  224.8490 C   0  0  1  0  0  0  0  0  0  0  0  0
  133.5940   69.1380  226.1820 O   0  0  0  0  0  0  0  0  0  0  0  0
  133.5530   70.9620  224.5830 C   0  0  0  0  0  0  0  0  0  0  0  0
  134.8260   71.6650  224.6010 N   0  0  0  0  0  0  0  0  0  0  0  0
  134.8930   73.1070  224.6410 C   0  0  0  0  0  0  0  0  0  0  0  0
  134.7350   73.7010  225.7450 O   0  0  0  0  0  0  0  0  0  0  0  0
  135.1160   73.9380  223.4060 C   0  0  0  0  0  0  0  0  0  0  0  0
  136.5230   73.9080  223.0030 N   0  0  0  0  0  0  0  0  0  0  0  0
  137.1860   75.0870  222.5230 C   0  0  0  0  0  0  0  0  0  0  0  0
  136.5700   76.1900  222.5150 O   0  0  0  0  0  0  0  0  0  0  0  0
  138.5860   75.0210  222.0490 C   0  0  0  0  0  0  0  0  0  0  0  0
  139.2680   76.1810  221.6440 C   0  0  0  0  0  0  0  0  0  0  0  0
  140.5970   76.0910  221.2220 C   0  0  0  0  0  0  0  0  0  0  0  0
  141.2410   74.8480  221.2070 C   0  0  0  0  0  0  0  0  0  0  0  0
  142.5790   74.7260  220.8090 C   0  0  0  0  0  0  0  0  0  0  0  0
  143.1930   73.4680  220.8040 C   0  0  0  0  0  0  0  0  0  0  0  0
  144.4880   73.3520  220.4240 F   0  0  0  0  0  0  0  0  0  0  0  0
  142.4750   72.3300  221.1920 C   0  0  0  0  0  0  0  0  0  0  0  0
  141.1410   72.4450  221.5940 C   0  0  0  0  0  0  0  0  0  0  0  0
  140.5210   73.7000  221.6070 C   0  0  0  0  0  0  0  0  0  0  0  0
  139.2300   73.8180  222.0130 N   0  0  0  0  0  0  0  0  0  0  0  0
  139.9040   70.7120  225.5320 C   0  0  0  0  0  0  0  0  0  0  0  0
  139.5780   69.9430  226.6710 C   0  0  0  0  0  0  0  0  0  0  0  0
  140.1180   70.2640  227.9220 C   0  0  0  0  0  0  0  0  0  0  0  0
  140.9670   71.3650  228.0590 C   0  0  0  0  0  0  0  0  0  0  0  0
  141.2600   72.1620  226.9500 C   0  0  0  0  0  0  0  0  0  0  0  0
  140.7280   71.8420  225.6960 C   0  0  0  0  0  0  0  0  0  0  0  0
  138.6415   68.5396  224.9804 H   0  0  0  0  0  0  0  0  0  0  0  0
  137.8583   69.0091  223.4335 H   0  0  0  0  0  0  0  0  0  0  0  0
  139.5405   68.3790  223.4335 H   0  0  0  0  0  0  0  0  0  0  0  0
  140.1804   70.5008  223.4418 H   0  0  0  0  0  0  0  0  0  0  0  0
  136.5390   70.9004  225.5905 H   0  0  0  0  0  0  0  0  0  0  0  0
  135.5417   68.9420  223.5441 H   0  0  0  0  0  0  0  0  0  0  0  0
  135.8727   68.6552  225.2588 H   0  0  0  0  0  0  0  0  0  0  0  0
  133.2883   68.8213  224.2162 H   0  0  0  0  0  0  0  0  0  0  0  0
  133.4780   69.9750  226.7030 H   0  0  0  0  0  0  0  0  0  0  0  0
  133.0672   71.0733  223.6024 H   0  0  0  0  0  0  0  0  0  0  0  0
  132.8573   71.3625  225.3351 H   0  0  0  0  0  0  0  0  0  0  0  0
  134.4984   73.5396  222.5875 H   0  0  0  0  0  0  0  0  0  0  0  0
  134.8360   74.9785  223.6273 H   0  0  0  0  0  0  0  0  0  0  0  0
  137.0470   73.0040  223.0310 H   0  0  0  0  0  0  0  0  0  0  0  0
  138.7579   77.1555  221.6591 H   0  0  0  0  0  0  0  0  0  0  0  0
  141.1361   76.9949  220.9022 H   0  0  0  0  0  0  0  0  0  0  0  0
  143.1458   75.6170  220.5011 H   0  0  0  0  0  0  0  0  0  0  0  0
  142.9617   71.3436  221.1804 H   0  0  0  0  0  0  0  0  0  0  0  0
  140.5791   71.5502  221.8998 H   0  0  0  0  0  0  0  0  0  0  0  0
  138.8951   69.0860  226.5744 H   0  0  0  0  0  0  0  0  0  0  0  0
  139.8732   69.6476  228.7996 H   0  0  0  0  0  0  0  0  0  0  0  0
  141.4044   71.6041  229.0396 H   0  0  0  0  0  0  0  0  0  0  0  0
  141.9098   73.0424  227.0626 H   0  0  0  0  0  0  0  0  0  0  0  0
  140.9558   72.4799  224.8293 H   0  0  0  0  0  0  0  0  0  0  0  0
  1  2  1  0
  2  3  1  0
  3  4  1  0
  4  5  2  0
  4  6  1  0
  6  7  1  0
  7  8  1  0
  8  9  1  0
  8 10  1  0
 10 11  1  0
 11 12  1  0
 12 13  2  0
 12 14  1  0
 14 15  1  0
 15 16  1  0
 16 17  2  0
 16 18  1  0
 18 19  2  0
 19 20  1  0
 20 21  2  0
 21 22  1  0
 22 23  2  0
 23 24  1  0
 23 25  1  0
 25 26  2  0
 26 27  1  0
 27 28  2  0
  2 29  1  0
 29 30  2  0
 30 31  1  0
 31 32  2  0
 32 33  1  0
 33 34  2  0
 11  6  1  0
 28 18  1  0
 34 29  1  0
 27 21  1  0
  1 35  1  0
  1 36  1  0
  1 37  1  0
  2 38  1  6
  6 39  1  1
  7 40  1  0
  7 41  1  0
  8 42  1  6
  9 43  1  0
 10 44  1  0
 10 45  1  0
 14 46  1  0
 14 47  1  0
 15 48  1  0
 19 49  1  0
 20 50  1  0
 22 51  1  0
 25 52  1  0
 26 53  1  0
 30 54  1  0
 31 55  1  0
 32 56  1  0
 33 57  1  0
 34 58  1  0
M  CHG  1   3  -1
M  END
>  <UniqueID>  (26) 
85

>  <SMILES>  (26) 
C[C@@H]([N-]C(=O)[C@@H]1C[C@@H](O)CN1C(=O)CNC(=O)c1ccc2cc(F)ccc2n1)c1ccccc1

>  <Energy>  (26) 
63.06073797193395

>  <Genealogy>  (26) 
C[C@@H]([N-]C(=O)[C@@H]1C[C@@H](O)CN1C(=O)CNC(=O)c1ccc2cc(F)ccc2n1)c1ccccc1 (protonated)
C[C@@H]([N-]C(=O)[C@@H]1C[C@@H](O)CN1C(=O)CNC(=O)c1ccc2cc(F)ccc2n1)c1ccccc1 (3D coordinates assigned)
C[C@@H]([N-]C(=O)[C@@H]1C[C@@H](O)CN1C(=O)CNC(=O)c1ccc2cc(F)ccc2n1)c1ccccc1 (nonaromatic ring conformer: 63.06073797193395 kcal/mol)

>  <smiles>  (26) 
C[C@@H](NC(=O)[C@@H]1C[C@@H](O)CN1C(=O)CNC(=O)c1ccc2cc(F)ccc2n1)c1ccccc1

>  <score_type>  (26) 
oracle

>  <origin>  (26) 
autodockgpu

>  <m_score__min__energy>  (26) 
-9.0600000000000005

>  <m_primary>  (26) 
energy

>  <meeko>  (26) 
{"free_energy": -6.61, "intermolecular_energy": -9.3, "internal_energy": -3.85, "cluster_size": 1, "cluster_id": 7, "rank_in_cluster": 1}

>  <energy>  (26) 
-8.63

>  <cluster_rmsd>  (26) 
1.44

>  <rmsd>  (26) 
271.07

>  <cluster>  (26) 
1

$$$$
DWYNEBQVPRLYJI-JJGLYHRGNA-M
     RDKit          3D

 58 61  0  0  0  0  0  0  0  0999 V2000
  137.7870   80.2330  223.9700 C   0  0  0  0  0  0  0  0  0  0  0  0
  138.6990   79.1270  223.4150 C   0  0  1  0  0  0  0  0  0  0  0  0
  138.1490   78.5960  222.1700 N   0  0  0  0  0  0  0  0  0  0  0  0
  138.7570   77.5320  221.4250 C   0  0  0  0  0  0  0  0  0  0  0  0
  139.1020   77.7080  220.2270 O   0  0  0  0  0  0  0  0  0  0  0  0
  138.9110   76.1730  222.0490 C   0  0  2  0  0  0  0  0  0  0  0  0
  140.3660   75.6990  221.9730 C   0  0  0  0  0  0  0  0  0  0  0  0
  140.3040   74.2210  221.5670 C   0  0  1  0  0  0  0  0  0  0  0  0
  140.4540   73.3780  222.6880 O   0  0  0  0  0  0  0  0  0  0  0  0
  138.9330   74.0270  220.9130 C   0  0  0  0  0  0  0  0  0  0  0  0
  138.1300   75.1620  221.3390 N   0  0  0  0  0  0  0  0  0  0  0  0
  136.7020   75.1980  221.1320 C   0  0  0  0  0  0  0  0  0  0  0  0
  136.2290   75.9280  220.2160 O   0  0  0  0  0  0  0  0  0  0  0  0
  135.7430   74.4150  221.9890 C   0  0  0  0  0  0  0  0  0  0  0  0
  136.4640   73.5330  222.9090 N   0  0  0  0  0  0  0  0  0  0  0  0
  136.7640   72.1750  222.5580 C   0  0  0  0  0  0  0  0  0  0  0  0
  136.4670   71.7470  221.4060 O   0  0  0  0  0  0  0  0  0  0  0  0
  137.4260   71.2760  223.5290 C   0  0  0  0  0  0  0  0  0  0  0  0
  136.7580   70.1540  224.0490 C   0  0  0  0  0  0  0  0  0  0  0  0
  137.4160   69.3110  224.9470 C   0  0  0  0  0  0  0  0  0  0  0  0
  138.7370   69.5870  225.3220 C   0  0  0  0  0  0  0  0  0  0  0  0
  139.4330   68.7500  226.2050 C   0  0  0  0  0  0  0  0  0  0  0  0
  140.7520   69.0550  226.5610 C   0  0  0  0  0  0  0  0  0  0  0  0
  141.4260   68.2430  227.4100 F   0  0  0  0  0  0  0  0  0  0  0  0
  141.3790   70.1940  226.0410 C   0  0  0  0  0  0  0  0  0  0  0  0
  140.6910   71.0310  225.1560 C   0  0  0  0  0  0  0  0  0  0  0  0
  139.3740   70.7310  224.7920 C   0  0  0  0  0  0  0  0  0  0  0  0
  138.7090   71.5320  223.9190 N   0  0  0  0  0  0  0  0  0  0  0  0
  140.1330   79.5700  223.1750 C   0  0  0  0  0  0  0  0  0  0  0  0
  141.2390   78.7090  223.3530 C   0  0  0  0  0  0  0  0  0  0  0  0
  142.5400   79.1690  223.1240 C   0  0  0  0  0  0  0  0  0  0  0  0
  142.7590   80.4950  222.7390 C   0  0  0  0  0  0  0  0  0  0  0  0
  141.6780   81.3690  222.6060 C   0  0  0  0  0  0  0  0  0  0  0  0
  140.3750   80.9130  222.8280 C   0  0  0  0  0  0  0  0  0  0  0  0
  137.8077   80.2079  225.0695 H   0  0  0  0  0  0  0  0  0  0  0  0
  138.1433   81.2127  223.6188 H   0  0  0  0  0  0  0  0  0  0  0  0
  136.7574   80.0699  223.6188 H   0  0  0  0  0  0  0  0  0  0  0  0
  138.7305   78.3504  224.1934 H   0  0  0  0  0  0  0  0  0  0  0  0
  138.5687   76.2792  223.0890 H   0  0  0  0  0  0  0  0  0  0  0  0
  140.9192   76.2800  221.2204 H   0  0  0  0  0  0  0  0  0  0  0  0
  140.8860   75.8334  222.9330 H   0  0  0  0  0  0  0  0  0  0  0  0
  141.1204   73.9601  220.8774 H   0  0  0  0  0  0  0  0  0  0  0  0
  139.5860   73.3490  223.1680 H   0  0  0  0  0  0  0  0  0  0  0  0
  139.0290   74.0147  219.8173 H   0  0  0  0  0  0  0  0  0  0  0  0
  138.4742   73.0716  221.2074 H   0  0  0  0  0  0  0  0  0  0  0  0
  135.1259   75.1154  222.5710 H   0  0  0  0  0  0  0  0  0  0  0  0
  135.1103   73.7978  221.3342 H   0  0  0  0  0  0  0  0  0  0  0  0
  136.7370   73.8870  223.8540 H   0  0  0  0  0  0  0  0  0  0  0  0
  135.7212   69.9408  223.7498 H   0  0  0  0  0  0  0  0  0  0  0  0
  136.8981   68.4323  225.3589 H   0  0  0  0  0  0  0  0  0  0  0  0
  138.9437   67.8553  226.6174 H   0  0  0  0  0  0  0  0  0  0  0  0
  142.4139   70.4309  226.3288 H   0  0  0  0  0  0  0  0  0  0  0  0
  141.1853   71.9244  224.7467 H   0  0  0  0  0  0  0  0  0  0  0  0
  141.0758   77.6696  223.6739 H   0  0  0  0  0  0  0  0  0  0  0  0
  143.3931   78.4856  223.2472 H   0  0  0  0  0  0  0  0  0  0  0  0
  143.7814   80.8494  222.5411 H   0  0  0  0  0  0  0  0  0  0  0  0
  141.8519   82.4184  222.3260 H   0  0  0  0  0  0  0  0  0  0  0  0
  139.5302   81.6107  222.7306 H   0  0  0  0  0  0  0  0  0  0  0  0
  1  2  1  0
  2  3  1  0
  3  4  1  0
  4  5  2  0
  4  6  1  0
  6  7  1  0
  7  8  1  0
  8  9  1  0
  8 10  1  0
 10 11  1  0
 11 12  1  0
 12 13  2  0
 12 14  1  0
 14 15  1  0
 15 16  1  0
 16 17  2  0
 16 18  1  0
 18 19  2  0
 19 20  1  0
 20 21  2  0
 21 22  1  0
 22 23  2  0
 23 24  1  0
 23 25  1  0
 25 26  2  0
 26 27  1  0
 27 28  2  0
  2 29  1  0
 29 30  2  0
 30 31  1  0
 31 32  2  0
 32 33  1  0
 33 34  2  0
 11  6  1  0
 28 18  1  0
 34 29  1  0
 27 21  1  0
  1 35  1  0
  1 36  1  0
  1 37  1  0
  2 38  1  1
  6 39  1  1
  7 40  1  0
  7 41  1  0
  8 42  1  6
  9 43  1  0
 10 44  1  0
 10 45  1  0
 14 46  1  0
 14 47  1  0
 15 48  1  0
 19 49  1  0
 20 50  1  0
 22 51  1  0
 25 52  1  0
 26 53  1  0
 30 54  1  0
 31 55  1  0
 32 56  1  0
 33 57  1  0
 34 58  1  0
M  CHG  1   3  -1
M  END
>  <UniqueID>  (27) 
85

>  <SMILES>  (27) 
C[C@@H]([N-]C(=O)[C@@H]1C[C@@H](O)CN1C(=O)CNC(=O)c1ccc2cc(F)ccc2n1)c1ccccc1

>  <Energy>  (27) 
63.06073797193395

>  <Genealogy>  (27) 
C[C@@H]([N-]C(=O)[C@@H]1C[C@@H](O)CN1C(=O)CNC(=O)c1ccc2cc(F)ccc2n1)c1ccccc1 (protonated)
C[C@@H]([N-]C(=O)[C@@H]1C[C@@H](O)CN1C(=O)CNC(=O)c1ccc2cc(F)ccc2n1)c1ccccc1 (3D coordinates assigned)
C[C@@H]([N-]C(=O)[C@@H]1C[C@@H](O)CN1C(=O)CNC(=O)c1ccc2cc(F)ccc2n1)c1ccccc1 (nonaromatic ring conformer: 63.06073797193395 kcal/mol)

>  <smiles>  (27) 
C[C@@H](NC(=O)[C@@H]1C[C@@H](O)CN1C(=O)CNC(=O)c1ccc2cc(F)ccc2n1)c1ccccc1

>  <score_type>  (27) 
oracle

>  <origin>  (27) 
autodockgpu

>  <m_score__min__energy>  (27) 
-9.0600000000000005

>  <m_primary>  (27) 
energy

>  <meeko>  (27) 
{"free_energy": -7.56, "intermolecular_energy": -10.25, "internal_energy": -2.88, "cluster_size": 4, "cluster_id": 3, "rank_in_cluster": 3}

>  <energy>  (27) 
-8.61

>  <cluster_rmsd>  (27) 
1.67

>  <rmsd>  (27) 
270.94

>  <cluster>  (27) 
1

$$$$
DWYNEBQVPRLYJI-JJGLYHRGNA-M
     RDKit          3D

 58 61  0  0  0  0  0  0  0  0999 V2000
  139.3710   77.0850  220.7090 C   0  0  0  0  0  0  0  0  0  0  0  0
  139.9990   77.0740  222.1110 C   0  0  1  0  0  0  0  0  0  0  0  0
  140.7060   75.8170  222.3390 N   0  0  0  0  0  0  0  0  0  0  0  0
  141.4230   75.1130  221.3150 C   0  0  0  0  0  0  0  0  0  0  0  0
  142.1430   75.7410  220.4940 O   0  0  0  0  0  0  0  0  0  0  0  0
  141.2540   73.6270  221.1660 C   0  0  2  0  0  0  0  0  0  0  0  0
  142.5870   72.9570  220.8180 C   0  0  0  0  0  0  0  0  0  0  0  0
  142.2650   71.9280  219.7270 C   0  0  1  0  0  0  0  0  0  0  0  0
  142.1550   70.6300  220.2670 O   0  0  0  0  0  0  0  0  0  0  0  0
  140.9400   72.3800  219.1070 C   0  0  0  0  0  0  0  0  0  0  0  0
  140.3470   73.2950  220.0700 N   0  0  0  0  0  0  0  0  0  0  0  0
  138.9760   73.7300  219.9530 C   0  0  0  0  0  0  0  0  0  0  0  0
  138.6470   74.4820  218.9930 O   0  0  0  0  0  0  0  0  0  0  0  0
  137.9190   73.3440  220.9530 C   0  0  0  0  0  0  0  0  0  0  0  0
  138.5260   72.8720  222.2000 N   0  0  0  0  0  0  0  0  0  0  0  0
  139.1180   71.5680  222.2930 C   0  0  0  0  0  0  0  0  0  0  0  0
  139.1830   70.8370  221.2650 O   0  0  0  0  0  0  0  0  0  0  0  0
  139.6580   71.0790  223.5810 C   0  0  0  0  0  0  0  0  0  0  0  0
  140.5250   71.8750  224.3500 C   0  0  0  0  0  0  0  0  0  0  0  0
  141.0020   71.3960  225.5730 C   0  0  0  0  0  0  0  0  0  0  0  0
  140.6130   70.1300  226.0250 C   0  0  0  0  0  0  0  0  0  0  0  0
  141.0560   69.6280  227.2550 C   0  0  0  0  0  0  0  0  0  0  0  0
  140.6500   68.3560  227.6780 C   0  0  0  0  0  0  0  0  0  0  0  0
  141.0750   67.8740  228.8710 F   0  0  0  0  0  0  0  0  0  0  0  0
  139.8030   67.5820  226.8750 C   0  0  0  0  0  0  0  0  0  0  0  0
  139.3540   68.0780  225.6470 C   0  0  0  0  0  0  0  0  0  0  0  0
  139.7520   69.3510  225.2200 C   0  0  0  0  0  0  0  0  0  0  0  0
  139.3040   69.8430  224.0360 N   0  0  0  0  0  0  0  0  0  0  0  0
  140.9480   78.2320  222.3730 C   0  0  0  0  0  0  0  0  0  0  0  0
  141.4090   78.5660  223.6660 C   0  0  0  0  0  0  0  0  0  0  0  0
  142.2780   79.6460  223.8530 C   0  0  0  0  0  0  0  0  0  0  0  0
  142.6800   80.4210  222.7620 C   0  0  0  0  0  0  0  0  0  0  0  0
  142.1950   80.1310  221.4840 C   0  0  0  0  0  0  0  0  0  0  0  0
  141.3300   79.0480  221.2910 C   0  0  0  0  0  0  0  0  0  0  0  0
  138.2748   77.1042  220.7984 H   0  0  0  0  0  0  0  0  0  0  0  0
  139.7100   77.9773  220.1624 H   0  0  0  0  0  0  0  0  0  0  0  0
  139.6785   76.1813  220.1624 H   0  0  0  0  0  0  0  0  0  0  0  0
  139.1587   77.1843  222.8123 H   0  0  0  0  0  0  0  0  0  0  0  0
  140.8576   73.2718  222.1286 H   0  0  0  0  0  0  0  0  0  0  0  0
  143.3037   73.7021  220.4423 H   0  0  0  0  0  0  0  0  0  0  0  0
  143.0443   72.4833  221.6992 H   0  0  0  0  0  0  0  0  0  0  0  0
  143.0658   71.8782  218.9745 H   0  0  0  0  0  0  0  0  0  0  0  0
  141.2310   70.5200  220.6150 H   0  0  0  0  0  0  0  0  0  0  0  0
  141.1193   72.8929  218.1506 H   0  0  0  0  0  0  0  0  0  0  0  0
  140.2782   71.5269  218.8965 H   0  0  0  0  0  0  0  0  0  0  0  0
  137.2896   74.2202  221.1680 H   0  0  0  0  0  0  0  0  0  0  0  0
  137.3131   72.5305  220.5274 H   0  0  0  0  0  0  0  0  0  0  0  0
  138.4990   73.4810  223.0490 H   0  0  0  0  0  0  0  0  0  0  0  0
  140.8264   72.8700  223.9907 H   0  0  0  0  0  0  0  0  0  0  0  0
  141.6818   72.0128  226.1792 H   0  0  0  0  0  0  0  0  0  0  0  0
  141.7222   70.2321  227.8884 H   0  0  0  0  0  0  0  0  0  0  0  0
  139.4904   66.5822  227.2108 H   0  0  0  0  0  0  0  0  0  0  0  0
  138.6889   67.4689  225.0171 H   0  0  0  0  0  0  0  0  0  0  0  0
  141.0820   77.9722  224.5323 H   0  0  0  0  0  0  0  0  0  0  0  0
  142.6459   79.8859  224.8615 H   0  0  0  0  0  0  0  0  0  0  0  0
  143.3776   81.2587  222.9091 H   0  0  0  0  0  0  0  0  0  0  0  0
  142.4935   80.7548  220.6286 H   0  0  0  0  0  0  0  0  0  0  0  0
  140.9445   78.8320  220.2836 H   0  0  0  0  0  0  0  0  0  0  0  0
  1  2  1  0
  2  3  1  0
  3  4  1  0
  4  5  2  0
  4  6  1  0
  6  7  1  0
  7  8  1  0
  8  9  1  0
  8 10  1  0
 10 11  1  0
 11 12  1  0
 12 13  2  0
 12 14  1  0
 14 15  1  0
 15 16  1  0
 16 17  2  0
 16 18  1  0
 18 19  2  0
 19 20  1  0
 20 21  2  0
 21 22  1  0
 22 23  2  0
 23 24  1  0
 23 25  1  0
 25 26  2  0
 26 27  1  0
 27 28  2  0
  2 29  1  0
 29 30  2  0
 30 31  1  0
 31 32  2  0
 32 33  1  0
 33 34  2  0
 11  6  1  0
 28 18  1  0
 34 29  1  0
 27 21  1  0
  1 35  1  0
  1 36  1  0
  1 37  1  0
  2 38  1  1
  6 39  1  1
  7 40  1  0
  7 41  1  0
  8 42  1  6
  9 43  1  0
 10 44  1  0
 10 45  1  0
 14 46  1  0
 14 47  1  0
 15 48  1  0
 19 49  1  0
 20 50  1  0
 22 51  1  0
 25 52  1  0
 26 53  1  0
 30 54  1  0
 31 55  1  0
 32 56  1  0
 33 57  1  0
 34 58  1  0
M  CHG  1   3  -1
M  END
>  <UniqueID>  (28) 
85

>  <SMILES>  (28) 
C[C@@H]([N-]C(=O)[C@@H]1C[C@@H](O)CN1C(=O)CNC(=O)c1ccc2cc(F)ccc2n1)c1ccccc1

>  <Energy>  (28) 
63.06073797193395

>  <Genealogy>  (28) 
C[C@@H]([N-]C(=O)[C@@H]1C[C@@H](O)CN1C(=O)CNC(=O)c1ccc2cc(F)ccc2n1)c1ccccc1 (protonated)
C[C@@H]([N-]C(=O)[C@@H]1C[C@@H](O)CN1C(=O)CNC(=O)c1ccc2cc(F)ccc2n1)c1ccccc1 (3D coordinates assigned)
C[C@@H]([N-]C(=O)[C@@H]1C[C@@H](O)CN1C(=O)CNC(=O)c1ccc2cc(F)ccc2n1)c1ccccc1 (nonaromatic ring conformer: 63.06073797193395 kcal/mol)

>  <smiles>  (28) 
C[C@@H](NC(=O)[C@@H]1C[C@@H](O)CN1C(=O)CNC(=O)c1ccc2cc(F)ccc2n1)c1ccccc1

>  <score_type>  (28) 
oracle

>  <origin>  (28) 
autodockgpu

>  <m_score__min__energy>  (28) 
-9.0600000000000005

>  <m_primary>  (28) 
energy

>  <meeko>  (28) 
{"free_energy": -7.31, "intermolecular_energy": -9.99, "internal_energy": -3.02, "cluster_size": 11, "cluster_id": 1, "rank_in_cluster": 11}

>  <energy>  (28) 
-7.79

>  <cluster_rmsd>  (28) 
1.62

>  <rmsd>  (28) 
270.96

>  <cluster>  (28) 
1

$$$$
DWYNEBQVPRLYJI-JJGLYHRGNA-M
     RDKit          3D

 58 61  0  0  0  0  0  0  0  0999 V2000
  140.0600   79.9270  219.4700 C   0  0  0  0  0  0  0  0  0  0  0  0
  139.6120   79.6940  220.9210 C   0  0  1  0  0  0  0  0  0  0  0  0
  139.1410   78.3220  221.0910 N   0  0  0  0  0  0  0  0  0  0  0  0
  138.5660   77.8260  222.3080 C   0  0  0  0  0  0  0  0  0  0  0  0
  137.9590   78.6040  223.0900 O   0  0  0  0  0  0  0  0  0  0  0  0
  138.7570   76.3860  222.6950 C   0  0  2  0  0  0  0  0  0  0  0  0
  140.0760   75.8410  222.1370 C   0  0  0  0  0  0  0  0  0  0  0  0
  139.7550   74.4400  221.5990 C   0  0  1  0  0  0  0  0  0  0  0  0
  140.1350   73.4410  222.5190 O   0  0  0  0  0  0  0  0  0  0  0  0
  138.2420   74.4230  221.3630 C   0  0  0  0  0  0  0  0  0  0  0  0
  137.7110   75.5340  222.1360 N   0  0  0  0  0  0  0  0  0  0  0  0
  136.2930   75.6840  222.3670 C   0  0  0  0  0  0  0  0  0  0  0  0
  135.7610   76.8200  222.2170 O   0  0  0  0  0  0  0  0  0  0  0  0
  135.4230   74.5400  222.8110 C   0  0  0  0  0  0  0  0  0  0  0  0
  136.1960   73.5610  223.5790 N   0  0  0  0  0  0  0  0  0  0  0  0
  136.5670   72.2960  223.0140 C   0  0  0  0  0  0  0  0  0  0  0  0
  136.2850   72.0440  221.8080 O   0  0  0  0  0  0  0  0  0  0  0  0
  137.2820   71.2900  223.8290 C   0  0  0  0  0  0  0  0  0  0  0  0
  136.6490   70.1000  224.2300 C   0  0  0  0  0  0  0  0  0  0  0  0
  137.3570   69.1580  224.9810 C   0  0  0  0  0  0  0  0  0  0  0  0
  138.6920   69.4040  225.3270 C   0  0  0  0  0  0  0  0  0  0  0  0
  139.4370   68.4710  226.0610 C   0  0  0  0  0  0  0  0  0  0  0  0
  140.7680   68.7470  226.3920 C   0  0  0  0  0  0  0  0  0  0  0  0
  141.4890   67.8430  227.0980 F   0  0  0  0  0  0  0  0  0  0  0  0
  141.3590   69.9530  225.9950 C   0  0  0  0  0  0  0  0  0  0  0  0
  140.6230   70.8860  225.2590 C   0  0  0  0  0  0  0  0  0  0  0  0
  139.2920   70.6160  224.9200 C   0  0  0  0  0  0  0  0  0  0  0  0
  138.5790   71.5120  224.1900 N   0  0  0  0  0  0  0  0  0  0  0  0
  140.6890   79.9800  221.9550 C   0  0  0  0  0  0  0  0  0  0  0  0
  140.6100   81.0590  222.8630 C   0  0  0  0  0  0  0  0  0  0  0  0
  141.6330   81.2810  223.7910 C   0  0  0  0  0  0  0  0  0  0  0  0
  142.7570   80.4500  223.8120 C   0  0  0  0  0  0  0  0  0  0  0  0
  142.8690   79.4090  222.8880 C   0  0  0  0  0  0  0  0  0  0  0  0
  141.8470   79.1780  221.9620 C   0  0  0  0  0  0  0  0  0  0  0  0
  141.0359   80.4346  219.4646 H   0  0  0  0  0  0  0  0  0  0  0  0
  140.1469   78.9598  218.9533 H   0  0  0  0  0  0  0  0  0  0  0  0
  139.3180   80.5535  218.9533 H   0  0  0  0  0  0  0  0  0  0  0  0
  138.7990   80.4134  221.0984 H   0  0  0  0  0  0  0  0  0  0  0  0
  138.7379   76.3654  223.7946 H   0  0  0  0  0  0  0  0  0  0  0  0
  140.4453   76.4871  221.3269 H   0  0  0  0  0  0  0  0  0  0  0  0
  140.8595   75.8089  222.9084 H   0  0  0  0  0  0  0  0  0  0  0  0
  140.3105   74.2291  220.6733 H   0  0  0  0  0  0  0  0  0  0  0  0
  139.3550   73.2480  223.1020 H   0  0  0  0  0  0  0  0  0  0  0  0
  138.0189   74.5580  220.2943 H   0  0  0  0  0  0  0  0  0  0  0  0
  137.7942   73.4656  221.6677 H   0  0  0  0  0  0  0  0  0  0  0  0
  134.6094   74.9298  223.4404 H   0  0  0  0  0  0  0  0  0  0  0  0
  135.0149   74.0427  221.9187 H   0  0  0  0  0  0  0  0  0  0  0  0
  136.4550   73.7730  224.5690 H   0  0  0  0  0  0  0  0  0  0  0  0
  135.6011   69.9115  223.9537 H   0  0  0  0  0  0  0  0  0  0  0  0
  136.8674   68.2259  225.2996 H   0  0  0  0  0  0  0  0  0  0  0  0
  138.9760   67.5233  226.3763 H   0  0  0  0  0  0  0  0  0  0  0  0
  142.4043   70.1664  226.2629 H   0  0  0  0  0  0  0  0  0  0  0  0
  141.0895   71.8319  224.9464 H   0  0  0  0  0  0  0  0  0  0  0  0
  139.7381   81.7293  222.8403 H   0  0  0  0  0  0  0  0  0  0  0  0
  141.5527   82.1124  224.5068 H   0  0  0  0  0  0  0  0  0  0  0  0
  143.5513   80.6158  224.5547 H   0  0  0  0  0  0  0  0  0  0  0  0
  143.7636   78.7689  222.8886 H   0  0  0  0  0  0  0  0  0  0  0  0
  141.9484   78.3617  221.2316 H   0  0  0  0  0  0  0  0  0  0  0  0
  1  2  1  0
  2  3  1  0
  3  4  1  0
  4  5  2  0
  4  6  1  0
  6  7  1  0
  7  8  1  0
  8  9  1  0
  8 10  1  0
 10 11  1  0
 11 12  1  0
 12 13  2  0
 12 14  1  0
 14 15  1  0
 15 16  1  0
 16 17  2  0
 16 18  1  0
 18 19  2  0
 19 20  1  0
 20 21  2  0
 21 22  1  0
 22 23  2  0
 23 24  1  0
 23 25  1  0
 25 26  2  0
 26 27  1  0
 27 28  2  0
  2 29  1  0
 29 30  2  0
 30 31  1  0
 31 32  2  0
 32 33  1  0
 33 34  2  0
 11  6  1  0
 28 18  1  0
 34 29  1  0
 27 21  1  0
  1 35  1  0
  1 36  1  0
  1 37  1  0
  2 38  1  1
  6 39  1  1
  7 40  1  0
  7 41  1  0
  8 42  1  6
  9 43  1  0
 10 44  1  0
 10 45  1  0
 14 46  1  0
 14 47  1  0
 15 48  1  0
 19 49  1  0
 20 50  1  0
 22 51  1  0
 25 52  1  0
 26 53  1  0
 30 54  1  0
 31 55  1  0
 32 56  1  0
 33 57  1  0
 34 58  1  0
M  CHG  1   3  -1
M  END
>  <UniqueID>  (29) 
85

>  <SMILES>  (29) 
C[C@@H]([N-]C(=O)[C@@H]1C[C@@H](O)CN1C(=O)CNC(=O)c1ccc2cc(F)ccc2n1)c1ccccc1

>  <Energy>  (29) 
63.06073797193395

>  <Genealogy>  (29) 
C[C@@H]([N-]C(=O)[C@@H]1C[C@@H](O)CN1C(=O)CNC(=O)c1ccc2cc(F)ccc2n1)c1ccccc1 (protonated)
C[C@@H]([N-]C(=O)[C@@H]1C[C@@H](O)CN1C(=O)CNC(=O)c1ccc2cc(F)ccc2n1)c1ccccc1 (3D coordinates assigned)
C[C@@H]([N-]C(=O)[C@@H]1C[C@@H](O)CN1C(=O)CNC(=O)c1ccc2cc(F)ccc2n1)c1ccccc1 (nonaromatic ring conformer: 63.06073797193395 kcal/mol)

>  <smiles>  (29) 
C[C@@H](NC(=O)[C@@H]1C[C@@H](O)CN1C(=O)CNC(=O)c1ccc2cc(F)ccc2n1)c1ccccc1

>  <score_type>  (29) 
oracle

>  <origin>  (29) 
autodockgpu

>  <m_score__min__energy>  (29) 
-9.0600000000000005

>  <m_primary>  (29) 
energy

>  <meeko>  (29) 
{"free_energy": -7.5, "intermolecular_energy": -10.18, "internal_energy": -2.72, "cluster_size": 4, "cluster_id": 3, "rank_in_cluster": 4}

>  <energy>  (29) 
-7.62

>  <cluster_rmsd>  (29) 
1.56

>  <rmsd>  (29) 
270.65

>  <cluster>  (29) 
1

$$$$
DWYNEBQVPRLYJI-JJGLYHRGNA-M
     RDKit          3D

 58 61  0  0  0  0  0  0  0  0999 V2000
  142.9400   76.0690  218.7510 C   0  0  0  0  0  0  0  0  0  0  0  0
  142.9230   75.2050  220.0220 C   0  0  1  0  0  0  0  0  0  0  0  0
  141.6510   74.4970  220.1340 N   0  0  0  0  0  0  0  0  0  0  0  0
  140.7350   74.6790  221.2220 C   0  0  0  0  0  0  0  0  0  0  0  0
  140.6650   73.8270  222.1470 O   0  0  0  0  0  0  0  0  0  0  0  0
  139.7930   75.8510  221.2220 C   0  0  2  0  0  0  0  0  0  0  0  0
  140.0900   76.7900  222.3950 C   0  0  0  0  0  0  0  0  0  0  0  0
  138.7240   77.1840  222.9720 C   0  0  1  0  0  0  0  0  0  0  0  0
  138.3220   78.4540  222.5110 O   0  0  0  0  0  0  0  0  0  0  0  0
  137.7490   76.0970  222.5090 C   0  0  0  0  0  0  0  0  0  0  0  0
  138.4060   75.4280  221.3970 N   0  0  0  0  0  0  0  0  0  0  0  0
  137.6920   74.5150  220.5360 C   0  0  0  0  0  0  0  0  0  0  0  0
  137.1140   74.9630  219.5060 O   0  0  0  0  0  0  0  0  0  0  0  0
  137.5830   73.0440  220.8350 C   0  0  0  0  0  0  0  0  0  0  0  0
  138.3310   72.6990  222.0460 N   0  0  0  0  0  0  0  0  0  0  0  0
  138.6690   71.3380  222.3510 C   0  0  0  0  0  0  0  0  0  0  0  0
  138.3800   70.4240  221.5280 O   0  0  0  0  0  0  0  0  0  0  0  0
  139.3580   71.0010  223.6150 C   0  0  0  0  0  0  0  0  0  0  0  0
  140.2930   71.8820  224.1870 C   0  0  0  0  0  0  0  0  0  0  0  0
  140.9120   71.5470  225.3940 C   0  0  0  0  0  0  0  0  0  0  0  0
  140.5960   70.3390  226.0270 C   0  0  0  0  0  0  0  0  0  0  0  0
  141.1830   69.9810  227.2480 C   0  0  0  0  0  0  0  0  0  0  0  0
  140.8480   68.7650  227.8540 C   0  0  0  0  0  0  0  0  0  0  0  0
  141.4120   68.4230  229.0370 F   0  0  0  0  0  0  0  0  0  0  0  0
  139.9290   67.9020  227.2440 C   0  0  0  0  0  0  0  0  0  0  0  0
  139.3370   68.2530  226.0270 C   0  0  0  0  0  0  0  0  0  0  0  0
  139.6640   69.4700  225.4170 C   0  0  0  0  0  0  0  0  0  0  0  0
  139.0770   69.8230  224.2440 N   0  0  0  0  0  0  0  0  0  0  0  0
  144.0590   74.1990  220.1020 C   0  0  0  0  0  0  0  0  0  0  0  0
  145.2470   74.4430  220.8270 C   0  0  0  0  0  0  0  0  0  0  0  0
  146.2650   73.4840  220.8630 C   0  0  0  0  0  0  0  0  0  0  0  0
  146.1270   72.2840  220.1600 C   0  0  0  0  0  0  0  0  0  0  0  0
  144.9780   72.0510  219.4010 C   0  0  0  0  0  0  0  0  0  0  0  0
  143.9540   73.0030  219.3660 C   0  0  0  0  0  0  0  0  0  0  0  0
  142.9609   77.1326  219.0309 H   0  0  0  0  0  0  0  0  0  0  0  0
  143.8336   75.8287  218.1562 H   0  0  0  0  0  0  0  0  0  0  0  0
  142.0377   75.8641  218.1562 H   0  0  0  0  0  0  0  0  0  0  0  0
  143.0580   75.9063  220.8586 H   0  0  0  0  0  0  0  0  0  0  0  0
  139.9345   76.3503  220.2521 H   0  0  0  0  0  0  0  0  0  0  0  0
  140.6926   76.2730  223.1563 H   0  0  0  0  0  0  0  0  0  0  0  0
  140.6626   77.6720  222.0723 H   0  0  0  0  0  0  0  0  0  0  0  0
  138.7582   77.2554  224.0691 H   0  0  0  0  0  0  0  0  0  0  0  0
  137.6590   78.3210  221.7840 H   0  0  0  0  0  0  0  0  0  0  0  0
  137.5534   75.3846  223.3240 H   0  0  0  0  0  0  0  0  0  0  0  0
  136.7785   76.5213  222.2120 H   0  0  0  0  0  0  0  0  0  0  0  0
  136.5241   72.7836  220.9795 H   0  0  0  0  0  0  0  0  0  0  0  0
  138.0055   72.4816  219.9893 H   0  0  0  0  0  0  0  0  0  0  0  0
  138.5960   73.4530  222.7190 H   0  0  0  0  0  0  0  0  0  0  0  0
  140.5360   72.8308  223.6863 H   0  0  0  0  0  0  0  0  0  0  0  0
  141.6458   72.2307  225.8457 H   0  0  0  0  0  0  0  0  0  0  0  0
  141.9065   70.6552  227.7297 H   0  0  0  0  0  0  0  0  0  0  0  0
  139.6724   66.9458  227.7235 H   0  0  0  0  0  0  0  0  0  0  0  0
  138.6153   67.5739  225.5494 H   0  0  0  0  0  0  0  0  0  0  0  0
  145.3723   75.3933  221.3667 H   0  0  0  0  0  0  0  0  0  0  0  0
  147.1775   73.6752  221.4468 H   0  0  0  0  0  0  0  0  0  0  0  0
  146.9216   71.5247  220.2044 H   0  0  0  0  0  0  0  0  0  0  0  0
  144.8782   71.1165  218.8294 H   0  0  0  0  0  0  0  0  0  0  0  0
  143.0572   72.8156  218.7572 H   0  0  0  0  0  0  0  0  0  0  0  0
  1  2  1  0
  2  3  1  0
  3  4  1  0
  4  5  2  0
  4  6  1  0
  6  7  1  0
  7  8  1  0
  8  9  1  0
  8 10  1  0
 10 11  1  0
 11 12  1  0
 12 13  2  0
 12 14  1  0
 14 15  1  0
 15 16  1  0
 16 17  2  0
 16 18  1  0
 18 19  2  0
 19 20  1  0
 20 21  2  0
 21 22  1  0
 22 23  2  0
 23 24  1  0
 23 25  1  0
 25 26  2  0
 26 27  1  0
 27 28  2  0
  2 29  1  0
 29 30  2  0
 30 31  1  0
 31 32  2  0
 32 33  1  0
 33 34  2  0
 11  6  1  0
 28 18  1  0
 34 29  1  0
 27 21  1  0
  1 35  1  0
  1 36  1  0
  1 37  1  0
  2 38  1  1
  6 39  1  6
  7 40  1  0
  7 41  1  0
  8 42  1  1
  9 43  1  0
 10 44  1  0
 10 45  1  0
 14 46  1  0
 14 47  1  0
 15 48  1  0
 19 49  1  0
 20 50  1  0
 22 51  1  0
 25 52  1  0
 26 53  1  0
 30 54  1  0
 31 55  1  0
 32 56  1  0
 33 57  1  0
 34 58  1  0
M  CHG  1   3  -1
M  END
>  <UniqueID>  (30) 
85

>  <SMILES>  (30) 
C[C@@H]([N-]C(=O)[C@@H]1C[C@@H](O)CN1C(=O)CNC(=O)c1ccc2cc(F)ccc2n1)c1ccccc1

>  <Energy>  (30) 
63.06073797193395

>  <Genealogy>  (30) 
C[C@@H]([N-]C(=O)[C@@H]1C[C@@H](O)CN1C(=O)CNC(=O)c1ccc2cc(F)ccc2n1)c1ccccc1 (protonated)
C[C@@H]([N-]C(=O)[C@@H]1C[C@@H](O)CN1C(=O)CNC(=O)c1ccc2cc(F)ccc2n1)c1ccccc1 (3D coordinates assigned)
C[C@@H]([N-]C(=O)[C@@H]1C[C@@H](O)CN1C(=O)CNC(=O)c1ccc2cc(F)ccc2n1)c1ccccc1 (nonaromatic ring conformer: 63.06073797193395 kcal/mol)

>  <smiles>  (30) 
C[C@@H](NC(=O)[C@@H]1C[C@@H](O)CN1C(=O)CNC(=O)c1ccc2cc(F)ccc2n1)c1ccccc1

>  <score_type>  (30) 
oracle

>  <origin>  (30) 
autodockgpu

>  <m_score__min__energy>  (30) 
-9.0600000000000005

>  <m_primary>  (30) 
energy

>  <meeko>  (30) 
{"free_energy": -7.61, "intermolecular_energy": -10.3, "internal_energy": -2.51, "cluster_size": 1, "cluster_id": 4, "rank_in_cluster": 1}

>  <energy>  (30) 
-7.39

>  <cluster_rmsd>  (30) 
1.73

>  <rmsd>  (30) 
270.49

>  <cluster>  (30) 
1

$$$$
DWYNEBQVPRLYJI-JJGLYHRGNA-M
     RDKit          3D

 58 61  0  0  0  0  0  0  0  0999 V2000
  137.7640   79.2870  223.0910 C   0  0  0  0  0  0  0  0  0  0  0  0
  139.0540   78.7470  222.4540 C   0  0  1  0  0  0  0  0  0  0  0  0
  138.9440   78.7650  220.9980 N   0  0  0  0  0  0  0  0  0  0  0  0
  139.6300   77.8430  220.1390 C   0  0  0  0  0  0  0  0  0  0  0  0
  139.0820   77.4240  219.0860 O   0  0  0  0  0  0  0  0  0  0  0  0
  140.9780   77.3100  220.5360 C   0  0  2  0  0  0  0  0  0  0  0  0
  142.0190   77.5910  219.4470 C   0  0  0  0  0  0  0  0  0  0  0  0
  142.8450   76.3050  219.3150 C   0  0  1  0  0  0  0  0  0  0  0  0
  144.0630   76.4080  220.0160 O   0  0  0  0  0  0  0  0  0  0  0  0
  141.9690   75.1890  219.8930 C   0  0  0  0  0  0  0  0  0  0  0  0
  140.9590   75.8580  220.6960 N   0  0  0  0  0  0  0  0  0  0  0  0
  140.1070   75.1250  221.6030 C   0  0  0  0  0  0  0  0  0  0  0  0
  139.7660   75.6590  222.6960 O   0  0  0  0  0  0  0  0  0  0  0  0
  139.6290   73.7290  221.3090 C   0  0  0  0  0  0  0  0  0  0  0  0
  139.6870   72.8920  222.5090 N   0  0  0  0  0  0  0  0  0  0  0  0
  139.7700   71.4630  222.4180 C   0  0  0  0  0  0  0  0  0  0  0  0
  139.8680   70.9150  221.2830 O   0  0  0  0  0  0  0  0  0  0  0  0
  139.7520   70.6300  223.6400 C   0  0  0  0  0  0  0  0  0  0  0  0
  139.1930   69.3400  223.6280 C   0  0  0  0  0  0  0  0  0  0  0  0
  139.2110   68.5670  224.7910 C   0  0  0  0  0  0  0  0  0  0  0  0
  139.7860   69.0800  225.9600 C   0  0  0  0  0  0  0  0  0  0  0  0
  139.8380   68.3240  227.1380 C   0  0  0  0  0  0  0  0  0  0  0  0
  140.4190   68.8670  228.2910 C   0  0  0  0  0  0  0  0  0  0  0  0
  140.4740   68.1330  229.4280 F   0  0  0  0  0  0  0  0  0  0  0  0
  140.9460   70.1640  228.2720 C   0  0  0  0  0  0  0  0  0  0  0  0
  140.9000   70.9230  227.0990 C   0  0  0  0  0  0  0  0  0  0  0  0
  140.3260   70.3850  225.9410 C   0  0  0  0  0  0  0  0  0  0  0  0
  140.2960   71.1130  224.7940 N   0  0  0  0  0  0  0  0  0  0  0  0
  140.3090   79.4990  222.8650 C   0  0  0  0  0  0  0  0  0  0  0  0
  141.4130   78.8660  223.4770 C   0  0  0  0  0  0  0  0  0  0  0  0
  142.5430   79.6070  223.8420 C   0  0  0  0  0  0  0  0  0  0  0  0
  142.5790   80.9870  223.6250 C   0  0  0  0  0  0  0  0  0  0  0  0
  141.4750   81.6320  223.0640 C   0  0  0  0  0  0  0  0  0  0  0  0
  140.3450   80.8960  222.6920 C   0  0  0  0  0  0  0  0  0  0  0  0
  137.8528   79.2498  224.1868 H   0  0  0  0  0  0  0  0  0  0  0  0
  137.6047   80.3273  222.7711 H   0  0  0  0  0  0  0  0  0  0  0  0
  136.9111   78.6704  222.7711 H   0  0  0  0  0  0  0  0  0  0  0  0
  139.1606   77.7181  222.8280 H   0  0  0  0  0  0  0  0  0  0  0  0
  141.2305   77.8091  221.4832 H   0  0  0  0  0  0  0  0  0  0  0  0
  141.5223   77.8265  218.4942 H   0  0  0  0  0  0  0  0  0  0  0  0
  142.6515   78.4532  219.7050 H   0  0  0  0  0  0  0  0  0  0  0  0
  143.1132   76.1055  218.2670 H   0  0  0  0  0  0  0  0  0  0  0  0
  144.0400   77.2440  220.5510 H   0  0  0  0  0  0  0  0  0  0  0  0
  141.4962   74.6141  219.0831 H   0  0  0  0  0  0  0  0  0  0  0  0
  142.5585   74.4787  220.4913 H   0  0  0  0  0  0  0  0  0  0  0  0
  138.5900   73.7724  220.9503 H   0  0  0  0  0  0  0  0  0  0  0  0
  140.2829   73.2884  220.5419 H   0  0  0  0  0  0  0  0  0  0  0  0
  139.6320   73.3400  223.4520 H   0  0  0  0  0  0  0  0  0  0  0  0
  138.7434   68.9413  222.7066 H   0  0  0  0  0  0  0  0  0  0  0  0
  138.7744   67.5574  224.7886 H   0  0  0  0  0  0  0  0  0  0  0  0
  139.4232   67.3054  227.1576 H   0  0  0  0  0  0  0  0  0  0  0  0
  141.3971   70.5866  229.1819 H   0  0  0  0  0  0  0  0  0  0  0  0
  141.3144   71.9419  227.0859 H   0  0  0  0  0  0  0  0  0  0  0  0
  141.3847   77.7831  223.6682 H   0  0  0  0  0  0  0  0  0  0  0  0
  143.4054   79.1015  224.3011 H   0  0  0  0  0  0  0  0  0  0  0  0
  143.4755   81.5641  223.8957 H   0  0  0  0  0  0  0  0  0  0  0  0
  141.4939   82.7216  222.9142 H   0  0  0  0  0  0  0  0  0  0  0  0
  139.4759   81.4137  222.2600 H   0  0  0  0  0  0  0  0  0  0  0  0
  1  2  1  0
  2  3  1  0
  3  4  1  0
  4  5  2  0
  4  6  1  0
  6  7  1  0
  7  8  1  0
  8  9  1  0
  8 10  1  0
 10 11  1  0
 11 12  1  0
 12 13  2  0
 12 14  1  0
 14 15  1  0
 15 16  1  0
 16 17  2  0
 16 18  1  0
 18 19  2  0
 19 20  1  0
 20 21  2  0
 21 22  1  0
 22 23  2  0
 23 24  1  0
 23 25  1  0
 25 26  2  0
 26 27  1  0
 27 28  2  0
  2 29  1  0
 29 30  2  0
 30 31  1  0
 31 32  2  0
 32 33  1  0
 33 34  2  0
 11  6  1  0
 28 18  1  0
 34 29  1  0
 27 21  1  0
  1 35  1  0
  1 36  1  0
  1 37  1  0
  2 38  1  1
  6 39  1  1
  7 40  1  0
  7 41  1  0
  8 42  1  6
  9 43  1  0
 10 44  1  0
 10 45  1  0
 14 46  1  0
 14 47  1  0
 15 48  1  0
 19 49  1  0
 20 50  1  0
 22 51  1  0
 25 52  1  0
 26 53  1  0
 30 54  1  0
 31 55  1  0
 32 56  1  0
 33 57  1  0
 34 58  1  0
M  CHG  1   3  -1
M  END
>  <UniqueID>  (31) 
85

>  <SMILES>  (31) 
C[C@@H]([N-]C(=O)[C@@H]1C[C@@H](O)CN1C(=O)CNC(=O)c1ccc2cc(F)ccc2n1)c1ccccc1

>  <Energy>  (31) 
63.06073797193395

>  <Genealogy>  (31) 
C[C@@H]([N-]C(=O)[C@@H]1C[C@@H](O)CN1C(=O)CNC(=O)c1ccc2cc(F)ccc2n1)c1ccccc1 (protonated)
C[C@@H]([N-]C(=O)[C@@H]1C[C@@H](O)CN1C(=O)CNC(=O)c1ccc2cc(F)ccc2n1)c1ccccc1 (3D coordinates assigned)
C[C@@H]([N-]C(=O)[C@@H]1C[C@@H](O)CN1C(=O)CNC(=O)c1ccc2cc(F)ccc2n1)c1ccccc1 (nonaromatic ring conformer: 63.06073797193395 kcal/mol)

>  <smiles>  (31) 
C[C@@H](NC(=O)[C@@H]1C[C@@H](O)CN1C(=O)CNC(=O)c1ccc2cc(F)ccc2n1)c1ccccc1

>  <score_type>  (31) 
oracle

>  <origin>  (31) 
autodockgpu

>  <m_score__min__energy>  (31) 
-9.0600000000000005

>  <m_primary>  (31) 
energy

>  <meeko>  (31) 
{"free_energy": -8.8, "intermolecular_energy": -11.49, "internal_energy": -2.31, "cluster_size": 11, "cluster_id": 1, "rank_in_cluster": 3}

>  <energy>  (31) 
-7.31

>  <cluster_rmsd>  (31) 
1.87

>  <rmsd>  (31) 
270.42

>  <cluster>  (31) 
1

$$$$
DWYNEBQVPRLYJI-JJGLYHRGNA-M
     RDKit          3D

 58 61  0  0  0  0  0  0  0  0999 V2000
  137.7700   80.0150  223.1510 C   0  0  0  0  0  0  0  0  0  0  0  0
  138.9290   79.1740  222.5950 C   0  0  1  0  0  0  0  0  0  0  0  0
  138.8280   79.0720  221.1410 N   0  0  0  0  0  0  0  0  0  0  0  0
  139.3060   77.9470  220.3900 C   0  0  0  0  0  0  0  0  0  0  0  0
  138.5360   77.3280  219.6100 O   0  0  0  0  0  0  0  0  0  0  0  0
  140.7110   77.4530  220.5910 C   0  0  2  0  0  0  0  0  0  0  0  0
  141.6060   77.8550  219.4150 C   0  0  0  0  0  0  0  0  0  0  0  0
  142.4600   76.6210  219.0980 C   0  0  1  0  0  0  0  0  0  0  0  0
  143.7470   76.7330  219.6620 O   0  0  0  0  0  0  0  0  0  0  0  0
  141.7020   75.4290  219.6890 C   0  0  0  0  0  0  0  0  0  0  0  0
  140.7660   75.9940  220.6480 N   0  0  0  0  0  0  0  0  0  0  0  0
  140.0550   75.1630  221.5900 C   0  0  0  0  0  0  0  0  0  0  0  0
  139.7730   75.6260  222.7310 O   0  0  0  0  0  0  0  0  0  0  0  0
  139.6580   73.7460  221.2750 C   0  0  0  0  0  0  0  0  0  0  0  0
  139.6900   72.9130  222.4790 N   0  0  0  0  0  0  0  0  0  0  0  0
  139.8220   71.4870  222.3960 C   0  0  0  0  0  0  0  0  0  0  0  0
  139.9870   70.9400  221.2690 O   0  0  0  0  0  0  0  0  0  0  0  0
  139.7770   70.6560  223.6190 C   0  0  0  0  0  0  0  0  0  0  0  0
  139.1860   69.3800  223.6050 C   0  0  0  0  0  0  0  0  0  0  0  0
  139.1780   68.6090  224.7700 C   0  0  0  0  0  0  0  0  0  0  0  0
  139.7590   69.1090  225.9410 C   0  0  0  0  0  0  0  0  0  0  0  0
  139.7860   68.3530  227.1210 C   0  0  0  0  0  0  0  0  0  0  0  0
  140.3740   68.8820  228.2760 C   0  0  0  0  0  0  0  0  0  0  0  0
  140.4050   68.1480  229.4140 F   0  0  0  0  0  0  0  0  0  0  0  0
  140.9340   70.1660  228.2580 C   0  0  0  0  0  0  0  0  0  0  0  0
  140.9130   70.9240  227.0840 C   0  0  0  0  0  0  0  0  0  0  0  0
  140.3310   70.4000  225.9240 C   0  0  0  0  0  0  0  0  0  0  0  0
  140.3260   71.1270  224.7760 N   0  0  0  0  0  0  0  0  0  0  0  0
  140.3070   79.7000  222.9600 C   0  0  0  0  0  0  0  0  0  0  0  0
  141.3210   78.8780  223.4990 C   0  0  0  0  0  0  0  0  0  0  0  0
  142.5720   79.4150  223.8240 C   0  0  0  0  0  0  0  0  0  0  0  0
  142.8200   80.7780  223.6410 C   0  0  0  0  0  0  0  0  0  0  0  0
  141.8110   81.6110  223.1540 C   0  0  0  0  0  0  0  0  0  0  0  0
  140.5610   81.0780  222.8210 C   0  0  0  0  0  0  0  0  0  0  0  0
  137.7972   79.9953  224.2505 H   0  0  0  0  0  0  0  0  0  0  0  0
  137.8689   81.0529  222.8003 H   0  0  0  0  0  0  0  0  0  0  0  0
  136.8140   79.5990  222.8003 H   0  0  0  0  0  0  0  0  0  0  0  0
  138.8291   78.1853  223.0667 H   0  0  0  0  0  0  0  0  0  0  0  0
  141.0538   77.8993  221.5361 H   0  0  0  0  0  0  0  0  0  0  0  0
  140.9932   78.1306  218.5441 H   0  0  0  0  0  0  0  0  0  0  0  0
  142.2302   78.7267  219.6611 H   0  0  0  0  0  0  0  0  0  0  0  0
  142.6115   76.5058  218.0146 H   0  0  0  0  0  0  0  0  0  0  0  0
  143.7230   77.4600  220.3370 H   0  0  0  0  0  0  0  0  0  0  0  0
  141.1613   74.8882  218.8983 H   0  0  0  0  0  0  0  0  0  0  0  0
  142.3846   74.7089  220.1639 H   0  0  0  0  0  0  0  0  0  0  0  0
  138.6389   73.7413  220.8611 H   0  0  0  0  0  0  0  0  0  0  0  0
  140.3716   73.3356  220.5454 H   0  0  0  0  0  0  0  0  0  0  0  0
  139.5790   73.3610  223.4170 H   0  0  0  0  0  0  0  0  0  0  0  0
  138.7324   68.9910  222.6815 H   0  0  0  0  0  0  0  0  0  0  0  0
  138.7159   67.6108  224.7670 H   0  0  0  0  0  0  0  0  0  0  0  0
  139.3456   67.3452  227.1394 H   0  0  0  0  0  0  0  0  0  0  0  0
  141.3911   70.5784  229.1696 H   0  0  0  0  0  0  0  0  0  0  0  0
  141.3536   71.9318  227.0717 H   0  0  0  0  0  0  0  0  0  0  0  0
  141.1263   77.8081  223.6646 H   0  0  0  0  0  0  0  0  0  0  0  0
  143.3619   78.7625  224.2245 H   0  0  0  0  0  0  0  0  0  0  0  0
  143.8096   81.1943  223.8805 H   0  0  0  0  0  0  0  0  0  0  0  0
  141.9991   82.6879  223.0319 H   0  0  0  0  0  0  0  0  0  0  0  0
  139.7683   81.7424  222.4466 H   0  0  0  0  0  0  0  0  0  0  0  0
  1  2  1  0
  2  3  1  0
  3  4  1  0
  4  5  2  0
  4  6  1  0
  6  7  1  0
  7  8  1  0
  8  9  1  0
  8 10  1  0
 10 11  1  0
 11 12  1  0
 12 13  2  0
 12 14  1  0
 14 15  1  0
 15 16  1  0
 16 17  2  0
 16 18  1  0
 18 19  2  0
 19 20  1  0
 20 21  2  0
 21 22  1  0
 22 23  2  0
 23 24  1  0
 23 25  1  0
 25 26  2  0
 26 27  1  0
 27 28  2  0
  2 29  1  0
 29 30  2  0
 30 31  1  0
 31 32  2  0
 32 33  1  0
 33 34  2  0
 11  6  1  0
 28 18  1  0
 34 29  1  0
 27 21  1  0
  1 35  1  0
  1 36  1  0
  1 37  1  0
  2 38  1  1
  6 39  1  1
  7 40  1  0
  7 41  1  0
  8 42  1  6
  9 43  1  0
 10 44  1  0
 10 45  1  0
 14 46  1  0
 14 47  1  0
 15 48  1  0
 19 49  1  0
 20 50  1  0
 22 51  1  0
 25 52  1  0
 26 53  1  0
 30 54  1  0
 31 55  1  0
 32 56  1  0
 33 57  1  0
 34 58  1  0
M  CHG  1   3  -1
M  END
>  <UniqueID>  (32) 
85

>  <SMILES>  (32) 
C[C@@H]([N-]C(=O)[C@@H]1C[C@@H](O)CN1C(=O)CNC(=O)c1ccc2cc(F)ccc2n1)c1ccccc1

>  <Energy>  (32) 
63.06073797193395

>  <Genealogy>  (32) 
C[C@@H]([N-]C(=O)[C@@H]1C[C@@H](O)CN1C(=O)CNC(=O)c1ccc2cc(F)ccc2n1)c1ccccc1 (protonated)
C[C@@H]([N-]C(=O)[C@@H]1C[C@@H](O)CN1C(=O)CNC(=O)c1ccc2cc(F)ccc2n1)c1ccccc1 (3D coordinates assigned)
C[C@@H]([N-]C(=O)[C@@H]1C[C@@H](O)CN1C(=O)CNC(=O)c1ccc2cc(F)ccc2n1)c1ccccc1 (nonaromatic ring conformer: 63.06073797193395 kcal/mol)

>  <smiles>  (32) 
C[C@@H](NC(=O)[C@@H]1C[C@@H](O)CN1C(=O)CNC(=O)c1ccc2cc(F)ccc2n1)c1ccccc1

>  <score_type>  (32) 
oracle

>  <origin>  (32) 
autodockgpu

>  <m_score__min__energy>  (32) 
-9.0600000000000005

>  <m_primary>  (32) 
energy

>  <meeko>  (32) 
{"free_energy": -8.69, "intermolecular_energy": -11.37, "internal_energy": -2.35, "cluster_size": 11, "cluster_id": 1, "rank_in_cluster": 5}

>  <energy>  (32) 
-8.0

>  <cluster_rmsd>  (32) 
0.0

>  <rmsd>  (32) 
269.86

>  <cluster>  (32) 
2

$$$$
DWYNEBQVPRLYJI-JJGLYHRGNA-M
     RDKit          3D

 58 61  0  0  0  0  0  0  0  0999 V2000
  137.7690   79.2060  223.0380 C   0  0  0  0  0  0  0  0  0  0  0  0
  139.0880   78.7410  222.4010 C   0  0  1  0  0  0  0  0  0  0  0  0
  138.9790   78.7580  220.9450 N   0  0  0  0  0  0  0  0  0  0  0  0
  139.7110   77.8740  220.0840 C   0  0  0  0  0  0  0  0  0  0  0  0
  139.2160   77.4930  218.9920 O   0  0  0  0  0  0  0  0  0  0  0  0
  141.0440   77.3340  220.5230 C   0  0  2  0  0  0  0  0  0  0  0  0
  142.1110   77.5740  219.4500 C   0  0  0  0  0  0  0  0  0  0  0  0
  142.9210   76.2740  219.3670 C   0  0  1  0  0  0  0  0  0  0  0  0
  144.1260   76.3780  220.0920 O   0  0  0  0  0  0  0  0  0  0  0  0
  142.0190   75.1850  219.9530 C   0  0  0  0  0  0  0  0  0  0  0  0
  141.0000   75.8860  220.7180 N   0  0  0  0  0  0  0  0  0  0  0  0
  140.1200   75.1870  221.6240 C   0  0  0  0  0  0  0  0  0  0  0  0
  139.8020   75.7320  222.7180 O   0  0  0  0  0  0  0  0  0  0  0  0
  139.5850   73.8120  221.3270 C   0  0  0  0  0  0  0  0  0  0  0  0
  139.5980   72.9750  222.5290 N   0  0  0  0  0  0  0  0  0  0  0  0
  139.9260   71.5800  222.4610 C   0  0  0  0  0  0  0  0  0  0  0  0
  140.2800   71.0750  221.3580 O   0  0  0  0  0  0  0  0  0  0  0  0
  139.8610   70.7340  223.6720 C   0  0  0  0  0  0  0  0  0  0  0  0
  139.2400   69.4730  223.6420 C   0  0  0  0  0  0  0  0  0  0  0  0
  139.2140   68.6860  224.7960 C   0  0  0  0  0  0  0  0  0  0  0  0
  139.8080   69.1560  225.9730 C   0  0  0  0  0  0  0  0  0  0  0  0
  139.8180   68.3830  227.1420 C   0  0  0  0  0  0  0  0  0  0  0  0
  140.4190   68.8830  228.3040 C   0  0  0  0  0  0  0  0  0  0  0  0
  140.4320   68.1330  229.4320 F   0  0  0  0  0  0  0  0  0  0  0  0
  141.0090   70.1530  228.3040 C   0  0  0  0  0  0  0  0  0  0  0  0
  141.0060   70.9270  227.1400 C   0  0  0  0  0  0  0  0  0  0  0  0
  140.4110   70.4330  225.9730 C   0  0  0  0  0  0  0  0  0  0  0  0
  140.4220   71.1750  224.8350 N   0  0  0  0  0  0  0  0  0  0  0  0
  140.2990   79.5590  222.8180 C   0  0  0  0  0  0  0  0  0  0  0  0
  140.4110   80.9440  222.5630 C   0  0  0  0  0  0  0  0  0  0  0  0
  141.5510   81.6490  222.9630 C   0  0  0  0  0  0  0  0  0  0  0  0
  142.6030   80.9820  223.5980 C   0  0  0  0  0  0  0  0  0  0  0  0
  142.5260   79.6050  223.8130 C   0  0  0  0  0  0  0  0  0  0  0  0
  141.3850   78.8960  223.4210 C   0  0  0  0  0  0  0  0  0  0  0  0
  137.8597   79.1740  224.1338 H   0  0  0  0  0  0  0  0  0  0  0  0
  137.5502   80.2355  222.7181 H   0  0  0  0  0  0  0  0  0  0  0  0
  136.9530   78.5414  222.7181 H   0  0  0  0  0  0  0  0  0  0  0  0
  139.2513   77.7180  222.7709 H   0  0  0  0  0  0  0  0  0  0  0  0
  141.2848   77.8533  221.4623 H   0  0  0  0  0  0  0  0  0  0  0  0
  141.6376   77.7927  218.4814 H   0  0  0  0  0  0  0  0  0  0  0  0
  142.7501   78.4337  219.7001 H   0  0  0  0  0  0  0  0  0  0  0  0
  143.2076   76.0453  218.3299 H   0  0  0  0  0  0  0  0  0  0  0  0
  144.0780   77.1970  220.6520 H   0  0  0  0  0  0  0  0  0  0  0  0
  141.5562   74.5961  219.1474 H   0  0  0  0  0  0  0  0  0  0  0  0
  142.5866   74.4830  220.5815 H   0  0  0  0  0  0  0  0  0  0  0  0
  138.5517   73.8991  220.9600 H   0  0  0  0  0  0  0  0  0  0  0  0
  140.2251   73.3429  220.5652 H   0  0  0  0  0  0  0  0  0  0  0  0
  139.3310   73.3920  223.4490 H   0  0  0  0  0  0  0  0  0  0  0  0
  138.7765   69.1076  222.7137 H   0  0  0  0  0  0  0  0  0  0  0  0
  138.7279   67.6994  224.7797 H   0  0  0  0  0  0  0  0  0  0  0  0
  139.3546   67.3854  227.1468 H   0  0  0  0  0  0  0  0  0  0  0  0
  141.4754   70.5420  229.2211 H   0  0  0  0  0  0  0  0  0  0  0  0
  141.4710   71.9239  227.1410 H   0  0  0  0  0  0  0  0  0  0  0  0
  139.5959   81.4718  222.0462 H   0  0  0  0  0  0  0  0  0  0  0  0
  141.6200   82.7310  222.7775 H   0  0  0  0  0  0  0  0  0  0  0  0
  143.4905   81.5419  223.9279 H   0  0  0  0  0  0  0  0  0  0  0  0
  143.3636   79.0763  224.2914 H   0  0  0  0  0  0  0  0  0  0  0  0
  141.3360   77.8095  223.5857 H   0  0  0  0  0  0  0  0  0  0  0  0
  1  2  1  0
  2  3  1  0
  3  4  1  0
  4  5  2  0
  4  6  1  0
  6  7  1  0
  7  8  1  0
  8  9  1  0
  8 10  1  0
 10 11  1  0
 11 12  1  0
 12 13  2  0
 12 14  1  0
 14 15  1  0
 15 16  1  0
 16 17  2  0
 16 18  1  0
 18 19  2  0
 19 20  1  0
 20 21  2  0
 21 22  1  0
 22 23  2  0
 23 24  1  0
 23 25  1  0
 25 26  2  0
 26 27  1  0
 27 28  2  0
  2 29  1  0
 29 30  2  0
 30 31  1  0
 31 32  2  0
 32 33  1  0
 33 34  2  0
 11  6  1  0
 28 18  1  0
 34 29  1  0
 27 21  1  0
  1 35  1  0
  1 36  1  0
  1 37  1  0
  2 38  1  1
  6 39  1  1
  7 40  1  0
  7 41  1  0
  8 42  1  6
  9 43  1  0
 10 44  1  0
 10 45  1  0
 14 46  1  0
 14 47  1  0
 15 48  1  0
 19 49  1  0
 20 50  1  0
 22 51  1  0
 25 52  1  0
 26 53  1  0
 30 54  1  0
 31 55  1  0
 32 56  1  0
 33 57  1  0
 34 58  1  0
M  CHG  1   3  -1
M  END
>  <UniqueID>  (33) 
85

>  <SMILES>  (33) 
C[C@@H]([N-]C(=O)[C@@H]1C[C@@H](O)CN1C(=O)CNC(=O)c1ccc2cc(F)ccc2n1)c1ccccc1

>  <Energy>  (33) 
63.06073797193395

>  <Genealogy>  (33) 
C[C@@H]([N-]C(=O)[C@@H]1C[C@@H](O)CN1C(=O)CNC(=O)c1ccc2cc(F)ccc2n1)c1ccccc1 (protonated)
C[C@@H]([N-]C(=O)[C@@H]1C[C@@H](O)CN1C(=O)CNC(=O)c1ccc2cc(F)ccc2n1)c1ccccc1 (3D coordinates assigned)
C[C@@H]([N-]C(=O)[C@@H]1C[C@@H](O)CN1C(=O)CNC(=O)c1ccc2cc(F)ccc2n1)c1ccccc1 (nonaromatic ring conformer: 63.06073797193395 kcal/mol)

>  <smiles>  (33) 
C[C@@H](NC(=O)[C@@H]1C[C@@H](O)CN1C(=O)CNC(=O)c1ccc2cc(F)ccc2n1)c1ccccc1

>  <score_type>  (33) 
oracle

>  <origin>  (33) 
autodockgpu

>  <m_score__min__energy>  (33) 
-9.0600000000000005

>  <m_primary>  (33) 
energy

>  <meeko>  (33) 
{"free_energy": -8.87, "intermolecular_energy": -11.56, "internal_energy": -2.21, "cluster_size": 11, "cluster_id": 1, "rank_in_cluster": 2}

>  <energy>  (33) 
-7.92

>  <cluster_rmsd>  (33) 
0.0

>  <rmsd>  (33) 
270.96

>  <cluster>  (33) 
3

$$$$
DWYNEBQVPRLYJI-JJGLYHRGNA-M
     RDKit          3D

 58 61  0  0  0  0  0  0  0  0999 V2000
  137.9780   80.7430  221.7690 C   0  0  0  0  0  0  0  0  0  0  0  0
  138.9680   79.5770  221.6190 C   0  0  1  0  0  0  0  0  0  0  0  0
  139.3150   79.3870  220.2130 N   0  0  0  0  0  0  0  0  0  0  0  0
  139.8240   78.1560  219.6820 C   0  0  0  0  0  0  0  0  0  0  0  0
  139.1870   77.5340  218.7920 O   0  0  0  0  0  0  0  0  0  0  0  0
  141.0840   77.5590  220.2440 C   0  0  2  0  0  0  0  0  0  0  0  0
  142.2060   77.5680  219.2010 C   0  0  0  0  0  0  0  0  0  0  0  0
  142.8950   76.2020  219.3160 C   0  0  1  0  0  0  0  0  0  0  0  0
  144.0780   76.2900  220.0780 O   0  0  0  0  0  0  0  0  0  0  0  0
  141.8740   75.2780  219.9880 C   0  0  0  0  0  0  0  0  0  0  0  0
  140.8990   76.1580  220.6130 N   0  0  0  0  0  0  0  0  0  0  0  0
  139.9260   75.6580  221.5550 C   0  0  0  0  0  0  0  0  0  0  0  0
  140.1080   74.5270  222.0880 O   0  0  0  0  0  0  0  0  0  0  0  0
  138.6810   76.4250  221.9100 C   0  0  0  0  0  0  0  0  0  0  0  0
  137.7840   75.6130  222.7360 N   0  0  0  0  0  0  0  0  0  0  0  0
  136.5590   76.1490  223.2550 C   0  0  0  0  0  0  0  0  0  0  0  0
  136.2070   77.3210  222.9380 O   0  0  0  0  0  0  0  0  0  0  0  0
  135.7040   75.3390  224.1490 C   0  0  0  0  0  0  0  0  0  0  0  0
  134.8350   75.9510  225.0700 C   0  0  0  0  0  0  0  0  0  0  0  0
  134.0220   75.1600  225.8860 C   0  0  0  0  0  0  0  0  0  0  0  0
  134.0760   73.7650  225.7810 C   0  0  0  0  0  0  0  0  0  0  0  0
  133.2600   72.9430  226.5690 C   0  0  0  0  0  0  0  0  0  0  0  0
  133.3390   71.5510  226.4410 C   0  0  0  0  0  0  0  0  0  0  0  0
  132.5460   70.7580  227.2000 F   0  0  0  0  0  0  0  0  0  0  0  0
  134.2330   70.9760  225.5290 C   0  0  0  0  0  0  0  0  0  0  0  0
  135.0470   71.7900  224.7370 C   0  0  0  0  0  0  0  0  0  0  0  0
  134.9710   73.1830  224.8560 C   0  0  0  0  0  0  0  0  0  0  0  0
  135.7480   73.9770  224.0740 N   0  0  0  0  0  0  0  0  0  0  0  0
  140.2440   79.7410  222.4280 C   0  0  0  0  0  0  0  0  0  0  0  0
  140.6490   78.8130  223.4130 C   0  0  0  0  0  0  0  0  0  0  0  0
  141.8310   79.0150  224.1340 C   0  0  0  0  0  0  0  0  0  0  0  0
  142.6110   80.1510  223.9010 C   0  0  0  0  0  0  0  0  0  0  0  0
  142.1980   81.1000  222.9640 C   0  0  0  0  0  0  0  0  0  0  0  0
  141.0200   80.9000  222.2360 C   0  0  0  0  0  0  0  0  0  0  0  0
  137.8073   80.9440  222.8369 H   0  0  0  0  0  0  0  0  0  0  0  0
  138.3937   81.6411  221.2887 H   0  0  0  0  0  0  0  0  0  0  0  0
  137.0244   80.4784  221.2887 H   0  0  0  0  0  0  0  0  0  0  0  0
  138.4484   78.6934  222.0182 H   0  0  0  0  0  0  0  0  0  0  0  0
  141.3388   78.1688  221.1233 H   0  0  0  0  0  0  0  0  0  0  0  0
  141.7897   77.7032  218.1918 H   0  0  0  0  0  0  0  0  0  0  0  0
  142.9124   78.3934  219.3735 H   0  0  0  0  0  0  0  0  0  0  0  0
  143.1966   75.8204  218.3294 H   0  0  0  0  0  0  0  0  0  0  0  0
  144.0990   77.1830  220.5100 H   0  0  0  0  0  0  0  0  0  0  0  0
  141.3868   74.6358  219.2395 H   0  0  0  0  0  0  0  0  0  0  0  0
  142.3504   74.6125  220.7229 H   0  0  0  0  0  0  0  0  0  0  0  0
  138.9626   77.3305  222.4674 H   0  0  0  0  0  0  0  0  0  0  0  0
  138.1566   76.6930  220.9809 H   0  0  0  0  0  0  0  0  0  0  0  0
  138.0570   74.6340  222.9820 H   0  0  0  0  0  0  0  0  0  0  0  0
  134.7955   77.0475  225.1477 H   0  0  0  0  0  0  0  0  0  0  0  0
  133.3410   75.6324  226.6093 H   0  0  0  0  0  0  0  0  0  0  0  0
  132.5578   73.3908  227.2877 H   0  0  0  0  0  0  0  0  0  0  0  0
  134.2945   69.8817  225.4361 H   0  0  0  0  0  0  0  0  0  0  0  0
  135.7474   71.3365  224.0202 H   0  0  0  0  0  0  0  0  0  0  0  0
  140.0310   77.9256  223.6145 H   0  0  0  0  0  0  0  0  0  0  0  0
  142.1472   78.2775  224.8864 H   0  0  0  0  0  0  0  0  0  0  0  0
  143.5497   80.2973  224.4555 H   0  0  0  0  0  0  0  0  0  0  0  0
  142.7994   82.0060  222.7979 H   0  0  0  0  0  0  0  0  0  0  0  0
  140.6967   81.6564  221.5057 H   0  0  0  0  0  0  0  0  0  0  0  0
  1  2  1  0
  2  3  1  0
  3  4  1  0
  4  5  2  0
  4  6  1  0
  6  7  1  0
  7  8  1  0
  8  9  1  0
  8 10  1  0
 10 11  1  0
 11 12  1  0
 12 13  2  0
 12 14  1  0
 14 15  1  0
 15 16  1  0
 16 17  2  0
 16 18  1  0
 18 19  2  0
 19 20  1  0
 20 21  2  0
 21 22  1  0
 22 23  2  0
 23 24  1  0
 23 25  1  0
 25 26  2  0
 26 27  1  0
 27 28  2  0
  2 29  1  0
 29 30  2  0
 30 31  1  0
 31 32  2  0
 32 33  1  0
 33 34  2  0
 11  6  1  0
 28 18  1  0
 34 29  1  0
 27 21  1  0
  1 35  1  0
  1 36  1  0
  1 37  1  0
  2 38  1  1
  6 39  1  1
  7 40  1  0
  7 41  1  0
  8 42  1  6
  9 43  1  0
 10 44  1  0
 10 45  1  0
 14 46  1  0
 14 47  1  0
 15 48  1  0
 19 49  1  0
 20 50  1  0
 22 51  1  0
 25 52  1  0
 26 53  1  0
 30 54  1  0
 31 55  1  0
 32 56  1  0
 33 57  1  0
 34 58  1  0
M  CHG  1   3  -1
M  END
>  <UniqueID>  (34) 
85

>  <SMILES>  (34) 
C[C@@H]([N-]C(=O)[C@@H]1C[C@@H](O)CN1C(=O)CNC(=O)c1ccc2cc(F)ccc2n1)c1ccccc1

>  <Energy>  (34) 
63.06073797193395

>  <Genealogy>  (34) 
C[C@@H]([N-]C(=O)[C@@H]1C[C@@H](O)CN1C(=O)CNC(=O)c1ccc2cc(F)ccc2n1)c1ccccc1 (protonated)
C[C@@H]([N-]C(=O)[C@@H]1C[C@@H](O)CN1C(=O)CNC(=O)c1ccc2cc(F)ccc2n1)c1ccccc1 (3D coordinates assigned)
C[C@@H]([N-]C(=O)[C@@H]1C[C@@H](O)CN1C(=O)CNC(=O)c1ccc2cc(F)ccc2n1)c1ccccc1 (nonaromatic ring conformer: 63.06073797193395 kcal/mol)

>  <smiles>  (34) 
C[C@@H](NC(=O)[C@@H]1C[C@@H](O)CN1C(=O)CNC(=O)c1ccc2cc(F)ccc2n1)c1ccccc1

>  <score_type>  (34) 
oracle

>  <origin>  (34) 
autodockgpu

>  <m_score__min__energy>  (34) 
-9.0600000000000005

>  <m_primary>  (34) 
energy

>  <meeko>  (34) 
{"free_energy": -7.09, "intermolecular_energy": -9.77, "internal_energy": -2.83, "cluster_size": 1, "cluster_id": 6, "rank_in_cluster": 1}

>  <energy>  (34) 
-7.8

>  <cluster_rmsd>  (34) 
1.68

>  <rmsd>  (34) 
270.91

>  <cluster>  (34) 
3

$$$$
DWYNEBQVPRLYJI-JJGLYHRGNA-M
     RDKit          3D

 58 61  0  0  0  0  0  0  0  0999 V2000
  138.9120   77.8990  221.7660 C   0  0  0  0  0  0  0  0  0  0  0  0
  140.2690   77.7440  222.4690 C   0  0  1  0  0  0  0  0  0  0  0  0
  141.1980   77.0050  221.6170 N   0  0  0  0  0  0  0  0  0  0  0  0
  141.6570   77.4820  220.3450 C   0  0  0  0  0  0  0  0  0  0  0  0
  141.1310   78.4970  219.8170 O   0  0  0  0  0  0  0  0  0  0  0  0
  142.7150   76.7220  219.5960 C   0  0  2  0  0  0  0  0  0  0  0  0
  142.8650   77.2570  218.1680 C   0  0  0  0  0  0  0  0  0  0  0  0
  142.9910   76.0200  217.2690 C   0  0  1  0  0  0  0  0  0  0  0  0
  144.3380   75.7630  216.9410 O   0  0  0  0  0  0  0  0  0  0  0  0
  142.3880   74.8620  218.0700 C   0  0  0  0  0  0  0  0  0  0  0  0
  142.3650   75.3100  219.4530 N   0  0  0  0  0  0  0  0  0  0  0  0
  142.1020   74.3970  220.5390 C   0  0  0  0  0  0  0  0  0  0  0  0
  143.0730   73.8790  221.1590 O   0  0  0  0  0  0  0  0  0  0  0  0
  140.7050   74.0110  220.9470 C   0  0  0  0  0  0  0  0  0  0  0  0
  140.7290   73.0670  222.0670 N   0  0  0  0  0  0  0  0  0  0  0  0
  139.6200   72.1960  222.3300 C   0  0  0  0  0  0  0  0  0  0  0  0
  138.6310   72.1890  221.5430 O   0  0  0  0  0  0  0  0  0  0  0  0
  139.6300   71.3030  223.5090 C   0  0  0  0  0  0  0  0  0  0  0  0
  138.9780   70.0580  223.4790 C   0  0  0  0  0  0  0  0  0  0  0  0
  139.0240   69.2250  224.6000 C   0  0  0  0  0  0  0  0  0  0  0  0
  139.7200   69.6340  225.7440 C   0  0  0  0  0  0  0  0  0  0  0  0
  139.8030   68.8150  226.8780 C   0  0  0  0  0  0  0  0  0  0  0  0
  140.5060   69.2540  228.0070 C   0  0  0  0  0  0  0  0  0  0  0  0
  140.5900   68.4590  229.1000 F   0  0  0  0  0  0  0  0  0  0  0  0
  141.1240   70.5100  228.0090 C   0  0  0  0  0  0  0  0  0  0  0  0
  141.0490   71.3320  226.8790 C   0  0  0  0  0  0  0  0  0  0  0  0
  140.3520   70.8980  225.7450 C   0  0  0  0  0  0  0  0  0  0  0  0
  140.2910   71.6850  224.6400 N   0  0  0  0  0  0  0  0  0  0  0  0
  140.9090   79.0600  222.8770 C   0  0  0  0  0  0  0  0  0  0  0  0
  140.5050   80.3040  222.3450 C   0  0  0  0  0  0  0  0  0  0  0  0
  141.1330   81.4870  222.7510 C   0  0  0  0  0  0  0  0  0  0  0  0
  142.1850   81.4450  223.6700 C   0  0  0  0  0  0  0  0  0  0  0  0
  142.6260   80.2170  224.1680 C   0  0  0  0  0  0  0  0  0  0  0  0
  141.9980   79.0320  223.7700 C   0  0  0  0  0  0  0  0  0  0  0  0
  138.1165   77.9899  222.5203 H   0  0  0  0  0  0  0  0  0  0  0  0
  138.9258   78.8014  221.1371 H   0  0  0  0  0  0  0  0  0  0  0  0
  138.7219   77.0167  221.1371 H   0  0  0  0  0  0  0  0  0  0  0  0
  140.0605   77.1900  223.3961 H   0  0  0  0  0  0  0  0  0  0  0  0
  143.6407   76.8436  220.1776 H   0  0  0  0  0  0  0  0  0  0  0  0
  141.9810   77.8474  217.8854 H   0  0  0  0  0  0  0  0  0  0  0  0
  143.7397   77.9173  218.0729 H   0  0  0  0  0  0  0  0  0  0  0  0
  142.4675   76.1642  216.3124 H   0  0  0  0  0  0  0  0  0  0  0  0
  144.8150   75.5190  217.7760 H   0  0  0  0  0  0  0  0  0  0  0  0
  141.3680   74.6441  217.7205 H   0  0  0  0  0  0  0  0  0  0  0  0
  142.9739   73.9385  217.9522 H   0  0  0  0  0  0  0  0  0  0  0  0
  140.1556   74.9147  221.2495 H   0  0  0  0  0  0  0  0  0  0  0  0
  140.2099   73.5284  220.0914 H   0  0  0  0  0  0  0  0  0  0  0  0
  141.5550   73.0500  222.7070 H   0  0  0  0  0  0  0  0  0  0  0  0
  138.4340   69.7409  222.5771 H   0  0  0  0  0  0  0  0  0  0  0  0
  138.5146   68.2502  224.5837 H   0  0  0  0  0  0  0  0  0  0  0  0
  139.3165   67.8284  226.8815 H   0  0  0  0  0  0  0  0  0  0  0  0
  141.6698   70.8516  228.9008 H   0  0  0  0  0  0  0  0  0  0  0  0
  141.5370   72.3178  226.8817 H   0  0  0  0  0  0  0  0  0  0  0  0
  139.6910   80.3436  221.6062 H   0  0  0  0  0  0  0  0  0  0  0  0
  140.7975   82.4529  222.3455 H   0  0  0  0  0  0  0  0  0  0  0  0
  142.6650   82.3779  224.0007 H   0  0  0  0  0  0  0  0  0  0  0  0
  143.4685   80.1815  224.8743 H   0  0  0  0  0  0  0  0  0  0  0  0
  142.3584   78.0681  224.1586 H   0  0  0  0  0  0  0  0  0  0  0  0
  1  2  1  0
  2  3  1  0
  3  4  1  0
  4  5  2  0
  4  6  1  0
  6  7  1  0
  7  8  1  0
  8  9  1  0
  8 10  1  0
 10 11  1  0
 11 12  1  0
 12 13  2  0
 12 14  1  0
 14 15  1  0
 15 16  1  0
 16 17  2  0
 16 18  1  0
 18 19  2  0
 19 20  1  0
 20 21  2  0
 21 22  1  0
 22 23  2  0
 23 24  1  0
 23 25  1  0
 25 26  2  0
 26 27  1  0
 27 28  2  0
  2 29  1  0
 29 30  2  0
 30 31  1  0
 31 32  2  0
 32 33  1  0
 33 34  2  0
 11  6  1  0
 28 18  1  0
 34 29  1  0
 27 21  1  0
  1 35  1  0
  1 36  1  0
  1 37  1  0
  2 38  1  1
  6 39  1  1
  7 40  1  0
  7 41  1  0
  8 42  1  6
  9 43  1  0
 10 44  1  0
 10 45  1  0
 14 46  1  0
 14 47  1  0
 15 48  1  0
 19 49  1  0
 20 50  1  0
 22 51  1  0
 25 52  1  0
 26 53  1  0
 30 54  1  0
 31 55  1  0
 32 56  1  0
 33 57  1  0
 34 58  1  0
M  CHG  1   3  -1
M  END
>  <UniqueID>  (35) 
85

>  <SMILES>  (35) 
C[C@@H]([N-]C(=O)[C@@H]1C[C@@H](O)CN1C(=O)CNC(=O)c1ccc2cc(F)ccc2n1)c1ccccc1

>  <Energy>  (35) 
63.06073797193395

>  <Genealogy>  (35) 
C[C@@H]([N-]C(=O)[C@@H]1C[C@@H](O)CN1C(=O)CNC(=O)c1ccc2cc(F)ccc2n1)c1ccccc1 (protonated)
C[C@@H]([N-]C(=O)[C@@H]1C[C@@H](O)CN1C(=O)CNC(=O)c1ccc2cc(F)ccc2n1)c1ccccc1 (3D coordinates assigned)
C[C@@H]([N-]C(=O)[C@@H]1C[C@@H](O)CN1C(=O)CNC(=O)c1ccc2cc(F)ccc2n1)c1ccccc1 (nonaromatic ring conformer: 63.06073797193395 kcal/mol)

>  <smiles>  (35) 
C[C@@H](NC(=O)[C@@H]1C[C@@H](O)CN1C(=O)CNC(=O)c1ccc2cc(F)ccc2n1)c1ccccc1

>  <score_type>  (35) 
oracle

>  <origin>  (35) 
autodockgpu

>  <m_score__min__energy>  (35) 
-9.0600000000000005

>  <m_primary>  (35) 
energy

>  <meeko>  (35) 
{"free_energy": -7.79, "intermolecular_energy": -10.48, "internal_energy": -2.33, "cluster_size": 11, "cluster_id": 1, "rank_in_cluster": 8}

>  <energy>  (35) 
-7.56

>  <cluster_rmsd>  (35) 
1.7

>  <rmsd>  (35) 
270.37

>  <cluster>  (35) 
3

$$$$
DWYNEBQVPRLYJI-JJGLYHRGNA-M
     RDKit          3D

 58 61  0  0  0  0  0  0  0  0999 V2000
  137.9420   79.5270  222.0040 C   0  0  0  0  0  0  0  0  0  0  0  0
  139.1010   78.6130  222.4300 C   0  0  1  0  0  0  0  0  0  0  0  0
  139.2380   77.5010  221.4920 N   0  0  0  0  0  0  0  0  0  0  0  0
  139.8320   76.2410  221.8370 C   0  0  0  0  0  0  0  0  0  0  0  0
  139.4040   75.5820  222.8210 O   0  0  0  0  0  0  0  0  0  0  0  0
  141.0250   75.7400  221.0720 C   0  0  2  0  0  0  0  0  0  0  0  0
  141.8680   76.9070  220.5480 C   0  0  0  0  0  0  0  0  0  0  0  0
  142.2530   76.5340  219.1110 C   0  0  1  0  0  0  0  0  0  0  0  0
  143.5640   76.0170  219.0530 O   0  0  0  0  0  0  0  0  0  0  0  0
  141.2280   75.4870  218.6650 C   0  0  0  0  0  0  0  0  0  0  0  0
  140.6260   74.9810  219.8890 N   0  0  0  0  0  0  0  0  0  0  0  0
  139.7960   73.7990  219.8890 C   0  0  0  0  0  0  0  0  0  0  0  0
  140.0570   72.8620  219.0830 O   0  0  0  0  0  0  0  0  0  0  0  0
  138.6070   73.6500  220.8000 C   0  0  0  0  0  0  0  0  0  0  0  0
  138.9690   72.9190  222.0170 N   0  0  0  0  0  0  0  0  0  0  0  0
  138.9190   71.4860  222.0680 C   0  0  0  0  0  0  0  0  0  0  0  0
  138.6280   70.8340  221.0260 O   0  0  0  0  0  0  0  0  0  0  0  0
  139.2140   70.7690  223.3280 C   0  0  0  0  0  0  0  0  0  0  0  0
  138.9230   69.4010  223.4670 C   0  0  0  0  0  0  0  0  0  0  0  0
  139.2340   68.7450  224.6600 C   0  0  0  0  0  0  0  0  0  0  0  0
  139.8350   69.4520  225.7080 C   0  0  0  0  0  0  0  0  0  0  0  0
  140.1790   68.8200  226.9100 C   0  0  0  0  0  0  0  0  0  0  0  0
  140.7780   69.5560  227.9400 C   0  0  0  0  0  0  0  0  0  0  0  0
  141.1150   68.9430  229.1000 F   0  0  0  0  0  0  0  0  0  0  0  0
  141.0330   70.9230  227.7740 C   0  0  0  0  0  0  0  0  0  0  0  0
  140.6960   71.5600  226.5760 C   0  0  0  0  0  0  0  0  0  0  0  0
  140.1010   70.8300  225.5400 C   0  0  0  0  0  0  0  0  0  0  0  0
  139.7890   71.4400  224.3680 N   0  0  0  0  0  0  0  0  0  0  0  0
  140.4380   79.3240  222.5530 C   0  0  0  0  0  0  0  0  0  0  0  0
  140.9790   80.1200  221.5200 C   0  0  0  0  0  0  0  0  0  0  0  0
  142.2180   80.7490  221.6830 C   0  0  0  0  0  0  0  0  0  0  0  0
  142.9440   80.5750  222.8640 C   0  0  0  0  0  0  0  0  0  0  0  0
  142.4430   79.7520  223.8750 C   0  0  0  0  0  0  0  0  0  0  0  0
  141.2020   79.1260  223.7200 C   0  0  0  0  0  0  0  0  0  0  0  0
  137.4396   79.9232  222.8987 H   0  0  0  0  0  0  0  0  0  0  0  0
  138.3344   80.3613  221.4041 H   0  0  0  0  0  0  0  0  0  0  0  0
  137.2221   78.9509  221.4041 H   0  0  0  0  0  0  0  0  0  0  0  0
  138.8380   78.2511  223.4349 H   0  0  0  0  0  0  0  0  0  0  0  0
  141.5900   75.1104  221.7751 H   0  0  0  0  0  0  0  0  0  0  0  0
  141.2816   77.8376  220.5579 H   0  0  0  0  0  0  0  0  0  0  0  0
  142.7567   77.0767  221.1736 H   0  0  0  0  0  0  0  0  0  0  0  0
  142.2430   77.4143  218.4514 H   0  0  0  0  0  0  0  0  0  0  0  0
  144.0460   76.4850  218.3210 H   0  0  0  0  0  0  0  0  0  0  0  0
  140.4629   75.9481  218.0231 H   0  0  0  0  0  0  0  0  0  0  0  0
  141.6971   74.6823  218.0798 H   0  0  0  0  0  0  0  0  0  0  0  0
  138.2376   74.6486  221.0762 H   0  0  0  0  0  0  0  0  0  0  0  0
  137.8266   73.0847  220.2696 H   0  0  0  0  0  0  0  0  0  0  0  0
  139.2350   73.4510  222.8760 H   0  0  0  0  0  0  0  0  0  0  0  0
  138.4524   68.8495  222.6397 H   0  0  0  0  0  0  0  0  0  0  0  0
  139.0071   67.6749  224.7759 H   0  0  0  0  0  0  0  0  0  0  0  0
  139.9788   67.7468  227.0447 H   0  0  0  0  0  0  0  0  0  0  0  0
  141.4996   71.4969  228.5882 H   0  0  0  0  0  0  0  0  0  0  0  0
  140.8981   72.6336  226.4475 H   0  0  0  0  0  0  0  0  0  0  0  0
  140.4221   80.2466  220.5799 H   0  0  0  0  0  0  0  0  0  0  0  0
  142.6217   81.3822  220.8792 H   0  0  0  0  0  0  0  0  0  0  0  0
  143.9091   81.0857  222.9974 H   0  0  0  0  0  0  0  0  0  0  0  0
  143.0255   79.5958  224.7949 H   0  0  0  0  0  0  0  0  0  0  0  0
  140.8186   78.4724  224.5174 H   0  0  0  0  0  0  0  0  0  0  0  0
  1  2  1  0
  2  3  1  0
  3  4  1  0
  4  5  2  0
  4  6  1  0
  6  7  1  0
  7  8  1  0
  8  9  1  0
  8 10  1  0
 10 11  1  0
 11 12  1  0
 12 13  2  0
 12 14  1  0
 14 15  1  0
 15 16  1  0
 16 17  2  0
 16 18  1  0
 18 19  2  0
 19 20  1  0
 20 21  2  0
 21 22  1  0
 22 23  2  0
 23 24  1  0
 23 25  1  0
 25 26  2  0
 26 27  1  0
 27 28  2  0
  2 29  1  0
 29 30  2  0
 30 31  1  0
 31 32  2  0
 32 33  1  0
 33 34  2  0
 11  6  1  0
 28 18  1  0
 34 29  1  0
 27 21  1  0
  1 35  1  0
  1 36  1  0
  1 37  1  0
  2 38  1  1
  6 39  1  1
  7 40  1  0
  7 41  1  0
  8 42  1  6
  9 43  1  0
 10 44  1  0
 10 45  1  0
 14 46  1  0
 14 47  1  0
 15 48  1  0
 19 49  1  0
 20 50  1  0
 22 51  1  0
 25 52  1  0
 26 53  1  0
 30 54  1  0
 31 55  1  0
 32 56  1  0
 33 57  1  0
 34 58  1  0
M  CHG  1   3  -1
M  END
>  <UniqueID>  (36) 
85

>  <SMILES>  (36) 
C[C@@H]([N-]C(=O)[C@@H]1C[C@@H](O)CN1C(=O)CNC(=O)c1ccc2cc(F)ccc2n1)c1ccccc1

>  <Energy>  (36) 
63.06073797193395

>  <Genealogy>  (36) 
C[C@@H]([N-]C(=O)[C@@H]1C[C@@H](O)CN1C(=O)CNC(=O)c1ccc2cc(F)ccc2n1)c1ccccc1 (protonated)
C[C@@H]([N-]C(=O)[C@@H]1C[C@@H](O)CN1C(=O)CNC(=O)c1ccc2cc(F)ccc2n1)c1ccccc1 (3D coordinates assigned)
C[C@@H]([N-]C(=O)[C@@H]1C[C@@H](O)CN1C(=O)CNC(=O)c1ccc2cc(F)ccc2n1)c1ccccc1 (nonaromatic ring conformer: 63.06073797193395 kcal/mol)

>  <smiles>  (36) 
C[C@@H](NC(=O)[C@@H]1C[C@@H](O)CN1C(=O)CNC(=O)c1ccc2cc(F)ccc2n1)c1ccccc1

>  <score_type>  (36) 
oracle

>  <origin>  (36) 
autodockgpu

>  <m_score__min__energy>  (36) 
-9.0600000000000005

>  <m_primary>  (36) 
energy

>  <meeko>  (36) 
{"free_energy": -7.62, "intermolecular_energy": -10.3, "internal_energy": -2.73, "cluster_size": 11, "cluster_id": 1, "rank_in_cluster": 9}

>  <energy>  (36) 
-7.5

>  <cluster_rmsd>  (36) 
1.89

>  <rmsd>  (36) 
270.46

>  <cluster>  (36) 
3

$$$$
DWYNEBQVPRLYJI-JJGLYHRGNA-M
     RDKit          3D

 58 61  0  0  0  0  0  0  0  0999 V2000
  142.1270   80.0300  219.0270 C   0  0  0  0  0  0  0  0  0  0  0  0
  140.9940   79.7780  220.0330 C   0  0  1  0  0  0  0  0  0  0  0  0
  140.3660   78.4850  219.7740 N   0  0  0  0  0  0  0  0  0  0  0  0
  141.0640   77.3600  219.2230 C   0  0  0  0  0  0  0  0  0  0  0  0
  140.7500   76.9070  218.0910 O   0  0  0  0  0  0  0  0  0  0  0  0
  142.1240   76.6650  220.0320 C   0  0  2  0  0  0  0  0  0  0  0  0
  143.3360   76.3180  219.1610 C   0  0  0  0  0  0  0  0  0  0  0  0
  143.7440   74.8940  219.5620 C   0  0  1  0  0  0  0  0  0  0  0  0
  144.8330   74.9100  220.4580 O   0  0  0  0  0  0  0  0  0  0  0  0
  142.5050   74.2740  220.2130 C   0  0  0  0  0  0  0  0  0  0  0  0
  141.6450   75.3930  220.5670 N   0  0  0  0  0  0  0  0  0  0  0  0
  140.5000   75.2230  221.4300 C   0  0  0  0  0  0  0  0  0  0  0  0
  140.3710   75.9730  222.4380 O   0  0  0  0  0  0  0  0  0  0  0  0
  139.4610   74.1610  221.1890 C   0  0  0  0  0  0  0  0  0  0  0  0
  139.3510   73.2660  222.3430 N   0  0  0  0  0  0  0  0  0  0  0  0
  140.3410   72.2600  222.6020 C   0  0  0  0  0  0  0  0  0  0  0  0
  141.3660   72.1880  221.8660 O   0  0  0  0  0  0  0  0  0  0  0  0
  140.1750   71.3150  223.7280 C   0  0  0  0  0  0  0  0  0  0  0  0
  139.5090   70.0900  223.5520 C   0  0  0  0  0  0  0  0  0  0  0  0
  139.3870   69.2080  224.6290 C   0  0  0  0  0  0  0  0  0  0  0  0
  139.9300   69.5480  225.8730 C   0  0  0  0  0  0  0  0  0  0  0  0
  139.8440   68.6770  226.9680 C   0  0  0  0  0  0  0  0  0  0  0  0
  140.3950   69.0480  228.2000 C   0  0  0  0  0  0  0  0  0  0  0  0
  140.3160   68.2030  229.2560 F   0  0  0  0  0  0  0  0  0  0  0  0
  141.0320   70.2870  228.3440 C   0  0  0  0  0  0  0  0  0  0  0  0
  141.1250   71.1590  227.2560 C   0  0  0  0  0  0  0  0  0  0  0  0
  140.5800   70.7940  226.0190 C   0  0  0  0  0  0  0  0  0  0  0  0
  140.6840   71.6310  224.9540 N   0  0  0  0  0  0  0  0  0  0  0  0
  141.4330   79.8340  221.4870 C   0  0  0  0  0  0  0  0  0  0  0  0
  142.2000   80.8960  222.0140 C   0  0  0  0  0  0  0  0  0  0  0  0
  142.5830   80.8950  223.3600 C   0  0  0  0  0  0  0  0  0  0  0  0
  142.2290   79.8290  224.1900 C   0  0  0  0  0  0  0  0  0  0  0  0
  141.5110   78.7500  223.6710 C   0  0  0  0  0  0  0  0  0  0  0  0
  141.1200   78.7480  222.3280 C   0  0  0  0  0  0  0  0  0  0  0  0
  143.0605   80.2376  219.5705 H   0  0  0  0  0  0  0  0  0  0  0  0
  142.2609   79.1397  218.3950 H   0  0  0  0  0  0  0  0  0  0  0  0
  141.8709   80.8931  218.3950 H   0  0  0  0  0  0  0  0  0  0  0  0
  140.2779   80.5995  219.8837 H   0  0  0  0  0  0  0  0  0  0  0  0
  142.3888   77.3602  220.8423 H   0  0  0  0  0  0  0  0  0  0  0  0
  143.0649   76.3532  218.0955 H   0  0  0  0  0  0  0  0  0  0  0  0
  144.1593   77.0323  219.3092 H   0  0  0  0  0  0  0  0  0  0  0  0
  144.0747   74.3110  218.6898 H   0  0  0  0  0  0  0  0  0  0  0  0
  145.6690   74.8660  219.9260 H   0  0  0  0  0  0  0  0  0  0  0  0
  141.9932   73.6060  219.5046 H   0  0  0  0  0  0  0  0  0  0  0  0
  142.7683   73.6697  221.0936 H   0  0  0  0  0  0  0  0  0  0  0  0
  138.4879   74.6426  221.0127 H   0  0  0  0  0  0  0  0  0  0  0  0
  139.7609   73.5685  220.3121 H   0  0  0  0  0  0  0  0  0  0  0  0
  138.5190   73.3360  222.9710 H   0  0  0  0  0  0  0  0  0  0  0  0
  139.0859   69.8268  222.5713 H   0  0  0  0  0  0  0  0  0  0  0  0
  138.8652   68.2484  224.4991 H   0  0  0  0  0  0  0  0  0  0  0  0
  139.3441   67.7032  226.8592 H   0  0  0  0  0  0  0  0  0  0  0  0
  141.4600   70.5743  229.3157 H   0  0  0  0  0  0  0  0  0  0  0  0
  141.6260   72.1315  227.3713 H   0  0  0  0  0  0  0  0  0  0  0  0
  142.4986   81.7300  221.3619 H   0  0  0  0  0  0  0  0  0  0  0  0
  143.1645   81.7361  223.7654 H   0  0  0  0  0  0  0  0  0  0  0  0
  142.5157   79.8396  225.2519 H   0  0  0  0  0  0  0  0  0  0  0  0
  141.2523   77.8999  224.3194 H   0  0  0  0  0  0  0  0  0  0  0  0
  140.5625   77.8899  221.9245 H   0  0  0  0  0  0  0  0  0  0  0  0
  1  2  1  0
  2  3  1  0
  3  4  1  0
  4  5  2  0
  4  6  1  0
  6  7  1  0
  7  8  1  0
  8  9  1  0
  8 10  1  0
 10 11  1  0
 11 12  1  0
 12 13  2  0
 12 14  1  0
 14 15  1  0
 15 16  1  0
 16 17  2  0
 16 18  1  0
 18 19  2  0
 19 20  1  0
 20 21  2  0
 21 22  1  0
 22 23  2  0
 23 24  1  0
 23 25  1  0
 25 26  2  0
 26 27  1  0
 27 28  2  0
  2 29  1  0
 29 30  2  0
 30 31  1  0
 31 32  2  0
 32 33  1  0
 33 34  2  0
 11  6  1  0
 28 18  1  0
 34 29  1  0
 27 21  1  0
  1 35  1  0
  1 36  1  0
  1 37  1  0
  2 38  1  1
  6 39  1  1
  7 40  1  0
  7 41  1  0
  8 42  1  6
  9 43  1  0
 10 44  1  0
 10 45  1  0
 14 46  1  0
 14 47  1  0
 15 48  1  0
 19 49  1  0
 20 50  1  0
 22 51  1  0
 25 52  1  0
 26 53  1  0
 30 54  1  0
 31 55  1  0
 32 56  1  0
 33 57  1  0
 34 58  1  0
M  CHG  1   3  -1
M  END
>  <UniqueID>  (37) 
85

>  <SMILES>  (37) 
C[C@@H]([N-]C(=O)[C@@H]1C[C@@H](O)CN1C(=O)CNC(=O)c1ccc2cc(F)ccc2n1)c1ccccc1

>  <Energy>  (37) 
63.06073797193395

>  <Genealogy>  (37) 
C[C@@H]([N-]C(=O)[C@@H]1C[C@@H](O)CN1C(=O)CNC(=O)c1ccc2cc(F)ccc2n1)c1ccccc1 (protonated)
C[C@@H]([N-]C(=O)[C@@H]1C[C@@H](O)CN1C(=O)CNC(=O)c1ccc2cc(F)ccc2n1)c1ccccc1 (3D coordinates assigned)
C[C@@H]([N-]C(=O)[C@@H]1C[C@@H](O)CN1C(=O)CNC(=O)c1ccc2cc(F)ccc2n1)c1ccccc1 (nonaromatic ring conformer: 63.06073797193395 kcal/mol)

>  <smiles>  (37) 
C[C@@H](NC(=O)[C@@H]1C[C@@H](O)CN1C(=O)CNC(=O)c1ccc2cc(F)ccc2n1)c1ccccc1

>  <score_type>  (37) 
oracle

>  <origin>  (37) 
autodockgpu

>  <m_score__min__energy>  (37) 
-9.0600000000000005

>  <m_primary>  (37) 
energy

>  <meeko>  (37) 
{"free_energy": -9.06, "intermolecular_energy": -11.75, "internal_energy": -1.92, "cluster_size": 11, "cluster_id": 1, "rank_in_cluster": 1}

>  <energy>  (37) 
-7.61

>  <cluster_rmsd>  (37) 
0.0

>  <rmsd>  (37) 
270.27

>  <cluster>  (37) 
4

$$$$
DWYNEBQVPRLYJI-JJGLYHRGNA-M
     RDKit          3D

 58 61  0  0  0  0  0  0  0  0999 V2000
  138.3850   81.4360  221.4090 C   0  0  0  0  0  0  0  0  0  0  0  0
  139.0800   80.0690  221.5110 C   0  0  1  0  0  0  0  0  0  0  0  0
  139.4390   79.5840  220.1810 N   0  0  0  0  0  0  0  0  0  0  0  0
  139.7250   78.2090  219.8880 C   0  0  0  0  0  0  0  0  0  0  0  0
  138.8520   77.4770  219.3510 O   0  0  0  0  0  0  0  0  0  0  0  0
  141.0430   77.6130  220.2960 C   0  0  2  0  0  0  0  0  0  0  0  0
  142.0790   77.7630  219.1770 C   0  0  0  0  0  0  0  0  0  0  0  0
  142.8180   76.4200  219.1090 C   0  0  1  0  0  0  0  0  0  0  0  0
  144.0530   76.4830  219.7860 O   0  0  0  0  0  0  0  0  0  0  0  0
  141.8830   75.3980  219.7640 C   0  0  0  0  0  0  0  0  0  0  0  0
  140.9320   76.1770  220.5410 N   0  0  0  0  0  0  0  0  0  0  0  0
  140.0520   75.5550  221.5010 C   0  0  0  0  0  0  0  0  0  0  0  0
  140.0230   75.9940  222.6860 O   0  0  0  0  0  0  0  0  0  0  0  0
  139.1820   74.3770  221.1530 C   0  0  0  0  0  0  0  0  0  0  0  0
  139.1040   73.4360  222.2720 N   0  0  0  0  0  0  0  0  0  0  0  0
  140.2200   72.6080  222.6290 C   0  0  0  0  0  0  0  0  0  0  0  0
  141.3170   72.7410  222.0160 O   0  0  0  0  0  0  0  0  0  0  0  0
  140.0980   71.6090  223.7130 C   0  0  0  0  0  0  0  0  0  0  0  0
  139.4780   70.3680  223.4870 C   0  0  0  0  0  0  0  0  0  0  0  0
  139.3970   69.4360  224.5240 C   0  0  0  0  0  0  0  0  0  0  0  0
  139.9360   69.7410  225.7800 C   0  0  0  0  0  0  0  0  0  0  0  0
  139.8900   68.8210  226.8360 C   0  0  0  0  0  0  0  0  0  0  0  0
  140.4360   69.1580  228.0800 C   0  0  0  0  0  0  0  0  0  0  0  0
  140.3960   68.2660  229.0980 F   0  0  0  0  0  0  0  0  0  0  0  0
  141.0260   70.4130  228.2750 C   0  0  0  0  0  0  0  0  0  0  0  0
  141.0790   71.3350  227.2250 C   0  0  0  0  0  0  0  0  0  0  0  0
  140.5390   71.0040  225.9770 C   0  0  0  0  0  0  0  0  0  0  0  0
  140.6040   71.8900  224.9490 N   0  0  0  0  0  0  0  0  0  0  0  0
  140.3200   80.0690  222.3900 C   0  0  0  0  0  0  0  0  0  0  0  0
  140.6530   78.9930  223.2420 C   0  0  0  0  0  0  0  0  0  0  0  0
  141.8040   79.0460  224.0360 C   0  0  0  0  0  0  0  0  0  0  0  0
  142.6230   80.1780  224.0110 C   0  0  0  0  0  0  0  0  0  0  0  0
  142.2800   81.2680  223.2080 C   0  0  0  0  0  0  0  0  0  0  0  0
  141.1340   81.2180  222.4080 C   0  0  0  0  0  0  0  0  0  0  0  0
  138.1880   81.8235  222.4195 H   0  0  0  0  0  0  0  0  0  0  0  0
  139.0354   82.1385  220.8673 H   0  0  0  0  0  0  0  0  0  0  0  0
  137.4342   81.3244  220.8673 H   0  0  0  0  0  0  0  0  0  0  0  0
  138.3490   79.4005  221.9893 H   0  0  0  0  0  0  0  0  0  0  0  0
  141.3459   78.1474  221.2085 H   0  0  0  0  0  0  0  0  0  0  0  0
  141.5807   77.9750  218.2195 H   0  0  0  0  0  0  0  0  0  0  0  0
  142.7700   78.5959  219.3739 H   0  0  0  0  0  0  0  0  0  0  0  0
  143.0534   76.1441  218.0705 H   0  0  0  0  0  0  0  0  0  0  0  0
  144.0110   77.2350  220.4320 H   0  0  0  0  0  0  0  0  0  0  0  0
  141.3599   74.8092  218.9961 H   0  0  0  0  0  0  0  0  0  0  0  0
  142.4365   74.6865  220.3944 H   0  0  0  0  0  0  0  0  0  0  0  0
  138.1701   74.7352  220.9126 H   0  0  0  0  0  0  0  0  0  0  0  0
  139.6219   73.8587  220.2882 H   0  0  0  0  0  0  0  0  0  0  0  0
  138.2070   73.3380  222.8000 H   0  0  0  0  0  0  0  0  0  0  0  0
  139.0585   70.1319  222.4979 H   0  0  0  0  0  0  0  0  0  0  0  0
  138.9107   68.4640  224.3545 H   0  0  0  0  0  0  0  0  0  0  0  0
  139.4253   67.8351  226.6875 H   0  0  0  0  0  0  0  0  0  0  0  0
  141.4487   70.6741  229.2564 H   0  0  0  0  0  0  0  0  0  0  0  0
  141.5447   72.3195  227.3798 H   0  0  0  0  0  0  0  0  0  0  0  0
  140.0027   78.1067  223.2817 H   0  0  0  0  0  0  0  0  0  0  0  0
  142.0648   78.1944  224.6815 H   0  0  0  0  0  0  0  0  0  0  0  0
  143.5365   80.2105  224.6229 H   0  0  0  0  0  0  0  0  0  0  0  0
  142.9127   82.1678  223.2048 H   0  0  0  0  0  0  0  0  0  0  0  0
  140.8657   82.0850  221.7865 H   0  0  0  0  0  0  0  0  0  0  0  0
  1  2  1  0
  2  3  1  0
  3  4  1  0
  4  5  2  0
  4  6  1  0
  6  7  1  0
  7  8  1  0
  8  9  1  0
  8 10  1  0
 10 11  1  0
 11 12  1  0
 12 13  2  0
 12 14  1  0
 14 15  1  0
 15 16  1  0
 16 17  2  0
 16 18  1  0
 18 19  2  0
 19 20  1  0
 20 21  2  0
 21 22  1  0
 22 23  2  0
 23 24  1  0
 23 25  1  0
 25 26  2  0
 26 27  1  0
 27 28  2  0
  2 29  1  0
 29 30  2  0
 30 31  1  0
 31 32  2  0
 32 33  1  0
 33 34  2  0
 11  6  1  0
 28 18  1  0
 34 29  1  0
 27 21  1  0
  1 35  1  0
  1 36  1  0
  1 37  1  0
  2 38  1  1
  6 39  1  1
  7 40  1  0
  7 41  1  0
  8 42  1  6
  9 43  1  0
 10 44  1  0
 10 45  1  0
 14 46  1  0
 14 47  1  0
 15 48  1  0
 19 49  1  0
 20 50  1  0
 22 51  1  0
 25 52  1  0
 26 53  1  0
 30 54  1  0
 31 55  1  0
 32 56  1  0
 33 57  1  0
 34 58  1  0
M  CHG  1   3  -1
M  END
>  <UniqueID>  (38) 
85

>  <SMILES>  (38) 
C[C@@H]([N-]C(=O)[C@@H]1C[C@@H](O)CN1C(=O)CNC(=O)c1ccc2cc(F)ccc2n1)c1ccccc1

>  <Energy>  (38) 
63.06073797193395

>  <Genealogy>  (38) 
C[C@@H]([N-]C(=O)[C@@H]1C[C@@H](O)CN1C(=O)CNC(=O)c1ccc2cc(F)ccc2n1)c1ccccc1 (protonated)
C[C@@H]([N-]C(=O)[C@@H]1C[C@@H](O)CN1C(=O)CNC(=O)c1ccc2cc(F)ccc2n1)c1ccccc1 (3D coordinates assigned)
C[C@@H]([N-]C(=O)[C@@H]1C[C@@H](O)CN1C(=O)CNC(=O)c1ccc2cc(F)ccc2n1)c1ccccc1 (nonaromatic ring conformer: 63.06073797193395 kcal/mol)

>  <smiles>  (38) 
C[C@@H](NC(=O)[C@@H]1C[C@@H](O)CN1C(=O)CNC(=O)c1ccc2cc(F)ccc2n1)c1ccccc1

>  <score_type>  (38) 
oracle

>  <origin>  (38) 
autodockgpu

>  <m_score__min__energy>  (38) 
-9.0600000000000005

>  <m_primary>  (38) 
energy

>  <meeko>  (38) 
{"free_energy": -8.79, "intermolecular_energy": -11.47, "internal_energy": -2.03, "cluster_size": 11, "cluster_id": 1, "rank_in_cluster": 4}

>  <energy>  (38) 
-7.12

>  <cluster_rmsd>  (38) 
0.0

>  <rmsd>  (38) 
270.08

>  <cluster>  (38) 
5

$$$$
DWYNEBQVPRLYJI-JJGLYHRGNA-M
     RDKit          3D

 58 61  0  0  0  0  0  0  0  0999 V2000
  137.9200   80.9930  224.0600 C   0  0  0  0  0  0  0  0  0  0  0  0
  138.7370   79.7090  223.8460 C   0  0  1  0  0  0  0  0  0  0  0  0
  138.0840   78.8540  222.8580 N   0  0  0  0  0  0  0  0  0  0  0  0
  138.5940   77.5760  222.4540 C   0  0  0  0  0  0  0  0  0  0  0  0
  138.2410   76.5290  223.0580 O   0  0  0  0  0  0  0  0  0  0  0  0
  139.6180   77.4890  221.3580 C   0  0  2  0  0  0  0  0  0  0  0  0
  139.2620   78.4300  220.2020 C   0  0  0  0  0  0  0  0  0  0  0  0
  139.5250   77.6330  218.9180 C   0  0  1  0  0  0  0  0  0  0  0  0
  140.7700   77.9750  218.3510 O   0  0  0  0  0  0  0  0  0  0  0  0
  139.4940   76.1590  219.3300 C   0  0  0  0  0  0  0  0  0  0  0  0
  139.6710   76.1510  220.7740 N   0  0  0  0  0  0  0  0  0  0  0  0
  139.9500   74.9310  221.4940 C   0  0  0  0  0  0  0  0  0  0  0  0
  141.0810   74.7810  222.0380 O   0  0  0  0  0  0  0  0  0  0  0  0
  138.9510   73.8100  221.6000 C   0  0  0  0  0  0  0  0  0  0  0  0
  139.3230   72.8780  222.6670 N   0  0  0  0  0  0  0  0  0  0  0  0
  138.8250   71.5320  222.6870 C   0  0  0  0  0  0  0  0  0  0  0  0
  138.1100   71.1170  221.7310 O   0  0  0  0  0  0  0  0  0  0  0  0
  139.1500   70.6280  223.8110 C   0  0  0  0  0  0  0  0  0  0  0  0
  138.8500   69.2560  223.7460 C   0  0  0  0  0  0  0  0  0  0  0  0
  139.1890   68.4220  224.8150 C   0  0  0  0  0  0  0  0  0  0  0  0
  139.8260   68.9560  225.9410 C   0  0  0  0  0  0  0  0  0  0  0  0
  140.1980   68.1450  227.0210 C   0  0  0  0  0  0  0  0  0  0  0  0
  140.8330   68.7100  228.1330 C   0  0  0  0  0  0  0  0  0  0  0  0
  141.1970   67.9240  229.1740 F   0  0  0  0  0  0  0  0  0  0  0  0
  141.0950   70.0850  228.1730 C   0  0  0  0  0  0  0  0  0  0  0  0
  140.7300   70.9000  227.0970 C   0  0  0  0  0  0  0  0  0  0  0  0
  140.0990   70.3420  225.9790 C   0  0  0  0  0  0  0  0  0  0  0  0
  139.7590   71.1280  224.9250 N   0  0  0  0  0  0  0  0  0  0  0  0
  140.1740   79.9540  223.4160 C   0  0  0  0  0  0  0  0  0  0  0  0
  141.2460   79.1340  223.8320 C   0  0  0  0  0  0  0  0  0  0  0  0
  142.5530   79.4080  223.4120 C   0  0  0  0  0  0  0  0  0  0  0  0
  142.8120   80.5120  222.5950 C   0  0  0  0  0  0  0  0  0  0  0  0
  141.7670   81.3580  222.2160 C   0  0  0  0  0  0  0  0  0  0  0  0
  140.4580   81.0860  222.6280 C   0  0  0  0  0  0  0  0  0  0  0  0
  137.8026   81.1775  225.1380 H   0  0  0  0  0  0  0  0  0  0  0  0
  138.4441   81.8424  223.5976 H   0  0  0  0  0  0  0  0  0  0  0  0
  136.9286   80.8781  223.5976 H   0  0  0  0  0  0  0  0  0  0  0  0
  138.7767   79.2162  224.8286 H   0  0  0  0  0  0  0  0  0  0  0  0
  140.5786   77.7560  221.8228 H   0  0  0  0  0  0  0  0  0  0  0  0
  138.2038   78.7246  220.2599 H   0  0  0  0  0  0  0  0  0  0  0  0
  139.8579   79.3541  220.2341 H   0  0  0  0  0  0  0  0  0  0  0  0
  138.7699   77.8524  218.1488 H   0  0  0  0  0  0  0  0  0  0  0  0
  141.4780   77.4950  218.8550 H   0  0  0  0  0  0  0  0  0  0  0  0
  138.5293   75.7051  219.0592 H   0  0  0  0  0  0  0  0  0  0  0  0
  140.2776   75.5783  218.8213 H   0  0  0  0  0  0  0  0  0  0  0  0
  137.9588   74.2312  221.8194 H   0  0  0  0  0  0  0  0  0  0  0  0
  138.9336   73.2631  220.6457 H   0  0  0  0  0  0  0  0  0  0  0  0
  139.9340   73.2070  223.4480 H   0  0  0  0  0  0  0  0  0  0  0  0
  138.3509   68.8409  222.8580 H   0  0  0  0  0  0  0  0  0  0  0  0
  138.9556   67.3479  224.7715 H   0  0  0  0  0  0  0  0  0  0  0  0
  139.9912   67.0649  226.9951 H   0  0  0  0  0  0  0  0  0  0  0  0
  141.5887   70.5246  229.0522 H   0  0  0  0  0  0  0  0  0  0  0  0
  140.9387   71.9795  227.1291 H   0  0  0  0  0  0  0  0  0  0  0  0
  141.0527   78.2743  224.4904 H   0  0  0  0  0  0  0  0  0  0  0  0
  143.3786   78.7524  223.7259 H   0  0  0  0  0  0  0  0  0  0  0  0
  143.8370   80.7144  222.2510 H   0  0  0  0  0  0  0  0  0  0  0  0
  141.9738   82.2401  221.5922 H   0  0  0  0  0  0  0  0  0  0  0  0
  139.6426   81.7630  222.3335 H   0  0  0  0  0  0  0  0  0  0  0  0
  1  2  1  0
  2  3  1  0
  3  4  1  0
  4  5  2  0
  4  6  1  0
  6  7  1  0
  7  8  1  0
  8  9  1  0
  8 10  1  0
 10 11  1  0
 11 12  1  0
 12 13  2  0
 12 14  1  0
 14 15  1  0
 15 16  1  0
 16 17  2  0
 16 18  1  0
 18 19  2  0
 19 20  1  0
 20 21  2  0
 21 22  1  0
 22 23  2  0
 23 24  1  0
 23 25  1  0
 25 26  2  0
 26 27  1  0
 27 28  2  0
  2 29  1  0
 29 30  2  0
 30 31  1  0
 31 32  2  0
 32 33  1  0
 33 34  2  0
 11  6  1  0
 28 18  1  0
 34 29  1  0
 27 21  1  0
  1 35  1  0
  1 36  1  0
  1 37  1  0
  2 38  1  1
  6 39  1  1
  7 40  1  0
  7 41  1  0
  8 42  1  6
  9 43  1  0
 10 44  1  0
 10 45  1  0
 14 46  1  0
 14 47  1  0
 15 48  1  0
 19 49  1  0
 20 50  1  0
 22 51  1  0
 25 52  1  0
 26 53  1  0
 30 54  1  0
 31 55  1  0
 32 56  1  0
 33 57  1  0
 34 58  1  0
M  CHG  1   3  -1
M  END
>  <UniqueID>  (39) 
85

>  <SMILES>  (39) 
C[C@@H]([N-]C(=O)[C@@H]1C[C@@H](O)CN1C(=O)CNC(=O)c1ccc2cc(F)ccc2n1)c1ccccc1

>  <Energy>  (39) 
63.06073797193395

>  <Genealogy>  (39) 
C[C@@H]([N-]C(=O)[C@@H]1C[C@@H](O)CN1C(=O)CNC(=O)c1ccc2cc(F)ccc2n1)c1ccccc1 (protonated)
C[C@@H]([N-]C(=O)[C@@H]1C[C@@H](O)CN1C(=O)CNC(=O)c1ccc2cc(F)ccc2n1)c1ccccc1 (3D coordinates assigned)
C[C@@H]([N-]C(=O)[C@@H]1C[C@@H](O)CN1C(=O)CNC(=O)c1ccc2cc(F)ccc2n1)c1ccccc1 (nonaromatic ring conformer: 63.06073797193395 kcal/mol)

>  <smiles>  (39) 
C[C@@H](NC(=O)[C@@H]1C[C@@H](O)CN1C(=O)CNC(=O)c1ccc2cc(F)ccc2n1)c1ccccc1

>  <score_type>  (39) 
oracle

>  <origin>  (39) 
autodockgpu

>  <m_score__min__energy>  (39) 
-9.0600000000000005

>  <m_primary>  (39) 
energy

>  <meeko>  (39) 
{"free_energy": -7.92, "intermolecular_energy": -10.61, "internal_energy": -2.42, "cluster_size": 4, "cluster_id": 3, "rank_in_cluster": 1}

>  <energy>  (39) 
-7.09

>  <cluster_rmsd>  (39) 
0.0

>  <rmsd>  (39) 
270.23

>  <cluster>  (39) 
6

$$$$
DWYNEBQVPRLYJI-JJGLYHRGNA-M
     RDKit          3D

 58 61  0  0  0  0  0  0  0  0999 V2000
  137.9440   80.8460  223.2070 C   0  0  0  0  0  0  0  0  0  0  0  0
  138.8280   79.7350  223.7940 C   0  0  1  0  0  0  0  0  0  0  0  0
  138.4060   78.4320  223.2870 N   0  0  0  0  0  0  0  0  0  0  0  0
  138.3630   78.0990  221.8930 C   0  0  0  0  0  0  0  0  0  0  0  0
  139.0090   78.7810  221.0540 O   0  0  0  0  0  0  0  0  0  0  0  0
  137.4780   76.9810  221.4150 C   0  0  2  0  0  0  0  0  0  0  0  0
  136.0140   77.2510  221.7740 C   0  0  0  0  0  0  0  0  0  0  0  0
  135.4540   75.9160  222.2810 C   0  0  1  0  0  0  0  0  0  0  0  0
  134.7210   75.2560  221.2730 O   0  0  0  0  0  0  0  0  0  0  0  0
  136.6710   75.0900  222.7060 C   0  0  0  0  0  0  0  0  0  0  0  0
  137.8150   75.7140  222.0610 N   0  0  0  0  0  0  0  0  0  0  0  0
  139.1050   75.0680  222.0190 C   0  0  0  0  0  0  0  0  0  0  0  0
  140.1340   75.7230  222.3470 O   0  0  0  0  0  0  0  0  0  0  0  0
  139.2780   73.6410  221.5700 C   0  0  0  0  0  0  0  0  0  0  0  0
  139.5440   72.7630  222.7110 N   0  0  0  0  0  0  0  0  0  0  0  0
  139.2470   71.3600  222.6570 C   0  0  0  0  0  0  0  0  0  0  0  0
  138.8140   70.8550  221.5830 O   0  0  0  0  0  0  0  0  0  0  0  0
  139.4510   70.5030  223.8450 C   0  0  0  0  0  0  0  0  0  0  0  0
  139.0770   69.1470  223.8320 C   0  0  0  0  0  0  0  0  0  0  0  0
  139.3040   68.3560  224.9610 C   0  0  0  0  0  0  0  0  0  0  0  0
  139.9030   68.9160  226.0950 C   0  0  0  0  0  0  0  0  0  0  0  0
  140.1630   68.1450  227.2360 C   0  0  0  0  0  0  0  0  0  0  0  0
  140.7630   68.7350  228.3550 C   0  0  0  0  0  0  0  0  0  0  0  0
  141.0180   67.9880  229.4560 F   0  0  0  0  0  0  0  0  0  0  0  0
  141.1020   70.0940  228.3400 C   0  0  0  0  0  0  0  0  0  0  0  0
  140.8480   70.8680  227.2040 C   0  0  0  0  0  0  0  0  0  0  0  0
  140.2530   70.2840  226.0790 C   0  0  0  0  0  0  0  0  0  0  0  0
  140.0220   71.0290  224.9670 N   0  0  0  0  0  0  0  0  0  0  0  0
  140.3130   79.9160  223.5210 C   0  0  0  0  0  0  0  0  0  0  0  0
  141.2020   78.8280  223.3820 C   0  0  0  0  0  0  0  0  0  0  0  0
  142.5620   79.0510  223.1370 C   0  0  0  0  0  0  0  0  0  0  0  0
  143.0570   80.3550  223.0520 C   0  0  0  0  0  0  0  0  0  0  0  0
  142.1960   81.4390  223.2360 C   0  0  0  0  0  0  0  0  0  0  0  0
  140.8350   81.2230  223.4740 C   0  0  0  0  0  0  0  0  0  0  0  0
  137.4863   81.4212  224.0253 H   0  0  0  0  0  0  0  0  0  0  0  0
  138.5592   81.5153  222.5877 H   0  0  0  0  0  0  0  0  0  0  0  0
  137.1536   80.3969  222.5877 H   0  0  0  0  0  0  0  0  0  0  0  0
  138.6934   79.7950  224.8841 H   0  0  0  0  0  0  0  0  0  0  0  0
  137.6279   76.9232  220.3268 H   0  0  0  0  0  0  0  0  0  0  0  0
  135.9477   78.0174  222.5603 H   0  0  0  0  0  0  0  0  0  0  0  0
  135.4475   77.6246  220.9083 H   0  0  0  0  0  0  0  0  0  0  0  0
  134.7560   76.0655  223.1179 H   0  0  0  0  0  0  0  0  0  0  0  0
  135.1670   74.3890  221.0870 H   0  0  0  0  0  0  0  0  0  0  0  0
  136.7874   75.1134  223.7996 H   0  0  0  0  0  0  0  0  0  0  0  0
  136.5668   74.0343  222.4149 H   0  0  0  0  0  0  0  0  0  0  0  0
  138.3587   73.3080  221.0660 H   0  0  0  0  0  0  0  0  0  0  0  0
  140.1338   73.5907  220.8808 H   0  0  0  0  0  0  0  0  0  0  0  0
  139.9260   73.1690  223.5960 H   0  0  0  0  0  0  0  0  0  0  0  0
  138.6081   68.7116  222.9373 H   0  0  0  0  0  0  0  0  0  0  0  0
  139.0125   67.2953  224.9585 H   0  0  0  0  0  0  0  0  0  0  0  0
  139.8961   67.0780  227.2524 H   0  0  0  0  0  0  0  0  0  0  0  0
  141.5690   70.5531  229.2238 H   0  0  0  0  0  0  0  0  0  0  0  0
  141.1153   71.9350  227.1938 H   0  0  0  0  0  0  0  0  0  0  0  0
  140.8235   77.7987  223.4668 H   0  0  0  0  0  0  0  0  0  0  0  0
  143.2435   78.1968  223.0109 H   0  0  0  0  0  0  0  0  0  0  0  0
  144.1227   80.5273  222.8406 H   0  0  0  0  0  0  0  0  0  0  0  0
  142.5894   82.4654  223.1936 H   0  0  0  0  0  0  0  0  0  0  0  0
  140.1656   82.0825  223.6260 H   0  0  0  0  0  0  0  0  0  0  0  0
  1  2  1  0
  2  3  1  0
  3  4  1  0
  4  5  2  0
  4  6  1  0
  6  7  1  0
  7  8  1  0
  8  9  1  0
  8 10  1  0
 10 11  1  0
 11 12  1  0
 12 13  2  0
 12 14  1  0
 14 15  1  0
 15 16  1  0
 16 17  2  0
 16 18  1  0
 18 19  2  0
 19 20  1  0
 20 21  2  0
 21 22  1  0
 22 23  2  0
 23 24  1  0
 23 25  1  0
 25 26  2  0
 26 27  1  0
 27 28  2  0
  2 29  1  0
 29 30  2  0
 30 31  1  0
 31 32  2  0
 32 33  1  0
 33 34  2  0
 11  6  1  0
 28 18  1  0
 34 29  1  0
 27 21  1  0
  1 35  1  0
  1 36  1  0
  1 37  1  0
  2 38  1  1
  6 39  1  6
  7 40  1  0
  7 41  1  0
  8 42  1  1
  9 43  1  0
 10 44  1  0
 10 45  1  0
 14 46  1  0
 14 47  1  0
 15 48  1  0
 19 49  1  0
 20 50  1  0
 22 51  1  0
 25 52  1  0
 26 53  1  0
 30 54  1  0
 31 55  1  0
 32 56  1  0
 33 57  1  0
 34 58  1  0
M  CHG  1   3  -1
M  END
>  <UniqueID>  (40) 
85

>  <SMILES>  (40) 
C[C@@H]([N-]C(=O)[C@@H]1C[C@@H](O)CN1C(=O)CNC(=O)c1ccc2cc(F)ccc2n1)c1ccccc1

>  <Energy>  (40) 
63.06073797193395

>  <Genealogy>  (40) 
C[C@@H]([N-]C(=O)[C@@H]1C[C@@H](O)CN1C(=O)CNC(=O)c1ccc2cc(F)ccc2n1)c1ccccc1 (protonated)
C[C@@H]([N-]C(=O)[C@@H]1C[C@@H](O)CN1C(=O)CNC(=O)c1ccc2cc(F)ccc2n1)c1ccccc1 (3D coordinates assigned)
C[C@@H]([N-]C(=O)[C@@H]1C[C@@H](O)CN1C(=O)CNC(=O)c1ccc2cc(F)ccc2n1)c1ccccc1 (nonaromatic ring conformer: 63.06073797193395 kcal/mol)

>  <smiles>  (40) 
C[C@@H](NC(=O)[C@@H]1C[C@@H](O)CN1C(=O)CNC(=O)c1ccc2cc(F)ccc2n1)c1ccccc1

>  <score_type>  (40) 
oracle

>  <origin>  (40) 
autodockgpu

>  <m_score__min__energy>  (40) 
-9.0600000000000005

>  <m_primary>  (40) 
energy

>  <meeko>  (40) 
{"free_energy": -7.8, "intermolecular_energy": -10.49, "internal_energy": -1.95, "cluster_size": 4, "cluster_id": 3, "rank_in_cluster": 2}

>  <energy>  (40) 
-6.61

>  <cluster_rmsd>  (40) 
0.0

>  <rmsd>  (40) 
269.85

>  <cluster>  (40) 
7

$$$$
DWYNEBQVPRLYJI-KZHXFCNENA-M
     RDKit          3D

 58 61  0  0  0  0  0  0  0  0999 V2000
  138.9910   74.3620  223.0750 H   0  0  0  0  0  0  0  0  0  0  0  0
  139.1860   75.2780  222.7140 O   0  0  0  0  0  0  0  0  0  0  0  0
  140.1510   75.5310  221.7330 C   0  0  0  0  0  0  0  0  0  0  0  0
  140.3590   76.7450  221.2690 N   0  0  0  0  0  0  0  0  0  0  0  0
  139.6510   77.3120  220.1170 C   0  0  0  0  0  0  0  0  0  0  0  0
  138.5698   77.3523  220.3154 H   0  0  0  0  0  0  0  0  0  0  0  0
  139.7955   76.6992  219.2150 H   0  0  0  0  0  0  0  0  0  0  0  0
  140.2090   78.7230  219.9290 C   0  0  2  0  0  0  0  0  0  0  0  0
  139.5261   79.4958  220.3115 H   0  0  0  0  0  0  0  0  0  0  0  0
  140.3840   79.0110  218.5620 O   0  0  0  0  0  0  0  0  0  0  0  0
  140.0240   79.9170  218.4160 H   0  0  0  0  0  0  0  0  0  0  0  0
  141.5390   78.7360  220.6900 C   0  0  0  0  0  0  0  0  0  0  0  0
  141.7029   79.7159  221.1621 H   0  0  0  0  0  0  0  0  0  0  0  0
  142.3946   78.5566  220.0223 H   0  0  0  0  0  0  0  0  0  0  0  0
  141.4080   77.6440  221.7540 C   0  0  1  0  0  0  0  0  0  0  0  0
  142.3560   77.1068  221.9046 H   0  0  0  0  0  0  0  0  0  0  0  0
  141.0510   78.2340  223.0900 C   0  0  0  0  0  0  0  0  0  0  0  0
  141.8990   78.2700  224.0220 O   0  0  0  0  0  0  0  0  0  0  0  0
  139.7170   78.7040  223.3060 N   0  0  0  0  0  0  0  0  0  0  0  0
  139.3990   80.0610  223.7400 C   0  0  1  0  0  0  0  0  0  0  0  0
  139.8640   80.2516  224.7185 H   0  0  0  0  0  0  0  0  0  0  0  0
  139.9500   81.0680  222.7490 C   0  0  0  0  0  0  0  0  0  0  0  0
  139.1150   81.6490  221.7790 C   0  0  0  0  0  0  0  0  0  0  0  0
  138.0486   81.3817  221.7419 H   0  0  0  0  0  0  0  0  0  0  0  0
  139.6360   82.5650  220.8620 C   0  0  0  0  0  0  0  0  0  0  0  0
  138.9781   83.0150  220.1040 H   0  0  0  0  0  0  0  0  0  0  0  0
  140.9910   82.9130  220.9030 C   0  0  0  0  0  0  0  0  0  0  0  0
  141.3977   83.6286  220.1732 H   0  0  0  0  0  0  0  0  0  0  0  0
  141.8240   82.3530  221.8680 C   0  0  0  0  0  0  0  0  0  0  0  0
  142.8876   82.6312  221.9056 H   0  0  0  0  0  0  0  0  0  0  0  0
  141.3070   81.4360  222.7900 C   0  0  0  0  0  0  0  0  0  0  0  0
  141.9676   80.9992  223.5534 H   0  0  0  0  0  0  0  0  0  0  0  0
  137.8830   80.2100  223.8740 C   0  0  0  0  0  0  0  0  0  0  0  0
  137.6099   80.2368  224.9392 H   0  0  0  0  0  0  0  0  0  0  0  0
  137.5621   81.1440  223.3896 H   0  0  0  0  0  0  0  0  0  0  0  0
  137.3864   79.3563  223.3896 H   0  0  0  0  0  0  0  0  0  0  0  0
  141.0030   74.3640  221.3050 C   0  0  0  0  0  0  0  0  0  0  0  0
  140.6238   73.9573  220.3559 H   0  0  0  0  0  0  0  0  0  0  0  0
  142.0434   74.6917  221.1632 H   0  0  0  0  0  0  0  0  0  0  0  0
  140.9420   73.3350  222.3400 N   0  0  0  0  0  0  0  0  0  0  0  0
  139.7940   72.4970  222.5160 C   0  0  0  0  0  0  0  0  0  0  0  0
  138.7900   72.6320  221.7710 O   0  0  0  0  0  0  0  0  0  0  0  0
  139.7510   71.5260  223.6210 C   0  0  0  0  0  0  0  0  0  0  0  0
  140.2530   71.8750  224.8430 N   0  0  0  0  0  0  0  0  0  0  0  0
  140.3670   70.9840  225.8640 C   0  0  0  0  0  0  0  0  0  0  0  0
  140.9140   71.3810  227.0890 C   0  0  0  0  0  0  0  0  0  0  0  0
  141.2048   72.4301  227.2467 H   0  0  0  0  0  0  0  0  0  0  0  0
  141.0920   70.4430  228.1160 C   0  0  0  0  0  0  0  0  0  0  0  0
  141.5279   70.7577  229.0756 H   0  0  0  0  0  0  0  0  0  0  0  0
  140.7170   69.1070  227.9250 C   0  0  0  0  0  0  0  0  0  0  0  0
  140.9250   68.1970  228.9060 F   0  0  0  0  0  0  0  0  0  0  0  0
  140.1460   68.7050  226.7140 C   0  0  0  0  0  0  0  0  0  0  0  0
  139.8348   67.6596  226.5719 H   0  0  0  0  0  0  0  0  0  0  0  0
  139.9700   69.6400  225.6770 C   0  0  0  0  0  0  0  0  0  0  0  0
  139.4250   69.2660  224.4450 C   0  0  0  0  0  0  0  0  0  0  0  0
  139.0852   68.2320  224.2856 H   0  0  0  0  0  0  0  0  0  0  0  0
  139.3110   70.2090  223.4110 C   0  0  0  0  0  0  0  0  0  0  0  0
  138.8795   69.9179  222.4419 H   0  0  0  0  0  0  0  0  0  0  0  0
  1  2  1  0
  2  3  1  0
  3  4  2  0
  4  5  1  0
  5  6  1  0
  5  7  1  0
  5  8  1  0
  8  9  1  1
  8 10  1  0
 10 11  1  0
  8 12  1  0
 12 13  1  0
 12 14  1  0
 12 15  1  0
 15 16  1  1
 15 17  1  0
 17 18  2  0
 17 19  1  0
 19 20  1  0
 20 21  1  1
 20 22  1  0
 22 23  2  0
 23 24  1  0
 23 25  1  0
 25 26  1  0
 25 27  2  0
 27 28  1  0
 27 29  1  0
 29 30  1  0
 29 31  2  0
 31 32  1  0
 20 33  1  0
 33 34  1  0
 33 35  1  0
 33 36  1  0
  3 37  1  0
 37 38  1  0
 37 39  1  0
 37 40  1  0
 40 41  1  0
 41 42  2  0
 41 43  1  0
 43 44  2  0
 44 45  1  0
 45 46  2  0
 46 47  1  0
 46 48  1  0
 48 49  1  0
 48 50  2  0
 50 51  1  0
 50 52  1  0
 52 53  1  0
 52 54  2  0
 54 55  1  0
 55 56  1  0
 55 57  2  0
 57 58  1  0
 15  4  1  0
 31 22  1  0
 57 43  1  0
 54 45  1  0
M  CHG  3   4   1  19  -1  40  -1
M  END
>  <UniqueID>  (41) 
86

>  <SMILES>  (41) 
C[C@@H]([N-]C(=O)[C@@H]1C[C@@H](O)C/[N+]1=C(/O)C[N-]C(=O)c1ccc2cc(F)ccc2n1)c1ccccc1

>  <Energy>  (41) 
64.04925467578332

>  <Genealogy>  (41) 
C[C@@H]([N-]C(=O)[C@@H]1C[C@@H](O)C[NH+]1C(=O)C[N-]C(=O)c1ccc2cc(F)ccc2n1)c1ccccc1 (protonated)
C[C@@H]([N-]C(=O)[C@@H]1C[C@@H](O)C[N+]1=C(O)C[N-]C(=O)c1ccc2cc(F)ccc2n1)c1ccccc1 (tautomer)
C[C@@H]([N-]C(=O)[C@@H]1C[C@@H](O)C/[N+]1=C(/O)C[N-]C(=O)c1ccc2cc(F)ccc2n1)c1ccccc1 (cis-trans isomerization)
C[C@@H]([N-]C(=O)[C@@H]1C[C@@H](O)C/[N+]1=C(/O)C[N-]C(=O)c1ccc2cc(F)ccc2n1)c1ccccc1 (3D coordinates assigned)
C[C@@H]([N-]C(=O)[C@@H]1C[C@@H](O)C/[N+]1=C(/O)C[N-]C(=O)c1ccc2cc(F)ccc2n1)c1ccccc1 (nonaromatic ring conformer: 64.04925467578332 kcal/mol)

>  <smiles>  (41) 
C[C@@H](NC(=O)[C@@H]1C[C@@H](O)CN1C(=O)CNC(=O)c1ccc2cc(F)ccc2n1)c1ccccc1

>  <score_type>  (41) 
oracle

>  <origin>  (41) 
autodockgpu

>  <m_score__min__energy>  (41) 
-8.9499999999999993

>  <m_primary>  (41) 
energy

>  <meeko>  (41) 
{"free_energy": -7.46, "intermolecular_energy": -10.74, "internal_energy": -3.28, "cluster_size": 14, "cluster_id": 1, "rank_in_cluster": 11}

>  <energy>  (41) 
-8.95

>  <cluster_rmsd>  (41) 
0.0

>  <rmsd>  (41) 
272.69

>  <cluster>  (41) 
1

$$$$
DWYNEBQVPRLYJI-KZHXFCNENA-M
     RDKit          3D

 58 61  0  0  0  0  0  0  0  0999 V2000
  139.7670   74.7450  220.6940 H   0  0  0  0  0  0  0  0  0  0  0  0
  139.9260   74.1390  219.9100 O   0  0  0  0  0  0  0  0  0  0  0  0
  141.0260   73.2810  219.8100 C   0  0  0  0  0  0  0  0  0  0  0  0
  142.2420   73.7430  219.6050 N   0  0  0  0  0  0  0  0  0  0  0  0
  143.1720   73.1850  218.6190 C   0  0  0  0  0  0  0  0  0  0  0  0
  142.7492   73.2668  217.6068 H   0  0  0  0  0  0  0  0  0  0  0  0
  143.3655   72.1188  218.8083 H   0  0  0  0  0  0  0  0  0  0  0  0
  144.4530   74.0120  218.7270 C   0  0  2  0  0  0  0  0  0  0  0  0
  144.5463   74.7439  217.9111 H   0  0  0  0  0  0  0  0  0  0  0  0
  145.5890   73.1870  218.6300 O   0  0  0  0  0  0  0  0  0  0  0  0
  146.3710   73.7860  218.5920 H   0  0  0  0  0  0  0  0  0  0  0  0
  144.3690   74.7100  220.0890 C   0  0  0  0  0  0  0  0  0  0  0  0
  144.8025   75.7194  220.0318 H   0  0  0  0  0  0  0  0  0  0  0  0
  144.9294   74.1658  220.8635 H   0  0  0  0  0  0  0  0  0  0  0  0
  142.8740   74.7860  220.4140 C   0  0  1  0  0  0  0  0  0  0  0  0
  142.6808   74.6307  221.4857 H   0  0  0  0  0  0  0  0  0  0  0  0
  142.3220   76.1460  220.0880 C   0  0  0  0  0  0  0  0  0  0  0  0
  142.9910   76.9590  219.3950 O   0  0  0  0  0  0  0  0  0  0  0  0
  141.0500   76.5240  220.6220 N   0  0  0  0  0  0  0  0  0  0  0  0
  140.8330   76.8660  222.0250 C   0  0  1  0  0  0  0  0  0  0  0  0
  141.3578   76.1415  222.6651 H   0  0  0  0  0  0  0  0  0  0  0  0
  141.3890   78.2460  222.3170 C   0  0  0  0  0  0  0  0  0  0  0  0
  141.7450   78.6120  223.6260 C   0  0  0  0  0  0  0  0  0  0  0  0
  141.6313   77.8895  224.4476 H   0  0  0  0  0  0  0  0  0  0  0  0
  142.2430   79.8910  223.8870 C   0  0  0  0  0  0  0  0  0  0  0  0
  142.5186   80.1720  224.9142 H   0  0  0  0  0  0  0  0  0  0  0  0
  142.3930   80.8170  222.8470 C   0  0  0  0  0  0  0  0  0  0  0  0
  142.7780   81.8255  223.0586 H   0  0  0  0  0  0  0  0  0  0  0  0
  142.0540   80.4590  221.5450 C   0  0  0  0  0  0  0  0  0  0  0  0
  142.1777   81.1827  220.7259 H   0  0  0  0  0  0  0  0  0  0  0  0
  141.5560   79.1790  221.2780 C   0  0  0  0  0  0  0  0  0  0  0  0
  141.2929   78.9001  220.2470 H   0  0  0  0  0  0  0  0  0  0  0  0
  139.3360   76.8100  222.3360 C   0  0  0  0  0  0  0  0  0  0  0  0
  139.1879   76.8045  223.4260 H   0  0  0  0  0  0  0  0  0  0  0  0
  138.8383   77.6902  221.9028 H   0  0  0  0  0  0  0  0  0  0  0  0
  138.9055   75.8951  221.9028 H   0  0  0  0  0  0  0  0  0  0  0  0
  140.7650   71.8150  220.0440 C   0  0  0  0  0  0  0  0  0  0  0  0
  139.7197   71.5807  219.7942 H   0  0  0  0  0  0  0  0  0  0  0  0
  141.4287   71.2102  219.4086 H   0  0  0  0  0  0  0  0  0  0  0  0
  141.0130   71.5140  221.4500 N   0  0  0  0  0  0  0  0  0  0  0  0
  140.2760   72.1400  222.5070 C   0  0  0  0  0  0  0  0  0  0  0  0
  139.9750   73.3590  222.4340 O   0  0  0  0  0  0  0  0  0  0  0  0
  139.9330   71.3800  223.7200 C   0  0  0  0  0  0  0  0  0  0  0  0
  140.5590   71.6760  224.8980 N   0  0  0  0  0  0  0  0  0  0  0  0
  140.3890   70.9270  226.0200 C   0  0  0  0  0  0  0  0  0  0  0  0
  141.0740   71.2530  227.1960 C   0  0  0  0  0  0  0  0  0  0  0  0
  141.7114   72.1488  227.2307 H   0  0  0  0  0  0  0  0  0  0  0  0
  140.9480   70.4380  228.3300 C   0  0  0  0  0  0  0  0  0  0  0  0
  141.4933   70.6934  229.2506 H   0  0  0  0  0  0  0  0  0  0  0  0
  140.1320   69.3010  228.2970 C   0  0  0  0  0  0  0  0  0  0  0  0
  140.0420   68.4970  229.3830 F   0  0  0  0  0  0  0  0  0  0  0  0
  139.4230   68.9810  227.1350 C   0  0  0  0  0  0  0  0  0  0  0  0
  138.7676   68.0978  227.1154 H   0  0  0  0  0  0  0  0  0  0  0  0
  139.5490   69.7900  225.9910 C   0  0  0  0  0  0  0  0  0  0  0  0
  138.8740   69.4840  224.8050 C   0  0  0  0  0  0  0  0  0  0  0  0
  138.1957   68.6189  224.7658 H   0  0  0  0  0  0  0  0  0  0  0  0
  139.0620   70.2810  223.6640 C   0  0  0  0  0  0  0  0  0  0  0  0
  138.5292   70.0450  222.7310 H   0  0  0  0  0  0  0  0  0  0  0  0
  1  2  1  0
  2  3  1  0
  3  4  2  0
  4  5  1  0
  5  6  1  0
  5  7  1  0
  5  8  1  0
  8  9  1  6
  8 10  1  0
 10 11  1  0
  8 12  1  0
 12 13  1  0
 12 14  1  0
 12 15  1  0
 15 16  1  1
 15 17  1  0
 17 18  2  0
 17 19  1  0
 19 20  1  0
 20 21  1  1
 20 22  1  0
 22 23  2  0
 23 24  1  0
 23 25  1  0
 25 26  1  0
 25 27  2  0
 27 28  1  0
 27 29  1  0
 29 30  1  0
 29 31  2  0
 31 32  1  0
 20 33  1  0
 33 34  1  0
 33 35  1  0
 33 36  1  0
  3 37  1  0
 37 38  1  0
 37 39  1  0
 37 40  1  0
 40 41  1  0
 41 42  2  0
 41 43  1  0
 43 44  2  0
 44 45  1  0
 45 46  2  0
 46 47  1  0
 46 48  1  0
 48 49  1  0
 48 50  2  0
 50 51  1  0
 50 52  1  0
 52 53  1  0
 52 54  2  0
 54 55  1  0
 55 56  1  0
 55 57  2  0
 57 58  1  0
 15  4  1  0
 31 22  1  0
 57 43  1  0
 54 45  1  0
M  CHG  3   4   1  19  -1  40  -1
M  END
>  <UniqueID>  (42) 
86

>  <SMILES>  (42) 
C[C@@H]([N-]C(=O)[C@@H]1C[C@@H](O)C/[N+]1=C(/O)C[N-]C(=O)c1ccc2cc(F)ccc2n1)c1ccccc1

>  <Energy>  (42) 
64.04925467578332

>  <Genealogy>  (42) 
C[C@@H]([N-]C(=O)[C@@H]1C[C@@H](O)C[NH+]1C(=O)C[N-]C(=O)c1ccc2cc(F)ccc2n1)c1ccccc1 (protonated)
C[C@@H]([N-]C(=O)[C@@H]1C[C@@H](O)C[N+]1=C(O)C[N-]C(=O)c1ccc2cc(F)ccc2n1)c1ccccc1 (tautomer)
C[C@@H]([N-]C(=O)[C@@H]1C[C@@H](O)C/[N+]1=C(/O)C[N-]C(=O)c1ccc2cc(F)ccc2n1)c1ccccc1 (cis-trans isomerization)
C[C@@H]([N-]C(=O)[C@@H]1C[C@@H](O)C/[N+]1=C(/O)C[N-]C(=O)c1ccc2cc(F)ccc2n1)c1ccccc1 (3D coordinates assigned)
C[C@@H]([N-]C(=O)[C@@H]1C[C@@H](O)C/[N+]1=C(/O)C[N-]C(=O)c1ccc2cc(F)ccc2n1)c1ccccc1 (nonaromatic ring conformer: 64.04925467578332 kcal/mol)

>  <smiles>  (42) 
C[C@@H](NC(=O)[C@@H]1C[C@@H](O)CN1C(=O)CNC(=O)c1ccc2cc(F)ccc2n1)c1ccccc1

>  <score_type>  (42) 
oracle

>  <origin>  (42) 
autodockgpu

>  <m_score__min__energy>  (42) 
-8.9499999999999993

>  <m_primary>  (42) 
energy

>  <meeko>  (42) 
{"free_energy": -8.09, "intermolecular_energy": -11.38, "internal_energy": -3.13, "cluster_size": 2, "cluster_id": 2, "rank_in_cluster": 2}

>  <energy>  (42) 
-8.92

>  <cluster_rmsd>  (42) 
0.12

>  <rmsd>  (42) 
272.66

>  <cluster>  (42) 
1

$$$$
DWYNEBQVPRLYJI-KZHXFCNENA-M
     RDKit          3D

 58 61  0  0  0  0  0  0  0  0999 V2000
  139.5690   73.8310  222.7750 H   0  0  0  0  0  0  0  0  0  0  0  0
  140.4590   73.9980  222.3410 O   0  0  0  0  0  0  0  0  0  0  0  0
  140.8940   73.3280  221.1930 C   0  0  0  0  0  0  0  0  0  0  0  0
  142.1010   73.5160  220.7030 N   0  0  0  0  0  0  0  0  0  0  0  0
  142.9290   72.4470  220.1370 C   0  0  0  0  0  0  0  0  0  0  0  0
  142.4255   71.9923  219.2712 H   0  0  0  0  0  0  0  0  0  0  0  0
  143.1073   71.6466  220.8702 H   0  0  0  0  0  0  0  0  0  0  0  0
  144.2370   73.1070  219.7030 C   0  0  2  0  0  0  0  0  0  0  0  0
  144.2822   73.2671  218.6157 H   0  0  0  0  0  0  0  0  0  0  0  0
  145.3370   72.2850  220.0140 O   0  0  0  0  0  0  0  0  0  0  0  0
  145.1560   71.8930  220.8990 H   0  0  0  0  0  0  0  0  0  0  0  0
  144.2880   74.4390  220.4610 C   0  0  0  0  0  0  0  0  0  0  0  0
  144.7442   75.2207  219.8359 H   0  0  0  0  0  0  0  0  0  0  0  0
  144.8955   74.3674  221.3752 H   0  0  0  0  0  0  0  0  0  0  0  0
  142.8290   74.7840  220.7710 C   0  0  1  0  0  0  0  0  0  0  0  0
  142.7222   75.2523  221.7606 H   0  0  0  0  0  0  0  0  0  0  0  0
  142.2910   75.7800  219.7810 C   0  0  0  0  0  0  0  0  0  0  0  0
  142.7110   75.7950  218.5930 O   0  0  0  0  0  0  0  0  0  0  0  0
  141.3350   76.7490  220.2230 N   0  0  0  0  0  0  0  0  0  0  0  0
  140.9980   76.9690  221.6260 C   0  0  1  0  0  0  0  0  0  0  0  0
  141.4868   76.2024  222.2452 H   0  0  0  0  0  0  0  0  0  0  0  0
  141.4960   78.3300  222.0750 C   0  0  0  0  0  0  0  0  0  0  0  0
  141.7440   79.3460  221.1380 C   0  0  0  0  0  0  0  0  0  0  0  0
  141.5664   79.1610  220.0683 H   0  0  0  0  0  0  0  0  0  0  0  0
  142.2160   80.5920  221.5610 C   0  0  0  0  0  0  0  0  0  0  0  0
  142.4107   81.3834  220.8223 H   0  0  0  0  0  0  0  0  0  0  0  0
  142.4420   80.8370  222.9210 C   0  0  0  0  0  0  0  0  0  0  0  0
  142.8205   81.8165  223.2487 H   0  0  0  0  0  0  0  0  0  0  0  0
  142.1870   79.8390  223.8580 C   0  0  0  0  0  0  0  0  0  0  0  0
  142.3583   80.0320  224.9273 H   0  0  0  0  0  0  0  0  0  0  0  0
  141.7130   78.5910  223.4400 C   0  0  0  0  0  0  0  0  0  0  0  0
  141.5084   77.8076  224.1846 H   0  0  0  0  0  0  0  0  0  0  0  0
  139.4830   76.8620  221.8080 C   0  0  0  0  0  0  0  0  0  0  0  0
  139.2429   76.8450  222.8813 H   0  0  0  0  0  0  0  0  0  0  0  0
  138.9950   77.7279  221.3368 H   0  0  0  0  0  0  0  0  0  0  0  0
  139.1216   75.9361  221.3368 H   0  0  0  0  0  0  0  0  0  0  0  0
  139.9500   72.3110  220.6040 C   0  0  0  0  0  0  0  0  0  0  0  0
  139.5821   72.6676  219.6306 H   0  0  0  0  0  0  0  0  0  0  0  0
  140.4727   71.3539  220.4598 H   0  0  0  0  0  0  0  0  0  0  0  0
  138.8260   72.1310  221.5180 N   0  0  0  0  0  0  0  0  0  0  0  0
  138.6230   70.9150  222.2490 C   0  0  0  0  0  0  0  0  0  0  0  0
  137.7510   70.0900  221.8760 O   0  0  0  0  0  0  0  0  0  0  0  0
  139.3820   70.6610  223.4840 C   0  0  0  0  0  0  0  0  0  0  0  0
  139.2380   69.4630  224.1260 N   0  0  0  0  0  0  0  0  0  0  0  0
  139.8030   69.2160  225.3390 C   0  0  0  0  0  0  0  0  0  0  0  0
  139.6050   67.9830  225.9700 C   0  0  0  0  0  0  0  0  0  0  0  0
  139.0358   67.1906  225.4620 H   0  0  0  0  0  0  0  0  0  0  0  0
  140.1320   67.7570  227.2500 C   0  0  0  0  0  0  0  0  0  0  0  0
  139.9681   66.7892  227.7465 H   0  0  0  0  0  0  0  0  0  0  0  0
  140.8660   68.7580  227.8990 C   0  0  0  0  0  0  0  0  0  0  0  0
  141.3410   68.5490  229.1490 F   0  0  0  0  0  0  0  0  0  0  0  0
  141.0920   69.9840  227.2650 C   0  0  0  0  0  0  0  0  0  0  0  0
  141.6849   70.7627  227.7672 H   0  0  0  0  0  0  0  0  0  0  0  0
  140.5600   70.2200  225.9840 C   0  0  0  0  0  0  0  0  0  0  0  0
  140.7450   71.4440  225.3330 C   0  0  0  0  0  0  0  0  0  0  0  0
  141.3509   72.2315  225.8049 H   0  0  0  0  0  0  0  0  0  0  0  0
  140.1580   71.6680  224.0780 C   0  0  0  0  0  0  0  0  0  0  0  0
  140.3056   72.6284  223.5624 H   0  0  0  0  0  0  0  0  0  0  0  0
  1  2  1  0
  2  3  1  0
  3  4  2  0
  4  5  1  0
  5  6  1  0
  5  7  1  0
  5  8  1  0
  8  9  1  6
  8 10  1  0
 10 11  1  0
  8 12  1  0
 12 13  1  0
 12 14  1  0
 12 15  1  0
 15 16  1  1
 15 17  1  0
 17 18  2  0
 17 19  1  0
 19 20  1  0
 20 21  1  1
 20 22  1  0
 22 23  2  0
 23 24  1  0
 23 25  1  0
 25 26  1  0
 25 27  2  0
 27 28  1  0
 27 29  1  0
 29 30  1  0
 29 31  2  0
 31 32  1  0
 20 33  1  0
 33 34  1  0
 33 35  1  0
 33 36  1  0
  3 37  1  0
 37 38  1  0
 37 39  1  0
 37 40  1  0
 40 41  1  0
 41 42  2  0
 41 43  1  0
 43 44  2  0
 44 45  1  0
 45 46  2  0
 46 47  1  0
 46 48  1  0
 48 49  1  0
 48 50  2  0
 50 51  1  0
 50 52  1  0
 52 53  1  0
 52 54  2  0
 54 55  1  0
 55 56  1  0
 55 57  2  0
 57 58  1  0
 15  4  1  0
 31 22  1  0
 57 43  1  0
 54 45  1  0
M  CHG  3   4   1  19  -1  40  -1
M  END
>  <UniqueID>  (43) 
86

>  <SMILES>  (43) 
C[C@@H]([N-]C(=O)[C@@H]1C[C@@H](O)C/[N+]1=C(/O)C[N-]C(=O)c1ccc2cc(F)ccc2n1)c1ccccc1

>  <Energy>  (43) 
64.04925467578332

>  <Genealogy>  (43) 
C[C@@H]([N-]C(=O)[C@@H]1C[C@@H](O)C[NH+]1C(=O)C[N-]C(=O)c1ccc2cc(F)ccc2n1)c1ccccc1 (protonated)
C[C@@H]([N-]C(=O)[C@@H]1C[C@@H](O)C[N+]1=C(O)C[N-]C(=O)c1ccc2cc(F)ccc2n1)c1ccccc1 (tautomer)
C[C@@H]([N-]C(=O)[C@@H]1C[C@@H](O)C/[N+]1=C(/O)C[N-]C(=O)c1ccc2cc(F)ccc2n1)c1ccccc1 (cis-trans isomerization)
C[C@@H]([N-]C(=O)[C@@H]1C[C@@H](O)C/[N+]1=C(/O)C[N-]C(=O)c1ccc2cc(F)ccc2n1)c1ccccc1 (3D coordinates assigned)
C[C@@H]([N-]C(=O)[C@@H]1C[C@@H](O)C/[N+]1=C(/O)C[N-]C(=O)c1ccc2cc(F)ccc2n1)c1ccccc1 (nonaromatic ring conformer: 64.04925467578332 kcal/mol)

>  <smiles>  (43) 
C[C@@H](NC(=O)[C@@H]1C[C@@H](O)CN1C(=O)CNC(=O)c1ccc2cc(F)ccc2n1)c1ccccc1

>  <score_type>  (43) 
oracle

>  <origin>  (43) 
autodockgpu

>  <m_score__min__energy>  (43) 
-8.9499999999999993

>  <m_primary>  (43) 
energy

>  <meeko>  (43) 
{"free_energy": -8.1, "intermolecular_energy": -11.38, "internal_energy": -2.54, "cluster_size": 2, "cluster_id": 2, "rank_in_cluster": 1}

>  <energy>  (43) 
-8.82

>  <cluster_rmsd>  (43) 
0.4

>  <rmsd>  (43) 
272.61

>  <cluster>  (43) 
1

$$$$
DWYNEBQVPRLYJI-KZHXFCNENA-M
     RDKit          3D

 58 61  0  0  0  0  0  0  0  0999 V2000
  139.2100   74.3490  223.0450 H   0  0  0  0  0  0  0  0  0  0  0  0
  139.4820   75.1280  222.4740 O   0  0  0  0  0  0  0  0  0  0  0  0
  140.4180   75.0340  221.4380 C   0  0  0  0  0  0  0  0  0  0  0  0
  140.7920   76.0920  220.7510 N   0  0  0  0  0  0  0  0  0  0  0  0
  141.6330   76.0310  219.5510 C   0  0  0  0  0  0  0  0  0  0  0  0
  141.1355   75.4431  218.7656 H   0  0  0  0  0  0  0  0  0  0  0  0
  142.5980   75.5465  219.7607 H   0  0  0  0  0  0  0  0  0  0  0  0
  141.8220   77.4770  219.0920 C   0  0  2  0  0  0  0  0  0  0  0  0
  141.1841   77.7280  218.2317 H   0  0  0  0  0  0  0  0  0  0  0  0
  143.1450   77.6940  218.6620 O   0  0  0  0  0  0  0  0  0  0  0  0
  143.7000   77.7550  219.4750 H   0  0  0  0  0  0  0  0  0  0  0  0
  141.4690   78.3370  220.3100 C   0  0  0  0  0  0  0  0  0  0  0  0
  140.9620   79.2610  219.9951 H   0  0  0  0  0  0  0  0  0  0  0  0
  142.3653   78.6405  220.8708 H   0  0  0  0  0  0  0  0  0  0  0  0
  140.5310   77.4730  221.1580 C   0  0  1  0  0  0  0  0  0  0  0  0
  140.7103   77.6121  222.2343 H   0  0  0  0  0  0  0  0  0  0  0  0
  139.0950   77.8520  220.9250 C   0  0  0  0  0  0  0  0  0  0  0  0
  138.4140   77.2690  220.0390 O   0  0  0  0  0  0  0  0  0  0  0  0
  138.5280   78.9220  221.6870 N   0  0  0  0  0  0  0  0  0  0  0  0
  138.8590   79.1830  223.0840 C   0  0  1  0  0  0  0  0  0  0  0  0
  138.8412   78.2383  223.6473 H   0  0  0  0  0  0  0  0  0  0  0  0
  140.2520   79.7710  223.1890 C   0  0  0  0  0  0  0  0  0  0  0  0
  141.2900   79.0490  223.8020 C   0  0  0  0  0  0  0  0  0  0  0  0
  141.0965   78.0424  224.2011 H   0  0  0  0  0  0  0  0  0  0  0  0
  142.5670   79.6060  223.9060 C   0  0  0  0  0  0  0  0  0  0  0  0
  143.3752   79.0361  224.3878 H   0  0  0  0  0  0  0  0  0  0  0  0
  142.8230   80.8860  223.4000 C   0  0  0  0  0  0  0  0  0  0  0  0
  143.8281   81.3235  223.4920 H   0  0  0  0  0  0  0  0  0  0  0  0
  141.8040   81.6050  222.7800 C   0  0  0  0  0  0  0  0  0  0  0  0
  142.0055   82.6079  222.3755 H   0  0  0  0  0  0  0  0  0  0  0  0
  140.5240   81.0510  222.6720 C   0  0  0  0  0  0  0  0  0  0  0  0
  139.7231   81.6211  222.1785 H   0  0  0  0  0  0  0  0  0  0  0  0
  137.8240   80.1370  223.6830 C   0  0  0  0  0  0  0  0  0  0  0  0
  137.8745   80.0904  224.7809 H   0  0  0  0  0  0  0  0  0  0  0  0
  138.0354   81.1637  223.3494 H   0  0  0  0  0  0  0  0  0  0  0  0
  136.8179   79.8429  223.3494 H   0  0  0  0  0  0  0  0  0  0  0  0
  141.0460   73.6820  221.2150 C   0  0  0  0  0  0  0  0  0  0  0  0
  140.5414   73.1729  220.3806 H   0  0  0  0  0  0  0  0  0  0  0  0
  142.1119   73.8004  220.9705 H   0  0  0  0  0  0  0  0  0  0  0  0
  140.9010   72.8900  222.4330 N   0  0  0  0  0  0  0  0  0  0  0  0
  139.6890   72.1950  222.7510 C   0  0  0  0  0  0  0  0  0  0  0  0
  138.6250   72.4640  222.1380 O   0  0  0  0  0  0  0  0  0  0  0  0
  139.6660   71.2170  223.8510 C   0  0  0  0  0  0  0  0  0  0  0  0
  140.1860   71.5600  225.0670 N   0  0  0  0  0  0  0  0  0  0  0  0
  140.3180   70.6630  226.0810 C   0  0  0  0  0  0  0  0  0  0  0  0
  140.8820   71.0550  227.3000 C   0  0  0  0  0  0  0  0  0  0  0  0
  141.1710   72.1042  227.4598 H   0  0  0  0  0  0  0  0  0  0  0  0
  141.0790   70.1110  228.3180 C   0  0  0  0  0  0  0  0  0  0  0  0
  141.5299   70.4208  229.2723 H   0  0  0  0  0  0  0  0  0  0  0  0
  140.7040   68.7750  228.1250 C   0  0  0  0  0  0  0  0  0  0  0  0
  140.9300   67.8600  229.0970 F   0  0  0  0  0  0  0  0  0  0  0  0
  140.1150   68.3790  226.9210 C   0  0  0  0  0  0  0  0  0  0  0  0
  139.8035   67.3338  226.7780 H   0  0  0  0  0  0  0  0  0  0  0  0
  139.9210   69.3190  225.8920 C   0  0  0  0  0  0  0  0  0  0  0  0
  139.3590   68.9510  224.6660 C   0  0  0  0  0  0  0  0  0  0  0  0
  139.0206   67.9168  224.5051 H   0  0  0  0  0  0  0  0  0  0  0  0
  139.2260   69.9000  223.6400 C   0  0  0  0  0  0  0  0  0  0  0  0
  138.7797   69.6137  222.6762 H   0  0  0  0  0  0  0  0  0  0  0  0
  1  2  1  0
  2  3  1  0
  3  4  2  0
  4  5  1  0
  5  6  1  0
  5  7  1  0
  5  8  1  0
  8  9  1  6
  8 10  1  0
 10 11  1  0
  8 12  1  0
 12 13  1  0
 12 14  1  0
 12 15  1  0
 15 16  1  1
 15 17  1  0
 17 18  2  0
 17 19  1  0
 19 20  1  0
 20 21  1  1
 20 22  1  0
 22 23  2  0
 23 24  1  0
 23 25  1  0
 25 26  1  0
 25 27  2  0
 27 28  1  0
 27 29  1  0
 29 30  1  0
 29 31  2  0
 31 32  1  0
 20 33  1  0
 33 34  1  0
 33 35  1  0
 33 36  1  0
  3 37  1  0
 37 38  1  0
 37 39  1  0
 37 40  1  0
 40 41  1  0
 41 42  2  0
 41 43  1  0
 43 44  2  0
 44 45  1  0
 45 46  2  0
 46 47  1  0
 46 48  1  0
 48 49  1  0
 48 50  2  0
 50 51  1  0
 50 52  1  0
 52 53  1  0
 52 54  2  0
 54 55  1  0
 55 56  1  0
 55 57  2  0
 57 58  1  0
 15  4  1  0
 31 22  1  0
 57 43  1  0
 54 45  1  0
M  CHG  3   4   1  19  -1  40  -1
M  END
>  <UniqueID>  (44) 
86

>  <SMILES>  (44) 
C[C@@H]([N-]C(=O)[C@@H]1C[C@@H](O)C/[N+]1=C(/O)C[N-]C(=O)c1ccc2cc(F)ccc2n1)c1ccccc1

>  <Energy>  (44) 
64.04925467578332

>  <Genealogy>  (44) 
C[C@@H]([N-]C(=O)[C@@H]1C[C@@H](O)C[NH+]1C(=O)C[N-]C(=O)c1ccc2cc(F)ccc2n1)c1ccccc1 (protonated)
C[C@@H]([N-]C(=O)[C@@H]1C[C@@H](O)C[N+]1=C(O)C[N-]C(=O)c1ccc2cc(F)ccc2n1)c1ccccc1 (tautomer)
C[C@@H]([N-]C(=O)[C@@H]1C[C@@H](O)C/[N+]1=C(/O)C[N-]C(=O)c1ccc2cc(F)ccc2n1)c1ccccc1 (cis-trans isomerization)
C[C@@H]([N-]C(=O)[C@@H]1C[C@@H](O)C/[N+]1=C(/O)C[N-]C(=O)c1ccc2cc(F)ccc2n1)c1ccccc1 (3D coordinates assigned)
C[C@@H]([N-]C(=O)[C@@H]1C[C@@H](O)C/[N+]1=C(/O)C[N-]C(=O)c1ccc2cc(F)ccc2n1)c1ccccc1 (nonaromatic ring conformer: 64.04925467578332 kcal/mol)

>  <smiles>  (44) 
C[C@@H](NC(=O)[C@@H]1C[C@@H](O)CN1C(=O)CNC(=O)c1ccc2cc(F)ccc2n1)c1ccccc1

>  <score_type>  (44) 
oracle

>  <origin>  (44) 
autodockgpu

>  <m_score__min__energy>  (44) 
-8.9499999999999993

>  <m_primary>  (44) 
energy

>  <meeko>  (44) 
{"free_energy": -8.82, "intermolecular_energy": -12.1, "internal_energy": -3.0, "cluster_size": 14, "cluster_id": 1, "rank_in_cluster": 3}

>  <energy>  (44) 
-8.5

>  <cluster_rmsd>  (44) 
1.8

>  <rmsd>  (44) 
272.38

>  <cluster>  (44) 
1

$$$$
DWYNEBQVPRLYJI-KZHXFCNENA-M
     RDKit          3D

 58 61  0  0  0  0  0  0  0  0999 V2000
  137.9080   73.1170  223.1320 H   0  0  0  0  0  0  0  0  0  0  0  0
  137.8260   72.1200  223.0470 O   0  0  0  0  0  0  0  0  0  0  0  0
  138.8430   71.3050  222.5380 C   0  0  0  0  0  0  0  0  0  0  0  0
  138.7140   69.9960  222.4860 N   0  0  0  0  0  0  0  0  0  0  0  0
  139.6040   69.1160  221.7230 C   0  0  0  0  0  0  0  0  0  0  0  0
  140.6364   69.2044  222.0924 H   0  0  0  0  0  0  0  0  0  0  0  0
  139.6135   69.3826  220.6558 H   0  0  0  0  0  0  0  0  0  0  0  0
  139.0840   67.6950  221.9380 C   0  0  2  0  0  0  0  0  0  0  0  0
  139.6919   67.1337  222.6629 H   0  0  0  0  0  0  0  0  0  0  0  0
  139.1410   66.9580  220.7410 O   0  0  0  0  0  0  0  0  0  0  0  0
  140.0040   66.4810  220.7430 H   0  0  0  0  0  0  0  0  0  0  0  0
  137.6450   67.8630  222.4370 C   0  0  0  0  0  0  0  0  0  0  0  0
  137.4030   67.0902  223.1815 H   0  0  0  0  0  0  0  0  0  0  0  0
  136.9143   67.7602  221.6212 H   0  0  0  0  0  0  0  0  0  0  0  0
  137.5960   69.2550  223.0740 C   0  0  1  0  0  0  0  0  0  0  0  0
  136.6374   69.7588  222.8807 H   0  0  0  0  0  0  0  0  0  0  0  0
  137.7220   69.1660  224.5700 C   0  0  0  0  0  0  0  0  0  0  0  0
  137.1570   70.0140  225.3120 O   0  0  0  0  0  0  0  0  0  0  0  0
  138.5390   68.1370  225.1370 N   0  0  0  0  0  0  0  0  0  0  0  0
  139.9580   68.3050  225.4330 C   0  0  1  0  0  0  0  0  0  0  0  0
  140.5215   68.3858  224.4918 H   0  0  0  0  0  0  0  0  0  0  0  0
  140.1790   69.5770  226.2270 C   0  0  0  0  0  0  0  0  0  0  0  0
  140.8100   70.6880  225.6410 C   0  0  0  0  0  0  0  0  0  0  0  0
  141.1385   70.6423  224.5922 H   0  0  0  0  0  0  0  0  0  0  0  0
  141.0210   71.8500  226.3870 C   0  0  0  0  0  0  0  0  0  0  0  0
  141.5175   72.7152  225.9234 H   0  0  0  0  0  0  0  0  0  0  0  0
  140.6040   71.9190  227.7210 C   0  0  0  0  0  0  0  0  0  0  0  0
  140.7795   72.8339  228.3060 H   0  0  0  0  0  0  0  0  0  0  0  0
  139.9670   70.8290  228.3070 C   0  0  0  0  0  0  0  0  0  0  0  0
  139.6325   70.8848  229.3534 H   0  0  0  0  0  0  0  0  0  0  0  0
  139.7520   69.6620  227.5650 C   0  0  0  0  0  0  0  0  0  0  0  0
  139.2452   68.8044  228.0315 H   0  0  0  0  0  0  0  0  0  0  0  0
  140.4630   67.0880  226.2110 C   0  0  0  0  0  0  0  0  0  0  0  0
  140.3819   67.2834  227.2905 H   0  0  0  0  0  0  0  0  0  0  0  0
  139.8555   66.2086  225.9509 H   0  0  0  0  0  0  0  0  0  0  0  0
  141.5146   66.8971  225.9509 H   0  0  0  0  0  0  0  0  0  0  0  0
  140.0490   72.0040  221.9660 C   0  0  0  0  0  0  0  0  0  0  0  0
  140.9571   71.4321  222.2073 H   0  0  0  0  0  0  0  0  0  0  0  0
  139.9540   72.0802  220.8728 H   0  0  0  0  0  0  0  0  0  0  0  0
  140.1390   73.3380  222.5510 N   0  0  0  0  0  0  0  0  0  0  0  0
  139.5230   74.4810  221.9460 C   0  0  0  0  0  0  0  0  0  0  0  0
  138.3690   74.3930  221.4560 O   0  0  0  0  0  0  0  0  0  0  0  0
  140.2690   75.7450  221.8250 C   0  0  0  0  0  0  0  0  0  0  0  0
  140.0540   76.7410  222.7350 N   0  0  0  0  0  0  0  0  0  0  0  0
  140.6060   77.9770  222.6040 C   0  0  0  0  0  0  0  0  0  0  0  0
  140.3350   78.9750  223.5470 C   0  0  0  0  0  0  0  0  0  0  0  0
  139.7167   78.7460  224.4275 H   0  0  0  0  0  0  0  0  0  0  0  0
  140.8510   80.2660  223.3700 C   0  0  0  0  0  0  0  0  0  0  0  0
  140.6289   81.0498  224.1092 H   0  0  0  0  0  0  0  0  0  0  0  0
  141.6480   80.5640  222.2570 C   0  0  0  0  0  0  0  0  0  0  0  0
  142.1130   81.8210  222.0720 F   0  0  0  0  0  0  0  0  0  0  0  0
  141.9460   79.5670  221.3230 C   0  0  0  0  0  0  0  0  0  0  0  0
  142.5863   79.7963  220.4585 H   0  0  0  0  0  0  0  0  0  0  0  0
  141.4260   78.2700  221.4900 C   0  0  0  0  0  0  0  0  0  0  0  0
  141.6840   77.2580  220.5610 C   0  0  0  0  0  0  0  0  0  0  0  0
  142.3389   77.4566  219.6998 H   0  0  0  0  0  0  0  0  0  0  0  0
  141.1080   75.9880  220.7260 C   0  0  0  0  0  0  0  0  0  0  0  0
  141.3129   75.1886  219.9987 H   0  0  0  0  0  0  0  0  0  0  0  0
  1  2  1  0
  2  3  1  0
  3  4  2  0
  4  5  1  0
  5  6  1  0
  5  7  1  0
  5  8  1  0
  8  9  1  1
  8 10  1  0
 10 11  1  0
  8 12  1  0
 12 13  1  0
 12 14  1  0
 12 15  1  0
 15 16  1  1
 15 17  1  0
 17 18  2  0
 17 19  1  0
 19 20  1  0
 20 21  1  6
 20 22  1  0
 22 23  2  0
 23 24  1  0
 23 25  1  0
 25 26  1  0
 25 27  2  0
 27 28  1  0
 27 29  1  0
 29 30  1  0
 29 31  2  0
 31 32  1  0
 20 33  1  0
 33 34  1  0
 33 35  1  0
 33 36  1  0
  3 37  1  0
 37 38  1  0
 37 39  1  0
 37 40  1  0
 40 41  1  0
 41 42  2  0
 41 43  1  0
 43 44  2  0
 44 45  1  0
 45 46  2  0
 46 47  1  0
 46 48  1  0
 48 49  1  0
 48 50  2  0
 50 51  1  0
 50 52  1  0
 52 53  1  0
 52 54  2  0
 54 55  1  0
 55 56  1  0
 55 57  2  0
 57 58  1  0
 15  4  1  0
 31 22  1  0
 57 43  1  0
 54 45  1  0
M  CHG  3   4   1  19  -1  40  -1
M  END
>  <UniqueID>  (45) 
86

>  <SMILES>  (45) 
C[C@@H]([N-]C(=O)[C@@H]1C[C@@H](O)C/[N+]1=C(/O)C[N-]C(=O)c1ccc2cc(F)ccc2n1)c1ccccc1

>  <Energy>  (45) 
64.04925467578332

>  <Genealogy>  (45) 
C[C@@H]([N-]C(=O)[C@@H]1C[C@@H](O)C[NH+]1C(=O)C[N-]C(=O)c1ccc2cc(F)ccc2n1)c1ccccc1 (protonated)
C[C@@H]([N-]C(=O)[C@@H]1C[C@@H](O)C[N+]1=C(O)C[N-]C(=O)c1ccc2cc(F)ccc2n1)c1ccccc1 (tautomer)
C[C@@H]([N-]C(=O)[C@@H]1C[C@@H](O)C/[N+]1=C(/O)C[N-]C(=O)c1ccc2cc(F)ccc2n1)c1ccccc1 (cis-trans isomerization)
C[C@@H]([N-]C(=O)[C@@H]1C[C@@H](O)C/[N+]1=C(/O)C[N-]C(=O)c1ccc2cc(F)ccc2n1)c1ccccc1 (3D coordinates assigned)
C[C@@H]([N-]C(=O)[C@@H]1C[C@@H](O)C/[N+]1=C(/O)C[N-]C(=O)c1ccc2cc(F)ccc2n1)c1ccccc1 (nonaromatic ring conformer: 64.04925467578332 kcal/mol)

>  <smiles>  (45) 
C[C@@H](NC(=O)[C@@H]1C[C@@H](O)CN1C(=O)CNC(=O)c1ccc2cc(F)ccc2n1)c1ccccc1

>  <score_type>  (45) 
oracle

>  <origin>  (45) 
autodockgpu

>  <m_score__min__energy>  (45) 
-8.9499999999999993

>  <m_primary>  (45) 
energy

>  <meeko>  (45) 
{"free_energy": -7.72, "intermolecular_energy": -11.0, "internal_energy": -3.49, "cluster_size": 1, "cluster_id": 3, "rank_in_cluster": 1}

>  <energy>  (45) 
-8.07

>  <cluster_rmsd>  (45) 
0.94

>  <rmsd>  (45) 
272.51

>  <cluster>  (45) 
1

$$$$
DWYNEBQVPRLYJI-KZHXFCNENA-M
     RDKit          3D

 58 61  0  0  0  0  0  0  0  0999 V2000
  141.0620   72.8630  223.2760 H   0  0  0  0  0  0  0  0  0  0  0  0
  140.2070   72.4110  223.5420 O   0  0  0  0  0  0  0  0  0  0  0  0
  139.5580   71.4600  222.7470 C   0  0  0  0  0  0  0  0  0  0  0  0
  138.3280   71.0710  223.0060 N   0  0  0  0  0  0  0  0  0  0  0  0
  137.1650   71.4430  222.1940 C   0  0  0  0  0  0  0  0  0  0  0  0
  137.2834   71.0719  221.1653 H   0  0  0  0  0  0  0  0  0  0  0  0
  137.0480   72.5353  222.1368 H   0  0  0  0  0  0  0  0  0  0  0  0
  135.9550   70.7860  222.8590 C   0  0  2  0  0  0  0  0  0  0  0  0
  135.6250   69.8826  222.3251 H   0  0  0  0  0  0  0  0  0  0  0  0
  134.8500   71.6570  222.8530 O   0  0  0  0  0  0  0  0  0  0  0  0
  134.1670   71.2430  222.2760 H   0  0  0  0  0  0  0  0  0  0  0  0
  136.4100   70.4500  224.2830 C   0  0  0  0  0  0  0  0  0  0  0  0
  135.9634   69.5015  224.6161 H   0  0  0  0  0  0  0  0  0  0  0  0
  136.0990   71.2200  225.0044 H   0  0  0  0  0  0  0  0  0  0  0  0
  137.9340   70.3260  224.2040 C   0  0  1  0  0  0  0  0  0  0  0  0
  138.4223   70.7283  225.1039 H   0  0  0  0  0  0  0  0  0  0  0  0
  138.3530   68.8840  224.1150 C   0  0  0  0  0  0  0  0  0  0  0  0
  138.2170   68.2420  223.0390 O   0  0  0  0  0  0  0  0  0  0  0  0
  138.8550   68.2350  225.2880 N   0  0  0  0  0  0  0  0  0  0  0  0
  140.2380   68.3450  225.7410 C   0  0  1  0  0  0  0  0  0  0  0  0
  140.9137   68.2876  224.8749 H   0  0  0  0  0  0  0  0  0  0  0  0
  140.4580   69.6800  226.4260 C   0  0  0  0  0  0  0  0  0  0  0  0
  141.2440   70.6740  225.8200 C   0  0  0  0  0  0  0  0  0  0  0  0
  141.6962   70.4906  224.8342 H   0  0  0  0  0  0  0  0  0  0  0  0
  141.4530   71.8950  226.4660 C   0  0  0  0  0  0  0  0  0  0  0  0
  142.0715   72.6686  225.9874 H   0  0  0  0  0  0  0  0  0  0  0  0
  140.8790   72.1390  227.7200 C   0  0  0  0  0  0  0  0  0  0  0  0
  141.0526   73.0992  228.2279 H   0  0  0  0  0  0  0  0  0  0  0  0
  140.0880   71.1640  228.3230 C   0  0  0  0  0  0  0  0  0  0  0  0
  139.6308   71.3564  229.3048 H   0  0  0  0  0  0  0  0  0  0  0  0
  139.8750   69.9400  227.6800 C   0  0  0  0  0  0  0  0  0  0  0  0
  139.2466   69.1745  228.1586 H   0  0  0  0  0  0  0  0  0  0  0  0
  140.5530   67.1910  226.6950 C   0  0  0  0  0  0  0  0  0  0  0  0
  140.4582   67.5383  227.7344 H   0  0  0  0  0  0  0  0  0  0  0  0
  139.8472   66.3660  226.5182 H   0  0  0  0  0  0  0  0  0  0  0  0
  141.5801   66.8390  226.5182 H   0  0  0  0  0  0  0  0  0  0  0  0
  140.3010   70.9770  221.5280 C   0  0  0  0  0  0  0  0  0  0  0  0
  140.3430   69.8778  221.5316 H   0  0  0  0  0  0  0  0  0  0  0  0
  139.7838   71.3122  220.6169 H   0  0  0  0  0  0  0  0  0  0  0  0
  141.6550   71.5200  221.5590 N   0  0  0  0  0  0  0  0  0  0  0  0
  142.0960   72.5260  220.6380 C   0  0  0  0  0  0  0  0  0  0  0  0
  142.7920   72.2100  219.6400 O   0  0  0  0  0  0  0  0  0  0  0  0
  141.8020   73.9450  220.8990 C   0  0  0  0  0  0  0  0  0  0  0  0
  140.7240   74.2770  221.6680 N   0  0  0  0  0  0  0  0  0  0  0  0
  140.3190   75.5660  221.8340 C   0  0  0  0  0  0  0  0  0  0  0  0
  139.1910   75.8560  222.6090 C   0  0  0  0  0  0  0  0  0  0  0  0
  138.6591   75.0463  223.1300 H   0  0  0  0  0  0  0  0  0  0  0  0
  138.7380   77.1780  222.7220 C   0  0  0  0  0  0  0  0  0  0  0  0
  137.8459   77.4012  223.3256 H   0  0  0  0  0  0  0  0  0  0  0  0
  139.4160   78.2160  222.0700 C   0  0  0  0  0  0  0  0  0  0  0  0
  138.9540   79.4850  222.1520 F   0  0  0  0  0  0  0  0  0  0  0  0
  140.5600   77.9400  221.3160 C   0  0  0  0  0  0  0  0  0  0  0  0
  141.1035   78.7581  220.8207 H   0  0  0  0  0  0  0  0  0  0  0  0
  141.0160   76.6140  221.1910 C   0  0  0  0  0  0  0  0  0  0  0  0
  142.1420   76.3010  220.4230 C   0  0  0  0  0  0  0  0  0  0  0  0
  142.7144   77.1030  219.9340 H   0  0  0  0  0  0  0  0  0  0  0  0
  142.5420   74.9630  220.2760 C   0  0  0  0  0  0  0  0  0  0  0  0
  143.4298   74.7137  219.6763 H   0  0  0  0  0  0  0  0  0  0  0  0
  1  2  1  0
  2  3  1  0
  3  4  2  0
  4  5  1  0
  5  6  1  0
  5  7  1  0
  5  8  1  0
  8  9  1  6
  8 10  1  0
 10 11  1  0
  8 12  1  0
 12 13  1  0
 12 14  1  0
 12 15  1  0
 15 16  1  1
 15 17  1  0
 17 18  2  0
 17 19  1  0
 19 20  1  0
 20 21  1  6
 20 22  1  0
 22 23  2  0
 23 24  1  0
 23 25  1  0
 25 26  1  0
 25 27  2  0
 27 28  1  0
 27 29  1  0
 29 30  1  0
 29 31  2  0
 31 32  1  0
 20 33  1  0
 33 34  1  0
 33 35  1  0
 33 36  1  0
  3 37  1  0
 37 38  1  0
 37 39  1  0
 37 40  1  0
 40 41  1  0
 41 42  2  0
 41 43  1  0
 43 44  2  0
 44 45  1  0
 45 46  2  0
 46 47  1  0
 46 48  1  0
 48 49  1  0
 48 50  2  0
 50 51  1  0
 50 52  1  0
 52 53  1  0
 52 54  2  0
 54 55  1  0
 55 56  1  0
 55 57  2  0
 57 58  1  0
 15  4  1  0
 31 22  1  0
 57 43  1  0
 54 45  1  0
M  CHG  3   4   1  19  -1  40  -1
M  END
>  <UniqueID>  (46) 
86

>  <SMILES>  (46) 
C[C@@H]([N-]C(=O)[C@@H]1C[C@@H](O)C/[N+]1=C(/O)C[N-]C(=O)c1ccc2cc(F)ccc2n1)c1ccccc1

>  <Energy>  (46) 
64.04925467578332

>  <Genealogy>  (46) 
C[C@@H]([N-]C(=O)[C@@H]1C[C@@H](O)C[NH+]1C(=O)C[N-]C(=O)c1ccc2cc(F)ccc2n1)c1ccccc1 (protonated)
C[C@@H]([N-]C(=O)[C@@H]1C[C@@H](O)C[N+]1=C(O)C[N-]C(=O)c1ccc2cc(F)ccc2n1)c1ccccc1 (tautomer)
C[C@@H]([N-]C(=O)[C@@H]1C[C@@H](O)C/[N+]1=C(/O)C[N-]C(=O)c1ccc2cc(F)ccc2n1)c1ccccc1 (cis-trans isomerization)
C[C@@H]([N-]C(=O)[C@@H]1C[C@@H](O)C/[N+]1=C(/O)C[N-]C(=O)c1ccc2cc(F)ccc2n1)c1ccccc1 (3D coordinates assigned)
C[C@@H]([N-]C(=O)[C@@H]1C[C@@H](O)C/[N+]1=C(/O)C[N-]C(=O)c1ccc2cc(F)ccc2n1)c1ccccc1 (nonaromatic ring conformer: 64.04925467578332 kcal/mol)

>  <smiles>  (46) 
C[C@@H](NC(=O)[C@@H]1C[C@@H](O)CN1C(=O)CNC(=O)c1ccc2cc(F)ccc2n1)c1ccccc1

>  <score_type>  (46) 
oracle

>  <origin>  (46) 
autodockgpu

>  <m_score__min__energy>  (46) 
-8.9499999999999993

>  <m_primary>  (46) 
energy

>  <meeko>  (46) 
{"free_energy": -6.38, "intermolecular_energy": -9.66, "internal_energy": -3.65, "cluster_size": 1, "cluster_id": 4, "rank_in_cluster": 1}

>  <energy>  (46) 
-7.79

>  <cluster_rmsd>  (46) 
1.6

>  <rmsd>  (46) 
272.21

>  <cluster>  (46) 
1

$$$$
DWYNEBQVPRLYJI-KZHXFCNENA-M
     RDKit          3D

 58 61  0  0  0  0  0  0  0  0999 V2000
  139.4530   73.6160  223.0940 H   0  0  0  0  0  0  0  0  0  0  0  0
  139.5850   74.5370  222.7200 O   0  0  0  0  0  0  0  0  0  0  0  0
  139.7440   74.8000  221.3550 C   0  0  0  0  0  0  0  0  0  0  0  0
  140.4550   75.8220  220.9280 N   0  0  0  0  0  0  0  0  0  0  0  0
  141.3140   75.7810  219.7410 C   0  0  0  0  0  0  0  0  0  0  0  0
  140.7158   75.5611  218.8445 H   0  0  0  0  0  0  0  0  0  0  0  0
  142.0786   74.9947  219.8257 H   0  0  0  0  0  0  0  0  0  0  0  0
  141.9490   77.1670  219.6280 C   0  0  2  0  0  0  0  0  0  0  0  0
  141.4689   77.7833  218.8536 H   0  0  0  0  0  0  0  0  0  0  0  0
  143.3010   77.0670  219.2510 O   0  0  0  0  0  0  0  0  0  0  0  0
  143.8260   77.5100  219.9570 H   0  0  0  0  0  0  0  0  0  0  0  0
  141.7890   77.7980  221.0160 C   0  0  0  0  0  0  0  0  0  0  0  0
  141.5976   78.8777  220.9284 H   0  0  0  0  0  0  0  0  0  0  0  0
  142.6978   77.6837  221.6251 H   0  0  0  0  0  0  0  0  0  0  0  0
  140.5870   77.0900  221.6470 C   0  0  1  0  0  0  0  0  0  0  0  0
  140.7312   76.9243  222.7248 H   0  0  0  0  0  0  0  0  0  0  0  0
  139.3430   77.9260  221.5200 C   0  0  0  0  0  0  0  0  0  0  0  0
  139.0000   78.3980  220.4030 O   0  0  0  0  0  0  0  0  0  0  0  0
  138.5850   78.2240  222.6960 N   0  0  0  0  0  0  0  0  0  0  0  0
  138.8020   79.4120  223.5160 C   0  0  1  0  0  0  0  0  0  0  0  0
  138.6658   79.1550  224.5769 H   0  0  0  0  0  0  0  0  0  0  0  0
  140.2170   79.9230  223.3310 C   0  0  0  0  0  0  0  0  0  0  0  0
  141.2920   79.3130  223.9990 C   0  0  0  0  0  0  0  0  0  0  0  0
  141.1108   78.4490  224.6552 H   0  0  0  0  0  0  0  0  0  0  0  0
  142.5910   79.8010  223.8320 C   0  0  0  0  0  0  0  0  0  0  0  0
  143.4285   79.3199  224.3584 H   0  0  0  0  0  0  0  0  0  0  0  0
  142.8310   80.8990  222.9980 C   0  0  0  0  0  0  0  0  0  0  0  0
  143.8540   81.2844  222.8760 H   0  0  0  0  0  0  0  0  0  0  0  0
  141.7740   81.5030  222.3230 C   0  0  0  0  0  0  0  0  0  0  0  0
  141.9626   82.3618  221.6621 H   0  0  0  0  0  0  0  0  0  0  0  0
  140.4720   81.0180  222.4850 C   0  0  0  0  0  0  0  0  0  0  0  0
  139.6407   81.4966  221.9466 H   0  0  0  0  0  0  0  0  0  0  0  0
  137.7850   80.4880  223.1310 C   0  0  0  0  0  0  0  0  0  0  0  0
  137.3620   80.9356  224.0424 H   0  0  0  0  0  0  0  0  0  0  0  0
  138.2836   81.2680  222.5369 H   0  0  0  0  0  0  0  0  0  0  0  0
  136.9782   80.0341  222.5369 H   0  0  0  0  0  0  0  0  0  0  0  0
  139.1420   73.8010  220.4000 C   0  0  0  0  0  0  0  0  0  0  0  0
  138.1506   74.1503  220.0759 H   0  0  0  0  0  0  0  0  0  0  0  0
  139.7892   73.6904  219.5174 H   0  0  0  0  0  0  0  0  0  0  0  0
  139.0110   72.5180  221.0830 N   0  0  0  0  0  0  0  0  0  0  0  0
  140.1070   71.9040  221.7700 C   0  0  0  0  0  0  0  0  0  0  0  0
  141.2450   71.8590  221.2350 O   0  0  0  0  0  0  0  0  0  0  0  0
  139.8920   71.2510  223.0720 C   0  0  0  0  0  0  0  0  0  0  0  0
  140.3600   71.8480  224.2080 N   0  0  0  0  0  0  0  0  0  0  0  0
  140.3140   71.2370  225.4230 C   0  0  0  0  0  0  0  0  0  0  0  0
  140.8320   71.8770  226.5540 C   0  0  0  0  0  0  0  0  0  0  0  0
  141.2300   72.8993  226.4733 H   0  0  0  0  0  0  0  0  0  0  0  0
  140.8440   71.2160  227.7900 C   0  0  0  0  0  0  0  0  0  0  0  0
  141.2583   71.7197  228.6758 H   0  0  0  0  0  0  0  0  0  0  0  0
  140.3310   69.9170  227.9030 C   0  0  0  0  0  0  0  0  0  0  0  0
  140.3790   69.2690  229.0900 F   0  0  0  0  0  0  0  0  0  0  0  0
  139.7870   69.2790  226.7840 C   0  0  0  0  0  0  0  0  0  0  0  0
  139.3667   68.2667  226.8772 H   0  0  0  0  0  0  0  0  0  0  0  0
  139.7780   69.9340  225.5380 C   0  0  0  0  0  0  0  0  0  0  0  0
  139.2650   69.3140  224.3940 C   0  0  0  0  0  0  0  0  0  0  0  0
  138.8201   68.3105  224.4648 H   0  0  0  0  0  0  0  0  0  0  0  0
  139.3180   69.9730  223.1550 C   0  0  0  0  0  0  0  0  0  0  0  0
  138.9117   69.4899  222.2541 H   0  0  0  0  0  0  0  0  0  0  0  0
  1  2  1  0
  2  3  1  0
  3  4  2  0
  4  5  1  0
  5  6  1  0
  5  7  1  0
  5  8  1  0
  8  9  1  6
  8 10  1  0
 10 11  1  0
  8 12  1  0
 12 13  1  0
 12 14  1  0
 12 15  1  0
 15 16  1  1
 15 17  1  0
 17 18  2  0
 17 19  1  0
 19 20  1  0
 20 21  1  1
 20 22  1  0
 22 23  2  0
 23 24  1  0
 23 25  1  0
 25 26  1  0
 25 27  2  0
 27 28  1  0
 27 29  1  0
 29 30  1  0
 29 31  2  0
 31 32  1  0
 20 33  1  0
 33 34  1  0
 33 35  1  0
 33 36  1  0
  3 37  1  0
 37 38  1  0
 37 39  1  0
 37 40  1  0
 40 41  1  0
 41 42  2  0
 41 43  1  0
 43 44  2  0
 44 45  1  0
 45 46  2  0
 46 47  1  0
 46 48  1  0
 48 49  1  0
 48 50  2  0
 50 51  1  0
 50 52  1  0
 52 53  1  0
 52 54  2  0
 54 55  1  0
 55 56  1  0
 55 57  2  0
 57 58  1  0
 15  4  1  0
 31 22  1  0
 57 43  1  0
 54 45  1  0
M  CHG  3   4   1  19  -1  40  -1
M  END
>  <UniqueID>  (47) 
86

>  <SMILES>  (47) 
C[C@@H]([N-]C(=O)[C@@H]1C[C@@H](O)C/[N+]1=C(/O)C[N-]C(=O)c1ccc2cc(F)ccc2n1)c1ccccc1

>  <Energy>  (47) 
64.04925467578332

>  <Genealogy>  (47) 
C[C@@H]([N-]C(=O)[C@@H]1C[C@@H](O)C[NH+]1C(=O)C[N-]C(=O)c1ccc2cc(F)ccc2n1)c1ccccc1 (protonated)
C[C@@H]([N-]C(=O)[C@@H]1C[C@@H](O)C[N+]1=C(O)C[N-]C(=O)c1ccc2cc(F)ccc2n1)c1ccccc1 (tautomer)
C[C@@H]([N-]C(=O)[C@@H]1C[C@@H](O)C/[N+]1=C(/O)C[N-]C(=O)c1ccc2cc(F)ccc2n1)c1ccccc1 (cis-trans isomerization)
C[C@@H]([N-]C(=O)[C@@H]1C[C@@H](O)C/[N+]1=C(/O)C[N-]C(=O)c1ccc2cc(F)ccc2n1)c1ccccc1 (3D coordinates assigned)
C[C@@H]([N-]C(=O)[C@@H]1C[C@@H](O)C/[N+]1=C(/O)C[N-]C(=O)c1ccc2cc(F)ccc2n1)c1ccccc1 (nonaromatic ring conformer: 64.04925467578332 kcal/mol)

>  <smiles>  (47) 
C[C@@H](NC(=O)[C@@H]1C[C@@H](O)CN1C(=O)CNC(=O)c1ccc2cc(F)ccc2n1)c1ccccc1

>  <score_type>  (47) 
oracle

>  <origin>  (47) 
autodockgpu

>  <m_score__min__energy>  (47) 
-8.9499999999999993

>  <m_primary>  (47) 
energy

>  <meeko>  (47) 
{"free_energy": -8.07, "intermolecular_energy": -11.36, "internal_energy": -3.15, "cluster_size": 14, "cluster_id": 1, "rank_in_cluster": 5}

>  <energy>  (47) 
-7.78

>  <cluster_rmsd>  (47) 
1.57

>  <rmsd>  (47) 
272.24

>  <cluster>  (47) 
1

$$$$
DWYNEBQVPRLYJI-KZHXFCNENA-M
     RDKit          3D

 58 61  0  0  0  0  0  0  0  0999 V2000
  139.5210   72.4460  219.7900 H   0  0  0  0  0  0  0  0  0  0  0  0
  139.8860   73.3520  219.5600 O   0  0  0  0  0  0  0  0  0  0  0  0
  140.8930   73.9850  220.2960 C   0  0  0  0  0  0  0  0  0  0  0  0
  141.0750   75.2880  220.2350 N   0  0  0  0  0  0  0  0  0  0  0  0
  141.3440   76.0170  218.9920 C   0  0  0  0  0  0  0  0  0  0  0  0
  140.5070   75.8947  218.2888 H   0  0  0  0  0  0  0  0  0  0  0  0
  142.2485   75.6399  218.4924 H   0  0  0  0  0  0  0  0  0  0  0  0
  141.4950   77.4860  219.3870 C   0  0  2  0  0  0  0  0  0  0  0  0
  140.5962   78.0750  219.1519 H   0  0  0  0  0  0  0  0  0  0  0  0
  142.5450   78.0890  218.6690 O   0  0  0  0  0  0  0  0  0  0  0  0
  143.3410   78.0550  219.2500 H   0  0  0  0  0  0  0  0  0  0  0  0
  141.7670   77.4740  220.8950 C   0  0  0  0  0  0  0  0  0  0  0  0
  141.2851   78.3356  221.3802 H   0  0  0  0  0  0  0  0  0  0  0  0
  142.8419   77.5429  221.1182 H   0  0  0  0  0  0  0  0  0  0  0  0
  141.1610   76.1630  221.4050 C   0  0  1  0  0  0  0  0  0  0  0  0
  141.7755   75.7102  222.1970 H   0  0  0  0  0  0  0  0  0  0  0  0
  139.8080   76.3990  222.0160 C   0  0  0  0  0  0  0  0  0  0  0  0
  139.1870   75.4580  222.5810 O   0  0  0  0  0  0  0  0  0  0  0  0
  139.2090   77.6930  221.8980 N   0  0  0  0  0  0  0  0  0  0  0  0
  139.0580   78.6180  223.0170 C   0  0  1  0  0  0  0  0  0  0  0  0
  138.9673   78.0488  223.9539 H   0  0  0  0  0  0  0  0  0  0  0  0
  140.2770   79.5120  223.1240 C   0  0  0  0  0  0  0  0  0  0  0  0
  141.4390   79.0640  223.7740 C   0  0  0  0  0  0  0  0  0  0  0  0
  141.4727   78.0510  224.2014 H   0  0  0  0  0  0  0  0  0  0  0  0
  142.5520   79.9020  223.8790 C   0  0  0  0  0  0  0  0  0  0  0  0
  143.4583   79.5463  224.3910 H   0  0  0  0  0  0  0  0  0  0  0  0
  142.5200   81.1920  223.3360 C   0  0  0  0  0  0  0  0  0  0  0  0
  143.3966   81.8502  223.4281 H   0  0  0  0  0  0  0  0  0  0  0  0
  141.3770   81.6410  222.6790 C   0  0  0  0  0  0  0  0  0  0  0  0
  141.3526   82.6522  222.2466 H   0  0  0  0  0  0  0  0  0  0  0  0
  140.2600   80.8060  222.5690 C   0  0  0  0  0  0  0  0  0  0  0  0
  139.3613   81.1631  222.0448 H   0  0  0  0  0  0  0  0  0  0  0  0
  137.7910   79.4530  222.8180 C   0  0  0  0  0  0  0  0  0  0  0  0
  137.3748   79.7273  223.7986 H   0  0  0  0  0  0  0  0  0  0  0  0
  138.0380   80.3659  222.2562 H   0  0  0  0  0  0  0  0  0  0  0  0
  137.0495   78.8660  222.2562 H   0  0  0  0  0  0  0  0  0  0  0  0
  141.6940   73.1180  221.2330 C   0  0  0  0  0  0  0  0  0  0  0  0
  142.6830   72.9160  220.7958 H   0  0  0  0  0  0  0  0  0  0  0  0
  141.8270   73.6314  222.1967 H   0  0  0  0  0  0  0  0  0  0  0  0
  140.9800   71.8610  221.4340 N   0  0  0  0  0  0  0  0  0  0  0  0
  139.7540   71.7890  222.1720 C   0  0  0  0  0  0  0  0  0  0  0  0
  138.7560   72.4630  221.8100 O   0  0  0  0  0  0  0  0  0  0  0  0
  139.6790   70.9850  223.4030 C   0  0  0  0  0  0  0  0  0  0  0  0
  140.2370   71.4650  224.5540 N   0  0  0  0  0  0  0  0  0  0  0  0
  140.3210   70.7170  225.6870 C   0  0  0  0  0  0  0  0  0  0  0  0
  140.9260   71.2420  226.8340 C   0  0  0  0  0  0  0  0  0  0  0  0
  141.2874   72.2809  226.8382 H   0  0  0  0  0  0  0  0  0  0  0  0
  141.0720   70.4450  227.9780 C   0  0  0  0  0  0  0  0  0  0  0  0
  141.5555   70.8587  228.8752 H   0  0  0  0  0  0  0  0  0  0  0  0
  140.6050   69.1240  227.9840 C   0  0  0  0  0  0  0  0  0  0  0  0
  140.7800   68.3470  229.0780 F   0  0  0  0  0  0  0  0  0  0  0  0
  139.9740   68.5990  226.8520 C   0  0  0  0  0  0  0  0  0  0  0  0
  139.5900   67.5683  226.8637 H   0  0  0  0  0  0  0  0  0  0  0  0
  139.8310   69.3910  225.6980 C   0  0  0  0  0  0  0  0  0  0  0  0
  139.2290   68.8880  224.5400 C   0  0  0  0  0  0  0  0  0  0  0  0
  138.8188   67.8674  224.5326 H   0  0  0  0  0  0  0  0  0  0  0  0
  139.1480   69.6850  223.3870 C   0  0  0  0  0  0  0  0  0  0  0  0
  138.6713   69.2934  222.4763 H   0  0  0  0  0  0  0  0  0  0  0  0
  1  2  1  0
  2  3  1  0
  3  4  2  0
  4  5  1  0
  5  6  1  0
  5  7  1  0
  5  8  1  0
  8  9  1  1
  8 10  1  0
 10 11  1  0
  8 12  1  0
 12 13  1  0
 12 14  1  0
 12 15  1  0
 15 16  1  1
 15 17  1  0
 17 18  2  0
 17 19  1  0
 19 20  1  0
 20 21  1  1
 20 22  1  0
 22 23  2  0
 23 24  1  0
 23 25  1  0
 25 26  1  0
 25 27  2  0
 27 28  1  0
 27 29  1  0
 29 30  1  0
 29 31  2  0
 31 32  1  0
 20 33  1  0
 33 34  1  0
 33 35  1  0
 33 36  1  0
  3 37  1  0
 37 38  1  0
 37 39  1  0
 37 40  1  0
 40 41  1  0
 41 42  2  0
 41 43  1  0
 43 44  2  0
 44 45  1  0
 45 46  2  0
 46 47  1  0
 46 48  1  0
 48 49  1  0
 48 50  2  0
 50 51  1  0
 50 52  1  0
 52 53  1  0
 52 54  2  0
 54 55  1  0
 55 56  1  0
 55 57  2  0
 57 58  1  0
 15  4  1  0
 31 22  1  0
 57 43  1  0
 54 45  1  0
M  CHG  3   4   1  19  -1  40  -1
M  END
>  <UniqueID>  (48) 
86

>  <SMILES>  (48) 
C[C@@H]([N-]C(=O)[C@@H]1C[C@@H](O)C/[N+]1=C(/O)C[N-]C(=O)c1ccc2cc(F)ccc2n1)c1ccccc1

>  <Energy>  (48) 
64.04925467578332

>  <Genealogy>  (48) 
C[C@@H]([N-]C(=O)[C@@H]1C[C@@H](O)C[NH+]1C(=O)C[N-]C(=O)c1ccc2cc(F)ccc2n1)c1ccccc1 (protonated)
C[C@@H]([N-]C(=O)[C@@H]1C[C@@H](O)C[N+]1=C(O)C[N-]C(=O)c1ccc2cc(F)ccc2n1)c1ccccc1 (tautomer)
C[C@@H]([N-]C(=O)[C@@H]1C[C@@H](O)C/[N+]1=C(/O)C[N-]C(=O)c1ccc2cc(F)ccc2n1)c1ccccc1 (cis-trans isomerization)
C[C@@H]([N-]C(=O)[C@@H]1C[C@@H](O)C/[N+]1=C(/O)C[N-]C(=O)c1ccc2cc(F)ccc2n1)c1ccccc1 (3D coordinates assigned)
C[C@@H]([N-]C(=O)[C@@H]1C[C@@H](O)C/[N+]1=C(/O)C[N-]C(=O)c1ccc2cc(F)ccc2n1)c1ccccc1 (nonaromatic ring conformer: 64.04925467578332 kcal/mol)

>  <smiles>  (48) 
C[C@@H](NC(=O)[C@@H]1C[C@@H](O)CN1C(=O)CNC(=O)c1ccc2cc(F)ccc2n1)c1ccccc1

>  <score_type>  (48) 
oracle

>  <origin>  (48) 
autodockgpu

>  <m_score__min__energy>  (48) 
-8.9499999999999993

>  <m_primary>  (48) 
energy

>  <meeko>  (48) 
{"free_energy": -7.47, "intermolecular_energy": -10.75, "internal_energy": -3.3, "cluster_size": 14, "cluster_id": 1, "rank_in_cluster": 10}

>  <energy>  (48) 
-7.74

>  <cluster_rmsd>  (48) 
1.38

>  <rmsd>  (48) 
272.43

>  <cluster>  (48) 
1

$$$$
DWYNEBQVPRLYJI-KZHXFCNENA-M
     RDKit          3D

 58 61  0  0  0  0  0  0  0  0999 V2000
  138.9720   74.1530  222.9840 H   0  0  0  0  0  0  0  0  0  0  0  0
  139.2120   74.9180  222.3810 O   0  0  0  0  0  0  0  0  0  0  0  0
  140.2700   74.8760  221.4670 C   0  0  0  0  0  0  0  0  0  0  0  0
  140.7290   75.9690  220.8940 N   0  0  0  0  0  0  0  0  0  0  0  0
  141.4440   75.9820  219.6140 C   0  0  0  0  0  0  0  0  0  0  0  0
  140.8012   75.5867  218.8137 H   0  0  0  0  0  0  0  0  0  0  0  0
  142.3453   75.3525  219.6509 H   0  0  0  0  0  0  0  0  0  0  0  0
  141.7950   77.4440  219.3390 C   0  0  2  0  0  0  0  0  0  0  0  0
  141.1263   77.8998  218.5939 H   0  0  0  0  0  0  0  0  0  0  0  0
  143.0920   77.5530  218.8040 O   0  0  0  0  0  0  0  0  0  0  0  0
  143.6890   77.7780  219.5550 H   0  0  0  0  0  0  0  0  0  0  0  0
  141.6750   78.1500  220.6940 C   0  0  0  0  0  0  0  0  0  0  0  0
  141.2785   79.1678  220.5641 H   0  0  0  0  0  0  0  0  0  0  0  0
  142.6507   78.2491  221.1921 H   0  0  0  0  0  0  0  0  0  0  0  0
  140.7020   77.2960  221.5110 C   0  0  1  0  0  0  0  0  0  0  0  0
  140.9925   77.2493  222.5709 H   0  0  0  0  0  0  0  0  0  0  0  0
  139.3180   77.8850  221.4880 C   0  0  0  0  0  0  0  0  0  0  0  0
  138.7640   78.1730  220.3930 O   0  0  0  0  0  0  0  0  0  0  0  0
  138.6630   78.1660  222.7280 N   0  0  0  0  0  0  0  0  0  0  0  0
  138.7690   79.4440  223.4260 C   0  0  1  0  0  0  0  0  0  0  0  0
  138.5190   79.3039  224.4880 H   0  0  0  0  0  0  0  0  0  0  0  0
  140.1890   79.9700  223.3390 C   0  0  0  0  0  0  0  0  0  0  0  0
  140.4670   81.1740  222.6710 C   0  0  0  0  0  0  0  0  0  0  0  0
  139.6482   81.7499  222.2151 H   0  0  0  0  0  0  0  0  0  0  0  0
  141.7800   81.6420  222.5840 C   0  0  0  0  0  0  0  0  0  0  0  0
  141.9912   82.5842  222.0571 H   0  0  0  0  0  0  0  0  0  0  0  0
  142.8290   80.9180  223.1640 C   0  0  0  0  0  0  0  0  0  0  0  0
  143.8621   81.2878  223.0873 H   0  0  0  0  0  0  0  0  0  0  0  0
  142.5620   79.7290  223.8380 C   0  0  0  0  0  0  0  0  0  0  0  0
  143.3839   79.1615  224.2989 H   0  0  0  0  0  0  0  0  0  0  0  0
  141.2480   79.2560  223.9290 C   0  0  0  0  0  0  0  0  0  0  0  0
  141.0416   78.3185  224.4661 H   0  0  0  0  0  0  0  0  0  0  0  0
  137.7860   80.4410  222.8120 C   0  0  0  0  0  0  0  0  0  0  0  0
  137.2578   80.9767  223.6145 H   0  0  0  0  0  0  0  0  0  0  0  0
  138.3360   81.1624  222.1898 H   0  0  0  0  0  0  0  0  0  0  0  0
  137.0569   79.9012  222.1898 H   0  0  0  0  0  0  0  0  0  0  0  0
  140.9200   73.5340  221.2460 C   0  0  0  0  0  0  0  0  0  0  0  0
  140.4100   73.0064  220.4265 H   0  0  0  0  0  0  0  0  0  0  0  0
  141.9787   73.6702  220.9802 H   0  0  0  0  0  0  0  0  0  0  0  0
  140.8130   72.7530  222.4740 N   0  0  0  0  0  0  0  0  0  0  0  0
  139.6380   72.0000  222.7990 C   0  0  0  0  0  0  0  0  0  0  0  0
  138.5650   72.1990  222.1750 O   0  0  0  0  0  0  0  0  0  0  0  0
  139.6600   71.0440  223.9180 C   0  0  0  0  0  0  0  0  0  0  0  0
  140.2110   71.4180  225.1110 N   0  0  0  0  0  0  0  0  0  0  0  0
  140.3850   70.5430  226.1380 C   0  0  0  0  0  0  0  0  0  0  0  0
  140.9790   70.9660  227.3320 C   0  0  0  0  0  0  0  0  0  0  0  0
  141.2587   72.0218  227.4629 H   0  0  0  0  0  0  0  0  0  0  0  0
  141.2180   70.0450  228.3620 C   0  0  0  0  0  0  0  0  0  0  0  0
  141.6922   70.3798  229.2964 H   0  0  0  0  0  0  0  0  0  0  0  0
  140.8560   68.7010  228.2070 C   0  0  0  0  0  0  0  0  0  0  0  0
  141.1220   67.8080  229.1890 F   0  0  0  0  0  0  0  0  0  0  0  0
  140.2370   68.2740  227.0280 C   0  0  0  0  0  0  0  0  0  0  0  0
  139.9356   67.2222  226.9143 H   0  0  0  0  0  0  0  0  0  0  0  0
  140.0000   69.1910  225.9870 C   0  0  0  0  0  0  0  0  0  0  0  0
  139.4070   68.7910  224.7860 C   0  0  0  0  0  0  0  0  0  0  0  0
  139.0780   67.7495  224.6555 H   0  0  0  0  0  0  0  0  0  0  0  0
  139.2310   69.7180  223.7460 C   0  0  0  0  0  0  0  0  0  0  0  0
  138.7597   69.4072  222.8019 H   0  0  0  0  0  0  0  0  0  0  0  0
  1  2  1  0
  2  3  1  0
  3  4  2  0
  4  5  1  0
  5  6  1  0
  5  7  1  0
  5  8  1  0
  8  9  1  6
  8 10  1  0
 10 11  1  0
  8 12  1  0
 12 13  1  0
 12 14  1  0
 12 15  1  0
 15 16  1  1
 15 17  1  0
 17 18  2  0
 17 19  1  0
 19 20  1  0
 20 21  1  1
 20 22  1  0
 22 23  2  0
 23 24  1  0
 23 25  1  0
 25 26  1  0
 25 27  2  0
 27 28  1  0
 27 29  1  0
 29 30  1  0
 29 31  2  0
 31 32  1  0
 20 33  1  0
 33 34  1  0
 33 35  1  0
 33 36  1  0
  3 37  1  0
 37 38  1  0
 37 39  1  0
 37 40  1  0
 40 41  1  0
 41 42  2  0
 41 43  1  0
 43 44  2  0
 44 45  1  0
 45 46  2  0
 46 47  1  0
 46 48  1  0
 48 49  1  0
 48 50  2  0
 50 51  1  0
 50 52  1  0
 52 53  1  0
 52 54  2  0
 54 55  1  0
 55 56  1  0
 55 57  2  0
 57 58  1  0
 15  4  1  0
 31 22  1  0
 57 43  1  0
 54 45  1  0
M  CHG  3   4   1  19  -1  40  -1
M  END
>  <UniqueID>  (49) 
86

>  <SMILES>  (49) 
C[C@@H]([N-]C(=O)[C@@H]1C[C@@H](O)C/[N+]1=C(/O)C[N-]C(=O)c1ccc2cc(F)ccc2n1)c1ccccc1

>  <Energy>  (49) 
64.04925467578332

>  <Genealogy>  (49) 
C[C@@H]([N-]C(=O)[C@@H]1C[C@@H](O)C[NH+]1C(=O)C[N-]C(=O)c1ccc2cc(F)ccc2n1)c1ccccc1 (protonated)
C[C@@H]([N-]C(=O)[C@@H]1C[C@@H](O)C[N+]1=C(O)C[N-]C(=O)c1ccc2cc(F)ccc2n1)c1ccccc1 (tautomer)
C[C@@H]([N-]C(=O)[C@@H]1C[C@@H](O)C/[N+]1=C(/O)C[N-]C(=O)c1ccc2cc(F)ccc2n1)c1ccccc1 (cis-trans isomerization)
C[C@@H]([N-]C(=O)[C@@H]1C[C@@H](O)C/[N+]1=C(/O)C[N-]C(=O)c1ccc2cc(F)ccc2n1)c1ccccc1 (3D coordinates assigned)
C[C@@H]([N-]C(=O)[C@@H]1C[C@@H](O)C/[N+]1=C(/O)C[N-]C(=O)c1ccc2cc(F)ccc2n1)c1ccccc1 (nonaromatic ring conformer: 64.04925467578332 kcal/mol)

>  <smiles>  (49) 
C[C@@H](NC(=O)[C@@H]1C[C@@H](O)CN1C(=O)CNC(=O)c1ccc2cc(F)ccc2n1)c1ccccc1

>  <score_type>  (49) 
oracle

>  <origin>  (49) 
autodockgpu

>  <m_score__min__energy>  (49) 
-8.9499999999999993

>  <m_primary>  (49) 
energy

>  <meeko>  (49) 
{"free_energy": -8.95, "intermolecular_energy": -12.23, "internal_energy": -2.93, "cluster_size": 14, "cluster_id": 1, "rank_in_cluster": 1}

>  <energy>  (49) 
-7.6

>  <cluster_rmsd>  (49) 
1.71

>  <rmsd>  (49) 
272.18

>  <cluster>  (49) 
1

$$$$
DWYNEBQVPRLYJI-KZHXFCNENA-M
     RDKit          3D

 58 61  0  0  0  0  0  0  0  0999 V2000
  139.4390   73.2910  220.6240 H   0  0  0  0  0  0  0  0  0  0  0  0
  139.9420   73.8930  219.9980 O   0  0  0  0  0  0  0  0  0  0  0  0
  141.3380   73.9930  219.9820 C   0  0  0  0  0  0  0  0  0  0  0  0
  141.9530   74.9300  219.2920 N   0  0  0  0  0  0  0  0  0  0  0  0
  142.2940   74.8080  217.8720 C   0  0  0  0  0  0  0  0  0  0  0  0
  141.3824   74.6775  217.2705 H   0  0  0  0  0  0  0  0  0  0  0  0
  142.9365   73.9345  217.6869 H   0  0  0  0  0  0  0  0  0  0  0  0
  142.9990   76.1100  217.4910 C   0  0  2  0  0  0  0  0  0  0  0  0
  142.3399   76.7931  216.9352 H   0  0  0  0  0  0  0  0  0  0  0  0
  144.0890   75.8560  216.6390 O   0  0  0  0  0  0  0  0  0  0  0  0
  144.9040   75.9640  217.1820 H   0  0  0  0  0  0  0  0  0  0  0  0
  143.4450   76.7310  218.8190 C   0  0  0  0  0  0  0  0  0  0  0  0
  143.3621   77.8271  218.7785 H   0  0  0  0  0  0  0  0  0  0  0  0
  144.4957   76.4988  219.0471 H   0  0  0  0  0  0  0  0  0  0  0  0
  142.4930   76.1600  219.8740 C   0  0  1  0  0  0  0  0  0  0  0  0
  143.0102   75.9588  220.8237 H   0  0  0  0  0  0  0  0  0  0  0  0
  141.4000   77.1400  220.1980 C   0  0  0  0  0  0  0  0  0  0  0  0
  141.5150   78.3560  219.8840 O   0  0  0  0  0  0  0  0  0  0  0  0
  140.2510   76.6850  220.9180 N   0  0  0  0  0  0  0  0  0  0  0  0
  140.0740   76.8670  222.3560 C   0  0  1  0  0  0  0  0  0  0  0  0
  140.6696   76.1168  222.8968 H   0  0  0  0  0  0  0  0  0  0  0  0
  140.5560   78.2440  222.7700 C   0  0  0  0  0  0  0  0  0  0  0  0
  139.7930   79.3880  222.4770 C   0  0  0  0  0  0  0  0  0  0  0  0
  138.8313   79.2866  221.9527 H   0  0  0  0  0  0  0  0  0  0  0  0
  140.2530   80.6530  222.8500 C   0  0  0  0  0  0  0  0  0  0  0  0
  139.6528   81.5446  222.6158 H   0  0  0  0  0  0  0  0  0  0  0  0
  141.4750   80.7920  223.5210 C   0  0  0  0  0  0  0  0  0  0  0  0
  141.8367   81.7911  223.8056 H   0  0  0  0  0  0  0  0  0  0  0  0
  142.2310   79.6630  223.8270 C   0  0  0  0  0  0  0  0  0  0  0  0
  143.1870   79.7695  224.3606 H   0  0  0  0  0  0  0  0  0  0  0  0
  141.7750   78.3940  223.4560 C   0  0  0  0  0  0  0  0  0  0  0  0
  142.3747   77.5055  223.7027 H   0  0  0  0  0  0  0  0  0  0  0  0
  138.5990   76.6810  222.7150 C   0  0  0  0  0  0  0  0  0  0  0  0
  138.4869   76.6669  223.8092 H   0  0  0  0  0  0  0  0  0  0  0  0
  138.0122   77.5123  222.2970 H   0  0  0  0  0  0  0  0  0  0  0  0
  138.2370   75.7301  222.2970 H   0  0  0  0  0  0  0  0  0  0  0  0
  142.0950   73.0350  220.8670 C   0  0  0  0  0  0  0  0  0  0  0  0
  142.8162   72.4646  220.2632 H   0  0  0  0  0  0  0  0  0  0  0  0
  142.6401   73.5927  221.6428 H   0  0  0  0  0  0  0  0  0  0  0  0
  141.1430   72.1200  221.4890 N   0  0  0  0  0  0  0  0  0  0  0  0
  140.3460   72.4990  222.6180 C   0  0  0  0  0  0  0  0  0  0  0  0
  139.8760   73.6620  222.7000 O   0  0  0  0  0  0  0  0  0  0  0  0
  140.1380   71.5530  223.7260 C   0  0  0  0  0  0  0  0  0  0  0  0
  140.5920   71.8710  224.9750 N   0  0  0  0  0  0  0  0  0  0  0  0
  140.5530   70.9880  226.0090 C   0  0  0  0  0  0  0  0  0  0  0  0
  141.0550   71.3490  227.2640 C   0  0  0  0  0  0  0  0  0  0  0  0
  141.4343   72.3678  227.4319 H   0  0  0  0  0  0  0  0  0  0  0  0
  141.0750   70.4130  228.3080 C   0  0  0  0  0  0  0  0  0  0  0  0
  141.4778   70.6985  229.2910 H   0  0  0  0  0  0  0  0  0  0  0  0
  140.5850   69.1170  228.1060 C   0  0  0  0  0  0  0  0  0  0  0  0
  140.6400   68.2060  229.1050 F   0  0  0  0  0  0  0  0  0  0  0  0
  140.0570   68.7540  226.8630 C   0  0  0  0  0  0  0  0  0  0  0  0
  139.6554   67.7414  226.7098 H   0  0  0  0  0  0  0  0  0  0  0  0
  140.0400   69.6860  225.8080 C   0  0  0  0  0  0  0  0  0  0  0  0
  139.5420   69.3470  224.5460 C   0  0  0  0  0  0  0  0  0  0  0  0
  139.1151   68.3480  224.3734 H   0  0  0  0  0  0  0  0  0  0  0  0
  139.5870   70.2820  223.4990 C   0  0  0  0  0  0  0  0  0  0  0  0
  139.1925   70.0197  222.5062 H   0  0  0  0  0  0  0  0  0  0  0  0
  1  2  1  0
  2  3  1  0
  3  4  2  0
  4  5  1  0
  5  6  1  0
  5  7  1  0
  5  8  1  0
  8  9  1  6
  8 10  1  0
 10 11  1  0
  8 12  1  0
 12 13  1  0
 12 14  1  0
 12 15  1  0
 15 16  1  1
 15 17  1  0
 17 18  2  0
 17 19  1  0
 19 20  1  0
 20 21  1  1
 20 22  1  0
 22 23  2  0
 23 24  1  0
 23 25  1  0
 25 26  1  0
 25 27  2  0
 27 28  1  0
 27 29  1  0
 29 30  1  0
 29 31  2  0
 31 32  1  0
 20 33  1  0
 33 34  1  0
 33 35  1  0
 33 36  1  0
  3 37  1  0
 37 38  1  0
 37 39  1  0
 37 40  1  0
 40 41  1  0
 41 42  2  0
 41 43  1  0
 43 44  2  0
 44 45  1  0
 45 46  2  0
 46 47  1  0
 46 48  1  0
 48 49  1  0
 48 50  2  0
 50 51  1  0
 50 52  1  0
 52 53  1  0
 52 54  2  0
 54 55  1  0
 55 56  1  0
 55 57  2  0
 57 58  1  0
 15  4  1  0
 31 22  1  0
 57 43  1  0
 54 45  1  0
M  CHG  3   4   1  19  -1  40  -1
M  END
>  <UniqueID>  (50) 
86

>  <SMILES>  (50) 
C[C@@H]([N-]C(=O)[C@@H]1C[C@@H](O)C/[N+]1=C(/O)C[N-]C(=O)c1ccc2cc(F)ccc2n1)c1ccccc1

>  <Energy>  (50) 
64.04925467578332

>  <Genealogy>  (50) 
C[C@@H]([N-]C(=O)[C@@H]1C[C@@H](O)C[NH+]1C(=O)C[N-]C(=O)c1ccc2cc(F)ccc2n1)c1ccccc1 (protonated)
C[C@@H]([N-]C(=O)[C@@H]1C[C@@H](O)C[N+]1=C(O)C[N-]C(=O)c1ccc2cc(F)ccc2n1)c1ccccc1 (tautomer)
C[C@@H]([N-]C(=O)[C@@H]1C[C@@H](O)C/[N+]1=C(/O)C[N-]C(=O)c1ccc2cc(F)ccc2n1)c1ccccc1 (cis-trans isomerization)
C[C@@H]([N-]C(=O)[C@@H]1C[C@@H](O)C/[N+]1=C(/O)C[N-]C(=O)c1ccc2cc(F)ccc2n1)c1ccccc1 (3D coordinates assigned)
C[C@@H]([N-]C(=O)[C@@H]1C[C@@H](O)C/[N+]1=C(/O)C[N-]C(=O)c1ccc2cc(F)ccc2n1)c1ccccc1 (nonaromatic ring conformer: 64.04925467578332 kcal/mol)

>  <smiles>  (50) 
C[C@@H](NC(=O)[C@@H]1C[C@@H](O)CN1C(=O)CNC(=O)c1ccc2cc(F)ccc2n1)c1ccccc1

>  <score_type>  (50) 
oracle

>  <origin>  (50) 
autodockgpu

>  <m_score__min__energy>  (50) 
-8.9499999999999993

>  <m_primary>  (50) 
energy

>  <meeko>  (50) 
{"free_energy": -7.79, "intermolecular_energy": -11.07, "internal_energy": -3.17, "cluster_size": 14, "cluster_id": 1, "rank_in_cluster": 6}

>  <energy>  (50) 
-7.47

>  <cluster_rmsd>  (50) 
1.07

>  <rmsd>  (50) 
272.33

>  <cluster>  (50) 
1

$$$$
DWYNEBQVPRLYJI-KZHXFCNENA-M
     RDKit          3D

 58 61  0  0  0  0  0  0  0  0999 V2000
  141.3550   76.2410  222.5860 H   0  0  0  0  0  0  0  0  0  0  0  0
  140.4030   76.5340  222.7070 O   0  0  0  0  0  0  0  0  0  0  0  0
  139.3050   75.7830  222.2750 C   0  0  0  0  0  0  0  0  0  0  0  0
  138.0870   76.2840  222.2720 N   0  0  0  0  0  0  0  0  0  0  0  0
  136.9760   75.7330  223.0530 C   0  0  0  0  0  0  0  0  0  0  0  0
  137.2096   75.7697  224.1273 H   0  0  0  0  0  0  0  0  0  0  0  0
  136.7867   74.6807  222.7945 H   0  0  0  0  0  0  0  0  0  0  0  0
  135.7630   76.6100  222.7440 C   0  0  2  0  0  0  0  0  0  0  0  0
  135.5457   77.3211  223.5546 H   0  0  0  0  0  0  0  0  0  0  0  0
  134.6030   75.8260  222.6050 O   0  0  0  0  0  0  0  0  0  0  0  0
  133.8690   76.3280  223.0310 H   0  0  0  0  0  0  0  0  0  0  0  0
  136.1160   77.3430  221.4450 C   0  0  0  0  0  0  0  0  0  0  0  0
  135.7118   78.3660  221.4582 H   0  0  0  0  0  0  0  0  0  0  0  0
  135.6889   76.8424  220.5635 H   0  0  0  0  0  0  0  0  0  0  0  0
  137.6460   77.3720  221.3980 C   0  0  1  0  0  0  0  0  0  0  0  0
  138.0256   77.2400  220.3741 H   0  0  0  0  0  0  0  0  0  0  0  0
  138.1720   78.7010  221.8670 C   0  0  0  0  0  0  0  0  0  0  0  0
  138.6630   79.5210  221.0450 O   0  0  0  0  0  0  0  0  0  0  0  0
  138.1600   78.9970  223.2670 N   0  0  0  0  0  0  0  0  0  0  0  0
  138.8130   80.1650  223.8500 C   0  0  1  0  0  0  0  0  0  0  0  0
  138.7282   80.1240  224.9460 H   0  0  0  0  0  0  0  0  0  0  0  0
  140.2860   80.1740  223.4900 C   0  0  0  0  0  0  0  0  0  0  0  0
  140.8600   81.2850  222.8510 C   0  0  0  0  0  0  0  0  0  0  0  0
  140.2407   82.1636  222.6174 H   0  0  0  0  0  0  0  0  0  0  0  0
  142.2150   81.2780  222.5110 C   0  0  0  0  0  0  0  0  0  0  0  0
  142.6579   82.1506  222.0086 H   0  0  0  0  0  0  0  0  0  0  0  0
  143.0120   80.1650  222.8070 C   0  0  0  0  0  0  0  0  0  0  0  0
  144.0768   80.1610  222.5309 H   0  0  0  0  0  0  0  0  0  0  0  0
  142.4550   79.0640  223.4510 C   0  0  0  0  0  0  0  0  0  0  0  0
  143.0814   78.1918  223.6896 H   0  0  0  0  0  0  0  0  0  0  0  0
  141.0990   79.0660  223.7950 C   0  0  0  0  0  0  0  0  0  0  0  0
  140.6647   78.1951  224.3077 H   0  0  0  0  0  0  0  0  0  0  0  0
  138.1260   81.4350  223.3460 C   0  0  0  0  0  0  0  0  0  0  0  0
  137.7987   82.0401  224.2043 H   0  0  0  0  0  0  0  0  0  0  0  0
  138.8326   82.0165  222.7356 H   0  0  0  0  0  0  0  0  0  0  0  0
  137.2526   81.1618  222.7356 H   0  0  0  0  0  0  0  0  0  0  0  0
  139.5970   74.4120  221.7230 C   0  0  0  0  0  0  0  0  0  0  0  0
  138.9750   73.6654  222.2384 H   0  0  0  0  0  0  0  0  0  0  0  0
  139.3700   74.3852  220.6470 H   0  0  0  0  0  0  0  0  0  0  0  0
  141.0090   74.1100  221.9410 N   0  0  0  0  0  0  0  0  0  0  0  0
  141.9500   74.0430  220.8630 C   0  0  0  0  0  0  0  0  0  0  0  0
  142.5080   72.9520  220.5770 O   0  0  0  0  0  0  0  0  0  0  0  0
  142.3280   75.2640  220.1340 C   0  0  0  0  0  0  0  0  0  0  0  0
  141.8030   76.4650  220.5180 N   0  0  0  0  0  0  0  0  0  0  0  0
  142.0030   77.6070  219.8070 C   0  0  0  0  0  0  0  0  0  0  0  0
  141.4220   78.8100  220.2250 C   0  0  0  0  0  0  0  0  0  0  0  0
  140.8450   78.8457  221.1608 H   0  0  0  0  0  0  0  0  0  0  0  0
  141.5750   79.9690  219.4520 C   0  0  0  0  0  0  0  0  0  0  0  0
  141.1105   80.9106  219.7802 H   0  0  0  0  0  0  0  0  0  0  0  0
  142.3160   79.9350  218.2640 C   0  0  0  0  0  0  0  0  0  0  0  0
  142.4310   81.0480  217.5020 F   0  0  0  0  0  0  0  0  0  0  0  0
  142.9230   78.7450  217.8520 C   0  0  0  0  0  0  0  0  0  0  0  0
  143.5213   78.7230  216.9292 H   0  0  0  0  0  0  0  0  0  0  0  0
  142.7680   77.5750  218.6190 C   0  0  0  0  0  0  0  0  0  0  0  0
  143.3410   76.3630  218.2210 C   0  0  0  0  0  0  0  0  0  0  0  0
  143.9610   76.3196  217.3134 H   0  0  0  0  0  0  0  0  0  0  0  0
  143.1250   75.2010  218.9800 C   0  0  0  0  0  0  0  0  0  0  0  0
  143.5778   74.2470  218.6719 H   0  0  0  0  0  0  0  0  0  0  0  0
  1  2  1  0
  2  3  1  0
  3  4  2  0
  4  5  1  0
  5  6  1  0
  5  7  1  0
  5  8  1  0
  8  9  1  1
  8 10  1  0
 10 11  1  0
  8 12  1  0
 12 13  1  0
 12 14  1  0
 12 15  1  0
 15 16  1  6
 15 17  1  0
 17 18  2  0
 17 19  1  0
 19 20  1  0
 20 21  1  1
 20 22  1  0
 22 23  2  0
 23 24  1  0
 23 25  1  0
 25 26  1  0
 25 27  2  0
 27 28  1  0
 27 29  1  0
 29 30  1  0
 29 31  2  0
 31 32  1  0
 20 33  1  0
 33 34  1  0
 33 35  1  0
 33 36  1  0
  3 37  1  0
 37 38  1  0
 37 39  1  0
 37 40  1  0
 40 41  1  0
 41 42  2  0
 41 43  1  0
 43 44  2  0
 44 45  1  0
 45 46  2  0
 46 47  1  0
 46 48  1  0
 48 49  1  0
 48 50  2  0
 50 51  1  0
 50 52  1  0
 52 53  1  0
 52 54  2  0
 54 55  1  0
 55 56  1  0
 55 57  2  0
 57 58  1  0
 15  4  1  0
 31 22  1  0
 57 43  1  0
 54 45  1  0
M  CHG  3   4   1  19  -1  40  -1
M  END
>  <UniqueID>  (51) 
86

>  <SMILES>  (51) 
C[C@@H]([N-]C(=O)[C@@H]1C[C@@H](O)C/[N+]1=C(/O)C[N-]C(=O)c1ccc2cc(F)ccc2n1)c1ccccc1

>  <Energy>  (51) 
64.04925467578332

>  <Genealogy>  (51) 
C[C@@H]([N-]C(=O)[C@@H]1C[C@@H](O)C[NH+]1C(=O)C[N-]C(=O)c1ccc2cc(F)ccc2n1)c1ccccc1 (protonated)
C[C@@H]([N-]C(=O)[C@@H]1C[C@@H](O)C[N+]1=C(O)C[N-]C(=O)c1ccc2cc(F)ccc2n1)c1ccccc1 (tautomer)
C[C@@H]([N-]C(=O)[C@@H]1C[C@@H](O)C/[N+]1=C(/O)C[N-]C(=O)c1ccc2cc(F)ccc2n1)c1ccccc1 (cis-trans isomerization)
C[C@@H]([N-]C(=O)[C@@H]1C[C@@H](O)C/[N+]1=C(/O)C[N-]C(=O)c1ccc2cc(F)ccc2n1)c1ccccc1 (3D coordinates assigned)
C[C@@H]([N-]C(=O)[C@@H]1C[C@@H](O)C/[N+]1=C(/O)C[N-]C(=O)c1ccc2cc(F)ccc2n1)c1ccccc1 (nonaromatic ring conformer: 64.04925467578332 kcal/mol)

>  <smiles>  (51) 
C[C@@H](NC(=O)[C@@H]1C[C@@H](O)CN1C(=O)CNC(=O)c1ccc2cc(F)ccc2n1)c1ccccc1

>  <score_type>  (51) 
oracle

>  <origin>  (51) 
autodockgpu

>  <m_score__min__energy>  (51) 
-8.9499999999999993

>  <m_primary>  (51) 
energy

>  <meeko>  (51) 
{"free_energy": -5.4, "intermolecular_energy": -8.68, "internal_energy": -4.55, "cluster_size": 1, "cluster_id": 6, "rank_in_cluster": 1}

>  <energy>  (51) 
-7.46

>  <cluster_rmsd>  (51) 
1.52

>  <rmsd>  (51) 
272.66

>  <cluster>  (51) 
1

$$$$
DWYNEBQVPRLYJI-KZHXFCNENA-M
     RDKit          3D

 58 61  0  0  0  0  0  0  0  0999 V2000
  139.2080   73.6080  222.7230 H   0  0  0  0  0  0  0  0  0  0  0  0
  140.0570   73.9470  222.3090 O   0  0  0  0  0  0  0  0  0  0  0  0
  140.9310   73.1400  221.5730 C   0  0  0  0  0  0  0  0  0  0  0  0
  141.8720   73.6590  220.8120 N   0  0  0  0  0  0  0  0  0  0  0  0
  142.8270   72.8630  220.0360 C   0  0  0  0  0  0  0  0  0  0  0  0
  142.2959   72.2372  219.3036 H   0  0  0  0  0  0  0  0  0  0  0  0
  143.4073   72.1889  220.6832 H   0  0  0  0  0  0  0  0  0  0  0  0
  143.7320   73.8650  219.3200 C   0  0  2  0  0  0  0  0  0  0  0  0
  143.4684   73.9789  218.2581 H   0  0  0  0  0  0  0  0  0  0  0  0
  145.0700   73.4290  219.3350 O   0  0  0  0  0  0  0  0  0  0  0  0
  145.6070   74.1490  218.9300 H   0  0  0  0  0  0  0  0  0  0  0  0
  143.5530   75.1850  220.0790 C   0  0  0  0  0  0  0  0  0  0  0  0
  143.5886   76.0368  219.3839 H   0  0  0  0  0  0  0  0  0  0  0  0
  144.3514   75.3437  220.8188 H   0  0  0  0  0  0  0  0  0  0  0  0
  142.1750   75.0890  220.7390 C   0  0  1  0  0  0  0  0  0  0  0  0
  142.1683   75.5495  221.7379 H   0  0  0  0  0  0  0  0  0  0  0  0
  141.1420   75.8290  219.9350 C   0  0  0  0  0  0  0  0  0  0  0  0
  140.8980   75.4960  218.7430 O   0  0  0  0  0  0  0  0  0  0  0  0
  140.4790   76.9520  220.5230 N   0  0  0  0  0  0  0  0  0  0  0  0
  140.3820   77.1690  221.9630 C   0  0  1  0  0  0  0  0  0  0  0  0
  140.8328   76.3170  222.4930 H   0  0  0  0  0  0  0  0  0  0  0  0
  141.1380   78.4230  222.3550 C   0  0  0  0  0  0  0  0  0  0  0  0
  141.5300   78.6370  223.6870 C   0  0  0  0  0  0  0  0  0  0  0  0
  141.2983   77.8840  224.4547 H   0  0  0  0  0  0  0  0  0  0  0  0
  142.2130   79.8030  224.0390 C   0  0  0  0  0  0  0  0  0  0  0  0
  142.5146   79.9658  225.0842 H   0  0  0  0  0  0  0  0  0  0  0  0
  142.5160   80.7660  223.0690 C   0  0  0  0  0  0  0  0  0  0  0  0
  143.0487   81.6855  223.3532 H   0  0  0  0  0  0  0  0  0  0  0  0
  142.1420   80.5580  221.7440 C   0  0  0  0  0  0  0  0  0  0  0  0
  142.3835   81.3112  220.9796 H   0  0  0  0  0  0  0  0  0  0  0  0
  141.4590   79.3910  221.3850 C   0  0  0  0  0  0  0  0  0  0  0  0
  141.1705   79.2286  220.3360 H   0  0  0  0  0  0  0  0  0  0  0  0
  138.9090   77.2800  222.3620 C   0  0  0  0  0  0  0  0  0  0  0  0
  138.8257   77.2863  223.4588 H   0  0  0  0  0  0  0  0  0  0  0  0
  138.4887   78.2124  221.9570 H   0  0  0  0  0  0  0  0  0  0  0  0
  138.3537   76.4212  221.9570 H   0  0  0  0  0  0  0  0  0  0  0  0
  140.8040   71.6510  221.7680 C   0  0  0  0  0  0  0  0  0  0  0  0
  141.3019   71.1256  220.9397 H   0  0  0  0  0  0  0  0  0  0  0  0
  141.2782   71.3558  222.7156 H   0  0  0  0  0  0  0  0  0  0  0  0
  139.3870   71.3000  221.7910 N   0  0  0  0  0  0  0  0  0  0  0  0
  138.6010   71.3740  222.9860 C   0  0  0  0  0  0  0  0  0  0  0  0
  137.6730   72.2170  223.0820 O   0  0  0  0  0  0  0  0  0  0  0  0
  138.9250   70.5180  224.1380 C   0  0  0  0  0  0  0  0  0  0  0  0
  139.5770   71.0540  225.2120 N   0  0  0  0  0  0  0  0  0  0  0  0
  140.0240   70.2910  226.2460 C   0  0  0  0  0  0  0  0  0  0  0  0
  140.7120   70.8820  227.3120 C   0  0  0  0  0  0  0  0  0  0  0  0
  140.8456   71.9734  227.3423 H   0  0  0  0  0  0  0  0  0  0  0  0
  141.2310   70.0840  228.3410 C   0  0  0  0  0  0  0  0  0  0  0  0
  141.7784   70.5512  229.1729 H   0  0  0  0  0  0  0  0  0  0  0  0
  141.0560   68.6950  228.3150 C   0  0  0  0  0  0  0  0  0  0  0  0
  141.5890   67.9250  229.2920 F   0  0  0  0  0  0  0  0  0  0  0  0
  140.3470   68.0970  227.2690 C   0  0  0  0  0  0  0  0  0  0  0  0
  140.1934   67.0078  227.2595 H   0  0  0  0  0  0  0  0  0  0  0  0
  139.8300   68.8910  226.2280 C   0  0  0  0  0  0  0  0  0  0  0  0
  139.1390   68.3230  225.1530 C   0  0  0  0  0  0  0  0  0  0  0  0
  138.9550   67.2388  225.1294 H   0  0  0  0  0  0  0  0  0  0  0  0
  138.6800   69.1350  224.1040 C   0  0  0  0  0  0  0  0  0  0  0  0
  138.1316   68.6910  223.2601 H   0  0  0  0  0  0  0  0  0  0  0  0
  1  2  1  0
  2  3  1  0
  3  4  2  0
  4  5  1  0
  5  6  1  0
  5  7  1  0
  5  8  1  0
  8  9  1  6
  8 10  1  0
 10 11  1  0
  8 12  1  0
 12 13  1  0
 12 14  1  0
 12 15  1  0
 15 16  1  1
 15 17  1  0
 17 18  2  0
 17 19  1  0
 19 20  1  0
 20 21  1  1
 20 22  1  0
 22 23  2  0
 23 24  1  0
 23 25  1  0
 25 26  1  0
 25 27  2  0
 27 28  1  0
 27 29  1  0
 29 30  1  0
 29 31  2  0
 31 32  1  0
 20 33  1  0
 33 34  1  0
 33 35  1  0
 33 36  1  0
  3 37  1  0
 37 38  1  0
 37 39  1  0
 37 40  1  0
 40 41  1  0
 41 42  2  0
 41 43  1  0
 43 44  2  0
 44 45  1  0
 45 46  2  0
 46 47  1  0
 46 48  1  0
 48 49  1  0
 48 50  2  0
 50 51  1  0
 50 52  1  0
 52 53  1  0
 52 54  2  0
 54 55  1  0
 55 56  1  0
 55 57  2  0
 57 58  1  0
 15  4  1  0
 31 22  1  0
 57 43  1  0
 54 45  1  0
M  CHG  3   4   1  19  -1  40  -1
M  END
>  <UniqueID>  (52) 
86

>  <SMILES>  (52) 
C[C@@H]([N-]C(=O)[C@@H]1C[C@@H](O)C/[N+]1=C(/O)C[N-]C(=O)c1ccc2cc(F)ccc2n1)c1ccccc1

>  <Energy>  (52) 
64.04925467578332

>  <Genealogy>  (52) 
C[C@@H]([N-]C(=O)[C@@H]1C[C@@H](O)C[NH+]1C(=O)C[N-]C(=O)c1ccc2cc(F)ccc2n1)c1ccccc1 (protonated)
C[C@@H]([N-]C(=O)[C@@H]1C[C@@H](O)C[N+]1=C(O)C[N-]C(=O)c1ccc2cc(F)ccc2n1)c1ccccc1 (tautomer)
C[C@@H]([N-]C(=O)[C@@H]1C[C@@H](O)C/[N+]1=C(/O)C[N-]C(=O)c1ccc2cc(F)ccc2n1)c1ccccc1 (cis-trans isomerization)
C[C@@H]([N-]C(=O)[C@@H]1C[C@@H](O)C/[N+]1=C(/O)C[N-]C(=O)c1ccc2cc(F)ccc2n1)c1ccccc1 (3D coordinates assigned)
C[C@@H]([N-]C(=O)[C@@H]1C[C@@H](O)C/[N+]1=C(/O)C[N-]C(=O)c1ccc2cc(F)ccc2n1)c1ccccc1 (nonaromatic ring conformer: 64.04925467578332 kcal/mol)

>  <smiles>  (52) 
C[C@@H](NC(=O)[C@@H]1C[C@@H](O)CN1C(=O)CNC(=O)c1ccc2cc(F)ccc2n1)c1ccccc1

>  <score_type>  (52) 
oracle

>  <origin>  (52) 
autodockgpu

>  <m_score__min__energy>  (52) 
-8.9499999999999993

>  <m_primary>  (52) 
energy

>  <meeko>  (52) 
{"free_energy": -8.5, "intermolecular_energy": -11.78, "internal_energy": -2.8, "cluster_size": 14, "cluster_id": 1, "rank_in_cluster": 4}

>  <energy>  (52) 
-7.33

>  <cluster_rmsd>  (52) 
0.98

>  <rmsd>  (52) 
272.54

>  <cluster>  (52) 
1

$$$$
DWYNEBQVPRLYJI-KZHXFCNENA-M
     RDKit          3D

 58 61  0  0  0  0  0  0  0  0999 V2000
  139.5620   72.8300  220.3500 H   0  0  0  0  0  0  0  0  0  0  0  0
  140.0700   73.4440  219.7400 O   0  0  0  0  0  0  0  0  0  0  0  0
  141.4360   73.7140  219.8810 C   0  0  0  0  0  0  0  0  0  0  0  0
  141.9770   74.8030  219.3780 N   0  0  0  0  0  0  0  0  0  0  0  0
  142.3020   74.9720  217.9580 C   0  0  0  0  0  0  0  0  0  0  0  0
  141.3910   74.8964  217.3461 H   0  0  0  0  0  0  0  0  0  0  0  0
  142.9959   74.1932  217.6089 H   0  0  0  0  0  0  0  0  0  0  0  0
  142.9150   76.3660  217.8270 C   0  0  2  0  0  0  0  0  0  0  0  0
  142.2039   77.0960  217.4128 H   0  0  0  0  0  0  0  0  0  0  0  0
  144.0060   76.3490  216.9380 O   0  0  0  0  0  0  0  0  0  0  0  0
  144.7810   76.0150  217.4470 H   0  0  0  0  0  0  0  0  0  0  0  0
  143.3420   76.7550  219.2460 C   0  0  0  0  0  0  0  0  0  0  0  0
  143.1885   77.8314  219.4129 H   0  0  0  0  0  0  0  0  0  0  0  0
  144.4090   76.5540  219.4222 H   0  0  0  0  0  0  0  0  0  0  0  0
  142.4460   75.9350  220.1780 C   0  0  1  0  0  0  0  0  0  0  0  0
  142.9909   75.5950  221.0710 H   0  0  0  0  0  0  0  0  0  0  0  0
  141.2960   76.7620  220.6840 C   0  0  0  0  0  0  0  0  0  0  0  0
  140.8160   76.5570  221.8310 O   0  0  0  0  0  0  0  0  0  0  0  0
  140.7190   77.7480  219.8230 N   0  0  0  0  0  0  0  0  0  0  0  0
  140.8420   79.1850  220.0450 C   0  0  1  0  0  0  0  0  0  0  0  0
  139.8682   79.6665  219.8723 H   0  0  0  0  0  0  0  0  0  0  0  0
  141.2580   79.4590  221.4770 C   0  0  0  0  0  0  0  0  0  0  0  0
  142.5560   79.9100  221.7720 C   0  0  0  0  0  0  0  0  0  0  0  0
  143.2763   80.0784  220.9579 H   0  0  0  0  0  0  0  0  0  0  0  0
  142.9340   80.1450  223.0960 C   0  0  0  0  0  0  0  0  0  0  0  0
  143.9521   80.4959  223.3205 H   0  0  0  0  0  0  0  0  0  0  0  0
  142.0230   79.9360  224.1390 C   0  0  0  0  0  0  0  0  0  0  0  0
  142.3279   80.1153  225.1806 H   0  0  0  0  0  0  0  0  0  0  0  0
  140.7310   79.5010  223.8560 C   0  0  0  0  0  0  0  0  0  0  0  0
  140.0123   79.3429  224.6736 H   0  0  0  0  0  0  0  0  0  0  0  0
  140.3470   79.2650  222.5310 C   0  0  0  0  0  0  0  0  0  0  0  0
  139.3241   78.9249  222.3120 H   0  0  0  0  0  0  0  0  0  0  0  0
  141.8630   79.7660  219.0660 C   0  0  0  0  0  0  0  0  0  0  0  0
  142.6849   80.2337  219.6280 H   0  0  0  0  0  0  0  0  0  0  0  0
  142.2635   78.9605  218.4329 H   0  0  0  0  0  0  0  0  0  0  0  0
  141.3751   80.5217  218.4329 H   0  0  0  0  0  0  0  0  0  0  0  0
  142.2330   72.7470  220.7180 C   0  0  0  0  0  0  0  0  0  0  0  0
  142.8974   72.1570  220.0696 H   0  0  0  0  0  0  0  0  0  0  0  0
  142.8428   73.2990  221.4484 H   0  0  0  0  0  0  0  0  0  0  0  0
  141.3100   71.8570  221.4140 N   0  0  0  0  0  0  0  0  0  0  0  0
  140.4260   72.3250  222.4400 C   0  0  0  0  0  0  0  0  0  0  0  0
  139.9510   73.4880  222.3840 O   0  0  0  0  0  0  0  0  0  0  0  0
  140.1280   71.4740  223.6040 C   0  0  0  0  0  0  0  0  0  0  0  0
  140.6410   71.8060  224.8260 N   0  0  0  0  0  0  0  0  0  0  0  0
  140.5170   70.9940  225.9110 C   0  0  0  0  0  0  0  0  0  0  0  0
  141.0830   71.3630  227.1360 C   0  0  0  0  0  0  0  0  0  0  0  0
  141.5832   72.3372  227.2392 H   0  0  0  0  0  0  0  0  0  0  0  0
  141.0130   70.4920  228.2320 C   0  0  0  0  0  0  0  0  0  0  0  0
  141.4662   70.7823  229.1913 H   0  0  0  0  0  0  0  0  0  0  0  0
  140.3690   69.2540  228.1120 C   0  0  0  0  0  0  0  0  0  0  0  0
  140.3350   68.4010  229.1630 F   0  0  0  0  0  0  0  0  0  0  0  0
  139.7770   68.8870  226.9000 C   0  0  0  0  0  0  0  0  0  0  0  0
  139.2547   67.9229  226.8119 H   0  0  0  0  0  0  0  0  0  0  0  0
  139.8500   69.7530  225.7920 C   0  0  0  0  0  0  0  0  0  0  0  0
  139.2910   69.4050  224.5590 C   0  0  0  0  0  0  0  0  0  0  0  0
  138.7454   68.4560  224.4505 H   0  0  0  0  0  0  0  0  0  0  0  0
  139.4260   70.2670  223.4590 C   0  0  0  0  0  0  0  0  0  0  0  0
  138.9839   69.9979  222.4884 H   0  0  0  0  0  0  0  0  0  0  0  0
  1  2  1  0
  2  3  1  0
  3  4  2  0
  4  5  1  0
  5  6  1  0
  5  7  1  0
  5  8  1  0
  8  9  1  6
  8 10  1  0
 10 11  1  0
  8 12  1  0
 12 13  1  0
 12 14  1  0
 12 15  1  0
 15 16  1  1
 15 17  1  0
 17 18  2  0
 17 19  1  0
 19 20  1  0
 20 21  1  6
 20 22  1  0
 22 23  2  0
 23 24  1  0
 23 25  1  0
 25 26  1  0
 25 27  2  0
 27 28  1  0
 27 29  1  0
 29 30  1  0
 29 31  2  0
 31 32  1  0
 20 33  1  0
 33 34  1  0
 33 35  1  0
 33 36  1  0
  3 37  1  0
 37 38  1  0
 37 39  1  0
 37 40  1  0
 40 41  1  0
 41 42  2  0
 41 43  1  0
 43 44  2  0
 44 45  1  0
 45 46  2  0
 46 47  1  0
 46 48  1  0
 48 49  1  0
 48 50  2  0
 50 51  1  0
 50 52  1  0
 52 53  1  0
 52 54  2  0
 54 55  1  0
 55 56  1  0
 55 57  2  0
 57 58  1  0
 15  4  1  0
 31 22  1  0
 57 43  1  0
 54 45  1  0
M  CHG  3   4   1  19  -1  40  -1
M  END
>  <UniqueID>  (53) 
86

>  <SMILES>  (53) 
C[C@@H]([N-]C(=O)[C@@H]1C[C@@H](O)C/[N+]1=C(/O)C[N-]C(=O)c1ccc2cc(F)ccc2n1)c1ccccc1

>  <Energy>  (53) 
64.04925467578332

>  <Genealogy>  (53) 
C[C@@H]([N-]C(=O)[C@@H]1C[C@@H](O)C[NH+]1C(=O)C[N-]C(=O)c1ccc2cc(F)ccc2n1)c1ccccc1 (protonated)
C[C@@H]([N-]C(=O)[C@@H]1C[C@@H](O)C[N+]1=C(O)C[N-]C(=O)c1ccc2cc(F)ccc2n1)c1ccccc1 (tautomer)
C[C@@H]([N-]C(=O)[C@@H]1C[C@@H](O)C/[N+]1=C(/O)C[N-]C(=O)c1ccc2cc(F)ccc2n1)c1ccccc1 (cis-trans isomerization)
C[C@@H]([N-]C(=O)[C@@H]1C[C@@H](O)C/[N+]1=C(/O)C[N-]C(=O)c1ccc2cc(F)ccc2n1)c1ccccc1 (3D coordinates assigned)
C[C@@H]([N-]C(=O)[C@@H]1C[C@@H](O)C/[N+]1=C(/O)C[N-]C(=O)c1ccc2cc(F)ccc2n1)c1ccccc1 (nonaromatic ring conformer: 64.04925467578332 kcal/mol)

>  <smiles>  (53) 
C[C@@H](NC(=O)[C@@H]1C[C@@H](O)CN1C(=O)CNC(=O)c1ccc2cc(F)ccc2n1)c1ccccc1

>  <score_type>  (53) 
oracle

>  <origin>  (53) 
autodockgpu

>  <m_score__min__energy>  (53) 
-8.9499999999999993

>  <m_primary>  (53) 
energy

>  <meeko>  (53) 
{"free_energy": -7.6, "intermolecular_energy": -10.89, "internal_energy": -3.15, "cluster_size": 14, "cluster_id": 1, "rank_in_cluster": 9}

>  <energy>  (53) 
-7.27

>  <cluster_rmsd>  (53) 
1.67

>  <rmsd>  (53) 
272.43

>  <cluster>  (53) 
1

$$$$
DWYNEBQVPRLYJI-KZHXFCNENA-M
     RDKit          3D

 58 61  0  0  0  0  0  0  0  0999 V2000
  140.6870   74.4420  222.2820 H   0  0  0  0  0  0  0  0  0  0  0  0
  139.9510   75.1240  222.2430 O   0  0  0  0  0  0  0  0  0  0  0  0
  138.6400   74.8210  221.8620 C   0  0  0  0  0  0  0  0  0  0  0  0
  137.6430   75.6430  222.1140 N   0  0  0  0  0  0  0  0  0  0  0  0
  136.5770   75.3630  223.0810 C   0  0  0  0  0  0  0  0  0  0  0  0
  136.9991   75.2401  224.0893 H   0  0  0  0  0  0  0  0  0  0  0  0
  136.0443   74.4331  222.8331 H   0  0  0  0  0  0  0  0  0  0  0  0
  135.6400   76.5700  223.0420 C   0  0  2  0  0  0  0  0  0  0  0  0
  135.7901   77.2423  223.8996 H   0  0  0  0  0  0  0  0  0  0  0  0
  134.2960   76.1590  223.1100 O   0  0  0  0  0  0  0  0  0  0  0  0
  134.1960   75.4100  222.4760 H   0  0  0  0  0  0  0  0  0  0  0  0
  135.9530   77.2810  221.7210 C   0  0  0  0  0  0  0  0  0  0  0  0
  135.8747   78.3714  221.8427 H   0  0  0  0  0  0  0  0  0  0  0  0
  135.2475   76.9972  220.9262 H   0  0  0  0  0  0  0  0  0  0  0  0
  137.3910   76.8820  221.3760 C   0  0  1  0  0  0  0  0  0  0  0  0
  137.5253   76.7372  220.2939 H   0  0  0  0  0  0  0  0  0  0  0  0
  138.3590   77.9630  221.7720 C   0  0  0  0  0  0  0  0  0  0  0  0
  139.0800   78.5260  220.9050 O   0  0  0  0  0  0  0  0  0  0  0  0
  138.4890   78.3050  223.1550 N   0  0  0  0  0  0  0  0  0  0  0  0
  138.8440   79.6390  223.6270 C   0  0  1  0  0  0  0  0  0  0  0  0
  138.6111   79.7228  224.6988 H   0  0  0  0  0  0  0  0  0  0  0  0
  140.3300   79.8790  223.4450 C   0  0  0  0  0  0  0  0  0  0  0  0
  141.2110   78.8020  223.2500 C   0  0  0  0  0  0  0  0  0  0  0  0
  140.8214   77.7739  223.2169 H   0  0  0  0  0  0  0  0  0  0  0  0
  142.5800   79.0330  223.0980 C   0  0  0  0  0  0  0  0  0  0  0  0
  143.2648   78.1854  222.9478 H   0  0  0  0  0  0  0  0  0  0  0  0
  143.0850   80.3390  223.1360 C   0  0  0  0  0  0  0  0  0  0  0  0
  144.1649   80.5153  223.0229 H   0  0  0  0  0  0  0  0  0  0  0  0
  142.2190   81.4130  223.3170 C   0  0  0  0  0  0  0  0  0  0  0  0
  142.6137   82.4395  223.3406 H   0  0  0  0  0  0  0  0  0  0  0  0
  140.8470   81.1880  223.4690 C   0  0  0  0  0  0  0  0  0  0  0  0
  140.1664   82.0409  223.6084 H   0  0  0  0  0  0  0  0  0  0  0  0
  138.0310   80.6830  222.8580 C   0  0  0  0  0  0  0  0  0  0  0  0
  137.5161   81.3443  223.5704 H   0  0  0  0  0  0  0  0  0  0  0  0
  138.7049   81.2794  222.2254 H   0  0  0  0  0  0  0  0  0  0  0  0
  137.2877   80.1757  222.2254 H   0  0  0  0  0  0  0  0  0  0  0  0
  138.4420   73.5560  221.0660 C   0  0  0  0  0  0  0  0  0  0  0  0
  137.4428   73.5608  220.6060 H   0  0  0  0  0  0  0  0  0  0  0  0
  139.2009   73.4903  220.2724 H   0  0  0  0  0  0  0  0  0  0  0  0
  138.5630   72.4130  221.9650 N   0  0  0  0  0  0  0  0  0  0  0  0
  139.7060   72.2230  222.8080 C   0  0  0  0  0  0  0  0  0  0  0  0
  140.7810   72.8280  222.5640 O   0  0  0  0  0  0  0  0  0  0  0  0
  139.6530   71.2580  223.9190 C   0  0  0  0  0  0  0  0  0  0  0  0
  140.2510   71.5680  225.1070 N   0  0  0  0  0  0  0  0  0  0  0  0
  140.3550   70.6710  226.1250 C   0  0  0  0  0  0  0  0  0  0  0  0
  141.0020   71.0260  227.3140 C   0  0  0  0  0  0  0  0  0  0  0  0
  141.3812   72.0497  227.4492 H   0  0  0  0  0  0  0  0  0  0  0  0
  141.1670   70.0770  228.3330 C   0  0  0  0  0  0  0  0  0  0  0  0
  141.6829   70.3569  229.2633 H   0  0  0  0  0  0  0  0  0  0  0  0
  140.6780   68.7740  228.1720 C   0  0  0  0  0  0  0  0  0  0  0  0
  140.8720   67.8520  229.1430 F   0  0  0  0  0  0  0  0  0  0  0  0
  140.0080   68.4180  226.9980 C   0  0  0  0  0  0  0  0  0  0  0  0
  139.6085   67.4000  226.8793 H   0  0  0  0  0  0  0  0  0  0  0  0
  139.8450   69.3630  225.9680 C   0  0  0  0  0  0  0  0  0  0  0  0
  139.2010   69.0310  224.7710 C   0  0  0  0  0  0  0  0  0  0  0  0
  138.7739   68.0263  224.6365 H   0  0  0  0  0  0  0  0  0  0  0  0
  139.1000   69.9800  223.7420 C   0  0  0  0  0  0  0  0  0  0  0  0
  138.5901   69.7237  222.8016 H   0  0  0  0  0  0  0  0  0  0  0  0
  1  2  1  0
  2  3  1  0
  3  4  2  0
  4  5  1  0
  5  6  1  0
  5  7  1  0
  5  8  1  0
  8  9  1  1
  8 10  1  0
 10 11  1  0
  8 12  1  0
 12 13  1  0
 12 14  1  0
 12 15  1  0
 15 16  1  6
 15 17  1  0
 17 18  2  0
 17 19  1  0
 19 20  1  0
 20 21  1  1
 20 22  1  0
 22 23  2  0
 23 24  1  0
 23 25  1  0
 25 26  1  0
 25 27  2  0
 27 28  1  0
 27 29  1  0
 29 30  1  0
 29 31  2  0
 31 32  1  0
 20 33  1  0
 33 34  1  0
 33 35  1  0
 33 36  1  0
  3 37  1  0
 37 38  1  0
 37 39  1  0
 37 40  1  0
 40 41  1  0
 41 42  2  0
 41 43  1  0
 43 44  2  0
 44 45  1  0
 45 46  2  0
 46 47  1  0
 46 48  1  0
 48 49  1  0
 48 50  2  0
 50 51  1  0
 50 52  1  0
 52 53  1  0
 52 54  2  0
 54 55  1  0
 55 56  1  0
 55 57  2  0
 57 58  1  0
 15  4  1  0
 31 22  1  0
 57 43  1  0
 54 45  1  0
M  CHG  3   4   1  19  -1  40  -1
M  END
>  <UniqueID>  (54) 
86

>  <SMILES>  (54) 
C[C@@H]([N-]C(=O)[C@@H]1C[C@@H](O)C/[N+]1=C(/O)C[N-]C(=O)c1ccc2cc(F)ccc2n1)c1ccccc1

>  <Energy>  (54) 
64.04925467578332

>  <Genealogy>  (54) 
C[C@@H]([N-]C(=O)[C@@H]1C[C@@H](O)C[NH+]1C(=O)C[N-]C(=O)c1ccc2cc(F)ccc2n1)c1ccccc1 (protonated)
C[C@@H]([N-]C(=O)[C@@H]1C[C@@H](O)C[N+]1=C(O)C[N-]C(=O)c1ccc2cc(F)ccc2n1)c1ccccc1 (tautomer)
C[C@@H]([N-]C(=O)[C@@H]1C[C@@H](O)C/[N+]1=C(/O)C[N-]C(=O)c1ccc2cc(F)ccc2n1)c1ccccc1 (cis-trans isomerization)
C[C@@H]([N-]C(=O)[C@@H]1C[C@@H](O)C/[N+]1=C(/O)C[N-]C(=O)c1ccc2cc(F)ccc2n1)c1ccccc1 (3D coordinates assigned)
C[C@@H]([N-]C(=O)[C@@H]1C[C@@H](O)C/[N+]1=C(/O)C[N-]C(=O)c1ccc2cc(F)ccc2n1)c1ccccc1 (nonaromatic ring conformer: 64.04925467578332 kcal/mol)

>  <smiles>  (54) 
C[C@@H](NC(=O)[C@@H]1C[C@@H](O)CN1C(=O)CNC(=O)c1ccc2cc(F)ccc2n1)c1ccccc1

>  <score_type>  (54) 
oracle

>  <origin>  (54) 
autodockgpu

>  <m_score__min__energy>  (54) 
-8.9499999999999993

>  <m_primary>  (54) 
energy

>  <meeko>  (54) 
{"free_energy": -7.23, "intermolecular_energy": -10.51, "internal_energy": -2.6, "cluster_size": 14, "cluster_id": 1, "rank_in_cluster": 14}

>  <energy>  (54) 
-7.23

>  <cluster_rmsd>  (54) 
1.98

>  <rmsd>  (54) 
272.42

>  <cluster>  (54) 
1

$$$$
DWYNEBQVPRLYJI-KZHXFCNENA-M
     RDKit          3D

 58 61  0  0  0  0  0  0  0  0999 V2000
  138.9970   74.1330  222.9060 H   0  0  0  0  0  0  0  0  0  0  0  0
  139.2610   74.9180  222.3390 O   0  0  0  0  0  0  0  0  0  0  0  0
  140.3500   74.9020  221.4600 C   0  0  0  0  0  0  0  0  0  0  0  0
  140.7620   75.9960  220.8550 N   0  0  0  0  0  0  0  0  0  0  0  0
  141.4400   76.0040  219.5560 C   0  0  0  0  0  0  0  0  0  0  0  0
  140.7859   75.5772  218.7814 H   0  0  0  0  0  0  0  0  0  0  0  0
  142.3586   75.3992  219.5785 H   0  0  0  0  0  0  0  0  0  0  0  0
  141.7440   77.4700  219.2450 C   0  0  2  0  0  0  0  0  0  0  0  0
  141.0430   77.8946  218.5114 H   0  0  0  0  0  0  0  0  0  0  0  0
  143.0220   77.6030  218.6710 O   0  0  0  0  0  0  0  0  0  0  0  0
  143.6440   77.7990  219.4100 H   0  0  0  0  0  0  0  0  0  0  0  0
  141.6430   78.1970  220.5900 C   0  0  0  0  0  0  0  0  0  0  0  0
  141.2156   79.2013  220.4536 H   0  0  0  0  0  0  0  0  0  0  0  0
  142.6294   78.3308  221.0580 H   0  0  0  0  0  0  0  0  0  0  0  0
  140.7170   77.3330  221.4500 C   0  0  1  0  0  0  0  0  0  0  0  0
  141.0386   77.3137  222.5018 H   0  0  0  0  0  0  0  0  0  0  0  0
  139.3180   77.8840  221.4560 C   0  0  0  0  0  0  0  0  0  0  0  0
  138.7450   78.1890  220.3750 O   0  0  0  0  0  0  0  0  0  0  0  0
  138.6670   78.1110  222.7100 N   0  0  0  0  0  0  0  0  0  0  0  0
  138.8150   79.3380  223.4860 C   0  0  1  0  0  0  0  0  0  0  0  0
  138.6226   79.1253  224.5479 H   0  0  0  0  0  0  0  0  0  0  0  0
  140.2300   79.8700  223.3580 C   0  0  0  0  0  0  0  0  0  0  0  0
  141.3080   79.1810  223.9380 C   0  0  0  0  0  0  0  0  0  0  0  0
  141.1301   78.2410  224.4809 H   0  0  0  0  0  0  0  0  0  0  0  0
  142.6060   79.6870  223.8270 C   0  0  0  0  0  0  0  0  0  0  0  0
  143.4460   79.1451  224.2860 H   0  0  0  0  0  0  0  0  0  0  0  0
  142.8420   80.8810  223.1340 C   0  0  0  0  0  0  0  0  0  0  0  0
  143.8645   81.2786  223.0544 H   0  0  0  0  0  0  0  0  0  0  0  0
  141.7810   81.5640  222.5460 C   0  0  0  0  0  0  0  0  0  0  0  0
  141.9656   82.4993  221.9972 H   0  0  0  0  0  0  0  0  0  0  0  0
  140.4800   81.0610  222.6530 C   0  0  0  0  0  0  0  0  0  0  0  0
  139.6457   81.6014  222.1819 H   0  0  0  0  0  0  0  0  0  0  0  0
  137.8030   80.3750  222.9950 C   0  0  0  0  0  0  0  0  0  0  0  0
  137.3280   80.8617  223.8596 H   0  0  0  0  0  0  0  0  0  0  0  0
  138.3195   81.1317  222.3862 H   0  0  0  0  0  0  0  0  0  0  0  0
  137.0339   79.8771  222.3862 H   0  0  0  0  0  0  0  0  0  0  0  0
  141.0830   73.5930  221.3160 C   0  0  0  0  0  0  0  0  0  0  0  0
  140.6818   73.0372  220.4557 H   0  0  0  0  0  0  0  0  0  0  0  0
  142.1546   73.7803  221.1533 H   0  0  0  0  0  0  0  0  0  0  0  0
  140.8950   72.8130  222.5350 N   0  0  0  0  0  0  0  0  0  0  0  0
  139.7240   72.0210  222.7620 C   0  0  0  0  0  0  0  0  0  0  0  0
  138.7050   72.1760  222.0410 O   0  0  0  0  0  0  0  0  0  0  0  0
  139.6780   71.0750  223.8890 C   0  0  0  0  0  0  0  0  0  0  0  0
  140.2670   71.4140  225.0740 N   0  0  0  0  0  0  0  0  0  0  0  0
  140.3780   70.5360  226.1080 C   0  0  0  0  0  0  0  0  0  0  0  0
  141.0160   70.9200  227.2930 C   0  0  0  0  0  0  0  0  0  0  0  0
  141.3824   71.9504  227.4116 H   0  0  0  0  0  0  0  0  0  0  0  0
  141.1880   69.9910  228.3290 C   0  0  0  0  0  0  0  0  0  0  0  0
  141.6955   70.2939  229.2567 H   0  0  0  0  0  0  0  0  0  0  0  0
  140.7170   68.6790  228.1890 C   0  0  0  0  0  0  0  0  0  0  0  0
  140.9190   67.7760  229.1770 F   0  0  0  0  0  0  0  0  0  0  0  0
  140.0560   68.2940  227.0200 C   0  0  0  0  0  0  0  0  0  0  0  0
  139.6693   67.2692  226.9186 H   0  0  0  0  0  0  0  0  0  0  0  0
  139.8850   69.2180  225.9720 C   0  0  0  0  0  0  0  0  0  0  0  0
  139.2510   68.8570  224.7790 C   0  0  0  0  0  0  0  0  0  0  0  0
  138.8376   67.8446  224.6605 H   0  0  0  0  0  0  0  0  0  0  0  0
  139.1420   69.7870  223.7320 C   0  0  0  0  0  0  0  0  0  0  0  0
  138.6394   69.5077  222.7942 H   0  0  0  0  0  0  0  0  0  0  0  0
  1  2  1  0
  2  3  1  0
  3  4  2  0
  4  5  1  0
  5  6  1  0
  5  7  1  0
  5  8  1  0
  8  9  1  6
  8 10  1  0
 10 11  1  0
  8 12  1  0
 12 13  1  0
 12 14  1  0
 12 15  1  0
 15 16  1  1
 15 17  1  0
 17 18  2  0
 17 19  1  0
 19 20  1  0
 20 21  1  1
 20 22  1  0
 22 23  2  0
 23 24  1  0
 23 25  1  0
 25 26  1  0
 25 27  2  0
 27 28  1  0
 27 29  1  0
 29 30  1  0
 29 31  2  0
 31 32  1  0
 20 33  1  0
 33 34  1  0
 33 35  1  0
 33 36  1  0
  3 37  1  0
 37 38  1  0
 37 39  1  0
 37 40  1  0
 40 41  1  0
 41 42  2  0
 41 43  1  0
 43 44  2  0
 44 45  1  0
 45 46  2  0
 46 47  1  0
 46 48  1  0
 48 49  1  0
 48 50  2  0
 50 51  1  0
 50 52  1  0
 52 53  1  0
 52 54  2  0
 54 55  1  0
 55 56  1  0
 55 57  2  0
 57 58  1  0
 15  4  1  0
 31 22  1  0
 57 43  1  0
 54 45  1  0
M  CHG  3   4   1  19  -1  40  -1
M  END
>  <UniqueID>  (55) 
86

>  <SMILES>  (55) 
C[C@@H]([N-]C(=O)[C@@H]1C[C@@H](O)C/[N+]1=C(/O)C[N-]C(=O)c1ccc2cc(F)ccc2n1)c1ccccc1

>  <Energy>  (55) 
64.04925467578332

>  <Genealogy>  (55) 
C[C@@H]([N-]C(=O)[C@@H]1C[C@@H](O)C[NH+]1C(=O)C[N-]C(=O)c1ccc2cc(F)ccc2n1)c1ccccc1 (protonated)
C[C@@H]([N-]C(=O)[C@@H]1C[C@@H](O)C[N+]1=C(O)C[N-]C(=O)c1ccc2cc(F)ccc2n1)c1ccccc1 (tautomer)
C[C@@H]([N-]C(=O)[C@@H]1C[C@@H](O)C/[N+]1=C(/O)C[N-]C(=O)c1ccc2cc(F)ccc2n1)c1ccccc1 (cis-trans isomerization)
C[C@@H]([N-]C(=O)[C@@H]1C[C@@H](O)C/[N+]1=C(/O)C[N-]C(=O)c1ccc2cc(F)ccc2n1)c1ccccc1 (3D coordinates assigned)
C[C@@H]([N-]C(=O)[C@@H]1C[C@@H](O)C/[N+]1=C(/O)C[N-]C(=O)c1ccc2cc(F)ccc2n1)c1ccccc1 (nonaromatic ring conformer: 64.04925467578332 kcal/mol)

>  <smiles>  (55) 
C[C@@H](NC(=O)[C@@H]1C[C@@H](O)CN1C(=O)CNC(=O)c1ccc2cc(F)ccc2n1)c1ccccc1

>  <score_type>  (55) 
oracle

>  <origin>  (55) 
autodockgpu

>  <m_score__min__energy>  (55) 
-8.9499999999999993

>  <m_primary>  (55) 
energy

>  <meeko>  (55) 
{"free_energy": -8.92, "intermolecular_energy": -12.2, "internal_energy": -2.97, "cluster_size": 14, "cluster_id": 1, "rank_in_cluster": 2}

>  <energy>  (55) 
-8.1

>  <cluster_rmsd>  (55) 
0.0

>  <rmsd>  (55) 
272.27

>  <cluster>  (55) 
2

$$$$
DWYNEBQVPRLYJI-KZHXFCNENA-M
     RDKit          3D

 58 61  0  0  0  0  0  0  0  0999 V2000
  139.3110   74.1520  222.8890 H   0  0  0  0  0  0  0  0  0  0  0  0
  140.1130   74.2850  222.3000 O   0  0  0  0  0  0  0  0  0  0  0  0
  140.1020   75.0830  221.1520 C   0  0  0  0  0  0  0  0  0  0  0  0
  141.1980   75.3030  220.4560 N   0  0  0  0  0  0  0  0  0  0  0  0
  142.0760   74.2410  219.9580 C   0  0  0  0  0  0  0  0  0  0  0  0
  141.5259   73.5826  219.2696 H   0  0  0  0  0  0  0  0  0  0  0  0
  142.4537   73.6143  220.7793 H   0  0  0  0  0  0  0  0  0  0  0  0
  143.2170   74.9430  219.2220 C   0  0  2  0  0  0  0  0  0  0  0  0
  143.0955   74.9017  218.1295 H   0  0  0  0  0  0  0  0  0  0  0  0
  144.4470   74.3140  219.4930 O   0  0  0  0  0  0  0  0  0  0  0  0
  145.0840   74.6320  218.8110 H   0  0  0  0  0  0  0  0  0  0  0  0
  143.1930   76.3900  219.7270 C   0  0  0  0  0  0  0  0  0  0  0  0
  143.4556   77.0852  218.9160 H   0  0  0  0  0  0  0  0  0  0  0  0
  143.9207   76.5537  220.5355 H   0  0  0  0  0  0  0  0  0  0  0  0
  141.7560   76.6320  220.1960 C   0  0  1  0  0  0  0  0  0  0  0  0
  141.7221   77.2630  221.0964 H   0  0  0  0  0  0  0  0  0  0  0  0
  140.9640   77.3640  219.1480 C   0  0  0  0  0  0  0  0  0  0  0  0
  140.8700   76.9040  217.9780 O   0  0  0  0  0  0  0  0  0  0  0  0
  140.3660   78.6200  219.4820 N   0  0  0  0  0  0  0  0  0  0  0  0
  140.7900   79.8940  218.9090 C   0  0  1  0  0  0  0  0  0  0  0  0
  140.2672   80.0583  217.9552 H   0  0  0  0  0  0  0  0  0  0  0  0
  140.4350   81.0320  219.8450 C   0  0  0  0  0  0  0  0  0  0  0  0
  139.0950   81.2940  220.1780 C   0  0  0  0  0  0  0  0  0  0  0  0
  138.2938   80.6626  219.7664 H   0  0  0  0  0  0  0  0  0  0  0  0
  138.7780   82.3550  221.0310 C   0  0  0  0  0  0  0  0  0  0  0  0
  137.7273   82.5570  221.2864 H   0  0  0  0  0  0  0  0  0  0  0  0
  139.7920   83.1620  221.5620 C   0  0  0  0  0  0  0  0  0  0  0  0
  139.5369   84.0006  222.2266 H   0  0  0  0  0  0  0  0  0  0  0  0
  141.1230   82.9020  221.2480 C   0  0  0  0  0  0  0  0  0  0  0  0
  141.9207   83.5306  221.6704 H   0  0  0  0  0  0  0  0  0  0  0  0
  141.4460   81.8410  220.3950 C   0  0  0  0  0  0  0  0  0  0  0  0
  142.4995   81.6377  220.1524 H   0  0  0  0  0  0  0  0  0  0  0  0
  142.2970   79.8590  218.6490 C   0  0  0  0  0  0  0  0  0  0  0  0
  142.8345   79.8465  219.6087 H   0  0  0  0  0  0  0  0  0  0  0  0
  142.5493   78.9548  218.0757 H   0  0  0  0  0  0  0  0  0  0  0  0
  142.5910   80.7506  218.0757 H   0  0  0  0  0  0  0  0  0  0  0  0
  138.7600   75.5980  220.6990 C   0  0  0  0  0  0  0  0  0  0  0  0
  138.8437   76.6610  220.4289 H   0  0  0  0  0  0  0  0  0  0  0  0
  138.4188   75.0310  219.8203 H   0  0  0  0  0  0  0  0  0  0  0  0
  137.8050   75.4430  221.7910 N   0  0  0  0  0  0  0  0  0  0  0  0
  137.3090   76.5610  222.5360 C   0  0  0  0  0  0  0  0  0  0  0  0
  136.1230   76.5660  222.9560 O   0  0  0  0  0  0  0  0  0  0  0  0
  138.1590   77.7440  222.7480 C   0  0  0  0  0  0  0  0  0  0  0  0
  139.5170   77.6100  222.7110 N   0  0  0  0  0  0  0  0  0  0  0  0
  140.3580   78.6310  223.0310 C   0  0  0  0  0  0  0  0  0  0  0  0
  141.7430   78.4380  223.0050 C   0  0  0  0  0  0  0  0  0  0  0  0
  142.1578   77.4748  222.6730 H   0  0  0  0  0  0  0  0  0  0  0  0
  142.6030   79.4720  223.4020 C   0  0  0  0  0  0  0  0  0  0  0  0
  143.6915   79.3140  223.3882 H   0  0  0  0  0  0  0  0  0  0  0  0
  142.0830   80.7050  223.8160 C   0  0  0  0  0  0  0  0  0  0  0  0
  142.9160   81.6880  224.2320 F   0  0  0  0  0  0  0  0  0  0  0  0
  140.7010   80.9170  223.8200 C   0  0  0  0  0  0  0  0  0  0  0  0
  140.2941   81.8916  224.1274 H   0  0  0  0  0  0  0  0  0  0  0  0
  139.8310   79.8810  223.4300 C   0  0  0  0  0  0  0  0  0  0  0  0
  138.4430   80.0510  223.4470 C   0  0  0  0  0  0  0  0  0  0  0  0
  138.0117   81.0225  223.7302 H   0  0  0  0  0  0  0  0  0  0  0  0
  137.6000   78.9830  223.1030 C   0  0  0  0  0  0  0  0  0  0  0  0
  136.5080   79.1153  223.1113 H   0  0  0  0  0  0  0  0  0  0  0  0
  1  2  1  0
  2  3  1  0
  3  4  2  0
  4  5  1  0
  5  6  1  0
  5  7  1  0
  5  8  1  0
  8  9  1  6
  8 10  1  0
 10 11  1  0
  8 12  1  0
 12 13  1  0
 12 14  1  0
 12 15  1  0
 15 16  1  1
 15 17  1  0
 17 18  2  0
 17 19  1  0
 19 20  1  0
 20 21  1  6
 20 22  1  0
 22 23  2  0
 23 24  1  0
 23 25  1  0
 25 26  1  0
 25 27  2  0
 27 28  1  0
 27 29  1  0
 29 30  1  0
 29 31  2  0
 31 32  1  0
 20 33  1  0
 33 34  1  0
 33 35  1  0
 33 36  1  0
  3 37  1  0
 37 38  1  0
 37 39  1  0
 37 40  1  0
 40 41  1  0
 41 42  2  0
 41 43  1  0
 43 44  2  0
 44 45  1  0
 45 46  2  0
 46 47  1  0
 46 48  1  0
 48 49  1  0
 48 50  2  0
 50 51  1  0
 50 52  1  0
 52 53  1  0
 52 54  2  0
 54 55  1  0
 55 56  1  0
 55 57  2  0
 57 58  1  0
 15  4  1  0
 31 22  1  0
 57 43  1  0
 54 45  1  0
M  CHG  3   4   1  19  -1  40  -1
M  END
>  <UniqueID>  (56) 
86

>  <SMILES>  (56) 
C[C@@H]([N-]C(=O)[C@@H]1C[C@@H](O)C/[N+]1=C(/O)C[N-]C(=O)c1ccc2cc(F)ccc2n1)c1ccccc1

>  <Energy>  (56) 
64.04925467578332

>  <Genealogy>  (56) 
C[C@@H]([N-]C(=O)[C@@H]1C[C@@H](O)C[NH+]1C(=O)C[N-]C(=O)c1ccc2cc(F)ccc2n1)c1ccccc1 (protonated)
C[C@@H]([N-]C(=O)[C@@H]1C[C@@H](O)C[N+]1=C(O)C[N-]C(=O)c1ccc2cc(F)ccc2n1)c1ccccc1 (tautomer)
C[C@@H]([N-]C(=O)[C@@H]1C[C@@H](O)C/[N+]1=C(/O)C[N-]C(=O)c1ccc2cc(F)ccc2n1)c1ccccc1 (cis-trans isomerization)
C[C@@H]([N-]C(=O)[C@@H]1C[C@@H](O)C/[N+]1=C(/O)C[N-]C(=O)c1ccc2cc(F)ccc2n1)c1ccccc1 (3D coordinates assigned)
C[C@@H]([N-]C(=O)[C@@H]1C[C@@H](O)C/[N+]1=C(/O)C[N-]C(=O)c1ccc2cc(F)ccc2n1)c1ccccc1 (nonaromatic ring conformer: 64.04925467578332 kcal/mol)

>  <smiles>  (56) 
C[C@@H](NC(=O)[C@@H]1C[C@@H](O)CN1C(=O)CNC(=O)c1ccc2cc(F)ccc2n1)c1ccccc1

>  <score_type>  (56) 
oracle

>  <origin>  (56) 
autodockgpu

>  <m_score__min__energy>  (56) 
-8.9499999999999993

>  <m_primary>  (56) 
energy

>  <meeko>  (56) 
{"free_energy": -5.63, "intermolecular_energy": -8.91, "internal_energy": -4.36, "cluster_size": 1, "cluster_id": 5, "rank_in_cluster": 1}

>  <energy>  (56) 
-8.09

>  <cluster_rmsd>  (56) 
1.34

>  <rmsd>  (56) 
272.3

>  <cluster>  (56) 
2

$$$$
DWYNEBQVPRLYJI-KZHXFCNENA-M
     RDKit          3D

 58 61  0  0  0  0  0  0  0  0999 V2000
  138.5690   72.8250  220.7820 H   0  0  0  0  0  0  0  0  0  0  0  0
  138.9050   73.7460  220.5710 O   0  0  0  0  0  0  0  0  0  0  0  0
  140.1880   74.1930  220.9050 C   0  0  0  0  0  0  0  0  0  0  0  0
  140.5370   75.4540  220.7580 N   0  0  0  0  0  0  0  0  0  0  0  0
  141.0110   76.0290  219.4950 C   0  0  0  0  0  0  0  0  0  0  0  0
  140.2348   75.9413  218.7205 H   0  0  0  0  0  0  0  0  0  0  0  0
  141.9038   75.5040  219.1245 H   0  0  0  0  0  0  0  0  0  0  0  0
  141.3080   77.5000  219.7840 C   0  0  2  0  0  0  0  0  0  0  0  0
  140.5163   78.1660  219.4103 H   0  0  0  0  0  0  0  0  0  0  0  0
  142.4880   77.9070  219.1330 O   0  0  0  0  0  0  0  0  0  0  0  0
  143.2040   77.8910  219.8100 H   0  0  0  0  0  0  0  0  0  0  0  0
  141.4350   77.5950  221.3080 C   0  0  0  0  0  0  0  0  0  0  0  0
  141.0230   78.5485  221.6700 H   0  0  0  0  0  0  0  0  0  0  0  0
  142.4847   77.5566  221.6345 H   0  0  0  0  0  0  0  0  0  0  0  0
  140.6240   76.4180  221.8570 C   0  0  1  0  0  0  0  0  0  0  0  0
  141.1005   75.9726  222.7428 H   0  0  0  0  0  0  0  0  0  0  0  0
  139.2600   76.8660  222.3030 C   0  0  0  0  0  0  0  0  0  0  0  0
  138.4540   76.0470  222.8210 O   0  0  0  0  0  0  0  0  0  0  0  0
  138.8690   78.2240  222.0790 N   0  0  0  0  0  0  0  0  0  0  0  0
  138.8570   79.2430  223.1240 C   0  0  1  0  0  0  0  0  0  0  0  0
  138.5709   78.7825  224.0811 H   0  0  0  0  0  0  0  0  0  0  0  0
  140.2400   79.8450  223.2820 C   0  0  0  0  0  0  0  0  0  0  0  0
  141.2240   79.1910  224.0420 C   0  0  0  0  0  0  0  0  0  0  0  0
  140.9965   78.2267  224.5198 H   0  0  0  0  0  0  0  0  0  0  0  0
  142.4900   79.7610  224.1930 C   0  0  0  0  0  0  0  0  0  0  0  0
  143.2549   79.2451  224.7919 H   0  0  0  0  0  0  0  0  0  0  0  0
  142.7900   80.9870  223.5850 C   0  0  0  0  0  0  0  0  0  0  0  0
  143.7864   81.4354  223.7121 H   0  0  0  0  0  0  0  0  0  0  0  0
  141.8260   81.6370  222.8200 C   0  0  0  0  0  0  0  0  0  0  0  0
  142.0620   82.5968  222.3373 H   0  0  0  0  0  0  0  0  0  0  0  0
  140.5560   81.0690  222.6650 C   0  0  0  0  0  0  0  0  0  0  0  0
  139.7988   81.5841  222.0556 H   0  0  0  0  0  0  0  0  0  0  0  0
  137.8350   80.3250  222.7690 C   0  0  0  0  0  0  0  0  0  0  0  0
  137.4249   80.7592  223.6927 H   0  0  0  0  0  0  0  0  0  0  0  0
  138.3256   81.1135  222.1795 H   0  0  0  0  0  0  0  0  0  0  0  0
  137.0198   79.8801  222.1795 H   0  0  0  0  0  0  0  0  0  0  0  0
  141.1160   73.1820  221.5290 C   0  0  0  0  0  0  0  0  0  0  0  0
  142.0251   73.0869  220.9170 H   0  0  0  0  0  0  0  0  0  0  0  0
  141.3986   73.5075  222.5410 H   0  0  0  0  0  0  0  0  0  0  0  0
  140.4310   71.8950  221.5940 N   0  0  0  0  0  0  0  0  0  0  0  0
  139.5210   71.5680  222.6510 C   0  0  0  0  0  0  0  0  0  0  0  0
  138.2900   71.7910  222.5190 O   0  0  0  0  0  0  0  0  0  0  0  0
  140.0300   71.0400  223.9280 C   0  0  0  0  0  0  0  0  0  0  0  0
  139.7310   69.7580  224.2910 N   0  0  0  0  0  0  0  0  0  0  0  0
  140.0540   69.2540  225.5130 C   0  0  0  0  0  0  0  0  0  0  0  0
  139.7030   67.9420  225.8500 C   0  0  0  0  0  0  0  0  0  0  0  0
  139.2121   67.2960  225.1073 H   0  0  0  0  0  0  0  0  0  0  0  0
  139.9770   67.4510  227.1340 C   0  0  0  0  0  0  0  0  0  0  0  0
  139.6917   66.4221  227.3985 H   0  0  0  0  0  0  0  0  0  0  0  0
  140.6120   68.2630  228.0820 C   0  0  0  0  0  0  0  0  0  0  0  0
  140.8420   67.7960  229.3320 F   0  0  0  0  0  0  0  0  0  0  0  0
  140.9910   69.5660  227.7460 C   0  0  0  0  0  0  0  0  0  0  0  0
  141.5061   70.1974  228.4849 H   0  0  0  0  0  0  0  0  0  0  0  0
  140.7130   70.0690  226.4620 C   0  0  0  0  0  0  0  0  0  0  0  0
  141.0550   71.3770  226.1020 C   0  0  0  0  0  0  0  0  0  0  0  0
  141.5891   72.0217  226.8155 H   0  0  0  0  0  0  0  0  0  0  0  0
  140.7170   71.8670  224.8310 C   0  0  0  0  0  0  0  0  0  0  0  0
  140.9889   72.8935  224.5438 H   0  0  0  0  0  0  0  0  0  0  0  0
  1  2  1  0
  2  3  1  0
  3  4  2  0
  4  5  1  0
  5  6  1  0
  5  7  1  0
  5  8  1  0
  8  9  1  6
  8 10  1  0
 10 11  1  0
  8 12  1  0
 12 13  1  0
 12 14  1  0
 12 15  1  0
 15 16  1  1
 15 17  1  0
 17 18  2  0
 17 19  1  0
 19 20  1  0
 20 21  1  1
 20 22  1  0
 22 23  2  0
 23 24  1  0
 23 25  1  0
 25 26  1  0
 25 27  2  0
 27 28  1  0
 27 29  1  0
 29 30  1  0
 29 31  2  0
 31 32  1  0
 20 33  1  0
 33 34  1  0
 33 35  1  0
 33 36  1  0
  3 37  1  0
 37 38  1  0
 37 39  1  0
 37 40  1  0
 40 41  1  0
 41 42  2  0
 41 43  1  0
 43 44  2  0
 44 45  1  0
 45 46  2  0
 46 47  1  0
 46 48  1  0
 48 49  1  0
 48 50  2  0
 50 51  1  0
 50 52  1  0
 52 53  1  0
 52 54  2  0
 54 55  1  0
 55 56  1  0
 55 57  2  0
 57 58  1  0
 15  4  1  0
 31 22  1  0
 57 43  1  0
 54 45  1  0
M  CHG  3   4   1  19  -1  40  -1
M  END
>  <UniqueID>  (57) 
86

>  <SMILES>  (57) 
C[C@@H]([N-]C(=O)[C@@H]1C[C@@H](O)C/[N+]1=C(/O)C[N-]C(=O)c1ccc2cc(F)ccc2n1)c1ccccc1

>  <Energy>  (57) 
64.04925467578332

>  <Genealogy>  (57) 
C[C@@H]([N-]C(=O)[C@@H]1C[C@@H](O)C[NH+]1C(=O)C[N-]C(=O)c1ccc2cc(F)ccc2n1)c1ccccc1 (protonated)
C[C@@H]([N-]C(=O)[C@@H]1C[C@@H](O)C[N+]1=C(O)C[N-]C(=O)c1ccc2cc(F)ccc2n1)c1ccccc1 (tautomer)
C[C@@H]([N-]C(=O)[C@@H]1C[C@@H](O)C/[N+]1=C(/O)C[N-]C(=O)c1ccc2cc(F)ccc2n1)c1ccccc1 (cis-trans isomerization)
C[C@@H]([N-]C(=O)[C@@H]1C[C@@H](O)C/[N+]1=C(/O)C[N-]C(=O)c1ccc2cc(F)ccc2n1)c1ccccc1 (3D coordinates assigned)
C[C@@H]([N-]C(=O)[C@@H]1C[C@@H](O)C/[N+]1=C(/O)C[N-]C(=O)c1ccc2cc(F)ccc2n1)c1ccccc1 (nonaromatic ring conformer: 64.04925467578332 kcal/mol)

>  <smiles>  (57) 
C[C@@H](NC(=O)[C@@H]1C[C@@H](O)CN1C(=O)CNC(=O)c1ccc2cc(F)ccc2n1)c1ccccc1

>  <score_type>  (57) 
oracle

>  <origin>  (57) 
autodockgpu

>  <m_score__min__energy>  (57) 
-8.9499999999999993

>  <m_primary>  (57) 
energy

>  <meeko>  (57) 
{"free_energy": -7.33, "intermolecular_energy": -10.62, "internal_energy": -3.33, "cluster_size": 14, "cluster_id": 1, "rank_in_cluster": 12}

>  <energy>  (57) 
-7.72

>  <cluster_rmsd>  (57) 
0.0

>  <rmsd>  (57) 
271.83

>  <cluster>  (57) 
3

$$$$
DWYNEBQVPRLYJI-KZHXFCNENA-M
     RDKit          3D

 58 61  0  0  0  0  0  0  0  0999 V2000
  139.4920   74.7190  220.8810 H   0  0  0  0  0  0  0  0  0  0  0  0
  139.9110   74.0930  220.2180 O   0  0  0  0  0  0  0  0  0  0  0  0
  141.2930   73.9740  220.0380 C   0  0  0  0  0  0  0  0  0  0  0  0
  141.9780   74.8700  219.3590 N   0  0  0  0  0  0  0  0  0  0  0  0
  142.3750   74.7050  217.9570 C   0  0  0  0  0  0  0  0  0  0  0  0
  141.4856   74.6018  217.3180 H   0  0  0  0  0  0  0  0  0  0  0  0
  142.9859   73.8012  217.8160 H   0  0  0  0  0  0  0  0  0  0  0  0
  143.1520   75.9680  217.5850 C   0  0  2  0  0  0  0  0  0  0  0  0
  142.5484   76.6680  216.9886 H   0  0  0  0  0  0  0  0  0  0  0  0
  144.2660   75.6500  216.7870 O   0  0  0  0  0  0  0  0  0  0  0  0
  145.0550   76.0300  217.2380 H   0  0  0  0  0  0  0  0  0  0  0  0
  143.5660   76.5960  218.9200 C   0  0  0  0  0  0  0  0  0  0  0  0
  143.5333   77.6936  218.8558 H   0  0  0  0  0  0  0  0  0  0  0  0
  144.5944   76.3235  219.1994 H   0  0  0  0  0  0  0  0  0  0  0  0
  142.5440   76.0880  219.9410 C   0  0  1  0  0  0  0  0  0  0  0  0
  143.0093   75.8849  220.9168 H   0  0  0  0  0  0  0  0  0  0  0  0
  141.4810   77.1200  220.1970 C   0  0  0  0  0  0  0  0  0  0  0  0
  141.6480   78.3160  219.8330 O   0  0  0  0  0  0  0  0  0  0  0  0
  140.3010   76.7380  220.9110 N   0  0  0  0  0  0  0  0  0  0  0  0
  140.1210   76.9490  222.3440 C   0  0  1  0  0  0  0  0  0  0  0  0
  140.7105   76.2065  222.9019 H   0  0  0  0  0  0  0  0  0  0  0  0
  140.6100   78.3310  222.7330 C   0  0  0  0  0  0  0  0  0  0  0  0
  141.8130   78.4920  223.4410 C   0  0  0  0  0  0  0  0  0  0  0  0
  142.4153   77.6107  223.7068 H   0  0  0  0  0  0  0  0  0  0  0  0
  142.2460   79.7680  223.8080 C   0  0  0  0  0  0  0  0  0  0  0  0
  143.1872   79.8875  224.3646 H   0  0  0  0  0  0  0  0  0  0  0  0
  141.4880   80.8960  223.4710 C   0  0  0  0  0  0  0  0  0  0  0  0
  141.8302   81.8982  223.7686 H   0  0  0  0  0  0  0  0  0  0  0  0
  140.3010   80.7480  222.7590 C   0  0  0  0  0  0  0  0  0  0  0  0
  139.7077   81.6338  222.4882 H   0  0  0  0  0  0  0  0  0  0  0  0
  139.8630   79.4720  222.3880 C   0  0  0  0  0  0  0  0  0  0  0  0
  138.9266   79.3601  221.8217 H   0  0  0  0  0  0  0  0  0  0  0  0
  138.6430   76.7790  222.7000 C   0  0  0  0  0  0  0  0  0  0  0  0
  138.5285   76.7658  223.7939 H   0  0  0  0  0  0  0  0  0  0  0  0
  138.0662   77.6167  222.2810 H   0  0  0  0  0  0  0  0  0  0  0  0
  138.2715   75.8322  222.2810 H   0  0  0  0  0  0  0  0  0  0  0  0
  141.9700   72.8240  220.7380 C   0  0  0  0  0  0  0  0  0  0  0  0
  142.5075   72.2077  220.0023 H   0  0  0  0  0  0  0  0  0  0  0  0
  142.6888   73.2067  221.4776 H   0  0  0  0  0  0  0  0  0  0  0  0
  140.9530   72.0170  221.4050 N   0  0  0  0  0  0  0  0  0  0  0  0
  140.2860   72.4580  222.5930 C   0  0  0  0  0  0  0  0  0  0  0  0
  139.9330   73.6590  222.7120 O   0  0  0  0  0  0  0  0  0  0  0  0
  140.0800   71.5270  223.7140 C   0  0  0  0  0  0  0  0  0  0  0  0
  140.5630   71.8460  224.9510 N   0  0  0  0  0  0  0  0  0  0  0  0
  140.5260   70.9730  225.9940 C   0  0  0  0  0  0  0  0  0  0  0  0
  141.0590   71.3360  227.2360 C   0  0  0  0  0  0  0  0  0  0  0  0
  141.4615   72.3485  227.3870 H   0  0  0  0  0  0  0  0  0  0  0  0
  141.0800   70.4090  228.2880 C   0  0  0  0  0  0  0  0  0  0  0  0
  141.5079   70.6944  229.2603 H   0  0  0  0  0  0  0  0  0  0  0  0
  140.5590   69.1220  228.1070 C   0  0  0  0  0  0  0  0  0  0  0  0
  140.6150   68.2190  229.1140 F   0  0  0  0  0  0  0  0  0  0  0  0
  140.0000   68.7590  226.8780 C   0  0  0  0  0  0  0  0  0  0  0  0
  139.5740   67.7540  226.7421 H   0  0  0  0  0  0  0  0  0  0  0  0
  139.9830   69.6810  225.8150 C   0  0  0  0  0  0  0  0  0  0  0  0
  139.4540   69.3410  224.5650 C   0  0  0  0  0  0  0  0  0  0  0  0
  139.0036   68.3495  224.4097 H   0  0  0  0  0  0  0  0  0  0  0  0
  139.4980   70.2650  223.5090 C   0  0  0  0  0  0  0  0  0  0  0  0
  139.0790   70.0022  222.5264 H   0  0  0  0  0  0  0  0  0  0  0  0
  1  2  1  0
  2  3  1  0
  3  4  2  0
  4  5  1  0
  5  6  1  0
  5  7  1  0
  5  8  1  0
  8  9  1  6
  8 10  1  0
 10 11  1  0
  8 12  1  0
 12 13  1  0
 12 14  1  0
 12 15  1  0
 15 16  1  1
 15 17  1  0
 17 18  2  0
 17 19  1  0
 19 20  1  0
 20 21  1  1
 20 22  1  0
 22 23  2  0
 23 24  1  0
 23 25  1  0
 25 26  1  0
 25 27  2  0
 27 28  1  0
 27 29  1  0
 29 30  1  0
 29 31  2  0
 31 32  1  0
 20 33  1  0
 33 34  1  0
 33 35  1  0
 33 36  1  0
  3 37  1  0
 37 38  1  0
 37 39  1  0
 37 40  1  0
 40 41  1  0
 41 42  2  0
 41 43  1  0
 43 44  2  0
 44 45  1  0
 45 46  2  0
 46 47  1  0
 46 48  1  0
 48 49  1  0
 48 50  2  0
 50 51  1  0
 50 52  1  0
 52 53  1  0
 52 54  2  0
 54 55  1  0
 55 56  1  0
 55 57  2  0
 57 58  1  0
 15  4  1  0
 31 22  1  0
 57 43  1  0
 54 45  1  0
M  CHG  3   4   1  19  -1  40  -1
M  END
>  <UniqueID>  (58) 
86

>  <SMILES>  (58) 
C[C@@H]([N-]C(=O)[C@@H]1C[C@@H](O)C/[N+]1=C(/O)C[N-]C(=O)c1ccc2cc(F)ccc2n1)c1ccccc1

>  <Energy>  (58) 
64.04925467578332

>  <Genealogy>  (58) 
C[C@@H]([N-]C(=O)[C@@H]1C[C@@H](O)C[NH+]1C(=O)C[N-]C(=O)c1ccc2cc(F)ccc2n1)c1ccccc1 (protonated)
C[C@@H]([N-]C(=O)[C@@H]1C[C@@H](O)C[N+]1=C(O)C[N-]C(=O)c1ccc2cc(F)ccc2n1)c1ccccc1 (tautomer)
C[C@@H]([N-]C(=O)[C@@H]1C[C@@H](O)C/[N+]1=C(/O)C[N-]C(=O)c1ccc2cc(F)ccc2n1)c1ccccc1 (cis-trans isomerization)
C[C@@H]([N-]C(=O)[C@@H]1C[C@@H](O)C/[N+]1=C(/O)C[N-]C(=O)c1ccc2cc(F)ccc2n1)c1ccccc1 (3D coordinates assigned)
C[C@@H]([N-]C(=O)[C@@H]1C[C@@H](O)C/[N+]1=C(/O)C[N-]C(=O)c1ccc2cc(F)ccc2n1)c1ccccc1 (nonaromatic ring conformer: 64.04925467578332 kcal/mol)

>  <smiles>  (58) 
C[C@@H](NC(=O)[C@@H]1C[C@@H](O)CN1C(=O)CNC(=O)c1ccc2cc(F)ccc2n1)c1ccccc1

>  <score_type>  (58) 
oracle

>  <origin>  (58) 
autodockgpu

>  <m_score__min__energy>  (58) 
-8.9499999999999993

>  <m_primary>  (58) 
energy

>  <meeko>  (58) 
{"free_energy": -7.78, "intermolecular_energy": -11.06, "internal_energy": -3.17, "cluster_size": 14, "cluster_id": 1, "rank_in_cluster": 7}

>  <energy>  (58) 
-6.38

>  <cluster_rmsd>  (58) 
0.0

>  <rmsd>  (58) 
271.64

>  <cluster>  (58) 
4

$$$$
DWYNEBQVPRLYJI-KZHXFCNENA-M
     RDKit          3D

 58 61  0  0  0  0  0  0  0  0999 V2000
  136.1200   75.9260  220.9760 H   0  0  0  0  0  0  0  0  0  0  0  0
  136.2310   74.9380  221.1110 O   0  0  0  0  0  0  0  0  0  0  0  0
  137.4360   74.3440  221.5010 C   0  0  0  0  0  0  0  0  0  0  0  0
  138.5840   74.9770  221.3850 N   0  0  0  0  0  0  0  0  0  0  0  0
  139.6840   74.5240  220.5280 C   0  0  0  0  0  0  0  0  0  0  0  0
  139.3612   74.4936  219.4769 H   0  0  0  0  0  0  0  0  0  0  0  0
  140.0129   73.5100  220.7991 H   0  0  0  0  0  0  0  0  0  0  0  0
  140.8100   75.5430  220.7080 C   0  0  2  0  0  0  0  0  0  0  0  0
  140.8781   76.2432  219.8624 H   0  0  0  0  0  0  0  0  0  0  0  0
  142.0590   74.8990  220.7700 O   0  0  0  0  0  0  0  0  0  0  0  0
  141.9560   74.1400  221.3900 H   0  0  0  0  0  0  0  0  0  0  0  0
  140.4820   76.2800  222.0100 C   0  0  0  0  0  0  0  0  0  0  0  0
  140.7647   77.3403  221.9337 H   0  0  0  0  0  0  0  0  0  0  0  0
  141.0331   75.8631  222.8658 H   0  0  0  0  0  0  0  0  0  0  0  0
  138.9680   76.1410  222.1860 C   0  0  1  0  0  0  0  0  0  0  0  0
  138.6914   76.0081  223.2423 H   0  0  0  0  0  0  0  0  0  0  0  0
  138.2560   77.3830  221.7260 C   0  0  0  0  0  0  0  0  0  0  0  0
  137.2090   77.3010  221.0300 O   0  0  0  0  0  0  0  0  0  0  0  0
  138.8170   78.6610  222.0420 N   0  0  0  0  0  0  0  0  0  0  0  0
  139.1520   79.0820  223.3990 C   0  0  1  0  0  0  0  0  0  0  0  0
  139.1285   78.2103  224.0694 H   0  0  0  0  0  0  0  0  0  0  0  0
  140.5500   79.6690  223.4330 C   0  0  0  0  0  0  0  0  0  0  0  0
  140.7570   81.0040  223.8190 C   0  0  0  0  0  0  0  0  0  0  0  0
  139.9006   81.6296  224.1110 H   0  0  0  0  0  0  0  0  0  0  0  0
  142.0470   81.5390  223.8330 C   0  0  0  0  0  0  0  0  0  0  0  0
  142.2022   82.5859  224.1329 H   0  0  0  0  0  0  0  0  0  0  0  0
  143.1440   80.7490  223.4670 C   0  0  0  0  0  0  0  0  0  0  0  0
  144.1574   81.1767  223.4735 H   0  0  0  0  0  0  0  0  0  0  0  0
  142.9500   79.4220  223.0950 C   0  0  0  0  0  0  0  0  0  0  0  0
  143.8114   78.7989  222.8125 H   0  0  0  0  0  0  0  0  0  0  0  0
  141.6610   78.8800  223.0800 C   0  0  0  0  0  0  0  0  0  0  0  0
  141.5141   77.8291  222.7901 H   0  0  0  0  0  0  0  0  0  0  0  0
  138.1250   80.1070  223.8820 C   0  0  0  0  0  0  0  0  0  0  0  0
  138.1106   80.1214  224.9818 H   0  0  0  0  0  0  0  0  0  0  0  0
  138.3973   81.1042  223.5058 H   0  0  0  0  0  0  0  0  0  0  0  0
  137.1284   79.8328  223.5058 H   0  0  0  0  0  0  0  0  0  0  0  0
  137.3430   72.9850  222.1470 C   0  0  0  0  0  0  0  0  0  0  0  0
  137.2085   73.0998  223.2327 H   0  0  0  0  0  0  0  0  0  0  0  0
  136.4845   72.4332  221.7365 H   0  0  0  0  0  0  0  0  0  0  0  0
  138.5770   72.2540  221.8800 N   0  0  0  0  0  0  0  0  0  0  0  0
  139.6550   72.2030  222.8230 C   0  0  0  0  0  0  0  0  0  0  0  0
  140.6580   72.9470  222.6790 O   0  0  0  0  0  0  0  0  0  0  0  0
  139.6290   71.2250  223.9230 C   0  0  0  0  0  0  0  0  0  0  0  0
  140.1950   71.5490  225.1230 N   0  0  0  0  0  0  0  0  0  0  0  0
  140.3250   70.6460  226.1330 C   0  0  0  0  0  0  0  0  0  0  0  0
  140.9380   71.0170  227.3350 C   0  0  0  0  0  0  0  0  0  0  0  0
  141.2685   72.0552  227.4863 H   0  0  0  0  0  0  0  0  0  0  0  0
  141.1310   70.0650  228.3470 C   0  0  0  0  0  0  0  0  0  0  0  0
  141.6206   70.3573  229.2876 H   0  0  0  0  0  0  0  0  0  0  0  0
  140.7030   68.7440  228.1650 C   0  0  0  0  0  0  0  0  0  0  0  0
  140.9240   67.8200  229.1300 F   0  0  0  0  0  0  0  0  0  0  0  0
  140.0660   68.3700  226.9790 C   0  0  0  0  0  0  0  0  0  0  0  0
  139.7141   67.3364  226.8452 H   0  0  0  0  0  0  0  0  0  0  0  0
  139.8750   69.3180  225.9550 C   0  0  0  0  0  0  0  0  0  0  0  0
  139.2650   68.9710  224.7460 C   0  0  0  0  0  0  0  0  0  0  0  0
  138.8859   67.9495  224.5949 H   0  0  0  0  0  0  0  0  0  0  0  0
  139.1360   69.9250  223.7250 C   0  0  0  0  0  0  0  0  0  0  0  0
  138.6514   69.6561  222.7748 H   0  0  0  0  0  0  0  0  0  0  0  0
  1  2  1  0
  2  3  1  0
  3  4  2  0
  4  5  1  0
  5  6  1  0
  5  7  1  0
  5  8  1  0
  8  9  1  6
  8 10  1  0
 10 11  1  0
  8 12  1  0
 12 13  1  0
 12 14  1  0
 12 15  1  0
 15 16  1  1
 15 17  1  0
 17 18  2  0
 17 19  1  0
 19 20  1  0
 20 21  1  1
 20 22  1  0
 22 23  2  0
 23 24  1  0
 23 25  1  0
 25 26  1  0
 25 27  2  0
 27 28  1  0
 27 29  1  0
 29 30  1  0
 29 31  2  0
 31 32  1  0
 20 33  1  0
 33 34  1  0
 33 35  1  0
 33 36  1  0
  3 37  1  0
 37 38  1  0
 37 39  1  0
 37 40  1  0
 40 41  1  0
 41 42  2  0
 41 43  1  0
 43 44  2  0
 44 45  1  0
 45 46  2  0
 46 47  1  0
 46 48  1  0
 48 49  1  0
 48 50  2  0
 50 51  1  0
 50 52  1  0
 52 53  1  0
 52 54  2  0
 54 55  1  0
 55 56  1  0
 55 57  2  0
 57 58  1  0
 15  4  1  0
 31 22  1  0
 57 43  1  0
 54 45  1  0
M  CHG  3   4   1  19  -1  40  -1
M  END
>  <UniqueID>  (59) 
86

>  <SMILES>  (59) 
C[C@@H]([N-]C(=O)[C@@H]1C[C@@H](O)C/[N+]1=C(/O)C[N-]C(=O)c1ccc2cc(F)ccc2n1)c1ccccc1

>  <Energy>  (59) 
64.04925467578332

>  <Genealogy>  (59) 
C[C@@H]([N-]C(=O)[C@@H]1C[C@@H](O)C[NH+]1C(=O)C[N-]C(=O)c1ccc2cc(F)ccc2n1)c1ccccc1 (protonated)
C[C@@H]([N-]C(=O)[C@@H]1C[C@@H](O)C[N+]1=C(O)C[N-]C(=O)c1ccc2cc(F)ccc2n1)c1ccccc1 (tautomer)
C[C@@H]([N-]C(=O)[C@@H]1C[C@@H](O)C/[N+]1=C(/O)C[N-]C(=O)c1ccc2cc(F)ccc2n1)c1ccccc1 (cis-trans isomerization)
C[C@@H]([N-]C(=O)[C@@H]1C[C@@H](O)C/[N+]1=C(/O)C[N-]C(=O)c1ccc2cc(F)ccc2n1)c1ccccc1 (3D coordinates assigned)
C[C@@H]([N-]C(=O)[C@@H]1C[C@@H](O)C/[N+]1=C(/O)C[N-]C(=O)c1ccc2cc(F)ccc2n1)c1ccccc1 (nonaromatic ring conformer: 64.04925467578332 kcal/mol)

>  <smiles>  (59) 
C[C@@H](NC(=O)[C@@H]1C[C@@H](O)CN1C(=O)CNC(=O)c1ccc2cc(F)ccc2n1)c1ccccc1

>  <score_type>  (59) 
oracle

>  <origin>  (59) 
autodockgpu

>  <m_score__min__energy>  (59) 
-8.9499999999999993

>  <m_primary>  (59) 
energy

>  <meeko>  (59) 
{"free_energy": -7.27, "intermolecular_energy": -10.55, "internal_energy": -3.36, "cluster_size": 14, "cluster_id": 1, "rank_in_cluster": 13}

>  <energy>  (59) 
-5.63

>  <cluster_rmsd>  (59) 
0.0

>  <rmsd>  (59) 
272.01

>  <cluster>  (59) 
5

$$$$
DWYNEBQVPRLYJI-KZHXFCNENA-M
     RDKit          3D

 58 61  0  0  0  0  0  0  0  0999 V2000
  142.3220   73.3670  220.6630 H   0  0  0  0  0  0  0  0  0  0  0  0
  142.3580   74.2850  220.2580 O   0  0  0  0  0  0  0  0  0  0  0  0
  141.4060   75.2770  220.5130 C   0  0  0  0  0  0  0  0  0  0  0  0
  141.5300   76.4920  220.0220 N   0  0  0  0  0  0  0  0  0  0  0  0
  142.1500   76.7900  218.7280 C   0  0  0  0  0  0  0  0  0  0  0  0
  141.5947   76.2972  217.9163 H   0  0  0  0  0  0  0  0  0  0  0  0
  143.1863   76.4237  218.6854 H   0  0  0  0  0  0  0  0  0  0  0  0
  142.0880   78.3090  218.5670 C   0  0  2  0  0  0  0  0  0  0  0  0
  141.2861   78.6231  217.8827 H   0  0  0  0  0  0  0  0  0  0  0  0
  143.2820   78.8000  218.0060 O   0  0  0  0  0  0  0  0  0  0  0  0
  143.0700   79.0670  217.0810 H   0  0  0  0  0  0  0  0  0  0  0  0
  141.8550   78.8550  219.9800 C   0  0  0  0  0  0  0  0  0  0  0  0
  141.1977   79.7365  219.9487 H   0  0  0  0  0  0  0  0  0  0  0  0
  142.7940   79.1742  220.4558 H   0  0  0  0  0  0  0  0  0  0  0  0
  141.1850   77.7140  220.7500 C   0  0  1  0  0  0  0  0  0  0  0  0
  141.5311   77.6680  221.7931 H   0  0  0  0  0  0  0  0  0  0  0  0
  139.6960   77.9120  220.8180 C   0  0  0  0  0  0  0  0  0  0  0  0
  139.0540   78.2950  219.8020 O   0  0  0  0  0  0  0  0  0  0  0  0
  139.0260   77.7140  222.0660 N   0  0  0  0  0  0  0  0  0  0  0  0
  138.9010   78.7490  223.0880 C   0  0  1  0  0  0  0  0  0  0  0  0
  138.7392   78.2778  224.0687 H   0  0  0  0  0  0  0  0  0  0  0  0
  140.1750   79.5680  223.1600 C   0  0  0  0  0  0  0  0  0  0  0  0
  140.2160   80.8760  222.6480 C   0  0  0  0  0  0  0  0  0  0  0  0
  139.3141   81.3182  222.1996 H   0  0  0  0  0  0  0  0  0  0  0  0
  141.3990   81.6160  222.7070 C   0  0  0  0  0  0  0  0  0  0  0  0
  141.4252   82.6387  222.3028 H   0  0  0  0  0  0  0  0  0  0  0  0
  142.5520   81.0630  223.2780 C   0  0  0  0  0  0  0  0  0  0  0  0
  143.4831   81.6475  223.3149 H   0  0  0  0  0  0  0  0  0  0  0  0
  142.5180   79.7720  223.7990 C   0  0  0  0  0  0  0  0  0  0  0  0
  143.4209   79.3384  224.2537 H   0  0  0  0  0  0  0  0  0  0  0  0
  141.3360   79.0270  223.7440 C   0  0  0  0  0  0  0  0  0  0  0  0
  141.3132   78.0093  224.1607 H   0  0  0  0  0  0  0  0  0  0  0  0
  137.7030   79.6430  222.7630 C   0  0  0  0  0  0  0  0  0  0  0  0
  137.2393   79.9891  223.6985 H   0  0  0  0  0  0  0  0  0  0  0  0
  138.0413   80.5112  222.1784 H   0  0  0  0  0  0  0  0  0  0  0  0
  136.9670   79.0716  222.1784 H   0  0  0  0  0  0  0  0  0  0  0  0
  140.1870   74.8600  221.2950 C   0  0  0  0  0  0  0  0  0  0  0  0
  139.7183   75.7453  221.7494 H   0  0  0  0  0  0  0  0  0  0  0  0
  139.4613   74.3743  220.6261 H   0  0  0  0  0  0  0  0  0  0  0  0
  140.5970   73.9300  222.3420 N   0  0  0  0  0  0  0  0  0  0  0  0
  140.5380   72.5090  222.1680 C   0  0  0  0  0  0  0  0  0  0  0  0
  140.6810   72.0050  221.0240 O   0  0  0  0  0  0  0  0  0  0  0  0
  140.2320   71.6360  223.3120 C   0  0  0  0  0  0  0  0  0  0  0  0
  140.6830   71.9760  224.5560 N   0  0  0  0  0  0  0  0  0  0  0  0
  140.5520   71.1490  225.6280 C   0  0  0  0  0  0  0  0  0  0  0  0
  141.0550   71.5290  226.8780 C   0  0  0  0  0  0  0  0  0  0  0  0
  141.5101   72.5219  227.0087 H   0  0  0  0  0  0  0  0  0  0  0  0
  140.9790   70.6450  227.9630 C   0  0  0  0  0  0  0  0  0  0  0  0
  141.3826   70.9441  228.9416 H   0  0  0  0  0  0  0  0  0  0  0  0
  140.3920   69.3830  227.8080 C   0  0  0  0  0  0  0  0  0  0  0  0
  140.3530   68.5200  228.8500 F   0  0  0  0  0  0  0  0  0  0  0  0
  139.8620   69.0040  226.5710 C   0  0  0  0  0  0  0  0  0  0  0  0
  139.3832   68.0205  226.4550 H   0  0  0  0  0  0  0  0  0  0  0  0
  139.9420   69.8830  225.4740 C   0  0  0  0  0  0  0  0  0  0  0  0
  139.4450   69.5250  224.2170 C   0  0  0  0  0  0  0  0  0  0  0  0
  138.9433   68.5557  224.0799 H   0  0  0  0  0  0  0  0  0  0  0  0
  139.5860   70.4020  223.1300 C   0  0  0  0  0  0  0  0  0  0  0  0
  139.1927   70.1244  222.1409 H   0  0  0  0  0  0  0  0  0  0  0  0
  1  2  1  0
  2  3  1  0
  3  4  2  0
  4  5  1  0
  5  6  1  0
  5  7  1  0
  5  8  1  0
  8  9  1  6
  8 10  1  0
 10 11  1  0
  8 12  1  0
 12 13  1  0
 12 14  1  0
 12 15  1  0
 15 16  1  1
 15 17  1  0
 17 18  2  0
 17 19  1  0
 19 20  1  0
 20 21  1  1
 20 22  1  0
 22 23  2  0
 23 24  1  0
 23 25  1  0
 25 26  1  0
 25 27  2  0
 27 28  1  0
 27 29  1  0
 29 30  1  0
 29 31  2  0
 31 32  1  0
 20 33  1  0
 33 34  1  0
 33 35  1  0
 33 36  1  0
  3 37  1  0
 37 38  1  0
 37 39  1  0
 37 40  1  0
 40 41  1  0
 41 42  2  0
 41 43  1  0
 43 44  2  0
 44 45  1  0
 45 46  2  0
 46 47  1  0
 46 48  1  0
 48 49  1  0
 48 50  2  0
 50 51  1  0
 50 52  1  0
 52 53  1  0
 52 54  2  0
 54 55  1  0
 55 56  1  0
 55 57  2  0
 57 58  1  0
 15  4  1  0
 31 22  1  0
 57 43  1  0
 54 45  1  0
M  CHG  3   4   1  19  -1  40  -1
M  END
>  <UniqueID>  (60) 
86

>  <SMILES>  (60) 
C[C@@H]([N-]C(=O)[C@@H]1C[C@@H](O)C/[N+]1=C(/O)C[N-]C(=O)c1ccc2cc(F)ccc2n1)c1ccccc1

>  <Energy>  (60) 
64.04925467578332

>  <Genealogy>  (60) 
C[C@@H]([N-]C(=O)[C@@H]1C[C@@H](O)C[NH+]1C(=O)C[N-]C(=O)c1ccc2cc(F)ccc2n1)c1ccccc1 (protonated)
C[C@@H]([N-]C(=O)[C@@H]1C[C@@H](O)C[N+]1=C(O)C[N-]C(=O)c1ccc2cc(F)ccc2n1)c1ccccc1 (tautomer)
C[C@@H]([N-]C(=O)[C@@H]1C[C@@H](O)C/[N+]1=C(/O)C[N-]C(=O)c1ccc2cc(F)ccc2n1)c1ccccc1 (cis-trans isomerization)
C[C@@H]([N-]C(=O)[C@@H]1C[C@@H](O)C/[N+]1=C(/O)C[N-]C(=O)c1ccc2cc(F)ccc2n1)c1ccccc1 (3D coordinates assigned)
C[C@@H]([N-]C(=O)[C@@H]1C[C@@H](O)C/[N+]1=C(/O)C[N-]C(=O)c1ccc2cc(F)ccc2n1)c1ccccc1 (nonaromatic ring conformer: 64.04925467578332 kcal/mol)

>  <smiles>  (60) 
C[C@@H](NC(=O)[C@@H]1C[C@@H](O)CN1C(=O)CNC(=O)c1ccc2cc(F)ccc2n1)c1ccccc1

>  <score_type>  (60) 
oracle

>  <origin>  (60) 
autodockgpu

>  <m_score__min__energy>  (60) 
-8.9499999999999993

>  <m_primary>  (60) 
energy

>  <meeko>  (60) 
{"free_energy": -7.74, "intermolecular_energy": -11.02, "internal_energy": -2.9, "cluster_size": 14, "cluster_id": 1, "rank_in_cluster": 8}

>  <energy>  (60) 
-5.4

>  <cluster_rmsd>  (60) 
0.0

>  <rmsd>  (60) 
271.77

>  <cluster>  (60) 
6

$$$$
DWYNEBQVPRLYJI-KZHXFCNENA-M
     RDKit          3D

 58 61  0  0  0  0  0  0  0  0999 V2000
  138.9910   74.3620  223.0750 H   0  0  0  0  0  0  0  0  0  0  0  0
  139.1860   75.2780  222.7140 O   0  0  0  0  0  0  0  0  0  0  0  0
  140.1510   75.5310  221.7330 C   0  0  0  0  0  0  0  0  0  0  0  0
  140.3590   76.7450  221.2690 N   0  0  0  0  0  0  0  0  0  0  0  0
  139.6510   77.3120  220.1170 C   0  0  0  0  0  0  0  0  0  0  0  0
  138.5698   77.3523  220.3154 H   0  0  0  0  0  0  0  0  0  0  0  0
  139.7955   76.6992  219.2150 H   0  0  0  0  0  0  0  0  0  0  0  0
  140.2090   78.7230  219.9290 C   0  0  2  0  0  0  0  0  0  0  0  0
  139.5261   79.4958  220.3115 H   0  0  0  0  0  0  0  0  0  0  0  0
  140.3840   79.0110  218.5620 O   0  0  0  0  0  0  0  0  0  0  0  0
  140.0240   79.9170  218.4160 H   0  0  0  0  0  0  0  0  0  0  0  0
  141.5390   78.7360  220.6900 C   0  0  0  0  0  0  0  0  0  0  0  0
  141.7029   79.7159  221.1621 H   0  0  0  0  0  0  0  0  0  0  0  0
  142.3946   78.5566  220.0223 H   0  0  0  0  0  0  0  0  0  0  0  0
  141.4080   77.6440  221.7540 C   0  0  1  0  0  0  0  0  0  0  0  0
  142.3560   77.1068  221.9046 H   0  0  0  0  0  0  0  0  0  0  0  0
  141.0510   78.2340  223.0900 C   0  0  0  0  0  0  0  0  0  0  0  0
  141.8990   78.2700  224.0220 O   0  0  0  0  0  0  0  0  0  0  0  0
  139.7170   78.7040  223.3060 N   0  0  0  0  0  0  0  0  0  0  0  0
  139.3990   80.0610  223.7400 C   0  0  1  0  0  0  0  0  0  0  0  0
  139.8640   80.2516  224.7185 H   0  0  0  0  0  0  0  0  0  0  0  0
  139.9500   81.0680  222.7490 C   0  0  0  0  0  0  0  0  0  0  0  0
  139.1150   81.6490  221.7790 C   0  0  0  0  0  0  0  0  0  0  0  0
  138.0486   81.3817  221.7419 H   0  0  0  0  0  0  0  0  0  0  0  0
  139.6360   82.5650  220.8620 C   0  0  0  0  0  0  0  0  0  0  0  0
  138.9781   83.0150  220.1040 H   0  0  0  0  0  0  0  0  0  0  0  0
  140.9910   82.9130  220.9030 C   0  0  0  0  0  0  0  0  0  0  0  0
  141.3977   83.6286  220.1732 H   0  0  0  0  0  0  0  0  0  0  0  0
  141.8240   82.3530  221.8680 C   0  0  0  0  0  0  0  0  0  0  0  0
  142.8876   82.6312  221.9056 H   0  0  0  0  0  0  0  0  0  0  0  0
  141.3070   81.4360  222.7900 C   0  0  0  0  0  0  0  0  0  0  0  0
  141.9676   80.9992  223.5534 H   0  0  0  0  0  0  0  0  0  0  0  0
  137.8830   80.2100  223.8740 C   0  0  0  0  0  0  0  0  0  0  0  0
  137.6099   80.2368  224.9392 H   0  0  0  0  0  0  0  0  0  0  0  0
  137.5621   81.1440  223.3896 H   0  0  0  0  0  0  0  0  0  0  0  0
  137.3864   79.3563  223.3896 H   0  0  0  0  0  0  0  0  0  0  0  0
  141.0030   74.3640  221.3050 C   0  0  0  0  0  0  0  0  0  0  0  0
  140.6238   73.9573  220.3559 H   0  0  0  0  0  0  0  0  0  0  0  0
  142.0434   74.6917  221.1632 H   0  0  0  0  0  0  0  0  0  0  0  0
  140.9420   73.3350  222.3400 N   0  0  0  0  0  0  0  0  0  0  0  0
  139.7940   72.4970  222.5160 C   0  0  0  0  0  0  0  0  0  0  0  0
  138.7900   72.6320  221.7710 O   0  0  0  0  0  0  0  0  0  0  0  0
  139.7510   71.5260  223.6210 C   0  0  0  0  0  0  0  0  0  0  0  0
  140.2530   71.8750  224.8430 N   0  0  0  0  0  0  0  0  0  0  0  0
  140.3670   70.9840  225.8640 C   0  0  0  0  0  0  0  0  0  0  0  0
  140.9140   71.3810  227.0890 C   0  0  0  0  0  0  0  0  0  0  0  0
  141.2048   72.4301  227.2467 H   0  0  0  0  0  0  0  0  0  0  0  0
  141.0920   70.4430  228.1160 C   0  0  0  0  0  0  0  0  0  0  0  0
  141.5279   70.7577  229.0756 H   0  0  0  0  0  0  0  0  0  0  0  0
  140.7170   69.1070  227.9250 C   0  0  0  0  0  0  0  0  0  0  0  0
  140.9250   68.1970  228.9060 F   0  0  0  0  0  0  0  0  0  0  0  0
  140.1460   68.7050  226.7140 C   0  0  0  0  0  0  0  0  0  0  0  0
  139.8348   67.6596  226.5719 H   0  0  0  0  0  0  0  0  0  0  0  0
  139.9700   69.6400  225.6770 C   0  0  0  0  0  0  0  0  0  0  0  0
  139.4250   69.2660  224.4450 C   0  0  0  0  0  0  0  0  0  0  0  0
  139.0852   68.2320  224.2856 H   0  0  0  0  0  0  0  0  0  0  0  0
  139.3110   70.2090  223.4110 C   0  0  0  0  0  0  0  0  0  0  0  0
  138.8795   69.9179  222.4419 H   0  0  0  0  0  0  0  0  0  0  0  0
  1  2  1  0
  2  3  1  0
  3  4  2  0
  4  5  1  0
  5  6  1  0
  5  7  1  0
  5  8  1  0
  8  9  1  1
  8 10  1  0
 10 11  1  0
  8 12  1  0
 12 13  1  0
 12 14  1  0
 12 15  1  0
 15 16  1  1
 15 17  1  0
 17 18  2  0
 17 19  1  0
 19 20  1  0
 20 21  1  1
 20 22  1  0
 22 23  2  0
 23 24  1  0
 23 25  1  0
 25 26  1  0
 25 27  2  0
 27 28  1  0
 27 29  1  0
 29 30  1  0
 29 31  2  0
 31 32  1  0
 20 33  1  0
 33 34  1  0
 33 35  1  0
 33 36  1  0
  3 37  1  0
 37 38  1  0
 37 39  1  0
 37 40  1  0
 40 41  1  0
 41 42  2  0
 41 43  1  0
 43 44  2  0
 44 45  1  0
 45 46  2  0
 46 47  1  0
 46 48  1  0
 48 49  1  0
 48 50  2  0
 50 51  1  0
 50 52  1  0
 52 53  1  0
 52 54  2  0
 54 55  1  0
 55 56  1  0
 55 57  2  0
 57 58  1  0
 15  4  1  0
 31 22  1  0
 57 43  1  0
 54 45  1  0
M  CHG  3   4   1  19  -1  40  -1
M  END
>  <UniqueID>  (61) 
87

>  <SMILES>  (61) 
C[C@@H]([N-]C(=O)[C@@H]1C[C@@H](O)C/[N+]1=C(/O)C[N-]C(=O)c1ccc2cc(F)ccc2n1)c1ccccc1

>  <Energy>  (61) 
64.12887411175834

>  <Genealogy>  (61) 
C[C@@H]([N-]C(=O)[C@@H]1C[C@@H](O)C[NH+]1C(=O)C[N-]C(=O)c1ccc2cc(F)ccc2n1)c1ccccc1 (protonated)
C[C@@H]([N-]C(=O)[C@@H]1C[C@@H](O)C[N+]1=C(O)C[N-]C(=O)c1ccc2cc(F)ccc2n1)c1ccccc1 (tautomer)
C[C@@H]([N-]C(=O)[C@@H]1C[C@@H](O)C/[N+]1=C(/O)C[N-]C(=O)c1ccc2cc(F)ccc2n1)c1ccccc1 (cis-trans isomerization)
C[C@@H]([N-]C(=O)[C@@H]1C[C@@H](O)C/[N+]1=C(/O)C[N-]C(=O)c1ccc2cc(F)ccc2n1)c1ccccc1 (3D coordinates assigned)
C[C@@H]([N-]C(=O)[C@@H]1C[C@@H](O)C/[N+]1=C(/O)C[N-]C(=O)c1ccc2cc(F)ccc2n1)c1ccccc1 (nonaromatic ring conformer: 64.12887411175834 kcal/mol)

>  <smiles>  (61) 
C[C@@H](NC(=O)[C@@H]1C[C@@H](O)CN1C(=O)CNC(=O)c1ccc2cc(F)ccc2n1)c1ccccc1

>  <score_type>  (61) 
oracle

>  <origin>  (61) 
autodockgpu

>  <m_score__min__energy>  (61) 
-8.9499999999999993

>  <m_primary>  (61) 
energy

>  <meeko>  (61) 
{"free_energy": -7.46, "intermolecular_energy": -10.74, "internal_energy": -3.28, "cluster_size": 14, "cluster_id": 1, "rank_in_cluster": 11}

>  <energy>  (61) 
-8.95

>  <cluster_rmsd>  (61) 
0.0

>  <rmsd>  (61) 
272.69

>  <cluster>  (61) 
1

$$$$
DWYNEBQVPRLYJI-KZHXFCNENA-M
     RDKit          3D

 58 61  0  0  0  0  0  0  0  0999 V2000
  139.7670   74.7450  220.6940 H   0  0  0  0  0  0  0  0  0  0  0  0
  139.9260   74.1390  219.9100 O   0  0  0  0  0  0  0  0  0  0  0  0
  141.0260   73.2810  219.8100 C   0  0  0  0  0  0  0  0  0  0  0  0
  142.2420   73.7430  219.6050 N   0  0  0  0  0  0  0  0  0  0  0  0
  143.1720   73.1850  218.6190 C   0  0  0  0  0  0  0  0  0  0  0  0
  142.7492   73.2668  217.6068 H   0  0  0  0  0  0  0  0  0  0  0  0
  143.3655   72.1188  218.8083 H   0  0  0  0  0  0  0  0  0  0  0  0
  144.4530   74.0120  218.7270 C   0  0  2  0  0  0  0  0  0  0  0  0
  144.5463   74.7439  217.9111 H   0  0  0  0  0  0  0  0  0  0  0  0
  145.5890   73.1870  218.6300 O   0  0  0  0  0  0  0  0  0  0  0  0
  146.3710   73.7860  218.5920 H   0  0  0  0  0  0  0  0  0  0  0  0
  144.3690   74.7100  220.0890 C   0  0  0  0  0  0  0  0  0  0  0  0
  144.8025   75.7194  220.0318 H   0  0  0  0  0  0  0  0  0  0  0  0
  144.9294   74.1658  220.8635 H   0  0  0  0  0  0  0  0  0  0  0  0
  142.8740   74.7860  220.4140 C   0  0  1  0  0  0  0  0  0  0  0  0
  142.6808   74.6307  221.4857 H   0  0  0  0  0  0  0  0  0  0  0  0
  142.3220   76.1460  220.0880 C   0  0  0  0  0  0  0  0  0  0  0  0
  142.9910   76.9590  219.3950 O   0  0  0  0  0  0  0  0  0  0  0  0
  141.0500   76.5240  220.6220 N   0  0  0  0  0  0  0  0  0  0  0  0
  140.8330   76.8660  222.0250 C   0  0  1  0  0  0  0  0  0  0  0  0
  141.3578   76.1415  222.6651 H   0  0  0  0  0  0  0  0  0  0  0  0
  141.3890   78.2460  222.3170 C   0  0  0  0  0  0  0  0  0  0  0  0
  141.7450   78.6120  223.6260 C   0  0  0  0  0  0  0  0  0  0  0  0
  141.6313   77.8895  224.4476 H   0  0  0  0  0  0  0  0  0  0  0  0
  142.2430   79.8910  223.8870 C   0  0  0  0  0  0  0  0  0  0  0  0
  142.5186   80.1720  224.9142 H   0  0  0  0  0  0  0  0  0  0  0  0
  142.3930   80.8170  222.8470 C   0  0  0  0  0  0  0  0  0  0  0  0
  142.7780   81.8255  223.0586 H   0  0  0  0  0  0  0  0  0  0  0  0
  142.0540   80.4590  221.5450 C   0  0  0  0  0  0  0  0  0  0  0  0
  142.1777   81.1827  220.7259 H   0  0  0  0  0  0  0  0  0  0  0  0
  141.5560   79.1790  221.2780 C   0  0  0  0  0  0  0  0  0  0  0  0
  141.2929   78.9001  220.2470 H   0  0  0  0  0  0  0  0  0  0  0  0
  139.3360   76.8100  222.3360 C   0  0  0  0  0  0  0  0  0  0  0  0
  139.1879   76.8045  223.4260 H   0  0  0  0  0  0  0  0  0  0  0  0
  138.8383   77.6902  221.9028 H   0  0  0  0  0  0  0  0  0  0  0  0
  138.9055   75.8951  221.9028 H   0  0  0  0  0  0  0  0  0  0  0  0
  140.7650   71.8150  220.0440 C   0  0  0  0  0  0  0  0  0  0  0  0
  139.7197   71.5807  219.7942 H   0  0  0  0  0  0  0  0  0  0  0  0
  141.4287   71.2102  219.4086 H   0  0  0  0  0  0  0  0  0  0  0  0
  141.0130   71.5140  221.4500 N   0  0  0  0  0  0  0  0  0  0  0  0
  140.2760   72.1400  222.5070 C   0  0  0  0  0  0  0  0  0  0  0  0
  139.9750   73.3590  222.4340 O   0  0  0  0  0  0  0  0  0  0  0  0
  139.9330   71.3800  223.7200 C   0  0  0  0  0  0  0  0  0  0  0  0
  140.5590   71.6760  224.8980 N   0  0  0  0  0  0  0  0  0  0  0  0
  140.3890   70.9270  226.0200 C   0  0  0  0  0  0  0  0  0  0  0  0
  141.0740   71.2530  227.1960 C   0  0  0  0  0  0  0  0  0  0  0  0
  141.7114   72.1488  227.2307 H   0  0  0  0  0  0  0  0  0  0  0  0
  140.9480   70.4380  228.3300 C   0  0  0  0  0  0  0  0  0  0  0  0
  141.4933   70.6934  229.2506 H   0  0  0  0  0  0  0  0  0  0  0  0
  140.1320   69.3010  228.2970 C   0  0  0  0  0  0  0  0  0  0  0  0
  140.0420   68.4970  229.3830 F   0  0  0  0  0  0  0  0  0  0  0  0
  139.4230   68.9810  227.1350 C   0  0  0  0  0  0  0  0  0  0  0  0
  138.7676   68.0978  227.1154 H   0  0  0  0  0  0  0  0  0  0  0  0
  139.5490   69.7900  225.9910 C   0  0  0  0  0  0  0  0  0  0  0  0
  138.8740   69.4840  224.8050 C   0  0  0  0  0  0  0  0  0  0  0  0
  138.1957   68.6189  224.7658 H   0  0  0  0  0  0  0  0  0  0  0  0
  139.0620   70.2810  223.6640 C   0  0  0  0  0  0  0  0  0  0  0  0
  138.5292   70.0450  222.7310 H   0  0  0  0  0  0  0  0  0  0  0  0
  1  2  1  0
  2  3  1  0
  3  4  2  0
  4  5  1  0
  5  6  1  0
  5  7  1  0
  5  8  1  0
  8  9  1  6
  8 10  1  0
 10 11  1  0
  8 12  1  0
 12 13  1  0
 12 14  1  0
 12 15  1  0
 15 16  1  1
 15 17  1  0
 17 18  2  0
 17 19  1  0
 19 20  1  0
 20 21  1  1
 20 22  1  0
 22 23  2  0
 23 24  1  0
 23 25  1  0
 25 26  1  0
 25 27  2  0
 27 28  1  0
 27 29  1  0
 29 30  1  0
 29 31  2  0
 31 32  1  0
 20 33  1  0
 33 34  1  0
 33 35  1  0
 33 36  1  0
  3 37  1  0
 37 38  1  0
 37 39  1  0
 37 40  1  0
 40 41  1  0
 41 42  2  0
 41 43  1  0
 43 44  2  0
 44 45  1  0
 45 46  2  0
 46 47  1  0
 46 48  1  0
 48 49  1  0
 48 50  2  0
 50 51  1  0
 50 52  1  0
 52 53  1  0
 52 54  2  0
 54 55  1  0
 55 56  1  0
 55 57  2  0
 57 58  1  0
 15  4  1  0
 31 22  1  0
 57 43  1  0
 54 45  1  0
M  CHG  3   4   1  19  -1  40  -1
M  END
>  <UniqueID>  (62) 
87

>  <SMILES>  (62) 
C[C@@H]([N-]C(=O)[C@@H]1C[C@@H](O)C/[N+]1=C(/O)C[N-]C(=O)c1ccc2cc(F)ccc2n1)c1ccccc1

>  <Energy>  (62) 
64.12887411175834

>  <Genealogy>  (62) 
C[C@@H]([N-]C(=O)[C@@H]1C[C@@H](O)C[NH+]1C(=O)C[N-]C(=O)c1ccc2cc(F)ccc2n1)c1ccccc1 (protonated)
C[C@@H]([N-]C(=O)[C@@H]1C[C@@H](O)C[N+]1=C(O)C[N-]C(=O)c1ccc2cc(F)ccc2n1)c1ccccc1 (tautomer)
C[C@@H]([N-]C(=O)[C@@H]1C[C@@H](O)C/[N+]1=C(/O)C[N-]C(=O)c1ccc2cc(F)ccc2n1)c1ccccc1 (cis-trans isomerization)
C[C@@H]([N-]C(=O)[C@@H]1C[C@@H](O)C/[N+]1=C(/O)C[N-]C(=O)c1ccc2cc(F)ccc2n1)c1ccccc1 (3D coordinates assigned)
C[C@@H]([N-]C(=O)[C@@H]1C[C@@H](O)C/[N+]1=C(/O)C[N-]C(=O)c1ccc2cc(F)ccc2n1)c1ccccc1 (nonaromatic ring conformer: 64.12887411175834 kcal/mol)

>  <smiles>  (62) 
C[C@@H](NC(=O)[C@@H]1C[C@@H](O)CN1C(=O)CNC(=O)c1ccc2cc(F)ccc2n1)c1ccccc1

>  <score_type>  (62) 
oracle

>  <origin>  (62) 
autodockgpu

>  <m_score__min__energy>  (62) 
-8.9499999999999993

>  <m_primary>  (62) 
energy

>  <meeko>  (62) 
{"free_energy": -8.09, "intermolecular_energy": -11.38, "internal_energy": -3.13, "cluster_size": 2, "cluster_id": 2, "rank_in_cluster": 2}

>  <energy>  (62) 
-8.92

>  <cluster_rmsd>  (62) 
0.12

>  <rmsd>  (62) 
272.66

>  <cluster>  (62) 
1

$$$$
DWYNEBQVPRLYJI-KZHXFCNENA-M
     RDKit          3D

 58 61  0  0  0  0  0  0  0  0999 V2000
  139.5690   73.8310  222.7750 H   0  0  0  0  0  0  0  0  0  0  0  0
  140.4590   73.9980  222.3410 O   0  0  0  0  0  0  0  0  0  0  0  0
  140.8940   73.3280  221.1930 C   0  0  0  0  0  0  0  0  0  0  0  0
  142.1010   73.5160  220.7030 N   0  0  0  0  0  0  0  0  0  0  0  0
  142.9290   72.4470  220.1370 C   0  0  0  0  0  0  0  0  0  0  0  0
  142.4255   71.9923  219.2712 H   0  0  0  0  0  0  0  0  0  0  0  0
  143.1073   71.6466  220.8702 H   0  0  0  0  0  0  0  0  0  0  0  0
  144.2370   73.1070  219.7030 C   0  0  2  0  0  0  0  0  0  0  0  0
  144.2822   73.2671  218.6157 H   0  0  0  0  0  0  0  0  0  0  0  0
  145.3370   72.2850  220.0140 O   0  0  0  0  0  0  0  0  0  0  0  0
  145.1560   71.8930  220.8990 H   0  0  0  0  0  0  0  0  0  0  0  0
  144.2880   74.4390  220.4610 C   0  0  0  0  0  0  0  0  0  0  0  0
  144.7442   75.2207  219.8359 H   0  0  0  0  0  0  0  0  0  0  0  0
  144.8955   74.3674  221.3752 H   0  0  0  0  0  0  0  0  0  0  0  0
  142.8290   74.7840  220.7710 C   0  0  1  0  0  0  0  0  0  0  0  0
  142.7222   75.2523  221.7606 H   0  0  0  0  0  0  0  0  0  0  0  0
  142.2910   75.7800  219.7810 C   0  0  0  0  0  0  0  0  0  0  0  0
  142.7110   75.7950  218.5930 O   0  0  0  0  0  0  0  0  0  0  0  0
  141.3350   76.7490  220.2230 N   0  0  0  0  0  0  0  0  0  0  0  0
  140.9980   76.9690  221.6260 C   0  0  1  0  0  0  0  0  0  0  0  0
  141.4868   76.2024  222.2452 H   0  0  0  0  0  0  0  0  0  0  0  0
  141.4960   78.3300  222.0750 C   0  0  0  0  0  0  0  0  0  0  0  0
  141.7440   79.3460  221.1380 C   0  0  0  0  0  0  0  0  0  0  0  0
  141.5664   79.1610  220.0683 H   0  0  0  0  0  0  0  0  0  0  0  0
  142.2160   80.5920  221.5610 C   0  0  0  0  0  0  0  0  0  0  0  0
  142.4107   81.3834  220.8223 H   0  0  0  0  0  0  0  0  0  0  0  0
  142.4420   80.8370  222.9210 C   0  0  0  0  0  0  0  0  0  0  0  0
  142.8205   81.8165  223.2487 H   0  0  0  0  0  0  0  0  0  0  0  0
  142.1870   79.8390  223.8580 C   0  0  0  0  0  0  0  0  0  0  0  0
  142.3583   80.0320  224.9273 H   0  0  0  0  0  0  0  0  0  0  0  0
  141.7130   78.5910  223.4400 C   0  0  0  0  0  0  0  0  0  0  0  0
  141.5084   77.8076  224.1846 H   0  0  0  0  0  0  0  0  0  0  0  0
  139.4830   76.8620  221.8080 C   0  0  0  0  0  0  0  0  0  0  0  0
  139.2429   76.8450  222.8813 H   0  0  0  0  0  0  0  0  0  0  0  0
  138.9950   77.7279  221.3368 H   0  0  0  0  0  0  0  0  0  0  0  0
  139.1216   75.9361  221.3368 H   0  0  0  0  0  0  0  0  0  0  0  0
  139.9500   72.3110  220.6040 C   0  0  0  0  0  0  0  0  0  0  0  0
  139.5821   72.6676  219.6306 H   0  0  0  0  0  0  0  0  0  0  0  0
  140.4727   71.3539  220.4598 H   0  0  0  0  0  0  0  0  0  0  0  0
  138.8260   72.1310  221.5180 N   0  0  0  0  0  0  0  0  0  0  0  0
  138.6230   70.9150  222.2490 C   0  0  0  0  0  0  0  0  0  0  0  0
  137.7510   70.0900  221.8760 O   0  0  0  0  0  0  0  0  0  0  0  0
  139.3820   70.6610  223.4840 C   0  0  0  0  0  0  0  0  0  0  0  0
  139.2380   69.4630  224.1260 N   0  0  0  0  0  0  0  0  0  0  0  0
  139.8030   69.2160  225.3390 C   0  0  0  0  0  0  0  0  0  0  0  0
  139.6050   67.9830  225.9700 C   0  0  0  0  0  0  0  0  0  0  0  0
  139.0358   67.1906  225.4620 H   0  0  0  0  0  0  0  0  0  0  0  0
  140.1320   67.7570  227.2500 C   0  0  0  0  0  0  0  0  0  0  0  0
  139.9681   66.7892  227.7465 H   0  0  0  0  0  0  0  0  0  0  0  0
  140.8660   68.7580  227.8990 C   0  0  0  0  0  0  0  0  0  0  0  0
  141.3410   68.5490  229.1490 F   0  0  0  0  0  0  0  0  0  0  0  0
  141.0920   69.9840  227.2650 C   0  0  0  0  0  0  0  0  0  0  0  0
  141.6849   70.7627  227.7672 H   0  0  0  0  0  0  0  0  0  0  0  0
  140.5600   70.2200  225.9840 C   0  0  0  0  0  0  0  0  0  0  0  0
  140.7450   71.4440  225.3330 C   0  0  0  0  0  0  0  0  0  0  0  0
  141.3509   72.2315  225.8049 H   0  0  0  0  0  0  0  0  0  0  0  0
  140.1580   71.6680  224.0780 C   0  0  0  0  0  0  0  0  0  0  0  0
  140.3056   72.6284  223.5624 H   0  0  0  0  0  0  0  0  0  0  0  0
  1  2  1  0
  2  3  1  0
  3  4  2  0
  4  5  1  0
  5  6  1  0
  5  7  1  0
  5  8  1  0
  8  9  1  6
  8 10  1  0
 10 11  1  0
  8 12  1  0
 12 13  1  0
 12 14  1  0
 12 15  1  0
 15 16  1  1
 15 17  1  0
 17 18  2  0
 17 19  1  0
 19 20  1  0
 20 21  1  1
 20 22  1  0
 22 23  2  0
 23 24  1  0
 23 25  1  0
 25 26  1  0
 25 27  2  0
 27 28  1  0
 27 29  1  0
 29 30  1  0
 29 31  2  0
 31 32  1  0
 20 33  1  0
 33 34  1  0
 33 35  1  0
 33 36  1  0
  3 37  1  0
 37 38  1  0
 37 39  1  0
 37 40  1  0
 40 41  1  0
 41 42  2  0
 41 43  1  0
 43 44  2  0
 44 45  1  0
 45 46  2  0
 46 47  1  0
 46 48  1  0
 48 49  1  0
 48 50  2  0
 50 51  1  0
 50 52  1  0
 52 53  1  0
 52 54  2  0
 54 55  1  0
 55 56  1  0
 55 57  2  0
 57 58  1  0
 15  4  1  0
 31 22  1  0
 57 43  1  0
 54 45  1  0
M  CHG  3   4   1  19  -1  40  -1
M  END
>  <UniqueID>  (63) 
87

>  <SMILES>  (63) 
C[C@@H]([N-]C(=O)[C@@H]1C[C@@H](O)C/[N+]1=C(/O)C[N-]C(=O)c1ccc2cc(F)ccc2n1)c1ccccc1

>  <Energy>  (63) 
64.12887411175834

>  <Genealogy>  (63) 
C[C@@H]([N-]C(=O)[C@@H]1C[C@@H](O)C[NH+]1C(=O)C[N-]C(=O)c1ccc2cc(F)ccc2n1)c1ccccc1 (protonated)
C[C@@H]([N-]C(=O)[C@@H]1C[C@@H](O)C[N+]1=C(O)C[N-]C(=O)c1ccc2cc(F)ccc2n1)c1ccccc1 (tautomer)
C[C@@H]([N-]C(=O)[C@@H]1C[C@@H](O)C/[N+]1=C(/O)C[N-]C(=O)c1ccc2cc(F)ccc2n1)c1ccccc1 (cis-trans isomerization)
C[C@@H]([N-]C(=O)[C@@H]1C[C@@H](O)C/[N+]1=C(/O)C[N-]C(=O)c1ccc2cc(F)ccc2n1)c1ccccc1 (3D coordinates assigned)
C[C@@H]([N-]C(=O)[C@@H]1C[C@@H](O)C/[N+]1=C(/O)C[N-]C(=O)c1ccc2cc(F)ccc2n1)c1ccccc1 (nonaromatic ring conformer: 64.12887411175834 kcal/mol)

>  <smiles>  (63) 
C[C@@H](NC(=O)[C@@H]1C[C@@H](O)CN1C(=O)CNC(=O)c1ccc2cc(F)ccc2n1)c1ccccc1

>  <score_type>  (63) 
oracle

>  <origin>  (63) 
autodockgpu

>  <m_score__min__energy>  (63) 
-8.9499999999999993

>  <m_primary>  (63) 
energy

>  <meeko>  (63) 
{"free_energy": -8.1, "intermolecular_energy": -11.38, "internal_energy": -2.54, "cluster_size": 2, "cluster_id": 2, "rank_in_cluster": 1}

>  <energy>  (63) 
-8.82

>  <cluster_rmsd>  (63) 
0.4

>  <rmsd>  (63) 
272.61

>  <cluster>  (63) 
1

$$$$
DWYNEBQVPRLYJI-KZHXFCNENA-M
     RDKit          3D

 58 61  0  0  0  0  0  0  0  0999 V2000
  139.2100   74.3490  223.0450 H   0  0  0  0  0  0  0  0  0  0  0  0
  139.4820   75.1280  222.4740 O   0  0  0  0  0  0  0  0  0  0  0  0
  140.4180   75.0340  221.4380 C   0  0  0  0  0  0  0  0  0  0  0  0
  140.7920   76.0920  220.7510 N   0  0  0  0  0  0  0  0  0  0  0  0
  141.6330   76.0310  219.5510 C   0  0  0  0  0  0  0  0  0  0  0  0
  141.1355   75.4431  218.7656 H   0  0  0  0  0  0  0  0  0  0  0  0
  142.5980   75.5465  219.7607 H   0  0  0  0  0  0  0  0  0  0  0  0
  141.8220   77.4770  219.0920 C   0  0  2  0  0  0  0  0  0  0  0  0
  141.1841   77.7280  218.2317 H   0  0  0  0  0  0  0  0  0  0  0  0
  143.1450   77.6940  218.6620 O   0  0  0  0  0  0  0  0  0  0  0  0
  143.7000   77.7550  219.4750 H   0  0  0  0  0  0  0  0  0  0  0  0
  141.4690   78.3370  220.3100 C   0  0  0  0  0  0  0  0  0  0  0  0
  140.9620   79.2610  219.9951 H   0  0  0  0  0  0  0  0  0  0  0  0
  142.3653   78.6405  220.8708 H   0  0  0  0  0  0  0  0  0  0  0  0
  140.5310   77.4730  221.1580 C   0  0  1  0  0  0  0  0  0  0  0  0
  140.7103   77.6121  222.2343 H   0  0  0  0  0  0  0  0  0  0  0  0
  139.0950   77.8520  220.9250 C   0  0  0  0  0  0  0  0  0  0  0  0
  138.4140   77.2690  220.0390 O   0  0  0  0  0  0  0  0  0  0  0  0
  138.5280   78.9220  221.6870 N   0  0  0  0  0  0  0  0  0  0  0  0
  138.8590   79.1830  223.0840 C   0  0  1  0  0  0  0  0  0  0  0  0
  138.8412   78.2383  223.6473 H   0  0  0  0  0  0  0  0  0  0  0  0
  140.2520   79.7710  223.1890 C   0  0  0  0  0  0  0  0  0  0  0  0
  141.2900   79.0490  223.8020 C   0  0  0  0  0  0  0  0  0  0  0  0
  141.0965   78.0424  224.2011 H   0  0  0  0  0  0  0  0  0  0  0  0
  142.5670   79.6060  223.9060 C   0  0  0  0  0  0  0  0  0  0  0  0
  143.3752   79.0361  224.3878 H   0  0  0  0  0  0  0  0  0  0  0  0
  142.8230   80.8860  223.4000 C   0  0  0  0  0  0  0  0  0  0  0  0
  143.8281   81.3235  223.4920 H   0  0  0  0  0  0  0  0  0  0  0  0
  141.8040   81.6050  222.7800 C   0  0  0  0  0  0  0  0  0  0  0  0
  142.0055   82.6079  222.3755 H   0  0  0  0  0  0  0  0  0  0  0  0
  140.5240   81.0510  222.6720 C   0  0  0  0  0  0  0  0  0  0  0  0
  139.7231   81.6211  222.1785 H   0  0  0  0  0  0  0  0  0  0  0  0
  137.8240   80.1370  223.6830 C   0  0  0  0  0  0  0  0  0  0  0  0
  137.8745   80.0904  224.7809 H   0  0  0  0  0  0  0  0  0  0  0  0
  138.0354   81.1637  223.3494 H   0  0  0  0  0  0  0  0  0  0  0  0
  136.8179   79.8429  223.3494 H   0  0  0  0  0  0  0  0  0  0  0  0
  141.0460   73.6820  221.2150 C   0  0  0  0  0  0  0  0  0  0  0  0
  140.5414   73.1729  220.3806 H   0  0  0  0  0  0  0  0  0  0  0  0
  142.1119   73.8004  220.9705 H   0  0  0  0  0  0  0  0  0  0  0  0
  140.9010   72.8900  222.4330 N   0  0  0  0  0  0  0  0  0  0  0  0
  139.6890   72.1950  222.7510 C   0  0  0  0  0  0  0  0  0  0  0  0
  138.6250   72.4640  222.1380 O   0  0  0  0  0  0  0  0  0  0  0  0
  139.6660   71.2170  223.8510 C   0  0  0  0  0  0  0  0  0  0  0  0
  140.1860   71.5600  225.0670 N   0  0  0  0  0  0  0  0  0  0  0  0
  140.3180   70.6630  226.0810 C   0  0  0  0  0  0  0  0  0  0  0  0
  140.8820   71.0550  227.3000 C   0  0  0  0  0  0  0  0  0  0  0  0
  141.1710   72.1042  227.4598 H   0  0  0  0  0  0  0  0  0  0  0  0
  141.0790   70.1110  228.3180 C   0  0  0  0  0  0  0  0  0  0  0  0
  141.5299   70.4208  229.2723 H   0  0  0  0  0  0  0  0  0  0  0  0
  140.7040   68.7750  228.1250 C   0  0  0  0  0  0  0  0  0  0  0  0
  140.9300   67.8600  229.0970 F   0  0  0  0  0  0  0  0  0  0  0  0
  140.1150   68.3790  226.9210 C   0  0  0  0  0  0  0  0  0  0  0  0
  139.8035   67.3338  226.7780 H   0  0  0  0  0  0  0  0  0  0  0  0
  139.9210   69.3190  225.8920 C   0  0  0  0  0  0  0  0  0  0  0  0
  139.3590   68.9510  224.6660 C   0  0  0  0  0  0  0  0  0  0  0  0
  139.0206   67.9168  224.5051 H   0  0  0  0  0  0  0  0  0  0  0  0
  139.2260   69.9000  223.6400 C   0  0  0  0  0  0  0  0  0  0  0  0
  138.7797   69.6137  222.6762 H   0  0  0  0  0  0  0  0  0  0  0  0
  1  2  1  0
  2  3  1  0
  3  4  2  0
  4  5  1  0
  5  6  1  0
  5  7  1  0
  5  8  1  0
  8  9  1  6
  8 10  1  0
 10 11  1  0
  8 12  1  0
 12 13  1  0
 12 14  1  0
 12 15  1  0
 15 16  1  1
 15 17  1  0
 17 18  2  0
 17 19  1  0
 19 20  1  0
 20 21  1  1
 20 22  1  0
 22 23  2  0
 23 24  1  0
 23 25  1  0
 25 26  1  0
 25 27  2  0
 27 28  1  0
 27 29  1  0
 29 30  1  0
 29 31  2  0
 31 32  1  0
 20 33  1  0
 33 34  1  0
 33 35  1  0
 33 36  1  0
  3 37  1  0
 37 38  1  0
 37 39  1  0
 37 40  1  0
 40 41  1  0
 41 42  2  0
 41 43  1  0
 43 44  2  0
 44 45  1  0
 45 46  2  0
 46 47  1  0
 46 48  1  0
 48 49  1  0
 48 50  2  0
 50 51  1  0
 50 52  1  0
 52 53  1  0
 52 54  2  0
 54 55  1  0
 55 56  1  0
 55 57  2  0
 57 58  1  0
 15  4  1  0
 31 22  1  0
 57 43  1  0
 54 45  1  0
M  CHG  3   4   1  19  -1  40  -1
M  END
>  <UniqueID>  (64) 
87

>  <SMILES>  (64) 
C[C@@H]([N-]C(=O)[C@@H]1C[C@@H](O)C/[N+]1=C(/O)C[N-]C(=O)c1ccc2cc(F)ccc2n1)c1ccccc1

>  <Energy>  (64) 
64.12887411175834

>  <Genealogy>  (64) 
C[C@@H]([N-]C(=O)[C@@H]1C[C@@H](O)C[NH+]1C(=O)C[N-]C(=O)c1ccc2cc(F)ccc2n1)c1ccccc1 (protonated)
C[C@@H]([N-]C(=O)[C@@H]1C[C@@H](O)C[N+]1=C(O)C[N-]C(=O)c1ccc2cc(F)ccc2n1)c1ccccc1 (tautomer)
C[C@@H]([N-]C(=O)[C@@H]1C[C@@H](O)C/[N+]1=C(/O)C[N-]C(=O)c1ccc2cc(F)ccc2n1)c1ccccc1 (cis-trans isomerization)
C[C@@H]([N-]C(=O)[C@@H]1C[C@@H](O)C/[N+]1=C(/O)C[N-]C(=O)c1ccc2cc(F)ccc2n1)c1ccccc1 (3D coordinates assigned)
C[C@@H]([N-]C(=O)[C@@H]1C[C@@H](O)C/[N+]1=C(/O)C[N-]C(=O)c1ccc2cc(F)ccc2n1)c1ccccc1 (nonaromatic ring conformer: 64.12887411175834 kcal/mol)

>  <smiles>  (64) 
C[C@@H](NC(=O)[C@@H]1C[C@@H](O)CN1C(=O)CNC(=O)c1ccc2cc(F)ccc2n1)c1ccccc1

>  <score_type>  (64) 
oracle

>  <origin>  (64) 
autodockgpu

>  <m_score__min__energy>  (64) 
-8.9499999999999993

>  <m_primary>  (64) 
energy

>  <meeko>  (64) 
{"free_energy": -8.82, "intermolecular_energy": -12.1, "internal_energy": -3.0, "cluster_size": 14, "cluster_id": 1, "rank_in_cluster": 3}

>  <energy>  (64) 
-8.5

>  <cluster_rmsd>  (64) 
1.8

>  <rmsd>  (64) 
272.38

>  <cluster>  (64) 
1

$$$$
DWYNEBQVPRLYJI-KZHXFCNENA-M
     RDKit          3D

 58 61  0  0  0  0  0  0  0  0999 V2000
  137.9080   73.1170  223.1320 H   0  0  0  0  0  0  0  0  0  0  0  0
  137.8260   72.1200  223.0470 O   0  0  0  0  0  0  0  0  0  0  0  0
  138.8430   71.3050  222.5380 C   0  0  0  0  0  0  0  0  0  0  0  0
  138.7140   69.9960  222.4860 N   0  0  0  0  0  0  0  0  0  0  0  0
  139.6040   69.1160  221.7230 C   0  0  0  0  0  0  0  0  0  0  0  0
  140.6364   69.2044  222.0924 H   0  0  0  0  0  0  0  0  0  0  0  0
  139.6135   69.3826  220.6558 H   0  0  0  0  0  0  0  0  0  0  0  0
  139.0840   67.6950  221.9380 C   0  0  2  0  0  0  0  0  0  0  0  0
  139.6919   67.1337  222.6629 H   0  0  0  0  0  0  0  0  0  0  0  0
  139.1410   66.9580  220.7410 O   0  0  0  0  0  0  0  0  0  0  0  0
  140.0040   66.4810  220.7430 H   0  0  0  0  0  0  0  0  0  0  0  0
  137.6450   67.8630  222.4370 C   0  0  0  0  0  0  0  0  0  0  0  0
  137.4030   67.0902  223.1815 H   0  0  0  0  0  0  0  0  0  0  0  0
  136.9143   67.7602  221.6212 H   0  0  0  0  0  0  0  0  0  0  0  0
  137.5960   69.2550  223.0740 C   0  0  1  0  0  0  0  0  0  0  0  0
  136.6374   69.7588  222.8807 H   0  0  0  0  0  0  0  0  0  0  0  0
  137.7220   69.1660  224.5700 C   0  0  0  0  0  0  0  0  0  0  0  0
  137.1570   70.0140  225.3120 O   0  0  0  0  0  0  0  0  0  0  0  0
  138.5390   68.1370  225.1370 N   0  0  0  0  0  0  0  0  0  0  0  0
  139.9580   68.3050  225.4330 C   0  0  1  0  0  0  0  0  0  0  0  0
  140.5215   68.3858  224.4918 H   0  0  0  0  0  0  0  0  0  0  0  0
  140.1790   69.5770  226.2270 C   0  0  0  0  0  0  0  0  0  0  0  0
  140.8100   70.6880  225.6410 C   0  0  0  0  0  0  0  0  0  0  0  0
  141.1385   70.6423  224.5922 H   0  0  0  0  0  0  0  0  0  0  0  0
  141.0210   71.8500  226.3870 C   0  0  0  0  0  0  0  0  0  0  0  0
  141.5175   72.7152  225.9234 H   0  0  0  0  0  0  0  0  0  0  0  0
  140.6040   71.9190  227.7210 C   0  0  0  0  0  0  0  0  0  0  0  0
  140.7795   72.8339  228.3060 H   0  0  0  0  0  0  0  0  0  0  0  0
  139.9670   70.8290  228.3070 C   0  0  0  0  0  0  0  0  0  0  0  0
  139.6325   70.8848  229.3534 H   0  0  0  0  0  0  0  0  0  0  0  0
  139.7520   69.6620  227.5650 C   0  0  0  0  0  0  0  0  0  0  0  0
  139.2452   68.8044  228.0315 H   0  0  0  0  0  0  0  0  0  0  0  0
  140.4630   67.0880  226.2110 C   0  0  0  0  0  0  0  0  0  0  0  0
  140.3819   67.2834  227.2905 H   0  0  0  0  0  0  0  0  0  0  0  0
  139.8555   66.2086  225.9509 H   0  0  0  0  0  0  0  0  0  0  0  0
  141.5146   66.8971  225.9509 H   0  0  0  0  0  0  0  0  0  0  0  0
  140.0490   72.0040  221.9660 C   0  0  0  0  0  0  0  0  0  0  0  0
  140.9571   71.4321  222.2073 H   0  0  0  0  0  0  0  0  0  0  0  0
  139.9540   72.0802  220.8728 H   0  0  0  0  0  0  0  0  0  0  0  0
  140.1390   73.3380  222.5510 N   0  0  0  0  0  0  0  0  0  0  0  0
  139.5230   74.4810  221.9460 C   0  0  0  0  0  0  0  0  0  0  0  0
  138.3690   74.3930  221.4560 O   0  0  0  0  0  0  0  0  0  0  0  0
  140.2690   75.7450  221.8250 C   0  0  0  0  0  0  0  0  0  0  0  0
  140.0540   76.7410  222.7350 N   0  0  0  0  0  0  0  0  0  0  0  0
  140.6060   77.9770  222.6040 C   0  0  0  0  0  0  0  0  0  0  0  0
  140.3350   78.9750  223.5470 C   0  0  0  0  0  0  0  0  0  0  0  0
  139.7167   78.7460  224.4275 H   0  0  0  0  0  0  0  0  0  0  0  0
  140.8510   80.2660  223.3700 C   0  0  0  0  0  0  0  0  0  0  0  0
  140.6289   81.0498  224.1092 H   0  0  0  0  0  0  0  0  0  0  0  0
  141.6480   80.5640  222.2570 C   0  0  0  0  0  0  0  0  0  0  0  0
  142.1130   81.8210  222.0720 F   0  0  0  0  0  0  0  0  0  0  0  0
  141.9460   79.5670  221.3230 C   0  0  0  0  0  0  0  0  0  0  0  0
  142.5863   79.7963  220.4585 H   0  0  0  0  0  0  0  0  0  0  0  0
  141.4260   78.2700  221.4900 C   0  0  0  0  0  0  0  0  0  0  0  0
  141.6840   77.2580  220.5610 C   0  0  0  0  0  0  0  0  0  0  0  0
  142.3389   77.4566  219.6998 H   0  0  0  0  0  0  0  0  0  0  0  0
  141.1080   75.9880  220.7260 C   0  0  0  0  0  0  0  0  0  0  0  0
  141.3129   75.1886  219.9987 H   0  0  0  0  0  0  0  0  0  0  0  0
  1  2  1  0
  2  3  1  0
  3  4  2  0
  4  5  1  0
  5  6  1  0
  5  7  1  0
  5  8  1  0
  8  9  1  1
  8 10  1  0
 10 11  1  0
  8 12  1  0
 12 13  1  0
 12 14  1  0
 12 15  1  0
 15 16  1  1
 15 17  1  0
 17 18  2  0
 17 19  1  0
 19 20  1  0
 20 21  1  6
 20 22  1  0
 22 23  2  0
 23 24  1  0
 23 25  1  0
 25 26  1  0
 25 27  2  0
 27 28  1  0
 27 29  1  0
 29 30  1  0
 29 31  2  0
 31 32  1  0
 20 33  1  0
 33 34  1  0
 33 35  1  0
 33 36  1  0
  3 37  1  0
 37 38  1  0
 37 39  1  0
 37 40  1  0
 40 41  1  0
 41 42  2  0
 41 43  1  0
 43 44  2  0
 44 45  1  0
 45 46  2  0
 46 47  1  0
 46 48  1  0
 48 49  1  0
 48 50  2  0
 50 51  1  0
 50 52  1  0
 52 53  1  0
 52 54  2  0
 54 55  1  0
 55 56  1  0
 55 57  2  0
 57 58  1  0
 15  4  1  0
 31 22  1  0
 57 43  1  0
 54 45  1  0
M  CHG  3   4   1  19  -1  40  -1
M  END
>  <UniqueID>  (65) 
87

>  <SMILES>  (65) 
C[C@@H]([N-]C(=O)[C@@H]1C[C@@H](O)C/[N+]1=C(/O)C[N-]C(=O)c1ccc2cc(F)ccc2n1)c1ccccc1

>  <Energy>  (65) 
64.12887411175834

>  <Genealogy>  (65) 
C[C@@H]([N-]C(=O)[C@@H]1C[C@@H](O)C[NH+]1C(=O)C[N-]C(=O)c1ccc2cc(F)ccc2n1)c1ccccc1 (protonated)
C[C@@H]([N-]C(=O)[C@@H]1C[C@@H](O)C[N+]1=C(O)C[N-]C(=O)c1ccc2cc(F)ccc2n1)c1ccccc1 (tautomer)
C[C@@H]([N-]C(=O)[C@@H]1C[C@@H](O)C/[N+]1=C(/O)C[N-]C(=O)c1ccc2cc(F)ccc2n1)c1ccccc1 (cis-trans isomerization)
C[C@@H]([N-]C(=O)[C@@H]1C[C@@H](O)C/[N+]1=C(/O)C[N-]C(=O)c1ccc2cc(F)ccc2n1)c1ccccc1 (3D coordinates assigned)
C[C@@H]([N-]C(=O)[C@@H]1C[C@@H](O)C/[N+]1=C(/O)C[N-]C(=O)c1ccc2cc(F)ccc2n1)c1ccccc1 (nonaromatic ring conformer: 64.12887411175834 kcal/mol)

>  <smiles>  (65) 
C[C@@H](NC(=O)[C@@H]1C[C@@H](O)CN1C(=O)CNC(=O)c1ccc2cc(F)ccc2n1)c1ccccc1

>  <score_type>  (65) 
oracle

>  <origin>  (65) 
autodockgpu

>  <m_score__min__energy>  (65) 
-8.9499999999999993

>  <m_primary>  (65) 
energy

>  <meeko>  (65) 
{"free_energy": -7.72, "intermolecular_energy": -11.0, "internal_energy": -3.49, "cluster_size": 1, "cluster_id": 3, "rank_in_cluster": 1}

>  <energy>  (65) 
-8.07

>  <cluster_rmsd>  (65) 
0.94

>  <rmsd>  (65) 
272.51

>  <cluster>  (65) 
1

$$$$
DWYNEBQVPRLYJI-KZHXFCNENA-M
     RDKit          3D

 58 61  0  0  0  0  0  0  0  0999 V2000
  141.0620   72.8630  223.2760 H   0  0  0  0  0  0  0  0  0  0  0  0
  140.2070   72.4110  223.5420 O   0  0  0  0  0  0  0  0  0  0  0  0
  139.5580   71.4600  222.7470 C   0  0  0  0  0  0  0  0  0  0  0  0
  138.3280   71.0710  223.0060 N   0  0  0  0  0  0  0  0  0  0  0  0
  137.1650   71.4430  222.1940 C   0  0  0  0  0  0  0  0  0  0  0  0
  137.2834   71.0719  221.1653 H   0  0  0  0  0  0  0  0  0  0  0  0
  137.0480   72.5353  222.1368 H   0  0  0  0  0  0  0  0  0  0  0  0
  135.9550   70.7860  222.8590 C   0  0  2  0  0  0  0  0  0  0  0  0
  135.6250   69.8826  222.3251 H   0  0  0  0  0  0  0  0  0  0  0  0
  134.8500   71.6570  222.8530 O   0  0  0  0  0  0  0  0  0  0  0  0
  134.1670   71.2430  222.2760 H   0  0  0  0  0  0  0  0  0  0  0  0
  136.4100   70.4500  224.2830 C   0  0  0  0  0  0  0  0  0  0  0  0
  135.9634   69.5015  224.6161 H   0  0  0  0  0  0  0  0  0  0  0  0
  136.0990   71.2200  225.0044 H   0  0  0  0  0  0  0  0  0  0  0  0
  137.9340   70.3260  224.2040 C   0  0  1  0  0  0  0  0  0  0  0  0
  138.4223   70.7283  225.1039 H   0  0  0  0  0  0  0  0  0  0  0  0
  138.3530   68.8840  224.1150 C   0  0  0  0  0  0  0  0  0  0  0  0
  138.2170   68.2420  223.0390 O   0  0  0  0  0  0  0  0  0  0  0  0
  138.8550   68.2350  225.2880 N   0  0  0  0  0  0  0  0  0  0  0  0
  140.2380   68.3450  225.7410 C   0  0  1  0  0  0  0  0  0  0  0  0
  140.9137   68.2876  224.8749 H   0  0  0  0  0  0  0  0  0  0  0  0
  140.4580   69.6800  226.4260 C   0  0  0  0  0  0  0  0  0  0  0  0
  141.2440   70.6740  225.8200 C   0  0  0  0  0  0  0  0  0  0  0  0
  141.6962   70.4906  224.8342 H   0  0  0  0  0  0  0  0  0  0  0  0
  141.4530   71.8950  226.4660 C   0  0  0  0  0  0  0  0  0  0  0  0
  142.0715   72.6686  225.9874 H   0  0  0  0  0  0  0  0  0  0  0  0
  140.8790   72.1390  227.7200 C   0  0  0  0  0  0  0  0  0  0  0  0
  141.0526   73.0992  228.2279 H   0  0  0  0  0  0  0  0  0  0  0  0
  140.0880   71.1640  228.3230 C   0  0  0  0  0  0  0  0  0  0  0  0
  139.6308   71.3564  229.3048 H   0  0  0  0  0  0  0  0  0  0  0  0
  139.8750   69.9400  227.6800 C   0  0  0  0  0  0  0  0  0  0  0  0
  139.2466   69.1745  228.1586 H   0  0  0  0  0  0  0  0  0  0  0  0
  140.5530   67.1910  226.6950 C   0  0  0  0  0  0  0  0  0  0  0  0
  140.4582   67.5383  227.7344 H   0  0  0  0  0  0  0  0  0  0  0  0
  139.8472   66.3660  226.5182 H   0  0  0  0  0  0  0  0  0  0  0  0
  141.5801   66.8390  226.5182 H   0  0  0  0  0  0  0  0  0  0  0  0
  140.3010   70.9770  221.5280 C   0  0  0  0  0  0  0  0  0  0  0  0
  140.3430   69.8778  221.5316 H   0  0  0  0  0  0  0  0  0  0  0  0
  139.7838   71.3122  220.6169 H   0  0  0  0  0  0  0  0  0  0  0  0
  141.6550   71.5200  221.5590 N   0  0  0  0  0  0  0  0  0  0  0  0
  142.0960   72.5260  220.6380 C   0  0  0  0  0  0  0  0  0  0  0  0
  142.7920   72.2100  219.6400 O   0  0  0  0  0  0  0  0  0  0  0  0
  141.8020   73.9450  220.8990 C   0  0  0  0  0  0  0  0  0  0  0  0
  140.7240   74.2770  221.6680 N   0  0  0  0  0  0  0  0  0  0  0  0
  140.3190   75.5660  221.8340 C   0  0  0  0  0  0  0  0  0  0  0  0
  139.1910   75.8560  222.6090 C   0  0  0  0  0  0  0  0  0  0  0  0
  138.6591   75.0463  223.1300 H   0  0  0  0  0  0  0  0  0  0  0  0
  138.7380   77.1780  222.7220 C   0  0  0  0  0  0  0  0  0  0  0  0
  137.8459   77.4012  223.3256 H   0  0  0  0  0  0  0  0  0  0  0  0
  139.4160   78.2160  222.0700 C   0  0  0  0  0  0  0  0  0  0  0  0
  138.9540   79.4850  222.1520 F   0  0  0  0  0  0  0  0  0  0  0  0
  140.5600   77.9400  221.3160 C   0  0  0  0  0  0  0  0  0  0  0  0
  141.1035   78.7581  220.8207 H   0  0  0  0  0  0  0  0  0  0  0  0
  141.0160   76.6140  221.1910 C   0  0  0  0  0  0  0  0  0  0  0  0
  142.1420   76.3010  220.4230 C   0  0  0  0  0  0  0  0  0  0  0  0
  142.7144   77.1030  219.9340 H   0  0  0  0  0  0  0  0  0  0  0  0
  142.5420   74.9630  220.2760 C   0  0  0  0  0  0  0  0  0  0  0  0
  143.4298   74.7137  219.6763 H   0  0  0  0  0  0  0  0  0  0  0  0
  1  2  1  0
  2  3  1  0
  3  4  2  0
  4  5  1  0
  5  6  1  0
  5  7  1  0
  5  8  1  0
  8  9  1  6
  8 10  1  0
 10 11  1  0
  8 12  1  0
 12 13  1  0
 12 14  1  0
 12 15  1  0
 15 16  1  1
 15 17  1  0
 17 18  2  0
 17 19  1  0
 19 20  1  0
 20 21  1  6
 20 22  1  0
 22 23  2  0
 23 24  1  0
 23 25  1  0
 25 26  1  0
 25 27  2  0
 27 28  1  0
 27 29  1  0
 29 30  1  0
 29 31  2  0
 31 32  1  0
 20 33  1  0
 33 34  1  0
 33 35  1  0
 33 36  1  0
  3 37  1  0
 37 38  1  0
 37 39  1  0
 37 40  1  0
 40 41  1  0
 41 42  2  0
 41 43  1  0
 43 44  2  0
 44 45  1  0
 45 46  2  0
 46 47  1  0
 46 48  1  0
 48 49  1  0
 48 50  2  0
 50 51  1  0
 50 52  1  0
 52 53  1  0
 52 54  2  0
 54 55  1  0
 55 56  1  0
 55 57  2  0
 57 58  1  0
 15  4  1  0
 31 22  1  0
 57 43  1  0
 54 45  1  0
M  CHG  3   4   1  19  -1  40  -1
M  END
>  <UniqueID>  (66) 
87

>  <SMILES>  (66) 
C[C@@H]([N-]C(=O)[C@@H]1C[C@@H](O)C/[N+]1=C(/O)C[N-]C(=O)c1ccc2cc(F)ccc2n1)c1ccccc1

>  <Energy>  (66) 
64.12887411175834

>  <Genealogy>  (66) 
C[C@@H]([N-]C(=O)[C@@H]1C[C@@H](O)C[NH+]1C(=O)C[N-]C(=O)c1ccc2cc(F)ccc2n1)c1ccccc1 (protonated)
C[C@@H]([N-]C(=O)[C@@H]1C[C@@H](O)C[N+]1=C(O)C[N-]C(=O)c1ccc2cc(F)ccc2n1)c1ccccc1 (tautomer)
C[C@@H]([N-]C(=O)[C@@H]1C[C@@H](O)C/[N+]1=C(/O)C[N-]C(=O)c1ccc2cc(F)ccc2n1)c1ccccc1 (cis-trans isomerization)
C[C@@H]([N-]C(=O)[C@@H]1C[C@@H](O)C/[N+]1=C(/O)C[N-]C(=O)c1ccc2cc(F)ccc2n1)c1ccccc1 (3D coordinates assigned)
C[C@@H]([N-]C(=O)[C@@H]1C[C@@H](O)C/[N+]1=C(/O)C[N-]C(=O)c1ccc2cc(F)ccc2n1)c1ccccc1 (nonaromatic ring conformer: 64.12887411175834 kcal/mol)

>  <smiles>  (66) 
C[C@@H](NC(=O)[C@@H]1C[C@@H](O)CN1C(=O)CNC(=O)c1ccc2cc(F)ccc2n1)c1ccccc1

>  <score_type>  (66) 
oracle

>  <origin>  (66) 
autodockgpu

>  <m_score__min__energy>  (66) 
-8.9499999999999993

>  <m_primary>  (66) 
energy

>  <meeko>  (66) 
{"free_energy": -6.38, "intermolecular_energy": -9.66, "internal_energy": -3.65, "cluster_size": 1, "cluster_id": 4, "rank_in_cluster": 1}

>  <energy>  (66) 
-7.79

>  <cluster_rmsd>  (66) 
1.6

>  <rmsd>  (66) 
272.21

>  <cluster>  (66) 
1

$$$$
DWYNEBQVPRLYJI-KZHXFCNENA-M
     RDKit          3D

 58 61  0  0  0  0  0  0  0  0999 V2000
  139.4530   73.6160  223.0940 H   0  0  0  0  0  0  0  0  0  0  0  0
  139.5850   74.5370  222.7200 O   0  0  0  0  0  0  0  0  0  0  0  0
  139.7440   74.8000  221.3550 C   0  0  0  0  0  0  0  0  0  0  0  0
  140.4550   75.8220  220.9280 N   0  0  0  0  0  0  0  0  0  0  0  0
  141.3140   75.7810  219.7410 C   0  0  0  0  0  0  0  0  0  0  0  0
  140.7158   75.5611  218.8445 H   0  0  0  0  0  0  0  0  0  0  0  0
  142.0786   74.9947  219.8257 H   0  0  0  0  0  0  0  0  0  0  0  0
  141.9490   77.1670  219.6280 C   0  0  2  0  0  0  0  0  0  0  0  0
  141.4689   77.7833  218.8536 H   0  0  0  0  0  0  0  0  0  0  0  0
  143.3010   77.0670  219.2510 O   0  0  0  0  0  0  0  0  0  0  0  0
  143.8260   77.5100  219.9570 H   0  0  0  0  0  0  0  0  0  0  0  0
  141.7890   77.7980  221.0160 C   0  0  0  0  0  0  0  0  0  0  0  0
  141.5976   78.8777  220.9284 H   0  0  0  0  0  0  0  0  0  0  0  0
  142.6978   77.6837  221.6251 H   0  0  0  0  0  0  0  0  0  0  0  0
  140.5870   77.0900  221.6470 C   0  0  1  0  0  0  0  0  0  0  0  0
  140.7312   76.9243  222.7248 H   0  0  0  0  0  0  0  0  0  0  0  0
  139.3430   77.9260  221.5200 C   0  0  0  0  0  0  0  0  0  0  0  0
  139.0000   78.3980  220.4030 O   0  0  0  0  0  0  0  0  0  0  0  0
  138.5850   78.2240  222.6960 N   0  0  0  0  0  0  0  0  0  0  0  0
  138.8020   79.4120  223.5160 C   0  0  1  0  0  0  0  0  0  0  0  0
  138.6658   79.1550  224.5769 H   0  0  0  0  0  0  0  0  0  0  0  0
  140.2170   79.9230  223.3310 C   0  0  0  0  0  0  0  0  0  0  0  0
  141.2920   79.3130  223.9990 C   0  0  0  0  0  0  0  0  0  0  0  0
  141.1108   78.4490  224.6552 H   0  0  0  0  0  0  0  0  0  0  0  0
  142.5910   79.8010  223.8320 C   0  0  0  0  0  0  0  0  0  0  0  0
  143.4285   79.3199  224.3584 H   0  0  0  0  0  0  0  0  0  0  0  0
  142.8310   80.8990  222.9980 C   0  0  0  0  0  0  0  0  0  0  0  0
  143.8540   81.2844  222.8760 H   0  0  0  0  0  0  0  0  0  0  0  0
  141.7740   81.5030  222.3230 C   0  0  0  0  0  0  0  0  0  0  0  0
  141.9626   82.3618  221.6621 H   0  0  0  0  0  0  0  0  0  0  0  0
  140.4720   81.0180  222.4850 C   0  0  0  0  0  0  0  0  0  0  0  0
  139.6407   81.4966  221.9466 H   0  0  0  0  0  0  0  0  0  0  0  0
  137.7850   80.4880  223.1310 C   0  0  0  0  0  0  0  0  0  0  0  0
  137.3620   80.9356  224.0424 H   0  0  0  0  0  0  0  0  0  0  0  0
  138.2836   81.2680  222.5369 H   0  0  0  0  0  0  0  0  0  0  0  0
  136.9782   80.0341  222.5369 H   0  0  0  0  0  0  0  0  0  0  0  0
  139.1420   73.8010  220.4000 C   0  0  0  0  0  0  0  0  0  0  0  0
  138.1506   74.1503  220.0759 H   0  0  0  0  0  0  0  0  0  0  0  0
  139.7892   73.6904  219.5174 H   0  0  0  0  0  0  0  0  0  0  0  0
  139.0110   72.5180  221.0830 N   0  0  0  0  0  0  0  0  0  0  0  0
  140.1070   71.9040  221.7700 C   0  0  0  0  0  0  0  0  0  0  0  0
  141.2450   71.8590  221.2350 O   0  0  0  0  0  0  0  0  0  0  0  0
  139.8920   71.2510  223.0720 C   0  0  0  0  0  0  0  0  0  0  0  0
  140.3600   71.8480  224.2080 N   0  0  0  0  0  0  0  0  0  0  0  0
  140.3140   71.2370  225.4230 C   0  0  0  0  0  0  0  0  0  0  0  0
  140.8320   71.8770  226.5540 C   0  0  0  0  0  0  0  0  0  0  0  0
  141.2300   72.8993  226.4733 H   0  0  0  0  0  0  0  0  0  0  0  0
  140.8440   71.2160  227.7900 C   0  0  0  0  0  0  0  0  0  0  0  0
  141.2583   71.7197  228.6758 H   0  0  0  0  0  0  0  0  0  0  0  0
  140.3310   69.9170  227.9030 C   0  0  0  0  0  0  0  0  0  0  0  0
  140.3790   69.2690  229.0900 F   0  0  0  0  0  0  0  0  0  0  0  0
  139.7870   69.2790  226.7840 C   0  0  0  0  0  0  0  0  0  0  0  0
  139.3667   68.2667  226.8772 H   0  0  0  0  0  0  0  0  0  0  0  0
  139.7780   69.9340  225.5380 C   0  0  0  0  0  0  0  0  0  0  0  0
  139.2650   69.3140  224.3940 C   0  0  0  0  0  0  0  0  0  0  0  0
  138.8201   68.3105  224.4648 H   0  0  0  0  0  0  0  0  0  0  0  0
  139.3180   69.9730  223.1550 C   0  0  0  0  0  0  0  0  0  0  0  0
  138.9117   69.4899  222.2541 H   0  0  0  0  0  0  0  0  0  0  0  0
  1  2  1  0
  2  3  1  0
  3  4  2  0
  4  5  1  0
  5  6  1  0
  5  7  1  0
  5  8  1  0
  8  9  1  6
  8 10  1  0
 10 11  1  0
  8 12  1  0
 12 13  1  0
 12 14  1  0
 12 15  1  0
 15 16  1  1
 15 17  1  0
 17 18  2  0
 17 19  1  0
 19 20  1  0
 20 21  1  1
 20 22  1  0
 22 23  2  0
 23 24  1  0
 23 25  1  0
 25 26  1  0
 25 27  2  0
 27 28  1  0
 27 29  1  0
 29 30  1  0
 29 31  2  0
 31 32  1  0
 20 33  1  0
 33 34  1  0
 33 35  1  0
 33 36  1  0
  3 37  1  0
 37 38  1  0
 37 39  1  0
 37 40  1  0
 40 41  1  0
 41 42  2  0
 41 43  1  0
 43 44  2  0
 44 45  1  0
 45 46  2  0
 46 47  1  0
 46 48  1  0
 48 49  1  0
 48 50  2  0
 50 51  1  0
 50 52  1  0
 52 53  1  0
 52 54  2  0
 54 55  1  0
 55 56  1  0
 55 57  2  0
 57 58  1  0
 15  4  1  0
 31 22  1  0
 57 43  1  0
 54 45  1  0
M  CHG  3   4   1  19  -1  40  -1
M  END
>  <UniqueID>  (67) 
87

>  <SMILES>  (67) 
C[C@@H]([N-]C(=O)[C@@H]1C[C@@H](O)C/[N+]1=C(/O)C[N-]C(=O)c1ccc2cc(F)ccc2n1)c1ccccc1

>  <Energy>  (67) 
64.12887411175834

>  <Genealogy>  (67) 
C[C@@H]([N-]C(=O)[C@@H]1C[C@@H](O)C[NH+]1C(=O)C[N-]C(=O)c1ccc2cc(F)ccc2n1)c1ccccc1 (protonated)
C[C@@H]([N-]C(=O)[C@@H]1C[C@@H](O)C[N+]1=C(O)C[N-]C(=O)c1ccc2cc(F)ccc2n1)c1ccccc1 (tautomer)
C[C@@H]([N-]C(=O)[C@@H]1C[C@@H](O)C/[N+]1=C(/O)C[N-]C(=O)c1ccc2cc(F)ccc2n1)c1ccccc1 (cis-trans isomerization)
C[C@@H]([N-]C(=O)[C@@H]1C[C@@H](O)C/[N+]1=C(/O)C[N-]C(=O)c1ccc2cc(F)ccc2n1)c1ccccc1 (3D coordinates assigned)
C[C@@H]([N-]C(=O)[C@@H]1C[C@@H](O)C/[N+]1=C(/O)C[N-]C(=O)c1ccc2cc(F)ccc2n1)c1ccccc1 (nonaromatic ring conformer: 64.12887411175834 kcal/mol)

>  <smiles>  (67) 
C[C@@H](NC(=O)[C@@H]1C[C@@H](O)CN1C(=O)CNC(=O)c1ccc2cc(F)ccc2n1)c1ccccc1

>  <score_type>  (67) 
oracle

>  <origin>  (67) 
autodockgpu

>  <m_score__min__energy>  (67) 
-8.9499999999999993

>  <m_primary>  (67) 
energy

>  <meeko>  (67) 
{"free_energy": -8.07, "intermolecular_energy": -11.36, "internal_energy": -3.15, "cluster_size": 14, "cluster_id": 1, "rank_in_cluster": 5}

>  <energy>  (67) 
-7.78

>  <cluster_rmsd>  (67) 
1.57

>  <rmsd>  (67) 
272.24

>  <cluster>  (67) 
1

$$$$
DWYNEBQVPRLYJI-KZHXFCNENA-M
     RDKit          3D

 58 61  0  0  0  0  0  0  0  0999 V2000
  139.5210   72.4460  219.7900 H   0  0  0  0  0  0  0  0  0  0  0  0
  139.8860   73.3520  219.5600 O   0  0  0  0  0  0  0  0  0  0  0  0
  140.8930   73.9850  220.2960 C   0  0  0  0  0  0  0  0  0  0  0  0
  141.0750   75.2880  220.2350 N   0  0  0  0  0  0  0  0  0  0  0  0
  141.3440   76.0170  218.9920 C   0  0  0  0  0  0  0  0  0  0  0  0
  140.5070   75.8947  218.2888 H   0  0  0  0  0  0  0  0  0  0  0  0
  142.2485   75.6399  218.4924 H   0  0  0  0  0  0  0  0  0  0  0  0
  141.4950   77.4860  219.3870 C   0  0  2  0  0  0  0  0  0  0  0  0
  140.5962   78.0750  219.1519 H   0  0  0  0  0  0  0  0  0  0  0  0
  142.5450   78.0890  218.6690 O   0  0  0  0  0  0  0  0  0  0  0  0
  143.3410   78.0550  219.2500 H   0  0  0  0  0  0  0  0  0  0  0  0
  141.7670   77.4740  220.8950 C   0  0  0  0  0  0  0  0  0  0  0  0
  141.2851   78.3356  221.3802 H   0  0  0  0  0  0  0  0  0  0  0  0
  142.8419   77.5429  221.1182 H   0  0  0  0  0  0  0  0  0  0  0  0
  141.1610   76.1630  221.4050 C   0  0  1  0  0  0  0  0  0  0  0  0
  141.7755   75.7102  222.1970 H   0  0  0  0  0  0  0  0  0  0  0  0
  139.8080   76.3990  222.0160 C   0  0  0  0  0  0  0  0  0  0  0  0
  139.1870   75.4580  222.5810 O   0  0  0  0  0  0  0  0  0  0  0  0
  139.2090   77.6930  221.8980 N   0  0  0  0  0  0  0  0  0  0  0  0
  139.0580   78.6180  223.0170 C   0  0  1  0  0  0  0  0  0  0  0  0
  138.9673   78.0488  223.9539 H   0  0  0  0  0  0  0  0  0  0  0  0
  140.2770   79.5120  223.1240 C   0  0  0  0  0  0  0  0  0  0  0  0
  141.4390   79.0640  223.7740 C   0  0  0  0  0  0  0  0  0  0  0  0
  141.4727   78.0510  224.2014 H   0  0  0  0  0  0  0  0  0  0  0  0
  142.5520   79.9020  223.8790 C   0  0  0  0  0  0  0  0  0  0  0  0
  143.4583   79.5463  224.3910 H   0  0  0  0  0  0  0  0  0  0  0  0
  142.5200   81.1920  223.3360 C   0  0  0  0  0  0  0  0  0  0  0  0
  143.3966   81.8502  223.4281 H   0  0  0  0  0  0  0  0  0  0  0  0
  141.3770   81.6410  222.6790 C   0  0  0  0  0  0  0  0  0  0  0  0
  141.3526   82.6522  222.2466 H   0  0  0  0  0  0  0  0  0  0  0  0
  140.2600   80.8060  222.5690 C   0  0  0  0  0  0  0  0  0  0  0  0
  139.3613   81.1631  222.0448 H   0  0  0  0  0  0  0  0  0  0  0  0
  137.7910   79.4530  222.8180 C   0  0  0  0  0  0  0  0  0  0  0  0
  137.3748   79.7273  223.7986 H   0  0  0  0  0  0  0  0  0  0  0  0
  138.0380   80.3659  222.2562 H   0  0  0  0  0  0  0  0  0  0  0  0
  137.0495   78.8660  222.2562 H   0  0  0  0  0  0  0  0  0  0  0  0
  141.6940   73.1180  221.2330 C   0  0  0  0  0  0  0  0  0  0  0  0
  142.6830   72.9160  220.7958 H   0  0  0  0  0  0  0  0  0  0  0  0
  141.8270   73.6314  222.1967 H   0  0  0  0  0  0  0  0  0  0  0  0
  140.9800   71.8610  221.4340 N   0  0  0  0  0  0  0  0  0  0  0  0
  139.7540   71.7890  222.1720 C   0  0  0  0  0  0  0  0  0  0  0  0
  138.7560   72.4630  221.8100 O   0  0  0  0  0  0  0  0  0  0  0  0
  139.6790   70.9850  223.4030 C   0  0  0  0  0  0  0  0  0  0  0  0
  140.2370   71.4650  224.5540 N   0  0  0  0  0  0  0  0  0  0  0  0
  140.3210   70.7170  225.6870 C   0  0  0  0  0  0  0  0  0  0  0  0
  140.9260   71.2420  226.8340 C   0  0  0  0  0  0  0  0  0  0  0  0
  141.2874   72.2809  226.8382 H   0  0  0  0  0  0  0  0  0  0  0  0
  141.0720   70.4450  227.9780 C   0  0  0  0  0  0  0  0  0  0  0  0
  141.5555   70.8587  228.8752 H   0  0  0  0  0  0  0  0  0  0  0  0
  140.6050   69.1240  227.9840 C   0  0  0  0  0  0  0  0  0  0  0  0
  140.7800   68.3470  229.0780 F   0  0  0  0  0  0  0  0  0  0  0  0
  139.9740   68.5990  226.8520 C   0  0  0  0  0  0  0  0  0  0  0  0
  139.5900   67.5683  226.8637 H   0  0  0  0  0  0  0  0  0  0  0  0
  139.8310   69.3910  225.6980 C   0  0  0  0  0  0  0  0  0  0  0  0
  139.2290   68.8880  224.5400 C   0  0  0  0  0  0  0  0  0  0  0  0
  138.8188   67.8674  224.5326 H   0  0  0  0  0  0  0  0  0  0  0  0
  139.1480   69.6850  223.3870 C   0  0  0  0  0  0  0  0  0  0  0  0
  138.6713   69.2934  222.4763 H   0  0  0  0  0  0  0  0  0  0  0  0
  1  2  1  0
  2  3  1  0
  3  4  2  0
  4  5  1  0
  5  6  1  0
  5  7  1  0
  5  8  1  0
  8  9  1  1
  8 10  1  0
 10 11  1  0
  8 12  1  0
 12 13  1  0
 12 14  1  0
 12 15  1  0
 15 16  1  1
 15 17  1  0
 17 18  2  0
 17 19  1  0
 19 20  1  0
 20 21  1  1
 20 22  1  0
 22 23  2  0
 23 24  1  0
 23 25  1  0
 25 26  1  0
 25 27  2  0
 27 28  1  0
 27 29  1  0
 29 30  1  0
 29 31  2  0
 31 32  1  0
 20 33  1  0
 33 34  1  0
 33 35  1  0
 33 36  1  0
  3 37  1  0
 37 38  1  0
 37 39  1  0
 37 40  1  0
 40 41  1  0
 41 42  2  0
 41 43  1  0
 43 44  2  0
 44 45  1  0
 45 46  2  0
 46 47  1  0
 46 48  1  0
 48 49  1  0
 48 50  2  0
 50 51  1  0
 50 52  1  0
 52 53  1  0
 52 54  2  0
 54 55  1  0
 55 56  1  0
 55 57  2  0
 57 58  1  0
 15  4  1  0
 31 22  1  0
 57 43  1  0
 54 45  1  0
M  CHG  3   4   1  19  -1  40  -1
M  END
>  <UniqueID>  (68) 
87

>  <SMILES>  (68) 
C[C@@H]([N-]C(=O)[C@@H]1C[C@@H](O)C/[N+]1=C(/O)C[N-]C(=O)c1ccc2cc(F)ccc2n1)c1ccccc1

>  <Energy>  (68) 
64.12887411175834

>  <Genealogy>  (68) 
C[C@@H]([N-]C(=O)[C@@H]1C[C@@H](O)C[NH+]1C(=O)C[N-]C(=O)c1ccc2cc(F)ccc2n1)c1ccccc1 (protonated)
C[C@@H]([N-]C(=O)[C@@H]1C[C@@H](O)C[N+]1=C(O)C[N-]C(=O)c1ccc2cc(F)ccc2n1)c1ccccc1 (tautomer)
C[C@@H]([N-]C(=O)[C@@H]1C[C@@H](O)C/[N+]1=C(/O)C[N-]C(=O)c1ccc2cc(F)ccc2n1)c1ccccc1 (cis-trans isomerization)
C[C@@H]([N-]C(=O)[C@@H]1C[C@@H](O)C/[N+]1=C(/O)C[N-]C(=O)c1ccc2cc(F)ccc2n1)c1ccccc1 (3D coordinates assigned)
C[C@@H]([N-]C(=O)[C@@H]1C[C@@H](O)C/[N+]1=C(/O)C[N-]C(=O)c1ccc2cc(F)ccc2n1)c1ccccc1 (nonaromatic ring conformer: 64.12887411175834 kcal/mol)

>  <smiles>  (68) 
C[C@@H](NC(=O)[C@@H]1C[C@@H](O)CN1C(=O)CNC(=O)c1ccc2cc(F)ccc2n1)c1ccccc1

>  <score_type>  (68) 
oracle

>  <origin>  (68) 
autodockgpu

>  <m_score__min__energy>  (68) 
-8.9499999999999993

>  <m_primary>  (68) 
energy

>  <meeko>  (68) 
{"free_energy": -7.47, "intermolecular_energy": -10.75, "internal_energy": -3.3, "cluster_size": 14, "cluster_id": 1, "rank_in_cluster": 10}

>  <energy>  (68) 
-7.74

>  <cluster_rmsd>  (68) 
1.38

>  <rmsd>  (68) 
272.43

>  <cluster>  (68) 
1

$$$$
DWYNEBQVPRLYJI-KZHXFCNENA-M
     RDKit          3D

 58 61  0  0  0  0  0  0  0  0999 V2000
  138.9720   74.1530  222.9840 H   0  0  0  0  0  0  0  0  0  0  0  0
  139.2120   74.9180  222.3810 O   0  0  0  0  0  0  0  0  0  0  0  0
  140.2700   74.8760  221.4670 C   0  0  0  0  0  0  0  0  0  0  0  0
  140.7290   75.9690  220.8940 N   0  0  0  0  0  0  0  0  0  0  0  0
  141.4440   75.9820  219.6140 C   0  0  0  0  0  0  0  0  0  0  0  0
  140.8012   75.5867  218.8137 H   0  0  0  0  0  0  0  0  0  0  0  0
  142.3453   75.3525  219.6509 H   0  0  0  0  0  0  0  0  0  0  0  0
  141.7950   77.4440  219.3390 C   0  0  2  0  0  0  0  0  0  0  0  0
  141.1263   77.8998  218.5939 H   0  0  0  0  0  0  0  0  0  0  0  0
  143.0920   77.5530  218.8040 O   0  0  0  0  0  0  0  0  0  0  0  0
  143.6890   77.7780  219.5550 H   0  0  0  0  0  0  0  0  0  0  0  0
  141.6750   78.1500  220.6940 C   0  0  0  0  0  0  0  0  0  0  0  0
  141.2785   79.1678  220.5641 H   0  0  0  0  0  0  0  0  0  0  0  0
  142.6507   78.2491  221.1921 H   0  0  0  0  0  0  0  0  0  0  0  0
  140.7020   77.2960  221.5110 C   0  0  1  0  0  0  0  0  0  0  0  0
  140.9925   77.2493  222.5709 H   0  0  0  0  0  0  0  0  0  0  0  0
  139.3180   77.8850  221.4880 C   0  0  0  0  0  0  0  0  0  0  0  0
  138.7640   78.1730  220.3930 O   0  0  0  0  0  0  0  0  0  0  0  0
  138.6630   78.1660  222.7280 N   0  0  0  0  0  0  0  0  0  0  0  0
  138.7690   79.4440  223.4260 C   0  0  1  0  0  0  0  0  0  0  0  0
  138.5190   79.3039  224.4880 H   0  0  0  0  0  0  0  0  0  0  0  0
  140.1890   79.9700  223.3390 C   0  0  0  0  0  0  0  0  0  0  0  0
  140.4670   81.1740  222.6710 C   0  0  0  0  0  0  0  0  0  0  0  0
  139.6482   81.7499  222.2151 H   0  0  0  0  0  0  0  0  0  0  0  0
  141.7800   81.6420  222.5840 C   0  0  0  0  0  0  0  0  0  0  0  0
  141.9912   82.5842  222.0571 H   0  0  0  0  0  0  0  0  0  0  0  0
  142.8290   80.9180  223.1640 C   0  0  0  0  0  0  0  0  0  0  0  0
  143.8621   81.2878  223.0873 H   0  0  0  0  0  0  0  0  0  0  0  0
  142.5620   79.7290  223.8380 C   0  0  0  0  0  0  0  0  0  0  0  0
  143.3839   79.1615  224.2989 H   0  0  0  0  0  0  0  0  0  0  0  0
  141.2480   79.2560  223.9290 C   0  0  0  0  0  0  0  0  0  0  0  0
  141.0416   78.3185  224.4661 H   0  0  0  0  0  0  0  0  0  0  0  0
  137.7860   80.4410  222.8120 C   0  0  0  0  0  0  0  0  0  0  0  0
  137.2578   80.9767  223.6145 H   0  0  0  0  0  0  0  0  0  0  0  0
  138.3360   81.1624  222.1898 H   0  0  0  0  0  0  0  0  0  0  0  0
  137.0569   79.9012  222.1898 H   0  0  0  0  0  0  0  0  0  0  0  0
  140.9200   73.5340  221.2460 C   0  0  0  0  0  0  0  0  0  0  0  0
  140.4100   73.0064  220.4265 H   0  0  0  0  0  0  0  0  0  0  0  0
  141.9787   73.6702  220.9802 H   0  0  0  0  0  0  0  0  0  0  0  0
  140.8130   72.7530  222.4740 N   0  0  0  0  0  0  0  0  0  0  0  0
  139.6380   72.0000  222.7990 C   0  0  0  0  0  0  0  0  0  0  0  0
  138.5650   72.1990  222.1750 O   0  0  0  0  0  0  0  0  0  0  0  0
  139.6600   71.0440  223.9180 C   0  0  0  0  0  0  0  0  0  0  0  0
  140.2110   71.4180  225.1110 N   0  0  0  0  0  0  0  0  0  0  0  0
  140.3850   70.5430  226.1380 C   0  0  0  0  0  0  0  0  0  0  0  0
  140.9790   70.9660  227.3320 C   0  0  0  0  0  0  0  0  0  0  0  0
  141.2587   72.0218  227.4629 H   0  0  0  0  0  0  0  0  0  0  0  0
  141.2180   70.0450  228.3620 C   0  0  0  0  0  0  0  0  0  0  0  0
  141.6922   70.3798  229.2964 H   0  0  0  0  0  0  0  0  0  0  0  0
  140.8560   68.7010  228.2070 C   0  0  0  0  0  0  0  0  0  0  0  0
  141.1220   67.8080  229.1890 F   0  0  0  0  0  0  0  0  0  0  0  0
  140.2370   68.2740  227.0280 C   0  0  0  0  0  0  0  0  0  0  0  0
  139.9356   67.2222  226.9143 H   0  0  0  0  0  0  0  0  0  0  0  0
  140.0000   69.1910  225.9870 C   0  0  0  0  0  0  0  0  0  0  0  0
  139.4070   68.7910  224.7860 C   0  0  0  0  0  0  0  0  0  0  0  0
  139.0780   67.7495  224.6555 H   0  0  0  0  0  0  0  0  0  0  0  0
  139.2310   69.7180  223.7460 C   0  0  0  0  0  0  0  0  0  0  0  0
  138.7597   69.4072  222.8019 H   0  0  0  0  0  0  0  0  0  0  0  0
  1  2  1  0
  2  3  1  0
  3  4  2  0
  4  5  1  0
  5  6  1  0
  5  7  1  0
  5  8  1  0
  8  9  1  6
  8 10  1  0
 10 11  1  0
  8 12  1  0
 12 13  1  0
 12 14  1  0
 12 15  1  0
 15 16  1  1
 15 17  1  0
 17 18  2  0
 17 19  1  0
 19 20  1  0
 20 21  1  1
 20 22  1  0
 22 23  2  0
 23 24  1  0
 23 25  1  0
 25 26  1  0
 25 27  2  0
 27 28  1  0
 27 29  1  0
 29 30  1  0
 29 31  2  0
 31 32  1  0
 20 33  1  0
 33 34  1  0
 33 35  1  0
 33 36  1  0
  3 37  1  0
 37 38  1  0
 37 39  1  0
 37 40  1  0
 40 41  1  0
 41 42  2  0
 41 43  1  0
 43 44  2  0
 44 45  1  0
 45 46  2  0
 46 47  1  0
 46 48  1  0
 48 49  1  0
 48 50  2  0
 50 51  1  0
 50 52  1  0
 52 53  1  0
 52 54  2  0
 54 55  1  0
 55 56  1  0
 55 57  2  0
 57 58  1  0
 15  4  1  0
 31 22  1  0
 57 43  1  0
 54 45  1  0
M  CHG  3   4   1  19  -1  40  -1
M  END
>  <UniqueID>  (69) 
87

>  <SMILES>  (69) 
C[C@@H]([N-]C(=O)[C@@H]1C[C@@H](O)C/[N+]1=C(/O)C[N-]C(=O)c1ccc2cc(F)ccc2n1)c1ccccc1

>  <Energy>  (69) 
64.12887411175834

>  <Genealogy>  (69) 
C[C@@H]([N-]C(=O)[C@@H]1C[C@@H](O)C[NH+]1C(=O)C[N-]C(=O)c1ccc2cc(F)ccc2n1)c1ccccc1 (protonated)
C[C@@H]([N-]C(=O)[C@@H]1C[C@@H](O)C[N+]1=C(O)C[N-]C(=O)c1ccc2cc(F)ccc2n1)c1ccccc1 (tautomer)
C[C@@H]([N-]C(=O)[C@@H]1C[C@@H](O)C/[N+]1=C(/O)C[N-]C(=O)c1ccc2cc(F)ccc2n1)c1ccccc1 (cis-trans isomerization)
C[C@@H]([N-]C(=O)[C@@H]1C[C@@H](O)C/[N+]1=C(/O)C[N-]C(=O)c1ccc2cc(F)ccc2n1)c1ccccc1 (3D coordinates assigned)
C[C@@H]([N-]C(=O)[C@@H]1C[C@@H](O)C/[N+]1=C(/O)C[N-]C(=O)c1ccc2cc(F)ccc2n1)c1ccccc1 (nonaromatic ring conformer: 64.12887411175834 kcal/mol)

>  <smiles>  (69) 
C[C@@H](NC(=O)[C@@H]1C[C@@H](O)CN1C(=O)CNC(=O)c1ccc2cc(F)ccc2n1)c1ccccc1

>  <score_type>  (69) 
oracle

>  <origin>  (69) 
autodockgpu

>  <m_score__min__energy>  (69) 
-8.9499999999999993

>  <m_primary>  (69) 
energy

>  <meeko>  (69) 
{"free_energy": -8.95, "intermolecular_energy": -12.23, "internal_energy": -2.93, "cluster_size": 14, "cluster_id": 1, "rank_in_cluster": 1}

>  <energy>  (69) 
-7.6

>  <cluster_rmsd>  (69) 
1.71

>  <rmsd>  (69) 
272.18

>  <cluster>  (69) 
1

$$$$
DWYNEBQVPRLYJI-KZHXFCNENA-M
     RDKit          3D

 58 61  0  0  0  0  0  0  0  0999 V2000
  139.4390   73.2910  220.6240 H   0  0  0  0  0  0  0  0  0  0  0  0
  139.9420   73.8930  219.9980 O   0  0  0  0  0  0  0  0  0  0  0  0
  141.3380   73.9930  219.9820 C   0  0  0  0  0  0  0  0  0  0  0  0
  141.9530   74.9300  219.2920 N   0  0  0  0  0  0  0  0  0  0  0  0
  142.2940   74.8080  217.8720 C   0  0  0  0  0  0  0  0  0  0  0  0
  141.3824   74.6775  217.2705 H   0  0  0  0  0  0  0  0  0  0  0  0
  142.9365   73.9345  217.6869 H   0  0  0  0  0  0  0  0  0  0  0  0
  142.9990   76.1100  217.4910 C   0  0  2  0  0  0  0  0  0  0  0  0
  142.3399   76.7931  216.9352 H   0  0  0  0  0  0  0  0  0  0  0  0
  144.0890   75.8560  216.6390 O   0  0  0  0  0  0  0  0  0  0  0  0
  144.9040   75.9640  217.1820 H   0  0  0  0  0  0  0  0  0  0  0  0
  143.4450   76.7310  218.8190 C   0  0  0  0  0  0  0  0  0  0  0  0
  143.3621   77.8271  218.7785 H   0  0  0  0  0  0  0  0  0  0  0  0
  144.4957   76.4988  219.0471 H   0  0  0  0  0  0  0  0  0  0  0  0
  142.4930   76.1600  219.8740 C   0  0  1  0  0  0  0  0  0  0  0  0
  143.0102   75.9588  220.8237 H   0  0  0  0  0  0  0  0  0  0  0  0
  141.4000   77.1400  220.1980 C   0  0  0  0  0  0  0  0  0  0  0  0
  141.5150   78.3560  219.8840 O   0  0  0  0  0  0  0  0  0  0  0  0
  140.2510   76.6850  220.9180 N   0  0  0  0  0  0  0  0  0  0  0  0
  140.0740   76.8670  222.3560 C   0  0  1  0  0  0  0  0  0  0  0  0
  140.6696   76.1168  222.8968 H   0  0  0  0  0  0  0  0  0  0  0  0
  140.5560   78.2440  222.7700 C   0  0  0  0  0  0  0  0  0  0  0  0
  139.7930   79.3880  222.4770 C   0  0  0  0  0  0  0  0  0  0  0  0
  138.8313   79.2866  221.9527 H   0  0  0  0  0  0  0  0  0  0  0  0
  140.2530   80.6530  222.8500 C   0  0  0  0  0  0  0  0  0  0  0  0
  139.6528   81.5446  222.6158 H   0  0  0  0  0  0  0  0  0  0  0  0
  141.4750   80.7920  223.5210 C   0  0  0  0  0  0  0  0  0  0  0  0
  141.8367   81.7911  223.8056 H   0  0  0  0  0  0  0  0  0  0  0  0
  142.2310   79.6630  223.8270 C   0  0  0  0  0  0  0  0  0  0  0  0
  143.1870   79.7695  224.3606 H   0  0  0  0  0  0  0  0  0  0  0  0
  141.7750   78.3940  223.4560 C   0  0  0  0  0  0  0  0  0  0  0  0
  142.3747   77.5055  223.7027 H   0  0  0  0  0  0  0  0  0  0  0  0
  138.5990   76.6810  222.7150 C   0  0  0  0  0  0  0  0  0  0  0  0
  138.4869   76.6669  223.8092 H   0  0  0  0  0  0  0  0  0  0  0  0
  138.0122   77.5123  222.2970 H   0  0  0  0  0  0  0  0  0  0  0  0
  138.2370   75.7301  222.2970 H   0  0  0  0  0  0  0  0  0  0  0  0
  142.0950   73.0350  220.8670 C   0  0  0  0  0  0  0  0  0  0  0  0
  142.8162   72.4646  220.2632 H   0  0  0  0  0  0  0  0  0  0  0  0
  142.6401   73.5927  221.6428 H   0  0  0  0  0  0  0  0  0  0  0  0
  141.1430   72.1200  221.4890 N   0  0  0  0  0  0  0  0  0  0  0  0
  140.3460   72.4990  222.6180 C   0  0  0  0  0  0  0  0  0  0  0  0
  139.8760   73.6620  222.7000 O   0  0  0  0  0  0  0  0  0  0  0  0
  140.1380   71.5530  223.7260 C   0  0  0  0  0  0  0  0  0  0  0  0
  140.5920   71.8710  224.9750 N   0  0  0  0  0  0  0  0  0  0  0  0
  140.5530   70.9880  226.0090 C   0  0  0  0  0  0  0  0  0  0  0  0
  141.0550   71.3490  227.2640 C   0  0  0  0  0  0  0  0  0  0  0  0
  141.4343   72.3678  227.4319 H   0  0  0  0  0  0  0  0  0  0  0  0
  141.0750   70.4130  228.3080 C   0  0  0  0  0  0  0  0  0  0  0  0
  141.4778   70.6985  229.2910 H   0  0  0  0  0  0  0  0  0  0  0  0
  140.5850   69.1170  228.1060 C   0  0  0  0  0  0  0  0  0  0  0  0
  140.6400   68.2060  229.1050 F   0  0  0  0  0  0  0  0  0  0  0  0
  140.0570   68.7540  226.8630 C   0  0  0  0  0  0  0  0  0  0  0  0
  139.6554   67.7414  226.7098 H   0  0  0  0  0  0  0  0  0  0  0  0
  140.0400   69.6860  225.8080 C   0  0  0  0  0  0  0  0  0  0  0  0
  139.5420   69.3470  224.5460 C   0  0  0  0  0  0  0  0  0  0  0  0
  139.1151   68.3480  224.3734 H   0  0  0  0  0  0  0  0  0  0  0  0
  139.5870   70.2820  223.4990 C   0  0  0  0  0  0  0  0  0  0  0  0
  139.1925   70.0197  222.5062 H   0  0  0  0  0  0  0  0  0  0  0  0
  1  2  1  0
  2  3  1  0
  3  4  2  0
  4  5  1  0
  5  6  1  0
  5  7  1  0
  5  8  1  0
  8  9  1  6
  8 10  1  0
 10 11  1  0
  8 12  1  0
 12 13  1  0
 12 14  1  0
 12 15  1  0
 15 16  1  1
 15 17  1  0
 17 18  2  0
 17 19  1  0
 19 20  1  0
 20 21  1  1
 20 22  1  0
 22 23  2  0
 23 24  1  0
 23 25  1  0
 25 26  1  0
 25 27  2  0
 27 28  1  0
 27 29  1  0
 29 30  1  0
 29 31  2  0
 31 32  1  0
 20 33  1  0
 33 34  1  0
 33 35  1  0
 33 36  1  0
  3 37  1  0
 37 38  1  0
 37 39  1  0
 37 40  1  0
 40 41  1  0
 41 42  2  0
 41 43  1  0
 43 44  2  0
 44 45  1  0
 45 46  2  0
 46 47  1  0
 46 48  1  0
 48 49  1  0
 48 50  2  0
 50 51  1  0
 50 52  1  0
 52 53  1  0
 52 54  2  0
 54 55  1  0
 55 56  1  0
 55 57  2  0
 57 58  1  0
 15  4  1  0
 31 22  1  0
 57 43  1  0
 54 45  1  0
M  CHG  3   4   1  19  -1  40  -1
M  END
>  <UniqueID>  (70) 
87

>  <SMILES>  (70) 
C[C@@H]([N-]C(=O)[C@@H]1C[C@@H](O)C/[N+]1=C(/O)C[N-]C(=O)c1ccc2cc(F)ccc2n1)c1ccccc1

>  <Energy>  (70) 
64.12887411175834

>  <Genealogy>  (70) 
C[C@@H]([N-]C(=O)[C@@H]1C[C@@H](O)C[NH+]1C(=O)C[N-]C(=O)c1ccc2cc(F)ccc2n1)c1ccccc1 (protonated)
C[C@@H]([N-]C(=O)[C@@H]1C[C@@H](O)C[N+]1=C(O)C[N-]C(=O)c1ccc2cc(F)ccc2n1)c1ccccc1 (tautomer)
C[C@@H]([N-]C(=O)[C@@H]1C[C@@H](O)C/[N+]1=C(/O)C[N-]C(=O)c1ccc2cc(F)ccc2n1)c1ccccc1 (cis-trans isomerization)
C[C@@H]([N-]C(=O)[C@@H]1C[C@@H](O)C/[N+]1=C(/O)C[N-]C(=O)c1ccc2cc(F)ccc2n1)c1ccccc1 (3D coordinates assigned)
C[C@@H]([N-]C(=O)[C@@H]1C[C@@H](O)C/[N+]1=C(/O)C[N-]C(=O)c1ccc2cc(F)ccc2n1)c1ccccc1 (nonaromatic ring conformer: 64.12887411175834 kcal/mol)

>  <smiles>  (70) 
C[C@@H](NC(=O)[C@@H]1C[C@@H](O)CN1C(=O)CNC(=O)c1ccc2cc(F)ccc2n1)c1ccccc1

>  <score_type>  (70) 
oracle

>  <origin>  (70) 
autodockgpu

>  <m_score__min__energy>  (70) 
-8.9499999999999993

>  <m_primary>  (70) 
energy

>  <meeko>  (70) 
{"free_energy": -7.79, "intermolecular_energy": -11.07, "internal_energy": -3.17, "cluster_size": 14, "cluster_id": 1, "rank_in_cluster": 6}

>  <energy>  (70) 
-7.47

>  <cluster_rmsd>  (70) 
1.07

>  <rmsd>  (70) 
272.33

>  <cluster>  (70) 
1

$$$$
DWYNEBQVPRLYJI-KZHXFCNENA-M
     RDKit          3D

 58 61  0  0  0  0  0  0  0  0999 V2000
  141.3550   76.2410  222.5860 H   0  0  0  0  0  0  0  0  0  0  0  0
  140.4030   76.5340  222.7070 O   0  0  0  0  0  0  0  0  0  0  0  0
  139.3050   75.7830  222.2750 C   0  0  0  0  0  0  0  0  0  0  0  0
  138.0870   76.2840  222.2720 N   0  0  0  0  0  0  0  0  0  0  0  0
  136.9760   75.7330  223.0530 C   0  0  0  0  0  0  0  0  0  0  0  0
  137.2096   75.7697  224.1273 H   0  0  0  0  0  0  0  0  0  0  0  0
  136.7867   74.6807  222.7945 H   0  0  0  0  0  0  0  0  0  0  0  0
  135.7630   76.6100  222.7440 C   0  0  2  0  0  0  0  0  0  0  0  0
  135.5457   77.3211  223.5546 H   0  0  0  0  0  0  0  0  0  0  0  0
  134.6030   75.8260  222.6050 O   0  0  0  0  0  0  0  0  0  0  0  0
  133.8690   76.3280  223.0310 H   0  0  0  0  0  0  0  0  0  0  0  0
  136.1160   77.3430  221.4450 C   0  0  0  0  0  0  0  0  0  0  0  0
  135.7118   78.3660  221.4582 H   0  0  0  0  0  0  0  0  0  0  0  0
  135.6889   76.8424  220.5635 H   0  0  0  0  0  0  0  0  0  0  0  0
  137.6460   77.3720  221.3980 C   0  0  1  0  0  0  0  0  0  0  0  0
  138.0256   77.2400  220.3741 H   0  0  0  0  0  0  0  0  0  0  0  0
  138.1720   78.7010  221.8670 C   0  0  0  0  0  0  0  0  0  0  0  0
  138.6630   79.5210  221.0450 O   0  0  0  0  0  0  0  0  0  0  0  0
  138.1600   78.9970  223.2670 N   0  0  0  0  0  0  0  0  0  0  0  0
  138.8130   80.1650  223.8500 C   0  0  1  0  0  0  0  0  0  0  0  0
  138.7282   80.1240  224.9460 H   0  0  0  0  0  0  0  0  0  0  0  0
  140.2860   80.1740  223.4900 C   0  0  0  0  0  0  0  0  0  0  0  0
  140.8600   81.2850  222.8510 C   0  0  0  0  0  0  0  0  0  0  0  0
  140.2407   82.1636  222.6174 H   0  0  0  0  0  0  0  0  0  0  0  0
  142.2150   81.2780  222.5110 C   0  0  0  0  0  0  0  0  0  0  0  0
  142.6579   82.1506  222.0086 H   0  0  0  0  0  0  0  0  0  0  0  0
  143.0120   80.1650  222.8070 C   0  0  0  0  0  0  0  0  0  0  0  0
  144.0768   80.1610  222.5309 H   0  0  0  0  0  0  0  0  0  0  0  0
  142.4550   79.0640  223.4510 C   0  0  0  0  0  0  0  0  0  0  0  0
  143.0814   78.1918  223.6896 H   0  0  0  0  0  0  0  0  0  0  0  0
  141.0990   79.0660  223.7950 C   0  0  0  0  0  0  0  0  0  0  0  0
  140.6647   78.1951  224.3077 H   0  0  0  0  0  0  0  0  0  0  0  0
  138.1260   81.4350  223.3460 C   0  0  0  0  0  0  0  0  0  0  0  0
  137.7987   82.0401  224.2043 H   0  0  0  0  0  0  0  0  0  0  0  0
  138.8326   82.0165  222.7356 H   0  0  0  0  0  0  0  0  0  0  0  0
  137.2526   81.1618  222.7356 H   0  0  0  0  0  0  0  0  0  0  0  0
  139.5970   74.4120  221.7230 C   0  0  0  0  0  0  0  0  0  0  0  0
  138.9750   73.6654  222.2384 H   0  0  0  0  0  0  0  0  0  0  0  0
  139.3700   74.3852  220.6470 H   0  0  0  0  0  0  0  0  0  0  0  0
  141.0090   74.1100  221.9410 N   0  0  0  0  0  0  0  0  0  0  0  0
  141.9500   74.0430  220.8630 C   0  0  0  0  0  0  0  0  0  0  0  0
  142.5080   72.9520  220.5770 O   0  0  0  0  0  0  0  0  0  0  0  0
  142.3280   75.2640  220.1340 C   0  0  0  0  0  0  0  0  0  0  0  0
  141.8030   76.4650  220.5180 N   0  0  0  0  0  0  0  0  0  0  0  0
  142.0030   77.6070  219.8070 C   0  0  0  0  0  0  0  0  0  0  0  0
  141.4220   78.8100  220.2250 C   0  0  0  0  0  0  0  0  0  0  0  0
  140.8450   78.8457  221.1608 H   0  0  0  0  0  0  0  0  0  0  0  0
  141.5750   79.9690  219.4520 C   0  0  0  0  0  0  0  0  0  0  0  0
  141.1105   80.9106  219.7802 H   0  0  0  0  0  0  0  0  0  0  0  0
  142.3160   79.9350  218.2640 C   0  0  0  0  0  0  0  0  0  0  0  0
  142.4310   81.0480  217.5020 F   0  0  0  0  0  0  0  0  0  0  0  0
  142.9230   78.7450  217.8520 C   0  0  0  0  0  0  0  0  0  0  0  0
  143.5213   78.7230  216.9292 H   0  0  0  0  0  0  0  0  0  0  0  0
  142.7680   77.5750  218.6190 C   0  0  0  0  0  0  0  0  0  0  0  0
  143.3410   76.3630  218.2210 C   0  0  0  0  0  0  0  0  0  0  0  0
  143.9610   76.3196  217.3134 H   0  0  0  0  0  0  0  0  0  0  0  0
  143.1250   75.2010  218.9800 C   0  0  0  0  0  0  0  0  0  0  0  0
  143.5778   74.2470  218.6719 H   0  0  0  0  0  0  0  0  0  0  0  0
  1  2  1  0
  2  3  1  0
  3  4  2  0
  4  5  1  0
  5  6  1  0
  5  7  1  0
  5  8  1  0
  8  9  1  1
  8 10  1  0
 10 11  1  0
  8 12  1  0
 12 13  1  0
 12 14  1  0
 12 15  1  0
 15 16  1  6
 15 17  1  0
 17 18  2  0
 17 19  1  0
 19 20  1  0
 20 21  1  1
 20 22  1  0
 22 23  2  0
 23 24  1  0
 23 25  1  0
 25 26  1  0
 25 27  2  0
 27 28  1  0
 27 29  1  0
 29 30  1  0
 29 31  2  0
 31 32  1  0
 20 33  1  0
 33 34  1  0
 33 35  1  0
 33 36  1  0
  3 37  1  0
 37 38  1  0
 37 39  1  0
 37 40  1  0
 40 41  1  0
 41 42  2  0
 41 43  1  0
 43 44  2  0
 44 45  1  0
 45 46  2  0
 46 47  1  0
 46 48  1  0
 48 49  1  0
 48 50  2  0
 50 51  1  0
 50 52  1  0
 52 53  1  0
 52 54  2  0
 54 55  1  0
 55 56  1  0
 55 57  2  0
 57 58  1  0
 15  4  1  0
 31 22  1  0
 57 43  1  0
 54 45  1  0
M  CHG  3   4   1  19  -1  40  -1
M  END
>  <UniqueID>  (71) 
87

>  <SMILES>  (71) 
C[C@@H]([N-]C(=O)[C@@H]1C[C@@H](O)C/[N+]1=C(/O)C[N-]C(=O)c1ccc2cc(F)ccc2n1)c1ccccc1

>  <Energy>  (71) 
64.12887411175834

>  <Genealogy>  (71) 
C[C@@H]([N-]C(=O)[C@@H]1C[C@@H](O)C[NH+]1C(=O)C[N-]C(=O)c1ccc2cc(F)ccc2n1)c1ccccc1 (protonated)
C[C@@H]([N-]C(=O)[C@@H]1C[C@@H](O)C[N+]1=C(O)C[N-]C(=O)c1ccc2cc(F)ccc2n1)c1ccccc1 (tautomer)
C[C@@H]([N-]C(=O)[C@@H]1C[C@@H](O)C/[N+]1=C(/O)C[N-]C(=O)c1ccc2cc(F)ccc2n1)c1ccccc1 (cis-trans isomerization)
C[C@@H]([N-]C(=O)[C@@H]1C[C@@H](O)C/[N+]1=C(/O)C[N-]C(=O)c1ccc2cc(F)ccc2n1)c1ccccc1 (3D coordinates assigned)
C[C@@H]([N-]C(=O)[C@@H]1C[C@@H](O)C/[N+]1=C(/O)C[N-]C(=O)c1ccc2cc(F)ccc2n1)c1ccccc1 (nonaromatic ring conformer: 64.12887411175834 kcal/mol)

>  <smiles>  (71) 
C[C@@H](NC(=O)[C@@H]1C[C@@H](O)CN1C(=O)CNC(=O)c1ccc2cc(F)ccc2n1)c1ccccc1

>  <score_type>  (71) 
oracle

>  <origin>  (71) 
autodockgpu

>  <m_score__min__energy>  (71) 
-8.9499999999999993

>  <m_primary>  (71) 
energy

>  <meeko>  (71) 
{"free_energy": -5.4, "intermolecular_energy": -8.68, "internal_energy": -4.55, "cluster_size": 1, "cluster_id": 6, "rank_in_cluster": 1}

>  <energy>  (71) 
-7.46

>  <cluster_rmsd>  (71) 
1.52

>  <rmsd>  (71) 
272.66

>  <cluster>  (71) 
1

$$$$
DWYNEBQVPRLYJI-KZHXFCNENA-M
     RDKit          3D

 58 61  0  0  0  0  0  0  0  0999 V2000
  139.2080   73.6080  222.7230 H   0  0  0  0  0  0  0  0  0  0  0  0
  140.0570   73.9470  222.3090 O   0  0  0  0  0  0  0  0  0  0  0  0
  140.9310   73.1400  221.5730 C   0  0  0  0  0  0  0  0  0  0  0  0
  141.8720   73.6590  220.8120 N   0  0  0  0  0  0  0  0  0  0  0  0
  142.8270   72.8630  220.0360 C   0  0  0  0  0  0  0  0  0  0  0  0
  142.2959   72.2372  219.3036 H   0  0  0  0  0  0  0  0  0  0  0  0
  143.4073   72.1889  220.6832 H   0  0  0  0  0  0  0  0  0  0  0  0
  143.7320   73.8650  219.3200 C   0  0  2  0  0  0  0  0  0  0  0  0
  143.4684   73.9789  218.2581 H   0  0  0  0  0  0  0  0  0  0  0  0
  145.0700   73.4290  219.3350 O   0  0  0  0  0  0  0  0  0  0  0  0
  145.6070   74.1490  218.9300 H   0  0  0  0  0  0  0  0  0  0  0  0
  143.5530   75.1850  220.0790 C   0  0  0  0  0  0  0  0  0  0  0  0
  143.5886   76.0368  219.3839 H   0  0  0  0  0  0  0  0  0  0  0  0
  144.3514   75.3437  220.8188 H   0  0  0  0  0  0  0  0  0  0  0  0
  142.1750   75.0890  220.7390 C   0  0  1  0  0  0  0  0  0  0  0  0
  142.1683   75.5495  221.7379 H   0  0  0  0  0  0  0  0  0  0  0  0
  141.1420   75.8290  219.9350 C   0  0  0  0  0  0  0  0  0  0  0  0
  140.8980   75.4960  218.7430 O   0  0  0  0  0  0  0  0  0  0  0  0
  140.4790   76.9520  220.5230 N   0  0  0  0  0  0  0  0  0  0  0  0
  140.3820   77.1690  221.9630 C   0  0  1  0  0  0  0  0  0  0  0  0
  140.8328   76.3170  222.4930 H   0  0  0  0  0  0  0  0  0  0  0  0
  141.1380   78.4230  222.3550 C   0  0  0  0  0  0  0  0  0  0  0  0
  141.5300   78.6370  223.6870 C   0  0  0  0  0  0  0  0  0  0  0  0
  141.2983   77.8840  224.4547 H   0  0  0  0  0  0  0  0  0  0  0  0
  142.2130   79.8030  224.0390 C   0  0  0  0  0  0  0  0  0  0  0  0
  142.5146   79.9658  225.0842 H   0  0  0  0  0  0  0  0  0  0  0  0
  142.5160   80.7660  223.0690 C   0  0  0  0  0  0  0  0  0  0  0  0
  143.0487   81.6855  223.3532 H   0  0  0  0  0  0  0  0  0  0  0  0
  142.1420   80.5580  221.7440 C   0  0  0  0  0  0  0  0  0  0  0  0
  142.3835   81.3112  220.9796 H   0  0  0  0  0  0  0  0  0  0  0  0
  141.4590   79.3910  221.3850 C   0  0  0  0  0  0  0  0  0  0  0  0
  141.1705   79.2286  220.3360 H   0  0  0  0  0  0  0  0  0  0  0  0
  138.9090   77.2800  222.3620 C   0  0  0  0  0  0  0  0  0  0  0  0
  138.8257   77.2863  223.4588 H   0  0  0  0  0  0  0  0  0  0  0  0
  138.4887   78.2124  221.9570 H   0  0  0  0  0  0  0  0  0  0  0  0
  138.3537   76.4212  221.9570 H   0  0  0  0  0  0  0  0  0  0  0  0
  140.8040   71.6510  221.7680 C   0  0  0  0  0  0  0  0  0  0  0  0
  141.3019   71.1256  220.9397 H   0  0  0  0  0  0  0  0  0  0  0  0
  141.2782   71.3558  222.7156 H   0  0  0  0  0  0  0  0  0  0  0  0
  139.3870   71.3000  221.7910 N   0  0  0  0  0  0  0  0  0  0  0  0
  138.6010   71.3740  222.9860 C   0  0  0  0  0  0  0  0  0  0  0  0
  137.6730   72.2170  223.0820 O   0  0  0  0  0  0  0  0  0  0  0  0
  138.9250   70.5180  224.1380 C   0  0  0  0  0  0  0  0  0  0  0  0
  139.5770   71.0540  225.2120 N   0  0  0  0  0  0  0  0  0  0  0  0
  140.0240   70.2910  226.2460 C   0  0  0  0  0  0  0  0  0  0  0  0
  140.7120   70.8820  227.3120 C   0  0  0  0  0  0  0  0  0  0  0  0
  140.8456   71.9734  227.3423 H   0  0  0  0  0  0  0  0  0  0  0  0
  141.2310   70.0840  228.3410 C   0  0  0  0  0  0  0  0  0  0  0  0
  141.7784   70.5512  229.1729 H   0  0  0  0  0  0  0  0  0  0  0  0
  141.0560   68.6950  228.3150 C   0  0  0  0  0  0  0  0  0  0  0  0
  141.5890   67.9250  229.2920 F   0  0  0  0  0  0  0  0  0  0  0  0
  140.3470   68.0970  227.2690 C   0  0  0  0  0  0  0  0  0  0  0  0
  140.1934   67.0078  227.2595 H   0  0  0  0  0  0  0  0  0  0  0  0
  139.8300   68.8910  226.2280 C   0  0  0  0  0  0  0  0  0  0  0  0
  139.1390   68.3230  225.1530 C   0  0  0  0  0  0  0  0  0  0  0  0
  138.9550   67.2388  225.1294 H   0  0  0  0  0  0  0  0  0  0  0  0
  138.6800   69.1350  224.1040 C   0  0  0  0  0  0  0  0  0  0  0  0
  138.1316   68.6910  223.2601 H   0  0  0  0  0  0  0  0  0  0  0  0
  1  2  1  0
  2  3  1  0
  3  4  2  0
  4  5  1  0
  5  6  1  0
  5  7  1  0
  5  8  1  0
  8  9  1  6
  8 10  1  0
 10 11  1  0
  8 12  1  0
 12 13  1  0
 12 14  1  0
 12 15  1  0
 15 16  1  1
 15 17  1  0
 17 18  2  0
 17 19  1  0
 19 20  1  0
 20 21  1  1
 20 22  1  0
 22 23  2  0
 23 24  1  0
 23 25  1  0
 25 26  1  0
 25 27  2  0
 27 28  1  0
 27 29  1  0
 29 30  1  0
 29 31  2  0
 31 32  1  0
 20 33  1  0
 33 34  1  0
 33 35  1  0
 33 36  1  0
  3 37  1  0
 37 38  1  0
 37 39  1  0
 37 40  1  0
 40 41  1  0
 41 42  2  0
 41 43  1  0
 43 44  2  0
 44 45  1  0
 45 46  2  0
 46 47  1  0
 46 48  1  0
 48 49  1  0
 48 50  2  0
 50 51  1  0
 50 52  1  0
 52 53  1  0
 52 54  2  0
 54 55  1  0
 55 56  1  0
 55 57  2  0
 57 58  1  0
 15  4  1  0
 31 22  1  0
 57 43  1  0
 54 45  1  0
M  CHG  3   4   1  19  -1  40  -1
M  END
>  <UniqueID>  (72) 
87

>  <SMILES>  (72) 
C[C@@H]([N-]C(=O)[C@@H]1C[C@@H](O)C/[N+]1=C(/O)C[N-]C(=O)c1ccc2cc(F)ccc2n1)c1ccccc1

>  <Energy>  (72) 
64.12887411175834

>  <Genealogy>  (72) 
C[C@@H]([N-]C(=O)[C@@H]1C[C@@H](O)C[NH+]1C(=O)C[N-]C(=O)c1ccc2cc(F)ccc2n1)c1ccccc1 (protonated)
C[C@@H]([N-]C(=O)[C@@H]1C[C@@H](O)C[N+]1=C(O)C[N-]C(=O)c1ccc2cc(F)ccc2n1)c1ccccc1 (tautomer)
C[C@@H]([N-]C(=O)[C@@H]1C[C@@H](O)C/[N+]1=C(/O)C[N-]C(=O)c1ccc2cc(F)ccc2n1)c1ccccc1 (cis-trans isomerization)
C[C@@H]([N-]C(=O)[C@@H]1C[C@@H](O)C/[N+]1=C(/O)C[N-]C(=O)c1ccc2cc(F)ccc2n1)c1ccccc1 (3D coordinates assigned)
C[C@@H]([N-]C(=O)[C@@H]1C[C@@H](O)C/[N+]1=C(/O)C[N-]C(=O)c1ccc2cc(F)ccc2n1)c1ccccc1 (nonaromatic ring conformer: 64.12887411175834 kcal/mol)

>  <smiles>  (72) 
C[C@@H](NC(=O)[C@@H]1C[C@@H](O)CN1C(=O)CNC(=O)c1ccc2cc(F)ccc2n1)c1ccccc1

>  <score_type>  (72) 
oracle

>  <origin>  (72) 
autodockgpu

>  <m_score__min__energy>  (72) 
-8.9499999999999993

>  <m_primary>  (72) 
energy

>  <meeko>  (72) 
{"free_energy": -8.5, "intermolecular_energy": -11.78, "internal_energy": -2.8, "cluster_size": 14, "cluster_id": 1, "rank_in_cluster": 4}

>  <energy>  (72) 
-7.33

>  <cluster_rmsd>  (72) 
0.98

>  <rmsd>  (72) 
272.54

>  <cluster>  (72) 
1

$$$$
DWYNEBQVPRLYJI-KZHXFCNENA-M
     RDKit          3D

 58 61  0  0  0  0  0  0  0  0999 V2000
  139.5620   72.8300  220.3500 H   0  0  0  0  0  0  0  0  0  0  0  0
  140.0700   73.4440  219.7400 O   0  0  0  0  0  0  0  0  0  0  0  0
  141.4360   73.7140  219.8810 C   0  0  0  0  0  0  0  0  0  0  0  0
  141.9770   74.8030  219.3780 N   0  0  0  0  0  0  0  0  0  0  0  0
  142.3020   74.9720  217.9580 C   0  0  0  0  0  0  0  0  0  0  0  0
  141.3910   74.8964  217.3461 H   0  0  0  0  0  0  0  0  0  0  0  0
  142.9959   74.1932  217.6089 H   0  0  0  0  0  0  0  0  0  0  0  0
  142.9150   76.3660  217.8270 C   0  0  2  0  0  0  0  0  0  0  0  0
  142.2039   77.0960  217.4128 H   0  0  0  0  0  0  0  0  0  0  0  0
  144.0060   76.3490  216.9380 O   0  0  0  0  0  0  0  0  0  0  0  0
  144.7810   76.0150  217.4470 H   0  0  0  0  0  0  0  0  0  0  0  0
  143.3420   76.7550  219.2460 C   0  0  0  0  0  0  0  0  0  0  0  0
  143.1885   77.8314  219.4129 H   0  0  0  0  0  0  0  0  0  0  0  0
  144.4090   76.5540  219.4222 H   0  0  0  0  0  0  0  0  0  0  0  0
  142.4460   75.9350  220.1780 C   0  0  1  0  0  0  0  0  0  0  0  0
  142.9909   75.5950  221.0710 H   0  0  0  0  0  0  0  0  0  0  0  0
  141.2960   76.7620  220.6840 C   0  0  0  0  0  0  0  0  0  0  0  0
  140.8160   76.5570  221.8310 O   0  0  0  0  0  0  0  0  0  0  0  0
  140.7190   77.7480  219.8230 N   0  0  0  0  0  0  0  0  0  0  0  0
  140.8420   79.1850  220.0450 C   0  0  1  0  0  0  0  0  0  0  0  0
  139.8682   79.6665  219.8723 H   0  0  0  0  0  0  0  0  0  0  0  0
  141.2580   79.4590  221.4770 C   0  0  0  0  0  0  0  0  0  0  0  0
  142.5560   79.9100  221.7720 C   0  0  0  0  0  0  0  0  0  0  0  0
  143.2763   80.0784  220.9579 H   0  0  0  0  0  0  0  0  0  0  0  0
  142.9340   80.1450  223.0960 C   0  0  0  0  0  0  0  0  0  0  0  0
  143.9521   80.4959  223.3205 H   0  0  0  0  0  0  0  0  0  0  0  0
  142.0230   79.9360  224.1390 C   0  0  0  0  0  0  0  0  0  0  0  0
  142.3279   80.1153  225.1806 H   0  0  0  0  0  0  0  0  0  0  0  0
  140.7310   79.5010  223.8560 C   0  0  0  0  0  0  0  0  0  0  0  0
  140.0123   79.3429  224.6736 H   0  0  0  0  0  0  0  0  0  0  0  0
  140.3470   79.2650  222.5310 C   0  0  0  0  0  0  0  0  0  0  0  0
  139.3241   78.9249  222.3120 H   0  0  0  0  0  0  0  0  0  0  0  0
  141.8630   79.7660  219.0660 C   0  0  0  0  0  0  0  0  0  0  0  0
  142.6849   80.2337  219.6280 H   0  0  0  0  0  0  0  0  0  0  0  0
  142.2635   78.9605  218.4329 H   0  0  0  0  0  0  0  0  0  0  0  0
  141.3751   80.5217  218.4329 H   0  0  0  0  0  0  0  0  0  0  0  0
  142.2330   72.7470  220.7180 C   0  0  0  0  0  0  0  0  0  0  0  0
  142.8974   72.1570  220.0696 H   0  0  0  0  0  0  0  0  0  0  0  0
  142.8428   73.2990  221.4484 H   0  0  0  0  0  0  0  0  0  0  0  0
  141.3100   71.8570  221.4140 N   0  0  0  0  0  0  0  0  0  0  0  0
  140.4260   72.3250  222.4400 C   0  0  0  0  0  0  0  0  0  0  0  0
  139.9510   73.4880  222.3840 O   0  0  0  0  0  0  0  0  0  0  0  0
  140.1280   71.4740  223.6040 C   0  0  0  0  0  0  0  0  0  0  0  0
  140.6410   71.8060  224.8260 N   0  0  0  0  0  0  0  0  0  0  0  0
  140.5170   70.9940  225.9110 C   0  0  0  0  0  0  0  0  0  0  0  0
  141.0830   71.3630  227.1360 C   0  0  0  0  0  0  0  0  0  0  0  0
  141.5832   72.3372  227.2392 H   0  0  0  0  0  0  0  0  0  0  0  0
  141.0130   70.4920  228.2320 C   0  0  0  0  0  0  0  0  0  0  0  0
  141.4662   70.7823  229.1913 H   0  0  0  0  0  0  0  0  0  0  0  0
  140.3690   69.2540  228.1120 C   0  0  0  0  0  0  0  0  0  0  0  0
  140.3350   68.4010  229.1630 F   0  0  0  0  0  0  0  0  0  0  0  0
  139.7770   68.8870  226.9000 C   0  0  0  0  0  0  0  0  0  0  0  0
  139.2547   67.9229  226.8119 H   0  0  0  0  0  0  0  0  0  0  0  0
  139.8500   69.7530  225.7920 C   0  0  0  0  0  0  0  0  0  0  0  0
  139.2910   69.4050  224.5590 C   0  0  0  0  0  0  0  0  0  0  0  0
  138.7454   68.4560  224.4505 H   0  0  0  0  0  0  0  0  0  0  0  0
  139.4260   70.2670  223.4590 C   0  0  0  0  0  0  0  0  0  0  0  0
  138.9839   69.9979  222.4884 H   0  0  0  0  0  0  0  0  0  0  0  0
  1  2  1  0
  2  3  1  0
  3  4  2  0
  4  5  1  0
  5  6  1  0
  5  7  1  0
  5  8  1  0
  8  9  1  6
  8 10  1  0
 10 11  1  0
  8 12  1  0
 12 13  1  0
 12 14  1  0
 12 15  1  0
 15 16  1  1
 15 17  1  0
 17 18  2  0
 17 19  1  0
 19 20  1  0
 20 21  1  6
 20 22  1  0
 22 23  2  0
 23 24  1  0
 23 25  1  0
 25 26  1  0
 25 27  2  0
 27 28  1  0
 27 29  1  0
 29 30  1  0
 29 31  2  0
 31 32  1  0
 20 33  1  0
 33 34  1  0
 33 35  1  0
 33 36  1  0
  3 37  1  0
 37 38  1  0
 37 39  1  0
 37 40  1  0
 40 41  1  0
 41 42  2  0
 41 43  1  0
 43 44  2  0
 44 45  1  0
 45 46  2  0
 46 47  1  0
 46 48  1  0
 48 49  1  0
 48 50  2  0
 50 51  1  0
 50 52  1  0
 52 53  1  0
 52 54  2  0
 54 55  1  0
 55 56  1  0
 55 57  2  0
 57 58  1  0
 15  4  1  0
 31 22  1  0
 57 43  1  0
 54 45  1  0
M  CHG  3   4   1  19  -1  40  -1
M  END
>  <UniqueID>  (73) 
87

>  <SMILES>  (73) 
C[C@@H]([N-]C(=O)[C@@H]1C[C@@H](O)C/[N+]1=C(/O)C[N-]C(=O)c1ccc2cc(F)ccc2n1)c1ccccc1

>  <Energy>  (73) 
64.12887411175834

>  <Genealogy>  (73) 
C[C@@H]([N-]C(=O)[C@@H]1C[C@@H](O)C[NH+]1C(=O)C[N-]C(=O)c1ccc2cc(F)ccc2n1)c1ccccc1 (protonated)
C[C@@H]([N-]C(=O)[C@@H]1C[C@@H](O)C[N+]1=C(O)C[N-]C(=O)c1ccc2cc(F)ccc2n1)c1ccccc1 (tautomer)
C[C@@H]([N-]C(=O)[C@@H]1C[C@@H](O)C/[N+]1=C(/O)C[N-]C(=O)c1ccc2cc(F)ccc2n1)c1ccccc1 (cis-trans isomerization)
C[C@@H]([N-]C(=O)[C@@H]1C[C@@H](O)C/[N+]1=C(/O)C[N-]C(=O)c1ccc2cc(F)ccc2n1)c1ccccc1 (3D coordinates assigned)
C[C@@H]([N-]C(=O)[C@@H]1C[C@@H](O)C/[N+]1=C(/O)C[N-]C(=O)c1ccc2cc(F)ccc2n1)c1ccccc1 (nonaromatic ring conformer: 64.12887411175834 kcal/mol)

>  <smiles>  (73) 
C[C@@H](NC(=O)[C@@H]1C[C@@H](O)CN1C(=O)CNC(=O)c1ccc2cc(F)ccc2n1)c1ccccc1

>  <score_type>  (73) 
oracle

>  <origin>  (73) 
autodockgpu

>  <m_score__min__energy>  (73) 
-8.9499999999999993

>  <m_primary>  (73) 
energy

>  <meeko>  (73) 
{"free_energy": -7.6, "intermolecular_energy": -10.89, "internal_energy": -3.15, "cluster_size": 14, "cluster_id": 1, "rank_in_cluster": 9}

>  <energy>  (73) 
-7.27

>  <cluster_rmsd>  (73) 
1.67

>  <rmsd>  (73) 
272.43

>  <cluster>  (73) 
1

$$$$
DWYNEBQVPRLYJI-KZHXFCNENA-M
     RDKit          3D

 58 61  0  0  0  0  0  0  0  0999 V2000
  140.6870   74.4420  222.2820 H   0  0  0  0  0  0  0  0  0  0  0  0
  139.9510   75.1240  222.2430 O   0  0  0  0  0  0  0  0  0  0  0  0
  138.6400   74.8210  221.8620 C   0  0  0  0  0  0  0  0  0  0  0  0
  137.6430   75.6430  222.1140 N   0  0  0  0  0  0  0  0  0  0  0  0
  136.5770   75.3630  223.0810 C   0  0  0  0  0  0  0  0  0  0  0  0
  136.9991   75.2401  224.0893 H   0  0  0  0  0  0  0  0  0  0  0  0
  136.0443   74.4331  222.8331 H   0  0  0  0  0  0  0  0  0  0  0  0
  135.6400   76.5700  223.0420 C   0  0  2  0  0  0  0  0  0  0  0  0
  135.7901   77.2423  223.8996 H   0  0  0  0  0  0  0  0  0  0  0  0
  134.2960   76.1590  223.1100 O   0  0  0  0  0  0  0  0  0  0  0  0
  134.1960   75.4100  222.4760 H   0  0  0  0  0  0  0  0  0  0  0  0
  135.9530   77.2810  221.7210 C   0  0  0  0  0  0  0  0  0  0  0  0
  135.8747   78.3714  221.8427 H   0  0  0  0  0  0  0  0  0  0  0  0
  135.2475   76.9972  220.9262 H   0  0  0  0  0  0  0  0  0  0  0  0
  137.3910   76.8820  221.3760 C   0  0  1  0  0  0  0  0  0  0  0  0
  137.5253   76.7372  220.2939 H   0  0  0  0  0  0  0  0  0  0  0  0
  138.3590   77.9630  221.7720 C   0  0  0  0  0  0  0  0  0  0  0  0
  139.0800   78.5260  220.9050 O   0  0  0  0  0  0  0  0  0  0  0  0
  138.4890   78.3050  223.1550 N   0  0  0  0  0  0  0  0  0  0  0  0
  138.8440   79.6390  223.6270 C   0  0  1  0  0  0  0  0  0  0  0  0
  138.6111   79.7228  224.6988 H   0  0  0  0  0  0  0  0  0  0  0  0
  140.3300   79.8790  223.4450 C   0  0  0  0  0  0  0  0  0  0  0  0
  141.2110   78.8020  223.2500 C   0  0  0  0  0  0  0  0  0  0  0  0
  140.8214   77.7739  223.2169 H   0  0  0  0  0  0  0  0  0  0  0  0
  142.5800   79.0330  223.0980 C   0  0  0  0  0  0  0  0  0  0  0  0
  143.2648   78.1854  222.9478 H   0  0  0  0  0  0  0  0  0  0  0  0
  143.0850   80.3390  223.1360 C   0  0  0  0  0  0  0  0  0  0  0  0
  144.1649   80.5153  223.0229 H   0  0  0  0  0  0  0  0  0  0  0  0
  142.2190   81.4130  223.3170 C   0  0  0  0  0  0  0  0  0  0  0  0
  142.6137   82.4395  223.3406 H   0  0  0  0  0  0  0  0  0  0  0  0
  140.8470   81.1880  223.4690 C   0  0  0  0  0  0  0  0  0  0  0  0
  140.1664   82.0409  223.6084 H   0  0  0  0  0  0  0  0  0  0  0  0
  138.0310   80.6830  222.8580 C   0  0  0  0  0  0  0  0  0  0  0  0
  137.5161   81.3443  223.5704 H   0  0  0  0  0  0  0  0  0  0  0  0
  138.7049   81.2794  222.2254 H   0  0  0  0  0  0  0  0  0  0  0  0
  137.2877   80.1757  222.2254 H   0  0  0  0  0  0  0  0  0  0  0  0
  138.4420   73.5560  221.0660 C   0  0  0  0  0  0  0  0  0  0  0  0
  137.4428   73.5608  220.6060 H   0  0  0  0  0  0  0  0  0  0  0  0
  139.2009   73.4903  220.2724 H   0  0  0  0  0  0  0  0  0  0  0  0
  138.5630   72.4130  221.9650 N   0  0  0  0  0  0  0  0  0  0  0  0
  139.7060   72.2230  222.8080 C   0  0  0  0  0  0  0  0  0  0  0  0
  140.7810   72.8280  222.5640 O   0  0  0  0  0  0  0  0  0  0  0  0
  139.6530   71.2580  223.9190 C   0  0  0  0  0  0  0  0  0  0  0  0
  140.2510   71.5680  225.1070 N   0  0  0  0  0  0  0  0  0  0  0  0
  140.3550   70.6710  226.1250 C   0  0  0  0  0  0  0  0  0  0  0  0
  141.0020   71.0260  227.3140 C   0  0  0  0  0  0  0  0  0  0  0  0
  141.3812   72.0497  227.4492 H   0  0  0  0  0  0  0  0  0  0  0  0
  141.1670   70.0770  228.3330 C   0  0  0  0  0  0  0  0  0  0  0  0
  141.6829   70.3569  229.2633 H   0  0  0  0  0  0  0  0  0  0  0  0
  140.6780   68.7740  228.1720 C   0  0  0  0  0  0  0  0  0  0  0  0
  140.8720   67.8520  229.1430 F   0  0  0  0  0  0  0  0  0  0  0  0
  140.0080   68.4180  226.9980 C   0  0  0  0  0  0  0  0  0  0  0  0
  139.6085   67.4000  226.8793 H   0  0  0  0  0  0  0  0  0  0  0  0
  139.8450   69.3630  225.9680 C   0  0  0  0  0  0  0  0  0  0  0  0
  139.2010   69.0310  224.7710 C   0  0  0  0  0  0  0  0  0  0  0  0
  138.7739   68.0263  224.6365 H   0  0  0  0  0  0  0  0  0  0  0  0
  139.1000   69.9800  223.7420 C   0  0  0  0  0  0  0  0  0  0  0  0
  138.5901   69.7237  222.8016 H   0  0  0  0  0  0  0  0  0  0  0  0
  1  2  1  0
  2  3  1  0
  3  4  2  0
  4  5  1  0
  5  6  1  0
  5  7  1  0
  5  8  1  0
  8  9  1  1
  8 10  1  0
 10 11  1  0
  8 12  1  0
 12 13  1  0
 12 14  1  0
 12 15  1  0
 15 16  1  6
 15 17  1  0
 17 18  2  0
 17 19  1  0
 19 20  1  0
 20 21  1  1
 20 22  1  0
 22 23  2  0
 23 24  1  0
 23 25  1  0
 25 26  1  0
 25 27  2  0
 27 28  1  0
 27 29  1  0
 29 30  1  0
 29 31  2  0
 31 32  1  0
 20 33  1  0
 33 34  1  0
 33 35  1  0
 33 36  1  0
  3 37  1  0
 37 38  1  0
 37 39  1  0
 37 40  1  0
 40 41  1  0
 41 42  2  0
 41 43  1  0
 43 44  2  0
 44 45  1  0
 45 46  2  0
 46 47  1  0
 46 48  1  0
 48 49  1  0
 48 50  2  0
 50 51  1  0
 50 52  1  0
 52 53  1  0
 52 54  2  0
 54 55  1  0
 55 56  1  0
 55 57  2  0
 57 58  1  0
 15  4  1  0
 31 22  1  0
 57 43  1  0
 54 45  1  0
M  CHG  3   4   1  19  -1  40  -1
M  END
>  <UniqueID>  (74) 
87

>  <SMILES>  (74) 
C[C@@H]([N-]C(=O)[C@@H]1C[C@@H](O)C/[N+]1=C(/O)C[N-]C(=O)c1ccc2cc(F)ccc2n1)c1ccccc1

>  <Energy>  (74) 
64.12887411175834

>  <Genealogy>  (74) 
C[C@@H]([N-]C(=O)[C@@H]1C[C@@H](O)C[NH+]1C(=O)C[N-]C(=O)c1ccc2cc(F)ccc2n1)c1ccccc1 (protonated)
C[C@@H]([N-]C(=O)[C@@H]1C[C@@H](O)C[N+]1=C(O)C[N-]C(=O)c1ccc2cc(F)ccc2n1)c1ccccc1 (tautomer)
C[C@@H]([N-]C(=O)[C@@H]1C[C@@H](O)C/[N+]1=C(/O)C[N-]C(=O)c1ccc2cc(F)ccc2n1)c1ccccc1 (cis-trans isomerization)
C[C@@H]([N-]C(=O)[C@@H]1C[C@@H](O)C/[N+]1=C(/O)C[N-]C(=O)c1ccc2cc(F)ccc2n1)c1ccccc1 (3D coordinates assigned)
C[C@@H]([N-]C(=O)[C@@H]1C[C@@H](O)C/[N+]1=C(/O)C[N-]C(=O)c1ccc2cc(F)ccc2n1)c1ccccc1 (nonaromatic ring conformer: 64.12887411175834 kcal/mol)

>  <smiles>  (74) 
C[C@@H](NC(=O)[C@@H]1C[C@@H](O)CN1C(=O)CNC(=O)c1ccc2cc(F)ccc2n1)c1ccccc1

>  <score_type>  (74) 
oracle

>  <origin>  (74) 
autodockgpu

>  <m_score__min__energy>  (74) 
-8.9499999999999993

>  <m_primary>  (74) 
energy

>  <meeko>  (74) 
{"free_energy": -7.23, "intermolecular_energy": -10.51, "internal_energy": -2.6, "cluster_size": 14, "cluster_id": 1, "rank_in_cluster": 14}

>  <energy>  (74) 
-7.23

>  <cluster_rmsd>  (74) 
1.98

>  <rmsd>  (74) 
272.42

>  <cluster>  (74) 
1

$$$$
DWYNEBQVPRLYJI-KZHXFCNENA-M
     RDKit          3D

 58 61  0  0  0  0  0  0  0  0999 V2000
  138.9970   74.1330  222.9060 H   0  0  0  0  0  0  0  0  0  0  0  0
  139.2610   74.9180  222.3390 O   0  0  0  0  0  0  0  0  0  0  0  0
  140.3500   74.9020  221.4600 C   0  0  0  0  0  0  0  0  0  0  0  0
  140.7620   75.9960  220.8550 N   0  0  0  0  0  0  0  0  0  0  0  0
  141.4400   76.0040  219.5560 C   0  0  0  0  0  0  0  0  0  0  0  0
  140.7859   75.5772  218.7814 H   0  0  0  0  0  0  0  0  0  0  0  0
  142.3586   75.3992  219.5785 H   0  0  0  0  0  0  0  0  0  0  0  0
  141.7440   77.4700  219.2450 C   0  0  2  0  0  0  0  0  0  0  0  0
  141.0430   77.8946  218.5114 H   0  0  0  0  0  0  0  0  0  0  0  0
  143.0220   77.6030  218.6710 O   0  0  0  0  0  0  0  0  0  0  0  0
  143.6440   77.7990  219.4100 H   0  0  0  0  0  0  0  0  0  0  0  0
  141.6430   78.1970  220.5900 C   0  0  0  0  0  0  0  0  0  0  0  0
  141.2156   79.2013  220.4536 H   0  0  0  0  0  0  0  0  0  0  0  0
  142.6294   78.3308  221.0580 H   0  0  0  0  0  0  0  0  0  0  0  0
  140.7170   77.3330  221.4500 C   0  0  1  0  0  0  0  0  0  0  0  0
  141.0386   77.3137  222.5018 H   0  0  0  0  0  0  0  0  0  0  0  0
  139.3180   77.8840  221.4560 C   0  0  0  0  0  0  0  0  0  0  0  0
  138.7450   78.1890  220.3750 O   0  0  0  0  0  0  0  0  0  0  0  0
  138.6670   78.1110  222.7100 N   0  0  0  0  0  0  0  0  0  0  0  0
  138.8150   79.3380  223.4860 C   0  0  1  0  0  0  0  0  0  0  0  0
  138.6226   79.1253  224.5479 H   0  0  0  0  0  0  0  0  0  0  0  0
  140.2300   79.8700  223.3580 C   0  0  0  0  0  0  0  0  0  0  0  0
  141.3080   79.1810  223.9380 C   0  0  0  0  0  0  0  0  0  0  0  0
  141.1301   78.2410  224.4809 H   0  0  0  0  0  0  0  0  0  0  0  0
  142.6060   79.6870  223.8270 C   0  0  0  0  0  0  0  0  0  0  0  0
  143.4460   79.1451  224.2860 H   0  0  0  0  0  0  0  0  0  0  0  0
  142.8420   80.8810  223.1340 C   0  0  0  0  0  0  0  0  0  0  0  0
  143.8645   81.2786  223.0544 H   0  0  0  0  0  0  0  0  0  0  0  0
  141.7810   81.5640  222.5460 C   0  0  0  0  0  0  0  0  0  0  0  0
  141.9656   82.4993  221.9972 H   0  0  0  0  0  0  0  0  0  0  0  0
  140.4800   81.0610  222.6530 C   0  0  0  0  0  0  0  0  0  0  0  0
  139.6457   81.6014  222.1819 H   0  0  0  0  0  0  0  0  0  0  0  0
  137.8030   80.3750  222.9950 C   0  0  0  0  0  0  0  0  0  0  0  0
  137.3280   80.8617  223.8596 H   0  0  0  0  0  0  0  0  0  0  0  0
  138.3195   81.1317  222.3862 H   0  0  0  0  0  0  0  0  0  0  0  0
  137.0339   79.8771  222.3862 H   0  0  0  0  0  0  0  0  0  0  0  0
  141.0830   73.5930  221.3160 C   0  0  0  0  0  0  0  0  0  0  0  0
  140.6818   73.0372  220.4557 H   0  0  0  0  0  0  0  0  0  0  0  0
  142.1546   73.7803  221.1533 H   0  0  0  0  0  0  0  0  0  0  0  0
  140.8950   72.8130  222.5350 N   0  0  0  0  0  0  0  0  0  0  0  0
  139.7240   72.0210  222.7620 C   0  0  0  0  0  0  0  0  0  0  0  0
  138.7050   72.1760  222.0410 O   0  0  0  0  0  0  0  0  0  0  0  0
  139.6780   71.0750  223.8890 C   0  0  0  0  0  0  0  0  0  0  0  0
  140.2670   71.4140  225.0740 N   0  0  0  0  0  0  0  0  0  0  0  0
  140.3780   70.5360  226.1080 C   0  0  0  0  0  0  0  0  0  0  0  0
  141.0160   70.9200  227.2930 C   0  0  0  0  0  0  0  0  0  0  0  0
  141.3824   71.9504  227.4116 H   0  0  0  0  0  0  0  0  0  0  0  0
  141.1880   69.9910  228.3290 C   0  0  0  0  0  0  0  0  0  0  0  0
  141.6955   70.2939  229.2567 H   0  0  0  0  0  0  0  0  0  0  0  0
  140.7170   68.6790  228.1890 C   0  0  0  0  0  0  0  0  0  0  0  0
  140.9190   67.7760  229.1770 F   0  0  0  0  0  0  0  0  0  0  0  0
  140.0560   68.2940  227.0200 C   0  0  0  0  0  0  0  0  0  0  0  0
  139.6693   67.2692  226.9186 H   0  0  0  0  0  0  0  0  0  0  0  0
  139.8850   69.2180  225.9720 C   0  0  0  0  0  0  0  0  0  0  0  0
  139.2510   68.8570  224.7790 C   0  0  0  0  0  0  0  0  0  0  0  0
  138.8376   67.8446  224.6605 H   0  0  0  0  0  0  0  0  0  0  0  0
  139.1420   69.7870  223.7320 C   0  0  0  0  0  0  0  0  0  0  0  0
  138.6394   69.5077  222.7942 H   0  0  0  0  0  0  0  0  0  0  0  0
  1  2  1  0
  2  3  1  0
  3  4  2  0
  4  5  1  0
  5  6  1  0
  5  7  1  0
  5  8  1  0
  8  9  1  6
  8 10  1  0
 10 11  1  0
  8 12  1  0
 12 13  1  0
 12 14  1  0
 12 15  1  0
 15 16  1  1
 15 17  1  0
 17 18  2  0
 17 19  1  0
 19 20  1  0
 20 21  1  1
 20 22  1  0
 22 23  2  0
 23 24  1  0
 23 25  1  0
 25 26  1  0
 25 27  2  0
 27 28  1  0
 27 29  1  0
 29 30  1  0
 29 31  2  0
 31 32  1  0
 20 33  1  0
 33 34  1  0
 33 35  1  0
 33 36  1  0
  3 37  1  0
 37 38  1  0
 37 39  1  0
 37 40  1  0
 40 41  1  0
 41 42  2  0
 41 43  1  0
 43 44  2  0
 44 45  1  0
 45 46  2  0
 46 47  1  0
 46 48  1  0
 48 49  1  0
 48 50  2  0
 50 51  1  0
 50 52  1  0
 52 53  1  0
 52 54  2  0
 54 55  1  0
 55 56  1  0
 55 57  2  0
 57 58  1  0
 15  4  1  0
 31 22  1  0
 57 43  1  0
 54 45  1  0
M  CHG  3   4   1  19  -1  40  -1
M  END
>  <UniqueID>  (75) 
87

>  <SMILES>  (75) 
C[C@@H]([N-]C(=O)[C@@H]1C[C@@H](O)C/[N+]1=C(/O)C[N-]C(=O)c1ccc2cc(F)ccc2n1)c1ccccc1

>  <Energy>  (75) 
64.12887411175834

>  <Genealogy>  (75) 
C[C@@H]([N-]C(=O)[C@@H]1C[C@@H](O)C[NH+]1C(=O)C[N-]C(=O)c1ccc2cc(F)ccc2n1)c1ccccc1 (protonated)
C[C@@H]([N-]C(=O)[C@@H]1C[C@@H](O)C[N+]1=C(O)C[N-]C(=O)c1ccc2cc(F)ccc2n1)c1ccccc1 (tautomer)
C[C@@H]([N-]C(=O)[C@@H]1C[C@@H](O)C/[N+]1=C(/O)C[N-]C(=O)c1ccc2cc(F)ccc2n1)c1ccccc1 (cis-trans isomerization)
C[C@@H]([N-]C(=O)[C@@H]1C[C@@H](O)C/[N+]1=C(/O)C[N-]C(=O)c1ccc2cc(F)ccc2n1)c1ccccc1 (3D coordinates assigned)
C[C@@H]([N-]C(=O)[C@@H]1C[C@@H](O)C/[N+]1=C(/O)C[N-]C(=O)c1ccc2cc(F)ccc2n1)c1ccccc1 (nonaromatic ring conformer: 64.12887411175834 kcal/mol)

>  <smiles>  (75) 
C[C@@H](NC(=O)[C@@H]1C[C@@H](O)CN1C(=O)CNC(=O)c1ccc2cc(F)ccc2n1)c1ccccc1

>  <score_type>  (75) 
oracle

>  <origin>  (75) 
autodockgpu

>  <m_score__min__energy>  (75) 
-8.9499999999999993

>  <m_primary>  (75) 
energy

>  <meeko>  (75) 
{"free_energy": -8.92, "intermolecular_energy": -12.2, "internal_energy": -2.97, "cluster_size": 14, "cluster_id": 1, "rank_in_cluster": 2}

>  <energy>  (75) 
-8.1

>  <cluster_rmsd>  (75) 
0.0

>  <rmsd>  (75) 
272.27

>  <cluster>  (75) 
2

$$$$
DWYNEBQVPRLYJI-KZHXFCNENA-M
     RDKit          3D

 58 61  0  0  0  0  0  0  0  0999 V2000
  139.3110   74.1520  222.8890 H   0  0  0  0  0  0  0  0  0  0  0  0
  140.1130   74.2850  222.3000 O   0  0  0  0  0  0  0  0  0  0  0  0
  140.1020   75.0830  221.1520 C   0  0  0  0  0  0  0  0  0  0  0  0
  141.1980   75.3030  220.4560 N   0  0  0  0  0  0  0  0  0  0  0  0
  142.0760   74.2410  219.9580 C   0  0  0  0  0  0  0  0  0  0  0  0
  141.5259   73.5826  219.2696 H   0  0  0  0  0  0  0  0  0  0  0  0
  142.4537   73.6143  220.7793 H   0  0  0  0  0  0  0  0  0  0  0  0
  143.2170   74.9430  219.2220 C   0  0  2  0  0  0  0  0  0  0  0  0
  143.0955   74.9017  218.1295 H   0  0  0  0  0  0  0  0  0  0  0  0
  144.4470   74.3140  219.4930 O   0  0  0  0  0  0  0  0  0  0  0  0
  145.0840   74.6320  218.8110 H   0  0  0  0  0  0  0  0  0  0  0  0
  143.1930   76.3900  219.7270 C   0  0  0  0  0  0  0  0  0  0  0  0
  143.4556   77.0852  218.9160 H   0  0  0  0  0  0  0  0  0  0  0  0
  143.9207   76.5537  220.5355 H   0  0  0  0  0  0  0  0  0  0  0  0
  141.7560   76.6320  220.1960 C   0  0  1  0  0  0  0  0  0  0  0  0
  141.7221   77.2630  221.0964 H   0  0  0  0  0  0  0  0  0  0  0  0
  140.9640   77.3640  219.1480 C   0  0  0  0  0  0  0  0  0  0  0  0
  140.8700   76.9040  217.9780 O   0  0  0  0  0  0  0  0  0  0  0  0
  140.3660   78.6200  219.4820 N   0  0  0  0  0  0  0  0  0  0  0  0
  140.7900   79.8940  218.9090 C   0  0  1  0  0  0  0  0  0  0  0  0
  140.2672   80.0583  217.9552 H   0  0  0  0  0  0  0  0  0  0  0  0
  140.4350   81.0320  219.8450 C   0  0  0  0  0  0  0  0  0  0  0  0
  139.0950   81.2940  220.1780 C   0  0  0  0  0  0  0  0  0  0  0  0
  138.2938   80.6626  219.7664 H   0  0  0  0  0  0  0  0  0  0  0  0
  138.7780   82.3550  221.0310 C   0  0  0  0  0  0  0  0  0  0  0  0
  137.7273   82.5570  221.2864 H   0  0  0  0  0  0  0  0  0  0  0  0
  139.7920   83.1620  221.5620 C   0  0  0  0  0  0  0  0  0  0  0  0
  139.5369   84.0006  222.2266 H   0  0  0  0  0  0  0  0  0  0  0  0
  141.1230   82.9020  221.2480 C   0  0  0  0  0  0  0  0  0  0  0  0
  141.9207   83.5306  221.6704 H   0  0  0  0  0  0  0  0  0  0  0  0
  141.4460   81.8410  220.3950 C   0  0  0  0  0  0  0  0  0  0  0  0
  142.4995   81.6377  220.1524 H   0  0  0  0  0  0  0  0  0  0  0  0
  142.2970   79.8590  218.6490 C   0  0  0  0  0  0  0  0  0  0  0  0
  142.8345   79.8465  219.6087 H   0  0  0  0  0  0  0  0  0  0  0  0
  142.5493   78.9548  218.0757 H   0  0  0  0  0  0  0  0  0  0  0  0
  142.5910   80.7506  218.0757 H   0  0  0  0  0  0  0  0  0  0  0  0
  138.7600   75.5980  220.6990 C   0  0  0  0  0  0  0  0  0  0  0  0
  138.8437   76.6610  220.4289 H   0  0  0  0  0  0  0  0  0  0  0  0
  138.4188   75.0310  219.8203 H   0  0  0  0  0  0  0  0  0  0  0  0
  137.8050   75.4430  221.7910 N   0  0  0  0  0  0  0  0  0  0  0  0
  137.3090   76.5610  222.5360 C   0  0  0  0  0  0  0  0  0  0  0  0
  136.1230   76.5660  222.9560 O   0  0  0  0  0  0  0  0  0  0  0  0
  138.1590   77.7440  222.7480 C   0  0  0  0  0  0  0  0  0  0  0  0
  139.5170   77.6100  222.7110 N   0  0  0  0  0  0  0  0  0  0  0  0
  140.3580   78.6310  223.0310 C   0  0  0  0  0  0  0  0  0  0  0  0
  141.7430   78.4380  223.0050 C   0  0  0  0  0  0  0  0  0  0  0  0
  142.1578   77.4748  222.6730 H   0  0  0  0  0  0  0  0  0  0  0  0
  142.6030   79.4720  223.4020 C   0  0  0  0  0  0  0  0  0  0  0  0
  143.6915   79.3140  223.3882 H   0  0  0  0  0  0  0  0  0  0  0  0
  142.0830   80.7050  223.8160 C   0  0  0  0  0  0  0  0  0  0  0  0
  142.9160   81.6880  224.2320 F   0  0  0  0  0  0  0  0  0  0  0  0
  140.7010   80.9170  223.8200 C   0  0  0  0  0  0  0  0  0  0  0  0
  140.2941   81.8916  224.1274 H   0  0  0  0  0  0  0  0  0  0  0  0
  139.8310   79.8810  223.4300 C   0  0  0  0  0  0  0  0  0  0  0  0
  138.4430   80.0510  223.4470 C   0  0  0  0  0  0  0  0  0  0  0  0
  138.0117   81.0225  223.7302 H   0  0  0  0  0  0  0  0  0  0  0  0
  137.6000   78.9830  223.1030 C   0  0  0  0  0  0  0  0  0  0  0  0
  136.5080   79.1153  223.1113 H   0  0  0  0  0  0  0  0  0  0  0  0
  1  2  1  0
  2  3  1  0
  3  4  2  0
  4  5  1  0
  5  6  1  0
  5  7  1  0
  5  8  1  0
  8  9  1  6
  8 10  1  0
 10 11  1  0
  8 12  1  0
 12 13  1  0
 12 14  1  0
 12 15  1  0
 15 16  1  1
 15 17  1  0
 17 18  2  0
 17 19  1  0
 19 20  1  0
 20 21  1  6
 20 22  1  0
 22 23  2  0
 23 24  1  0
 23 25  1  0
 25 26  1  0
 25 27  2  0
 27 28  1  0
 27 29  1  0
 29 30  1  0
 29 31  2  0
 31 32  1  0
 20 33  1  0
 33 34  1  0
 33 35  1  0
 33 36  1  0
  3 37  1  0
 37 38  1  0
 37 39  1  0
 37 40  1  0
 40 41  1  0
 41 42  2  0
 41 43  1  0
 43 44  2  0
 44 45  1  0
 45 46  2  0
 46 47  1  0
 46 48  1  0
 48 49  1  0
 48 50  2  0
 50 51  1  0
 50 52  1  0
 52 53  1  0
 52 54  2  0
 54 55  1  0
 55 56  1  0
 55 57  2  0
 57 58  1  0
 15  4  1  0
 31 22  1  0
 57 43  1  0
 54 45  1  0
M  CHG  3   4   1  19  -1  40  -1
M  END
>  <UniqueID>  (76) 
87

>  <SMILES>  (76) 
C[C@@H]([N-]C(=O)[C@@H]1C[C@@H](O)C/[N+]1=C(/O)C[N-]C(=O)c1ccc2cc(F)ccc2n1)c1ccccc1

>  <Energy>  (76) 
64.12887411175834

>  <Genealogy>  (76) 
C[C@@H]([N-]C(=O)[C@@H]1C[C@@H](O)C[NH+]1C(=O)C[N-]C(=O)c1ccc2cc(F)ccc2n1)c1ccccc1 (protonated)
C[C@@H]([N-]C(=O)[C@@H]1C[C@@H](O)C[N+]1=C(O)C[N-]C(=O)c1ccc2cc(F)ccc2n1)c1ccccc1 (tautomer)
C[C@@H]([N-]C(=O)[C@@H]1C[C@@H](O)C/[N+]1=C(/O)C[N-]C(=O)c1ccc2cc(F)ccc2n1)c1ccccc1 (cis-trans isomerization)
C[C@@H]([N-]C(=O)[C@@H]1C[C@@H](O)C/[N+]1=C(/O)C[N-]C(=O)c1ccc2cc(F)ccc2n1)c1ccccc1 (3D coordinates assigned)
C[C@@H]([N-]C(=O)[C@@H]1C[C@@H](O)C/[N+]1=C(/O)C[N-]C(=O)c1ccc2cc(F)ccc2n1)c1ccccc1 (nonaromatic ring conformer: 64.12887411175834 kcal/mol)

>  <smiles>  (76) 
C[C@@H](NC(=O)[C@@H]1C[C@@H](O)CN1C(=O)CNC(=O)c1ccc2cc(F)ccc2n1)c1ccccc1

>  <score_type>  (76) 
oracle

>  <origin>  (76) 
autodockgpu

>  <m_score__min__energy>  (76) 
-8.9499999999999993

>  <m_primary>  (76) 
energy

>  <meeko>  (76) 
{"free_energy": -5.63, "intermolecular_energy": -8.91, "internal_energy": -4.36, "cluster_size": 1, "cluster_id": 5, "rank_in_cluster": 1}

>  <energy>  (76) 
-8.09

>  <cluster_rmsd>  (76) 
1.34

>  <rmsd>  (76) 
272.3

>  <cluster>  (76) 
2

$$$$
DWYNEBQVPRLYJI-KZHXFCNENA-M
     RDKit          3D

 58 61  0  0  0  0  0  0  0  0999 V2000
  138.5690   72.8250  220.7820 H   0  0  0  0  0  0  0  0  0  0  0  0
  138.9050   73.7460  220.5710 O   0  0  0  0  0  0  0  0  0  0  0  0
  140.1880   74.1930  220.9050 C   0  0  0  0  0  0  0  0  0  0  0  0
  140.5370   75.4540  220.7580 N   0  0  0  0  0  0  0  0  0  0  0  0
  141.0110   76.0290  219.4950 C   0  0  0  0  0  0  0  0  0  0  0  0
  140.2348   75.9413  218.7205 H   0  0  0  0  0  0  0  0  0  0  0  0
  141.9038   75.5040  219.1245 H   0  0  0  0  0  0  0  0  0  0  0  0
  141.3080   77.5000  219.7840 C   0  0  2  0  0  0  0  0  0  0  0  0
  140.5163   78.1660  219.4103 H   0  0  0  0  0  0  0  0  0  0  0  0
  142.4880   77.9070  219.1330 O   0  0  0  0  0  0  0  0  0  0  0  0
  143.2040   77.8910  219.8100 H   0  0  0  0  0  0  0  0  0  0  0  0
  141.4350   77.5950  221.3080 C   0  0  0  0  0  0  0  0  0  0  0  0
  141.0230   78.5485  221.6700 H   0  0  0  0  0  0  0  0  0  0  0  0
  142.4847   77.5566  221.6345 H   0  0  0  0  0  0  0  0  0  0  0  0
  140.6240   76.4180  221.8570 C   0  0  1  0  0  0  0  0  0  0  0  0
  141.1005   75.9726  222.7428 H   0  0  0  0  0  0  0  0  0  0  0  0
  139.2600   76.8660  222.3030 C   0  0  0  0  0  0  0  0  0  0  0  0
  138.4540   76.0470  222.8210 O   0  0  0  0  0  0  0  0  0  0  0  0
  138.8690   78.2240  222.0790 N   0  0  0  0  0  0  0  0  0  0  0  0
  138.8570   79.2430  223.1240 C   0  0  1  0  0  0  0  0  0  0  0  0
  138.5709   78.7825  224.0811 H   0  0  0  0  0  0  0  0  0  0  0  0
  140.2400   79.8450  223.2820 C   0  0  0  0  0  0  0  0  0  0  0  0
  141.2240   79.1910  224.0420 C   0  0  0  0  0  0  0  0  0  0  0  0
  140.9965   78.2267  224.5198 H   0  0  0  0  0  0  0  0  0  0  0  0
  142.4900   79.7610  224.1930 C   0  0  0  0  0  0  0  0  0  0  0  0
  143.2549   79.2451  224.7919 H   0  0  0  0  0  0  0  0  0  0  0  0
  142.7900   80.9870  223.5850 C   0  0  0  0  0  0  0  0  0  0  0  0
  143.7864   81.4354  223.7121 H   0  0  0  0  0  0  0  0  0  0  0  0
  141.8260   81.6370  222.8200 C   0  0  0  0  0  0  0  0  0  0  0  0
  142.0620   82.5968  222.3373 H   0  0  0  0  0  0  0  0  0  0  0  0
  140.5560   81.0690  222.6650 C   0  0  0  0  0  0  0  0  0  0  0  0
  139.7988   81.5841  222.0556 H   0  0  0  0  0  0  0  0  0  0  0  0
  137.8350   80.3250  222.7690 C   0  0  0  0  0  0  0  0  0  0  0  0
  137.4249   80.7592  223.6927 H   0  0  0  0  0  0  0  0  0  0  0  0
  138.3256   81.1135  222.1795 H   0  0  0  0  0  0  0  0  0  0  0  0
  137.0198   79.8801  222.1795 H   0  0  0  0  0  0  0  0  0  0  0  0
  141.1160   73.1820  221.5290 C   0  0  0  0  0  0  0  0  0  0  0  0
  142.0251   73.0869  220.9170 H   0  0  0  0  0  0  0  0  0  0  0  0
  141.3986   73.5075  222.5410 H   0  0  0  0  0  0  0  0  0  0  0  0
  140.4310   71.8950  221.5940 N   0  0  0  0  0  0  0  0  0  0  0  0
  139.5210   71.5680  222.6510 C   0  0  0  0  0  0  0  0  0  0  0  0
  138.2900   71.7910  222.5190 O   0  0  0  0  0  0  0  0  0  0  0  0
  140.0300   71.0400  223.9280 C   0  0  0  0  0  0  0  0  0  0  0  0
  139.7310   69.7580  224.2910 N   0  0  0  0  0  0  0  0  0  0  0  0
  140.0540   69.2540  225.5130 C   0  0  0  0  0  0  0  0  0  0  0  0
  139.7030   67.9420  225.8500 C   0  0  0  0  0  0  0  0  0  0  0  0
  139.2121   67.2960  225.1073 H   0  0  0  0  0  0  0  0  0  0  0  0
  139.9770   67.4510  227.1340 C   0  0  0  0  0  0  0  0  0  0  0  0
  139.6917   66.4221  227.3985 H   0  0  0  0  0  0  0  0  0  0  0  0
  140.6120   68.2630  228.0820 C   0  0  0  0  0  0  0  0  0  0  0  0
  140.8420   67.7960  229.3320 F   0  0  0  0  0  0  0  0  0  0  0  0
  140.9910   69.5660  227.7460 C   0  0  0  0  0  0  0  0  0  0  0  0
  141.5061   70.1974  228.4849 H   0  0  0  0  0  0  0  0  0  0  0  0
  140.7130   70.0690  226.4620 C   0  0  0  0  0  0  0  0  0  0  0  0
  141.0550   71.3770  226.1020 C   0  0  0  0  0  0  0  0  0  0  0  0
  141.5891   72.0217  226.8155 H   0  0  0  0  0  0  0  0  0  0  0  0
  140.7170   71.8670  224.8310 C   0  0  0  0  0  0  0  0  0  0  0  0
  140.9889   72.8935  224.5438 H   0  0  0  0  0  0  0  0  0  0  0  0
  1  2  1  0
  2  3  1  0
  3  4  2  0
  4  5  1  0
  5  6  1  0
  5  7  1  0
  5  8  1  0
  8  9  1  6
  8 10  1  0
 10 11  1  0
  8 12  1  0
 12 13  1  0
 12 14  1  0
 12 15  1  0
 15 16  1  1
 15 17  1  0
 17 18  2  0
 17 19  1  0
 19 20  1  0
 20 21  1  1
 20 22  1  0
 22 23  2  0
 23 24  1  0
 23 25  1  0
 25 26  1  0
 25 27  2  0
 27 28  1  0
 27 29  1  0
 29 30  1  0
 29 31  2  0
 31 32  1  0
 20 33  1  0
 33 34  1  0
 33 35  1  0
 33 36  1  0
  3 37  1  0
 37 38  1  0
 37 39  1  0
 37 40  1  0
 40 41  1  0
 41 42  2  0
 41 43  1  0
 43 44  2  0
 44 45  1  0
 45 46  2  0
 46 47  1  0
 46 48  1  0
 48 49  1  0
 48 50  2  0
 50 51  1  0
 50 52  1  0
 52 53  1  0
 52 54  2  0
 54 55  1  0
 55 56  1  0
 55 57  2  0
 57 58  1  0
 15  4  1  0
 31 22  1  0
 57 43  1  0
 54 45  1  0
M  CHG  3   4   1  19  -1  40  -1
M  END
>  <UniqueID>  (77) 
87

>  <SMILES>  (77) 
C[C@@H]([N-]C(=O)[C@@H]1C[C@@H](O)C/[N+]1=C(/O)C[N-]C(=O)c1ccc2cc(F)ccc2n1)c1ccccc1

>  <Energy>  (77) 
64.12887411175834

>  <Genealogy>  (77) 
C[C@@H]([N-]C(=O)[C@@H]1C[C@@H](O)C[NH+]1C(=O)C[N-]C(=O)c1ccc2cc(F)ccc2n1)c1ccccc1 (protonated)
C[C@@H]([N-]C(=O)[C@@H]1C[C@@H](O)C[N+]1=C(O)C[N-]C(=O)c1ccc2cc(F)ccc2n1)c1ccccc1 (tautomer)
C[C@@H]([N-]C(=O)[C@@H]1C[C@@H](O)C/[N+]1=C(/O)C[N-]C(=O)c1ccc2cc(F)ccc2n1)c1ccccc1 (cis-trans isomerization)
C[C@@H]([N-]C(=O)[C@@H]1C[C@@H](O)C/[N+]1=C(/O)C[N-]C(=O)c1ccc2cc(F)ccc2n1)c1ccccc1 (3D coordinates assigned)
C[C@@H]([N-]C(=O)[C@@H]1C[C@@H](O)C/[N+]1=C(/O)C[N-]C(=O)c1ccc2cc(F)ccc2n1)c1ccccc1 (nonaromatic ring conformer: 64.12887411175834 kcal/mol)

>  <smiles>  (77) 
C[C@@H](NC(=O)[C@@H]1C[C@@H](O)CN1C(=O)CNC(=O)c1ccc2cc(F)ccc2n1)c1ccccc1

>  <score_type>  (77) 
oracle

>  <origin>  (77) 
autodockgpu

>  <m_score__min__energy>  (77) 
-8.9499999999999993

>  <m_primary>  (77) 
energy

>  <meeko>  (77) 
{"free_energy": -7.33, "intermolecular_energy": -10.62, "internal_energy": -3.33, "cluster_size": 14, "cluster_id": 1, "rank_in_cluster": 12}

>  <energy>  (77) 
-7.72

>  <cluster_rmsd>  (77) 
0.0

>  <rmsd>  (77) 
271.83

>  <cluster>  (77) 
3

$$$$
DWYNEBQVPRLYJI-KZHXFCNENA-M
     RDKit          3D

 58 61  0  0  0  0  0  0  0  0999 V2000
  139.4920   74.7190  220.8810 H   0  0  0  0  0  0  0  0  0  0  0  0
  139.9110   74.0930  220.2180 O   0  0  0  0  0  0  0  0  0  0  0  0
  141.2930   73.9740  220.0380 C   0  0  0  0  0  0  0  0  0  0  0  0
  141.9780   74.8700  219.3590 N   0  0  0  0  0  0  0  0  0  0  0  0
  142.3750   74.7050  217.9570 C   0  0  0  0  0  0  0  0  0  0  0  0
  141.4856   74.6018  217.3180 H   0  0  0  0  0  0  0  0  0  0  0  0
  142.9859   73.8012  217.8160 H   0  0  0  0  0  0  0  0  0  0  0  0
  143.1520   75.9680  217.5850 C   0  0  2  0  0  0  0  0  0  0  0  0
  142.5484   76.6680  216.9886 H   0  0  0  0  0  0  0  0  0  0  0  0
  144.2660   75.6500  216.7870 O   0  0  0  0  0  0  0  0  0  0  0  0
  145.0550   76.0300  217.2380 H   0  0  0  0  0  0  0  0  0  0  0  0
  143.5660   76.5960  218.9200 C   0  0  0  0  0  0  0  0  0  0  0  0
  143.5333   77.6936  218.8558 H   0  0  0  0  0  0  0  0  0  0  0  0
  144.5944   76.3235  219.1994 H   0  0  0  0  0  0  0  0  0  0  0  0
  142.5440   76.0880  219.9410 C   0  0  1  0  0  0  0  0  0  0  0  0
  143.0093   75.8849  220.9168 H   0  0  0  0  0  0  0  0  0  0  0  0
  141.4810   77.1200  220.1970 C   0  0  0  0  0  0  0  0  0  0  0  0
  141.6480   78.3160  219.8330 O   0  0  0  0  0  0  0  0  0  0  0  0
  140.3010   76.7380  220.9110 N   0  0  0  0  0  0  0  0  0  0  0  0
  140.1210   76.9490  222.3440 C   0  0  1  0  0  0  0  0  0  0  0  0
  140.7105   76.2065  222.9019 H   0  0  0  0  0  0  0  0  0  0  0  0
  140.6100   78.3310  222.7330 C   0  0  0  0  0  0  0  0  0  0  0  0
  141.8130   78.4920  223.4410 C   0  0  0  0  0  0  0  0  0  0  0  0
  142.4153   77.6107  223.7068 H   0  0  0  0  0  0  0  0  0  0  0  0
  142.2460   79.7680  223.8080 C   0  0  0  0  0  0  0  0  0  0  0  0
  143.1872   79.8875  224.3646 H   0  0  0  0  0  0  0  0  0  0  0  0
  141.4880   80.8960  223.4710 C   0  0  0  0  0  0  0  0  0  0  0  0
  141.8302   81.8982  223.7686 H   0  0  0  0  0  0  0  0  0  0  0  0
  140.3010   80.7480  222.7590 C   0  0  0  0  0  0  0  0  0  0  0  0
  139.7077   81.6338  222.4882 H   0  0  0  0  0  0  0  0  0  0  0  0
  139.8630   79.4720  222.3880 C   0  0  0  0  0  0  0  0  0  0  0  0
  138.9266   79.3601  221.8217 H   0  0  0  0  0  0  0  0  0  0  0  0
  138.6430   76.7790  222.7000 C   0  0  0  0  0  0  0  0  0  0  0  0
  138.5285   76.7658  223.7939 H   0  0  0  0  0  0  0  0  0  0  0  0
  138.0662   77.6167  222.2810 H   0  0  0  0  0  0  0  0  0  0  0  0
  138.2715   75.8322  222.2810 H   0  0  0  0  0  0  0  0  0  0  0  0
  141.9700   72.8240  220.7380 C   0  0  0  0  0  0  0  0  0  0  0  0
  142.5075   72.2077  220.0023 H   0  0  0  0  0  0  0  0  0  0  0  0
  142.6888   73.2067  221.4776 H   0  0  0  0  0  0  0  0  0  0  0  0
  140.9530   72.0170  221.4050 N   0  0  0  0  0  0  0  0  0  0  0  0
  140.2860   72.4580  222.5930 C   0  0  0  0  0  0  0  0  0  0  0  0
  139.9330   73.6590  222.7120 O   0  0  0  0  0  0  0  0  0  0  0  0
  140.0800   71.5270  223.7140 C   0  0  0  0  0  0  0  0  0  0  0  0
  140.5630   71.8460  224.9510 N   0  0  0  0  0  0  0  0  0  0  0  0
  140.5260   70.9730  225.9940 C   0  0  0  0  0  0  0  0  0  0  0  0
  141.0590   71.3360  227.2360 C   0  0  0  0  0  0  0  0  0  0  0  0
  141.4615   72.3485  227.3870 H   0  0  0  0  0  0  0  0  0  0  0  0
  141.0800   70.4090  228.2880 C   0  0  0  0  0  0  0  0  0  0  0  0
  141.5079   70.6944  229.2603 H   0  0  0  0  0  0  0  0  0  0  0  0
  140.5590   69.1220  228.1070 C   0  0  0  0  0  0  0  0  0  0  0  0
  140.6150   68.2190  229.1140 F   0  0  0  0  0  0  0  0  0  0  0  0
  140.0000   68.7590  226.8780 C   0  0  0  0  0  0  0  0  0  0  0  0
  139.5740   67.7540  226.7421 H   0  0  0  0  0  0  0  0  0  0  0  0
  139.9830   69.6810  225.8150 C   0  0  0  0  0  0  0  0  0  0  0  0
  139.4540   69.3410  224.5650 C   0  0  0  0  0  0  0  0  0  0  0  0
  139.0036   68.3495  224.4097 H   0  0  0  0  0  0  0  0  0  0  0  0
  139.4980   70.2650  223.5090 C   0  0  0  0  0  0  0  0  0  0  0  0
  139.0790   70.0022  222.5264 H   0  0  0  0  0  0  0  0  0  0  0  0
  1  2  1  0
  2  3  1  0
  3  4  2  0
  4  5  1  0
  5  6  1  0
  5  7  1  0
  5  8  1  0
  8  9  1  6
  8 10  1  0
 10 11  1  0
  8 12  1  0
 12 13  1  0
 12 14  1  0
 12 15  1  0
 15 16  1  1
 15 17  1  0
 17 18  2  0
 17 19  1  0
 19 20  1  0
 20 21  1  1
 20 22  1  0
 22 23  2  0
 23 24  1  0
 23 25  1  0
 25 26  1  0
 25 27  2  0
 27 28  1  0
 27 29  1  0
 29 30  1  0
 29 31  2  0
 31 32  1  0
 20 33  1  0
 33 34  1  0
 33 35  1  0
 33 36  1  0
  3 37  1  0
 37 38  1  0
 37 39  1  0
 37 40  1  0
 40 41  1  0
 41 42  2  0
 41 43  1  0
 43 44  2  0
 44 45  1  0
 45 46  2  0
 46 47  1  0
 46 48  1  0
 48 49  1  0
 48 50  2  0
 50 51  1  0
 50 52  1  0
 52 53  1  0
 52 54  2  0
 54 55  1  0
 55 56  1  0
 55 57  2  0
 57 58  1  0
 15  4  1  0
 31 22  1  0
 57 43  1  0
 54 45  1  0
M  CHG  3   4   1  19  -1  40  -1
M  END
>  <UniqueID>  (78) 
87

>  <SMILES>  (78) 
C[C@@H]([N-]C(=O)[C@@H]1C[C@@H](O)C/[N+]1=C(/O)C[N-]C(=O)c1ccc2cc(F)ccc2n1)c1ccccc1

>  <Energy>  (78) 
64.12887411175834

>  <Genealogy>  (78) 
C[C@@H]([N-]C(=O)[C@@H]1C[C@@H](O)C[NH+]1C(=O)C[N-]C(=O)c1ccc2cc(F)ccc2n1)c1ccccc1 (protonated)
C[C@@H]([N-]C(=O)[C@@H]1C[C@@H](O)C[N+]1=C(O)C[N-]C(=O)c1ccc2cc(F)ccc2n1)c1ccccc1 (tautomer)
C[C@@H]([N-]C(=O)[C@@H]1C[C@@H](O)C/[N+]1=C(/O)C[N-]C(=O)c1ccc2cc(F)ccc2n1)c1ccccc1 (cis-trans isomerization)
C[C@@H]([N-]C(=O)[C@@H]1C[C@@H](O)C/[N+]1=C(/O)C[N-]C(=O)c1ccc2cc(F)ccc2n1)c1ccccc1 (3D coordinates assigned)
C[C@@H]([N-]C(=O)[C@@H]1C[C@@H](O)C/[N+]1=C(/O)C[N-]C(=O)c1ccc2cc(F)ccc2n1)c1ccccc1 (nonaromatic ring conformer: 64.12887411175834 kcal/mol)

>  <smiles>  (78) 
C[C@@H](NC(=O)[C@@H]1C[C@@H](O)CN1C(=O)CNC(=O)c1ccc2cc(F)ccc2n1)c1ccccc1

>  <score_type>  (78) 
oracle

>  <origin>  (78) 
autodockgpu

>  <m_score__min__energy>  (78) 
-8.9499999999999993

>  <m_primary>  (78) 
energy

>  <meeko>  (78) 
{"free_energy": -7.78, "intermolecular_energy": -11.06, "internal_energy": -3.17, "cluster_size": 14, "cluster_id": 1, "rank_in_cluster": 7}

>  <energy>  (78) 
-6.38

>  <cluster_rmsd>  (78) 
0.0

>  <rmsd>  (78) 
271.64

>  <cluster>  (78) 
4

$$$$
DWYNEBQVPRLYJI-KZHXFCNENA-M
     RDKit          3D

 58 61  0  0  0  0  0  0  0  0999 V2000
  136.1200   75.9260  220.9760 H   0  0  0  0  0  0  0  0  0  0  0  0
  136.2310   74.9380  221.1110 O   0  0  0  0  0  0  0  0  0  0  0  0
  137.4360   74.3440  221.5010 C   0  0  0  0  0  0  0  0  0  0  0  0
  138.5840   74.9770  221.3850 N   0  0  0  0  0  0  0  0  0  0  0  0
  139.6840   74.5240  220.5280 C   0  0  0  0  0  0  0  0  0  0  0  0
  139.3612   74.4936  219.4769 H   0  0  0  0  0  0  0  0  0  0  0  0
  140.0129   73.5100  220.7991 H   0  0  0  0  0  0  0  0  0  0  0  0
  140.8100   75.5430  220.7080 C   0  0  2  0  0  0  0  0  0  0  0  0
  140.8781   76.2432  219.8624 H   0  0  0  0  0  0  0  0  0  0  0  0
  142.0590   74.8990  220.7700 O   0  0  0  0  0  0  0  0  0  0  0  0
  141.9560   74.1400  221.3900 H   0  0  0  0  0  0  0  0  0  0  0  0
  140.4820   76.2800  222.0100 C   0  0  0  0  0  0  0  0  0  0  0  0
  140.7647   77.3403  221.9337 H   0  0  0  0  0  0  0  0  0  0  0  0
  141.0331   75.8631  222.8658 H   0  0  0  0  0  0  0  0  0  0  0  0
  138.9680   76.1410  222.1860 C   0  0  1  0  0  0  0  0  0  0  0  0
  138.6914   76.0081  223.2423 H   0  0  0  0  0  0  0  0  0  0  0  0
  138.2560   77.3830  221.7260 C   0  0  0  0  0  0  0  0  0  0  0  0
  137.2090   77.3010  221.0300 O   0  0  0  0  0  0  0  0  0  0  0  0
  138.8170   78.6610  222.0420 N   0  0  0  0  0  0  0  0  0  0  0  0
  139.1520   79.0820  223.3990 C   0  0  1  0  0  0  0  0  0  0  0  0
  139.1285   78.2103  224.0694 H   0  0  0  0  0  0  0  0  0  0  0  0
  140.5500   79.6690  223.4330 C   0  0  0  0  0  0  0  0  0  0  0  0
  140.7570   81.0040  223.8190 C   0  0  0  0  0  0  0  0  0  0  0  0
  139.9006   81.6296  224.1110 H   0  0  0  0  0  0  0  0  0  0  0  0
  142.0470   81.5390  223.8330 C   0  0  0  0  0  0  0  0  0  0  0  0
  142.2022   82.5859  224.1329 H   0  0  0  0  0  0  0  0  0  0  0  0
  143.1440   80.7490  223.4670 C   0  0  0  0  0  0  0  0  0  0  0  0
  144.1574   81.1767  223.4735 H   0  0  0  0  0  0  0  0  0  0  0  0
  142.9500   79.4220  223.0950 C   0  0  0  0  0  0  0  0  0  0  0  0
  143.8114   78.7989  222.8125 H   0  0  0  0  0  0  0  0  0  0  0  0
  141.6610   78.8800  223.0800 C   0  0  0  0  0  0  0  0  0  0  0  0
  141.5141   77.8291  222.7901 H   0  0  0  0  0  0  0  0  0  0  0  0
  138.1250   80.1070  223.8820 C   0  0  0  0  0  0  0  0  0  0  0  0
  138.1106   80.1214  224.9818 H   0  0  0  0  0  0  0  0  0  0  0  0
  138.3973   81.1042  223.5058 H   0  0  0  0  0  0  0  0  0  0  0  0
  137.1284   79.8328  223.5058 H   0  0  0  0  0  0  0  0  0  0  0  0
  137.3430   72.9850  222.1470 C   0  0  0  0  0  0  0  0  0  0  0  0
  137.2085   73.0998  223.2327 H   0  0  0  0  0  0  0  0  0  0  0  0
  136.4845   72.4332  221.7365 H   0  0  0  0  0  0  0  0  0  0  0  0
  138.5770   72.2540  221.8800 N   0  0  0  0  0  0  0  0  0  0  0  0
  139.6550   72.2030  222.8230 C   0  0  0  0  0  0  0  0  0  0  0  0
  140.6580   72.9470  222.6790 O   0  0  0  0  0  0  0  0  0  0  0  0
  139.6290   71.2250  223.9230 C   0  0  0  0  0  0  0  0  0  0  0  0
  140.1950   71.5490  225.1230 N   0  0  0  0  0  0  0  0  0  0  0  0
  140.3250   70.6460  226.1330 C   0  0  0  0  0  0  0  0  0  0  0  0
  140.9380   71.0170  227.3350 C   0  0  0  0  0  0  0  0  0  0  0  0
  141.2685   72.0552  227.4863 H   0  0  0  0  0  0  0  0  0  0  0  0
  141.1310   70.0650  228.3470 C   0  0  0  0  0  0  0  0  0  0  0  0
  141.6206   70.3573  229.2876 H   0  0  0  0  0  0  0  0  0  0  0  0
  140.7030   68.7440  228.1650 C   0  0  0  0  0  0  0  0  0  0  0  0
  140.9240   67.8200  229.1300 F   0  0  0  0  0  0  0  0  0  0  0  0
  140.0660   68.3700  226.9790 C   0  0  0  0  0  0  0  0  0  0  0  0
  139.7141   67.3364  226.8452 H   0  0  0  0  0  0  0  0  0  0  0  0
  139.8750   69.3180  225.9550 C   0  0  0  0  0  0  0  0  0  0  0  0
  139.2650   68.9710  224.7460 C   0  0  0  0  0  0  0  0  0  0  0  0
  138.8859   67.9495  224.5949 H   0  0  0  0  0  0  0  0  0  0  0  0
  139.1360   69.9250  223.7250 C   0  0  0  0  0  0  0  0  0  0  0  0
  138.6514   69.6561  222.7748 H   0  0  0  0  0  0  0  0  0  0  0  0
  1  2  1  0
  2  3  1  0
  3  4  2  0
  4  5  1  0
  5  6  1  0
  5  7  1  0
  5  8  1  0
  8  9  1  6
  8 10  1  0
 10 11  1  0
  8 12  1  0
 12 13  1  0
 12 14  1  0
 12 15  1  0
 15 16  1  1
 15 17  1  0
 17 18  2  0
 17 19  1  0
 19 20  1  0
 20 21  1  1
 20 22  1  0
 22 23  2  0
 23 24  1  0
 23 25  1  0
 25 26  1  0
 25 27  2  0
 27 28  1  0
 27 29  1  0
 29 30  1  0
 29 31  2  0
 31 32  1  0
 20 33  1  0
 33 34  1  0
 33 35  1  0
 33 36  1  0
  3 37  1  0
 37 38  1  0
 37 39  1  0
 37 40  1  0
 40 41  1  0
 41 42  2  0
 41 43  1  0
 43 44  2  0
 44 45  1  0
 45 46  2  0
 46 47  1  0
 46 48  1  0
 48 49  1  0
 48 50  2  0
 50 51  1  0
 50 52  1  0
 52 53  1  0
 52 54  2  0
 54 55  1  0
 55 56  1  0
 55 57  2  0
 57 58  1  0
 15  4  1  0
 31 22  1  0
 57 43  1  0
 54 45  1  0
M  CHG  3   4   1  19  -1  40  -1
M  END
>  <UniqueID>  (79) 
87

>  <SMILES>  (79) 
C[C@@H]([N-]C(=O)[C@@H]1C[C@@H](O)C/[N+]1=C(/O)C[N-]C(=O)c1ccc2cc(F)ccc2n1)c1ccccc1

>  <Energy>  (79) 
64.12887411175834

>  <Genealogy>  (79) 
C[C@@H]([N-]C(=O)[C@@H]1C[C@@H](O)C[NH+]1C(=O)C[N-]C(=O)c1ccc2cc(F)ccc2n1)c1ccccc1 (protonated)
C[C@@H]([N-]C(=O)[C@@H]1C[C@@H](O)C[N+]1=C(O)C[N-]C(=O)c1ccc2cc(F)ccc2n1)c1ccccc1 (tautomer)
C[C@@H]([N-]C(=O)[C@@H]1C[C@@H](O)C/[N+]1=C(/O)C[N-]C(=O)c1ccc2cc(F)ccc2n1)c1ccccc1 (cis-trans isomerization)
C[C@@H]([N-]C(=O)[C@@H]1C[C@@H](O)C/[N+]1=C(/O)C[N-]C(=O)c1ccc2cc(F)ccc2n1)c1ccccc1 (3D coordinates assigned)
C[C@@H]([N-]C(=O)[C@@H]1C[C@@H](O)C/[N+]1=C(/O)C[N-]C(=O)c1ccc2cc(F)ccc2n1)c1ccccc1 (nonaromatic ring conformer: 64.12887411175834 kcal/mol)

>  <smiles>  (79) 
C[C@@H](NC(=O)[C@@H]1C[C@@H](O)CN1C(=O)CNC(=O)c1ccc2cc(F)ccc2n1)c1ccccc1

>  <score_type>  (79) 
oracle

>  <origin>  (79) 
autodockgpu

>  <m_score__min__energy>  (79) 
-8.9499999999999993

>  <m_primary>  (79) 
energy

>  <meeko>  (79) 
{"free_energy": -7.27, "intermolecular_energy": -10.55, "internal_energy": -3.36, "cluster_size": 14, "cluster_id": 1, "rank_in_cluster": 13}

>  <energy>  (79) 
-5.63

>  <cluster_rmsd>  (79) 
0.0

>  <rmsd>  (79) 
272.01

>  <cluster>  (79) 
5

$$$$
DWYNEBQVPRLYJI-KZHXFCNENA-M
     RDKit          3D

 58 61  0  0  0  0  0  0  0  0999 V2000
  142.3220   73.3670  220.6630 H   0  0  0  0  0  0  0  0  0  0  0  0
  142.3580   74.2850  220.2580 O   0  0  0  0  0  0  0  0  0  0  0  0
  141.4060   75.2770  220.5130 C   0  0  0  0  0  0  0  0  0  0  0  0
  141.5300   76.4920  220.0220 N   0  0  0  0  0  0  0  0  0  0  0  0
  142.1500   76.7900  218.7280 C   0  0  0  0  0  0  0  0  0  0  0  0
  141.5947   76.2972  217.9163 H   0  0  0  0  0  0  0  0  0  0  0  0
  143.1863   76.4237  218.6854 H   0  0  0  0  0  0  0  0  0  0  0  0
  142.0880   78.3090  218.5670 C   0  0  2  0  0  0  0  0  0  0  0  0
  141.2861   78.6231  217.8827 H   0  0  0  0  0  0  0  0  0  0  0  0
  143.2820   78.8000  218.0060 O   0  0  0  0  0  0  0  0  0  0  0  0
  143.0700   79.0670  217.0810 H   0  0  0  0  0  0  0  0  0  0  0  0
  141.8550   78.8550  219.9800 C   0  0  0  0  0  0  0  0  0  0  0  0
  141.1977   79.7365  219.9487 H   0  0  0  0  0  0  0  0  0  0  0  0
  142.7940   79.1742  220.4558 H   0  0  0  0  0  0  0  0  0  0  0  0
  141.1850   77.7140  220.7500 C   0  0  1  0  0  0  0  0  0  0  0  0
  141.5311   77.6680  221.7931 H   0  0  0  0  0  0  0  0  0  0  0  0
  139.6960   77.9120  220.8180 C   0  0  0  0  0  0  0  0  0  0  0  0
  139.0540   78.2950  219.8020 O   0  0  0  0  0  0  0  0  0  0  0  0
  139.0260   77.7140  222.0660 N   0  0  0  0  0  0  0  0  0  0  0  0
  138.9010   78.7490  223.0880 C   0  0  1  0  0  0  0  0  0  0  0  0
  138.7392   78.2778  224.0687 H   0  0  0  0  0  0  0  0  0  0  0  0
  140.1750   79.5680  223.1600 C   0  0  0  0  0  0  0  0  0  0  0  0
  140.2160   80.8760  222.6480 C   0  0  0  0  0  0  0  0  0  0  0  0
  139.3141   81.3182  222.1996 H   0  0  0  0  0  0  0  0  0  0  0  0
  141.3990   81.6160  222.7070 C   0  0  0  0  0  0  0  0  0  0  0  0
  141.4252   82.6387  222.3028 H   0  0  0  0  0  0  0  0  0  0  0  0
  142.5520   81.0630  223.2780 C   0  0  0  0  0  0  0  0  0  0  0  0
  143.4831   81.6475  223.3149 H   0  0  0  0  0  0  0  0  0  0  0  0
  142.5180   79.7720  223.7990 C   0  0  0  0  0  0  0  0  0  0  0  0
  143.4209   79.3384  224.2537 H   0  0  0  0  0  0  0  0  0  0  0  0
  141.3360   79.0270  223.7440 C   0  0  0  0  0  0  0  0  0  0  0  0
  141.3132   78.0093  224.1607 H   0  0  0  0  0  0  0  0  0  0  0  0
  137.7030   79.6430  222.7630 C   0  0  0  0  0  0  0  0  0  0  0  0
  137.2393   79.9891  223.6985 H   0  0  0  0  0  0  0  0  0  0  0  0
  138.0413   80.5112  222.1784 H   0  0  0  0  0  0  0  0  0  0  0  0
  136.9670   79.0716  222.1784 H   0  0  0  0  0  0  0  0  0  0  0  0
  140.1870   74.8600  221.2950 C   0  0  0  0  0  0  0  0  0  0  0  0
  139.7183   75.7453  221.7494 H   0  0  0  0  0  0  0  0  0  0  0  0
  139.4613   74.3743  220.6261 H   0  0  0  0  0  0  0  0  0  0  0  0
  140.5970   73.9300  222.3420 N   0  0  0  0  0  0  0  0  0  0  0  0
  140.5380   72.5090  222.1680 C   0  0  0  0  0  0  0  0  0  0  0  0
  140.6810   72.0050  221.0240 O   0  0  0  0  0  0  0  0  0  0  0  0
  140.2320   71.6360  223.3120 C   0  0  0  0  0  0  0  0  0  0  0  0
  140.6830   71.9760  224.5560 N   0  0  0  0  0  0  0  0  0  0  0  0
  140.5520   71.1490  225.6280 C   0  0  0  0  0  0  0  0  0  0  0  0
  141.0550   71.5290  226.8780 C   0  0  0  0  0  0  0  0  0  0  0  0
  141.5101   72.5219  227.0087 H   0  0  0  0  0  0  0  0  0  0  0  0
  140.9790   70.6450  227.9630 C   0  0  0  0  0  0  0  0  0  0  0  0
  141.3826   70.9441  228.9416 H   0  0  0  0  0  0  0  0  0  0  0  0
  140.3920   69.3830  227.8080 C   0  0  0  0  0  0  0  0  0  0  0  0
  140.3530   68.5200  228.8500 F   0  0  0  0  0  0  0  0  0  0  0  0
  139.8620   69.0040  226.5710 C   0  0  0  0  0  0  0  0  0  0  0  0
  139.3832   68.0205  226.4550 H   0  0  0  0  0  0  0  0  0  0  0  0
  139.9420   69.8830  225.4740 C   0  0  0  0  0  0  0  0  0  0  0  0
  139.4450   69.5250  224.2170 C   0  0  0  0  0  0  0  0  0  0  0  0
  138.9433   68.5557  224.0799 H   0  0  0  0  0  0  0  0  0  0  0  0
  139.5860   70.4020  223.1300 C   0  0  0  0  0  0  0  0  0  0  0  0
  139.1927   70.1244  222.1409 H   0  0  0  0  0  0  0  0  0  0  0  0
  1  2  1  0
  2  3  1  0
  3  4  2  0
  4  5  1  0
  5  6  1  0
  5  7  1  0
  5  8  1  0
  8  9  1  6
  8 10  1  0
 10 11  1  0
  8 12  1  0
 12 13  1  0
 12 14  1  0
 12 15  1  0
 15 16  1  1
 15 17  1  0
 17 18  2  0
 17 19  1  0
 19 20  1  0
 20 21  1  1
 20 22  1  0
 22 23  2  0
 23 24  1  0
 23 25  1  0
 25 26  1  0
 25 27  2  0
 27 28  1  0
 27 29  1  0
 29 30  1  0
 29 31  2  0
 31 32  1  0
 20 33  1  0
 33 34  1  0
 33 35  1  0
 33 36  1  0
  3 37  1  0
 37 38  1  0
 37 39  1  0
 37 40  1  0
 40 41  1  0
 41 42  2  0
 41 43  1  0
 43 44  2  0
 44 45  1  0
 45 46  2  0
 46 47  1  0
 46 48  1  0
 48 49  1  0
 48 50  2  0
 50 51  1  0
 50 52  1  0
 52 53  1  0
 52 54  2  0
 54 55  1  0
 55 56  1  0
 55 57  2  0
 57 58  1  0
 15  4  1  0
 31 22  1  0
 57 43  1  0
 54 45  1  0
M  CHG  3   4   1  19  -1  40  -1
M  END
>  <UniqueID>  (80) 
87

>  <SMILES>  (80) 
C[C@@H]([N-]C(=O)[C@@H]1C[C@@H](O)C/[N+]1=C(/O)C[N-]C(=O)c1ccc2cc(F)ccc2n1)c1ccccc1

>  <Energy>  (80) 
64.12887411175834

>  <Genealogy>  (80) 
C[C@@H]([N-]C(=O)[C@@H]1C[C@@H](O)C[NH+]1C(=O)C[N-]C(=O)c1ccc2cc(F)ccc2n1)c1ccccc1 (protonated)
C[C@@H]([N-]C(=O)[C@@H]1C[C@@H](O)C[N+]1=C(O)C[N-]C(=O)c1ccc2cc(F)ccc2n1)c1ccccc1 (tautomer)
C[C@@H]([N-]C(=O)[C@@H]1C[C@@H](O)C/[N+]1=C(/O)C[N-]C(=O)c1ccc2cc(F)ccc2n1)c1ccccc1 (cis-trans isomerization)
C[C@@H]([N-]C(=O)[C@@H]1C[C@@H](O)C/[N+]1=C(/O)C[N-]C(=O)c1ccc2cc(F)ccc2n1)c1ccccc1 (3D coordinates assigned)
C[C@@H]([N-]C(=O)[C@@H]1C[C@@H](O)C/[N+]1=C(/O)C[N-]C(=O)c1ccc2cc(F)ccc2n1)c1ccccc1 (nonaromatic ring conformer: 64.12887411175834 kcal/mol)

>  <smiles>  (80) 
C[C@@H](NC(=O)[C@@H]1C[C@@H](O)CN1C(=O)CNC(=O)c1ccc2cc(F)ccc2n1)c1ccccc1

>  <score_type>  (80) 
oracle

>  <origin>  (80) 
autodockgpu

>  <m_score__min__energy>  (80) 
-8.9499999999999993

>  <m_primary>  (80) 
energy

>  <meeko>  (80) 
{"free_energy": -7.74, "intermolecular_energy": -11.02, "internal_energy": -2.9, "cluster_size": 14, "cluster_id": 1, "rank_in_cluster": 8}

>  <energy>  (80) 
-5.4

>  <cluster_rmsd>  (80) 
0.0

>  <rmsd>  (80) 
271.77

>  <cluster>  (80) 
6

$$$$
