JSIQCYHYJBEBBC-RBVFQDFSNA-O
     RDKit          3D

 63 67  0  0  0  0  0  0  0  0999 V2000
  140.7120   68.4520  227.3700 C   0  0  0  0  0  0  0  0  0  0  0  0
  141.0270   69.2530  228.4700 C   0  0  0  0  0  0  0  0  0  0  0  0
  141.0530   70.6070  228.3410 N   0  0  0  0  0  0  0  0  0  0  0  0
  140.7760   71.2190  227.1560 C   0  0  0  0  0  0  0  0  0  0  0  0
  140.4620   70.4540  226.0200 C   0  0  0  0  0  0  0  0  0  0  0  0
  140.2070   71.1240  224.6930 C   0  0  0  0  0  0  0  0  0  0  0  0
  139.1770   70.3730  223.8300 C   0  0  0  0  0  0  0  0  0  0  0  0
  138.9120   71.0310  222.4620 C   0  0  0  0  0  0  0  0  0  0  0  0
  138.7400   72.4790  222.5720 N   0  0  0  0  0  0  0  0  0  0  0  0
  139.7360   73.4200  222.1520 C   0  0  0  0  0  0  0  0  0  0  0  0
  140.8900   72.9930  221.5770 N   0  0  0  0  0  0  0  0  0  0  0  0
  141.8470   73.8810  221.2050 C   0  0  0  0  0  0  0  0  0  0  0  0
  143.0880   73.4160  220.6420 N   0  0  0  0  0  0  0  0  0  0  0  0
  144.1960   74.3490  220.4000 C   0  0  0  0  0  0  0  0  0  0  0  0
  145.5610   73.7310  220.7820 C   0  0  0  0  0  0  0  0  0  0  0  0
  145.5290   72.2610  220.9040 N   0  0  0  0  0  0  0  0  0  0  0  0
  144.6530   71.6490  219.8980 C   0  0  0  0  0  0  0  0  0  0  0  0
  143.1950   72.0270  220.1770 C   0  0  0  0  0  0  0  0  0  0  0  0
  141.6320   75.2090  221.3990 N   0  0  0  0  0  0  0  0  0  0  0  0
  140.4800   75.6480  221.9700 C   0  0  0  0  0  0  0  0  0  0  0  0
  140.2660   77.0550  222.1730 N   0  0  0  0  0  0  0  0  0  0  0  0
  138.8950   77.5700  222.2890 C   0  0  0  0  0  0  0  0  0  0  0  0
  138.7890   78.9220  221.5900 C   0  0  0  0  0  0  0  0  0  0  0  0
  139.8650   79.8610  222.0610 C   0  0  0  0  0  0  0  0  0  0  0  0
  139.6520   81.2460  221.9890 C   0  0  0  0  0  0  0  0  0  0  0  0
  140.6640   82.1360  222.3580 C   0  0  0  0  0  0  0  0  0  0  0  0
  141.9020   81.6510  222.7860 C   0  0  0  0  0  0  0  0  0  0  0  0
  142.1310   80.2740  222.8510 C   0  0  0  0  0  0  0  0  0  0  0  0
  141.1200   79.3680  222.4920 C   0  0  0  0  0  0  0  0  0  0  0  0
  141.3970   77.8870  222.6130 C   0  0  0  0  0  0  0  0  0  0  0  0
  139.5350   74.7470  222.3480 N   0  0  0  0  0  0  0  0  0  0  0  0
  140.4160   69.0540  226.1450 C   0  0  0  0  0  0  0  0  0  0  0  0
  140.6972   67.3564  227.4676 H   0  0  0  0  0  0  0  0  0  0  0  0
  141.2541   68.7888  229.4410 H   0  0  0  0  0  0  0  0  0  0  0  0
  140.7982   72.3167  227.0881 H   0  0  0  0  0  0  0  0  0  0  0  0
  139.8330   72.1414  224.8798 H   0  0  0  0  0  0  0  0  0  0  0  0
  141.1576   71.1321  224.1396 H   0  0  0  0  0  0  0  0  0  0  0  0
  139.5481   69.3520  223.6574 H   0  0  0  0  0  0  0  0  0  0  0  0
  138.2256   70.3882  224.3819 H   0  0  0  0  0  0  0  0  0  0  0  0
  139.7644   70.8245  221.7981 H   0  0  0  0  0  0  0  0  0  0  0  0
  137.9800   70.6090  222.0581 H   0  0  0  0  0  0  0  0  0  0  0  0
  137.8120   72.8460  222.8910 H   0  0  0  0  0  0  0  0  0  0  0  0
  144.2115   74.6142  219.3326 H   0  0  0  0  0  0  0  0  0  0  0  0
  144.0364   75.2391  221.0263 H   0  0  0  0  0  0  0  0  0  0  0  0
  146.2939   74.0000  220.0071 H   0  0  0  0  0  0  0  0  0  0  0  0
  145.8319   74.1315  221.7701 H   0  0  0  0  0  0  0  0  0  0  0  0
  145.1990   71.9940  221.8620 H   0  0  0  0  0  0  0  0  0  0  0  0
  146.4990   71.8870  220.7850 H   0  0  0  0  0  0  0  0  0  0  0  0
  144.9383   72.0090  218.8985 H   0  0  0  0  0  0  0  0  0  0  0  0
  144.7585   70.5550  219.9433 H   0  0  0  0  0  0  0  0  0  0  0  0
  142.6108   71.9119  219.2521 H   0  0  0  0  0  0  0  0  0  0  0  0
  142.8071   71.3643  220.9646 H   0  0  0  0  0  0  0  0  0  0  0  0
  138.1977   76.8606  221.8194 H   0  0  0  0  0  0  0  0  0  0  0  0
  138.6415   77.6906  223.3526 H   0  0  0  0  0  0  0  0  0  0  0  0
  138.8909   78.7743  220.5047 H   0  0  0  0  0  0  0  0  0  0  0  0
  137.8105   79.3635  221.8299 H   0  0  0  0  0  0  0  0  0  0  0  0
  138.6832   81.6332  221.6402 H   0  0  0  0  0  0  0  0  0  0  0  0
  140.4855   83.2204  222.3114 H   0  0  0  0  0  0  0  0  0  0  0  0
  142.6980   82.3541  223.0724 H   0  0  0  0  0  0  0  0  0  0  0  0
  143.1090   79.8976  223.1854 H   0  0  0  0  0  0  0  0  0  0  0  0
  142.2738   77.6423  221.9955 H   0  0  0  0  0  0  0  0  0  0  0  0
  141.5722   77.6699  223.6770 H   0  0  0  0  0  0  0  0  0  0  0  0
  140.1468   68.4330  225.2779 H   0  0  0  0  0  0  0  0  0  0  0  0
  1  2  2  0
  2  3  1  0
  3  4  2  0
  4  5  1  0
  5  6  1  0
  6  7  1  0
  7  8  1  0
  8  9  1  0
  9 10  1  0
 10 11  2  0
 11 12  1  0
 12 13  1  0
 13 14  1  0
 14 15  1  0
 15 16  1  0
 16 17  1  0
 17 18  1  0
 12 19  2  0
 19 20  1  0
 20 21  1  0
 21 22  1  0
 22 23  1  0
 23 24  1  0
 24 25  2  0
 25 26  1  0
 26 27  2  0
 27 28  1  0
 28 29  2  0
 29 30  1  0
 20 31  2  0
  5 32  2  0
 32  1  1  0
 31 10  1  0
 18 13  1  0
 30 21  1  0
 29 24  1  0
  1 33  1  0
  2 34  1  0
  4 35  1  0
  6 36  1  0
  6 37  1  0
  7 38  1  0
  7 39  1  0
  8 40  1  0
  8 41  1  0
  9 42  1  0
 14 43  1  0
 14 44  1  0
 15 45  1  0
 15 46  1  0
 16 47  1  0
 16 48  1  0
 17 49  1  0
 17 50  1  0
 18 51  1  0
 18 52  1  0
 22 53  1  0
 22 54  1  0
 23 55  1  0
 23 56  1  0
 25 57  1  0
 26 58  1  0
 27 59  1  0
 28 60  1  0
 30 61  1  0
 30 62  1  0
 32 63  1  0
M  CHG  1  16   1
M  END
>  <UniqueID>  (1) 
625

>  <SMILES>  (1) 
c1cncc(CCCNc2nc(N3CC[NH2+]CC3)nc(N3CCc4ccccc4C3)n2)c1

>  <Energy>  (1) 
63.07039407097215

>  <Genealogy>  (1) 
c1cncc(CCCNc2nc(N3CC[NH2+]CC3)nc(N3CCc4ccccc4C3)n2)c1 (protonated)
c1cncc(CCCNc2nc(N3CC[NH2+]CC3)nc(N3CCc4ccccc4C3)n2)c1 (3D coordinates assigned)
c1cncc(CCCNc2nc(N3CC[NH2+]CC3)nc(N3CCc4ccccc4C3)n2)c1 (nonaromatic ring conformer: 63.07039407097215 kcal/mol)

>  <smiles>  (1) 
c1cncc(CCCNc2nc(N3CCNCC3)nc(N3CCc4ccccc4C3)n2)c1

>  <score_type>  (1) 
oracle

>  <origin>  (1) 
autodockgpu

>  <m_score__min__energy>  (1) 
-9.4199999999999999

>  <m_primary>  (1) 
energy

>  <meeko>  (1) 
{"free_energy": -9.22, "intermolecular_energy": -11.31, "internal_energy": -0.85, "cluster_size": 4, "cluster_id": 1, "rank_in_cluster": 3}

>  <energy>  (1) 
-9.42

>  <cluster_rmsd>  (1) 
0.0

>  <rmsd>  (1) 
271.08

>  <cluster>  (1) 
1

$$$$
JSIQCYHYJBEBBC-RBVFQDFSNA-O
     RDKit          3D

 63 67  0  0  0  0  0  0  0  0999 V2000
  142.2120   80.6220  222.6130 C   0  0  0  0  0  0  0  0  0  0  0  0
  142.4840   79.8870  223.7690 C   0  0  0  0  0  0  0  0  0  0  0  0
  141.8650   78.6940  223.9780 N   0  0  0  0  0  0  0  0  0  0  0  0
  140.9740   78.1830  223.0840 C   0  0  0  0  0  0  0  0  0  0  0  0
  140.6630   78.8900  221.9110 C   0  0  0  0  0  0  0  0  0  0  0  0
  139.6370   78.3540  220.9430 C   0  0  0  0  0  0  0  0  0  0  0  0
  138.3540   77.8640  221.6390 C   0  0  0  0  0  0  0  0  0  0  0  0
  137.5650   76.8190  220.8270 C   0  0  0  0  0  0  0  0  0  0  0  0
  137.5950   75.4970  221.4540 N   0  0  0  0  0  0  0  0  0  0  0  0
  138.8010   74.7470  221.6420 C   0  0  0  0  0  0  0  0  0  0  0  0
  139.9720   75.1760  221.1050 N   0  0  0  0  0  0  0  0  0  0  0  0
  141.1100   74.4520  221.2580 C   0  0  0  0  0  0  0  0  0  0  0  0
  142.3360   74.8900  220.6420 N   0  0  0  0  0  0  0  0  0  0  0  0
  143.5490   74.0640  220.7210 C   0  0  0  0  0  0  0  0  0  0  0  0
  144.3220   74.0530  219.3820 C   0  0  0  0  0  0  0  0  0  0  0  0
  143.9430   75.1500  218.4720 N   0  0  0  0  0  0  0  0  0  0  0  0
  143.6720   76.3940  219.2000 C   0  0  0  0  0  0  0  0  0  0  0  0
  142.4110   76.2340  220.0540 C   0  0  0  0  0  0  0  0  0  0  0  0
  141.0700   73.2950  221.9700 N   0  0  0  0  0  0  0  0  0  0  0  0
  139.9060   72.8570  222.5150 C   0  0  0  0  0  0  0  0  0  0  0  0
  139.8750   71.6310  223.2640 N   0  0  0  0  0  0  0  0  0  0  0  0
  139.3190   70.4190  222.6480 C   0  0  0  0  0  0  0  0  0  0  0  0
  138.5390   69.6210  223.6880 C   0  0  0  0  0  0  0  0  0  0  0  0
  139.3670   69.3860  224.9210 C   0  0  0  0  0  0  0  0  0  0  0  0
  139.0940   68.2740  225.7340 C   0  0  0  0  0  0  0  0  0  0  0  0
  139.8060   68.0750  226.9200 C   0  0  0  0  0  0  0  0  0  0  0  0
  140.7840   68.9930  227.3120 C   0  0  0  0  0  0  0  0  0  0  0  0
  141.0560   70.1100  226.5180 C   0  0  0  0  0  0  0  0  0  0  0  0
  140.3550   70.3170  225.3190 C   0  0  0  0  0  0  0  0  0  0  0  0
  140.7080   71.5180  224.4710 C   0  0  0  0  0  0  0  0  0  0  0  0
  138.7720   73.5870  222.3450 N   0  0  0  0  0  0  0  0  0  0  0  0
  141.3080   80.1160  221.6750 C   0  0  0  0  0  0  0  0  0  0  0  0
  142.7049   81.5905  222.4424 H   0  0  0  0  0  0  0  0  0  0  0  0
  143.1989   80.2730  224.5106 H   0  0  0  0  0  0  0  0  0  0  0  0
  140.4958   77.2123  223.2814 H   0  0  0  0  0  0  0  0  0  0  0  0
  139.3695   79.1538  220.2368 H   0  0  0  0  0  0  0  0  0  0  0  0
  140.0858   77.4894  220.4320 H   0  0  0  0  0  0  0  0  0  0  0  0
  138.6329   77.4149  222.6036 H   0  0  0  0  0  0  0  0  0  0  0  0
  137.6988   78.7399  221.7554 H   0  0  0  0  0  0  0  0  0  0  0  0
  136.5189   77.1492  220.7456 H   0  0  0  0  0  0  0  0  0  0  0  0
  138.0353   76.7346  219.8362 H   0  0  0  0  0  0  0  0  0  0  0  0
  136.7060   75.1220  221.8620 H   0  0  0  0  0  0  0  0  0  0  0  0
  144.2041   74.4670  221.5074 H   0  0  0  0  0  0  0  0  0  0  0  0
  143.2463   73.0317  220.9505 H   0  0  0  0  0  0  0  0  0  0  0  0
  145.3968   74.1380  219.6003 H   0  0  0  0  0  0  0  0  0  0  0  0
  144.0715   73.1106  218.8729 H   0  0  0  0  0  0  0  0  0  0  0  0
  143.0930   74.8740  217.9230 H   0  0  0  0  0  0  0  0  0  0  0  0
  144.7220   75.3150  217.7920 H   0  0  0  0  0  0  0  0  0  0  0  0
  144.5265   76.6288  219.8517 H   0  0  0  0  0  0  0  0  0  0  0  0
  143.5195   77.2101  218.4783 H   0  0  0  0  0  0  0  0  0  0  0  0
  142.4282   76.9793  220.8629 H   0  0  0  0  0  0  0  0  0  0  0  0
  141.5321   76.3823  219.4094 H   0  0  0  0  0  0  0  0  0  0  0  0
  138.6458   70.7033  221.8258 H   0  0  0  0  0  0  0  0  0  0  0  0
  140.1408   69.8007  222.2577 H   0  0  0  0  0  0  0  0  0  0  0  0
  137.6329   70.1800  223.9646 H   0  0  0  0  0  0  0  0  0  0  0  0
  138.2735   68.6458  223.2538 H   0  0  0  0  0  0  0  0  0  0  0  0
  138.3158   67.5560  225.4358 H   0  0  0  0  0  0  0  0  0  0  0  0
  139.5964   67.1948  227.5456 H   0  0  0  0  0  0  0  0  0  0  0  0
  141.3408   68.8359  228.2476 H   0  0  0  0  0  0  0  0  0  0  0  0
  141.8238   70.8315  226.8340 H   0  0  0  0  0  0  0  0  0  0  0  0
  140.5740   72.4267  225.0763 H   0  0  0  0  0  0  0  0  0  0  0  0
  141.7505   71.3952  224.1423 H   0  0  0  0  0  0  0  0  0  0  0  0
  141.1013   80.6774  220.7519 H   0  0  0  0  0  0  0  0  0  0  0  0
  1  2  2  0
  2  3  1  0
  3  4  2  0
  4  5  1  0
  5  6  1  0
  6  7  1  0
  7  8  1  0
  8  9  1  0
  9 10  1  0
 10 11  2  0
 11 12  1  0
 12 13  1  0
 13 14  1  0
 14 15  1  0
 15 16  1  0
 16 17  1  0
 17 18  1  0
 12 19  2  0
 19 20  1  0
 20 21  1  0
 21 22  1  0
 22 23  1  0
 23 24  1  0
 24 25  2  0
 25 26  1  0
 26 27  2  0
 27 28  1  0
 28 29  2  0
 29 30  1  0
 20 31  2  0
  5 32  2  0
 32  1  1  0
 31 10  1  0
 18 13  1  0
 30 21  1  0
 29 24  1  0
  1 33  1  0
  2 34  1  0
  4 35  1  0
  6 36  1  0
  6 37  1  0
  7 38  1  0
  7 39  1  0
  8 40  1  0
  8 41  1  0
  9 42  1  0
 14 43  1  0
 14 44  1  0
 15 45  1  0
 15 46  1  0
 16 47  1  0
 16 48  1  0
 17 49  1  0
 17 50  1  0
 18 51  1  0
 18 52  1  0
 22 53  1  0
 22 54  1  0
 23 55  1  0
 23 56  1  0
 25 57  1  0
 26 58  1  0
 27 59  1  0
 28 60  1  0
 30 61  1  0
 30 62  1  0
 32 63  1  0
M  CHG  1  16   1
M  END
>  <UniqueID>  (2) 
625

>  <SMILES>  (2) 
c1cncc(CCCNc2nc(N3CC[NH2+]CC3)nc(N3CCc4ccccc4C3)n2)c1

>  <Energy>  (2) 
63.07039407097215

>  <Genealogy>  (2) 
c1cncc(CCCNc2nc(N3CC[NH2+]CC3)nc(N3CCc4ccccc4C3)n2)c1 (protonated)
c1cncc(CCCNc2nc(N3CC[NH2+]CC3)nc(N3CCc4ccccc4C3)n2)c1 (3D coordinates assigned)
c1cncc(CCCNc2nc(N3CC[NH2+]CC3)nc(N3CCc4ccccc4C3)n2)c1 (nonaromatic ring conformer: 63.07039407097215 kcal/mol)

>  <smiles>  (2) 
c1cncc(CCCNc2nc(N3CCNCC3)nc(N3CCc4ccccc4C3)n2)c1

>  <score_type>  (2) 
oracle

>  <origin>  (2) 
autodockgpu

>  <m_score__min__energy>  (2) 
-9.4199999999999999

>  <m_primary>  (2) 
energy

>  <meeko>  (2) 
{"free_energy": -8.14, "intermolecular_energy": -10.23, "internal_energy": -1.3, "cluster_size": 10, "cluster_id": 2, "rank_in_cluster": 6}

>  <energy>  (2) 
-9.29

>  <cluster_rmsd>  (2) 
0.32

>  <rmsd>  (2) 
271.15

>  <cluster>  (2) 
1

$$$$
JSIQCYHYJBEBBC-RBVFQDFSNA-O
     RDKit          3D

 63 67  0  0  0  0  0  0  0  0999 V2000
  144.5210   74.1230  220.5980 C   0  0  0  0  0  0  0  0  0  0  0  0
  145.8600   73.7480  220.4730 C   0  0  0  0  0  0  0  0  0  0  0  0
  146.1900   72.6220  219.7850 N   0  0  0  0  0  0  0  0  0  0  0  0
  145.2440   71.8340  219.2050 C   0  0  0  0  0  0  0  0  0  0  0  0
  143.8830   72.1660  219.3110 C   0  0  0  0  0  0  0  0  0  0  0  0
  142.8270   71.2690  218.7150 C   0  0  0  0  0  0  0  0  0  0  0  0
  141.6990   72.0510  218.0160 C   0  0  0  0  0  0  0  0  0  0  0  0
  140.4520   71.2020  217.7050 C   0  0  0  0  0  0  0  0  0  0  0  0
  139.3990   71.3840  218.7040 N   0  0  0  0  0  0  0  0  0  0  0  0
  139.6020   72.0830  219.9380 C   0  0  0  0  0  0  0  0  0  0  0  0
  139.7580   73.4320  219.9500 N   0  0  0  0  0  0  0  0  0  0  0  0
  139.9780   74.0930  221.1150 C   0  0  0  0  0  0  0  0  0  0  0  0
  140.1930   75.5170  221.1110 N   0  0  0  0  0  0  0  0  0  0  0  0
  139.9660   76.3110  222.3260 C   0  0  0  0  0  0  0  0  0  0  0  0
  141.0580   77.3880  222.5190 C   0  0  0  0  0  0  0  0  0  0  0  0
  141.8290   77.6730  221.2940 N   0  0  0  0  0  0  0  0  0  0  0  0
  140.9840   77.6310  220.0950 C   0  0  0  0  0  0  0  0  0  0  0  0
  140.5030   76.1980  219.8470 C   0  0  0  0  0  0  0  0  0  0  0  0
  140.0270   73.3910  222.2770 N   0  0  0  0  0  0  0  0  0  0  0  0
  139.8700   72.0420  222.2790 C   0  0  0  0  0  0  0  0  0  0  0  0
  139.9260   71.3100  223.5140 N   0  0  0  0  0  0  0  0  0  0  0  0
  139.5440   69.8920  223.5360 C   0  0  0  0  0  0  0  0  0  0  0  0
  138.7930   69.5770  224.8250 C   0  0  0  0  0  0  0  0  0  0  0  0
  139.5630   70.0470  226.0280 C   0  0  0  0  0  0  0  0  0  0  0  0
  139.3630   69.4150  227.2660 C   0  0  0  0  0  0  0  0  0  0  0  0
  140.0180   69.8800  228.4090 C   0  0  0  0  0  0  0  0  0  0  0  0
  140.8650   70.9890  228.3300 C   0  0  0  0  0  0  0  0  0  0  0  0
  141.0630   71.6330  227.1060 C   0  0  0  0  0  0  0  0  0  0  0  0
  140.4190   71.1710  225.9470 C   0  0  0  0  0  0  0  0  0  0  0  0
  140.6910   71.8750  224.6370 C   0  0  0  0  0  0  0  0  0  0  0  0
  139.6600   71.3920  221.1040 N   0  0  0  0  0  0  0  0  0  0  0  0
  143.5290   73.3370  220.0050 C   0  0  0  0  0  0  0  0  0  0  0  0
  144.2490   75.0295  221.1585 H   0  0  0  0  0  0  0  0  0  0  0  0
  146.6484   74.3633  220.9311 H   0  0  0  0  0  0  0  0  0  0  0  0
  145.5464   70.9332  218.6508 H   0  0  0  0  0  0  0  0  0  0  0  0
  143.3045   70.6074  217.9772 H   0  0  0  0  0  0  0  0  0  0  0  0
  142.3722   70.7019  219.5406 H   0  0  0  0  0  0  0  0  0  0  0  0
  141.3976   72.8829  218.6695 H   0  0  0  0  0  0  0  0  0  0  0  0
  142.0995   72.3960  217.0514 H   0  0  0  0  0  0  0  0  0  0  0  0
  140.0604   71.4947  216.7196 H   0  0  0  0  0  0  0  0  0  0  0  0
  140.7512   70.1436  217.7174 H   0  0  0  0  0  0  0  0  0  0  0  0
  138.4300   71.0650  218.4660 H   0  0  0  0  0  0  0  0  0  0  0  0
  138.9867   76.8062  222.2502 H   0  0  0  0  0  0  0  0  0  0  0  0
  139.9989   75.6313  223.1903 H   0  0  0  0  0  0  0  0  0  0  0  0
  140.5739   78.3188  222.8497 H   0  0  0  0  0  0  0  0  0  0  0  0
  141.7677   76.9982  223.2636 H   0  0  0  0  0  0  0  0  0  0  0  0
  142.6060   76.9770  221.1970 H   0  0  0  0  0  0  0  0  0  0  0  0
  142.2600   78.6230  221.3740 H   0  0  0  0  0  0  0  0  0  0  0  0
  140.1137   78.2882  220.2387 H   0  0  0  0  0  0  0  0  0  0  0  0
  141.5682   77.9725  219.2277 H   0  0  0  0  0  0  0  0  0  0  0  0
  139.5977   76.2261  219.2228 H   0  0  0  0  0  0  0  0  0  0  0  0
  141.3060   75.6433  219.3396 H   0  0  0  0  0  0  0  0  0  0  0  0
  138.8959   69.6754  222.6740 H   0  0  0  0  0  0  0  0  0  0  0  0
  140.4510   69.2717  223.4843 H   0  0  0  0  0  0  0  0  0  0  0  0
  137.8158   70.0817  224.8041 H   0  0  0  0  0  0  0  0  0  0  0  0
  138.6634   68.4870  224.8967 H   0  0  0  0  0  0  0  0  0  0  0  0
  138.6874   68.5497  227.3361 H   0  0  0  0  0  0  0  0  0  0  0  0
  139.8668   69.3723  229.3731 H   0  0  0  0  0  0  0  0  0  0  0  0
  141.3763   71.3552  229.2325 H   0  0  0  0  0  0  0  0  0  0  0  0
  141.7277   72.5076  227.0500 H   0  0  0  0  0  0  0  0  0  0  0  0
  140.4222   72.9360  224.7463 H   0  0  0  0  0  0  0  0  0  0  0  0
  141.7589   71.7449  224.4077 H   0  0  0  0  0  0  0  0  0  0  0  0
  142.4726   73.6339  220.0810 H   0  0  0  0  0  0  0  0  0  0  0  0
  1  2  2  0
  2  3  1  0
  3  4  2  0
  4  5  1  0
  5  6  1  0
  6  7  1  0
  7  8  1  0
  8  9  1  0
  9 10  1  0
 10 11  2  0
 11 12  1  0
 12 13  1  0
 13 14  1  0
 14 15  1  0
 15 16  1  0
 16 17  1  0
 17 18  1  0
 12 19  2  0
 19 20  1  0
 20 21  1  0
 21 22  1  0
 22 23  1  0
 23 24  1  0
 24 25  2  0
 25 26  1  0
 26 27  2  0
 27 28  1  0
 28 29  2  0
 29 30  1  0
 20 31  2  0
  5 32  2  0
 32  1  1  0
 31 10  1  0
 18 13  1  0
 30 21  1  0
 29 24  1  0
  1 33  1  0
  2 34  1  0
  4 35  1  0
  6 36  1  0
  6 37  1  0
  7 38  1  0
  7 39  1  0
  8 40  1  0
  8 41  1  0
  9 42  1  0
 14 43  1  0
 14 44  1  0
 15 45  1  0
 15 46  1  0
 16 47  1  0
 16 48  1  0
 17 49  1  0
 17 50  1  0
 18 51  1  0
 18 52  1  0
 22 53  1  0
 22 54  1  0
 23 55  1  0
 23 56  1  0
 25 57  1  0
 26 58  1  0
 27 59  1  0
 28 60  1  0
 30 61  1  0
 30 62  1  0
 32 63  1  0
M  CHG  1  16   1
M  END
>  <UniqueID>  (3) 
625

>  <SMILES>  (3) 
c1cncc(CCCNc2nc(N3CC[NH2+]CC3)nc(N3CCc4ccccc4C3)n2)c1

>  <Energy>  (3) 
63.07039407097215

>  <Genealogy>  (3) 
c1cncc(CCCNc2nc(N3CC[NH2+]CC3)nc(N3CCc4ccccc4C3)n2)c1 (protonated)
c1cncc(CCCNc2nc(N3CC[NH2+]CC3)nc(N3CCc4ccccc4C3)n2)c1 (3D coordinates assigned)
c1cncc(CCCNc2nc(N3CC[NH2+]CC3)nc(N3CCc4ccccc4C3)n2)c1 (nonaromatic ring conformer: 63.07039407097215 kcal/mol)

>  <smiles>  (3) 
c1cncc(CCCNc2nc(N3CCNCC3)nc(N3CCc4ccccc4C3)n2)c1

>  <score_type>  (3) 
oracle

>  <origin>  (3) 
autodockgpu

>  <m_score__min__energy>  (3) 
-9.4199999999999999

>  <m_primary>  (3) 
energy

>  <meeko>  (3) 
{"free_energy": -8.12, "intermolecular_energy": -10.21, "internal_energy": -1.42, "cluster_size": 3, "cluster_id": 4, "rank_in_cluster": 2}

>  <energy>  (3) 
-9.22

>  <cluster_rmsd>  (3) 
0.79

>  <rmsd>  (3) 
271.09

>  <cluster>  (3) 
1

$$$$
JSIQCYHYJBEBBC-RBVFQDFSNA-O
     RDKit          3D

 63 67  0  0  0  0  0  0  0  0999 V2000
  140.4520   80.8730  223.6810 C   0  0  0  0  0  0  0  0  0  0  0  0
  141.8110   80.9660  223.3710 C   0  0  0  0  0  0  0  0  0  0  0  0
  142.4600   79.9000  222.8320 N   0  0  0  0  0  0  0  0  0  0  0  0
  141.8210   78.7240  222.5800 C   0  0  0  0  0  0  0  0  0  0  0  0
  140.4570   78.5800  222.8840 C   0  0  0  0  0  0  0  0  0  0  0  0
  139.7570   77.2630  222.6560 C   0  0  0  0  0  0  0  0  0  0  0  0
  138.2270   77.4070  222.5540 C   0  0  0  0  0  0  0  0  0  0  0  0
  137.6200   76.7370  221.3070 C   0  0  0  0  0  0  0  0  0  0  0  0
  137.6650   75.2770  221.3900 N   0  0  0  0  0  0  0  0  0  0  0  0
  138.8760   74.5410  221.5940 C   0  0  0  0  0  0  0  0  0  0  0  0
  140.0400   74.9550  221.0290 N   0  0  0  0  0  0  0  0  0  0  0  0
  141.1830   74.2430  221.1990 C   0  0  0  0  0  0  0  0  0  0  0  0
  142.4000   74.6630  220.5540 N   0  0  0  0  0  0  0  0  0  0  0  0
  143.6440   73.9020  220.7370 C   0  0  0  0  0  0  0  0  0  0  0  0
  144.4390   73.7790  219.4160 C   0  0  0  0  0  0  0  0  0  0  0  0
  144.0310   74.7550  218.3880 N   0  0  0  0  0  0  0  0  0  0  0  0
  143.6980   76.0580  218.9750 C   0  0  0  0  0  0  0  0  0  0  0  0
  142.4300   75.9380  219.8260 C   0  0  0  0  0  0  0  0  0  0  0  0
  141.1570   73.1150  221.9550 N   0  0  0  0  0  0  0  0  0  0  0  0
  140.0000   72.6920  222.5280 C   0  0  0  0  0  0  0  0  0  0  0  0
  139.9840   71.4950  223.3240 N   0  0  0  0  0  0  0  0  0  0  0  0
  139.5660   70.2250  222.7150 C   0  0  0  0  0  0  0  0  0  0  0  0
  138.7510   69.4140  223.7170 C   0  0  0  0  0  0  0  0  0  0  0  0
  139.4780   69.2840  225.0270 C   0  0  0  0  0  0  0  0  0  0  0  0
  139.2080   68.1870  225.8600 C   0  0  0  0  0  0  0  0  0  0  0  0
  139.8220   68.0830  227.1110 C   0  0  0  0  0  0  0  0  0  0  0  0
  140.6980   69.0800  227.5470 C   0  0  0  0  0  0  0  0  0  0  0  0
  140.9660   70.1830  226.7320 C   0  0  0  0  0  0  0  0  0  0  0  0
  140.3630   70.2960  225.4690 C   0  0  0  0  0  0  0  0  0  0  0  0
  140.7110   71.4850  224.6030 C   0  0  0  0  0  0  0  0  0  0  0  0
  138.8600   73.4090  222.3420 N   0  0  0  0  0  0  0  0  0  0  0  0
  139.7700   79.6810  223.4250 C   0  0  0  0  0  0  0  0  0  0  0  0
  139.9236   81.7307  224.1227 H   0  0  0  0  0  0  0  0  0  0  0  0
  142.3560   81.9020  223.5631 H   0  0  0  0  0  0  0  0  0  0  0  0
  142.3751   77.8835  222.1367 H   0  0  0  0  0  0  0  0  0  0  0  0
  140.1314   76.8241  221.7194 H   0  0  0  0  0  0  0  0  0  0  0  0
  139.9710   76.6211  223.5233 H   0  0  0  0  0  0  0  0  0  0  0  0
  137.7756   76.9503  223.4471 H   0  0  0  0  0  0  0  0  0  0  0  0
  138.0116   78.4829  222.4758 H   0  0  0  0  0  0  0  0  0  0  0  0
  136.5714   77.0546  221.2087 H   0  0  0  0  0  0  0  0  0  0  0  0
  138.2138   77.0452  220.4339 H   0  0  0  0  0  0  0  0  0  0  0  0
  136.7580   74.7520  221.3870 H   0  0  0  0  0  0  0  0  0  0  0  0
  144.2691   74.4148  221.4828 H   0  0  0  0  0  0  0  0  0  0  0  0
  143.3797   72.8887  221.0738 H   0  0  0  0  0  0  0  0  0  0  0  0
  145.5058   73.9318  219.6366 H   0  0  0  0  0  0  0  0  0  0  0  0
  144.2351   72.7776  219.0089 H   0  0  0  0  0  0  0  0  0  0  0  0
  143.2030   74.3870  217.8620 H   0  0  0  0  0  0  0  0  0  0  0  0
  144.8140   74.8790  217.7040 H   0  0  0  0  0  0  0  0  0  0  0  0
  144.5314   76.3965  219.6081 H   0  0  0  0  0  0  0  0  0  0  0  0
  143.5249   76.7851  218.1679 H   0  0  0  0  0  0  0  0  0  0  0  0
  142.4037   76.7657  220.5500 H   0  0  0  0  0  0  0  0  0  0  0  0
  141.5564   75.9797  219.1588 H   0  0  0  0  0  0  0  0  0  0  0  0
  138.9513   70.4312  221.8264 H   0  0  0  0  0  0  0  0  0  0  0  0
  140.4582   69.6512  222.4241 H   0  0  0  0  0  0  0  0  0  0  0  0
  137.7884   69.9179  223.8888 H   0  0  0  0  0  0  0  0  0  0  0  0
  138.5919   68.4069  223.3042 H   0  0  0  0  0  0  0  0  0  0  0  0
  138.5096   67.4053  225.5264 H   0  0  0  0  0  0  0  0  0  0  0  0
  139.6152   67.2145  227.7536 H   0  0  0  0  0  0  0  0  0  0  0  0
  141.1776   68.9967  228.5334 H   0  0  0  0  0  0  0  0  0  0  0  0
  141.6534   70.9673  227.0819 H   0  0  0  0  0  0  0  0  0  0  0  0
  140.4643   72.4045  225.1540 H   0  0  0  0  0  0  0  0  0  0  0  0
  141.7845   71.4215  224.3716 H   0  0  0  0  0  0  0  0  0  0  0  0
  138.6954   79.6038  223.6467 H   0  0  0  0  0  0  0  0  0  0  0  0
  1  2  2  0
  2  3  1  0
  3  4  2  0
  4  5  1  0
  5  6  1  0
  6  7  1  0
  7  8  1  0
  8  9  1  0
  9 10  1  0
 10 11  2  0
 11 12  1  0
 12 13  1  0
 13 14  1  0
 14 15  1  0
 15 16  1  0
 16 17  1  0
 17 18  1  0
 12 19  2  0
 19 20  1  0
 20 21  1  0
 21 22  1  0
 22 23  1  0
 23 24  1  0
 24 25  2  0
 25 26  1  0
 26 27  2  0
 27 28  1  0
 28 29  2  0
 29 30  1  0
 20 31  2  0
  5 32  2  0
 32  1  1  0
 31 10  1  0
 18 13  1  0
 30 21  1  0
 29 24  1  0
  1 33  1  0
  2 34  1  0
  4 35  1  0
  6 36  1  0
  6 37  1  0
  7 38  1  0
  7 39  1  0
  8 40  1  0
  8 41  1  0
  9 42  1  0
 14 43  1  0
 14 44  1  0
 15 45  1  0
 15 46  1  0
 16 47  1  0
 16 48  1  0
 17 49  1  0
 17 50  1  0
 18 51  1  0
 18 52  1  0
 22 53  1  0
 22 54  1  0
 23 55  1  0
 23 56  1  0
 25 57  1  0
 26 58  1  0
 27 59  1  0
 28 60  1  0
 30 61  1  0
 30 62  1  0
 32 63  1  0
M  CHG  1  16   1
M  END
>  <UniqueID>  (4) 
625

>  <SMILES>  (4) 
c1cncc(CCCNc2nc(N3CC[NH2+]CC3)nc(N3CCc4ccccc4C3)n2)c1

>  <Energy>  (4) 
63.07039407097215

>  <Genealogy>  (4) 
c1cncc(CCCNc2nc(N3CC[NH2+]CC3)nc(N3CCc4ccccc4C3)n2)c1 (protonated)
c1cncc(CCCNc2nc(N3CC[NH2+]CC3)nc(N3CCc4ccccc4C3)n2)c1 (3D coordinates assigned)
c1cncc(CCCNc2nc(N3CC[NH2+]CC3)nc(N3CCc4ccccc4C3)n2)c1 (nonaromatic ring conformer: 63.07039407097215 kcal/mol)

>  <smiles>  (4) 
c1cncc(CCCNc2nc(N3CCNCC3)nc(N3CCc4ccccc4C3)n2)c1

>  <score_type>  (4) 
oracle

>  <origin>  (4) 
autodockgpu

>  <m_score__min__energy>  (4) 
-9.4199999999999999

>  <m_primary>  (4) 
energy

>  <meeko>  (4) 
{"free_energy": -8.35, "intermolecular_energy": -10.44, "internal_energy": -0.98, "cluster_size": 10, "cluster_id": 2, "rank_in_cluster": 4}

>  <energy>  (4) 
-9.18

>  <cluster_rmsd>  (4) 
0.83

>  <rmsd>  (4) 
270.98

>  <cluster>  (4) 
1

$$$$
JSIQCYHYJBEBBC-RBVFQDFSNA-O
     RDKit          3D

 63 67  0  0  0  0  0  0  0  0999 V2000
  141.8330   78.7170  223.1030 C   0  0  0  0  0  0  0  0  0  0  0  0
  141.6090   79.9830  223.6490 C   0  0  0  0  0  0  0  0  0  0  0  0
  140.3380   80.4310  223.8290 N   0  0  0  0  0  0  0  0  0  0  0  0
  139.2570   79.6760  223.4890 C   0  0  0  0  0  0  0  0  0  0  0  0
  139.4330   78.4000  222.9290 C   0  0  0  0  0  0  0  0  0  0  0  0
  138.2400   77.5810  222.5020 C   0  0  0  0  0  0  0  0  0  0  0  0
  138.1950   77.3320  220.9830 C   0  0  0  0  0  0  0  0  0  0  0  0
  137.1640   76.2700  220.5560 C   0  0  0  0  0  0  0  0  0  0  0  0
  137.3090   75.0260  221.3120 N   0  0  0  0  0  0  0  0  0  0  0  0
  138.5770   74.4150  221.5780 C   0  0  0  0  0  0  0  0  0  0  0  0
  139.7180   74.9350  221.0570 N   0  0  0  0  0  0  0  0  0  0  0  0
  140.9170   74.3410  221.2860 C   0  0  0  0  0  0  0  0  0  0  0  0
  142.1140   74.8720  220.6870 N   0  0  0  0  0  0  0  0  0  0  0  0
  143.3920   74.1570  220.8100 C   0  0  0  0  0  0  0  0  0  0  0  0
  144.1940   74.1860  219.4880 C   0  0  0  0  0  0  0  0  0  0  0  0
  143.7430   75.2290  218.5470 N   0  0  0  0  0  0  0  0  0  0  0  0
  143.3480   76.4580  219.2430 C   0  0  0  0  0  0  0  0  0  0  0  0
  142.0860   76.2060  220.0730 C   0  0  0  0  0  0  0  0  0  0  0  0
  140.9680   73.2240  222.0570 N   0  0  0  0  0  0  0  0  0  0  0  0
  139.8340   72.6950  222.5870 C   0  0  0  0  0  0  0  0  0  0  0  0
  139.9000   71.5110  223.3990 N   0  0  0  0  0  0  0  0  0  0  0  0
  139.5530   70.2100  222.8120 C   0  0  0  0  0  0  0  0  0  0  0  0
  138.8010   69.3650  223.8360 C   0  0  0  0  0  0  0  0  0  0  0  0
  139.5500   69.2980  225.1380 C   0  0  0  0  0  0  0  0  0  0  0  0
  139.3570   68.1980  225.9890 C   0  0  0  0  0  0  0  0  0  0  0  0
  139.9910   68.1490  227.2330 C   0  0  0  0  0  0  0  0  0  0  0  0
  140.8110   69.2040  227.6430 C   0  0  0  0  0  0  0  0  0  0  0  0
  141.0010   70.3090  226.8100 C   0  0  0  0  0  0  0  0  0  0  0  0
  140.3770   70.3670  225.5540 C   0  0  0  0  0  0  0  0  0  0  0  0
  140.6410   71.5640  224.6680 C   0  0  0  0  0  0  0  0  0  0  0  0
  138.6390   73.2950  222.3410 N   0  0  0  0  0  0  0  0  0  0  0  0
  140.7420   77.9180  222.7530 C   0  0  0  0  0  0  0  0  0  0  0  0
  142.8595   78.3524  222.9500 H   0  0  0  0  0  0  0  0  0  0  0  0
  142.4612   80.6177  223.9335 H   0  0  0  0  0  0  0  0  0  0  0  0
  138.2421   80.0669  223.6535 H   0  0  0  0  0  0  0  0  0  0  0  0
  138.2798   76.6091  223.0157 H   0  0  0  0  0  0  0  0  0  0  0  0
  137.3372   78.1496  222.7696 H   0  0  0  0  0  0  0  0  0  0  0  0
  137.9437   78.2794  220.4838 H   0  0  0  0  0  0  0  0  0  0  0  0
  139.1852   76.9517  220.6918 H   0  0  0  0  0  0  0  0  0  0  0  0
  136.1530   76.6702  220.7224 H   0  0  0  0  0  0  0  0  0  0  0  0
  137.3334   76.0419  219.4933 H   0  0  0  0  0  0  0  0  0  0  0  0
  136.4540   74.6120  221.7530 H   0  0  0  0  0  0  0  0  0  0  0  0
  143.9913   74.6318  221.6008 H   0  0  0  0  0  0  0  0  0  0  0  0
  143.1749   73.1071  221.0560 H   0  0  0  0  0  0  0  0  0  0  0  0
  145.2523   74.3672  219.7271 H   0  0  0  0  0  0  0  0  0  0  0  0
  144.0372   73.2158  218.9939 H   0  0  0  0  0  0  0  0  0  0  0  0
  142.9330   74.8700  217.9870 H   0  0  0  0  0  0  0  0  0  0  0  0
  144.5200   75.4470  217.8810 H   0  0  0  0  0  0  0  0  0  0  0  0
  144.1636   76.7785  219.9079 H   0  0  0  0  0  0  0  0  0  0  0  0
  143.1419   77.2434  218.5010 H   0  0  0  0  0  0  0  0  0  0  0  0
  142.0203   76.9652  220.8663 H   0  0  0  0  0  0  0  0  0  0  0  0
  141.2125   76.2656  219.4071 H   0  0  0  0  0  0  0  0  0  0  0  0
  138.9160   70.3661  221.9289 H   0  0  0  0  0  0  0  0  0  0  0  0
  140.4747   69.6874  222.5165 H   0  0  0  0  0  0  0  0  0  0  0  0
  137.8116   69.8119  224.0134 H   0  0  0  0  0  0  0  0  0  0  0  0
  138.6989   68.3442  223.4390 H   0  0  0  0  0  0  0  0  0  0  0  0
  138.7035   67.3709  225.6747 H   0  0  0  0  0  0  0  0  0  0  0  0
  139.8447   67.2793  227.8904 H   0  0  0  0  0  0  0  0  0  0  0  0
  141.3077   69.1640  228.6237 H   0  0  0  0  0  0  0  0  0  0  0  0
  141.6434   71.1386  227.1402 H   0  0  0  0  0  0  0  0  0  0  0  0
  140.3443   72.4741  225.2100 H   0  0  0  0  0  0  0  0  0  0  0  0
  141.7137   71.5641  224.4242 H   0  0  0  0  0  0  0  0  0  0  0  0
  140.9069   76.9120  222.3398 H   0  0  0  0  0  0  0  0  0  0  0  0
  1  2  2  0
  2  3  1  0
  3  4  2  0
  4  5  1  0
  5  6  1  0
  6  7  1  0
  7  8  1  0
  8  9  1  0
  9 10  1  0
 10 11  2  0
 11 12  1  0
 12 13  1  0
 13 14  1  0
 14 15  1  0
 15 16  1  0
 16 17  1  0
 17 18  1  0
 12 19  2  0
 19 20  1  0
 20 21  1  0
 21 22  1  0
 22 23  1  0
 23 24  1  0
 24 25  2  0
 25 26  1  0
 26 27  2  0
 27 28  1  0
 28 29  2  0
 29 30  1  0
 20 31  2  0
  5 32  2  0
 32  1  1  0
 31 10  1  0
 18 13  1  0
 30 21  1  0
 29 24  1  0
  1 33  1  0
  2 34  1  0
  4 35  1  0
  6 36  1  0
  6 37  1  0
  7 38  1  0
  7 39  1  0
  8 40  1  0
  8 41  1  0
  9 42  1  0
 14 43  1  0
 14 44  1  0
 15 45  1  0
 15 46  1  0
 16 47  1  0
 16 48  1  0
 17 49  1  0
 17 50  1  0
 18 51  1  0
 18 52  1  0
 22 53  1  0
 22 54  1  0
 23 55  1  0
 23 56  1  0
 25 57  1  0
 26 58  1  0
 27 59  1  0
 28 60  1  0
 30 61  1  0
 30 62  1  0
 32 63  1  0
M  CHG  1  16   1
M  END
>  <UniqueID>  (5) 
625

>  <SMILES>  (5) 
c1cncc(CCCNc2nc(N3CC[NH2+]CC3)nc(N3CCc4ccccc4C3)n2)c1

>  <Energy>  (5) 
63.07039407097215

>  <Genealogy>  (5) 
c1cncc(CCCNc2nc(N3CC[NH2+]CC3)nc(N3CCc4ccccc4C3)n2)c1 (protonated)
c1cncc(CCCNc2nc(N3CC[NH2+]CC3)nc(N3CCc4ccccc4C3)n2)c1 (3D coordinates assigned)
c1cncc(CCCNc2nc(N3CC[NH2+]CC3)nc(N3CCc4ccccc4C3)n2)c1 (nonaromatic ring conformer: 63.07039407097215 kcal/mol)

>  <smiles>  (5) 
c1cncc(CCCNc2nc(N3CCNCC3)nc(N3CCc4ccccc4C3)n2)c1

>  <score_type>  (5) 
oracle

>  <origin>  (5) 
autodockgpu

>  <m_score__min__energy>  (5) 
-9.4199999999999999

>  <m_primary>  (5) 
energy

>  <meeko>  (5) 
{"free_energy": -8.24, "intermolecular_energy": -10.33, "internal_energy": -1.21, "cluster_size": 10, "cluster_id": 2, "rank_in_cluster": 5}

>  <energy>  (5) 
-8.39

>  <cluster_rmsd>  (5) 
0.0

>  <rmsd>  (5) 
270.3

>  <cluster>  (5) 
2

$$$$
JSIQCYHYJBEBBC-RBVFQDFSNA-O
     RDKit          3D

 63 67  0  0  0  0  0  0  0  0999 V2000
  140.4640   68.5350  227.2890 C   0  0  0  0  0  0  0  0  0  0  0  0
  140.7240   69.4220  228.3360 C   0  0  0  0  0  0  0  0  0  0  0  0
  140.8410   70.7540  228.0850 N   0  0  0  0  0  0  0  0  0  0  0  0
  140.7100   71.2600  226.8280 C   0  0  0  0  0  0  0  0  0  0  0  0
  140.4560   70.4060  225.7430 C   0  0  0  0  0  0  0  0  0  0  0  0
  140.3630   70.9560  224.3410 C   0  0  0  0  0  0  0  0  0  0  0  0
  139.2120   70.3350  223.5280 C   0  0  0  0  0  0  0  0  0  0  0  0
  138.8030   71.1630  222.2960 C   0  0  0  0  0  0  0  0  0  0  0  0
  138.7370   72.5940  222.5910 N   0  0  0  0  0  0  0  0  0  0  0  0
  139.7280   73.5310  222.1520 C   0  0  0  0  0  0  0  0  0  0  0  0
  140.8770   73.0990  221.5710 N   0  0  0  0  0  0  0  0  0  0  0  0
  141.8290   73.9840  221.1800 C   0  0  0  0  0  0  0  0  0  0  0  0
  143.0650   73.5130  220.6110 N   0  0  0  0  0  0  0  0  0  0  0  0
  144.2070   74.4230  220.4440 C   0  0  0  0  0  0  0  0  0  0  0  0
  145.5440   73.7390  220.8110 C   0  0  0  0  0  0  0  0  0  0  0  0
  145.4640   72.2660  220.8430 N   0  0  0  0  0  0  0  0  0  0  0  0
  144.5890   71.7440  219.7870 C   0  0  0  0  0  0  0  0  0  0  0  0
  143.1380   72.1510  220.0640 C   0  0  0  0  0  0  0  0  0  0  0  0
  141.6150   75.3130  221.3610 N   0  0  0  0  0  0  0  0  0  0  0  0
  140.4690   75.7580  221.9380 C   0  0  0  0  0  0  0  0  0  0  0  0
  140.2550   77.1660  222.1280 N   0  0  0  0  0  0  0  0  0  0  0  0
  138.9410   77.6470  222.5760 C   0  0  0  0  0  0  0  0  0  0  0  0
  138.6000   78.9550  221.8700 C   0  0  0  0  0  0  0  0  0  0  0  0
  139.7210   79.9490  222.0010 C   0  0  0  0  0  0  0  0  0  0  0  0
  139.4380   81.3220  221.9270 C   0  0  0  0  0  0  0  0  0  0  0  0
  140.4720   82.2600  221.9790 C   0  0  0  0  0  0  0  0  0  0  0  0
  141.7980   81.8340  222.0900 C   0  0  0  0  0  0  0  0  0  0  0  0
  142.0940   80.4700  222.1530 C   0  0  0  0  0  0  0  0  0  0  0  0
  141.0640   79.5170  222.1100 C   0  0  0  0  0  0  0  0  0  0  0  0
  141.4250   78.0530  222.2200 C   0  0  0  0  0  0  0  0  0  0  0  0
  139.5280   74.8600  222.3350 N   0  0  0  0  0  0  0  0  0  0  0  0
  140.3170   69.0290  225.9900 C   0  0  0  0  0  0  0  0  0  0  0  0
  140.3757   67.4563  227.4852 H   0  0  0  0  0  0  0  0  0  0  0  0
  140.8341   69.0438  229.3631 H   0  0  0  0  0  0  0  0  0  0  0  0
  140.8036   72.3433  226.6616 H   0  0  0  0  0  0  0  0  0  0  0  0
  140.2041   72.0429  224.4003 H   0  0  0  0  0  0  0  0  0  0  0  0
  141.3025   70.7067  223.8260 H   0  0  0  0  0  0  0  0  0  0  0  0
  139.5273   69.3380  223.1865 H   0  0  0  0  0  0  0  0  0  0  0  0
  138.3360   70.2955  224.1922 H   0  0  0  0  0  0  0  0  0  0  0  0
  139.5418   70.9993  221.4976 H   0  0  0  0  0  0  0  0  0  0  0  0
  137.8000   70.8349  221.9856 H   0  0  0  0  0  0  0  0  0  0  0  0
  137.8810   72.9630  223.0700 H   0  0  0  0  0  0  0  0  0  0  0  0
  144.2508   74.7507  219.3949 H   0  0  0  0  0  0  0  0  0  0  0  0
  144.0639   75.2791  221.1197 H   0  0  0  0  0  0  0  0  0  0  0  0
  146.2996   74.0303  220.0665 H   0  0  0  0  0  0  0  0  0  0  0  0
  145.8080   74.0701  221.8262 H   0  0  0  0  0  0  0  0  0  0  0  0
  145.1080   71.9530  221.7780 H   0  0  0  0  0  0  0  0  0  0  0  0
  146.4240   71.8680  220.7180 H   0  0  0  0  0  0  0  0  0  0  0  0
  144.9040   72.1543  218.8162 H   0  0  0  0  0  0  0  0  0  0  0  0
  144.6600   70.6465  219.7672 H   0  0  0  0  0  0  0  0  0  0  0  0
  142.5680   72.1105  219.1241 H   0  0  0  0  0  0  0  0  0  0  0  0
  142.7153   71.4548  220.8033 H   0  0  0  0  0  0  0  0  0  0  0  0
  138.1759   76.8935  222.3378 H   0  0  0  0  0  0  0  0  0  0  0  0
  138.9684   77.8177  223.6623 H   0  0  0  0  0  0  0  0  0  0  0  0
  138.4226   78.7520  220.8035 H   0  0  0  0  0  0  0  0  0  0  0  0
  137.6996   79.3801  222.3376 H   0  0  0  0  0  0  0  0  0  0  0  0
  138.3963   81.6612  221.8275 H   0  0  0  0  0  0  0  0  0  0  0  0
  140.2420   83.3347  221.9325 H   0  0  0  0  0  0  0  0  0  0  0  0
  142.6108   82.5742  222.1279 H   0  0  0  0  0  0  0  0  0  0  0  0
  143.1403   80.1409  222.2368 H   0  0  0  0  0  0  0  0  0  0  0  0
  142.1211   77.8011  221.4064 H   0  0  0  0  0  0  0  0  0  0  0  0
  141.8790   77.8986  223.2100 H   0  0  0  0  0  0  0  0  0  0  0  0
  140.0927   68.3410  225.1615 H   0  0  0  0  0  0  0  0  0  0  0  0
  1  2  2  0
  2  3  1  0
  3  4  2  0
  4  5  1  0
  5  6  1  0
  6  7  1  0
  7  8  1  0
  8  9  1  0
  9 10  1  0
 10 11  2  0
 11 12  1  0
 12 13  1  0
 13 14  1  0
 14 15  1  0
 15 16  1  0
 16 17  1  0
 17 18  1  0
 12 19  2  0
 19 20  1  0
 20 21  1  0
 21 22  1  0
 22 23  1  0
 23 24  1  0
 24 25  2  0
 25 26  1  0
 26 27  2  0
 27 28  1  0
 28 29  2  0
 29 30  1  0
 20 31  2  0
  5 32  2  0
 32  1  1  0
 31 10  1  0
 18 13  1  0
 30 21  1  0
 29 24  1  0
  1 33  1  0
  2 34  1  0
  4 35  1  0
  6 36  1  0
  6 37  1  0
  7 38  1  0
  7 39  1  0
  8 40  1  0
  8 41  1  0
  9 42  1  0
 14 43  1  0
 14 44  1  0
 15 45  1  0
 15 46  1  0
 16 47  1  0
 16 48  1  0
 17 49  1  0
 17 50  1  0
 18 51  1  0
 18 52  1  0
 22 53  1  0
 22 54  1  0
 23 55  1  0
 23 56  1  0
 25 57  1  0
 26 58  1  0
 27 59  1  0
 28 60  1  0
 30 61  1  0
 30 62  1  0
 32 63  1  0
M  CHG  1  16   1
M  END
>  <UniqueID>  (6) 
625

>  <SMILES>  (6) 
c1cncc(CCCNc2nc(N3CC[NH2+]CC3)nc(N3CCc4ccccc4C3)n2)c1

>  <Energy>  (6) 
63.07039407097215

>  <Genealogy>  (6) 
c1cncc(CCCNc2nc(N3CC[NH2+]CC3)nc(N3CCc4ccccc4C3)n2)c1 (protonated)
c1cncc(CCCNc2nc(N3CC[NH2+]CC3)nc(N3CCc4ccccc4C3)n2)c1 (3D coordinates assigned)
c1cncc(CCCNc2nc(N3CC[NH2+]CC3)nc(N3CCc4ccccc4C3)n2)c1 (nonaromatic ring conformer: 63.07039407097215 kcal/mol)

>  <smiles>  (6) 
c1cncc(CCCNc2nc(N3CCNCC3)nc(N3CCc4ccccc4C3)n2)c1

>  <score_type>  (6) 
oracle

>  <origin>  (6) 
autodockgpu

>  <m_score__min__energy>  (6) 
-9.4199999999999999

>  <m_primary>  (6) 
energy

>  <meeko>  (6) 
{"free_energy": -9.18, "intermolecular_energy": -11.27, "internal_energy": -0.88, "cluster_size": 4, "cluster_id": 1, "rank_in_cluster": 4}

>  <energy>  (6) 
-8.38

>  <cluster_rmsd>  (6) 
0.22

>  <rmsd>  (6) 
270.26

>  <cluster>  (6) 
2

$$$$
JSIQCYHYJBEBBC-RBVFQDFSNA-O
     RDKit          3D

 63 67  0  0  0  0  0  0  0  0999 V2000
  141.3110   72.2840  227.2010 C   0  0  0  0  0  0  0  0  0  0  0  0
  140.8680   71.6000  228.3350 C   0  0  0  0  0  0  0  0  0  0  0  0
  140.1790   70.4350  228.2000 N   0  0  0  0  0  0  0  0  0  0  0  0
  139.9030   69.9040  226.9780 C   0  0  0  0  0  0  0  0  0  0  0  0
  140.3210   70.5600  225.8090 C   0  0  0  0  0  0  0  0  0  0  0  0
  139.9720   70.0030  224.4510 C   0  0  0  0  0  0  0  0  0  0  0  0
  138.5860   70.4550  223.9550 C   0  0  0  0  0  0  0  0  0  0  0  0
  138.6130   71.1530  222.5830 C   0  0  0  0  0  0  0  0  0  0  0  0
  138.5870   72.6110  222.7060 N   0  0  0  0  0  0  0  0  0  0  0  0
  139.6230   73.4580  222.1940 C   0  0  0  0  0  0  0  0  0  0  0  0
  140.6810   72.9300  221.5260 N   0  0  0  0  0  0  0  0  0  0  0  0
  141.6770   73.7280  221.0650 C   0  0  0  0  0  0  0  0  0  0  0  0
  142.8180   73.1530  220.4030 N   0  0  0  0  0  0  0  0  0  0  0  0
  143.8880   74.0110  219.8760 C   0  0  0  0  0  0  0  0  0  0  0  0
  145.2880   73.4110  220.1420 C   0  0  0  0  0  0  0  0  0  0  0  0
  145.2600   71.9730  220.4720 N   0  0  0  0  0  0  0  0  0  0  0  0
  144.2420   71.2550  219.6980 C   0  0  0  0  0  0  0  0  0  0  0  0
  142.8440   71.7100  220.1260 C   0  0  0  0  0  0  0  0  0  0  0  0
  141.5990   75.0700  221.2660 N   0  0  0  0  0  0  0  0  0  0  0  0
  140.5440   75.6110  221.9300 C   0  0  0  0  0  0  0  0  0  0  0  0
  140.4750   77.0310  222.1390 N   0  0  0  0  0  0  0  0  0  0  0  0
  139.2750   77.7680  221.7190 C   0  0  0  0  0  0  0  0  0  0  0  0
  139.6750   79.1260  221.1500 C   0  0  0  0  0  0  0  0  0  0  0  0
  140.5780   79.8650  222.0980 C   0  0  0  0  0  0  0  0  0  0  0  0
  140.6210   81.2680  222.0570 C   0  0  0  0  0  0  0  0  0  0  0  0
  141.5020   81.9710  222.8820 C   0  0  0  0  0  0  0  0  0  0  0  0
  142.3580   81.2800  223.7430 C   0  0  0  0  0  0  0  0  0  0  0  0
  142.3330   79.8840  223.7850 C   0  0  0  0  0  0  0  0  0  0  0  0
  141.4460   79.1640  222.9680 C   0  0  0  0  0  0  0  0  0  0  0  0
  141.4240   77.6560  223.0730 C   0  0  0  0  0  0  0  0  0  0  0  0
  139.5590   74.7980  222.3950 N   0  0  0  0  0  0  0  0  0  0  0  0
  141.0490   71.7560  225.9340 C   0  0  0  0  0  0  0  0  0  0  0  0
  141.8617   73.2306  227.3042 H   0  0  0  0  0  0  0  0  0  0  0  0
  141.0761   72.0032  229.3371 H   0  0  0  0  0  0  0  0  0  0  0  0
  139.3496   68.9561  226.9055 H   0  0  0  0  0  0  0  0  0  0  0  0
  140.7301   70.3395  223.7284 H   0  0  0  0  0  0  0  0  0  0  0  0
  139.9489   68.9069  224.5403 H   0  0  0  0  0  0  0  0  0  0  0  0
  137.9386   69.5688  223.8803 H   0  0  0  0  0  0  0  0  0  0  0  0
  138.2108   71.1912  224.6811 H   0  0  0  0  0  0  0  0  0  0  0  0
  139.5308   70.8581  222.0531 H   0  0  0  0  0  0  0  0  0  0  0  0
  137.7148   70.8440  222.0282 H   0  0  0  0  0  0  0  0  0  0  0  0
  137.7300   73.0590  223.1080 H   0  0  0  0  0  0  0  0  0  0  0  0
  143.7502   74.1261  218.7908 H   0  0  0  0  0  0  0  0  0  0  0  0
  143.8298   74.9833  220.3871 H   0  0  0  0  0  0  0  0  0  0  0  0
  145.9029   73.5493  219.2405 H   0  0  0  0  0  0  0  0  0  0  0  0
  145.7036   73.9350  221.0154 H   0  0  0  0  0  0  0  0  0  0  0  0
  145.0710   71.8510  221.4960 H   0  0  0  0  0  0  0  0  0  0  0  0
  146.2000   71.5580  220.2700 H   0  0  0  0  0  0  0  0  0  0  0  0
  144.3821   71.4655  218.6275 H   0  0  0  0  0  0  0  0  0  0  0  0
  144.3430   70.1751  219.8812 H   0  0  0  0  0  0  0  0  0  0  0  0
  142.1308   71.4864  219.3189 H   0  0  0  0  0  0  0  0  0  0  0  0
  142.5686   71.1731  221.0457 H   0  0  0  0  0  0  0  0  0  0  0  0
  138.7435   77.1912  220.9478 H   0  0  0  0  0  0  0  0  0  0  0  0
  138.6180   77.9178  222.5885 H   0  0  0  0  0  0  0  0  0  0  0  0
  140.2018   78.9749  220.1962 H   0  0  0  0  0  0  0  0  0  0  0  0
  138.7639   79.7233  220.9979 H   0  0  0  0  0  0  0  0  0  0  0  0
  139.9576   81.8161  221.3718 H   0  0  0  0  0  0  0  0  0  0  0  0
  141.5218   83.0705  222.8537 H   0  0  0  0  0  0  0  0  0  0  0  0
  143.0531   81.8363  224.3891 H   0  0  0  0  0  0  0  0  0  0  0  0
  143.0122   79.3453  224.4621 H   0  0  0  0  0  0  0  0  0  0  0  0
  142.4326   77.2743  222.8563 H   0  0  0  0  0  0  0  0  0  0  0  0
  141.1001   77.4008  224.0928 H   0  0  0  0  0  0  0  0  0  0  0  0
  141.4121   72.2759  225.0352 H   0  0  0  0  0  0  0  0  0  0  0  0
  1  2  2  0
  2  3  1  0
  3  4  2  0
  4  5  1  0
  5  6  1  0
  6  7  1  0
  7  8  1  0
  8  9  1  0
  9 10  1  0
 10 11  2  0
 11 12  1  0
 12 13  1  0
 13 14  1  0
 14 15  1  0
 15 16  1  0
 16 17  1  0
 17 18  1  0
 12 19  2  0
 19 20  1  0
 20 21  1  0
 21 22  1  0
 22 23  1  0
 23 24  1  0
 24 25  2  0
 25 26  1  0
 26 27  2  0
 27 28  1  0
 28 29  2  0
 29 30  1  0
 20 31  2  0
  5 32  2  0
 32  1  1  0
 31 10  1  0
 18 13  1  0
 30 21  1  0
 29 24  1  0
  1 33  1  0
  2 34  1  0
  4 35  1  0
  6 36  1  0
  6 37  1  0
  7 38  1  0
  7 39  1  0
  8 40  1  0
  8 41  1  0
  9 42  1  0
 14 43  1  0
 14 44  1  0
 15 45  1  0
 15 46  1  0
 16 47  1  0
 16 48  1  0
 17 49  1  0
 17 50  1  0
 18 51  1  0
 18 52  1  0
 22 53  1  0
 22 54  1  0
 23 55  1  0
 23 56  1  0
 25 57  1  0
 26 58  1  0
 27 59  1  0
 28 60  1  0
 30 61  1  0
 30 62  1  0
 32 63  1  0
M  CHG  1  16   1
M  END
>  <UniqueID>  (7) 
625

>  <SMILES>  (7) 
c1cncc(CCCNc2nc(N3CC[NH2+]CC3)nc(N3CCc4ccccc4C3)n2)c1

>  <Energy>  (7) 
63.07039407097215

>  <Genealogy>  (7) 
c1cncc(CCCNc2nc(N3CC[NH2+]CC3)nc(N3CCc4ccccc4C3)n2)c1 (protonated)
c1cncc(CCCNc2nc(N3CC[NH2+]CC3)nc(N3CCc4ccccc4C3)n2)c1 (3D coordinates assigned)
c1cncc(CCCNc2nc(N3CC[NH2+]CC3)nc(N3CCc4ccccc4C3)n2)c1 (nonaromatic ring conformer: 63.07039407097215 kcal/mol)

>  <smiles>  (7) 
c1cncc(CCCNc2nc(N3CCNCC3)nc(N3CCc4ccccc4C3)n2)c1

>  <score_type>  (7) 
oracle

>  <origin>  (7) 
autodockgpu

>  <m_score__min__energy>  (7) 
-9.4199999999999999

>  <m_primary>  (7) 
energy

>  <meeko>  (7) 
{"free_energy": -9.42, "intermolecular_energy": -11.51, "internal_energy": -0.95, "cluster_size": 4, "cluster_id": 1, "rank_in_cluster": 1}

>  <energy>  (7) 
-8.38

>  <cluster_rmsd>  (7) 
0.07

>  <rmsd>  (7) 
270.29

>  <cluster>  (7) 
2

$$$$
JSIQCYHYJBEBBC-RBVFQDFSNA-O
     RDKit          3D

 63 67  0  0  0  0  0  0  0  0999 V2000
  140.8410   79.3920  223.7070 C   0  0  0  0  0  0  0  0  0  0  0  0
  141.7910   78.6500  223.0010 C   0  0  0  0  0  0  0  0  0  0  0  0
  141.3890   77.7020  222.1120 N   0  0  0  0  0  0  0  0  0  0  0  0
  140.0720   77.4470  221.8830 C   0  0  0  0  0  0  0  0  0  0  0  0
  139.0810   78.1620  222.5760 C   0  0  0  0  0  0  0  0  0  0  0  0
  137.6200   77.8460  222.3650 C   0  0  0  0  0  0  0  0  0  0  0  0
  137.2300   76.4450  222.8690 C   0  0  0  0  0  0  0  0  0  0  0  0
  136.1960   75.7290  221.9790 C   0  0  0  0  0  0  0  0  0  0  0  0
  136.7780   74.5950  221.2610 N   0  0  0  0  0  0  0  0  0  0  0  0
  138.1100   74.1210  221.4940 C   0  0  0  0  0  0  0  0  0  0  0  0
  139.1660   74.6860  220.8540 N   0  0  0  0  0  0  0  0  0  0  0  0
  140.4250   74.2190  221.0530 C   0  0  0  0  0  0  0  0  0  0  0  0
  141.5320   74.7910  220.3310 N   0  0  0  0  0  0  0  0  0  0  0  0
  141.3050   75.5590  219.0990 C   0  0  0  0  0  0  0  0  0  0  0  0
  142.2090   76.8120  219.0300 C   0  0  0  0  0  0  0  0  0  0  0  0
  143.3570   76.7630  219.9550 N   0  0  0  0  0  0  0  0  0  0  0  0
  143.9130   75.4100  220.0630 C   0  0  0  0  0  0  0  0  0  0  0  0
  142.9060   74.4850  220.7520 C   0  0  0  0  0  0  0  0  0  0  0  0
  140.6230   73.1860  221.9130 N   0  0  0  0  0  0  0  0  0  0  0  0
  139.5750   72.6150  222.5620 C   0  0  0  0  0  0  0  0  0  0  0  0
  139.7950   71.5210  223.4670 N   0  0  0  0  0  0  0  0  0  0  0  0
  139.5980   70.1420  223.0010 C   0  0  0  0  0  0  0  0  0  0  0  0
  138.9690   69.3050  224.1100 C   0  0  0  0  0  0  0  0  0  0  0  0
  139.7420   69.4390  225.3930 C   0  0  0  0  0  0  0  0  0  0  0  0
  139.6960   68.4020  226.3380 C   0  0  0  0  0  0  0  0  0  0  0  0
  140.3520   68.5350  227.5650 C   0  0  0  0  0  0  0  0  0  0  0  0
  141.0450   69.7110  227.8640 C   0  0  0  0  0  0  0  0  0  0  0  0
  141.0880   70.7550  226.9370 C   0  0  0  0  0  0  0  0  0  0  0  0
  140.4410   70.6310  225.6970 C   0  0  0  0  0  0  0  0  0  0  0  0
  140.5460   71.7690  224.7080 C   0  0  0  0  0  0  0  0  0  0  0  0
  138.3180   73.0850  222.3460 N   0  0  0  0  0  0  0  0  0  0  0  0
  139.4820   79.1560  223.4850 C   0  0  0  0  0  0  0  0  0  0  0  0
  141.1603   80.1556  224.4316 H   0  0  0  0  0  0  0  0  0  0  0  0
  142.8635   78.8322  223.1638 H   0  0  0  0  0  0  0  0  0  0  0  0
  139.7822   76.6777  221.1521 H   0  0  0  0  0  0  0  0  0  0  0  0
  137.0183   78.5927  222.9039 H   0  0  0  0  0  0  0  0  0  0  0  0
  137.4305   77.8710  221.2817 H   0  0  0  0  0  0  0  0  0  0  0  0
  138.1386   75.8264  222.9113 H   0  0  0  0  0  0  0  0  0  0  0  0
  136.7646   76.5782  223.8568 H   0  0  0  0  0  0  0  0  0  0  0  0
  135.3750   75.3634  222.6132 H   0  0  0  0  0  0  0  0  0  0  0  0
  135.8334   76.4516  221.2332 H   0  0  0  0  0  0  0  0  0  0  0  0
  136.1630   74.0520  220.6100 H   0  0  0  0  0  0  0  0  0  0  0  0
  141.5210   74.9157  218.2332 H   0  0  0  0  0  0  0  0  0  0  0  0
  140.2567   75.8922  219.0914 H   0  0  0  0  0  0  0  0  0  0  0  0
  142.5931   76.9077  218.0037 H   0  0  0  0  0  0  0  0  0  0  0  0
  141.5914   77.6724  219.3273 H   0  0  0  0  0  0  0  0  0  0  0  0
  143.0590   77.0950  220.9030 H   0  0  0  0  0  0  0  0  0  0  0  0
  144.1020   77.4120  219.6090 H   0  0  0  0  0  0  0  0  0  0  0  0
  144.1325   75.0247  219.0564 H   0  0  0  0  0  0  0  0  0  0  0  0
  144.8375   75.4453  220.6580 H   0  0  0  0  0  0  0  0  0  0  0  0
  143.1382   73.4423  220.4897 H   0  0  0  0  0  0  0  0  0  0  0  0
  142.9800   74.6361  221.8391 H   0  0  0  0  0  0  0  0  0  0  0  0
  138.9337   70.1445  222.1243 H   0  0  0  0  0  0  0  0  0  0  0  0
  140.5717   69.7091  222.7280 H   0  0  0  0  0  0  0  0  0  0  0  0
  137.9362   69.6455  224.2754 H   0  0  0  0  0  0  0  0  0  0  0  0
  138.9829   68.2491  223.8020 H   0  0  0  0  0  0  0  0  0  0  0  0
  139.1407   67.4798  226.1116 H   0  0  0  0  0  0  0  0  0  0  0  0
  140.3227   67.7134  228.2958 H   0  0  0  0  0  0  0  0  0  0  0  0
  141.5578   69.8148  228.8316 H   0  0  0  0  0  0  0  0  0  0  0  0
  141.6319   71.6797  227.1798 H   0  0  0  0  0  0  0  0  0  0  0  0
  140.1525   72.6814  225.1799 H   0  0  0  0  0  0  0  0  0  0  0  0
  141.6068   71.8731  224.4364 H   0  0  0  0  0  0  0  0  0  0  0  0
  138.7260   79.7481  224.0216 H   0  0  0  0  0  0  0  0  0  0  0  0
  1  2  2  0
  2  3  1  0
  3  4  2  0
  4  5  1  0
  5  6  1  0
  6  7  1  0
  7  8  1  0
  8  9  1  0
  9 10  1  0
 10 11  2  0
 11 12  1  0
 12 13  1  0
 13 14  1  0
 14 15  1  0
 15 16  1  0
 16 17  1  0
 17 18  1  0
 12 19  2  0
 19 20  1  0
 20 21  1  0
 21 22  1  0
 22 23  1  0
 23 24  1  0
 24 25  2  0
 25 26  1  0
 26 27  2  0
 27 28  1  0
 28 29  2  0
 29 30  1  0
 20 31  2  0
  5 32  2  0
 32  1  1  0
 31 10  1  0
 18 13  1  0
 30 21  1  0
 29 24  1  0
  1 33  1  0
  2 34  1  0
  4 35  1  0
  6 36  1  0
  6 37  1  0
  7 38  1  0
  7 39  1  0
  8 40  1  0
  8 41  1  0
  9 42  1  0
 14 43  1  0
 14 44  1  0
 15 45  1  0
 15 46  1  0
 16 47  1  0
 16 48  1  0
 17 49  1  0
 17 50  1  0
 18 51  1  0
 18 52  1  0
 22 53  1  0
 22 54  1  0
 23 55  1  0
 23 56  1  0
 25 57  1  0
 26 58  1  0
 27 59  1  0
 28 60  1  0
 30 61  1  0
 30 62  1  0
 32 63  1  0
M  CHG  1  16   1
M  END
>  <UniqueID>  (8) 
625

>  <SMILES>  (8) 
c1cncc(CCCNc2nc(N3CC[NH2+]CC3)nc(N3CCc4ccccc4C3)n2)c1

>  <Energy>  (8) 
63.07039407097215

>  <Genealogy>  (8) 
c1cncc(CCCNc2nc(N3CC[NH2+]CC3)nc(N3CCc4ccccc4C3)n2)c1 (protonated)
c1cncc(CCCNc2nc(N3CC[NH2+]CC3)nc(N3CCc4ccccc4C3)n2)c1 (3D coordinates assigned)
c1cncc(CCCNc2nc(N3CC[NH2+]CC3)nc(N3CCc4ccccc4C3)n2)c1 (nonaromatic ring conformer: 63.07039407097215 kcal/mol)

>  <smiles>  (8) 
c1cncc(CCCNc2nc(N3CCNCC3)nc(N3CCc4ccccc4C3)n2)c1

>  <score_type>  (8) 
oracle

>  <origin>  (8) 
autodockgpu

>  <m_score__min__energy>  (8) 
-9.4199999999999999

>  <m_primary>  (8) 
energy

>  <meeko>  (8) 
{"free_energy": -8.38, "intermolecular_energy": -10.46, "internal_energy": -2.3, "cluster_size": 10, "cluster_id": 2, "rank_in_cluster": 3}

>  <energy>  (8) 
-8.35

>  <cluster_rmsd>  (8) 
1.43

>  <rmsd>  (8) 
270.41

>  <cluster>  (8) 
2

$$$$
JSIQCYHYJBEBBC-RBVFQDFSNA-O
     RDKit          3D

 63 67  0  0  0  0  0  0  0  0999 V2000
  145.7540   73.6600  221.2000 C   0  0  0  0  0  0  0  0  0  0  0  0
  146.6550   73.4010  220.1640 C   0  0  0  0  0  0  0  0  0  0  0  0
  146.1940   73.0210  218.9420 N   0  0  0  0  0  0  0  0  0  0  0  0
  144.8640   72.8820  218.6890 C   0  0  0  0  0  0  0  0  0  0  0  0
  143.9210   73.1230  219.7020 C   0  0  0  0  0  0  0  0  0  0  0  0
  142.4490   72.9190  219.4420 C   0  0  0  0  0  0  0  0  0  0  0  0
  141.7400   74.2020  218.9700 C   0  0  0  0  0  0  0  0  0  0  0  0
  142.0420   75.4370  219.8390 C   0  0  0  0  0  0  0  0  0  0  0  0
  141.5910   75.2620  221.2200 N   0  0  0  0  0  0  0  0  0  0  0  0
  140.4690   74.4470  221.5800 C   0  0  0  0  0  0  0  0  0  0  0  0
  139.2160   74.7800  221.1770 N   0  0  0  0  0  0  0  0  0  0  0  0
  138.1490   74.0240  221.5400 C   0  0  0  0  0  0  0  0  0  0  0  0
  136.8180   74.4130  221.1500 N   0  0  0  0  0  0  0  0  0  0  0  0
  135.8670   74.9270  222.1450 C   0  0  0  0  0  0  0  0  0  0  0  0
  135.0490   76.1170  221.5950 C   0  0  0  0  0  0  0  0  0  0  0  0
  135.0780   76.2240  220.1240 N   0  0  0  0  0  0  0  0  0  0  0  0
  135.0590   74.9060  219.4810 C   0  0  0  0  0  0  0  0  0  0  0  0
  136.3650   74.1620  219.7760 C   0  0  0  0  0  0  0  0  0  0  0  0
  138.3480   72.9170  222.3030 N   0  0  0  0  0  0  0  0  0  0  0  0
  139.5970   72.5720  222.7100 C   0  0  0  0  0  0  0  0  0  0  0  0
  139.7950   71.4000  223.5180 N   0  0  0  0  0  0  0  0  0  0  0  0
  139.5570   70.0710  222.9400 C   0  0  0  0  0  0  0  0  0  0  0  0
  138.9150   69.1610  223.9820 C   0  0  0  0  0  0  0  0  0  0  0  0
  139.7000   69.1670  225.2640 C   0  0  0  0  0  0  0  0  0  0  0  0
  139.6330   68.0550  226.1190 C   0  0  0  0  0  0  0  0  0  0  0  0
  140.3000   68.0680  227.3470 C   0  0  0  0  0  0  0  0  0  0  0  0
  141.0270   69.1960  227.7370 C   0  0  0  0  0  0  0  0  0  0  0  0
  141.0910   70.3130  226.9000 C   0  0  0  0  0  0  0  0  0  0  0  0
  140.4330   70.3100  225.6600 C   0  0  0  0  0  0  0  0  0  0  0  0
  140.5600   71.5240  224.7680 C   0  0  0  0  0  0  0  0  0  0  0  0
  140.6550   73.3430  222.3470 N   0  0  0  0  0  0  0  0  0  0  0  0
  144.3820   73.5330  220.9650 C   0  0  0  0  0  0  0  0  0  0  0  0
  146.1213   73.9613  222.1921 H   0  0  0  0  0  0  0  0  0  0  0  0
  147.7365   73.5043  220.3365 H   0  0  0  0  0  0  0  0  0  0  0  0
  144.5259   72.5796  217.6869 H   0  0  0  0  0  0  0  0  0  0  0  0
  142.3333   72.1483  218.6657 H   0  0  0  0  0  0  0  0  0  0  0  0
  141.9850   72.6161  220.3922 H   0  0  0  0  0  0  0  0  0  0  0  0
  142.0611   74.4163  217.9400 H   0  0  0  0  0  0  0  0  0  0  0  0
  140.6585   74.0154  219.0448 H   0  0  0  0  0  0  0  0  0  0  0  0
  143.1278   75.6130  219.8401 H   0  0  0  0  0  0  0  0  0  0  0  0
  141.4994   76.2930  219.4114 H   0  0  0  0  0  0  0  0  0  0  0  0
  142.1680   75.6830  221.9870 H   0  0  0  0  0  0  0  0  0  0  0  0
  135.1754   74.1195  222.4270 H   0  0  0  0  0  0  0  0  0  0  0  0
  136.4397   75.2788  223.0158 H   0  0  0  0  0  0  0  0  0  0  0  0
  134.0032   75.9973  221.9144 H   0  0  0  0  0  0  0  0  0  0  0  0
  135.5060   77.0345  221.9942 H   0  0  0  0  0  0  0  0  0  0  0  0
  135.9370   76.7450  219.8260 H   0  0  0  0  0  0  0  0  0  0  0  0
  134.2460   76.7730  219.8040 H   0  0  0  0  0  0  0  0  0  0  0  0
  134.2113   74.3228  219.8700 H   0  0  0  0  0  0  0  0  0  0  0  0
  134.9541   75.0355  218.3937 H   0  0  0  0  0  0  0  0  0  0  0  0
  136.2012   73.0824  219.6434 H   0  0  0  0  0  0  0  0  0  0  0  0
  137.1377   74.5241  219.0819 H   0  0  0  0  0  0  0  0  0  0  0  0
  138.8856   70.1646  222.0737 H   0  0  0  0  0  0  0  0  0  0  0  0
  140.5161   69.6371  222.6209 H   0  0  0  0  0  0  0  0  0  0  0  0
  137.8928   69.5129  224.1851 H   0  0  0  0  0  0  0  0  0  0  0  0
  138.8995   68.1345  223.5869 H   0  0  0  0  0  0  0  0  0  0  0  0
  139.0527   67.1694  225.8207 H   0  0  0  0  0  0  0  0  0  0  0  0
  140.2527   67.1895  228.0073 H   0  0  0  0  0  0  0  0  0  0  0  0
  141.5498   69.2045  228.7048 H   0  0  0  0  0  0  0  0  0  0  0  0
  141.6604   71.2000  227.2146 H   0  0  0  0  0  0  0  0  0  0  0  0
  140.1932   72.4032  225.3179 H   0  0  0  0  0  0  0  0  0  0  0  0
  141.6212   71.6237  224.4963 H   0  0  0  0  0  0  0  0  0  0  0  0
  143.6634   73.7538  221.7680 H   0  0  0  0  0  0  0  0  0  0  0  0
  1  2  2  0
  2  3  1  0
  3  4  2  0
  4  5  1  0
  5  6  1  0
  6  7  1  0
  7  8  1  0
  8  9  1  0
  9 10  1  0
 10 11  2  0
 11 12  1  0
 12 13  1  0
 13 14  1  0
 14 15  1  0
 15 16  1  0
 16 17  1  0
 17 18  1  0
 12 19  2  0
 19 20  1  0
 20 21  1  0
 21 22  1  0
 22 23  1  0
 23 24  1  0
 24 25  2  0
 25 26  1  0
 26 27  2  0
 27 28  1  0
 28 29  2  0
 29 30  1  0
 20 31  2  0
  5 32  2  0
 32  1  1  0
 31 10  1  0
 18 13  1  0
 30 21  1  0
 29 24  1  0
  1 33  1  0
  2 34  1  0
  4 35  1  0
  6 36  1  0
  6 37  1  0
  7 38  1  0
  7 39  1  0
  8 40  1  0
  8 41  1  0
  9 42  1  0
 14 43  1  0
 14 44  1  0
 15 45  1  0
 15 46  1  0
 16 47  1  0
 16 48  1  0
 17 49  1  0
 17 50  1  0
 18 51  1  0
 18 52  1  0
 22 53  1  0
 22 54  1  0
 23 55  1  0
 23 56  1  0
 25 57  1  0
 26 58  1  0
 27 59  1  0
 28 60  1  0
 30 61  1  0
 30 62  1  0
 32 63  1  0
M  CHG  1  16   1
M  END
>  <UniqueID>  (9) 
625

>  <SMILES>  (9) 
c1cncc(CCCNc2nc(N3CC[NH2+]CC3)nc(N3CCc4ccccc4C3)n2)c1

>  <Energy>  (9) 
63.07039407097215

>  <Genealogy>  (9) 
c1cncc(CCCNc2nc(N3CC[NH2+]CC3)nc(N3CCc4ccccc4C3)n2)c1 (protonated)
c1cncc(CCCNc2nc(N3CC[NH2+]CC3)nc(N3CCc4ccccc4C3)n2)c1 (3D coordinates assigned)
c1cncc(CCCNc2nc(N3CC[NH2+]CC3)nc(N3CCc4ccccc4C3)n2)c1 (nonaromatic ring conformer: 63.07039407097215 kcal/mol)

>  <smiles>  (9) 
c1cncc(CCCNc2nc(N3CCNCC3)nc(N3CCc4ccccc4C3)n2)c1

>  <score_type>  (9) 
oracle

>  <origin>  (9) 
autodockgpu

>  <m_score__min__energy>  (9) 
-9.4199999999999999

>  <m_primary>  (9) 
energy

>  <meeko>  (9) 
{"free_energy": -7.95, "intermolecular_energy": -10.04, "internal_energy": -1.14, "cluster_size": 1, "cluster_id": 5, "rank_in_cluster": 1}

>  <energy>  (9) 
-8.24

>  <cluster_rmsd>  (9) 
1.25

>  <rmsd>  (9) 
270.29

>  <cluster>  (9) 
2

$$$$
JSIQCYHYJBEBBC-RBVFQDFSNA-O
     RDKit          3D

 63 67  0  0  0  0  0  0  0  0999 V2000
  134.3110   72.1810  225.5080 C   0  0  0  0  0  0  0  0  0  0  0  0
  133.5630   72.7690  226.5310 C   0  0  0  0  0  0  0  0  0  0  0  0
  133.5790   74.1190  226.6950 N   0  0  0  0  0  0  0  0  0  0  0  0
  134.3100   74.9310  225.8830 C   0  0  0  0  0  0  0  0  0  0  0  0
  135.0840   74.3850  224.8460 C   0  0  0  0  0  0  0  0  0  0  0  0
  135.9380   75.2750  223.9770 C   0  0  0  0  0  0  0  0  0  0  0  0
  135.4950   75.2760  222.5020 C   0  0  0  0  0  0  0  0  0  0  0  0
  135.9890   74.0560  221.7020 C   0  0  0  0  0  0  0  0  0  0  0  0
  137.2340   74.3340  220.9860 N   0  0  0  0  0  0  0  0  0  0  0  0
  138.5170   73.8950  221.4460 C   0  0  0  0  0  0  0  0  0  0  0  0
  139.6540   74.4700  220.9750 N   0  0  0  0  0  0  0  0  0  0  0  0
  140.8710   74.0370  221.3890 C   0  0  0  0  0  0  0  0  0  0  0  0
  142.0710   74.6190  220.8460 N   0  0  0  0  0  0  0  0  0  0  0  0
  143.3320   73.8650  220.8390 C   0  0  0  0  0  0  0  0  0  0  0  0
  144.1110   74.0620  219.5180 C   0  0  0  0  0  0  0  0  0  0  0  0
  143.6690   75.2370  218.7420 N   0  0  0  0  0  0  0  0  0  0  0  0
  143.3190   76.3650  219.6130 C   0  0  0  0  0  0  0  0  0  0  0  0
  142.0660   76.0270  220.4250 C   0  0  0  0  0  0  0  0  0  0  0  0
  140.9440   73.0270  222.2960 N   0  0  0  0  0  0  0  0  0  0  0  0
  139.8140   72.4460  222.7770 C   0  0  0  0  0  0  0  0  0  0  0  0
  139.9040   71.3770  223.7330 N   0  0  0  0  0  0  0  0  0  0  0  0
  139.5580   70.0080  223.3260 C   0  0  0  0  0  0  0  0  0  0  0  0
  138.8300   69.2980  224.4620 C   0  0  0  0  0  0  0  0  0  0  0  0
  139.6010   69.4040  225.7490 C   0  0  0  0  0  0  0  0  0  0  0  0
  139.4310   68.4220  226.7380 C   0  0  0  0  0  0  0  0  0  0  0  0
  140.0870   68.5380  227.9660 C   0  0  0  0  0  0  0  0  0  0  0  0
  140.9040   69.6410  228.2230 C   0  0  0  0  0  0  0  0  0  0  0  0
  141.0720   70.6310  227.2510 C   0  0  0  0  0  0  0  0  0  0  0  0
  140.4260   70.5230  226.0090 C   0  0  0  0  0  0  0  0  0  0  0  0
  140.6660   71.5970  224.9720 C   0  0  0  0  0  0  0  0  0  0  0  0
  138.6020   72.8830  222.3460 N   0  0  0  0  0  0  0  0  0  0  0  0
  135.0640   72.9920  224.6550 C   0  0  0  0  0  0  0  0  0  0  0  0
  134.3072   71.0891  225.3752 H   0  0  0  0  0  0  0  0  0  0  0  0
  132.9613   72.1402  227.2037 H   0  0  0  0  0  0  0  0  0  0  0  0
  134.2944   76.0197  226.0397 H   0  0  0  0  0  0  0  0  0  0  0  0
  135.8781   76.3036  224.3622 H   0  0  0  0  0  0  0  0  0  0  0  0
  136.9654   74.8837  224.0128 H   0  0  0  0  0  0  0  0  0  0  0  0
  134.3955   75.2890  222.4704 H   0  0  0  0  0  0  0  0  0  0  0  0
  135.9410   76.1665  222.0349 H   0  0  0  0  0  0  0  0  0  0  0  0
  136.1589   73.2210  222.3976 H   0  0  0  0  0  0  0  0  0  0  0  0
  135.2191   73.8053  220.9574 H   0  0  0  0  0  0  0  0  0  0  0  0
  137.1730   74.7990  220.0490 H   0  0  0  0  0  0  0  0  0  0  0  0
  143.9574   74.2091  221.6759 H   0  0  0  0  0  0  0  0  0  0  0  0
  143.0920   72.7961  220.9385 H   0  0  0  0  0  0  0  0  0  0  0  0
  145.1775   74.1846  219.7580 H   0  0  0  0  0  0  0  0  0  0  0  0
  143.9219   73.1746  218.8962 H   0  0  0  0  0  0  0  0  0  0  0  0
  142.8410   74.9790  218.1540 H   0  0  0  0  0  0  0  0  0  0  0  0
  144.4400   75.5290  218.0970 H   0  0  0  0  0  0  0  0  0  0  0  0
  144.1543   76.5689  220.2991 H   0  0  0  0  0  0  0  0  0  0  0  0
  143.1210   77.2526  218.9942 H   0  0  0  0  0  0  0  0  0  0  0  0
  142.0328   76.6686  221.3179 H   0  0  0  0  0  0  0  0  0  0  0  0
  141.1830   76.1987  219.7918 H   0  0  0  0  0  0  0  0  0  0  0  0
  138.9057   70.0443  222.4410 H   0  0  0  0  0  0  0  0  0  0  0  0
  140.4795   69.4574  223.0860 H   0  0  0  0  0  0  0  0  0  0  0  0
  137.8400   69.7581  224.5973 H   0  0  0  0  0  0  0  0  0  0  0  0
  138.7295   68.2340  224.2015 H   0  0  0  0  0  0  0  0  0  0  0  0
  138.7785   67.5577  226.5451 H   0  0  0  0  0  0  0  0  0  0  0  0
  139.9597   67.7589  228.7320 H   0  0  0  0  0  0  0  0  0  0  0  0
  141.4163   69.7308  229.1923 H   0  0  0  0  0  0  0  0  0  0  0  0
  141.7138   71.4995  227.4601 H   0  0  0  0  0  0  0  0  0  0  0  0
  140.3716   72.5677  225.3974 H   0  0  0  0  0  0  0  0  0  0  0  0
  141.7344   71.5714  224.7114 H   0  0  0  0  0  0  0  0  0  0  0  0
  135.6410   72.5409  223.8343 H   0  0  0  0  0  0  0  0  0  0  0  0
  1  2  2  0
  2  3  1  0
  3  4  2  0
  4  5  1  0
  5  6  1  0
  6  7  1  0
  7  8  1  0
  8  9  1  0
  9 10  1  0
 10 11  2  0
 11 12  1  0
 12 13  1  0
 13 14  1  0
 14 15  1  0
 15 16  1  0
 16 17  1  0
 17 18  1  0
 12 19  2  0
 19 20  1  0
 20 21  1  0
 21 22  1  0
 22 23  1  0
 23 24  1  0
 24 25  2  0
 25 26  1  0
 26 27  2  0
 27 28  1  0
 28 29  2  0
 29 30  1  0
 20 31  2  0
  5 32  2  0
 32  1  1  0
 31 10  1  0
 18 13  1  0
 30 21  1  0
 29 24  1  0
  1 33  1  0
  2 34  1  0
  4 35  1  0
  6 36  1  0
  6 37  1  0
  7 38  1  0
  7 39  1  0
  8 40  1  0
  8 41  1  0
  9 42  1  0
 14 43  1  0
 14 44  1  0
 15 45  1  0
 15 46  1  0
 16 47  1  0
 16 48  1  0
 17 49  1  0
 17 50  1  0
 18 51  1  0
 18 52  1  0
 22 53  1  0
 22 54  1  0
 23 55  1  0
 23 56  1  0
 25 57  1  0
 26 58  1  0
 27 59  1  0
 28 60  1  0
 30 61  1  0
 30 62  1  0
 32 63  1  0
M  CHG  1  16   1
M  END
>  <UniqueID>  (10) 
625

>  <SMILES>  (10) 
c1cncc(CCCNc2nc(N3CC[NH2+]CC3)nc(N3CCc4ccccc4C3)n2)c1

>  <Energy>  (10) 
63.07039407097215

>  <Genealogy>  (10) 
c1cncc(CCCNc2nc(N3CC[NH2+]CC3)nc(N3CCc4ccccc4C3)n2)c1 (protonated)
c1cncc(CCCNc2nc(N3CC[NH2+]CC3)nc(N3CCc4ccccc4C3)n2)c1 (3D coordinates assigned)
c1cncc(CCCNc2nc(N3CC[NH2+]CC3)nc(N3CCc4ccccc4C3)n2)c1 (nonaromatic ring conformer: 63.07039407097215 kcal/mol)

>  <smiles>  (10) 
c1cncc(CCCNc2nc(N3CCNCC3)nc(N3CCc4ccccc4C3)n2)c1

>  <score_type>  (10) 
oracle

>  <origin>  (10) 
autodockgpu

>  <m_score__min__energy>  (10) 
-9.4199999999999999

>  <m_primary>  (10) 
energy

>  <meeko>  (10) 
{"free_energy": -8.33, "intermolecular_energy": -10.42, "internal_energy": -1.08, "cluster_size": 1, "cluster_id": 3, "rank_in_cluster": 1}

>  <energy>  (10) 
-8.14

>  <cluster_rmsd>  (10) 
1.44

>  <rmsd>  (10) 
270.34

>  <cluster>  (10) 
2

$$$$
JSIQCYHYJBEBBC-RBVFQDFSNA-O
     RDKit          3D

 63 67  0  0  0  0  0  0  0  0999 V2000
  140.7780   79.3890  223.7760 C   0  0  0  0  0  0  0  0  0  0  0  0
  141.7560   78.6490  223.1080 C   0  0  0  0  0  0  0  0  0  0  0  0
  141.3920   77.7090  222.1950 N   0  0  0  0  0  0  0  0  0  0  0  0
  140.0860   77.4610  221.9050 C   0  0  0  0  0  0  0  0  0  0  0  0
  139.0670   78.1740  222.5570 C   0  0  0  0  0  0  0  0  0  0  0  0
  137.6160   77.8670  222.2780 C   0  0  0  0  0  0  0  0  0  0  0  0
  137.1890   76.4770  222.7860 C   0  0  0  0  0  0  0  0  0  0  0  0
  136.1710   75.7660  221.8750 C   0  0  0  0  0  0  0  0  0  0  0  0
  136.7300   74.5640  221.2570 N   0  0  0  0  0  0  0  0  0  0  0  0
  138.0650   74.1070  221.5010 C   0  0  0  0  0  0  0  0  0  0  0  0
  139.1190   74.6760  220.8600 N   0  0  0  0  0  0  0  0  0  0  0  0
  140.3820   74.2260  221.0690 C   0  0  0  0  0  0  0  0  0  0  0  0
  141.4860   74.8020  220.3470 N   0  0  0  0  0  0  0  0  0  0  0  0
  141.2530   75.5900  219.1290 C   0  0  0  0  0  0  0  0  0  0  0  0
  142.1640   76.8380  219.0710 C   0  0  0  0  0  0  0  0  0  0  0  0
  143.3200   76.7690  219.9850 N   0  0  0  0  0  0  0  0  0  0  0  0
  143.8690   75.4110  220.0670 C   0  0  0  0  0  0  0  0  0  0  0  0
  142.8610   74.4820  220.7510 C   0  0  0  0  0  0  0  0  0  0  0  0
  140.5860   73.2040  221.9420 N   0  0  0  0  0  0  0  0  0  0  0  0
  139.5410   72.6280  222.5920 C   0  0  0  0  0  0  0  0  0  0  0  0
  139.7700   71.5460  223.5100 N   0  0  0  0  0  0  0  0  0  0  0  0
  139.5820   70.1610  223.0590 C   0  0  0  0  0  0  0  0  0  0  0  0
  138.9590   69.3330  224.1780 C   0  0  0  0  0  0  0  0  0  0  0  0
  139.7310   69.4870  225.4600 C   0  0  0  0  0  0  0  0  0  0  0  0
  139.6920   68.4600  226.4160 C   0  0  0  0  0  0  0  0  0  0  0  0
  140.3460   68.6120  227.6420 C   0  0  0  0  0  0  0  0  0  0  0  0
  141.0310   69.7960  227.9270 C   0  0  0  0  0  0  0  0  0  0  0  0
  141.0680   70.8300  226.9880 C   0  0  0  0  0  0  0  0  0  0  0  0
  140.4220   70.6870  225.7500 C   0  0  0  0  0  0  0  0  0  0  0  0
  140.5180   71.8150  224.7470 C   0  0  0  0  0  0  0  0  0  0  0  0
  138.2810   73.0830  222.3650 N   0  0  0  0  0  0  0  0  0  0  0  0
  139.4300   79.1610  223.4910 C   0  0  0  0  0  0  0  0  0  0  0  0
  141.0671   80.1453  224.5206 H   0  0  0  0  0  0  0  0  0  0  0  0
  142.8206   78.8264  223.3203 H   0  0  0  0  0  0  0  0  0  0  0  0
  139.8271   76.6981  221.1560 H   0  0  0  0  0  0  0  0  0  0  0  0
  136.9948   78.6278  222.7733 H   0  0  0  0  0  0  0  0  0  0  0  0
  137.4808   77.8754  221.1864 H   0  0  0  0  0  0  0  0  0  0  0  0
  138.0863   75.8452  222.8621 H   0  0  0  0  0  0  0  0  0  0  0  0
  136.6965   76.6293  223.7577 H   0  0  0  0  0  0  0  0  0  0  0  0
  135.2954   75.4809  222.4767 H   0  0  0  0  0  0  0  0  0  0  0  0
  135.8931   76.4623  221.0701 H   0  0  0  0  0  0  0  0  0  0  0  0
  136.0960   73.9640  220.6780 H   0  0  0  0  0  0  0  0  0  0  0  0
  141.4573   74.9587  218.2517 H   0  0  0  0  0  0  0  0  0  0  0  0
  140.2068   75.9297  219.1358 H   0  0  0  0  0  0  0  0  0  0  0  0
  142.5397   76.9467  218.0429 H   0  0  0  0  0  0  0  0  0  0  0  0
  141.5541   77.6972  219.3869 H   0  0  0  0  0  0  0  0  0  0  0  0
  143.0320   77.0880  220.9400 H   0  0  0  0  0  0  0  0  0  0  0  0
  144.0660   77.4180  219.6420 H   0  0  0  0  0  0  0  0  0  0  0  0
  144.0772   75.0398  219.0527 H   0  0  0  0  0  0  0  0  0  0  0  0
  144.7993   75.4311  220.6537 H   0  0  0  0  0  0  0  0  0  0  0  0
  143.0844   73.4418  220.4714 H   0  0  0  0  0  0  0  0  0  0  0  0
  142.9450   74.6173  221.8394 H   0  0  0  0  0  0  0  0  0  0  0  0
  138.9172   70.1494  222.1827 H   0  0  0  0  0  0  0  0  0  0  0  0
  140.5581   69.7312  222.7897 H   0  0  0  0  0  0  0  0  0  0  0  0
  137.9239   69.6684  224.3395 H   0  0  0  0  0  0  0  0  0  0  0  0
  138.9806   68.2737  223.8823 H   0  0  0  0  0  0  0  0  0  0  0  0
  139.1441   67.5311  226.1994 H   0  0  0  0  0  0  0  0  0  0  0  0
  140.3214   67.7992  228.3827 H   0  0  0  0  0  0  0  0  0  0  0  0
  141.5427   69.9144  228.8935 H   0  0  0  0  0  0  0  0  0  0  0  0
  141.6061   71.7609  227.2201 H   0  0  0  0  0  0  0  0  0  0  0  0
  140.1168   72.7296  225.2079 H   0  0  0  0  0  0  0  0  0  0  0  0
  141.5780   71.9250  224.4745 H   0  0  0  0  0  0  0  0  0  0  0  0
  138.6527   79.7529  223.9966 H   0  0  0  0  0  0  0  0  0  0  0  0
  1  2  2  0
  2  3  1  0
  3  4  2  0
  4  5  1  0
  5  6  1  0
  6  7  1  0
  7  8  1  0
  8  9  1  0
  9 10  1  0
 10 11  2  0
 11 12  1  0
 12 13  1  0
 13 14  1  0
 14 15  1  0
 15 16  1  0
 16 17  1  0
 17 18  1  0
 12 19  2  0
 19 20  1  0
 20 21  1  0
 21 22  1  0
 22 23  1  0
 23 24  1  0
 24 25  2  0
 25 26  1  0
 26 27  2  0
 27 28  1  0
 28 29  2  0
 29 30  1  0
 20 31  2  0
  5 32  2  0
 32  1  1  0
 31 10  1  0
 18 13  1  0
 30 21  1  0
 29 24  1  0
  1 33  1  0
  2 34  1  0
  4 35  1  0
  6 36  1  0
  6 37  1  0
  7 38  1  0
  7 39  1  0
  8 40  1  0
  8 41  1  0
  9 42  1  0
 14 43  1  0
 14 44  1  0
 15 45  1  0
 15 46  1  0
 16 47  1  0
 16 48  1  0
 17 49  1  0
 17 50  1  0
 18 51  1  0
 18 52  1  0
 22 53  1  0
 22 54  1  0
 23 55  1  0
 23 56  1  0
 25 57  1  0
 26 58  1  0
 27 59  1  0
 28 60  1  0
 30 61  1  0
 30 62  1  0
 32 63  1  0
M  CHG  1  16   1
M  END
>  <UniqueID>  (11) 
625

>  <SMILES>  (11) 
c1cncc(CCCNc2nc(N3CC[NH2+]CC3)nc(N3CCc4ccccc4C3)n2)c1

>  <Energy>  (11) 
63.07039407097215

>  <Genealogy>  (11) 
c1cncc(CCCNc2nc(N3CC[NH2+]CC3)nc(N3CCc4ccccc4C3)n2)c1 (protonated)
c1cncc(CCCNc2nc(N3CC[NH2+]CC3)nc(N3CCc4ccccc4C3)n2)c1 (3D coordinates assigned)
c1cncc(CCCNc2nc(N3CC[NH2+]CC3)nc(N3CCc4ccccc4C3)n2)c1 (nonaromatic ring conformer: 63.07039407097215 kcal/mol)

>  <smiles>  (11) 
c1cncc(CCCNc2nc(N3CCNCC3)nc(N3CCc4ccccc4C3)n2)c1

>  <score_type>  (11) 
oracle

>  <origin>  (11) 
autodockgpu

>  <m_score__min__energy>  (11) 
-9.4199999999999999

>  <m_primary>  (11) 
energy

>  <meeko>  (11) 
{"free_energy": -8.39, "intermolecular_energy": -10.48, "internal_energy": -2.3, "cluster_size": 10, "cluster_id": 2, "rank_in_cluster": 1}

>  <energy>  (11) 
-8.11

>  <cluster_rmsd>  (11) 
0.39

>  <rmsd>  (11) 
270.2

>  <cluster>  (11) 
2

$$$$
JSIQCYHYJBEBBC-RBVFQDFSNA-O
     RDKit          3D

 63 67  0  0  0  0  0  0  0  0999 V2000
  140.6870   79.4060  223.8030 C   0  0  0  0  0  0  0  0  0  0  0  0
  141.6940   78.6340  223.2190 C   0  0  0  0  0  0  0  0  0  0  0  0
  141.3690   77.6180  222.3750 N   0  0  0  0  0  0  0  0  0  0  0  0
  140.0750   77.3220  222.0750 C   0  0  0  0  0  0  0  0  0  0  0  0
  139.0280   78.0650  222.6460 C   0  0  0  0  0  0  0  0  0  0  0  0
  137.5900   77.7070  222.3590 C   0  0  0  0  0  0  0  0  0  0  0  0
  137.1580   76.3840  223.0180 C   0  0  0  0  0  0  0  0  0  0  0  0
  136.0870   75.6130  222.2220 C   0  0  0  0  0  0  0  0  0  0  0  0
  136.6650   74.5310  221.4260 N   0  0  0  0  0  0  0  0  0  0  0  0
  138.0010   74.0490  221.6120 C   0  0  0  0  0  0  0  0  0  0  0  0
  139.0440   74.6380  220.9720 N   0  0  0  0  0  0  0  0  0  0  0  0
  140.3070   74.1650  221.1260 C   0  0  0  0  0  0  0  0  0  0  0  0
  141.3980   74.7650  220.4030 N   0  0  0  0  0  0  0  0  0  0  0  0
  141.1440   75.5940  219.2170 C   0  0  0  0  0  0  0  0  0  0  0  0
  142.0560   76.8420  219.1850 C   0  0  0  0  0  0  0  0  0  0  0  0
  143.2290   76.7400  220.0740 N   0  0  0  0  0  0  0  0  0  0  0  0
  143.7760   75.3790  220.0990 C   0  0  0  0  0  0  0  0  0  0  0  0
  142.7800   74.4280  220.7700 C   0  0  0  0  0  0  0  0  0  0  0  0
  140.5220   73.1000  221.9420 N   0  0  0  0  0  0  0  0  0  0  0  0
  139.4880   72.5040  222.5900 C   0  0  0  0  0  0  0  0  0  0  0  0
  139.7280   71.3770  223.4490 N   0  0  0  0  0  0  0  0  0  0  0  0
  139.5580   70.0160  222.9230 C   0  0  0  0  0  0  0  0  0  0  0  0
  138.9430   69.1200  223.9940 C   0  0  0  0  0  0  0  0  0  0  0  0
  139.7100   69.2140  225.2840 C   0  0  0  0  0  0  0  0  0  0  0  0
  139.6820   68.1360  226.1830 C   0  0  0  0  0  0  0  0  0  0  0  0
  140.3320   68.2290  227.4160 C   0  0  0  0  0  0  0  0  0  0  0  0
  141.0020   69.4030  227.7680 C   0  0  0  0  0  0  0  0  0  0  0  0
  141.0270   70.4870  226.8870 C   0  0  0  0  0  0  0  0  0  0  0  0
  140.3860   70.4040  225.6410 C   0  0  0  0  0  0  0  0  0  0  0  0
  140.4700   71.5860  224.7010 C   0  0  0  0  0  0  0  0  0  0  0  0
  138.2270   72.9820  222.4190 N   0  0  0  0  0  0  0  0  0  0  0  0
  139.3500   79.1280  223.5060 C   0  0  0  0  0  0  0  0  0  0  0  0
  140.9440   80.2254  224.4904 H   0  0  0  0  0  0  0  0  0  0  0  0
  142.7498   78.8477  223.4416 H   0  0  0  0  0  0  0  0  0  0  0  0
  139.8478   76.4978  221.3828 H   0  0  0  0  0  0  0  0  0  0  0  0
  136.9453   78.5142  222.7370 H   0  0  0  0  0  0  0  0  0  0  0  0
  137.4926   77.5805  221.2706 H   0  0  0  0  0  0  0  0  0  0  0  0
  138.0448   75.7411  223.1189 H   0  0  0  0  0  0  0  0  0  0  0  0
  136.7115   76.6411  223.9899 H   0  0  0  0  0  0  0  0  0  0  0  0
  135.3604   75.1846  222.9281 H   0  0  0  0  0  0  0  0  0  0  0  0
  135.6040   76.3202  221.5317 H   0  0  0  0  0  0  0  0  0  0  0  0
  136.0440   74.0280  220.7480 H   0  0  0  0  0  0  0  0  0  0  0  0
  141.3311   74.9927  218.3151 H   0  0  0  0  0  0  0  0  0  0  0  0
  140.0986   75.9344  219.2543 H   0  0  0  0  0  0  0  0  0  0  0  0
  142.4124   76.9858  218.1543 H   0  0  0  0  0  0  0  0  0  0  0  0
  141.4538   77.6905  219.5420 H   0  0  0  0  0  0  0  0  0  0  0  0
  142.9590   77.0260  221.0450 H   0  0  0  0  0  0  0  0  0  0  0  0
  143.9690   77.4000  219.7400 H   0  0  0  0  0  0  0  0  0  0  0  0
  143.9638   75.0426  219.0687 H   0  0  0  0  0  0  0  0  0  0  0  0
  144.7172   75.3778  220.6684 H   0  0  0  0  0  0  0  0  0  0  0  0
  142.9956   73.3978  220.4503 H   0  0  0  0  0  0  0  0  0  0  0  0
  142.8854   74.5242  221.8607 H   0  0  0  0  0  0  0  0  0  0  0  0
  138.8951   70.0439  222.0457 H   0  0  0  0  0  0  0  0  0  0  0  0
  140.5400   69.6137  222.6335 H   0  0  0  0  0  0  0  0  0  0  0  0
  137.9033   69.4328  224.1706 H   0  0  0  0  0  0  0  0  0  0  0  0
  138.9787   68.0787  223.6413 H   0  0  0  0  0  0  0  0  0  0  0  0
  139.1457   67.2137  225.9152 H   0  0  0  0  0  0  0  0  0  0  0  0
  140.3162   67.3763  228.1108 H   0  0  0  0  0  0  0  0  0  0  0  0
  141.5109   69.4742  228.7406 H   0  0  0  0  0  0  0  0  0  0  0  0
  141.5520   71.4108  227.1714 H   0  0  0  0  0  0  0  0  0  0  0  0
  140.0569   72.4692  225.2103 H   0  0  0  0  0  0  0  0  0  0  0  0
  141.5292   71.7227  224.4374 H   0  0  0  0  0  0  0  0  0  0  0  0
  138.5498   79.7415  223.9456 H   0  0  0  0  0  0  0  0  0  0  0  0
  1  2  2  0
  2  3  1  0
  3  4  2  0
  4  5  1  0
  5  6  1  0
  6  7  1  0
  7  8  1  0
  8  9  1  0
  9 10  1  0
 10 11  2  0
 11 12  1  0
 12 13  1  0
 13 14  1  0
 14 15  1  0
 15 16  1  0
 16 17  1  0
 17 18  1  0
 12 19  2  0
 19 20  1  0
 20 21  1  0
 21 22  1  0
 22 23  1  0
 23 24  1  0
 24 25  2  0
 25 26  1  0
 26 27  2  0
 27 28  1  0
 28 29  2  0
 29 30  1  0
 20 31  2  0
  5 32  2  0
 32  1  1  0
 31 10  1  0
 18 13  1  0
 30 21  1  0
 29 24  1  0
  1 33  1  0
  2 34  1  0
  4 35  1  0
  6 36  1  0
  6 37  1  0
  7 38  1  0
  7 39  1  0
  8 40  1  0
  8 41  1  0
  9 42  1  0
 14 43  1  0
 14 44  1  0
 15 45  1  0
 15 46  1  0
 16 47  1  0
 16 48  1  0
 17 49  1  0
 17 50  1  0
 18 51  1  0
 18 52  1  0
 22 53  1  0
 22 54  1  0
 23 55  1  0
 23 56  1  0
 25 57  1  0
 26 58  1  0
 27 59  1  0
 28 60  1  0
 30 61  1  0
 30 62  1  0
 32 63  1  0
M  CHG  1  16   1
M  END
>  <UniqueID>  (12) 
625

>  <SMILES>  (12) 
c1cncc(CCCNc2nc(N3CC[NH2+]CC3)nc(N3CCc4ccccc4C3)n2)c1

>  <Energy>  (12) 
63.07039407097215

>  <Genealogy>  (12) 
c1cncc(CCCNc2nc(N3CC[NH2+]CC3)nc(N3CCc4ccccc4C3)n2)c1 (protonated)
c1cncc(CCCNc2nc(N3CC[NH2+]CC3)nc(N3CCc4ccccc4C3)n2)c1 (3D coordinates assigned)
c1cncc(CCCNc2nc(N3CC[NH2+]CC3)nc(N3CCc4ccccc4C3)n2)c1 (nonaromatic ring conformer: 63.07039407097215 kcal/mol)

>  <smiles>  (12) 
c1cncc(CCCNc2nc(N3CCNCC3)nc(N3CCc4ccccc4C3)n2)c1

>  <score_type>  (12) 
oracle

>  <origin>  (12) 
autodockgpu

>  <m_score__min__energy>  (12) 
-9.4199999999999999

>  <m_primary>  (12) 
energy

>  <meeko>  (12) 
{"free_energy": -8.38, "intermolecular_energy": -10.47, "internal_energy": -2.28, "cluster_size": 10, "cluster_id": 2, "rank_in_cluster": 2}

>  <energy>  (12) 
-6.99

>  <cluster_rmsd>  (12) 
1.53

>  <rmsd>  (12) 
269.92

>  <cluster>  (12) 
2

$$$$
JSIQCYHYJBEBBC-RBVFQDFSNA-O
     RDKit          3D

 63 67  0  0  0  0  0  0  0  0999 V2000
  141.1000   78.9170  223.2710 C   0  0  0  0  0  0  0  0  0  0  0  0
  139.7040   78.9410  223.2150 C   0  0  0  0  0  0  0  0  0  0  0  0
  139.0660   78.6710  222.0450 N   0  0  0  0  0  0  0  0  0  0  0  0
  139.7510   78.3710  220.9080 C   0  0  0  0  0  0  0  0  0  0  0  0
  141.1560   78.3420  220.9140 C   0  0  0  0  0  0  0  0  0  0  0  0
  141.9210   78.0630  219.6440 C   0  0  0  0  0  0  0  0  0  0  0  0
  141.5660   76.7020  219.0170 C   0  0  0  0  0  0  0  0  0  0  0  0
  142.4910   75.5520  219.4600 C   0  0  0  0  0  0  0  0  0  0  0  0
  142.2880   75.1910  220.8630 N   0  0  0  0  0  0  0  0  0  0  0  0
  141.0620   74.6420  221.3610 C   0  0  0  0  0  0  0  0  0  0  0  0
  139.8900   75.3080  221.1960 N   0  0  0  0  0  0  0  0  0  0  0  0
  138.7310   74.8020  221.6920 C   0  0  0  0  0  0  0  0  0  0  0  0
  137.5020   75.5400  221.5570 N   0  0  0  0  0  0  0  0  0  0  0  0
  136.6180   75.7380  222.7130 C   0  0  0  0  0  0  0  0  0  0  0  0
  136.0350   77.1700  222.7510 C   0  0  0  0  0  0  0  0  0  0  0  0
  136.1360   77.8830  221.4640 N   0  0  0  0  0  0  0  0  0  0  0  0
  135.9140   76.9850  220.3250 C   0  0  0  0  0  0  0  0  0  0  0  0
  137.0630   75.9760  220.2250 C   0  0  0  0  0  0  0  0  0  0  0  0
  138.7520   73.6100  222.3440 N   0  0  0  0  0  0  0  0  0  0  0  0
  139.9180   72.9330  222.5110 C   0  0  0  0  0  0  0  0  0  0  0  0
  139.9280   71.6740  223.2050 N   0  0  0  0  0  0  0  0  0  0  0  0
  139.5290   70.4520  222.4960 C   0  0  0  0  0  0  0  0  0  0  0  0
  138.7350   69.5460  223.4320 C   0  0  0  0  0  0  0  0  0  0  0  0
  139.4740   69.3210  224.7220 C   0  0  0  0  0  0  0  0  0  0  0  0
  139.2280   68.1550  225.4640 C   0  0  0  0  0  0  0  0  0  0  0  0
  139.8530   67.9580  226.6980 C   0  0  0  0  0  0  0  0  0  0  0  0
  140.7150   68.9320  227.2090 C   0  0  0  0  0  0  0  0  0  0  0  0
  140.9580   70.1030  226.4870 C   0  0  0  0  0  0  0  0  0  0  0  0
  140.3440   70.3090  225.2410 C   0  0  0  0  0  0  0  0  0  0  0  0
  140.6640   71.5720  224.4750 C   0  0  0  0  0  0  0  0  0  0  0  0
  141.0720   73.4560  222.0190 N   0  0  0  0  0  0  0  0  0  0  0  0
  141.8280   78.6030  222.1200 C   0  0  0  0  0  0  0  0  0  0  0  0
  141.6214   79.1433  224.2128 H   0  0  0  0  0  0  0  0  0  0  0  0
  139.1213   79.1783  224.1173 H   0  0  0  0  0  0  0  0  0  0  0  0
  139.2026   78.1503  219.9803 H   0  0  0  0  0  0  0  0  0  0  0  0
  141.6929   78.8551  218.9157 H   0  0  0  0  0  0  0  0  0  0  0  0
  142.9902   78.0389  219.9013 H   0  0  0  0  0  0  0  0  0  0  0  0
  140.5348   76.4471  219.3027 H   0  0  0  0  0  0  0  0  0  0  0  0
  141.6875   76.8094  217.9290 H   0  0  0  0  0  0  0  0  0  0  0  0
  142.2862   74.6710  218.8340 H   0  0  0  0  0  0  0  0  0  0  0  0
  143.5312   75.8908  219.3448 H   0  0  0  0  0  0  0  0  0  0  0  0
  143.1050   75.2560  221.5150 H   0  0  0  0  0  0  0  0  0  0  0  0
  135.7889   75.0174  222.6549 H   0  0  0  0  0  0  0  0  0  0  0  0
  137.2107   75.5856  223.6270 H   0  0  0  0  0  0  0  0  0  0  0  0
  134.9731   77.1058  223.0306 H   0  0  0  0  0  0  0  0  0  0  0  0
  136.6266   77.7398  223.4827 H   0  0  0  0  0  0  0  0  0  0  0  0
  137.0820   78.3260  221.3800 H   0  0  0  0  0  0  0  0  0  0  0  0
  135.4220   78.6480  221.4400 H   0  0  0  0  0  0  0  0  0  0  0  0
  134.9658   76.4453  220.4653 H   0  0  0  0  0  0  0  0  0  0  0  0
  135.8708   77.5778  219.3994 H   0  0  0  0  0  0  0  0  0  0  0  0
  136.7226   75.0994  219.6543 H   0  0  0  0  0  0  0  0  0  0  0  0
  137.9109   76.4614  219.7195 H   0  0  0  0  0  0  0  0  0  0  0  0
  138.9049   70.7194  221.6306 H   0  0  0  0  0  0  0  0  0  0  0  0
  140.4294   69.9206  222.1542 H   0  0  0  0  0  0  0  0  0  0  0  0
  137.7652   70.0167  223.6508 H   0  0  0  0  0  0  0  0  0  0  0  0
  138.5898   68.5740  222.9380 H   0  0  0  0  0  0  0  0  0  0  0  0
  138.5393   67.3922  225.0717 H   0  0  0  0  0  0  0  0  0  0  0  0
  139.6664   67.0357  227.2676 H   0  0  0  0  0  0  0  0  0  0  0  0
  141.2034   68.7762  228.1822 H   0  0  0  0  0  0  0  0  0  0  0  0
  141.6340   70.8679  226.8968 H   0  0  0  0  0  0  0  0  0  0  0  0
  140.4041   72.4378  225.1017 H   0  0  0  0  0  0  0  0  0  0  0  0
  141.7369   71.5485  224.2335 H   0  0  0  0  0  0  0  0  0  0  0  0
  142.9265   78.5602  222.1583 H   0  0  0  0  0  0  0  0  0  0  0  0
  1  2  2  0
  2  3  1  0
  3  4  2  0
  4  5  1  0
  5  6  1  0
  6  7  1  0
  7  8  1  0
  8  9  1  0
  9 10  1  0
 10 11  2  0
 11 12  1  0
 12 13  1  0
 13 14  1  0
 14 15  1  0
 15 16  1  0
 16 17  1  0
 17 18  1  0
 12 19  2  0
 19 20  1  0
 20 21  1  0
 21 22  1  0
 22 23  1  0
 23 24  1  0
 24 25  2  0
 25 26  1  0
 26 27  2  0
 27 28  1  0
 28 29  2  0
 29 30  1  0
 20 31  2  0
  5 32  2  0
 32  1  1  0
 31 10  1  0
 18 13  1  0
 30 21  1  0
 29 24  1  0
  1 33  1  0
  2 34  1  0
  4 35  1  0
  6 36  1  0
  6 37  1  0
  7 38  1  0
  7 39  1  0
  8 40  1  0
  8 41  1  0
  9 42  1  0
 14 43  1  0
 14 44  1  0
 15 45  1  0
 15 46  1  0
 16 47  1  0
 16 48  1  0
 17 49  1  0
 17 50  1  0
 18 51  1  0
 18 52  1  0
 22 53  1  0
 22 54  1  0
 23 55  1  0
 23 56  1  0
 25 57  1  0
 26 58  1  0
 27 59  1  0
 28 60  1  0
 30 61  1  0
 30 62  1  0
 32 63  1  0
M  CHG  1  16   1
M  END
>  <UniqueID>  (13) 
625

>  <SMILES>  (13) 
c1cncc(CCCNc2nc(N3CC[NH2+]CC3)nc(N3CCc4ccccc4C3)n2)c1

>  <Energy>  (13) 
63.07039407097215

>  <Genealogy>  (13) 
c1cncc(CCCNc2nc(N3CC[NH2+]CC3)nc(N3CCc4ccccc4C3)n2)c1 (protonated)
c1cncc(CCCNc2nc(N3CC[NH2+]CC3)nc(N3CCc4ccccc4C3)n2)c1 (3D coordinates assigned)
c1cncc(CCCNc2nc(N3CC[NH2+]CC3)nc(N3CCc4ccccc4C3)n2)c1 (nonaromatic ring conformer: 63.07039407097215 kcal/mol)

>  <smiles>  (13) 
c1cncc(CCCNc2nc(N3CCNCC3)nc(N3CCc4ccccc4C3)n2)c1

>  <score_type>  (13) 
oracle

>  <origin>  (13) 
autodockgpu

>  <m_score__min__energy>  (13) 
-9.4199999999999999

>  <m_primary>  (13) 
energy

>  <meeko>  (13) 
{"free_energy": -6.92, "intermolecular_energy": -9.0, "internal_energy": -2.44, "cluster_size": 10, "cluster_id": 2, "rank_in_cluster": 9}

>  <energy>  (13) 
-6.92

>  <cluster_rmsd>  (13) 
1.67

>  <rmsd>  (13) 
269.93

>  <cluster>  (13) 
2

$$$$
JSIQCYHYJBEBBC-RBVFQDFSNA-O
     RDKit          3D

 63 67  0  0  0  0  0  0  0  0999 V2000
  140.6540   78.2600  222.8650 C   0  0  0  0  0  0  0  0  0  0  0  0
  139.2640   78.2620  222.7270 C   0  0  0  0  0  0  0  0  0  0  0  0
  138.7020   78.0690  221.5030 N   0  0  0  0  0  0  0  0  0  0  0  0
  139.4600   77.8710  220.3900 C   0  0  0  0  0  0  0  0  0  0  0  0
  140.8620   77.8690  220.4780 C   0  0  0  0  0  0  0  0  0  0  0  0
  141.7070   77.7030  219.2390 C   0  0  0  0  0  0  0  0  0  0  0  0
  142.8990   76.7510  219.4500 C   0  0  0  0  0  0  0  0  0  0  0  0
  142.4930   75.2740  219.6190 C   0  0  0  0  0  0  0  0  0  0  0  0
  142.2340   74.9310  221.0170 N   0  0  0  0  0  0  0  0  0  0  0  0
  141.0100   74.3370  221.4630 C   0  0  0  0  0  0  0  0  0  0  0  0
  139.8140   74.8890  221.1330 N   0  0  0  0  0  0  0  0  0  0  0  0
  138.6530   74.3440  221.5790 C   0  0  0  0  0  0  0  0  0  0  0  0
  137.3930   74.9670  221.2650 N   0  0  0  0  0  0  0  0  0  0  0  0
  136.3800   75.1710  222.3090 C   0  0  0  0  0  0  0  0  0  0  0  0
  135.6900   76.5490  222.1770 C   0  0  0  0  0  0  0  0  0  0  0  0
  135.8720   77.1750  220.8530 N   0  0  0  0  0  0  0  0  0  0  0  0
  135.8390   76.1840  219.7720 C   0  0  0  0  0  0  0  0  0  0  0  0
  137.0640   75.2690  219.8660 C   0  0  0  0  0  0  0  0  0  0  0  0
  138.6980   73.2260  222.3500 N   0  0  0  0  0  0  0  0  0  0  0  0
  139.8880   72.6620  222.6840 C   0  0  0  0  0  0  0  0  0  0  0  0
  139.9220   71.4820  223.5030 N   0  0  0  0  0  0  0  0  0  0  0  0
  139.5360   70.1870  222.9260 C   0  0  0  0  0  0  0  0  0  0  0  0
  138.7630   69.3710  223.9560 C   0  0  0  0  0  0  0  0  0  0  0  0
  139.5150   69.2900  225.2560 C   0  0  0  0  0  0  0  0  0  0  0  0
  139.2930   68.2010  226.1150 C   0  0  0  0  0  0  0  0  0  0  0  0
  139.9300   68.1410  227.3570 C   0  0  0  0  0  0  0  0  0  0  0  0
  140.7800   69.1740  227.7590 C   0  0  0  0  0  0  0  0  0  0  0  0
  141.0000   70.2690  226.9180 C   0  0  0  0  0  0  0  0  0  0  0  0
  140.3740   70.3380  225.6630 C   0  0  0  0  0  0  0  0  0  0  0  0
  140.6690   71.5200  224.7690 C   0  0  0  0  0  0  0  0  0  0  0  0
  141.0420   73.2250  222.2390 N   0  0  0  0  0  0  0  0  0  0  0  0
  141.4550   78.0500  221.7400 C   0  0  0  0  0  0  0  0  0  0  0  0
  141.1139   78.4224  223.8510 H   0  0  0  0  0  0  0  0  0  0  0  0
  138.6239   78.4196  223.6076 H   0  0  0  0  0  0  0  0  0  0  0  0
  138.9724   77.7118  219.4169 H   0  0  0  0  0  0  0  0  0  0  0  0
  141.0745   77.3005  218.4341 H   0  0  0  0  0  0  0  0  0  0  0  0
  142.1154   78.6918  218.9829 H   0  0  0  0  0  0  0  0  0  0  0  0
  143.5646   76.8301  218.5778 H   0  0  0  0  0  0  0  0  0  0  0  0
  143.3917   77.0568  220.3847 H   0  0  0  0  0  0  0  0  0  0  0  0
  141.5808   75.0877  219.0332 H   0  0  0  0  0  0  0  0  0  0  0  0
  143.3280   74.6507  219.2665 H   0  0  0  0  0  0  0  0  0  0  0  0
  143.0140   75.0430  221.7070 H   0  0  0  0  0  0  0  0  0  0  0  0
  135.6184   74.3818  222.2254 H   0  0  0  0  0  0  0  0  0  0  0  0
  136.8831   75.1323  223.2864 H   0  0  0  0  0  0  0  0  0  0  0  0
  134.6125   76.4171  222.3544 H   0  0  0  0  0  0  0  0  0  0  0  0
  136.1565   77.2162  222.9168 H   0  0  0  0  0  0  0  0  0  0  0  0
  136.7850   77.6880  220.8290 H   0  0  0  0  0  0  0  0  0  0  0  0
  135.1090   77.8750  220.6990 H   0  0  0  0  0  0  0  0  0  0  0  0
  134.9244   75.5792  219.8595 H   0  0  0  0  0  0  0  0  0  0  0  0
  135.8493   76.7046  218.8030 H   0  0  0  0  0  0  0  0  0  0  0  0
  136.8515   74.3288  219.3360 H   0  0  0  0  0  0  0  0  0  0  0  0
  137.9213   75.7853  219.4094 H   0  0  0  0  0  0  0  0  0  0  0  0
  138.9017   70.3553  222.0432 H   0  0  0  0  0  0  0  0  0  0  0  0
  140.4419   69.6362  222.6327 H   0  0  0  0  0  0  0  0  0  0  0  0
  137.7878   69.8478  224.1339 H   0  0  0  0  0  0  0  0  0  0  0  0
  138.6287   68.3515  223.5654 H   0  0  0  0  0  0  0  0  0  0  0  0
  138.6143   67.3915  225.8083 H   0  0  0  0  0  0  0  0  0  0  0  0
  139.7619   67.2790  228.0193 H   0  0  0  0  0  0  0  0  0  0  0  0
  141.2772   69.1259  228.7391 H   0  0  0  0  0  0  0  0  0  0  0  0
  141.6675   71.0813  227.2414 H   0  0  0  0  0  0  0  0  0  0  0  0
  140.4016   72.4417  225.3065 H   0  0  0  0  0  0  0  0  0  0  0  0
  141.7401   71.4862  224.5208 H   0  0  0  0  0  0  0  0  0  0  0  0
  142.5501   78.0262  221.8414 H   0  0  0  0  0  0  0  0  0  0  0  0
  1  2  2  0
  2  3  1  0
  3  4  2  0
  4  5  1  0
  5  6  1  0
  6  7  1  0
  7  8  1  0
  8  9  1  0
  9 10  1  0
 10 11  2  0
 11 12  1  0
 12 13  1  0
 13 14  1  0
 14 15  1  0
 15 16  1  0
 16 17  1  0
 17 18  1  0
 12 19  2  0
 19 20  1  0
 20 21  1  0
 21 22  1  0
 22 23  1  0
 23 24  1  0
 24 25  2  0
 25 26  1  0
 26 27  2  0
 27 28  1  0
 28 29  2  0
 29 30  1  0
 20 31  2  0
  5 32  2  0
 32  1  1  0
 31 10  1  0
 18 13  1  0
 30 21  1  0
 29 24  1  0
  1 33  1  0
  2 34  1  0
  4 35  1  0
  6 36  1  0
  6 37  1  0
  7 38  1  0
  7 39  1  0
  8 40  1  0
  8 41  1  0
  9 42  1  0
 14 43  1  0
 14 44  1  0
 15 45  1  0
 15 46  1  0
 16 47  1  0
 16 48  1  0
 17 49  1  0
 17 50  1  0
 18 51  1  0
 18 52  1  0
 22 53  1  0
 22 54  1  0
 23 55  1  0
 23 56  1  0
 25 57  1  0
 26 58  1  0
 27 59  1  0
 28 60  1  0
 30 61  1  0
 30 62  1  0
 32 63  1  0
M  CHG  1  16   1
M  END
>  <UniqueID>  (14) 
625

>  <SMILES>  (14) 
c1cncc(CCCNc2nc(N3CC[NH2+]CC3)nc(N3CCc4ccccc4C3)n2)c1

>  <Energy>  (14) 
63.07039407097215

>  <Genealogy>  (14) 
c1cncc(CCCNc2nc(N3CC[NH2+]CC3)nc(N3CCc4ccccc4C3)n2)c1 (protonated)
c1cncc(CCCNc2nc(N3CC[NH2+]CC3)nc(N3CCc4ccccc4C3)n2)c1 (3D coordinates assigned)
c1cncc(CCCNc2nc(N3CC[NH2+]CC3)nc(N3CCc4ccccc4C3)n2)c1 (nonaromatic ring conformer: 63.07039407097215 kcal/mol)

>  <smiles>  (14) 
c1cncc(CCCNc2nc(N3CCNCC3)nc(N3CCc4ccccc4C3)n2)c1

>  <score_type>  (14) 
oracle

>  <origin>  (14) 
autodockgpu

>  <m_score__min__energy>  (14) 
-9.4199999999999999

>  <m_primary>  (14) 
energy

>  <meeko>  (14) 
{"free_energy": -6.86, "intermolecular_energy": -8.94, "internal_energy": -2.51, "cluster_size": 10, "cluster_id": 2, "rank_in_cluster": 10}

>  <energy>  (14) 
-6.86

>  <cluster_rmsd>  (14) 
1.52

>  <rmsd>  (14) 
269.77

>  <cluster>  (14) 
2

$$$$
JSIQCYHYJBEBBC-RBVFQDFSNA-O
     RDKit          3D

 63 67  0  0  0  0  0  0  0  0999 V2000
  140.5600   78.9730  223.4730 C   0  0  0  0  0  0  0  0  0  0  0  0
  139.2100   78.8050  223.1550 C   0  0  0  0  0  0  0  0  0  0  0  0
  138.8540   78.3310  221.9310 N   0  0  0  0  0  0  0  0  0  0  0  0
  139.7830   78.0070  220.9900 C   0  0  0  0  0  0  0  0  0  0  0  0
  141.1520   78.1670  221.2610 C   0  0  0  0  0  0  0  0  0  0  0  0
  142.1830   77.8600  220.2030 C   0  0  0  0  0  0  0  0  0  0  0  0
  141.7680   76.7010  219.2790 C   0  0  0  0  0  0  0  0  0  0  0  0
  142.4990   75.3770  219.5740 C   0  0  0  0  0  0  0  0  0  0  0  0
  142.2960   74.9300  220.9520 N   0  0  0  0  0  0  0  0  0  0  0  0
  141.0630   74.3710  221.4200 C   0  0  0  0  0  0  0  0  0  0  0  0
  139.8800   74.9780  221.1430 N   0  0  0  0  0  0  0  0  0  0  0  0
  138.7140   74.4640  221.6090 C   0  0  0  0  0  0  0  0  0  0  0  0
  137.4700   75.1420  221.3520 N   0  0  0  0  0  0  0  0  0  0  0  0
  136.4800   75.3200  222.4230 C   0  0  0  0  0  0  0  0  0  0  0  0
  135.8330   76.7240  222.3790 C   0  0  0  0  0  0  0  0  0  0  0  0
  136.0140   77.4170  221.0890 N   0  0  0  0  0  0  0  0  0  0  0  0
  135.9330   76.4890  219.9560 C   0  0  0  0  0  0  0  0  0  0  0  0
  137.1290   75.5330  219.9780 C   0  0  0  0  0  0  0  0  0  0  0  0
  138.7380   73.3240  222.3480 N   0  0  0  0  0  0  0  0  0  0  0  0
  139.9150   72.7060  222.6290 C   0  0  0  0  0  0  0  0  0  0  0  0
  139.9280   71.5020  223.4140 N   0  0  0  0  0  0  0  0  0  0  0  0
  139.5070   70.2340  222.8050 C   0  0  0  0  0  0  0  0  0  0  0  0
  138.7240   69.4070  223.8190 C   0  0  0  0  0  0  0  0  0  0  0  0
  139.4840   69.2720  225.1090 C   0  0  0  0  0  0  0  0  0  0  0  0
  139.2440   68.1650  225.9390 C   0  0  0  0  0  0  0  0  0  0  0  0
  139.8900   68.0550  227.1730 C   0  0  0  0  0  0  0  0  0  0  0  0
  140.7680   69.0560  227.5960 C   0  0  0  0  0  0  0  0  0  0  0  0
  141.0060   70.1680  226.7840 C   0  0  0  0  0  0  0  0  0  0  0  0
  140.3710   70.2880  225.5380 C   0  0  0  0  0  0  0  0  0  0  0  0
  140.6870   71.4880  224.6750 C   0  0  0  0  0  0  0  0  0  0  0  0
  141.0760   73.2370  222.1640 N   0  0  0  0  0  0  0  0  0  0  0  0
  141.5350   78.6400  222.5280 C   0  0  0  0  0  0  0  0  0  0  0  0
  140.8533   79.3639  224.4585 H   0  0  0  0  0  0  0  0  0  0  0  0
  138.4352   79.0560  223.8944 H   0  0  0  0  0  0  0  0  0  0  0  0
  139.4601   77.6181  220.0130 H   0  0  0  0  0  0  0  0  0  0  0  0
  142.3350   78.7604  219.5897 H   0  0  0  0  0  0  0  0  0  0  0  0
  143.1050   77.5555  220.7198 H   0  0  0  0  0  0  0  0  0  0  0  0
  140.6872   76.5339  219.3966 H   0  0  0  0  0  0  0  0  0  0  0  0
  142.0400   76.9953  218.2546 H   0  0  0  0  0  0  0  0  0  0  0  0
  142.1197   74.6029  218.8908 H   0  0  0  0  0  0  0  0  0  0  0  0
  143.5762   75.5458  219.4285 H   0  0  0  0  0  0  0  0  0  0  0  0
  143.1180   74.9400  221.6020 H   0  0  0  0  0  0  0  0  0  0  0  0
  135.6920   74.5610  222.3093 H   0  0  0  0  0  0  0  0  0  0  0  0
  136.9968   75.2116  223.3880 H   0  0  0  0  0  0  0  0  0  0  0  0
  134.7547   76.6162  222.5677 H   0  0  0  0  0  0  0  0  0  0  0  0
  136.3326   77.3339  223.1460 H   0  0  0  0  0  0  0  0  0  0  0  0
  136.9430   77.9020  221.0780 H   0  0  0  0  0  0  0  0  0  0  0  0
  135.2720   78.1480  220.9870 H   0  0  0  0  0  0  0  0  0  0  0  0
  135.0011   75.9088  220.0258 H   0  0  0  0  0  0  0  0  0  0  0  0
  135.9451   77.0621  219.0172 H   0  0  0  0  0  0  0  0  0  0  0  0
  136.8785   74.6313  219.3999 H   0  0  0  0  0  0  0  0  0  0  0  0
  137.9952   76.0479  219.5368 H   0  0  0  0  0  0  0  0  0  0  0  0
  138.8691   70.4419  221.9333 H   0  0  0  0  0  0  0  0  0  0  0  0
  140.3972   69.6709  222.4880 H   0  0  0  0  0  0  0  0  0  0  0  0
  137.7616   69.9008  224.0189 H   0  0  0  0  0  0  0  0  0  0  0  0
  138.5633   68.4022  223.4011 H   0  0  0  0  0  0  0  0  0  0  0  0
  138.5439   67.3805  225.6160 H   0  0  0  0  0  0  0  0  0  0  0  0
  139.7070   67.1789  227.8125 H   0  0  0  0  0  0  0  0  0  0  0  0
  141.2726   68.9686  228.5695 H   0  0  0  0  0  0  0  0  0  0  0  0
  141.6957   70.9547  227.1236 H   0  0  0  0  0  0  0  0  0  0  0  0
  140.4455   72.4003  225.2402 H   0  0  0  0  0  0  0  0  0  0  0  0
  141.7551   71.4372  224.4170 H   0  0  0  0  0  0  0  0  0  0  0  0
  142.6013   78.7481  222.7758 H   0  0  0  0  0  0  0  0  0  0  0  0
  1  2  2  0
  2  3  1  0
  3  4  2  0
  4  5  1  0
  5  6  1  0
  6  7  1  0
  7  8  1  0
  8  9  1  0
  9 10  1  0
 10 11  2  0
 11 12  1  0
 12 13  1  0
 13 14  1  0
 14 15  1  0
 15 16  1  0
 16 17  1  0
 17 18  1  0
 12 19  2  0
 19 20  1  0
 20 21  1  0
 21 22  1  0
 22 23  1  0
 23 24  1  0
 24 25  2  0
 25 26  1  0
 26 27  2  0
 27 28  1  0
 28 29  2  0
 29 30  1  0
 20 31  2  0
  5 32  2  0
 32  1  1  0
 31 10  1  0
 18 13  1  0
 30 21  1  0
 29 24  1  0
  1 33  1  0
  2 34  1  0
  4 35  1  0
  6 36  1  0
  6 37  1  0
  7 38  1  0
  7 39  1  0
  8 40  1  0
  8 41  1  0
  9 42  1  0
 14 43  1  0
 14 44  1  0
 15 45  1  0
 15 46  1  0
 16 47  1  0
 16 48  1  0
 17 49  1  0
 17 50  1  0
 18 51  1  0
 18 52  1  0
 22 53  1  0
 22 54  1  0
 23 55  1  0
 23 56  1  0
 25 57  1  0
 26 58  1  0
 27 59  1  0
 28 60  1  0
 30 61  1  0
 30 62  1  0
 32 63  1  0
M  CHG  1  16   1
M  END
>  <UniqueID>  (15) 
625

>  <SMILES>  (15) 
c1cncc(CCCNc2nc(N3CC[NH2+]CC3)nc(N3CCc4ccccc4C3)n2)c1

>  <Energy>  (15) 
63.07039407097215

>  <Genealogy>  (15) 
c1cncc(CCCNc2nc(N3CC[NH2+]CC3)nc(N3CCc4ccccc4C3)n2)c1 (protonated)
c1cncc(CCCNc2nc(N3CC[NH2+]CC3)nc(N3CCc4ccccc4C3)n2)c1 (3D coordinates assigned)
c1cncc(CCCNc2nc(N3CC[NH2+]CC3)nc(N3CCc4ccccc4C3)n2)c1 (nonaromatic ring conformer: 63.07039407097215 kcal/mol)

>  <smiles>  (15) 
c1cncc(CCCNc2nc(N3CCNCC3)nc(N3CCc4ccccc4C3)n2)c1

>  <score_type>  (15) 
oracle

>  <origin>  (15) 
autodockgpu

>  <m_score__min__energy>  (15) 
-9.4199999999999999

>  <m_primary>  (15) 
energy

>  <meeko>  (15) 
{"free_energy": -6.99, "intermolecular_energy": -9.08, "internal_energy": -2.37, "cluster_size": 10, "cluster_id": 2, "rank_in_cluster": 8}

>  <energy>  (15) 
-8.33

>  <cluster_rmsd>  (15) 
0.0

>  <rmsd>  (15) 
269.87

>  <cluster>  (15) 
3

$$$$
JSIQCYHYJBEBBC-RBVFQDFSNA-O
     RDKit          3D

 63 67  0  0  0  0  0  0  0  0999 V2000
  144.2660   73.0990  220.6160 C   0  0  0  0  0  0  0  0  0  0  0  0
  144.3110   74.4850  220.7880 C   0  0  0  0  0  0  0  0  0  0  0  0
  143.7020   75.3020  219.8870 N   0  0  0  0  0  0  0  0  0  0  0  0
  143.0380   74.8080  218.8060 C   0  0  0  0  0  0  0  0  0  0  0  0
  142.9720   73.4220  218.5880 C   0  0  0  0  0  0  0  0  0  0  0  0
  142.2830   72.8720  217.3630 C   0  0  0  0  0  0  0  0  0  0  0  0
  141.5390   71.5520  217.6360 C   0  0  0  0  0  0  0  0  0  0  0  0
  140.0190   71.6340  217.4000 C   0  0  0  0  0  0  0  0  0  0  0  0
  139.2570   71.3930  218.6250 N   0  0  0  0  0  0  0  0  0  0  0  0
  139.4990   72.0970  219.8490 C   0  0  0  0  0  0  0  0  0  0  0  0
  139.6860   73.4420  219.8460 N   0  0  0  0  0  0  0  0  0  0  0  0
  139.9440   74.1070  221.0010 C   0  0  0  0  0  0  0  0  0  0  0  0
  140.1910   75.5250  220.9820 N   0  0  0  0  0  0  0  0  0  0  0  0
  140.0470   76.3270  222.2040 C   0  0  0  0  0  0  0  0  0  0  0  0
  141.1730   77.3790  222.3360 C   0  0  0  0  0  0  0  0  0  0  0  0
  141.8850   77.6430  221.0710 N   0  0  0  0  0  0  0  0  0  0  0  0
  140.9770   77.6180  219.9190 C   0  0  0  0  0  0  0  0  0  0  0  0
  140.4500   76.1960  219.7010 C   0  0  0  0  0  0  0  0  0  0  0  0
  139.9980   73.4130  222.1690 N   0  0  0  0  0  0  0  0  0  0  0  0
  139.8090   72.0680  222.1850 C   0  0  0  0  0  0  0  0  0  0  0  0
  139.8720   71.3450  223.4250 N   0  0  0  0  0  0  0  0  0  0  0  0
  139.4220   69.9470  223.4730 C   0  0  0  0  0  0  0  0  0  0  0  0
  138.7010   69.6800  224.7900 C   0  0  0  0  0  0  0  0  0  0  0  0
  139.5320   70.1230  225.9620 C   0  0  0  0  0  0  0  0  0  0  0  0
  139.3430   69.5120  227.2120 C   0  0  0  0  0  0  0  0  0  0  0  0
  140.0570   69.9550  228.3290 C   0  0  0  0  0  0  0  0  0  0  0  0
  140.9530   71.0200  228.2100 C   0  0  0  0  0  0  0  0  0  0  0  0
  141.1410   71.6440  226.9740 C   0  0  0  0  0  0  0  0  0  0  0  0
  140.4370   71.2040  225.8420 C   0  0  0  0  0  0  0  0  0  0  0  0
  140.6990   71.8820  224.5160 C   0  0  0  0  0  0  0  0  0  0  0  0
  139.5620   71.4140  221.0190 N   0  0  0  0  0  0  0  0  0  0  0  0
  143.5830   72.5650  219.5200 C   0  0  0  0  0  0  0  0  0  0  0  0
  144.7639   72.4340  221.3371 H   0  0  0  0  0  0  0  0  0  0  0  0
  144.8388   74.9153  221.6519 H   0  0  0  0  0  0  0  0  0  0  0  0
  142.5511   75.4972  218.1003 H   0  0  0  0  0  0  0  0  0  0  0  0
  141.5569   73.6166  217.0047 H   0  0  0  0  0  0  0  0  0  0  0  0
  143.0600   72.6639  216.6127 H   0  0  0  0  0  0  0  0  0  0  0  0
  141.9516   70.7778  216.9724 H   0  0  0  0  0  0  0  0  0  0  0  0
  141.6854   71.3163  218.7004 H   0  0  0  0  0  0  0  0  0  0  0  0
  139.7727   72.6368  217.0209 H   0  0  0  0  0  0  0  0  0  0  0  0
  139.7470   70.8541  216.6735 H   0  0  0  0  0  0  0  0  0  0  0  0
  138.4390   70.7390  218.5800 H   0  0  0  0  0  0  0  0  0  0  0  0
  139.0769   76.8450  222.1778 H   0  0  0  0  0  0  0  0  0  0  0  0
  140.1095   75.6487  223.0677 H   0  0  0  0  0  0  0  0  0  0  0  0
  140.7289   78.3216  222.6885 H   0  0  0  0  0  0  0  0  0  0  0  0
  141.9115   76.9745  223.0438 H   0  0  0  0  0  0  0  0  0  0  0  0
  142.6390   76.9280  220.9370 H   0  0  0  0  0  0  0  0  0  0  0  0
  142.3420   78.5830  221.1260 H   0  0  0  0  0  0  0  0  0  0  0  0
  140.1311   78.2957  220.1066 H   0  0  0  0  0  0  0  0  0  0  0  0
  141.5224   77.9437  219.0210 H   0  0  0  0  0  0  0  0  0  0  0  0
  139.5140   76.2442  219.1252 H   0  0  0  0  0  0  0  0  0  0  0  0
  141.2119   75.6215  219.1538 H   0  0  0  0  0  0  0  0  0  0  0  0
  138.7349   69.7558  222.6355 H   0  0  0  0  0  0  0  0  0  0  0  0
  140.2950   69.2822  223.3962 H   0  0  0  0  0  0  0  0  0  0  0  0
  137.7488   70.2307  224.7962 H   0  0  0  0  0  0  0  0  0  0  0  0
  138.5228   68.5981  224.8774 H   0  0  0  0  0  0  0  0  0  0  0  0
  138.6296   68.6808  227.3127 H   0  0  0  0  0  0  0  0  0  0  0  0
  139.9131   69.4644  229.3029 H   0  0  0  0  0  0  0  0  0  0  0  0
  141.5118   71.3682  229.0912 H   0  0  0  0  0  0  0  0  0  0  0  0
  141.8448   72.4849  226.8875 H   0  0  0  0  0  0  0  0  0  0  0  0
  140.4852   72.9557  224.6226 H   0  0  0  0  0  0  0  0  0  0  0  0
  141.7513   71.6980  224.2536 H   0  0  0  0  0  0  0  0  0  0  0  0
  143.5235   71.4747  219.3866 H   0  0  0  0  0  0  0  0  0  0  0  0
  1  2  2  0
  2  3  1  0
  3  4  2  0
  4  5  1  0
  5  6  1  0
  6  7  1  0
  7  8  1  0
  8  9  1  0
  9 10  1  0
 10 11  2  0
 11 12  1  0
 12 13  1  0
 13 14  1  0
 14 15  1  0
 15 16  1  0
 16 17  1  0
 17 18  1  0
 12 19  2  0
 19 20  1  0
 20 21  1  0
 21 22  1  0
 22 23  1  0
 23 24  1  0
 24 25  2  0
 25 26  1  0
 26 27  2  0
 27 28  1  0
 28 29  2  0
 29 30  1  0
 20 31  2  0
  5 32  2  0
 32  1  1  0
 31 10  1  0
 18 13  1  0
 30 21  1  0
 29 24  1  0
  1 33  1  0
  2 34  1  0
  4 35  1  0
  6 36  1  0
  6 37  1  0
  7 38  1  0
  7 39  1  0
  8 40  1  0
  8 41  1  0
  9 42  1  0
 14 43  1  0
 14 44  1  0
 15 45  1  0
 15 46  1  0
 16 47  1  0
 16 48  1  0
 17 49  1  0
 17 50  1  0
 18 51  1  0
 18 52  1  0
 22 53  1  0
 22 54  1  0
 23 55  1  0
 23 56  1  0
 25 57  1  0
 26 58  1  0
 27 59  1  0
 28 60  1  0
 30 61  1  0
 30 62  1  0
 32 63  1  0
M  CHG  1  16   1
M  END
>  <UniqueID>  (16) 
625

>  <SMILES>  (16) 
c1cncc(CCCNc2nc(N3CC[NH2+]CC3)nc(N3CCc4ccccc4C3)n2)c1

>  <Energy>  (16) 
63.07039407097215

>  <Genealogy>  (16) 
c1cncc(CCCNc2nc(N3CC[NH2+]CC3)nc(N3CCc4ccccc4C3)n2)c1 (protonated)
c1cncc(CCCNc2nc(N3CC[NH2+]CC3)nc(N3CCc4ccccc4C3)n2)c1 (3D coordinates assigned)
c1cncc(CCCNc2nc(N3CC[NH2+]CC3)nc(N3CCc4ccccc4C3)n2)c1 (nonaromatic ring conformer: 63.07039407097215 kcal/mol)

>  <smiles>  (16) 
c1cncc(CCCNc2nc(N3CCNCC3)nc(N3CCc4ccccc4C3)n2)c1

>  <score_type>  (16) 
oracle

>  <origin>  (16) 
autodockgpu

>  <m_score__min__energy>  (16) 
-9.4199999999999999

>  <m_primary>  (16) 
energy

>  <meeko>  (16) 
{"free_energy": -6.72, "intermolecular_energy": -8.81, "internal_energy": -2.55, "cluster_size": 3, "cluster_id": 4, "rank_in_cluster": 3}

>  <energy>  (16) 
-8.26

>  <cluster_rmsd>  (16) 
0.0

>  <rmsd>  (16) 
269.9

>  <cluster>  (16) 
4

$$$$
JSIQCYHYJBEBBC-RBVFQDFSNA-O
     RDKit          3D

 63 67  0  0  0  0  0  0  0  0999 V2000
  142.1680   79.1890  218.6810 C   0  0  0  0  0  0  0  0  0  0  0  0
  142.8680   78.0960  218.1630 C   0  0  0  0  0  0  0  0  0  0  0  0
  142.9450   76.9390  218.8740 N   0  0  0  0  0  0  0  0  0  0  0  0
  142.3540   76.8070  220.0930 C   0  0  0  0  0  0  0  0  0  0  0  0
  141.6470   77.8810  220.6580 C   0  0  0  0  0  0  0  0  0  0  0  0
  141.0360   77.7570  222.0320 C   0  0  0  0  0  0  0  0  0  0  0  0
  139.4990   77.8540  222.0160 C   0  0  0  0  0  0  0  0  0  0  0  0
  138.7920   76.6410  222.6500 C   0  0  0  0  0  0  0  0  0  0  0  0
  138.7340   75.4990  221.7370 N   0  0  0  0  0  0  0  0  0  0  0  0
  139.6850   74.4280  221.7610 C   0  0  0  0  0  0  0  0  0  0  0  0
  140.6980   74.3840  220.8570 N   0  0  0  0  0  0  0  0  0  0  0  0
  141.5840   73.3550  220.8610 C   0  0  0  0  0  0  0  0  0  0  0  0
  142.6230   73.2900  219.8670 N   0  0  0  0  0  0  0  0  0  0  0  0
  142.2880   73.1880  218.4400 C   0  0  0  0  0  0  0  0  0  0  0  0
  143.2100   74.0720  217.5690 C   0  0  0  0  0  0  0  0  0  0  0  0
  144.4480   74.4890  218.2560 N   0  0  0  0  0  0  0  0  0  0  0  0
  144.9780   73.4270  219.1180 C   0  0  0  0  0  0  0  0  0  0  0  0
  144.0250   73.1830  220.2920 C   0  0  0  0  0  0  0  0  0  0  0  0
  141.4570   72.3730  221.7920 N   0  0  0  0  0  0  0  0  0  0  0  0
  140.4510   72.4090  222.7040 C   0  0  0  0  0  0  0  0  0  0  0  0
  140.3250   71.3630  223.6820 N   0  0  0  0  0  0  0  0  0  0  0  0
  139.8440   70.0380  223.2690 C   0  0  0  0  0  0  0  0  0  0  0  0
  138.9410   69.4550  224.3510 C   0  0  0  0  0  0  0  0  0  0  0  0
  139.6120   69.4990  225.6970 C   0  0  0  0  0  0  0  0  0  0  0  0
  139.2380   68.5730  226.6840 C   0  0  0  0  0  0  0  0  0  0  0  0
  139.8000   68.6390  227.9620 C   0  0  0  0  0  0  0  0  0  0  0  0
  140.7260   69.6390  228.2690 C   0  0  0  0  0  0  0  0  0  0  0  0
  141.0970   70.5730  227.2980 C   0  0  0  0  0  0  0  0  0  0  0  0
  140.5470   70.5130  226.0080 C   0  0  0  0  0  0  0  0  0  0  0  0
  141.0050   71.5200  224.9770 C   0  0  0  0  0  0  0  0  0  0  0  0
  139.5650   73.4390  222.6820 N   0  0  0  0  0  0  0  0  0  0  0  0
  141.5450   79.0770  219.9270 C   0  0  0  0  0  0  0  0  0  0  0  0
  142.1079   80.1291  218.1131 H   0  0  0  0  0  0  0  0  0  0  0  0
  143.3566   78.1713  217.1804 H   0  0  0  0  0  0  0  0  0  0  0  0
  142.4305   75.8547  220.6382 H   0  0  0  0  0  0  0  0  0  0  0  0
  141.3217   76.7833  222.4565 H   0  0  0  0  0  0  0  0  0  0  0  0
  141.4131   78.5944  222.6375 H   0  0  0  0  0  0  0  0  0  0  0  0
  139.2028   78.7567  222.5705 H   0  0  0  0  0  0  0  0  0  0  0  0
  139.1915   77.8879  220.9604 H   0  0  0  0  0  0  0  0  0  0  0  0
  139.3412   76.3437  223.5555 H   0  0  0  0  0  0  0  0  0  0  0  0
  137.7598   76.9369  222.8885 H   0  0  0  0  0  0  0  0  0  0  0  0
  137.9090   75.4180  221.0960 H   0  0  0  0  0  0  0  0  0  0  0  0
  142.3961   72.1402  218.1229 H   0  0  0  0  0  0  0  0  0  0  0  0
  141.2535   73.5371  218.3059 H   0  0  0  0  0  0  0  0  0  0  0  0
  143.4862   73.5047  216.6680 H   0  0  0  0  0  0  0  0  0  0  0  0
  142.6488   74.9875  217.3305 H   0  0  0  0  0  0  0  0  0  0  0  0
  144.2590   75.3440  218.8320 H   0  0  0  0  0  0  0  0  0  0  0  0
  145.1680   74.7400  217.5400 H   0  0  0  0  0  0  0  0  0  0  0  0
  145.0813   72.5008  218.5337 H   0  0  0  0  0  0  0  0  0  0  0  0
  145.9603   73.7333  219.5070 H   0  0  0  0  0  0  0  0  0  0  0  0
  144.2022   72.1749  220.6949 H   0  0  0  0  0  0  0  0  0  0  0  0
  144.2159   73.9461  221.0610 H   0  0  0  0  0  0  0  0  0  0  0  0
  139.2766   70.1316  222.3313 H   0  0  0  0  0  0  0  0  0  0  0  0
  140.7051   69.3707  223.1165 H   0  0  0  0  0  0  0  0  0  0  0  0
  138.0095   70.0384  224.3945 H   0  0  0  0  0  0  0  0  0  0  0  0
  138.7279   68.4053  224.1006 H   0  0  0  0  0  0  0  0  0  0  0  0
  138.4994   67.7921  226.4504 H   0  0  0  0  0  0  0  0  0  0  0  0
  139.5128   67.9026  228.7271 H   0  0  0  0  0  0  0  0  0  0  0  0
  141.1638   69.6913  229.2768 H   0  0  0  0  0  0  0  0  0  0  0  0
  141.8244   71.3599  227.5461 H   0  0  0  0  0  0  0  0  0  0  0  0
  140.8021   72.5311  225.3597 H   0  0  0  0  0  0  0  0  0  0  0  0
  142.0792   71.3542  224.8080 H   0  0  0  0  0  0  0  0  0  0  0  0
  140.9751   79.9246  220.3354 H   0  0  0  0  0  0  0  0  0  0  0  0
  1  2  2  0
  2  3  1  0
  3  4  2  0
  4  5  1  0
  5  6  1  0
  6  7  1  0
  7  8  1  0
  8  9  1  0
  9 10  1  0
 10 11  2  0
 11 12  1  0
 12 13  1  0
 13 14  1  0
 14 15  1  0
 15 16  1  0
 16 17  1  0
 17 18  1  0
 12 19  2  0
 19 20  1  0
 20 21  1  0
 21 22  1  0
 22 23  1  0
 23 24  1  0
 24 25  2  0
 25 26  1  0
 26 27  2  0
 27 28  1  0
 28 29  2  0
 29 30  1  0
 20 31  2  0
  5 32  2  0
 32  1  1  0
 31 10  1  0
 18 13  1  0
 30 21  1  0
 29 24  1  0
  1 33  1  0
  2 34  1  0
  4 35  1  0
  6 36  1  0
  6 37  1  0
  7 38  1  0
  7 39  1  0
  8 40  1  0
  8 41  1  0
  9 42  1  0
 14 43  1  0
 14 44  1  0
 15 45  1  0
 15 46  1  0
 16 47  1  0
 16 48  1  0
 17 49  1  0
 17 50  1  0
 18 51  1  0
 18 52  1  0
 22 53  1  0
 22 54  1  0
 23 55  1  0
 23 56  1  0
 25 57  1  0
 26 58  1  0
 27 59  1  0
 28 60  1  0
 30 61  1  0
 30 62  1  0
 32 63  1  0
M  CHG  1  16   1
M  END
>  <UniqueID>  (17) 
625

>  <SMILES>  (17) 
c1cncc(CCCNc2nc(N3CC[NH2+]CC3)nc(N3CCc4ccccc4C3)n2)c1

>  <Energy>  (17) 
63.07039407097215

>  <Genealogy>  (17) 
c1cncc(CCCNc2nc(N3CC[NH2+]CC3)nc(N3CCc4ccccc4C3)n2)c1 (protonated)
c1cncc(CCCNc2nc(N3CC[NH2+]CC3)nc(N3CCc4ccccc4C3)n2)c1 (3D coordinates assigned)
c1cncc(CCCNc2nc(N3CC[NH2+]CC3)nc(N3CCc4ccccc4C3)n2)c1 (nonaromatic ring conformer: 63.07039407097215 kcal/mol)

>  <smiles>  (17) 
c1cncc(CCCNc2nc(N3CCNCC3)nc(N3CCc4ccccc4C3)n2)c1

>  <score_type>  (17) 
oracle

>  <origin>  (17) 
autodockgpu

>  <m_score__min__energy>  (17) 
-9.4199999999999999

>  <m_primary>  (17) 
energy

>  <meeko>  (17) 
{"free_energy": -7.64, "intermolecular_energy": -9.73, "internal_energy": -2.19, "cluster_size": 1, "cluster_id": 6, "rank_in_cluster": 1}

>  <energy>  (17) 
-8.12

>  <cluster_rmsd>  (17) 
0.46

>  <rmsd>  (17) 
269.87

>  <cluster>  (17) 
4

$$$$
JSIQCYHYJBEBBC-RBVFQDFSNA-O
     RDKit          3D

 63 67  0  0  0  0  0  0  0  0999 V2000
  145.0020   73.7780  220.9690 C   0  0  0  0  0  0  0  0  0  0  0  0
  146.1780   73.3970  220.3180 C   0  0  0  0  0  0  0  0  0  0  0  0
  146.1340   72.9740  219.0270 N   0  0  0  0  0  0  0  0  0  0  0  0
  144.9640   72.9080  218.3340 C   0  0  0  0  0  0  0  0  0  0  0  0
  143.7550   73.2740  218.9490 C   0  0  0  0  0  0  0  0  0  0  0  0
  142.4490   73.1530  218.2030 C   0  0  0  0  0  0  0  0  0  0  0  0
  141.9540   71.6990  218.0920 C   0  0  0  0  0  0  0  0  0  0  0  0
  140.5090   71.5710  217.5750 C   0  0  0  0  0  0  0  0  0  0  0  0
  139.5390   71.4780  218.6660 N   0  0  0  0  0  0  0  0  0  0  0  0
  139.6980   72.1620  219.9150 C   0  0  0  0  0  0  0  0  0  0  0  0
  139.8210   73.5140  219.9510 N   0  0  0  0  0  0  0  0  0  0  0  0
  139.9990   74.1610  221.1310 C   0  0  0  0  0  0  0  0  0  0  0  0
  140.1790   75.5890  221.1540 N   0  0  0  0  0  0  0  0  0  0  0  0
  139.7800   76.3750  222.3300 C   0  0  0  0  0  0  0  0  0  0  0  0
  140.8140   77.4770  222.6610 C   0  0  0  0  0  0  0  0  0  0  0  0
  141.7280   77.7830  221.5440 N   0  0  0  0  0  0  0  0  0  0  0  0
  141.0440   77.7240  220.2480 C   0  0  0  0  0  0  0  0  0  0  0  0
  140.6320   76.2810  219.9400 C   0  0  0  0  0  0  0  0  0  0  0  0
  140.0390   73.4420  222.2830 N   0  0  0  0  0  0  0  0  0  0  0  0
  139.9140   72.0890  222.2600 C   0  0  0  0  0  0  0  0  0  0  0  0
  139.9610   71.3390  223.4850 N   0  0  0  0  0  0  0  0  0  0  0  0
  139.5700   69.9230  223.4840 C   0  0  0  0  0  0  0  0  0  0  0  0
  138.8120   69.5950  224.7660 C   0  0  0  0  0  0  0  0  0  0  0  0
  139.5790   70.0420  225.9790 C   0  0  0  0  0  0  0  0  0  0  0  0
  139.3700   69.3940  227.2060 C   0  0  0  0  0  0  0  0  0  0  0  0
  140.0230   69.8380  228.3590 C   0  0  0  0  0  0  0  0  0  0  0  0
  140.8770   70.9420  228.3000 C   0  0  0  0  0  0  0  0  0  0  0  0
  141.0840   71.6030  227.0870 C   0  0  0  0  0  0  0  0  0  0  0  0
  140.4420   71.1620  225.9180 C   0  0  0  0  0  0  0  0  0  0  0  0
  140.7240   71.8830  224.6190 C   0  0  0  0  0  0  0  0  0  0  0  0
  139.7460   71.4540  221.0710 N   0  0  0  0  0  0  0  0  0  0  0  0
  143.7890   73.7290  220.2790 C   0  0  0  0  0  0  0  0  0  0  0  0
  145.0314   74.1137  222.0161 H   0  0  0  0  0  0  0  0  0  0  0  0
  147.1397   73.4394  220.8503 H   0  0  0  0  0  0  0  0  0  0  0  0
  144.9653   72.5667  217.2883 H   0  0  0  0  0  0  0  0  0  0  0  0
  141.6867   73.7437  218.7321 H   0  0  0  0  0  0  0  0  0  0  0  0
  142.6175   73.5230  217.1809 H   0  0  0  0  0  0  0  0  0  0  0  0
  142.6183   71.1585  217.4017 H   0  0  0  0  0  0  0  0  0  0  0  0
  141.9688   71.2776  219.1080 H   0  0  0  0  0  0  0  0  0  0  0  0
  140.2716   72.4544  216.9640 H   0  0  0  0  0  0  0  0  0  0  0  0
  140.4422   70.6460  216.9834 H   0  0  0  0  0  0  0  0  0  0  0  0
  138.6460   70.9590  218.4930 H   0  0  0  0  0  0  0  0  0  0  0  0
  138.8074   76.8479  222.1291 H   0  0  0  0  0  0  0  0  0  0  0  0
  139.7176   75.6942  223.1917 H   0  0  0  0  0  0  0  0  0  0  0  0
  140.2704   78.3955  222.9273 H   0  0  0  0  0  0  0  0  0  0  0  0
  141.4317   77.1016  223.4902 H   0  0  0  0  0  0  0  0  0  0  0  0
  142.5270   77.1050  221.5480 H   0  0  0  0  0  0  0  0  0  0  0  0
  142.1230   78.7420  221.6790 H   0  0  0  0  0  0  0  0  0  0  0  0
  140.1473   78.3603  220.2798 H   0  0  0  0  0  0  0  0  0  0  0  0
  141.7262   78.0810  219.4624 H   0  0  0  0  0  0  0  0  0  0  0  0
  139.8134   76.2903  219.2053 H   0  0  0  0  0  0  0  0  0  0  0  0
  141.5058   75.7465  219.5390 H   0  0  0  0  0  0  0  0  0  0  0  0
  138.9238   69.7233  222.6165 H   0  0  0  0  0  0  0  0  0  0  0  0
  140.4728   69.2972  223.4258 H   0  0  0  0  0  0  0  0  0  0  0  0
  137.8383   70.1065  224.7483 H   0  0  0  0  0  0  0  0  0  0  0  0
  138.6758   68.5049  224.8216 H   0  0  0  0  0  0  0  0  0  0  0  0
  138.6887   68.5321  227.2605 H   0  0  0  0  0  0  0  0  0  0  0  0
  139.8643   69.3172  229.3148 H   0  0  0  0  0  0  0  0  0  0  0  0
  141.3871   71.2912  229.2099 H   0  0  0  0  0  0  0  0  0  0  0  0
  141.7540   72.4745  227.0469 H   0  0  0  0  0  0  0  0  0  0  0  0
  140.4611   72.9440  224.7422 H   0  0  0  0  0  0  0  0  0  0  0  0
  141.7921   71.7496  224.3925 H   0  0  0  0  0  0  0  0  0  0  0  0
  142.8603   74.0463  220.7758 H   0  0  0  0  0  0  0  0  0  0  0  0
  1  2  2  0
  2  3  1  0
  3  4  2  0
  4  5  1  0
  5  6  1  0
  6  7  1  0
  7  8  1  0
  8  9  1  0
  9 10  1  0
 10 11  2  0
 11 12  1  0
 12 13  1  0
 13 14  1  0
 14 15  1  0
 15 16  1  0
 16 17  1  0
 17 18  1  0
 12 19  2  0
 19 20  1  0
 20 21  1  0
 21 22  1  0
 22 23  1  0
 23 24  1  0
 24 25  2  0
 25 26  1  0
 26 27  2  0
 27 28  1  0
 28 29  2  0
 29 30  1  0
 20 31  2  0
  5 32  2  0
 32  1  1  0
 31 10  1  0
 18 13  1  0
 30 21  1  0
 29 24  1  0
  1 33  1  0
  2 34  1  0
  4 35  1  0
  6 36  1  0
  6 37  1  0
  7 38  1  0
  7 39  1  0
  8 40  1  0
  8 41  1  0
  9 42  1  0
 14 43  1  0
 14 44  1  0
 15 45  1  0
 15 46  1  0
 16 47  1  0
 16 48  1  0
 17 49  1  0
 17 50  1  0
 18 51  1  0
 18 52  1  0
 22 53  1  0
 22 54  1  0
 23 55  1  0
 23 56  1  0
 25 57  1  0
 26 58  1  0
 27 59  1  0
 28 60  1  0
 30 61  1  0
 30 62  1  0
 32 63  1  0
M  CHG  1  16   1
M  END
>  <UniqueID>  (18) 
625

>  <SMILES>  (18) 
c1cncc(CCCNc2nc(N3CC[NH2+]CC3)nc(N3CCc4ccccc4C3)n2)c1

>  <Energy>  (18) 
63.07039407097215

>  <Genealogy>  (18) 
c1cncc(CCCNc2nc(N3CC[NH2+]CC3)nc(N3CCc4ccccc4C3)n2)c1 (protonated)
c1cncc(CCCNc2nc(N3CC[NH2+]CC3)nc(N3CCc4ccccc4C3)n2)c1 (3D coordinates assigned)
c1cncc(CCCNc2nc(N3CC[NH2+]CC3)nc(N3CCc4ccccc4C3)n2)c1 (nonaromatic ring conformer: 63.07039407097215 kcal/mol)

>  <smiles>  (18) 
c1cncc(CCCNc2nc(N3CCNCC3)nc(N3CCc4ccccc4C3)n2)c1

>  <score_type>  (18) 
oracle

>  <origin>  (18) 
autodockgpu

>  <m_score__min__energy>  (18) 
-9.4199999999999999

>  <m_primary>  (18) 
energy

>  <meeko>  (18) 
{"free_energy": -8.26, "intermolecular_energy": -10.35, "internal_energy": -1.39, "cluster_size": 3, "cluster_id": 4, "rank_in_cluster": 1}

>  <energy>  (18) 
-6.72

>  <cluster_rmsd>  (18) 
0.79

>  <rmsd>  (18) 
269.66

>  <cluster>  (18) 
4

$$$$
JSIQCYHYJBEBBC-RBVFQDFSNA-O
     RDKit          3D

 63 67  0  0  0  0  0  0  0  0999 V2000
  141.4210   72.2860  227.1790 C   0  0  0  0  0  0  0  0  0  0  0  0
  141.0770   71.6510  228.3750 C   0  0  0  0  0  0  0  0  0  0  0  0
  140.3700   70.4900  228.3500 N   0  0  0  0  0  0  0  0  0  0  0  0
  139.9790   69.9140  227.1790 C   0  0  0  0  0  0  0  0  0  0  0  0
  140.2940   70.5200  225.9520 C   0  0  0  0  0  0  0  0  0  0  0  0
  139.8180   69.9150  224.6550 C   0  0  0  0  0  0  0  0  0  0  0  0
  138.5860   70.6340  224.0730 C   0  0  0  0  0  0  0  0  0  0  0  0
  138.7840   71.1390  222.6310 C   0  0  0  0  0  0  0  0  0  0  0  0
  138.6020   72.5870  222.5250 N   0  0  0  0  0  0  0  0  0  0  0  0
  139.6430   73.4780  222.1100 C   0  0  0  0  0  0  0  0  0  0  0  0
  140.7700   72.9990  221.5220 N   0  0  0  0  0  0  0  0  0  0  0  0
  141.7690   73.8390  221.1530 C   0  0  0  0  0  0  0  0  0  0  0  0
  142.9810   73.3160  220.5770 N   0  0  0  0  0  0  0  0  0  0  0  0
  144.0360   74.2220  220.1040 C   0  0  0  0  0  0  0  0  0  0  0  0
  145.4450   73.7020  220.4710 C   0  0  0  0  0  0  0  0  0  0  0  0
  145.4720   72.2700  220.8280 N   0  0  0  0  0  0  0  0  0  0  0  0
  144.5460   71.4860  220.0040 C   0  0  0  0  0  0  0  0  0  0  0  0
  143.1000   71.8720  220.3320 C   0  0  0  0  0  0  0  0  0  0  0  0
  141.6270   75.1740  221.3640 N   0  0  0  0  0  0  0  0  0  0  0  0
  140.5030   75.6670  221.9480 C   0  0  0  0  0  0  0  0  0  0  0  0
  140.3650   77.0800  222.1700 N   0  0  0  0  0  0  0  0  0  0  0  0
  139.0550   77.7180  221.9850 C   0  0  0  0  0  0  0  0  0  0  0  0
  139.2340   79.0950  221.3540 C   0  0  0  0  0  0  0  0  0  0  0  0
  140.2390   79.9130  222.1160 C   0  0  0  0  0  0  0  0  0  0  0  0
  140.1660   81.3140  222.0690 C   0  0  0  0  0  0  0  0  0  0  0  0
  141.1300   82.0930  222.7150 C   0  0  0  0  0  0  0  0  0  0  0  0
  142.1840   81.4800  223.3980 C   0  0  0  0  0  0  0  0  0  0  0  0
  142.2740   80.0860  223.4410 C   0  0  0  0  0  0  0  0  0  0  0  0
  141.3070   79.2910  222.8050 C   0  0  0  0  0  0  0  0  0  0  0  0
  141.4220   77.7870  222.9090 C   0  0  0  0  0  0  0  0  0  0  0  0
  139.5140   74.8120  222.3220 N   0  0  0  0  0  0  0  0  0  0  0  0
  141.0390   71.7120  225.9630 C   0  0  0  0  0  0  0  0  0  0  0  0
  141.9872   73.2290  227.1941 H   0  0  0  0  0  0  0  0  0  0  0  0
  141.3783   72.0906  229.3373 H   0  0  0  0  0  0  0  0  0  0  0  0
  139.4142   68.9702  227.1947 H   0  0  0  0  0  0  0  0  0  0  0  0
  140.6356   69.9705  223.9212 H   0  0  0  0  0  0  0  0  0  0  0  0
  139.5246   68.8757  224.8643 H   0  0  0  0  0  0  0  0  0  0  0  0
  137.7389   69.9323  224.0814 H   0  0  0  0  0  0  0  0  0  0  0  0
  138.4058   71.5193  224.7005 H   0  0  0  0  0  0  0  0  0  0  0  0
  139.8026   70.8846  222.3028 H   0  0  0  0  0  0  0  0  0  0  0  0
  138.0275   70.6551  221.9958 H   0  0  0  0  0  0  0  0  0  0  0  0
  137.6410   72.9780  222.6750 H   0  0  0  0  0  0  0  0  0  0  0  0
  143.9635   74.3129  219.0102 H   0  0  0  0  0  0  0  0  0  0  0  0
  143.8934   75.1977  220.5916 H   0  0  0  0  0  0  0  0  0  0  0  0
  146.1089   73.8578  219.6079 H   0  0  0  0  0  0  0  0  0  0  0  0
  145.7744   74.2620  221.3586 H   0  0  0  0  0  0  0  0  0  0  0  0
  145.2220   72.1550  221.8390 H   0  0  0  0  0  0  0  0  0  0  0  0
  146.4430   71.9030  220.6950 H   0  0  0  0  0  0  0  0  0  0  0  0
  144.7447   71.6867  218.9409 H   0  0  0  0  0  0  0  0  0  0  0  0
  144.6915   70.4162  220.2144 H   0  0  0  0  0  0  0  0  0  0  0  0
  142.4537   71.5967  219.4855 H   0  0  0  0  0  0  0  0  0  0  0  0
  142.7932   71.3365  221.2425 H   0  0  0  0  0  0  0  0  0  0  0  0
  138.4343   77.0927  221.3265 H   0  0  0  0  0  0  0  0  0  0  0  0
  138.5640   77.8284  222.9631 H   0  0  0  0  0  0  0  0  0  0  0  0
  139.5819   78.9728  220.3176 H   0  0  0  0  0  0  0  0  0  0  0  0
  138.2670   79.6187  221.3780 H   0  0  0  0  0  0  0  0  0  0  0  0
  139.3460   81.8012  221.5210 H   0  0  0  0  0  0  0  0  0  0  0  0
  141.0590   83.1903  222.6858 H   0  0  0  0  0  0  0  0  0  0  0  0
  142.9436   82.0954  223.9023 H   0  0  0  0  0  0  0  0  0  0  0  0
  143.1078   79.6085  223.9766 H   0  0  0  0  0  0  0  0  0  0  0  0
  142.3980   77.4808  222.5046 H   0  0  0  0  0  0  0  0  0  0  0  0
  141.3172   77.5205  223.9711 H   0  0  0  0  0  0  0  0  0  0  0  0
  141.3213   72.1930  225.0149 H   0  0  0  0  0  0  0  0  0  0  0  0
  1  2  2  0
  2  3  1  0
  3  4  2  0
  4  5  1  0
  5  6  1  0
  6  7  1  0
  7  8  1  0
  8  9  1  0
  9 10  1  0
 10 11  2  0
 11 12  1  0
 12 13  1  0
 13 14  1  0
 14 15  1  0
 15 16  1  0
 16 17  1  0
 17 18  1  0
 12 19  2  0
 19 20  1  0
 20 21  1  0
 21 22  1  0
 22 23  1  0
 23 24  1  0
 24 25  2  0
 25 26  1  0
 26 27  2  0
 27 28  1  0
 28 29  2  0
 29 30  1  0
 20 31  2  0
  5 32  2  0
 32  1  1  0
 31 10  1  0
 18 13  1  0
 30 21  1  0
 29 24  1  0
  1 33  1  0
  2 34  1  0
  4 35  1  0
  6 36  1  0
  6 37  1  0
  7 38  1  0
  7 39  1  0
  8 40  1  0
  8 41  1  0
  9 42  1  0
 14 43  1  0
 14 44  1  0
 15 45  1  0
 15 46  1  0
 16 47  1  0
 16 48  1  0
 17 49  1  0
 17 50  1  0
 18 51  1  0
 18 52  1  0
 22 53  1  0
 22 54  1  0
 23 55  1  0
 23 56  1  0
 25 57  1  0
 26 58  1  0
 27 59  1  0
 28 60  1  0
 30 61  1  0
 30 62  1  0
 32 63  1  0
M  CHG  1  16   1
M  END
>  <UniqueID>  (19) 
625

>  <SMILES>  (19) 
c1cncc(CCCNc2nc(N3CC[NH2+]CC3)nc(N3CCc4ccccc4C3)n2)c1

>  <Energy>  (19) 
63.07039407097215

>  <Genealogy>  (19) 
c1cncc(CCCNc2nc(N3CC[NH2+]CC3)nc(N3CCc4ccccc4C3)n2)c1 (protonated)
c1cncc(CCCNc2nc(N3CC[NH2+]CC3)nc(N3CCc4ccccc4C3)n2)c1 (3D coordinates assigned)
c1cncc(CCCNc2nc(N3CC[NH2+]CC3)nc(N3CCc4ccccc4C3)n2)c1 (nonaromatic ring conformer: 63.07039407097215 kcal/mol)

>  <smiles>  (19) 
c1cncc(CCCNc2nc(N3CCNCC3)nc(N3CCc4ccccc4C3)n2)c1

>  <score_type>  (19) 
oracle

>  <origin>  (19) 
autodockgpu

>  <m_score__min__energy>  (19) 
-9.4199999999999999

>  <m_primary>  (19) 
energy

>  <meeko>  (19) 
{"free_energy": -9.29, "intermolecular_energy": -11.38, "internal_energy": -0.91, "cluster_size": 4, "cluster_id": 1, "rank_in_cluster": 2}

>  <energy>  (19) 
-7.95

>  <cluster_rmsd>  (19) 
0.0

>  <rmsd>  (19) 
269.45

>  <cluster>  (19) 
5

$$$$
JSIQCYHYJBEBBC-RBVFQDFSNA-O
     RDKit          3D

 63 67  0  0  0  0  0  0  0  0999 V2000
  141.1060   79.4630  223.4320 C   0  0  0  0  0  0  0  0  0  0  0  0
  141.8460   78.6180  222.6020 C   0  0  0  0  0  0  0  0  0  0  0  0
  141.2120   77.6890  221.8380 N   0  0  0  0  0  0  0  0  0  0  0  0
  139.8580   77.5510  221.8550 C   0  0  0  0  0  0  0  0  0  0  0  0
  139.0720   78.3720  222.6800 C   0  0  0  0  0  0  0  0  0  0  0  0
  137.5760   78.1880  222.7420 C   0  0  0  0  0  0  0  0  0  0  0  0
  137.0420   77.2460  221.6470 C   0  0  0  0  0  0  0  0  0  0  0  0
  136.4020   75.9560  222.1930 C   0  0  0  0  0  0  0  0  0  0  0  0
  136.8490   74.7680  221.4650 N   0  0  0  0  0  0  0  0  0  0  0  0
  138.1600   74.2090  221.6080 C   0  0  0  0  0  0  0  0  0  0  0  0
  139.2200   74.7570  220.9610 N   0  0  0  0  0  0  0  0  0  0  0  0
  140.4580   74.2120  221.0740 C   0  0  0  0  0  0  0  0  0  0  0  0
  141.5650   74.7700  220.3420 N   0  0  0  0  0  0  0  0  0  0  0  0
  141.3420   75.4970  219.0850 C   0  0  0  0  0  0  0  0  0  0  0  0
  142.2350   76.7550  218.9830 C   0  0  0  0  0  0  0  0  0  0  0  0
  143.3770   76.7450  219.9170 N   0  0  0  0  0  0  0  0  0  0  0  0
  143.9440   75.4000  220.0720 C   0  0  0  0  0  0  0  0  0  0  0  0
  142.9380   74.4890  220.7830 C   0  0  0  0  0  0  0  0  0  0  0  0
  140.6310   73.1150  221.8570 N   0  0  0  0  0  0  0  0  0  0  0  0
  139.5790   72.5590  222.5120 C   0  0  0  0  0  0  0  0  0  0  0  0
  139.7740   71.3970  223.3350 N   0  0  0  0  0  0  0  0  0  0  0  0
  139.5480   70.0600  222.7690 C   0  0  0  0  0  0  0  0  0  0  0  0
  138.8990   69.1580  223.8140 C   0  0  0  0  0  0  0  0  0  0  0  0
  139.6720   69.1810  225.1040 C   0  0  0  0  0  0  0  0  0  0  0  0
  139.6010   68.0780  225.9700 C   0  0  0  0  0  0  0  0  0  0  0  0
  140.2560   68.1070  227.2030 C   0  0  0  0  0  0  0  0  0  0  0  0
  140.9740   69.2420  227.5890 C   0  0  0  0  0  0  0  0  0  0  0  0
  141.0420   70.3500  226.7410 C   0  0  0  0  0  0  0  0  0  0  0  0
  140.3960   70.3320  225.4940 C   0  0  0  0  0  0  0  0  0  0  0  0
  140.5270   71.5370  224.5910 C   0  0  0  0  0  0  0  0  0  0  0  0
  138.3440   73.1090  222.3820 N   0  0  0  0  0  0  0  0  0  0  0  0
  139.7130   79.3490  223.4620 C   0  0  0  0  0  0  0  0  0  0  0  0
  141.6149   80.2118  224.0568 H   0  0  0  0  0  0  0  0  0  0  0  0
  142.9420   78.7041  222.5664 H   0  0  0  0  0  0  0  0  0  0  0  0
  139.3771   76.7928  221.2195 H   0  0  0  0  0  0  0  0  0  0  0  0
  137.3145   77.7680  223.7244 H   0  0  0  0  0  0  0  0  0  0  0  0
  137.1153   79.1741  222.5825 H   0  0  0  0  0  0  0  0  0  0  0  0
  136.2842   77.7884  221.0626 H   0  0  0  0  0  0  0  0  0  0  0  0
  137.9059   76.9415  221.0379 H   0  0  0  0  0  0  0  0  0  0  0  0
  136.6750   75.8459  223.2529 H   0  0  0  0  0  0  0  0  0  0  0  0
  135.3124   76.0396  222.0676 H   0  0  0  0  0  0  0  0  0  0  0  0
  136.1490   74.2540  220.8780 H   0  0  0  0  0  0  0  0  0  0  0  0
  141.5707   74.8287  218.2418 H   0  0  0  0  0  0  0  0  0  0  0  0
  140.2910   75.8208  219.0592 H   0  0  0  0  0  0  0  0  0  0  0  0
  142.6254   76.8222  217.9568 H   0  0  0  0  0  0  0  0  0  0  0  0
  141.6078   77.6187  219.2490 H   0  0  0  0  0  0  0  0  0  0  0  0
  143.0690   77.1030  220.8530 H   0  0  0  0  0  0  0  0  0  0  0  0
  144.1190   77.3890  219.5570 H   0  0  0  0  0  0  0  0  0  0  0  0
  144.1744   74.9847  219.0798 H   0  0  0  0  0  0  0  0  0  0  0  0
  144.8639   75.4616  220.6720 H   0  0  0  0  0  0  0  0  0  0  0  0
  143.1805   73.4403  220.5562 H   0  0  0  0  0  0  0  0  0  0  0  0
  143.0021   74.6758  221.8651 H   0  0  0  0  0  0  0  0  0  0  0  0
  138.8854   70.1411  221.8947 H   0  0  0  0  0  0  0  0  0  0  0  0
  140.5125   69.6271  222.4650 H   0  0  0  0  0  0  0  0  0  0  0  0
  137.8734   69.5077  224.0034 H   0  0  0  0  0  0  0  0  0  0  0  0
  138.8911   68.1274  223.4296 H   0  0  0  0  0  0  0  0  0  0  0  0
  139.0268   67.1870  225.6759 H   0  0  0  0  0  0  0  0  0  0  0  0
  140.2067   67.2349  227.8716 H   0  0  0  0  0  0  0  0  0  0  0  0
  141.4864   69.2630  228.5621 H   0  0  0  0  0  0  0  0  0  0  0  0
  141.6051   71.2423  227.0519 H   0  0  0  0  0  0  0  0  0  0  0  0
  140.1518   72.4205  225.1283 H   0  0  0  0  0  0  0  0  0  0  0  0
  141.5904   71.6380  224.3283 H   0  0  0  0  0  0  0  0  0  0  0  0
  139.1190   80.0230  224.0968 H   0  0  0  0  0  0  0  0  0  0  0  0
  1  2  2  0
  2  3  1  0
  3  4  2  0
  4  5  1  0
  5  6  1  0
  6  7  1  0
  7  8  1  0
  8  9  1  0
  9 10  1  0
 10 11  2  0
 11 12  1  0
 12 13  1  0
 13 14  1  0
 14 15  1  0
 15 16  1  0
 16 17  1  0
 17 18  1  0
 12 19  2  0
 19 20  1  0
 20 21  1  0
 21 22  1  0
 22 23  1  0
 23 24  1  0
 24 25  2  0
 25 26  1  0
 26 27  2  0
 27 28  1  0
 28 29  2  0
 29 30  1  0
 20 31  2  0
  5 32  2  0
 32  1  1  0
 31 10  1  0
 18 13  1  0
 30 21  1  0
 29 24  1  0
  1 33  1  0
  2 34  1  0
  4 35  1  0
  6 36  1  0
  6 37  1  0
  7 38  1  0
  7 39  1  0
  8 40  1  0
  8 41  1  0
  9 42  1  0
 14 43  1  0
 14 44  1  0
 15 45  1  0
 15 46  1  0
 16 47  1  0
 16 48  1  0
 17 49  1  0
 17 50  1  0
 18 51  1  0
 18 52  1  0
 22 53  1  0
 22 54  1  0
 23 55  1  0
 23 56  1  0
 25 57  1  0
 26 58  1  0
 27 59  1  0
 28 60  1  0
 30 61  1  0
 30 62  1  0
 32 63  1  0
M  CHG  1  16   1
M  END
>  <UniqueID>  (20) 
625

>  <SMILES>  (20) 
c1cncc(CCCNc2nc(N3CC[NH2+]CC3)nc(N3CCc4ccccc4C3)n2)c1

>  <Energy>  (20) 
63.07039407097215

>  <Genealogy>  (20) 
c1cncc(CCCNc2nc(N3CC[NH2+]CC3)nc(N3CCc4ccccc4C3)n2)c1 (protonated)
c1cncc(CCCNc2nc(N3CC[NH2+]CC3)nc(N3CCc4ccccc4C3)n2)c1 (3D coordinates assigned)
c1cncc(CCCNc2nc(N3CC[NH2+]CC3)nc(N3CCc4ccccc4C3)n2)c1 (nonaromatic ring conformer: 63.07039407097215 kcal/mol)

>  <smiles>  (20) 
c1cncc(CCCNc2nc(N3CCNCC3)nc(N3CCc4ccccc4C3)n2)c1

>  <score_type>  (20) 
oracle

>  <origin>  (20) 
autodockgpu

>  <m_score__min__energy>  (20) 
-9.4199999999999999

>  <m_primary>  (20) 
energy

>  <meeko>  (20) 
{"free_energy": -8.11, "intermolecular_energy": -10.2, "internal_energy": -2.19, "cluster_size": 10, "cluster_id": 2, "rank_in_cluster": 7}

>  <energy>  (20) 
-7.64

>  <cluster_rmsd>  (20) 
0.0

>  <rmsd>  (20) 
270.12

>  <cluster>  (20) 
6

$$$$
JSIQCYHYJBEBBC-RBVFQDFSNA-O
     RDKit          3D

 63 67  0  0  0  0  0  0  0  0999 V2000
  140.7120   68.4520  227.3700 C   0  0  0  0  0  0  0  0  0  0  0  0
  141.0270   69.2530  228.4700 C   0  0  0  0  0  0  0  0  0  0  0  0
  141.0530   70.6070  228.3410 N   0  0  0  0  0  0  0  0  0  0  0  0
  140.7760   71.2190  227.1560 C   0  0  0  0  0  0  0  0  0  0  0  0
  140.4620   70.4540  226.0200 C   0  0  0  0  0  0  0  0  0  0  0  0
  140.2070   71.1240  224.6930 C   0  0  0  0  0  0  0  0  0  0  0  0
  139.1770   70.3730  223.8300 C   0  0  0  0  0  0  0  0  0  0  0  0
  138.9120   71.0310  222.4620 C   0  0  0  0  0  0  0  0  0  0  0  0
  138.7400   72.4790  222.5720 N   0  0  0  0  0  0  0  0  0  0  0  0
  139.7360   73.4200  222.1520 C   0  0  0  0  0  0  0  0  0  0  0  0
  140.8900   72.9930  221.5770 N   0  0  0  0  0  0  0  0  0  0  0  0
  141.8470   73.8810  221.2050 C   0  0  0  0  0  0  0  0  0  0  0  0
  143.0880   73.4160  220.6420 N   0  0  0  0  0  0  0  0  0  0  0  0
  144.1960   74.3490  220.4000 C   0  0  0  0  0  0  0  0  0  0  0  0
  145.5610   73.7310  220.7820 C   0  0  0  0  0  0  0  0  0  0  0  0
  145.5290   72.2610  220.9040 N   0  0  0  0  0  0  0  0  0  0  0  0
  144.6530   71.6490  219.8980 C   0  0  0  0  0  0  0  0  0  0  0  0
  143.1950   72.0270  220.1770 C   0  0  0  0  0  0  0  0  0  0  0  0
  141.6320   75.2090  221.3990 N   0  0  0  0  0  0  0  0  0  0  0  0
  140.4800   75.6480  221.9700 C   0  0  0  0  0  0  0  0  0  0  0  0
  140.2660   77.0550  222.1730 N   0  0  0  0  0  0  0  0  0  0  0  0
  138.8950   77.5700  222.2890 C   0  0  0  0  0  0  0  0  0  0  0  0
  138.7890   78.9220  221.5900 C   0  0  0  0  0  0  0  0  0  0  0  0
  139.8650   79.8610  222.0610 C   0  0  0  0  0  0  0  0  0  0  0  0
  139.6520   81.2460  221.9890 C   0  0  0  0  0  0  0  0  0  0  0  0
  140.6640   82.1360  222.3580 C   0  0  0  0  0  0  0  0  0  0  0  0
  141.9020   81.6510  222.7860 C   0  0  0  0  0  0  0  0  0  0  0  0
  142.1310   80.2740  222.8510 C   0  0  0  0  0  0  0  0  0  0  0  0
  141.1200   79.3680  222.4920 C   0  0  0  0  0  0  0  0  0  0  0  0
  141.3970   77.8870  222.6130 C   0  0  0  0  0  0  0  0  0  0  0  0
  139.5350   74.7470  222.3480 N   0  0  0  0  0  0  0  0  0  0  0  0
  140.4160   69.0540  226.1450 C   0  0  0  0  0  0  0  0  0  0  0  0
  140.6972   67.3564  227.4676 H   0  0  0  0  0  0  0  0  0  0  0  0
  141.2541   68.7888  229.4410 H   0  0  0  0  0  0  0  0  0  0  0  0
  140.7982   72.3167  227.0881 H   0  0  0  0  0  0  0  0  0  0  0  0
  139.8330   72.1414  224.8798 H   0  0  0  0  0  0  0  0  0  0  0  0
  141.1576   71.1321  224.1396 H   0  0  0  0  0  0  0  0  0  0  0  0
  139.5481   69.3520  223.6574 H   0  0  0  0  0  0  0  0  0  0  0  0
  138.2256   70.3882  224.3819 H   0  0  0  0  0  0  0  0  0  0  0  0
  139.7644   70.8245  221.7981 H   0  0  0  0  0  0  0  0  0  0  0  0
  137.9800   70.6090  222.0581 H   0  0  0  0  0  0  0  0  0  0  0  0
  137.8120   72.8460  222.8910 H   0  0  0  0  0  0  0  0  0  0  0  0
  144.2115   74.6142  219.3326 H   0  0  0  0  0  0  0  0  0  0  0  0
  144.0364   75.2391  221.0263 H   0  0  0  0  0  0  0  0  0  0  0  0
  146.2939   74.0000  220.0071 H   0  0  0  0  0  0  0  0  0  0  0  0
  145.8319   74.1315  221.7701 H   0  0  0  0  0  0  0  0  0  0  0  0
  145.1990   71.9940  221.8620 H   0  0  0  0  0  0  0  0  0  0  0  0
  146.4990   71.8870  220.7850 H   0  0  0  0  0  0  0  0  0  0  0  0
  144.9383   72.0090  218.8985 H   0  0  0  0  0  0  0  0  0  0  0  0
  144.7585   70.5550  219.9433 H   0  0  0  0  0  0  0  0  0  0  0  0
  142.6108   71.9119  219.2521 H   0  0  0  0  0  0  0  0  0  0  0  0
  142.8071   71.3643  220.9646 H   0  0  0  0  0  0  0  0  0  0  0  0
  138.1977   76.8606  221.8194 H   0  0  0  0  0  0  0  0  0  0  0  0
  138.6415   77.6906  223.3526 H   0  0  0  0  0  0  0  0  0  0  0  0
  138.8909   78.7743  220.5047 H   0  0  0  0  0  0  0  0  0  0  0  0
  137.8105   79.3635  221.8299 H   0  0  0  0  0  0  0  0  0  0  0  0
  138.6832   81.6332  221.6402 H   0  0  0  0  0  0  0  0  0  0  0  0
  140.4855   83.2204  222.3114 H   0  0  0  0  0  0  0  0  0  0  0  0
  142.6980   82.3541  223.0724 H   0  0  0  0  0  0  0  0  0  0  0  0
  143.1090   79.8976  223.1854 H   0  0  0  0  0  0  0  0  0  0  0  0
  142.2738   77.6423  221.9955 H   0  0  0  0  0  0  0  0  0  0  0  0
  141.5722   77.6699  223.6770 H   0  0  0  0  0  0  0  0  0  0  0  0
  140.1468   68.4330  225.2779 H   0  0  0  0  0  0  0  0  0  0  0  0
  1  2  2  0
  2  3  1  0
  3  4  2  0
  4  5  1  0
  5  6  1  0
  6  7  1  0
  7  8  1  0
  8  9  1  0
  9 10  1  0
 10 11  2  0
 11 12  1  0
 12 13  1  0
 13 14  1  0
 14 15  1  0
 15 16  1  0
 16 17  1  0
 17 18  1  0
 12 19  2  0
 19 20  1  0
 20 21  1  0
 21 22  1  0
 22 23  1  0
 23 24  1  0
 24 25  2  0
 25 26  1  0
 26 27  2  0
 27 28  1  0
 28 29  2  0
 29 30  1  0
 20 31  2  0
  5 32  2  0
 32  1  1  0
 31 10  1  0
 18 13  1  0
 30 21  1  0
 29 24  1  0
  1 33  1  0
  2 34  1  0
  4 35  1  0
  6 36  1  0
  6 37  1  0
  7 38  1  0
  7 39  1  0
  8 40  1  0
  8 41  1  0
  9 42  1  0
 14 43  1  0
 14 44  1  0
 15 45  1  0
 15 46  1  0
 16 47  1  0
 16 48  1  0
 17 49  1  0
 17 50  1  0
 18 51  1  0
 18 52  1  0
 22 53  1  0
 22 54  1  0
 23 55  1  0
 23 56  1  0
 25 57  1  0
 26 58  1  0
 27 59  1  0
 28 60  1  0
 30 61  1  0
 30 62  1  0
 32 63  1  0
M  CHG  1  16   1
M  END
>  <UniqueID>  (21) 
626

>  <SMILES>  (21) 
c1cncc(CCCNc2nc(N3CC[NH2+]CC3)nc(N3CCc4ccccc4C3)n2)c1

>  <Energy>  (21) 
68.14760511218654

>  <Genealogy>  (21) 
c1cncc(CCCNc2nc(N3CC[NH2+]CC3)nc(N3CCc4ccccc4C3)n2)c1 (protonated)
c1cncc(CCCNc2nc(N3CC[NH2+]CC3)nc(N3CCc4ccccc4C3)n2)c1 (3D coordinates assigned)
c1cncc(CCCNc2nc(N3CC[NH2+]CC3)nc(N3CCc4ccccc4C3)n2)c1 (nonaromatic ring conformer: 68.14760511218654 kcal/mol)

>  <smiles>  (21) 
c1cncc(CCCNc2nc(N3CCNCC3)nc(N3CCc4ccccc4C3)n2)c1

>  <score_type>  (21) 
oracle

>  <origin>  (21) 
autodockgpu

>  <m_score__min__energy>  (21) 
-9.4199999999999999

>  <m_primary>  (21) 
energy

>  <meeko>  (21) 
{"free_energy": -9.22, "intermolecular_energy": -11.31, "internal_energy": -0.85, "cluster_size": 4, "cluster_id": 1, "rank_in_cluster": 3}

>  <energy>  (21) 
-9.42

>  <cluster_rmsd>  (21) 
0.0

>  <rmsd>  (21) 
271.08

>  <cluster>  (21) 
1

$$$$
JSIQCYHYJBEBBC-RBVFQDFSNA-O
     RDKit          3D

 63 67  0  0  0  0  0  0  0  0999 V2000
  142.2120   80.6220  222.6130 C   0  0  0  0  0  0  0  0  0  0  0  0
  142.4840   79.8870  223.7690 C   0  0  0  0  0  0  0  0  0  0  0  0
  141.8650   78.6940  223.9780 N   0  0  0  0  0  0  0  0  0  0  0  0
  140.9740   78.1830  223.0840 C   0  0  0  0  0  0  0  0  0  0  0  0
  140.6630   78.8900  221.9110 C   0  0  0  0  0  0  0  0  0  0  0  0
  139.6370   78.3540  220.9430 C   0  0  0  0  0  0  0  0  0  0  0  0
  138.3540   77.8640  221.6390 C   0  0  0  0  0  0  0  0  0  0  0  0
  137.5650   76.8190  220.8270 C   0  0  0  0  0  0  0  0  0  0  0  0
  137.5950   75.4970  221.4540 N   0  0  0  0  0  0  0  0  0  0  0  0
  138.8010   74.7470  221.6420 C   0  0  0  0  0  0  0  0  0  0  0  0
  139.9720   75.1760  221.1050 N   0  0  0  0  0  0  0  0  0  0  0  0
  141.1100   74.4520  221.2580 C   0  0  0  0  0  0  0  0  0  0  0  0
  142.3360   74.8900  220.6420 N   0  0  0  0  0  0  0  0  0  0  0  0
  143.5490   74.0640  220.7210 C   0  0  0  0  0  0  0  0  0  0  0  0
  144.3220   74.0530  219.3820 C   0  0  0  0  0  0  0  0  0  0  0  0
  143.9430   75.1500  218.4720 N   0  0  0  0  0  0  0  0  0  0  0  0
  143.6720   76.3940  219.2000 C   0  0  0  0  0  0  0  0  0  0  0  0
  142.4110   76.2340  220.0540 C   0  0  0  0  0  0  0  0  0  0  0  0
  141.0700   73.2950  221.9700 N   0  0  0  0  0  0  0  0  0  0  0  0
  139.9060   72.8570  222.5150 C   0  0  0  0  0  0  0  0  0  0  0  0
  139.8750   71.6310  223.2640 N   0  0  0  0  0  0  0  0  0  0  0  0
  139.3190   70.4190  222.6480 C   0  0  0  0  0  0  0  0  0  0  0  0
  138.5390   69.6210  223.6880 C   0  0  0  0  0  0  0  0  0  0  0  0
  139.3670   69.3860  224.9210 C   0  0  0  0  0  0  0  0  0  0  0  0
  139.0940   68.2740  225.7340 C   0  0  0  0  0  0  0  0  0  0  0  0
  139.8060   68.0750  226.9200 C   0  0  0  0  0  0  0  0  0  0  0  0
  140.7840   68.9930  227.3120 C   0  0  0  0  0  0  0  0  0  0  0  0
  141.0560   70.1100  226.5180 C   0  0  0  0  0  0  0  0  0  0  0  0
  140.3550   70.3170  225.3190 C   0  0  0  0  0  0  0  0  0  0  0  0
  140.7080   71.5180  224.4710 C   0  0  0  0  0  0  0  0  0  0  0  0
  138.7720   73.5870  222.3450 N   0  0  0  0  0  0  0  0  0  0  0  0
  141.3080   80.1160  221.6750 C   0  0  0  0  0  0  0  0  0  0  0  0
  142.7049   81.5905  222.4424 H   0  0  0  0  0  0  0  0  0  0  0  0
  143.1989   80.2730  224.5106 H   0  0  0  0  0  0  0  0  0  0  0  0
  140.4958   77.2123  223.2814 H   0  0  0  0  0  0  0  0  0  0  0  0
  139.3695   79.1538  220.2368 H   0  0  0  0  0  0  0  0  0  0  0  0
  140.0858   77.4894  220.4320 H   0  0  0  0  0  0  0  0  0  0  0  0
  138.6329   77.4149  222.6036 H   0  0  0  0  0  0  0  0  0  0  0  0
  137.6988   78.7399  221.7554 H   0  0  0  0  0  0  0  0  0  0  0  0
  136.5189   77.1492  220.7456 H   0  0  0  0  0  0  0  0  0  0  0  0
  138.0353   76.7346  219.8362 H   0  0  0  0  0  0  0  0  0  0  0  0
  136.7060   75.1220  221.8620 H   0  0  0  0  0  0  0  0  0  0  0  0
  144.2041   74.4670  221.5074 H   0  0  0  0  0  0  0  0  0  0  0  0
  143.2463   73.0317  220.9505 H   0  0  0  0  0  0  0  0  0  0  0  0
  145.3968   74.1380  219.6003 H   0  0  0  0  0  0  0  0  0  0  0  0
  144.0715   73.1106  218.8729 H   0  0  0  0  0  0  0  0  0  0  0  0
  143.0930   74.8740  217.9230 H   0  0  0  0  0  0  0  0  0  0  0  0
  144.7220   75.3150  217.7920 H   0  0  0  0  0  0  0  0  0  0  0  0
  144.5265   76.6288  219.8517 H   0  0  0  0  0  0  0  0  0  0  0  0
  143.5195   77.2101  218.4783 H   0  0  0  0  0  0  0  0  0  0  0  0
  142.4282   76.9793  220.8629 H   0  0  0  0  0  0  0  0  0  0  0  0
  141.5321   76.3823  219.4094 H   0  0  0  0  0  0  0  0  0  0  0  0
  138.6458   70.7033  221.8258 H   0  0  0  0  0  0  0  0  0  0  0  0
  140.1408   69.8007  222.2577 H   0  0  0  0  0  0  0  0  0  0  0  0
  137.6329   70.1800  223.9646 H   0  0  0  0  0  0  0  0  0  0  0  0
  138.2735   68.6458  223.2538 H   0  0  0  0  0  0  0  0  0  0  0  0
  138.3158   67.5560  225.4358 H   0  0  0  0  0  0  0  0  0  0  0  0
  139.5964   67.1948  227.5456 H   0  0  0  0  0  0  0  0  0  0  0  0
  141.3408   68.8359  228.2476 H   0  0  0  0  0  0  0  0  0  0  0  0
  141.8238   70.8315  226.8340 H   0  0  0  0  0  0  0  0  0  0  0  0
  140.5740   72.4267  225.0763 H   0  0  0  0  0  0  0  0  0  0  0  0
  141.7505   71.3952  224.1423 H   0  0  0  0  0  0  0  0  0  0  0  0
  141.1013   80.6774  220.7519 H   0  0  0  0  0  0  0  0  0  0  0  0
  1  2  2  0
  2  3  1  0
  3  4  2  0
  4  5  1  0
  5  6  1  0
  6  7  1  0
  7  8  1  0
  8  9  1  0
  9 10  1  0
 10 11  2  0
 11 12  1  0
 12 13  1  0
 13 14  1  0
 14 15  1  0
 15 16  1  0
 16 17  1  0
 17 18  1  0
 12 19  2  0
 19 20  1  0
 20 21  1  0
 21 22  1  0
 22 23  1  0
 23 24  1  0
 24 25  2  0
 25 26  1  0
 26 27  2  0
 27 28  1  0
 28 29  2  0
 29 30  1  0
 20 31  2  0
  5 32  2  0
 32  1  1  0
 31 10  1  0
 18 13  1  0
 30 21  1  0
 29 24  1  0
  1 33  1  0
  2 34  1  0
  4 35  1  0
  6 36  1  0
  6 37  1  0
  7 38  1  0
  7 39  1  0
  8 40  1  0
  8 41  1  0
  9 42  1  0
 14 43  1  0
 14 44  1  0
 15 45  1  0
 15 46  1  0
 16 47  1  0
 16 48  1  0
 17 49  1  0
 17 50  1  0
 18 51  1  0
 18 52  1  0
 22 53  1  0
 22 54  1  0
 23 55  1  0
 23 56  1  0
 25 57  1  0
 26 58  1  0
 27 59  1  0
 28 60  1  0
 30 61  1  0
 30 62  1  0
 32 63  1  0
M  CHG  1  16   1
M  END
>  <UniqueID>  (22) 
626

>  <SMILES>  (22) 
c1cncc(CCCNc2nc(N3CC[NH2+]CC3)nc(N3CCc4ccccc4C3)n2)c1

>  <Energy>  (22) 
68.14760511218654

>  <Genealogy>  (22) 
c1cncc(CCCNc2nc(N3CC[NH2+]CC3)nc(N3CCc4ccccc4C3)n2)c1 (protonated)
c1cncc(CCCNc2nc(N3CC[NH2+]CC3)nc(N3CCc4ccccc4C3)n2)c1 (3D coordinates assigned)
c1cncc(CCCNc2nc(N3CC[NH2+]CC3)nc(N3CCc4ccccc4C3)n2)c1 (nonaromatic ring conformer: 68.14760511218654 kcal/mol)

>  <smiles>  (22) 
c1cncc(CCCNc2nc(N3CCNCC3)nc(N3CCc4ccccc4C3)n2)c1

>  <score_type>  (22) 
oracle

>  <origin>  (22) 
autodockgpu

>  <m_score__min__energy>  (22) 
-9.4199999999999999

>  <m_primary>  (22) 
energy

>  <meeko>  (22) 
{"free_energy": -8.14, "intermolecular_energy": -10.23, "internal_energy": -1.3, "cluster_size": 10, "cluster_id": 2, "rank_in_cluster": 6}

>  <energy>  (22) 
-9.29

>  <cluster_rmsd>  (22) 
0.32

>  <rmsd>  (22) 
271.15

>  <cluster>  (22) 
1

$$$$
JSIQCYHYJBEBBC-RBVFQDFSNA-O
     RDKit          3D

 63 67  0  0  0  0  0  0  0  0999 V2000
  144.5210   74.1230  220.5980 C   0  0  0  0  0  0  0  0  0  0  0  0
  145.8600   73.7480  220.4730 C   0  0  0  0  0  0  0  0  0  0  0  0
  146.1900   72.6220  219.7850 N   0  0  0  0  0  0  0  0  0  0  0  0
  145.2440   71.8340  219.2050 C   0  0  0  0  0  0  0  0  0  0  0  0
  143.8830   72.1660  219.3110 C   0  0  0  0  0  0  0  0  0  0  0  0
  142.8270   71.2690  218.7150 C   0  0  0  0  0  0  0  0  0  0  0  0
  141.6990   72.0510  218.0160 C   0  0  0  0  0  0  0  0  0  0  0  0
  140.4520   71.2020  217.7050 C   0  0  0  0  0  0  0  0  0  0  0  0
  139.3990   71.3840  218.7040 N   0  0  0  0  0  0  0  0  0  0  0  0
  139.6020   72.0830  219.9380 C   0  0  0  0  0  0  0  0  0  0  0  0
  139.7580   73.4320  219.9500 N   0  0  0  0  0  0  0  0  0  0  0  0
  139.9780   74.0930  221.1150 C   0  0  0  0  0  0  0  0  0  0  0  0
  140.1930   75.5170  221.1110 N   0  0  0  0  0  0  0  0  0  0  0  0
  139.9660   76.3110  222.3260 C   0  0  0  0  0  0  0  0  0  0  0  0
  141.0580   77.3880  222.5190 C   0  0  0  0  0  0  0  0  0  0  0  0
  141.8290   77.6730  221.2940 N   0  0  0  0  0  0  0  0  0  0  0  0
  140.9840   77.6310  220.0950 C   0  0  0  0  0  0  0  0  0  0  0  0
  140.5030   76.1980  219.8470 C   0  0  0  0  0  0  0  0  0  0  0  0
  140.0270   73.3910  222.2770 N   0  0  0  0  0  0  0  0  0  0  0  0
  139.8700   72.0420  222.2790 C   0  0  0  0  0  0  0  0  0  0  0  0
  139.9260   71.3100  223.5140 N   0  0  0  0  0  0  0  0  0  0  0  0
  139.5440   69.8920  223.5360 C   0  0  0  0  0  0  0  0  0  0  0  0
  138.7930   69.5770  224.8250 C   0  0  0  0  0  0  0  0  0  0  0  0
  139.5630   70.0470  226.0280 C   0  0  0  0  0  0  0  0  0  0  0  0
  139.3630   69.4150  227.2660 C   0  0  0  0  0  0  0  0  0  0  0  0
  140.0180   69.8800  228.4090 C   0  0  0  0  0  0  0  0  0  0  0  0
  140.8650   70.9890  228.3300 C   0  0  0  0  0  0  0  0  0  0  0  0
  141.0630   71.6330  227.1060 C   0  0  0  0  0  0  0  0  0  0  0  0
  140.4190   71.1710  225.9470 C   0  0  0  0  0  0  0  0  0  0  0  0
  140.6910   71.8750  224.6370 C   0  0  0  0  0  0  0  0  0  0  0  0
  139.6600   71.3920  221.1040 N   0  0  0  0  0  0  0  0  0  0  0  0
  143.5290   73.3370  220.0050 C   0  0  0  0  0  0  0  0  0  0  0  0
  144.2490   75.0295  221.1585 H   0  0  0  0  0  0  0  0  0  0  0  0
  146.6484   74.3633  220.9311 H   0  0  0  0  0  0  0  0  0  0  0  0
  145.5464   70.9332  218.6508 H   0  0  0  0  0  0  0  0  0  0  0  0
  143.3045   70.6074  217.9772 H   0  0  0  0  0  0  0  0  0  0  0  0
  142.3722   70.7019  219.5406 H   0  0  0  0  0  0  0  0  0  0  0  0
  141.3976   72.8829  218.6695 H   0  0  0  0  0  0  0  0  0  0  0  0
  142.0995   72.3960  217.0514 H   0  0  0  0  0  0  0  0  0  0  0  0
  140.0604   71.4947  216.7196 H   0  0  0  0  0  0  0  0  0  0  0  0
  140.7512   70.1436  217.7174 H   0  0  0  0  0  0  0  0  0  0  0  0
  138.4300   71.0650  218.4660 H   0  0  0  0  0  0  0  0  0  0  0  0
  138.9867   76.8062  222.2502 H   0  0  0  0  0  0  0  0  0  0  0  0
  139.9989   75.6313  223.1903 H   0  0  0  0  0  0  0  0  0  0  0  0
  140.5739   78.3188  222.8497 H   0  0  0  0  0  0  0  0  0  0  0  0
  141.7677   76.9982  223.2636 H   0  0  0  0  0  0  0  0  0  0  0  0
  142.6060   76.9770  221.1970 H   0  0  0  0  0  0  0  0  0  0  0  0
  142.2600   78.6230  221.3740 H   0  0  0  0  0  0  0  0  0  0  0  0
  140.1137   78.2882  220.2387 H   0  0  0  0  0  0  0  0  0  0  0  0
  141.5682   77.9725  219.2277 H   0  0  0  0  0  0  0  0  0  0  0  0
  139.5977   76.2261  219.2228 H   0  0  0  0  0  0  0  0  0  0  0  0
  141.3060   75.6433  219.3396 H   0  0  0  0  0  0  0  0  0  0  0  0
  138.8959   69.6754  222.6740 H   0  0  0  0  0  0  0  0  0  0  0  0
  140.4510   69.2717  223.4843 H   0  0  0  0  0  0  0  0  0  0  0  0
  137.8158   70.0817  224.8041 H   0  0  0  0  0  0  0  0  0  0  0  0
  138.6634   68.4870  224.8967 H   0  0  0  0  0  0  0  0  0  0  0  0
  138.6874   68.5497  227.3361 H   0  0  0  0  0  0  0  0  0  0  0  0
  139.8668   69.3723  229.3731 H   0  0  0  0  0  0  0  0  0  0  0  0
  141.3763   71.3552  229.2325 H   0  0  0  0  0  0  0  0  0  0  0  0
  141.7277   72.5076  227.0500 H   0  0  0  0  0  0  0  0  0  0  0  0
  140.4222   72.9360  224.7463 H   0  0  0  0  0  0  0  0  0  0  0  0
  141.7589   71.7449  224.4077 H   0  0  0  0  0  0  0  0  0  0  0  0
  142.4726   73.6339  220.0810 H   0  0  0  0  0  0  0  0  0  0  0  0
  1  2  2  0
  2  3  1  0
  3  4  2  0
  4  5  1  0
  5  6  1  0
  6  7  1  0
  7  8  1  0
  8  9  1  0
  9 10  1  0
 10 11  2  0
 11 12  1  0
 12 13  1  0
 13 14  1  0
 14 15  1  0
 15 16  1  0
 16 17  1  0
 17 18  1  0
 12 19  2  0
 19 20  1  0
 20 21  1  0
 21 22  1  0
 22 23  1  0
 23 24  1  0
 24 25  2  0
 25 26  1  0
 26 27  2  0
 27 28  1  0
 28 29  2  0
 29 30  1  0
 20 31  2  0
  5 32  2  0
 32  1  1  0
 31 10  1  0
 18 13  1  0
 30 21  1  0
 29 24  1  0
  1 33  1  0
  2 34  1  0
  4 35  1  0
  6 36  1  0
  6 37  1  0
  7 38  1  0
  7 39  1  0
  8 40  1  0
  8 41  1  0
  9 42  1  0
 14 43  1  0
 14 44  1  0
 15 45  1  0
 15 46  1  0
 16 47  1  0
 16 48  1  0
 17 49  1  0
 17 50  1  0
 18 51  1  0
 18 52  1  0
 22 53  1  0
 22 54  1  0
 23 55  1  0
 23 56  1  0
 25 57  1  0
 26 58  1  0
 27 59  1  0
 28 60  1  0
 30 61  1  0
 30 62  1  0
 32 63  1  0
M  CHG  1  16   1
M  END
>  <UniqueID>  (23) 
626

>  <SMILES>  (23) 
c1cncc(CCCNc2nc(N3CC[NH2+]CC3)nc(N3CCc4ccccc4C3)n2)c1

>  <Energy>  (23) 
68.14760511218654

>  <Genealogy>  (23) 
c1cncc(CCCNc2nc(N3CC[NH2+]CC3)nc(N3CCc4ccccc4C3)n2)c1 (protonated)
c1cncc(CCCNc2nc(N3CC[NH2+]CC3)nc(N3CCc4ccccc4C3)n2)c1 (3D coordinates assigned)
c1cncc(CCCNc2nc(N3CC[NH2+]CC3)nc(N3CCc4ccccc4C3)n2)c1 (nonaromatic ring conformer: 68.14760511218654 kcal/mol)

>  <smiles>  (23) 
c1cncc(CCCNc2nc(N3CCNCC3)nc(N3CCc4ccccc4C3)n2)c1

>  <score_type>  (23) 
oracle

>  <origin>  (23) 
autodockgpu

>  <m_score__min__energy>  (23) 
-9.4199999999999999

>  <m_primary>  (23) 
energy

>  <meeko>  (23) 
{"free_energy": -8.12, "intermolecular_energy": -10.21, "internal_energy": -1.42, "cluster_size": 3, "cluster_id": 4, "rank_in_cluster": 2}

>  <energy>  (23) 
-9.22

>  <cluster_rmsd>  (23) 
0.79

>  <rmsd>  (23) 
271.09

>  <cluster>  (23) 
1

$$$$
JSIQCYHYJBEBBC-RBVFQDFSNA-O
     RDKit          3D

 63 67  0  0  0  0  0  0  0  0999 V2000
  140.4520   80.8730  223.6810 C   0  0  0  0  0  0  0  0  0  0  0  0
  141.8110   80.9660  223.3710 C   0  0  0  0  0  0  0  0  0  0  0  0
  142.4600   79.9000  222.8320 N   0  0  0  0  0  0  0  0  0  0  0  0
  141.8210   78.7240  222.5800 C   0  0  0  0  0  0  0  0  0  0  0  0
  140.4570   78.5800  222.8840 C   0  0  0  0  0  0  0  0  0  0  0  0
  139.7570   77.2630  222.6560 C   0  0  0  0  0  0  0  0  0  0  0  0
  138.2270   77.4070  222.5540 C   0  0  0  0  0  0  0  0  0  0  0  0
  137.6200   76.7370  221.3070 C   0  0  0  0  0  0  0  0  0  0  0  0
  137.6650   75.2770  221.3900 N   0  0  0  0  0  0  0  0  0  0  0  0
  138.8760   74.5410  221.5940 C   0  0  0  0  0  0  0  0  0  0  0  0
  140.0400   74.9550  221.0290 N   0  0  0  0  0  0  0  0  0  0  0  0
  141.1830   74.2430  221.1990 C   0  0  0  0  0  0  0  0  0  0  0  0
  142.4000   74.6630  220.5540 N   0  0  0  0  0  0  0  0  0  0  0  0
  143.6440   73.9020  220.7370 C   0  0  0  0  0  0  0  0  0  0  0  0
  144.4390   73.7790  219.4160 C   0  0  0  0  0  0  0  0  0  0  0  0
  144.0310   74.7550  218.3880 N   0  0  0  0  0  0  0  0  0  0  0  0
  143.6980   76.0580  218.9750 C   0  0  0  0  0  0  0  0  0  0  0  0
  142.4300   75.9380  219.8260 C   0  0  0  0  0  0  0  0  0  0  0  0
  141.1570   73.1150  221.9550 N   0  0  0  0  0  0  0  0  0  0  0  0
  140.0000   72.6920  222.5280 C   0  0  0  0  0  0  0  0  0  0  0  0
  139.9840   71.4950  223.3240 N   0  0  0  0  0  0  0  0  0  0  0  0
  139.5660   70.2250  222.7150 C   0  0  0  0  0  0  0  0  0  0  0  0
  138.7510   69.4140  223.7170 C   0  0  0  0  0  0  0  0  0  0  0  0
  139.4780   69.2840  225.0270 C   0  0  0  0  0  0  0  0  0  0  0  0
  139.2080   68.1870  225.8600 C   0  0  0  0  0  0  0  0  0  0  0  0
  139.8220   68.0830  227.1110 C   0  0  0  0  0  0  0  0  0  0  0  0
  140.6980   69.0800  227.5470 C   0  0  0  0  0  0  0  0  0  0  0  0
  140.9660   70.1830  226.7320 C   0  0  0  0  0  0  0  0  0  0  0  0
  140.3630   70.2960  225.4690 C   0  0  0  0  0  0  0  0  0  0  0  0
  140.7110   71.4850  224.6030 C   0  0  0  0  0  0  0  0  0  0  0  0
  138.8600   73.4090  222.3420 N   0  0  0  0  0  0  0  0  0  0  0  0
  139.7700   79.6810  223.4250 C   0  0  0  0  0  0  0  0  0  0  0  0
  139.9236   81.7307  224.1227 H   0  0  0  0  0  0  0  0  0  0  0  0
  142.3560   81.9020  223.5631 H   0  0  0  0  0  0  0  0  0  0  0  0
  142.3751   77.8835  222.1367 H   0  0  0  0  0  0  0  0  0  0  0  0
  140.1314   76.8241  221.7194 H   0  0  0  0  0  0  0  0  0  0  0  0
  139.9710   76.6211  223.5233 H   0  0  0  0  0  0  0  0  0  0  0  0
  137.7756   76.9503  223.4471 H   0  0  0  0  0  0  0  0  0  0  0  0
  138.0116   78.4829  222.4758 H   0  0  0  0  0  0  0  0  0  0  0  0
  136.5714   77.0546  221.2087 H   0  0  0  0  0  0  0  0  0  0  0  0
  138.2138   77.0452  220.4339 H   0  0  0  0  0  0  0  0  0  0  0  0
  136.7580   74.7520  221.3870 H   0  0  0  0  0  0  0  0  0  0  0  0
  144.2691   74.4148  221.4828 H   0  0  0  0  0  0  0  0  0  0  0  0
  143.3797   72.8887  221.0738 H   0  0  0  0  0  0  0  0  0  0  0  0
  145.5058   73.9318  219.6366 H   0  0  0  0  0  0  0  0  0  0  0  0
  144.2351   72.7776  219.0089 H   0  0  0  0  0  0  0  0  0  0  0  0
  143.2030   74.3870  217.8620 H   0  0  0  0  0  0  0  0  0  0  0  0
  144.8140   74.8790  217.7040 H   0  0  0  0  0  0  0  0  0  0  0  0
  144.5314   76.3965  219.6081 H   0  0  0  0  0  0  0  0  0  0  0  0
  143.5249   76.7851  218.1679 H   0  0  0  0  0  0  0  0  0  0  0  0
  142.4037   76.7657  220.5500 H   0  0  0  0  0  0  0  0  0  0  0  0
  141.5564   75.9797  219.1588 H   0  0  0  0  0  0  0  0  0  0  0  0
  138.9513   70.4312  221.8264 H   0  0  0  0  0  0  0  0  0  0  0  0
  140.4582   69.6512  222.4241 H   0  0  0  0  0  0  0  0  0  0  0  0
  137.7884   69.9179  223.8888 H   0  0  0  0  0  0  0  0  0  0  0  0
  138.5919   68.4069  223.3042 H   0  0  0  0  0  0  0  0  0  0  0  0
  138.5096   67.4053  225.5264 H   0  0  0  0  0  0  0  0  0  0  0  0
  139.6152   67.2145  227.7536 H   0  0  0  0  0  0  0  0  0  0  0  0
  141.1776   68.9967  228.5334 H   0  0  0  0  0  0  0  0  0  0  0  0
  141.6534   70.9673  227.0819 H   0  0  0  0  0  0  0  0  0  0  0  0
  140.4643   72.4045  225.1540 H   0  0  0  0  0  0  0  0  0  0  0  0
  141.7845   71.4215  224.3716 H   0  0  0  0  0  0  0  0  0  0  0  0
  138.6954   79.6038  223.6467 H   0  0  0  0  0  0  0  0  0  0  0  0
  1  2  2  0
  2  3  1  0
  3  4  2  0
  4  5  1  0
  5  6  1  0
  6  7  1  0
  7  8  1  0
  8  9  1  0
  9 10  1  0
 10 11  2  0
 11 12  1  0
 12 13  1  0
 13 14  1  0
 14 15  1  0
 15 16  1  0
 16 17  1  0
 17 18  1  0
 12 19  2  0
 19 20  1  0
 20 21  1  0
 21 22  1  0
 22 23  1  0
 23 24  1  0
 24 25  2  0
 25 26  1  0
 26 27  2  0
 27 28  1  0
 28 29  2  0
 29 30  1  0
 20 31  2  0
  5 32  2  0
 32  1  1  0
 31 10  1  0
 18 13  1  0
 30 21  1  0
 29 24  1  0
  1 33  1  0
  2 34  1  0
  4 35  1  0
  6 36  1  0
  6 37  1  0
  7 38  1  0
  7 39  1  0
  8 40  1  0
  8 41  1  0
  9 42  1  0
 14 43  1  0
 14 44  1  0
 15 45  1  0
 15 46  1  0
 16 47  1  0
 16 48  1  0
 17 49  1  0
 17 50  1  0
 18 51  1  0
 18 52  1  0
 22 53  1  0
 22 54  1  0
 23 55  1  0
 23 56  1  0
 25 57  1  0
 26 58  1  0
 27 59  1  0
 28 60  1  0
 30 61  1  0
 30 62  1  0
 32 63  1  0
M  CHG  1  16   1
M  END
>  <UniqueID>  (24) 
626

>  <SMILES>  (24) 
c1cncc(CCCNc2nc(N3CC[NH2+]CC3)nc(N3CCc4ccccc4C3)n2)c1

>  <Energy>  (24) 
68.14760511218654

>  <Genealogy>  (24) 
c1cncc(CCCNc2nc(N3CC[NH2+]CC3)nc(N3CCc4ccccc4C3)n2)c1 (protonated)
c1cncc(CCCNc2nc(N3CC[NH2+]CC3)nc(N3CCc4ccccc4C3)n2)c1 (3D coordinates assigned)
c1cncc(CCCNc2nc(N3CC[NH2+]CC3)nc(N3CCc4ccccc4C3)n2)c1 (nonaromatic ring conformer: 68.14760511218654 kcal/mol)

>  <smiles>  (24) 
c1cncc(CCCNc2nc(N3CCNCC3)nc(N3CCc4ccccc4C3)n2)c1

>  <score_type>  (24) 
oracle

>  <origin>  (24) 
autodockgpu

>  <m_score__min__energy>  (24) 
-9.4199999999999999

>  <m_primary>  (24) 
energy

>  <meeko>  (24) 
{"free_energy": -8.35, "intermolecular_energy": -10.44, "internal_energy": -0.98, "cluster_size": 10, "cluster_id": 2, "rank_in_cluster": 4}

>  <energy>  (24) 
-9.18

>  <cluster_rmsd>  (24) 
0.83

>  <rmsd>  (24) 
270.98

>  <cluster>  (24) 
1

$$$$
JSIQCYHYJBEBBC-RBVFQDFSNA-O
     RDKit          3D

 63 67  0  0  0  0  0  0  0  0999 V2000
  141.8330   78.7170  223.1030 C   0  0  0  0  0  0  0  0  0  0  0  0
  141.6090   79.9830  223.6490 C   0  0  0  0  0  0  0  0  0  0  0  0
  140.3380   80.4310  223.8290 N   0  0  0  0  0  0  0  0  0  0  0  0
  139.2570   79.6760  223.4890 C   0  0  0  0  0  0  0  0  0  0  0  0
  139.4330   78.4000  222.9290 C   0  0  0  0  0  0  0  0  0  0  0  0
  138.2400   77.5810  222.5020 C   0  0  0  0  0  0  0  0  0  0  0  0
  138.1950   77.3320  220.9830 C   0  0  0  0  0  0  0  0  0  0  0  0
  137.1640   76.2700  220.5560 C   0  0  0  0  0  0  0  0  0  0  0  0
  137.3090   75.0260  221.3120 N   0  0  0  0  0  0  0  0  0  0  0  0
  138.5770   74.4150  221.5780 C   0  0  0  0  0  0  0  0  0  0  0  0
  139.7180   74.9350  221.0570 N   0  0  0  0  0  0  0  0  0  0  0  0
  140.9170   74.3410  221.2860 C   0  0  0  0  0  0  0  0  0  0  0  0
  142.1140   74.8720  220.6870 N   0  0  0  0  0  0  0  0  0  0  0  0
  143.3920   74.1570  220.8100 C   0  0  0  0  0  0  0  0  0  0  0  0
  144.1940   74.1860  219.4880 C   0  0  0  0  0  0  0  0  0  0  0  0
  143.7430   75.2290  218.5470 N   0  0  0  0  0  0  0  0  0  0  0  0
  143.3480   76.4580  219.2430 C   0  0  0  0  0  0  0  0  0  0  0  0
  142.0860   76.2060  220.0730 C   0  0  0  0  0  0  0  0  0  0  0  0
  140.9680   73.2240  222.0570 N   0  0  0  0  0  0  0  0  0  0  0  0
  139.8340   72.6950  222.5870 C   0  0  0  0  0  0  0  0  0  0  0  0
  139.9000   71.5110  223.3990 N   0  0  0  0  0  0  0  0  0  0  0  0
  139.5530   70.2100  222.8120 C   0  0  0  0  0  0  0  0  0  0  0  0
  138.8010   69.3650  223.8360 C   0  0  0  0  0  0  0  0  0  0  0  0
  139.5500   69.2980  225.1380 C   0  0  0  0  0  0  0  0  0  0  0  0
  139.3570   68.1980  225.9890 C   0  0  0  0  0  0  0  0  0  0  0  0
  139.9910   68.1490  227.2330 C   0  0  0  0  0  0  0  0  0  0  0  0
  140.8110   69.2040  227.6430 C   0  0  0  0  0  0  0  0  0  0  0  0
  141.0010   70.3090  226.8100 C   0  0  0  0  0  0  0  0  0  0  0  0
  140.3770   70.3670  225.5540 C   0  0  0  0  0  0  0  0  0  0  0  0
  140.6410   71.5640  224.6680 C   0  0  0  0  0  0  0  0  0  0  0  0
  138.6390   73.2950  222.3410 N   0  0  0  0  0  0  0  0  0  0  0  0
  140.7420   77.9180  222.7530 C   0  0  0  0  0  0  0  0  0  0  0  0
  142.8595   78.3524  222.9500 H   0  0  0  0  0  0  0  0  0  0  0  0
  142.4612   80.6177  223.9335 H   0  0  0  0  0  0  0  0  0  0  0  0
  138.2421   80.0669  223.6535 H   0  0  0  0  0  0  0  0  0  0  0  0
  138.2798   76.6091  223.0157 H   0  0  0  0  0  0  0  0  0  0  0  0
  137.3372   78.1496  222.7696 H   0  0  0  0  0  0  0  0  0  0  0  0
  137.9437   78.2794  220.4838 H   0  0  0  0  0  0  0  0  0  0  0  0
  139.1852   76.9517  220.6918 H   0  0  0  0  0  0  0  0  0  0  0  0
  136.1530   76.6702  220.7224 H   0  0  0  0  0  0  0  0  0  0  0  0
  137.3334   76.0419  219.4933 H   0  0  0  0  0  0  0  0  0  0  0  0
  136.4540   74.6120  221.7530 H   0  0  0  0  0  0  0  0  0  0  0  0
  143.9913   74.6318  221.6008 H   0  0  0  0  0  0  0  0  0  0  0  0
  143.1749   73.1071  221.0560 H   0  0  0  0  0  0  0  0  0  0  0  0
  145.2523   74.3672  219.7271 H   0  0  0  0  0  0  0  0  0  0  0  0
  144.0372   73.2158  218.9939 H   0  0  0  0  0  0  0  0  0  0  0  0
  142.9330   74.8700  217.9870 H   0  0  0  0  0  0  0  0  0  0  0  0
  144.5200   75.4470  217.8810 H   0  0  0  0  0  0  0  0  0  0  0  0
  144.1636   76.7785  219.9079 H   0  0  0  0  0  0  0  0  0  0  0  0
  143.1419   77.2434  218.5010 H   0  0  0  0  0  0  0  0  0  0  0  0
  142.0203   76.9652  220.8663 H   0  0  0  0  0  0  0  0  0  0  0  0
  141.2125   76.2656  219.4071 H   0  0  0  0  0  0  0  0  0  0  0  0
  138.9160   70.3661  221.9289 H   0  0  0  0  0  0  0  0  0  0  0  0
  140.4747   69.6874  222.5165 H   0  0  0  0  0  0  0  0  0  0  0  0
  137.8116   69.8119  224.0134 H   0  0  0  0  0  0  0  0  0  0  0  0
  138.6989   68.3442  223.4390 H   0  0  0  0  0  0  0  0  0  0  0  0
  138.7035   67.3709  225.6747 H   0  0  0  0  0  0  0  0  0  0  0  0
  139.8447   67.2793  227.8904 H   0  0  0  0  0  0  0  0  0  0  0  0
  141.3077   69.1640  228.6237 H   0  0  0  0  0  0  0  0  0  0  0  0
  141.6434   71.1386  227.1402 H   0  0  0  0  0  0  0  0  0  0  0  0
  140.3443   72.4741  225.2100 H   0  0  0  0  0  0  0  0  0  0  0  0
  141.7137   71.5641  224.4242 H   0  0  0  0  0  0  0  0  0  0  0  0
  140.9069   76.9120  222.3398 H   0  0  0  0  0  0  0  0  0  0  0  0
  1  2  2  0
  2  3  1  0
  3  4  2  0
  4  5  1  0
  5  6  1  0
  6  7  1  0
  7  8  1  0
  8  9  1  0
  9 10  1  0
 10 11  2  0
 11 12  1  0
 12 13  1  0
 13 14  1  0
 14 15  1  0
 15 16  1  0
 16 17  1  0
 17 18  1  0
 12 19  2  0
 19 20  1  0
 20 21  1  0
 21 22  1  0
 22 23  1  0
 23 24  1  0
 24 25  2  0
 25 26  1  0
 26 27  2  0
 27 28  1  0
 28 29  2  0
 29 30  1  0
 20 31  2  0
  5 32  2  0
 32  1  1  0
 31 10  1  0
 18 13  1  0
 30 21  1  0
 29 24  1  0
  1 33  1  0
  2 34  1  0
  4 35  1  0
  6 36  1  0
  6 37  1  0
  7 38  1  0
  7 39  1  0
  8 40  1  0
  8 41  1  0
  9 42  1  0
 14 43  1  0
 14 44  1  0
 15 45  1  0
 15 46  1  0
 16 47  1  0
 16 48  1  0
 17 49  1  0
 17 50  1  0
 18 51  1  0
 18 52  1  0
 22 53  1  0
 22 54  1  0
 23 55  1  0
 23 56  1  0
 25 57  1  0
 26 58  1  0
 27 59  1  0
 28 60  1  0
 30 61  1  0
 30 62  1  0
 32 63  1  0
M  CHG  1  16   1
M  END
>  <UniqueID>  (25) 
626

>  <SMILES>  (25) 
c1cncc(CCCNc2nc(N3CC[NH2+]CC3)nc(N3CCc4ccccc4C3)n2)c1

>  <Energy>  (25) 
68.14760511218654

>  <Genealogy>  (25) 
c1cncc(CCCNc2nc(N3CC[NH2+]CC3)nc(N3CCc4ccccc4C3)n2)c1 (protonated)
c1cncc(CCCNc2nc(N3CC[NH2+]CC3)nc(N3CCc4ccccc4C3)n2)c1 (3D coordinates assigned)
c1cncc(CCCNc2nc(N3CC[NH2+]CC3)nc(N3CCc4ccccc4C3)n2)c1 (nonaromatic ring conformer: 68.14760511218654 kcal/mol)

>  <smiles>  (25) 
c1cncc(CCCNc2nc(N3CCNCC3)nc(N3CCc4ccccc4C3)n2)c1

>  <score_type>  (25) 
oracle

>  <origin>  (25) 
autodockgpu

>  <m_score__min__energy>  (25) 
-9.4199999999999999

>  <m_primary>  (25) 
energy

>  <meeko>  (25) 
{"free_energy": -8.24, "intermolecular_energy": -10.33, "internal_energy": -1.21, "cluster_size": 10, "cluster_id": 2, "rank_in_cluster": 5}

>  <energy>  (25) 
-8.39

>  <cluster_rmsd>  (25) 
0.0

>  <rmsd>  (25) 
270.3

>  <cluster>  (25) 
2

$$$$
JSIQCYHYJBEBBC-RBVFQDFSNA-O
     RDKit          3D

 63 67  0  0  0  0  0  0  0  0999 V2000
  140.4640   68.5350  227.2890 C   0  0  0  0  0  0  0  0  0  0  0  0
  140.7240   69.4220  228.3360 C   0  0  0  0  0  0  0  0  0  0  0  0
  140.8410   70.7540  228.0850 N   0  0  0  0  0  0  0  0  0  0  0  0
  140.7100   71.2600  226.8280 C   0  0  0  0  0  0  0  0  0  0  0  0
  140.4560   70.4060  225.7430 C   0  0  0  0  0  0  0  0  0  0  0  0
  140.3630   70.9560  224.3410 C   0  0  0  0  0  0  0  0  0  0  0  0
  139.2120   70.3350  223.5280 C   0  0  0  0  0  0  0  0  0  0  0  0
  138.8030   71.1630  222.2960 C   0  0  0  0  0  0  0  0  0  0  0  0
  138.7370   72.5940  222.5910 N   0  0  0  0  0  0  0  0  0  0  0  0
  139.7280   73.5310  222.1520 C   0  0  0  0  0  0  0  0  0  0  0  0
  140.8770   73.0990  221.5710 N   0  0  0  0  0  0  0  0  0  0  0  0
  141.8290   73.9840  221.1800 C   0  0  0  0  0  0  0  0  0  0  0  0
  143.0650   73.5130  220.6110 N   0  0  0  0  0  0  0  0  0  0  0  0
  144.2070   74.4230  220.4440 C   0  0  0  0  0  0  0  0  0  0  0  0
  145.5440   73.7390  220.8110 C   0  0  0  0  0  0  0  0  0  0  0  0
  145.4640   72.2660  220.8430 N   0  0  0  0  0  0  0  0  0  0  0  0
  144.5890   71.7440  219.7870 C   0  0  0  0  0  0  0  0  0  0  0  0
  143.1380   72.1510  220.0640 C   0  0  0  0  0  0  0  0  0  0  0  0
  141.6150   75.3130  221.3610 N   0  0  0  0  0  0  0  0  0  0  0  0
  140.4690   75.7580  221.9380 C   0  0  0  0  0  0  0  0  0  0  0  0
  140.2550   77.1660  222.1280 N   0  0  0  0  0  0  0  0  0  0  0  0
  138.9410   77.6470  222.5760 C   0  0  0  0  0  0  0  0  0  0  0  0
  138.6000   78.9550  221.8700 C   0  0  0  0  0  0  0  0  0  0  0  0
  139.7210   79.9490  222.0010 C   0  0  0  0  0  0  0  0  0  0  0  0
  139.4380   81.3220  221.9270 C   0  0  0  0  0  0  0  0  0  0  0  0
  140.4720   82.2600  221.9790 C   0  0  0  0  0  0  0  0  0  0  0  0
  141.7980   81.8340  222.0900 C   0  0  0  0  0  0  0  0  0  0  0  0
  142.0940   80.4700  222.1530 C   0  0  0  0  0  0  0  0  0  0  0  0
  141.0640   79.5170  222.1100 C   0  0  0  0  0  0  0  0  0  0  0  0
  141.4250   78.0530  222.2200 C   0  0  0  0  0  0  0  0  0  0  0  0
  139.5280   74.8600  222.3350 N   0  0  0  0  0  0  0  0  0  0  0  0
  140.3170   69.0290  225.9900 C   0  0  0  0  0  0  0  0  0  0  0  0
  140.3757   67.4563  227.4852 H   0  0  0  0  0  0  0  0  0  0  0  0
  140.8341   69.0438  229.3631 H   0  0  0  0  0  0  0  0  0  0  0  0
  140.8036   72.3433  226.6616 H   0  0  0  0  0  0  0  0  0  0  0  0
  140.2041   72.0429  224.4003 H   0  0  0  0  0  0  0  0  0  0  0  0
  141.3025   70.7067  223.8260 H   0  0  0  0  0  0  0  0  0  0  0  0
  139.5273   69.3380  223.1865 H   0  0  0  0  0  0  0  0  0  0  0  0
  138.3360   70.2955  224.1922 H   0  0  0  0  0  0  0  0  0  0  0  0
  139.5418   70.9993  221.4976 H   0  0  0  0  0  0  0  0  0  0  0  0
  137.8000   70.8349  221.9856 H   0  0  0  0  0  0  0  0  0  0  0  0
  137.8810   72.9630  223.0700 H   0  0  0  0  0  0  0  0  0  0  0  0
  144.2508   74.7507  219.3949 H   0  0  0  0  0  0  0  0  0  0  0  0
  144.0639   75.2791  221.1197 H   0  0  0  0  0  0  0  0  0  0  0  0
  146.2996   74.0303  220.0665 H   0  0  0  0  0  0  0  0  0  0  0  0
  145.8080   74.0701  221.8262 H   0  0  0  0  0  0  0  0  0  0  0  0
  145.1080   71.9530  221.7780 H   0  0  0  0  0  0  0  0  0  0  0  0
  146.4240   71.8680  220.7180 H   0  0  0  0  0  0  0  0  0  0  0  0
  144.9040   72.1543  218.8162 H   0  0  0  0  0  0  0  0  0  0  0  0
  144.6600   70.6465  219.7672 H   0  0  0  0  0  0  0  0  0  0  0  0
  142.5680   72.1105  219.1241 H   0  0  0  0  0  0  0  0  0  0  0  0
  142.7153   71.4548  220.8033 H   0  0  0  0  0  0  0  0  0  0  0  0
  138.1759   76.8935  222.3378 H   0  0  0  0  0  0  0  0  0  0  0  0
  138.9684   77.8177  223.6623 H   0  0  0  0  0  0  0  0  0  0  0  0
  138.4226   78.7520  220.8035 H   0  0  0  0  0  0  0  0  0  0  0  0
  137.6996   79.3801  222.3376 H   0  0  0  0  0  0  0  0  0  0  0  0
  138.3963   81.6612  221.8275 H   0  0  0  0  0  0  0  0  0  0  0  0
  140.2420   83.3347  221.9325 H   0  0  0  0  0  0  0  0  0  0  0  0
  142.6108   82.5742  222.1279 H   0  0  0  0  0  0  0  0  0  0  0  0
  143.1403   80.1409  222.2368 H   0  0  0  0  0  0  0  0  0  0  0  0
  142.1211   77.8011  221.4064 H   0  0  0  0  0  0  0  0  0  0  0  0
  141.8790   77.8986  223.2100 H   0  0  0  0  0  0  0  0  0  0  0  0
  140.0927   68.3410  225.1615 H   0  0  0  0  0  0  0  0  0  0  0  0
  1  2  2  0
  2  3  1  0
  3  4  2  0
  4  5  1  0
  5  6  1  0
  6  7  1  0
  7  8  1  0
  8  9  1  0
  9 10  1  0
 10 11  2  0
 11 12  1  0
 12 13  1  0
 13 14  1  0
 14 15  1  0
 15 16  1  0
 16 17  1  0
 17 18  1  0
 12 19  2  0
 19 20  1  0
 20 21  1  0
 21 22  1  0
 22 23  1  0
 23 24  1  0
 24 25  2  0
 25 26  1  0
 26 27  2  0
 27 28  1  0
 28 29  2  0
 29 30  1  0
 20 31  2  0
  5 32  2  0
 32  1  1  0
 31 10  1  0
 18 13  1  0
 30 21  1  0
 29 24  1  0
  1 33  1  0
  2 34  1  0
  4 35  1  0
  6 36  1  0
  6 37  1  0
  7 38  1  0
  7 39  1  0
  8 40  1  0
  8 41  1  0
  9 42  1  0
 14 43  1  0
 14 44  1  0
 15 45  1  0
 15 46  1  0
 16 47  1  0
 16 48  1  0
 17 49  1  0
 17 50  1  0
 18 51  1  0
 18 52  1  0
 22 53  1  0
 22 54  1  0
 23 55  1  0
 23 56  1  0
 25 57  1  0
 26 58  1  0
 27 59  1  0
 28 60  1  0
 30 61  1  0
 30 62  1  0
 32 63  1  0
M  CHG  1  16   1
M  END
>  <UniqueID>  (26) 
626

>  <SMILES>  (26) 
c1cncc(CCCNc2nc(N3CC[NH2+]CC3)nc(N3CCc4ccccc4C3)n2)c1

>  <Energy>  (26) 
68.14760511218654

>  <Genealogy>  (26) 
c1cncc(CCCNc2nc(N3CC[NH2+]CC3)nc(N3CCc4ccccc4C3)n2)c1 (protonated)
c1cncc(CCCNc2nc(N3CC[NH2+]CC3)nc(N3CCc4ccccc4C3)n2)c1 (3D coordinates assigned)
c1cncc(CCCNc2nc(N3CC[NH2+]CC3)nc(N3CCc4ccccc4C3)n2)c1 (nonaromatic ring conformer: 68.14760511218654 kcal/mol)

>  <smiles>  (26) 
c1cncc(CCCNc2nc(N3CCNCC3)nc(N3CCc4ccccc4C3)n2)c1

>  <score_type>  (26) 
oracle

>  <origin>  (26) 
autodockgpu

>  <m_score__min__energy>  (26) 
-9.4199999999999999

>  <m_primary>  (26) 
energy

>  <meeko>  (26) 
{"free_energy": -9.18, "intermolecular_energy": -11.27, "internal_energy": -0.88, "cluster_size": 4, "cluster_id": 1, "rank_in_cluster": 4}

>  <energy>  (26) 
-8.38

>  <cluster_rmsd>  (26) 
0.22

>  <rmsd>  (26) 
270.26

>  <cluster>  (26) 
2

$$$$
JSIQCYHYJBEBBC-RBVFQDFSNA-O
     RDKit          3D

 63 67  0  0  0  0  0  0  0  0999 V2000
  141.3110   72.2840  227.2010 C   0  0  0  0  0  0  0  0  0  0  0  0
  140.8680   71.6000  228.3350 C   0  0  0  0  0  0  0  0  0  0  0  0
  140.1790   70.4350  228.2000 N   0  0  0  0  0  0  0  0  0  0  0  0
  139.9030   69.9040  226.9780 C   0  0  0  0  0  0  0  0  0  0  0  0
  140.3210   70.5600  225.8090 C   0  0  0  0  0  0  0  0  0  0  0  0
  139.9720   70.0030  224.4510 C   0  0  0  0  0  0  0  0  0  0  0  0
  138.5860   70.4550  223.9550 C   0  0  0  0  0  0  0  0  0  0  0  0
  138.6130   71.1530  222.5830 C   0  0  0  0  0  0  0  0  0  0  0  0
  138.5870   72.6110  222.7060 N   0  0  0  0  0  0  0  0  0  0  0  0
  139.6230   73.4580  222.1940 C   0  0  0  0  0  0  0  0  0  0  0  0
  140.6810   72.9300  221.5260 N   0  0  0  0  0  0  0  0  0  0  0  0
  141.6770   73.7280  221.0650 C   0  0  0  0  0  0  0  0  0  0  0  0
  142.8180   73.1530  220.4030 N   0  0  0  0  0  0  0  0  0  0  0  0
  143.8880   74.0110  219.8760 C   0  0  0  0  0  0  0  0  0  0  0  0
  145.2880   73.4110  220.1420 C   0  0  0  0  0  0  0  0  0  0  0  0
  145.2600   71.9730  220.4720 N   0  0  0  0  0  0  0  0  0  0  0  0
  144.2420   71.2550  219.6980 C   0  0  0  0  0  0  0  0  0  0  0  0
  142.8440   71.7100  220.1260 C   0  0  0  0  0  0  0  0  0  0  0  0
  141.5990   75.0700  221.2660 N   0  0  0  0  0  0  0  0  0  0  0  0
  140.5440   75.6110  221.9300 C   0  0  0  0  0  0  0  0  0  0  0  0
  140.4750   77.0310  222.1390 N   0  0  0  0  0  0  0  0  0  0  0  0
  139.2750   77.7680  221.7190 C   0  0  0  0  0  0  0  0  0  0  0  0
  139.6750   79.1260  221.1500 C   0  0  0  0  0  0  0  0  0  0  0  0
  140.5780   79.8650  222.0980 C   0  0  0  0  0  0  0  0  0  0  0  0
  140.6210   81.2680  222.0570 C   0  0  0  0  0  0  0  0  0  0  0  0
  141.5020   81.9710  222.8820 C   0  0  0  0  0  0  0  0  0  0  0  0
  142.3580   81.2800  223.7430 C   0  0  0  0  0  0  0  0  0  0  0  0
  142.3330   79.8840  223.7850 C   0  0  0  0  0  0  0  0  0  0  0  0
  141.4460   79.1640  222.9680 C   0  0  0  0  0  0  0  0  0  0  0  0
  141.4240   77.6560  223.0730 C   0  0  0  0  0  0  0  0  0  0  0  0
  139.5590   74.7980  222.3950 N   0  0  0  0  0  0  0  0  0  0  0  0
  141.0490   71.7560  225.9340 C   0  0  0  0  0  0  0  0  0  0  0  0
  141.8617   73.2306  227.3042 H   0  0  0  0  0  0  0  0  0  0  0  0
  141.0761   72.0032  229.3371 H   0  0  0  0  0  0  0  0  0  0  0  0
  139.3496   68.9561  226.9055 H   0  0  0  0  0  0  0  0  0  0  0  0
  140.7301   70.3395  223.7284 H   0  0  0  0  0  0  0  0  0  0  0  0
  139.9489   68.9069  224.5403 H   0  0  0  0  0  0  0  0  0  0  0  0
  137.9386   69.5688  223.8803 H   0  0  0  0  0  0  0  0  0  0  0  0
  138.2108   71.1912  224.6811 H   0  0  0  0  0  0  0  0  0  0  0  0
  139.5308   70.8581  222.0531 H   0  0  0  0  0  0  0  0  0  0  0  0
  137.7148   70.8440  222.0282 H   0  0  0  0  0  0  0  0  0  0  0  0
  137.7300   73.0590  223.1080 H   0  0  0  0  0  0  0  0  0  0  0  0
  143.7502   74.1261  218.7908 H   0  0  0  0  0  0  0  0  0  0  0  0
  143.8298   74.9833  220.3871 H   0  0  0  0  0  0  0  0  0  0  0  0
  145.9029   73.5493  219.2405 H   0  0  0  0  0  0  0  0  0  0  0  0
  145.7036   73.9350  221.0154 H   0  0  0  0  0  0  0  0  0  0  0  0
  145.0710   71.8510  221.4960 H   0  0  0  0  0  0  0  0  0  0  0  0
  146.2000   71.5580  220.2700 H   0  0  0  0  0  0  0  0  0  0  0  0
  144.3821   71.4655  218.6275 H   0  0  0  0  0  0  0  0  0  0  0  0
  144.3430   70.1751  219.8812 H   0  0  0  0  0  0  0  0  0  0  0  0
  142.1308   71.4864  219.3189 H   0  0  0  0  0  0  0  0  0  0  0  0
  142.5686   71.1731  221.0457 H   0  0  0  0  0  0  0  0  0  0  0  0
  138.7435   77.1912  220.9478 H   0  0  0  0  0  0  0  0  0  0  0  0
  138.6180   77.9178  222.5885 H   0  0  0  0  0  0  0  0  0  0  0  0
  140.2018   78.9749  220.1962 H   0  0  0  0  0  0  0  0  0  0  0  0
  138.7639   79.7233  220.9979 H   0  0  0  0  0  0  0  0  0  0  0  0
  139.9576   81.8161  221.3718 H   0  0  0  0  0  0  0  0  0  0  0  0
  141.5218   83.0705  222.8537 H   0  0  0  0  0  0  0  0  0  0  0  0
  143.0531   81.8363  224.3891 H   0  0  0  0  0  0  0  0  0  0  0  0
  143.0122   79.3453  224.4621 H   0  0  0  0  0  0  0  0  0  0  0  0
  142.4326   77.2743  222.8563 H   0  0  0  0  0  0  0  0  0  0  0  0
  141.1001   77.4008  224.0928 H   0  0  0  0  0  0  0  0  0  0  0  0
  141.4121   72.2759  225.0352 H   0  0  0  0  0  0  0  0  0  0  0  0
  1  2  2  0
  2  3  1  0
  3  4  2  0
  4  5  1  0
  5  6  1  0
  6  7  1  0
  7  8  1  0
  8  9  1  0
  9 10  1  0
 10 11  2  0
 11 12  1  0
 12 13  1  0
 13 14  1  0
 14 15  1  0
 15 16  1  0
 16 17  1  0
 17 18  1  0
 12 19  2  0
 19 20  1  0
 20 21  1  0
 21 22  1  0
 22 23  1  0
 23 24  1  0
 24 25  2  0
 25 26  1  0
 26 27  2  0
 27 28  1  0
 28 29  2  0
 29 30  1  0
 20 31  2  0
  5 32  2  0
 32  1  1  0
 31 10  1  0
 18 13  1  0
 30 21  1  0
 29 24  1  0
  1 33  1  0
  2 34  1  0
  4 35  1  0
  6 36  1  0
  6 37  1  0
  7 38  1  0
  7 39  1  0
  8 40  1  0
  8 41  1  0
  9 42  1  0
 14 43  1  0
 14 44  1  0
 15 45  1  0
 15 46  1  0
 16 47  1  0
 16 48  1  0
 17 49  1  0
 17 50  1  0
 18 51  1  0
 18 52  1  0
 22 53  1  0
 22 54  1  0
 23 55  1  0
 23 56  1  0
 25 57  1  0
 26 58  1  0
 27 59  1  0
 28 60  1  0
 30 61  1  0
 30 62  1  0
 32 63  1  0
M  CHG  1  16   1
M  END
>  <UniqueID>  (27) 
626

>  <SMILES>  (27) 
c1cncc(CCCNc2nc(N3CC[NH2+]CC3)nc(N3CCc4ccccc4C3)n2)c1

>  <Energy>  (27) 
68.14760511218654

>  <Genealogy>  (27) 
c1cncc(CCCNc2nc(N3CC[NH2+]CC3)nc(N3CCc4ccccc4C3)n2)c1 (protonated)
c1cncc(CCCNc2nc(N3CC[NH2+]CC3)nc(N3CCc4ccccc4C3)n2)c1 (3D coordinates assigned)
c1cncc(CCCNc2nc(N3CC[NH2+]CC3)nc(N3CCc4ccccc4C3)n2)c1 (nonaromatic ring conformer: 68.14760511218654 kcal/mol)

>  <smiles>  (27) 
c1cncc(CCCNc2nc(N3CCNCC3)nc(N3CCc4ccccc4C3)n2)c1

>  <score_type>  (27) 
oracle

>  <origin>  (27) 
autodockgpu

>  <m_score__min__energy>  (27) 
-9.4199999999999999

>  <m_primary>  (27) 
energy

>  <meeko>  (27) 
{"free_energy": -9.42, "intermolecular_energy": -11.51, "internal_energy": -0.95, "cluster_size": 4, "cluster_id": 1, "rank_in_cluster": 1}

>  <energy>  (27) 
-8.38

>  <cluster_rmsd>  (27) 
0.07

>  <rmsd>  (27) 
270.29

>  <cluster>  (27) 
2

$$$$
JSIQCYHYJBEBBC-RBVFQDFSNA-O
     RDKit          3D

 63 67  0  0  0  0  0  0  0  0999 V2000
  140.8410   79.3920  223.7070 C   0  0  0  0  0  0  0  0  0  0  0  0
  141.7910   78.6500  223.0010 C   0  0  0  0  0  0  0  0  0  0  0  0
  141.3890   77.7020  222.1120 N   0  0  0  0  0  0  0  0  0  0  0  0
  140.0720   77.4470  221.8830 C   0  0  0  0  0  0  0  0  0  0  0  0
  139.0810   78.1620  222.5760 C   0  0  0  0  0  0  0  0  0  0  0  0
  137.6200   77.8460  222.3650 C   0  0  0  0  0  0  0  0  0  0  0  0
  137.2300   76.4450  222.8690 C   0  0  0  0  0  0  0  0  0  0  0  0
  136.1960   75.7290  221.9790 C   0  0  0  0  0  0  0  0  0  0  0  0
  136.7780   74.5950  221.2610 N   0  0  0  0  0  0  0  0  0  0  0  0
  138.1100   74.1210  221.4940 C   0  0  0  0  0  0  0  0  0  0  0  0
  139.1660   74.6860  220.8540 N   0  0  0  0  0  0  0  0  0  0  0  0
  140.4250   74.2190  221.0530 C   0  0  0  0  0  0  0  0  0  0  0  0
  141.5320   74.7910  220.3310 N   0  0  0  0  0  0  0  0  0  0  0  0
  141.3050   75.5590  219.0990 C   0  0  0  0  0  0  0  0  0  0  0  0
  142.2090   76.8120  219.0300 C   0  0  0  0  0  0  0  0  0  0  0  0
  143.3570   76.7630  219.9550 N   0  0  0  0  0  0  0  0  0  0  0  0
  143.9130   75.4100  220.0630 C   0  0  0  0  0  0  0  0  0  0  0  0
  142.9060   74.4850  220.7520 C   0  0  0  0  0  0  0  0  0  0  0  0
  140.6230   73.1860  221.9130 N   0  0  0  0  0  0  0  0  0  0  0  0
  139.5750   72.6150  222.5620 C   0  0  0  0  0  0  0  0  0  0  0  0
  139.7950   71.5210  223.4670 N   0  0  0  0  0  0  0  0  0  0  0  0
  139.5980   70.1420  223.0010 C   0  0  0  0  0  0  0  0  0  0  0  0
  138.9690   69.3050  224.1100 C   0  0  0  0  0  0  0  0  0  0  0  0
  139.7420   69.4390  225.3930 C   0  0  0  0  0  0  0  0  0  0  0  0
  139.6960   68.4020  226.3380 C   0  0  0  0  0  0  0  0  0  0  0  0
  140.3520   68.5350  227.5650 C   0  0  0  0  0  0  0  0  0  0  0  0
  141.0450   69.7110  227.8640 C   0  0  0  0  0  0  0  0  0  0  0  0
  141.0880   70.7550  226.9370 C   0  0  0  0  0  0  0  0  0  0  0  0
  140.4410   70.6310  225.6970 C   0  0  0  0  0  0  0  0  0  0  0  0
  140.5460   71.7690  224.7080 C   0  0  0  0  0  0  0  0  0  0  0  0
  138.3180   73.0850  222.3460 N   0  0  0  0  0  0  0  0  0  0  0  0
  139.4820   79.1560  223.4850 C   0  0  0  0  0  0  0  0  0  0  0  0
  141.1603   80.1556  224.4316 H   0  0  0  0  0  0  0  0  0  0  0  0
  142.8635   78.8322  223.1638 H   0  0  0  0  0  0  0  0  0  0  0  0
  139.7822   76.6777  221.1521 H   0  0  0  0  0  0  0  0  0  0  0  0
  137.0183   78.5927  222.9039 H   0  0  0  0  0  0  0  0  0  0  0  0
  137.4305   77.8710  221.2817 H   0  0  0  0  0  0  0  0  0  0  0  0
  138.1386   75.8264  222.9113 H   0  0  0  0  0  0  0  0  0  0  0  0
  136.7646   76.5782  223.8568 H   0  0  0  0  0  0  0  0  0  0  0  0
  135.3750   75.3634  222.6132 H   0  0  0  0  0  0  0  0  0  0  0  0
  135.8334   76.4516  221.2332 H   0  0  0  0  0  0  0  0  0  0  0  0
  136.1630   74.0520  220.6100 H   0  0  0  0  0  0  0  0  0  0  0  0
  141.5210   74.9157  218.2332 H   0  0  0  0  0  0  0  0  0  0  0  0
  140.2567   75.8922  219.0914 H   0  0  0  0  0  0  0  0  0  0  0  0
  142.5931   76.9077  218.0037 H   0  0  0  0  0  0  0  0  0  0  0  0
  141.5914   77.6724  219.3273 H   0  0  0  0  0  0  0  0  0  0  0  0
  143.0590   77.0950  220.9030 H   0  0  0  0  0  0  0  0  0  0  0  0
  144.1020   77.4120  219.6090 H   0  0  0  0  0  0  0  0  0  0  0  0
  144.1325   75.0247  219.0564 H   0  0  0  0  0  0  0  0  0  0  0  0
  144.8375   75.4453  220.6580 H   0  0  0  0  0  0  0  0  0  0  0  0
  143.1382   73.4423  220.4897 H   0  0  0  0  0  0  0  0  0  0  0  0
  142.9800   74.6361  221.8391 H   0  0  0  0  0  0  0  0  0  0  0  0
  138.9337   70.1445  222.1243 H   0  0  0  0  0  0  0  0  0  0  0  0
  140.5717   69.7091  222.7280 H   0  0  0  0  0  0  0  0  0  0  0  0
  137.9362   69.6455  224.2754 H   0  0  0  0  0  0  0  0  0  0  0  0
  138.9829   68.2491  223.8020 H   0  0  0  0  0  0  0  0  0  0  0  0
  139.1407   67.4798  226.1116 H   0  0  0  0  0  0  0  0  0  0  0  0
  140.3227   67.7134  228.2958 H   0  0  0  0  0  0  0  0  0  0  0  0
  141.5578   69.8148  228.8316 H   0  0  0  0  0  0  0  0  0  0  0  0
  141.6319   71.6797  227.1798 H   0  0  0  0  0  0  0  0  0  0  0  0
  140.1525   72.6814  225.1799 H   0  0  0  0  0  0  0  0  0  0  0  0
  141.6068   71.8731  224.4364 H   0  0  0  0  0  0  0  0  0  0  0  0
  138.7260   79.7481  224.0216 H   0  0  0  0  0  0  0  0  0  0  0  0
  1  2  2  0
  2  3  1  0
  3  4  2  0
  4  5  1  0
  5  6  1  0
  6  7  1  0
  7  8  1  0
  8  9  1  0
  9 10  1  0
 10 11  2  0
 11 12  1  0
 12 13  1  0
 13 14  1  0
 14 15  1  0
 15 16  1  0
 16 17  1  0
 17 18  1  0
 12 19  2  0
 19 20  1  0
 20 21  1  0
 21 22  1  0
 22 23  1  0
 23 24  1  0
 24 25  2  0
 25 26  1  0
 26 27  2  0
 27 28  1  0
 28 29  2  0
 29 30  1  0
 20 31  2  0
  5 32  2  0
 32  1  1  0
 31 10  1  0
 18 13  1  0
 30 21  1  0
 29 24  1  0
  1 33  1  0
  2 34  1  0
  4 35  1  0
  6 36  1  0
  6 37  1  0
  7 38  1  0
  7 39  1  0
  8 40  1  0
  8 41  1  0
  9 42  1  0
 14 43  1  0
 14 44  1  0
 15 45  1  0
 15 46  1  0
 16 47  1  0
 16 48  1  0
 17 49  1  0
 17 50  1  0
 18 51  1  0
 18 52  1  0
 22 53  1  0
 22 54  1  0
 23 55  1  0
 23 56  1  0
 25 57  1  0
 26 58  1  0
 27 59  1  0
 28 60  1  0
 30 61  1  0
 30 62  1  0
 32 63  1  0
M  CHG  1  16   1
M  END
>  <UniqueID>  (28) 
626

>  <SMILES>  (28) 
c1cncc(CCCNc2nc(N3CC[NH2+]CC3)nc(N3CCc4ccccc4C3)n2)c1

>  <Energy>  (28) 
68.14760511218654

>  <Genealogy>  (28) 
c1cncc(CCCNc2nc(N3CC[NH2+]CC3)nc(N3CCc4ccccc4C3)n2)c1 (protonated)
c1cncc(CCCNc2nc(N3CC[NH2+]CC3)nc(N3CCc4ccccc4C3)n2)c1 (3D coordinates assigned)
c1cncc(CCCNc2nc(N3CC[NH2+]CC3)nc(N3CCc4ccccc4C3)n2)c1 (nonaromatic ring conformer: 68.14760511218654 kcal/mol)

>  <smiles>  (28) 
c1cncc(CCCNc2nc(N3CCNCC3)nc(N3CCc4ccccc4C3)n2)c1

>  <score_type>  (28) 
oracle

>  <origin>  (28) 
autodockgpu

>  <m_score__min__energy>  (28) 
-9.4199999999999999

>  <m_primary>  (28) 
energy

>  <meeko>  (28) 
{"free_energy": -8.38, "intermolecular_energy": -10.46, "internal_energy": -2.3, "cluster_size": 10, "cluster_id": 2, "rank_in_cluster": 3}

>  <energy>  (28) 
-8.35

>  <cluster_rmsd>  (28) 
1.43

>  <rmsd>  (28) 
270.41

>  <cluster>  (28) 
2

$$$$
JSIQCYHYJBEBBC-RBVFQDFSNA-O
     RDKit          3D

 63 67  0  0  0  0  0  0  0  0999 V2000
  145.7540   73.6600  221.2000 C   0  0  0  0  0  0  0  0  0  0  0  0
  146.6550   73.4010  220.1640 C   0  0  0  0  0  0  0  0  0  0  0  0
  146.1940   73.0210  218.9420 N   0  0  0  0  0  0  0  0  0  0  0  0
  144.8640   72.8820  218.6890 C   0  0  0  0  0  0  0  0  0  0  0  0
  143.9210   73.1230  219.7020 C   0  0  0  0  0  0  0  0  0  0  0  0
  142.4490   72.9190  219.4420 C   0  0  0  0  0  0  0  0  0  0  0  0
  141.7400   74.2020  218.9700 C   0  0  0  0  0  0  0  0  0  0  0  0
  142.0420   75.4370  219.8390 C   0  0  0  0  0  0  0  0  0  0  0  0
  141.5910   75.2620  221.2200 N   0  0  0  0  0  0  0  0  0  0  0  0
  140.4690   74.4470  221.5800 C   0  0  0  0  0  0  0  0  0  0  0  0
  139.2160   74.7800  221.1770 N   0  0  0  0  0  0  0  0  0  0  0  0
  138.1490   74.0240  221.5400 C   0  0  0  0  0  0  0  0  0  0  0  0
  136.8180   74.4130  221.1500 N   0  0  0  0  0  0  0  0  0  0  0  0
  135.8670   74.9270  222.1450 C   0  0  0  0  0  0  0  0  0  0  0  0
  135.0490   76.1170  221.5950 C   0  0  0  0  0  0  0  0  0  0  0  0
  135.0780   76.2240  220.1240 N   0  0  0  0  0  0  0  0  0  0  0  0
  135.0590   74.9060  219.4810 C   0  0  0  0  0  0  0  0  0  0  0  0
  136.3650   74.1620  219.7760 C   0  0  0  0  0  0  0  0  0  0  0  0
  138.3480   72.9170  222.3030 N   0  0  0  0  0  0  0  0  0  0  0  0
  139.5970   72.5720  222.7100 C   0  0  0  0  0  0  0  0  0  0  0  0
  139.7950   71.4000  223.5180 N   0  0  0  0  0  0  0  0  0  0  0  0
  139.5570   70.0710  222.9400 C   0  0  0  0  0  0  0  0  0  0  0  0
  138.9150   69.1610  223.9820 C   0  0  0  0  0  0  0  0  0  0  0  0
  139.7000   69.1670  225.2640 C   0  0  0  0  0  0  0  0  0  0  0  0
  139.6330   68.0550  226.1190 C   0  0  0  0  0  0  0  0  0  0  0  0
  140.3000   68.0680  227.3470 C   0  0  0  0  0  0  0  0  0  0  0  0
  141.0270   69.1960  227.7370 C   0  0  0  0  0  0  0  0  0  0  0  0
  141.0910   70.3130  226.9000 C   0  0  0  0  0  0  0  0  0  0  0  0
  140.4330   70.3100  225.6600 C   0  0  0  0  0  0  0  0  0  0  0  0
  140.5600   71.5240  224.7680 C   0  0  0  0  0  0  0  0  0  0  0  0
  140.6550   73.3430  222.3470 N   0  0  0  0  0  0  0  0  0  0  0  0
  144.3820   73.5330  220.9650 C   0  0  0  0  0  0  0  0  0  0  0  0
  146.1213   73.9613  222.1921 H   0  0  0  0  0  0  0  0  0  0  0  0
  147.7365   73.5043  220.3365 H   0  0  0  0  0  0  0  0  0  0  0  0
  144.5259   72.5796  217.6869 H   0  0  0  0  0  0  0  0  0  0  0  0
  142.3333   72.1483  218.6657 H   0  0  0  0  0  0  0  0  0  0  0  0
  141.9850   72.6161  220.3922 H   0  0  0  0  0  0  0  0  0  0  0  0
  142.0611   74.4163  217.9400 H   0  0  0  0  0  0  0  0  0  0  0  0
  140.6585   74.0154  219.0448 H   0  0  0  0  0  0  0  0  0  0  0  0
  143.1278   75.6130  219.8401 H   0  0  0  0  0  0  0  0  0  0  0  0
  141.4994   76.2930  219.4114 H   0  0  0  0  0  0  0  0  0  0  0  0
  142.1680   75.6830  221.9870 H   0  0  0  0  0  0  0  0  0  0  0  0
  135.1754   74.1195  222.4270 H   0  0  0  0  0  0  0  0  0  0  0  0
  136.4397   75.2788  223.0158 H   0  0  0  0  0  0  0  0  0  0  0  0
  134.0032   75.9973  221.9144 H   0  0  0  0  0  0  0  0  0  0  0  0
  135.5060   77.0345  221.9942 H   0  0  0  0  0  0  0  0  0  0  0  0
  135.9370   76.7450  219.8260 H   0  0  0  0  0  0  0  0  0  0  0  0
  134.2460   76.7730  219.8040 H   0  0  0  0  0  0  0  0  0  0  0  0
  134.2113   74.3228  219.8700 H   0  0  0  0  0  0  0  0  0  0  0  0
  134.9541   75.0355  218.3937 H   0  0  0  0  0  0  0  0  0  0  0  0
  136.2012   73.0824  219.6434 H   0  0  0  0  0  0  0  0  0  0  0  0
  137.1377   74.5241  219.0819 H   0  0  0  0  0  0  0  0  0  0  0  0
  138.8856   70.1646  222.0737 H   0  0  0  0  0  0  0  0  0  0  0  0
  140.5161   69.6371  222.6209 H   0  0  0  0  0  0  0  0  0  0  0  0
  137.8928   69.5129  224.1851 H   0  0  0  0  0  0  0  0  0  0  0  0
  138.8995   68.1345  223.5869 H   0  0  0  0  0  0  0  0  0  0  0  0
  139.0527   67.1694  225.8207 H   0  0  0  0  0  0  0  0  0  0  0  0
  140.2527   67.1895  228.0073 H   0  0  0  0  0  0  0  0  0  0  0  0
  141.5498   69.2045  228.7048 H   0  0  0  0  0  0  0  0  0  0  0  0
  141.6604   71.2000  227.2146 H   0  0  0  0  0  0  0  0  0  0  0  0
  140.1932   72.4032  225.3179 H   0  0  0  0  0  0  0  0  0  0  0  0
  141.6212   71.6237  224.4963 H   0  0  0  0  0  0  0  0  0  0  0  0
  143.6634   73.7538  221.7680 H   0  0  0  0  0  0  0  0  0  0  0  0
  1  2  2  0
  2  3  1  0
  3  4  2  0
  4  5  1  0
  5  6  1  0
  6  7  1  0
  7  8  1  0
  8  9  1  0
  9 10  1  0
 10 11  2  0
 11 12  1  0
 12 13  1  0
 13 14  1  0
 14 15  1  0
 15 16  1  0
 16 17  1  0
 17 18  1  0
 12 19  2  0
 19 20  1  0
 20 21  1  0
 21 22  1  0
 22 23  1  0
 23 24  1  0
 24 25  2  0
 25 26  1  0
 26 27  2  0
 27 28  1  0
 28 29  2  0
 29 30  1  0
 20 31  2  0
  5 32  2  0
 32  1  1  0
 31 10  1  0
 18 13  1  0
 30 21  1  0
 29 24  1  0
  1 33  1  0
  2 34  1  0
  4 35  1  0
  6 36  1  0
  6 37  1  0
  7 38  1  0
  7 39  1  0
  8 40  1  0
  8 41  1  0
  9 42  1  0
 14 43  1  0
 14 44  1  0
 15 45  1  0
 15 46  1  0
 16 47  1  0
 16 48  1  0
 17 49  1  0
 17 50  1  0
 18 51  1  0
 18 52  1  0
 22 53  1  0
 22 54  1  0
 23 55  1  0
 23 56  1  0
 25 57  1  0
 26 58  1  0
 27 59  1  0
 28 60  1  0
 30 61  1  0
 30 62  1  0
 32 63  1  0
M  CHG  1  16   1
M  END
>  <UniqueID>  (29) 
626

>  <SMILES>  (29) 
c1cncc(CCCNc2nc(N3CC[NH2+]CC3)nc(N3CCc4ccccc4C3)n2)c1

>  <Energy>  (29) 
68.14760511218654

>  <Genealogy>  (29) 
c1cncc(CCCNc2nc(N3CC[NH2+]CC3)nc(N3CCc4ccccc4C3)n2)c1 (protonated)
c1cncc(CCCNc2nc(N3CC[NH2+]CC3)nc(N3CCc4ccccc4C3)n2)c1 (3D coordinates assigned)
c1cncc(CCCNc2nc(N3CC[NH2+]CC3)nc(N3CCc4ccccc4C3)n2)c1 (nonaromatic ring conformer: 68.14760511218654 kcal/mol)

>  <smiles>  (29) 
c1cncc(CCCNc2nc(N3CCNCC3)nc(N3CCc4ccccc4C3)n2)c1

>  <score_type>  (29) 
oracle

>  <origin>  (29) 
autodockgpu

>  <m_score__min__energy>  (29) 
-9.4199999999999999

>  <m_primary>  (29) 
energy

>  <meeko>  (29) 
{"free_energy": -7.95, "intermolecular_energy": -10.04, "internal_energy": -1.14, "cluster_size": 1, "cluster_id": 5, "rank_in_cluster": 1}

>  <energy>  (29) 
-8.24

>  <cluster_rmsd>  (29) 
1.25

>  <rmsd>  (29) 
270.29

>  <cluster>  (29) 
2

$$$$
JSIQCYHYJBEBBC-RBVFQDFSNA-O
     RDKit          3D

 63 67  0  0  0  0  0  0  0  0999 V2000
  134.3110   72.1810  225.5080 C   0  0  0  0  0  0  0  0  0  0  0  0
  133.5630   72.7690  226.5310 C   0  0  0  0  0  0  0  0  0  0  0  0
  133.5790   74.1190  226.6950 N   0  0  0  0  0  0  0  0  0  0  0  0
  134.3100   74.9310  225.8830 C   0  0  0  0  0  0  0  0  0  0  0  0
  135.0840   74.3850  224.8460 C   0  0  0  0  0  0  0  0  0  0  0  0
  135.9380   75.2750  223.9770 C   0  0  0  0  0  0  0  0  0  0  0  0
  135.4950   75.2760  222.5020 C   0  0  0  0  0  0  0  0  0  0  0  0
  135.9890   74.0560  221.7020 C   0  0  0  0  0  0  0  0  0  0  0  0
  137.2340   74.3340  220.9860 N   0  0  0  0  0  0  0  0  0  0  0  0
  138.5170   73.8950  221.4460 C   0  0  0  0  0  0  0  0  0  0  0  0
  139.6540   74.4700  220.9750 N   0  0  0  0  0  0  0  0  0  0  0  0
  140.8710   74.0370  221.3890 C   0  0  0  0  0  0  0  0  0  0  0  0
  142.0710   74.6190  220.8460 N   0  0  0  0  0  0  0  0  0  0  0  0
  143.3320   73.8650  220.8390 C   0  0  0  0  0  0  0  0  0  0  0  0
  144.1110   74.0620  219.5180 C   0  0  0  0  0  0  0  0  0  0  0  0
  143.6690   75.2370  218.7420 N   0  0  0  0  0  0  0  0  0  0  0  0
  143.3190   76.3650  219.6130 C   0  0  0  0  0  0  0  0  0  0  0  0
  142.0660   76.0270  220.4250 C   0  0  0  0  0  0  0  0  0  0  0  0
  140.9440   73.0270  222.2960 N   0  0  0  0  0  0  0  0  0  0  0  0
  139.8140   72.4460  222.7770 C   0  0  0  0  0  0  0  0  0  0  0  0
  139.9040   71.3770  223.7330 N   0  0  0  0  0  0  0  0  0  0  0  0
  139.5580   70.0080  223.3260 C   0  0  0  0  0  0  0  0  0  0  0  0
  138.8300   69.2980  224.4620 C   0  0  0  0  0  0  0  0  0  0  0  0
  139.6010   69.4040  225.7490 C   0  0  0  0  0  0  0  0  0  0  0  0
  139.4310   68.4220  226.7380 C   0  0  0  0  0  0  0  0  0  0  0  0
  140.0870   68.5380  227.9660 C   0  0  0  0  0  0  0  0  0  0  0  0
  140.9040   69.6410  228.2230 C   0  0  0  0  0  0  0  0  0  0  0  0
  141.0720   70.6310  227.2510 C   0  0  0  0  0  0  0  0  0  0  0  0
  140.4260   70.5230  226.0090 C   0  0  0  0  0  0  0  0  0  0  0  0
  140.6660   71.5970  224.9720 C   0  0  0  0  0  0  0  0  0  0  0  0
  138.6020   72.8830  222.3460 N   0  0  0  0  0  0  0  0  0  0  0  0
  135.0640   72.9920  224.6550 C   0  0  0  0  0  0  0  0  0  0  0  0
  134.3072   71.0891  225.3752 H   0  0  0  0  0  0  0  0  0  0  0  0
  132.9613   72.1402  227.2037 H   0  0  0  0  0  0  0  0  0  0  0  0
  134.2944   76.0197  226.0397 H   0  0  0  0  0  0  0  0  0  0  0  0
  135.8781   76.3036  224.3622 H   0  0  0  0  0  0  0  0  0  0  0  0
  136.9654   74.8837  224.0128 H   0  0  0  0  0  0  0  0  0  0  0  0
  134.3955   75.2890  222.4704 H   0  0  0  0  0  0  0  0  0  0  0  0
  135.9410   76.1665  222.0349 H   0  0  0  0  0  0  0  0  0  0  0  0
  136.1589   73.2210  222.3976 H   0  0  0  0  0  0  0  0  0  0  0  0
  135.2191   73.8053  220.9574 H   0  0  0  0  0  0  0  0  0  0  0  0
  137.1730   74.7990  220.0490 H   0  0  0  0  0  0  0  0  0  0  0  0
  143.9574   74.2091  221.6759 H   0  0  0  0  0  0  0  0  0  0  0  0
  143.0920   72.7961  220.9385 H   0  0  0  0  0  0  0  0  0  0  0  0
  145.1775   74.1846  219.7580 H   0  0  0  0  0  0  0  0  0  0  0  0
  143.9219   73.1746  218.8962 H   0  0  0  0  0  0  0  0  0  0  0  0
  142.8410   74.9790  218.1540 H   0  0  0  0  0  0  0  0  0  0  0  0
  144.4400   75.5290  218.0970 H   0  0  0  0  0  0  0  0  0  0  0  0
  144.1543   76.5689  220.2991 H   0  0  0  0  0  0  0  0  0  0  0  0
  143.1210   77.2526  218.9942 H   0  0  0  0  0  0  0  0  0  0  0  0
  142.0328   76.6686  221.3179 H   0  0  0  0  0  0  0  0  0  0  0  0
  141.1830   76.1987  219.7918 H   0  0  0  0  0  0  0  0  0  0  0  0
  138.9057   70.0443  222.4410 H   0  0  0  0  0  0  0  0  0  0  0  0
  140.4795   69.4574  223.0860 H   0  0  0  0  0  0  0  0  0  0  0  0
  137.8400   69.7581  224.5973 H   0  0  0  0  0  0  0  0  0  0  0  0
  138.7295   68.2340  224.2015 H   0  0  0  0  0  0  0  0  0  0  0  0
  138.7785   67.5577  226.5451 H   0  0  0  0  0  0  0  0  0  0  0  0
  139.9597   67.7589  228.7320 H   0  0  0  0  0  0  0  0  0  0  0  0
  141.4163   69.7308  229.1923 H   0  0  0  0  0  0  0  0  0  0  0  0
  141.7138   71.4995  227.4601 H   0  0  0  0  0  0  0  0  0  0  0  0
  140.3716   72.5677  225.3974 H   0  0  0  0  0  0  0  0  0  0  0  0
  141.7344   71.5714  224.7114 H   0  0  0  0  0  0  0  0  0  0  0  0
  135.6410   72.5409  223.8343 H   0  0  0  0  0  0  0  0  0  0  0  0
  1  2  2  0
  2  3  1  0
  3  4  2  0
  4  5  1  0
  5  6  1  0
  6  7  1  0
  7  8  1  0
  8  9  1  0
  9 10  1  0
 10 11  2  0
 11 12  1  0
 12 13  1  0
 13 14  1  0
 14 15  1  0
 15 16  1  0
 16 17  1  0
 17 18  1  0
 12 19  2  0
 19 20  1  0
 20 21  1  0
 21 22  1  0
 22 23  1  0
 23 24  1  0
 24 25  2  0
 25 26  1  0
 26 27  2  0
 27 28  1  0
 28 29  2  0
 29 30  1  0
 20 31  2  0
  5 32  2  0
 32  1  1  0
 31 10  1  0
 18 13  1  0
 30 21  1  0
 29 24  1  0
  1 33  1  0
  2 34  1  0
  4 35  1  0
  6 36  1  0
  6 37  1  0
  7 38  1  0
  7 39  1  0
  8 40  1  0
  8 41  1  0
  9 42  1  0
 14 43  1  0
 14 44  1  0
 15 45  1  0
 15 46  1  0
 16 47  1  0
 16 48  1  0
 17 49  1  0
 17 50  1  0
 18 51  1  0
 18 52  1  0
 22 53  1  0
 22 54  1  0
 23 55  1  0
 23 56  1  0
 25 57  1  0
 26 58  1  0
 27 59  1  0
 28 60  1  0
 30 61  1  0
 30 62  1  0
 32 63  1  0
M  CHG  1  16   1
M  END
>  <UniqueID>  (30) 
626

>  <SMILES>  (30) 
c1cncc(CCCNc2nc(N3CC[NH2+]CC3)nc(N3CCc4ccccc4C3)n2)c1

>  <Energy>  (30) 
68.14760511218654

>  <Genealogy>  (30) 
c1cncc(CCCNc2nc(N3CC[NH2+]CC3)nc(N3CCc4ccccc4C3)n2)c1 (protonated)
c1cncc(CCCNc2nc(N3CC[NH2+]CC3)nc(N3CCc4ccccc4C3)n2)c1 (3D coordinates assigned)
c1cncc(CCCNc2nc(N3CC[NH2+]CC3)nc(N3CCc4ccccc4C3)n2)c1 (nonaromatic ring conformer: 68.14760511218654 kcal/mol)

>  <smiles>  (30) 
c1cncc(CCCNc2nc(N3CCNCC3)nc(N3CCc4ccccc4C3)n2)c1

>  <score_type>  (30) 
oracle

>  <origin>  (30) 
autodockgpu

>  <m_score__min__energy>  (30) 
-9.4199999999999999

>  <m_primary>  (30) 
energy

>  <meeko>  (30) 
{"free_energy": -8.33, "intermolecular_energy": -10.42, "internal_energy": -1.08, "cluster_size": 1, "cluster_id": 3, "rank_in_cluster": 1}

>  <energy>  (30) 
-8.14

>  <cluster_rmsd>  (30) 
1.44

>  <rmsd>  (30) 
270.34

>  <cluster>  (30) 
2

$$$$
JSIQCYHYJBEBBC-RBVFQDFSNA-O
     RDKit          3D

 63 67  0  0  0  0  0  0  0  0999 V2000
  140.7780   79.3890  223.7760 C   0  0  0  0  0  0  0  0  0  0  0  0
  141.7560   78.6490  223.1080 C   0  0  0  0  0  0  0  0  0  0  0  0
  141.3920   77.7090  222.1950 N   0  0  0  0  0  0  0  0  0  0  0  0
  140.0860   77.4610  221.9050 C   0  0  0  0  0  0  0  0  0  0  0  0
  139.0670   78.1740  222.5570 C   0  0  0  0  0  0  0  0  0  0  0  0
  137.6160   77.8670  222.2780 C   0  0  0  0  0  0  0  0  0  0  0  0
  137.1890   76.4770  222.7860 C   0  0  0  0  0  0  0  0  0  0  0  0
  136.1710   75.7660  221.8750 C   0  0  0  0  0  0  0  0  0  0  0  0
  136.7300   74.5640  221.2570 N   0  0  0  0  0  0  0  0  0  0  0  0
  138.0650   74.1070  221.5010 C   0  0  0  0  0  0  0  0  0  0  0  0
  139.1190   74.6760  220.8600 N   0  0  0  0  0  0  0  0  0  0  0  0
  140.3820   74.2260  221.0690 C   0  0  0  0  0  0  0  0  0  0  0  0
  141.4860   74.8020  220.3470 N   0  0  0  0  0  0  0  0  0  0  0  0
  141.2530   75.5900  219.1290 C   0  0  0  0  0  0  0  0  0  0  0  0
  142.1640   76.8380  219.0710 C   0  0  0  0  0  0  0  0  0  0  0  0
  143.3200   76.7690  219.9850 N   0  0  0  0  0  0  0  0  0  0  0  0
  143.8690   75.4110  220.0670 C   0  0  0  0  0  0  0  0  0  0  0  0
  142.8610   74.4820  220.7510 C   0  0  0  0  0  0  0  0  0  0  0  0
  140.5860   73.2040  221.9420 N   0  0  0  0  0  0  0  0  0  0  0  0
  139.5410   72.6280  222.5920 C   0  0  0  0  0  0  0  0  0  0  0  0
  139.7700   71.5460  223.5100 N   0  0  0  0  0  0  0  0  0  0  0  0
  139.5820   70.1610  223.0590 C   0  0  0  0  0  0  0  0  0  0  0  0
  138.9590   69.3330  224.1780 C   0  0  0  0  0  0  0  0  0  0  0  0
  139.7310   69.4870  225.4600 C   0  0  0  0  0  0  0  0  0  0  0  0
  139.6920   68.4600  226.4160 C   0  0  0  0  0  0  0  0  0  0  0  0
  140.3460   68.6120  227.6420 C   0  0  0  0  0  0  0  0  0  0  0  0
  141.0310   69.7960  227.9270 C   0  0  0  0  0  0  0  0  0  0  0  0
  141.0680   70.8300  226.9880 C   0  0  0  0  0  0  0  0  0  0  0  0
  140.4220   70.6870  225.7500 C   0  0  0  0  0  0  0  0  0  0  0  0
  140.5180   71.8150  224.7470 C   0  0  0  0  0  0  0  0  0  0  0  0
  138.2810   73.0830  222.3650 N   0  0  0  0  0  0  0  0  0  0  0  0
  139.4300   79.1610  223.4910 C   0  0  0  0  0  0  0  0  0  0  0  0
  141.0671   80.1453  224.5206 H   0  0  0  0  0  0  0  0  0  0  0  0
  142.8206   78.8264  223.3203 H   0  0  0  0  0  0  0  0  0  0  0  0
  139.8271   76.6981  221.1560 H   0  0  0  0  0  0  0  0  0  0  0  0
  136.9948   78.6278  222.7733 H   0  0  0  0  0  0  0  0  0  0  0  0
  137.4808   77.8754  221.1864 H   0  0  0  0  0  0  0  0  0  0  0  0
  138.0863   75.8452  222.8621 H   0  0  0  0  0  0  0  0  0  0  0  0
  136.6965   76.6293  223.7577 H   0  0  0  0  0  0  0  0  0  0  0  0
  135.2954   75.4809  222.4767 H   0  0  0  0  0  0  0  0  0  0  0  0
  135.8931   76.4623  221.0701 H   0  0  0  0  0  0  0  0  0  0  0  0
  136.0960   73.9640  220.6780 H   0  0  0  0  0  0  0  0  0  0  0  0
  141.4573   74.9587  218.2517 H   0  0  0  0  0  0  0  0  0  0  0  0
  140.2068   75.9297  219.1358 H   0  0  0  0  0  0  0  0  0  0  0  0
  142.5397   76.9467  218.0429 H   0  0  0  0  0  0  0  0  0  0  0  0
  141.5541   77.6972  219.3869 H   0  0  0  0  0  0  0  0  0  0  0  0
  143.0320   77.0880  220.9400 H   0  0  0  0  0  0  0  0  0  0  0  0
  144.0660   77.4180  219.6420 H   0  0  0  0  0  0  0  0  0  0  0  0
  144.0772   75.0398  219.0527 H   0  0  0  0  0  0  0  0  0  0  0  0
  144.7993   75.4311  220.6537 H   0  0  0  0  0  0  0  0  0  0  0  0
  143.0844   73.4418  220.4714 H   0  0  0  0  0  0  0  0  0  0  0  0
  142.9450   74.6173  221.8394 H   0  0  0  0  0  0  0  0  0  0  0  0
  138.9172   70.1494  222.1827 H   0  0  0  0  0  0  0  0  0  0  0  0
  140.5581   69.7312  222.7897 H   0  0  0  0  0  0  0  0  0  0  0  0
  137.9239   69.6684  224.3395 H   0  0  0  0  0  0  0  0  0  0  0  0
  138.9806   68.2737  223.8823 H   0  0  0  0  0  0  0  0  0  0  0  0
  139.1441   67.5311  226.1994 H   0  0  0  0  0  0  0  0  0  0  0  0
  140.3214   67.7992  228.3827 H   0  0  0  0  0  0  0  0  0  0  0  0
  141.5427   69.9144  228.8935 H   0  0  0  0  0  0  0  0  0  0  0  0
  141.6061   71.7609  227.2201 H   0  0  0  0  0  0  0  0  0  0  0  0
  140.1168   72.7296  225.2079 H   0  0  0  0  0  0  0  0  0  0  0  0
  141.5780   71.9250  224.4745 H   0  0  0  0  0  0  0  0  0  0  0  0
  138.6527   79.7529  223.9966 H   0  0  0  0  0  0  0  0  0  0  0  0
  1  2  2  0
  2  3  1  0
  3  4  2  0
  4  5  1  0
  5  6  1  0
  6  7  1  0
  7  8  1  0
  8  9  1  0
  9 10  1  0
 10 11  2  0
 11 12  1  0
 12 13  1  0
 13 14  1  0
 14 15  1  0
 15 16  1  0
 16 17  1  0
 17 18  1  0
 12 19  2  0
 19 20  1  0
 20 21  1  0
 21 22  1  0
 22 23  1  0
 23 24  1  0
 24 25  2  0
 25 26  1  0
 26 27  2  0
 27 28  1  0
 28 29  2  0
 29 30  1  0
 20 31  2  0
  5 32  2  0
 32  1  1  0
 31 10  1  0
 18 13  1  0
 30 21  1  0
 29 24  1  0
  1 33  1  0
  2 34  1  0
  4 35  1  0
  6 36  1  0
  6 37  1  0
  7 38  1  0
  7 39  1  0
  8 40  1  0
  8 41  1  0
  9 42  1  0
 14 43  1  0
 14 44  1  0
 15 45  1  0
 15 46  1  0
 16 47  1  0
 16 48  1  0
 17 49  1  0
 17 50  1  0
 18 51  1  0
 18 52  1  0
 22 53  1  0
 22 54  1  0
 23 55  1  0
 23 56  1  0
 25 57  1  0
 26 58  1  0
 27 59  1  0
 28 60  1  0
 30 61  1  0
 30 62  1  0
 32 63  1  0
M  CHG  1  16   1
M  END
>  <UniqueID>  (31) 
626

>  <SMILES>  (31) 
c1cncc(CCCNc2nc(N3CC[NH2+]CC3)nc(N3CCc4ccccc4C3)n2)c1

>  <Energy>  (31) 
68.14760511218654

>  <Genealogy>  (31) 
c1cncc(CCCNc2nc(N3CC[NH2+]CC3)nc(N3CCc4ccccc4C3)n2)c1 (protonated)
c1cncc(CCCNc2nc(N3CC[NH2+]CC3)nc(N3CCc4ccccc4C3)n2)c1 (3D coordinates assigned)
c1cncc(CCCNc2nc(N3CC[NH2+]CC3)nc(N3CCc4ccccc4C3)n2)c1 (nonaromatic ring conformer: 68.14760511218654 kcal/mol)

>  <smiles>  (31) 
c1cncc(CCCNc2nc(N3CCNCC3)nc(N3CCc4ccccc4C3)n2)c1

>  <score_type>  (31) 
oracle

>  <origin>  (31) 
autodockgpu

>  <m_score__min__energy>  (31) 
-9.4199999999999999

>  <m_primary>  (31) 
energy

>  <meeko>  (31) 
{"free_energy": -8.39, "intermolecular_energy": -10.48, "internal_energy": -2.3, "cluster_size": 10, "cluster_id": 2, "rank_in_cluster": 1}

>  <energy>  (31) 
-8.11

>  <cluster_rmsd>  (31) 
0.39

>  <rmsd>  (31) 
270.2

>  <cluster>  (31) 
2

$$$$
JSIQCYHYJBEBBC-RBVFQDFSNA-O
     RDKit          3D

 63 67  0  0  0  0  0  0  0  0999 V2000
  140.6870   79.4060  223.8030 C   0  0  0  0  0  0  0  0  0  0  0  0
  141.6940   78.6340  223.2190 C   0  0  0  0  0  0  0  0  0  0  0  0
  141.3690   77.6180  222.3750 N   0  0  0  0  0  0  0  0  0  0  0  0
  140.0750   77.3220  222.0750 C   0  0  0  0  0  0  0  0  0  0  0  0
  139.0280   78.0650  222.6460 C   0  0  0  0  0  0  0  0  0  0  0  0
  137.5900   77.7070  222.3590 C   0  0  0  0  0  0  0  0  0  0  0  0
  137.1580   76.3840  223.0180 C   0  0  0  0  0  0  0  0  0  0  0  0
  136.0870   75.6130  222.2220 C   0  0  0  0  0  0  0  0  0  0  0  0
  136.6650   74.5310  221.4260 N   0  0  0  0  0  0  0  0  0  0  0  0
  138.0010   74.0490  221.6120 C   0  0  0  0  0  0  0  0  0  0  0  0
  139.0440   74.6380  220.9720 N   0  0  0  0  0  0  0  0  0  0  0  0
  140.3070   74.1650  221.1260 C   0  0  0  0  0  0  0  0  0  0  0  0
  141.3980   74.7650  220.4030 N   0  0  0  0  0  0  0  0  0  0  0  0
  141.1440   75.5940  219.2170 C   0  0  0  0  0  0  0  0  0  0  0  0
  142.0560   76.8420  219.1850 C   0  0  0  0  0  0  0  0  0  0  0  0
  143.2290   76.7400  220.0740 N   0  0  0  0  0  0  0  0  0  0  0  0
  143.7760   75.3790  220.0990 C   0  0  0  0  0  0  0  0  0  0  0  0
  142.7800   74.4280  220.7700 C   0  0  0  0  0  0  0  0  0  0  0  0
  140.5220   73.1000  221.9420 N   0  0  0  0  0  0  0  0  0  0  0  0
  139.4880   72.5040  222.5900 C   0  0  0  0  0  0  0  0  0  0  0  0
  139.7280   71.3770  223.4490 N   0  0  0  0  0  0  0  0  0  0  0  0
  139.5580   70.0160  222.9230 C   0  0  0  0  0  0  0  0  0  0  0  0
  138.9430   69.1200  223.9940 C   0  0  0  0  0  0  0  0  0  0  0  0
  139.7100   69.2140  225.2840 C   0  0  0  0  0  0  0  0  0  0  0  0
  139.6820   68.1360  226.1830 C   0  0  0  0  0  0  0  0  0  0  0  0
  140.3320   68.2290  227.4160 C   0  0  0  0  0  0  0  0  0  0  0  0
  141.0020   69.4030  227.7680 C   0  0  0  0  0  0  0  0  0  0  0  0
  141.0270   70.4870  226.8870 C   0  0  0  0  0  0  0  0  0  0  0  0
  140.3860   70.4040  225.6410 C   0  0  0  0  0  0  0  0  0  0  0  0
  140.4700   71.5860  224.7010 C   0  0  0  0  0  0  0  0  0  0  0  0
  138.2270   72.9820  222.4190 N   0  0  0  0  0  0  0  0  0  0  0  0
  139.3500   79.1280  223.5060 C   0  0  0  0  0  0  0  0  0  0  0  0
  140.9440   80.2254  224.4904 H   0  0  0  0  0  0  0  0  0  0  0  0
  142.7498   78.8477  223.4416 H   0  0  0  0  0  0  0  0  0  0  0  0
  139.8478   76.4978  221.3828 H   0  0  0  0  0  0  0  0  0  0  0  0
  136.9453   78.5142  222.7370 H   0  0  0  0  0  0  0  0  0  0  0  0
  137.4926   77.5805  221.2706 H   0  0  0  0  0  0  0  0  0  0  0  0
  138.0448   75.7411  223.1189 H   0  0  0  0  0  0  0  0  0  0  0  0
  136.7115   76.6411  223.9899 H   0  0  0  0  0  0  0  0  0  0  0  0
  135.3604   75.1846  222.9281 H   0  0  0  0  0  0  0  0  0  0  0  0
  135.6040   76.3202  221.5317 H   0  0  0  0  0  0  0  0  0  0  0  0
  136.0440   74.0280  220.7480 H   0  0  0  0  0  0  0  0  0  0  0  0
  141.3311   74.9927  218.3151 H   0  0  0  0  0  0  0  0  0  0  0  0
  140.0986   75.9344  219.2543 H   0  0  0  0  0  0  0  0  0  0  0  0
  142.4124   76.9858  218.1543 H   0  0  0  0  0  0  0  0  0  0  0  0
  141.4538   77.6905  219.5420 H   0  0  0  0  0  0  0  0  0  0  0  0
  142.9590   77.0260  221.0450 H   0  0  0  0  0  0  0  0  0  0  0  0
  143.9690   77.4000  219.7400 H   0  0  0  0  0  0  0  0  0  0  0  0
  143.9638   75.0426  219.0687 H   0  0  0  0  0  0  0  0  0  0  0  0
  144.7172   75.3778  220.6684 H   0  0  0  0  0  0  0  0  0  0  0  0
  142.9956   73.3978  220.4503 H   0  0  0  0  0  0  0  0  0  0  0  0
  142.8854   74.5242  221.8607 H   0  0  0  0  0  0  0  0  0  0  0  0
  138.8951   70.0439  222.0457 H   0  0  0  0  0  0  0  0  0  0  0  0
  140.5400   69.6137  222.6335 H   0  0  0  0  0  0  0  0  0  0  0  0
  137.9033   69.4328  224.1706 H   0  0  0  0  0  0  0  0  0  0  0  0
  138.9787   68.0787  223.6413 H   0  0  0  0  0  0  0  0  0  0  0  0
  139.1457   67.2137  225.9152 H   0  0  0  0  0  0  0  0  0  0  0  0
  140.3162   67.3763  228.1108 H   0  0  0  0  0  0  0  0  0  0  0  0
  141.5109   69.4742  228.7406 H   0  0  0  0  0  0  0  0  0  0  0  0
  141.5520   71.4108  227.1714 H   0  0  0  0  0  0  0  0  0  0  0  0
  140.0569   72.4692  225.2103 H   0  0  0  0  0  0  0  0  0  0  0  0
  141.5292   71.7227  224.4374 H   0  0  0  0  0  0  0  0  0  0  0  0
  138.5498   79.7415  223.9456 H   0  0  0  0  0  0  0  0  0  0  0  0
  1  2  2  0
  2  3  1  0
  3  4  2  0
  4  5  1  0
  5  6  1  0
  6  7  1  0
  7  8  1  0
  8  9  1  0
  9 10  1  0
 10 11  2  0
 11 12  1  0
 12 13  1  0
 13 14  1  0
 14 15  1  0
 15 16  1  0
 16 17  1  0
 17 18  1  0
 12 19  2  0
 19 20  1  0
 20 21  1  0
 21 22  1  0
 22 23  1  0
 23 24  1  0
 24 25  2  0
 25 26  1  0
 26 27  2  0
 27 28  1  0
 28 29  2  0
 29 30  1  0
 20 31  2  0
  5 32  2  0
 32  1  1  0
 31 10  1  0
 18 13  1  0
 30 21  1  0
 29 24  1  0
  1 33  1  0
  2 34  1  0
  4 35  1  0
  6 36  1  0
  6 37  1  0
  7 38  1  0
  7 39  1  0
  8 40  1  0
  8 41  1  0
  9 42  1  0
 14 43  1  0
 14 44  1  0
 15 45  1  0
 15 46  1  0
 16 47  1  0
 16 48  1  0
 17 49  1  0
 17 50  1  0
 18 51  1  0
 18 52  1  0
 22 53  1  0
 22 54  1  0
 23 55  1  0
 23 56  1  0
 25 57  1  0
 26 58  1  0
 27 59  1  0
 28 60  1  0
 30 61  1  0
 30 62  1  0
 32 63  1  0
M  CHG  1  16   1
M  END
>  <UniqueID>  (32) 
626

>  <SMILES>  (32) 
c1cncc(CCCNc2nc(N3CC[NH2+]CC3)nc(N3CCc4ccccc4C3)n2)c1

>  <Energy>  (32) 
68.14760511218654

>  <Genealogy>  (32) 
c1cncc(CCCNc2nc(N3CC[NH2+]CC3)nc(N3CCc4ccccc4C3)n2)c1 (protonated)
c1cncc(CCCNc2nc(N3CC[NH2+]CC3)nc(N3CCc4ccccc4C3)n2)c1 (3D coordinates assigned)
c1cncc(CCCNc2nc(N3CC[NH2+]CC3)nc(N3CCc4ccccc4C3)n2)c1 (nonaromatic ring conformer: 68.14760511218654 kcal/mol)

>  <smiles>  (32) 
c1cncc(CCCNc2nc(N3CCNCC3)nc(N3CCc4ccccc4C3)n2)c1

>  <score_type>  (32) 
oracle

>  <origin>  (32) 
autodockgpu

>  <m_score__min__energy>  (32) 
-9.4199999999999999

>  <m_primary>  (32) 
energy

>  <meeko>  (32) 
{"free_energy": -8.38, "intermolecular_energy": -10.47, "internal_energy": -2.28, "cluster_size": 10, "cluster_id": 2, "rank_in_cluster": 2}

>  <energy>  (32) 
-6.99

>  <cluster_rmsd>  (32) 
1.53

>  <rmsd>  (32) 
269.92

>  <cluster>  (32) 
2

$$$$
JSIQCYHYJBEBBC-RBVFQDFSNA-O
     RDKit          3D

 63 67  0  0  0  0  0  0  0  0999 V2000
  141.1000   78.9170  223.2710 C   0  0  0  0  0  0  0  0  0  0  0  0
  139.7040   78.9410  223.2150 C   0  0  0  0  0  0  0  0  0  0  0  0
  139.0660   78.6710  222.0450 N   0  0  0  0  0  0  0  0  0  0  0  0
  139.7510   78.3710  220.9080 C   0  0  0  0  0  0  0  0  0  0  0  0
  141.1560   78.3420  220.9140 C   0  0  0  0  0  0  0  0  0  0  0  0
  141.9210   78.0630  219.6440 C   0  0  0  0  0  0  0  0  0  0  0  0
  141.5660   76.7020  219.0170 C   0  0  0  0  0  0  0  0  0  0  0  0
  142.4910   75.5520  219.4600 C   0  0  0  0  0  0  0  0  0  0  0  0
  142.2880   75.1910  220.8630 N   0  0  0  0  0  0  0  0  0  0  0  0
  141.0620   74.6420  221.3610 C   0  0  0  0  0  0  0  0  0  0  0  0
  139.8900   75.3080  221.1960 N   0  0  0  0  0  0  0  0  0  0  0  0
  138.7310   74.8020  221.6920 C   0  0  0  0  0  0  0  0  0  0  0  0
  137.5020   75.5400  221.5570 N   0  0  0  0  0  0  0  0  0  0  0  0
  136.6180   75.7380  222.7130 C   0  0  0  0  0  0  0  0  0  0  0  0
  136.0350   77.1700  222.7510 C   0  0  0  0  0  0  0  0  0  0  0  0
  136.1360   77.8830  221.4640 N   0  0  0  0  0  0  0  0  0  0  0  0
  135.9140   76.9850  220.3250 C   0  0  0  0  0  0  0  0  0  0  0  0
  137.0630   75.9760  220.2250 C   0  0  0  0  0  0  0  0  0  0  0  0
  138.7520   73.6100  222.3440 N   0  0  0  0  0  0  0  0  0  0  0  0
  139.9180   72.9330  222.5110 C   0  0  0  0  0  0  0  0  0  0  0  0
  139.9280   71.6740  223.2050 N   0  0  0  0  0  0  0  0  0  0  0  0
  139.5290   70.4520  222.4960 C   0  0  0  0  0  0  0  0  0  0  0  0
  138.7350   69.5460  223.4320 C   0  0  0  0  0  0  0  0  0  0  0  0
  139.4740   69.3210  224.7220 C   0  0  0  0  0  0  0  0  0  0  0  0
  139.2280   68.1550  225.4640 C   0  0  0  0  0  0  0  0  0  0  0  0
  139.8530   67.9580  226.6980 C   0  0  0  0  0  0  0  0  0  0  0  0
  140.7150   68.9320  227.2090 C   0  0  0  0  0  0  0  0  0  0  0  0
  140.9580   70.1030  226.4870 C   0  0  0  0  0  0  0  0  0  0  0  0
  140.3440   70.3090  225.2410 C   0  0  0  0  0  0  0  0  0  0  0  0
  140.6640   71.5720  224.4750 C   0  0  0  0  0  0  0  0  0  0  0  0
  141.0720   73.4560  222.0190 N   0  0  0  0  0  0  0  0  0  0  0  0
  141.8280   78.6030  222.1200 C   0  0  0  0  0  0  0  0  0  0  0  0
  141.6214   79.1433  224.2128 H   0  0  0  0  0  0  0  0  0  0  0  0
  139.1213   79.1783  224.1173 H   0  0  0  0  0  0  0  0  0  0  0  0
  139.2026   78.1503  219.9803 H   0  0  0  0  0  0  0  0  0  0  0  0
  141.6929   78.8551  218.9157 H   0  0  0  0  0  0  0  0  0  0  0  0
  142.9902   78.0389  219.9013 H   0  0  0  0  0  0  0  0  0  0  0  0
  140.5348   76.4471  219.3027 H   0  0  0  0  0  0  0  0  0  0  0  0
  141.6875   76.8094  217.9290 H   0  0  0  0  0  0  0  0  0  0  0  0
  142.2862   74.6710  218.8340 H   0  0  0  0  0  0  0  0  0  0  0  0
  143.5312   75.8908  219.3448 H   0  0  0  0  0  0  0  0  0  0  0  0
  143.1050   75.2560  221.5150 H   0  0  0  0  0  0  0  0  0  0  0  0
  135.7889   75.0174  222.6549 H   0  0  0  0  0  0  0  0  0  0  0  0
  137.2107   75.5856  223.6270 H   0  0  0  0  0  0  0  0  0  0  0  0
  134.9731   77.1058  223.0306 H   0  0  0  0  0  0  0  0  0  0  0  0
  136.6266   77.7398  223.4827 H   0  0  0  0  0  0  0  0  0  0  0  0
  137.0820   78.3260  221.3800 H   0  0  0  0  0  0  0  0  0  0  0  0
  135.4220   78.6480  221.4400 H   0  0  0  0  0  0  0  0  0  0  0  0
  134.9658   76.4453  220.4653 H   0  0  0  0  0  0  0  0  0  0  0  0
  135.8708   77.5778  219.3994 H   0  0  0  0  0  0  0  0  0  0  0  0
  136.7226   75.0994  219.6543 H   0  0  0  0  0  0  0  0  0  0  0  0
  137.9109   76.4614  219.7195 H   0  0  0  0  0  0  0  0  0  0  0  0
  138.9049   70.7194  221.6306 H   0  0  0  0  0  0  0  0  0  0  0  0
  140.4294   69.9206  222.1542 H   0  0  0  0  0  0  0  0  0  0  0  0
  137.7652   70.0167  223.6508 H   0  0  0  0  0  0  0  0  0  0  0  0
  138.5898   68.5740  222.9380 H   0  0  0  0  0  0  0  0  0  0  0  0
  138.5393   67.3922  225.0717 H   0  0  0  0  0  0  0  0  0  0  0  0
  139.6664   67.0357  227.2676 H   0  0  0  0  0  0  0  0  0  0  0  0
  141.2034   68.7762  228.1822 H   0  0  0  0  0  0  0  0  0  0  0  0
  141.6340   70.8679  226.8968 H   0  0  0  0  0  0  0  0  0  0  0  0
  140.4041   72.4378  225.1017 H   0  0  0  0  0  0  0  0  0  0  0  0
  141.7369   71.5485  224.2335 H   0  0  0  0  0  0  0  0  0  0  0  0
  142.9265   78.5602  222.1583 H   0  0  0  0  0  0  0  0  0  0  0  0
  1  2  2  0
  2  3  1  0
  3  4  2  0
  4  5  1  0
  5  6  1  0
  6  7  1  0
  7  8  1  0
  8  9  1  0
  9 10  1  0
 10 11  2  0
 11 12  1  0
 12 13  1  0
 13 14  1  0
 14 15  1  0
 15 16  1  0
 16 17  1  0
 17 18  1  0
 12 19  2  0
 19 20  1  0
 20 21  1  0
 21 22  1  0
 22 23  1  0
 23 24  1  0
 24 25  2  0
 25 26  1  0
 26 27  2  0
 27 28  1  0
 28 29  2  0
 29 30  1  0
 20 31  2  0
  5 32  2  0
 32  1  1  0
 31 10  1  0
 18 13  1  0
 30 21  1  0
 29 24  1  0
  1 33  1  0
  2 34  1  0
  4 35  1  0
  6 36  1  0
  6 37  1  0
  7 38  1  0
  7 39  1  0
  8 40  1  0
  8 41  1  0
  9 42  1  0
 14 43  1  0
 14 44  1  0
 15 45  1  0
 15 46  1  0
 16 47  1  0
 16 48  1  0
 17 49  1  0
 17 50  1  0
 18 51  1  0
 18 52  1  0
 22 53  1  0
 22 54  1  0
 23 55  1  0
 23 56  1  0
 25 57  1  0
 26 58  1  0
 27 59  1  0
 28 60  1  0
 30 61  1  0
 30 62  1  0
 32 63  1  0
M  CHG  1  16   1
M  END
>  <UniqueID>  (33) 
626

>  <SMILES>  (33) 
c1cncc(CCCNc2nc(N3CC[NH2+]CC3)nc(N3CCc4ccccc4C3)n2)c1

>  <Energy>  (33) 
68.14760511218654

>  <Genealogy>  (33) 
c1cncc(CCCNc2nc(N3CC[NH2+]CC3)nc(N3CCc4ccccc4C3)n2)c1 (protonated)
c1cncc(CCCNc2nc(N3CC[NH2+]CC3)nc(N3CCc4ccccc4C3)n2)c1 (3D coordinates assigned)
c1cncc(CCCNc2nc(N3CC[NH2+]CC3)nc(N3CCc4ccccc4C3)n2)c1 (nonaromatic ring conformer: 68.14760511218654 kcal/mol)

>  <smiles>  (33) 
c1cncc(CCCNc2nc(N3CCNCC3)nc(N3CCc4ccccc4C3)n2)c1

>  <score_type>  (33) 
oracle

>  <origin>  (33) 
autodockgpu

>  <m_score__min__energy>  (33) 
-9.4199999999999999

>  <m_primary>  (33) 
energy

>  <meeko>  (33) 
{"free_energy": -6.92, "intermolecular_energy": -9.0, "internal_energy": -2.44, "cluster_size": 10, "cluster_id": 2, "rank_in_cluster": 9}

>  <energy>  (33) 
-6.92

>  <cluster_rmsd>  (33) 
1.67

>  <rmsd>  (33) 
269.93

>  <cluster>  (33) 
2

$$$$
JSIQCYHYJBEBBC-RBVFQDFSNA-O
     RDKit          3D

 63 67  0  0  0  0  0  0  0  0999 V2000
  140.6540   78.2600  222.8650 C   0  0  0  0  0  0  0  0  0  0  0  0
  139.2640   78.2620  222.7270 C   0  0  0  0  0  0  0  0  0  0  0  0
  138.7020   78.0690  221.5030 N   0  0  0  0  0  0  0  0  0  0  0  0
  139.4600   77.8710  220.3900 C   0  0  0  0  0  0  0  0  0  0  0  0
  140.8620   77.8690  220.4780 C   0  0  0  0  0  0  0  0  0  0  0  0
  141.7070   77.7030  219.2390 C   0  0  0  0  0  0  0  0  0  0  0  0
  142.8990   76.7510  219.4500 C   0  0  0  0  0  0  0  0  0  0  0  0
  142.4930   75.2740  219.6190 C   0  0  0  0  0  0  0  0  0  0  0  0
  142.2340   74.9310  221.0170 N   0  0  0  0  0  0  0  0  0  0  0  0
  141.0100   74.3370  221.4630 C   0  0  0  0  0  0  0  0  0  0  0  0
  139.8140   74.8890  221.1330 N   0  0  0  0  0  0  0  0  0  0  0  0
  138.6530   74.3440  221.5790 C   0  0  0  0  0  0  0  0  0  0  0  0
  137.3930   74.9670  221.2650 N   0  0  0  0  0  0  0  0  0  0  0  0
  136.3800   75.1710  222.3090 C   0  0  0  0  0  0  0  0  0  0  0  0
  135.6900   76.5490  222.1770 C   0  0  0  0  0  0  0  0  0  0  0  0
  135.8720   77.1750  220.8530 N   0  0  0  0  0  0  0  0  0  0  0  0
  135.8390   76.1840  219.7720 C   0  0  0  0  0  0  0  0  0  0  0  0
  137.0640   75.2690  219.8660 C   0  0  0  0  0  0  0  0  0  0  0  0
  138.6980   73.2260  222.3500 N   0  0  0  0  0  0  0  0  0  0  0  0
  139.8880   72.6620  222.6840 C   0  0  0  0  0  0  0  0  0  0  0  0
  139.9220   71.4820  223.5030 N   0  0  0  0  0  0  0  0  0  0  0  0
  139.5360   70.1870  222.9260 C   0  0  0  0  0  0  0  0  0  0  0  0
  138.7630   69.3710  223.9560 C   0  0  0  0  0  0  0  0  0  0  0  0
  139.5150   69.2900  225.2560 C   0  0  0  0  0  0  0  0  0  0  0  0
  139.2930   68.2010  226.1150 C   0  0  0  0  0  0  0  0  0  0  0  0
  139.9300   68.1410  227.3570 C   0  0  0  0  0  0  0  0  0  0  0  0
  140.7800   69.1740  227.7590 C   0  0  0  0  0  0  0  0  0  0  0  0
  141.0000   70.2690  226.9180 C   0  0  0  0  0  0  0  0  0  0  0  0
  140.3740   70.3380  225.6630 C   0  0  0  0  0  0  0  0  0  0  0  0
  140.6690   71.5200  224.7690 C   0  0  0  0  0  0  0  0  0  0  0  0
  141.0420   73.2250  222.2390 N   0  0  0  0  0  0  0  0  0  0  0  0
  141.4550   78.0500  221.7400 C   0  0  0  0  0  0  0  0  0  0  0  0
  141.1139   78.4224  223.8510 H   0  0  0  0  0  0  0  0  0  0  0  0
  138.6239   78.4196  223.6076 H   0  0  0  0  0  0  0  0  0  0  0  0
  138.9724   77.7118  219.4169 H   0  0  0  0  0  0  0  0  0  0  0  0
  141.0745   77.3005  218.4341 H   0  0  0  0  0  0  0  0  0  0  0  0
  142.1154   78.6918  218.9829 H   0  0  0  0  0  0  0  0  0  0  0  0
  143.5646   76.8301  218.5778 H   0  0  0  0  0  0  0  0  0  0  0  0
  143.3917   77.0568  220.3847 H   0  0  0  0  0  0  0  0  0  0  0  0
  141.5808   75.0877  219.0332 H   0  0  0  0  0  0  0  0  0  0  0  0
  143.3280   74.6507  219.2665 H   0  0  0  0  0  0  0  0  0  0  0  0
  143.0140   75.0430  221.7070 H   0  0  0  0  0  0  0  0  0  0  0  0
  135.6184   74.3818  222.2254 H   0  0  0  0  0  0  0  0  0  0  0  0
  136.8831   75.1323  223.2864 H   0  0  0  0  0  0  0  0  0  0  0  0
  134.6125   76.4171  222.3544 H   0  0  0  0  0  0  0  0  0  0  0  0
  136.1565   77.2162  222.9168 H   0  0  0  0  0  0  0  0  0  0  0  0
  136.7850   77.6880  220.8290 H   0  0  0  0  0  0  0  0  0  0  0  0
  135.1090   77.8750  220.6990 H   0  0  0  0  0  0  0  0  0  0  0  0
  134.9244   75.5792  219.8595 H   0  0  0  0  0  0  0  0  0  0  0  0
  135.8493   76.7046  218.8030 H   0  0  0  0  0  0  0  0  0  0  0  0
  136.8515   74.3288  219.3360 H   0  0  0  0  0  0  0  0  0  0  0  0
  137.9213   75.7853  219.4094 H   0  0  0  0  0  0  0  0  0  0  0  0
  138.9017   70.3553  222.0432 H   0  0  0  0  0  0  0  0  0  0  0  0
  140.4419   69.6362  222.6327 H   0  0  0  0  0  0  0  0  0  0  0  0
  137.7878   69.8478  224.1339 H   0  0  0  0  0  0  0  0  0  0  0  0
  138.6287   68.3515  223.5654 H   0  0  0  0  0  0  0  0  0  0  0  0
  138.6143   67.3915  225.8083 H   0  0  0  0  0  0  0  0  0  0  0  0
  139.7619   67.2790  228.0193 H   0  0  0  0  0  0  0  0  0  0  0  0
  141.2772   69.1259  228.7391 H   0  0  0  0  0  0  0  0  0  0  0  0
  141.6675   71.0813  227.2414 H   0  0  0  0  0  0  0  0  0  0  0  0
  140.4016   72.4417  225.3065 H   0  0  0  0  0  0  0  0  0  0  0  0
  141.7401   71.4862  224.5208 H   0  0  0  0  0  0  0  0  0  0  0  0
  142.5501   78.0262  221.8414 H   0  0  0  0  0  0  0  0  0  0  0  0
  1  2  2  0
  2  3  1  0
  3  4  2  0
  4  5  1  0
  5  6  1  0
  6  7  1  0
  7  8  1  0
  8  9  1  0
  9 10  1  0
 10 11  2  0
 11 12  1  0
 12 13  1  0
 13 14  1  0
 14 15  1  0
 15 16  1  0
 16 17  1  0
 17 18  1  0
 12 19  2  0
 19 20  1  0
 20 21  1  0
 21 22  1  0
 22 23  1  0
 23 24  1  0
 24 25  2  0
 25 26  1  0
 26 27  2  0
 27 28  1  0
 28 29  2  0
 29 30  1  0
 20 31  2  0
  5 32  2  0
 32  1  1  0
 31 10  1  0
 18 13  1  0
 30 21  1  0
 29 24  1  0
  1 33  1  0
  2 34  1  0
  4 35  1  0
  6 36  1  0
  6 37  1  0
  7 38  1  0
  7 39  1  0
  8 40  1  0
  8 41  1  0
  9 42  1  0
 14 43  1  0
 14 44  1  0
 15 45  1  0
 15 46  1  0
 16 47  1  0
 16 48  1  0
 17 49  1  0
 17 50  1  0
 18 51  1  0
 18 52  1  0
 22 53  1  0
 22 54  1  0
 23 55  1  0
 23 56  1  0
 25 57  1  0
 26 58  1  0
 27 59  1  0
 28 60  1  0
 30 61  1  0
 30 62  1  0
 32 63  1  0
M  CHG  1  16   1
M  END
>  <UniqueID>  (34) 
626

>  <SMILES>  (34) 
c1cncc(CCCNc2nc(N3CC[NH2+]CC3)nc(N3CCc4ccccc4C3)n2)c1

>  <Energy>  (34) 
68.14760511218654

>  <Genealogy>  (34) 
c1cncc(CCCNc2nc(N3CC[NH2+]CC3)nc(N3CCc4ccccc4C3)n2)c1 (protonated)
c1cncc(CCCNc2nc(N3CC[NH2+]CC3)nc(N3CCc4ccccc4C3)n2)c1 (3D coordinates assigned)
c1cncc(CCCNc2nc(N3CC[NH2+]CC3)nc(N3CCc4ccccc4C3)n2)c1 (nonaromatic ring conformer: 68.14760511218654 kcal/mol)

>  <smiles>  (34) 
c1cncc(CCCNc2nc(N3CCNCC3)nc(N3CCc4ccccc4C3)n2)c1

>  <score_type>  (34) 
oracle

>  <origin>  (34) 
autodockgpu

>  <m_score__min__energy>  (34) 
-9.4199999999999999

>  <m_primary>  (34) 
energy

>  <meeko>  (34) 
{"free_energy": -6.86, "intermolecular_energy": -8.94, "internal_energy": -2.51, "cluster_size": 10, "cluster_id": 2, "rank_in_cluster": 10}

>  <energy>  (34) 
-6.86

>  <cluster_rmsd>  (34) 
1.52

>  <rmsd>  (34) 
269.77

>  <cluster>  (34) 
2

$$$$
JSIQCYHYJBEBBC-RBVFQDFSNA-O
     RDKit          3D

 63 67  0  0  0  0  0  0  0  0999 V2000
  140.5600   78.9730  223.4730 C   0  0  0  0  0  0  0  0  0  0  0  0
  139.2100   78.8050  223.1550 C   0  0  0  0  0  0  0  0  0  0  0  0
  138.8540   78.3310  221.9310 N   0  0  0  0  0  0  0  0  0  0  0  0
  139.7830   78.0070  220.9900 C   0  0  0  0  0  0  0  0  0  0  0  0
  141.1520   78.1670  221.2610 C   0  0  0  0  0  0  0  0  0  0  0  0
  142.1830   77.8600  220.2030 C   0  0  0  0  0  0  0  0  0  0  0  0
  141.7680   76.7010  219.2790 C   0  0  0  0  0  0  0  0  0  0  0  0
  142.4990   75.3770  219.5740 C   0  0  0  0  0  0  0  0  0  0  0  0
  142.2960   74.9300  220.9520 N   0  0  0  0  0  0  0  0  0  0  0  0
  141.0630   74.3710  221.4200 C   0  0  0  0  0  0  0  0  0  0  0  0
  139.8800   74.9780  221.1430 N   0  0  0  0  0  0  0  0  0  0  0  0
  138.7140   74.4640  221.6090 C   0  0  0  0  0  0  0  0  0  0  0  0
  137.4700   75.1420  221.3520 N   0  0  0  0  0  0  0  0  0  0  0  0
  136.4800   75.3200  222.4230 C   0  0  0  0  0  0  0  0  0  0  0  0
  135.8330   76.7240  222.3790 C   0  0  0  0  0  0  0  0  0  0  0  0
  136.0140   77.4170  221.0890 N   0  0  0  0  0  0  0  0  0  0  0  0
  135.9330   76.4890  219.9560 C   0  0  0  0  0  0  0  0  0  0  0  0
  137.1290   75.5330  219.9780 C   0  0  0  0  0  0  0  0  0  0  0  0
  138.7380   73.3240  222.3480 N   0  0  0  0  0  0  0  0  0  0  0  0
  139.9150   72.7060  222.6290 C   0  0  0  0  0  0  0  0  0  0  0  0
  139.9280   71.5020  223.4140 N   0  0  0  0  0  0  0  0  0  0  0  0
  139.5070   70.2340  222.8050 C   0  0  0  0  0  0  0  0  0  0  0  0
  138.7240   69.4070  223.8190 C   0  0  0  0  0  0  0  0  0  0  0  0
  139.4840   69.2720  225.1090 C   0  0  0  0  0  0  0  0  0  0  0  0
  139.2440   68.1650  225.9390 C   0  0  0  0  0  0  0  0  0  0  0  0
  139.8900   68.0550  227.1730 C   0  0  0  0  0  0  0  0  0  0  0  0
  140.7680   69.0560  227.5960 C   0  0  0  0  0  0  0  0  0  0  0  0
  141.0060   70.1680  226.7840 C   0  0  0  0  0  0  0  0  0  0  0  0
  140.3710   70.2880  225.5380 C   0  0  0  0  0  0  0  0  0  0  0  0
  140.6870   71.4880  224.6750 C   0  0  0  0  0  0  0  0  0  0  0  0
  141.0760   73.2370  222.1640 N   0  0  0  0  0  0  0  0  0  0  0  0
  141.5350   78.6400  222.5280 C   0  0  0  0  0  0  0  0  0  0  0  0
  140.8533   79.3639  224.4585 H   0  0  0  0  0  0  0  0  0  0  0  0
  138.4352   79.0560  223.8944 H   0  0  0  0  0  0  0  0  0  0  0  0
  139.4601   77.6181  220.0130 H   0  0  0  0  0  0  0  0  0  0  0  0
  142.3350   78.7604  219.5897 H   0  0  0  0  0  0  0  0  0  0  0  0
  143.1050   77.5555  220.7198 H   0  0  0  0  0  0  0  0  0  0  0  0
  140.6872   76.5339  219.3966 H   0  0  0  0  0  0  0  0  0  0  0  0
  142.0400   76.9953  218.2546 H   0  0  0  0  0  0  0  0  0  0  0  0
  142.1197   74.6029  218.8908 H   0  0  0  0  0  0  0  0  0  0  0  0
  143.5762   75.5458  219.4285 H   0  0  0  0  0  0  0  0  0  0  0  0
  143.1180   74.9400  221.6020 H   0  0  0  0  0  0  0  0  0  0  0  0
  135.6920   74.5610  222.3093 H   0  0  0  0  0  0  0  0  0  0  0  0
  136.9968   75.2116  223.3880 H   0  0  0  0  0  0  0  0  0  0  0  0
  134.7547   76.6162  222.5677 H   0  0  0  0  0  0  0  0  0  0  0  0
  136.3326   77.3339  223.1460 H   0  0  0  0  0  0  0  0  0  0  0  0
  136.9430   77.9020  221.0780 H   0  0  0  0  0  0  0  0  0  0  0  0
  135.2720   78.1480  220.9870 H   0  0  0  0  0  0  0  0  0  0  0  0
  135.0011   75.9088  220.0258 H   0  0  0  0  0  0  0  0  0  0  0  0
  135.9451   77.0621  219.0172 H   0  0  0  0  0  0  0  0  0  0  0  0
  136.8785   74.6313  219.3999 H   0  0  0  0  0  0  0  0  0  0  0  0
  137.9952   76.0479  219.5368 H   0  0  0  0  0  0  0  0  0  0  0  0
  138.8691   70.4419  221.9333 H   0  0  0  0  0  0  0  0  0  0  0  0
  140.3972   69.6709  222.4880 H   0  0  0  0  0  0  0  0  0  0  0  0
  137.7616   69.9008  224.0189 H   0  0  0  0  0  0  0  0  0  0  0  0
  138.5633   68.4022  223.4011 H   0  0  0  0  0  0  0  0  0  0  0  0
  138.5439   67.3805  225.6160 H   0  0  0  0  0  0  0  0  0  0  0  0
  139.7070   67.1789  227.8125 H   0  0  0  0  0  0  0  0  0  0  0  0
  141.2726   68.9686  228.5695 H   0  0  0  0  0  0  0  0  0  0  0  0
  141.6957   70.9547  227.1236 H   0  0  0  0  0  0  0  0  0  0  0  0
  140.4455   72.4003  225.2402 H   0  0  0  0  0  0  0  0  0  0  0  0
  141.7551   71.4372  224.4170 H   0  0  0  0  0  0  0  0  0  0  0  0
  142.6013   78.7481  222.7758 H   0  0  0  0  0  0  0  0  0  0  0  0
  1  2  2  0
  2  3  1  0
  3  4  2  0
  4  5  1  0
  5  6  1  0
  6  7  1  0
  7  8  1  0
  8  9  1  0
  9 10  1  0
 10 11  2  0
 11 12  1  0
 12 13  1  0
 13 14  1  0
 14 15  1  0
 15 16  1  0
 16 17  1  0
 17 18  1  0
 12 19  2  0
 19 20  1  0
 20 21  1  0
 21 22  1  0
 22 23  1  0
 23 24  1  0
 24 25  2  0
 25 26  1  0
 26 27  2  0
 27 28  1  0
 28 29  2  0
 29 30  1  0
 20 31  2  0
  5 32  2  0
 32  1  1  0
 31 10  1  0
 18 13  1  0
 30 21  1  0
 29 24  1  0
  1 33  1  0
  2 34  1  0
  4 35  1  0
  6 36  1  0
  6 37  1  0
  7 38  1  0
  7 39  1  0
  8 40  1  0
  8 41  1  0
  9 42  1  0
 14 43  1  0
 14 44  1  0
 15 45  1  0
 15 46  1  0
 16 47  1  0
 16 48  1  0
 17 49  1  0
 17 50  1  0
 18 51  1  0
 18 52  1  0
 22 53  1  0
 22 54  1  0
 23 55  1  0
 23 56  1  0
 25 57  1  0
 26 58  1  0
 27 59  1  0
 28 60  1  0
 30 61  1  0
 30 62  1  0
 32 63  1  0
M  CHG  1  16   1
M  END
>  <UniqueID>  (35) 
626

>  <SMILES>  (35) 
c1cncc(CCCNc2nc(N3CC[NH2+]CC3)nc(N3CCc4ccccc4C3)n2)c1

>  <Energy>  (35) 
68.14760511218654

>  <Genealogy>  (35) 
c1cncc(CCCNc2nc(N3CC[NH2+]CC3)nc(N3CCc4ccccc4C3)n2)c1 (protonated)
c1cncc(CCCNc2nc(N3CC[NH2+]CC3)nc(N3CCc4ccccc4C3)n2)c1 (3D coordinates assigned)
c1cncc(CCCNc2nc(N3CC[NH2+]CC3)nc(N3CCc4ccccc4C3)n2)c1 (nonaromatic ring conformer: 68.14760511218654 kcal/mol)

>  <smiles>  (35) 
c1cncc(CCCNc2nc(N3CCNCC3)nc(N3CCc4ccccc4C3)n2)c1

>  <score_type>  (35) 
oracle

>  <origin>  (35) 
autodockgpu

>  <m_score__min__energy>  (35) 
-9.4199999999999999

>  <m_primary>  (35) 
energy

>  <meeko>  (35) 
{"free_energy": -6.99, "intermolecular_energy": -9.08, "internal_energy": -2.37, "cluster_size": 10, "cluster_id": 2, "rank_in_cluster": 8}

>  <energy>  (35) 
-8.33

>  <cluster_rmsd>  (35) 
0.0

>  <rmsd>  (35) 
269.87

>  <cluster>  (35) 
3

$$$$
JSIQCYHYJBEBBC-RBVFQDFSNA-O
     RDKit          3D

 63 67  0  0  0  0  0  0  0  0999 V2000
  144.2660   73.0990  220.6160 C   0  0  0  0  0  0  0  0  0  0  0  0
  144.3110   74.4850  220.7880 C   0  0  0  0  0  0  0  0  0  0  0  0
  143.7020   75.3020  219.8870 N   0  0  0  0  0  0  0  0  0  0  0  0
  143.0380   74.8080  218.8060 C   0  0  0  0  0  0  0  0  0  0  0  0
  142.9720   73.4220  218.5880 C   0  0  0  0  0  0  0  0  0  0  0  0
  142.2830   72.8720  217.3630 C   0  0  0  0  0  0  0  0  0  0  0  0
  141.5390   71.5520  217.6360 C   0  0  0  0  0  0  0  0  0  0  0  0
  140.0190   71.6340  217.4000 C   0  0  0  0  0  0  0  0  0  0  0  0
  139.2570   71.3930  218.6250 N   0  0  0  0  0  0  0  0  0  0  0  0
  139.4990   72.0970  219.8490 C   0  0  0  0  0  0  0  0  0  0  0  0
  139.6860   73.4420  219.8460 N   0  0  0  0  0  0  0  0  0  0  0  0
  139.9440   74.1070  221.0010 C   0  0  0  0  0  0  0  0  0  0  0  0
  140.1910   75.5250  220.9820 N   0  0  0  0  0  0  0  0  0  0  0  0
  140.0470   76.3270  222.2040 C   0  0  0  0  0  0  0  0  0  0  0  0
  141.1730   77.3790  222.3360 C   0  0  0  0  0  0  0  0  0  0  0  0
  141.8850   77.6430  221.0710 N   0  0  0  0  0  0  0  0  0  0  0  0
  140.9770   77.6180  219.9190 C   0  0  0  0  0  0  0  0  0  0  0  0
  140.4500   76.1960  219.7010 C   0  0  0  0  0  0  0  0  0  0  0  0
  139.9980   73.4130  222.1690 N   0  0  0  0  0  0  0  0  0  0  0  0
  139.8090   72.0680  222.1850 C   0  0  0  0  0  0  0  0  0  0  0  0
  139.8720   71.3450  223.4250 N   0  0  0  0  0  0  0  0  0  0  0  0
  139.4220   69.9470  223.4730 C   0  0  0  0  0  0  0  0  0  0  0  0
  138.7010   69.6800  224.7900 C   0  0  0  0  0  0  0  0  0  0  0  0
  139.5320   70.1230  225.9620 C   0  0  0  0  0  0  0  0  0  0  0  0
  139.3430   69.5120  227.2120 C   0  0  0  0  0  0  0  0  0  0  0  0
  140.0570   69.9550  228.3290 C   0  0  0  0  0  0  0  0  0  0  0  0
  140.9530   71.0200  228.2100 C   0  0  0  0  0  0  0  0  0  0  0  0
  141.1410   71.6440  226.9740 C   0  0  0  0  0  0  0  0  0  0  0  0
  140.4370   71.2040  225.8420 C   0  0  0  0  0  0  0  0  0  0  0  0
  140.6990   71.8820  224.5160 C   0  0  0  0  0  0  0  0  0  0  0  0
  139.5620   71.4140  221.0190 N   0  0  0  0  0  0  0  0  0  0  0  0
  143.5830   72.5650  219.5200 C   0  0  0  0  0  0  0  0  0  0  0  0
  144.7639   72.4340  221.3371 H   0  0  0  0  0  0  0  0  0  0  0  0
  144.8388   74.9153  221.6519 H   0  0  0  0  0  0  0  0  0  0  0  0
  142.5511   75.4972  218.1003 H   0  0  0  0  0  0  0  0  0  0  0  0
  141.5569   73.6166  217.0047 H   0  0  0  0  0  0  0  0  0  0  0  0
  143.0600   72.6639  216.6127 H   0  0  0  0  0  0  0  0  0  0  0  0
  141.9516   70.7778  216.9724 H   0  0  0  0  0  0  0  0  0  0  0  0
  141.6854   71.3163  218.7004 H   0  0  0  0  0  0  0  0  0  0  0  0
  139.7727   72.6368  217.0209 H   0  0  0  0  0  0  0  0  0  0  0  0
  139.7470   70.8541  216.6735 H   0  0  0  0  0  0  0  0  0  0  0  0
  138.4390   70.7390  218.5800 H   0  0  0  0  0  0  0  0  0  0  0  0
  139.0769   76.8450  222.1778 H   0  0  0  0  0  0  0  0  0  0  0  0
  140.1095   75.6487  223.0677 H   0  0  0  0  0  0  0  0  0  0  0  0
  140.7289   78.3216  222.6885 H   0  0  0  0  0  0  0  0  0  0  0  0
  141.9115   76.9745  223.0438 H   0  0  0  0  0  0  0  0  0  0  0  0
  142.6390   76.9280  220.9370 H   0  0  0  0  0  0  0  0  0  0  0  0
  142.3420   78.5830  221.1260 H   0  0  0  0  0  0  0  0  0  0  0  0
  140.1311   78.2957  220.1066 H   0  0  0  0  0  0  0  0  0  0  0  0
  141.5224   77.9437  219.0210 H   0  0  0  0  0  0  0  0  0  0  0  0
  139.5140   76.2442  219.1252 H   0  0  0  0  0  0  0  0  0  0  0  0
  141.2119   75.6215  219.1538 H   0  0  0  0  0  0  0  0  0  0  0  0
  138.7349   69.7558  222.6355 H   0  0  0  0  0  0  0  0  0  0  0  0
  140.2950   69.2822  223.3962 H   0  0  0  0  0  0  0  0  0  0  0  0
  137.7488   70.2307  224.7962 H   0  0  0  0  0  0  0  0  0  0  0  0
  138.5228   68.5981  224.8774 H   0  0  0  0  0  0  0  0  0  0  0  0
  138.6296   68.6808  227.3127 H   0  0  0  0  0  0  0  0  0  0  0  0
  139.9131   69.4644  229.3029 H   0  0  0  0  0  0  0  0  0  0  0  0
  141.5118   71.3682  229.0912 H   0  0  0  0  0  0  0  0  0  0  0  0
  141.8448   72.4849  226.8875 H   0  0  0  0  0  0  0  0  0  0  0  0
  140.4852   72.9557  224.6226 H   0  0  0  0  0  0  0  0  0  0  0  0
  141.7513   71.6980  224.2536 H   0  0  0  0  0  0  0  0  0  0  0  0
  143.5235   71.4747  219.3866 H   0  0  0  0  0  0  0  0  0  0  0  0
  1  2  2  0
  2  3  1  0
  3  4  2  0
  4  5  1  0
  5  6  1  0
  6  7  1  0
  7  8  1  0
  8  9  1  0
  9 10  1  0
 10 11  2  0
 11 12  1  0
 12 13  1  0
 13 14  1  0
 14 15  1  0
 15 16  1  0
 16 17  1  0
 17 18  1  0
 12 19  2  0
 19 20  1  0
 20 21  1  0
 21 22  1  0
 22 23  1  0
 23 24  1  0
 24 25  2  0
 25 26  1  0
 26 27  2  0
 27 28  1  0
 28 29  2  0
 29 30  1  0
 20 31  2  0
  5 32  2  0
 32  1  1  0
 31 10  1  0
 18 13  1  0
 30 21  1  0
 29 24  1  0
  1 33  1  0
  2 34  1  0
  4 35  1  0
  6 36  1  0
  6 37  1  0
  7 38  1  0
  7 39  1  0
  8 40  1  0
  8 41  1  0
  9 42  1  0
 14 43  1  0
 14 44  1  0
 15 45  1  0
 15 46  1  0
 16 47  1  0
 16 48  1  0
 17 49  1  0
 17 50  1  0
 18 51  1  0
 18 52  1  0
 22 53  1  0
 22 54  1  0
 23 55  1  0
 23 56  1  0
 25 57  1  0
 26 58  1  0
 27 59  1  0
 28 60  1  0
 30 61  1  0
 30 62  1  0
 32 63  1  0
M  CHG  1  16   1
M  END
>  <UniqueID>  (36) 
626

>  <SMILES>  (36) 
c1cncc(CCCNc2nc(N3CC[NH2+]CC3)nc(N3CCc4ccccc4C3)n2)c1

>  <Energy>  (36) 
68.14760511218654

>  <Genealogy>  (36) 
c1cncc(CCCNc2nc(N3CC[NH2+]CC3)nc(N3CCc4ccccc4C3)n2)c1 (protonated)
c1cncc(CCCNc2nc(N3CC[NH2+]CC3)nc(N3CCc4ccccc4C3)n2)c1 (3D coordinates assigned)
c1cncc(CCCNc2nc(N3CC[NH2+]CC3)nc(N3CCc4ccccc4C3)n2)c1 (nonaromatic ring conformer: 68.14760511218654 kcal/mol)

>  <smiles>  (36) 
c1cncc(CCCNc2nc(N3CCNCC3)nc(N3CCc4ccccc4C3)n2)c1

>  <score_type>  (36) 
oracle

>  <origin>  (36) 
autodockgpu

>  <m_score__min__energy>  (36) 
-9.4199999999999999

>  <m_primary>  (36) 
energy

>  <meeko>  (36) 
{"free_energy": -6.72, "intermolecular_energy": -8.81, "internal_energy": -2.55, "cluster_size": 3, "cluster_id": 4, "rank_in_cluster": 3}

>  <energy>  (36) 
-8.26

>  <cluster_rmsd>  (36) 
0.0

>  <rmsd>  (36) 
269.9

>  <cluster>  (36) 
4

$$$$
JSIQCYHYJBEBBC-RBVFQDFSNA-O
     RDKit          3D

 63 67  0  0  0  0  0  0  0  0999 V2000
  142.1680   79.1890  218.6810 C   0  0  0  0  0  0  0  0  0  0  0  0
  142.8680   78.0960  218.1630 C   0  0  0  0  0  0  0  0  0  0  0  0
  142.9450   76.9390  218.8740 N   0  0  0  0  0  0  0  0  0  0  0  0
  142.3540   76.8070  220.0930 C   0  0  0  0  0  0  0  0  0  0  0  0
  141.6470   77.8810  220.6580 C   0  0  0  0  0  0  0  0  0  0  0  0
  141.0360   77.7570  222.0320 C   0  0  0  0  0  0  0  0  0  0  0  0
  139.4990   77.8540  222.0160 C   0  0  0  0  0  0  0  0  0  0  0  0
  138.7920   76.6410  222.6500 C   0  0  0  0  0  0  0  0  0  0  0  0
  138.7340   75.4990  221.7370 N   0  0  0  0  0  0  0  0  0  0  0  0
  139.6850   74.4280  221.7610 C   0  0  0  0  0  0  0  0  0  0  0  0
  140.6980   74.3840  220.8570 N   0  0  0  0  0  0  0  0  0  0  0  0
  141.5840   73.3550  220.8610 C   0  0  0  0  0  0  0  0  0  0  0  0
  142.6230   73.2900  219.8670 N   0  0  0  0  0  0  0  0  0  0  0  0
  142.2880   73.1880  218.4400 C   0  0  0  0  0  0  0  0  0  0  0  0
  143.2100   74.0720  217.5690 C   0  0  0  0  0  0  0  0  0  0  0  0
  144.4480   74.4890  218.2560 N   0  0  0  0  0  0  0  0  0  0  0  0
  144.9780   73.4270  219.1180 C   0  0  0  0  0  0  0  0  0  0  0  0
  144.0250   73.1830  220.2920 C   0  0  0  0  0  0  0  0  0  0  0  0
  141.4570   72.3730  221.7920 N   0  0  0  0  0  0  0  0  0  0  0  0
  140.4510   72.4090  222.7040 C   0  0  0  0  0  0  0  0  0  0  0  0
  140.3250   71.3630  223.6820 N   0  0  0  0  0  0  0  0  0  0  0  0
  139.8440   70.0380  223.2690 C   0  0  0  0  0  0  0  0  0  0  0  0
  138.9410   69.4550  224.3510 C   0  0  0  0  0  0  0  0  0  0  0  0
  139.6120   69.4990  225.6970 C   0  0  0  0  0  0  0  0  0  0  0  0
  139.2380   68.5730  226.6840 C   0  0  0  0  0  0  0  0  0  0  0  0
  139.8000   68.6390  227.9620 C   0  0  0  0  0  0  0  0  0  0  0  0
  140.7260   69.6390  228.2690 C   0  0  0  0  0  0  0  0  0  0  0  0
  141.0970   70.5730  227.2980 C   0  0  0  0  0  0  0  0  0  0  0  0
  140.5470   70.5130  226.0080 C   0  0  0  0  0  0  0  0  0  0  0  0
  141.0050   71.5200  224.9770 C   0  0  0  0  0  0  0  0  0  0  0  0
  139.5650   73.4390  222.6820 N   0  0  0  0  0  0  0  0  0  0  0  0
  141.5450   79.0770  219.9270 C   0  0  0  0  0  0  0  0  0  0  0  0
  142.1079   80.1291  218.1131 H   0  0  0  0  0  0  0  0  0  0  0  0
  143.3566   78.1713  217.1804 H   0  0  0  0  0  0  0  0  0  0  0  0
  142.4305   75.8547  220.6382 H   0  0  0  0  0  0  0  0  0  0  0  0
  141.3217   76.7833  222.4565 H   0  0  0  0  0  0  0  0  0  0  0  0
  141.4131   78.5944  222.6375 H   0  0  0  0  0  0  0  0  0  0  0  0
  139.2028   78.7567  222.5705 H   0  0  0  0  0  0  0  0  0  0  0  0
  139.1915   77.8879  220.9604 H   0  0  0  0  0  0  0  0  0  0  0  0
  139.3412   76.3437  223.5555 H   0  0  0  0  0  0  0  0  0  0  0  0
  137.7598   76.9369  222.8885 H   0  0  0  0  0  0  0  0  0  0  0  0
  137.9090   75.4180  221.0960 H   0  0  0  0  0  0  0  0  0  0  0  0
  142.3961   72.1402  218.1229 H   0  0  0  0  0  0  0  0  0  0  0  0
  141.2535   73.5371  218.3059 H   0  0  0  0  0  0  0  0  0  0  0  0
  143.4862   73.5047  216.6680 H   0  0  0  0  0  0  0  0  0  0  0  0
  142.6488   74.9875  217.3305 H   0  0  0  0  0  0  0  0  0  0  0  0
  144.2590   75.3440  218.8320 H   0  0  0  0  0  0  0  0  0  0  0  0
  145.1680   74.7400  217.5400 H   0  0  0  0  0  0  0  0  0  0  0  0
  145.0813   72.5008  218.5337 H   0  0  0  0  0  0  0  0  0  0  0  0
  145.9603   73.7333  219.5070 H   0  0  0  0  0  0  0  0  0  0  0  0
  144.2022   72.1749  220.6949 H   0  0  0  0  0  0  0  0  0  0  0  0
  144.2159   73.9461  221.0610 H   0  0  0  0  0  0  0  0  0  0  0  0
  139.2766   70.1316  222.3313 H   0  0  0  0  0  0  0  0  0  0  0  0
  140.7051   69.3707  223.1165 H   0  0  0  0  0  0  0  0  0  0  0  0
  138.0095   70.0384  224.3945 H   0  0  0  0  0  0  0  0  0  0  0  0
  138.7279   68.4053  224.1006 H   0  0  0  0  0  0  0  0  0  0  0  0
  138.4994   67.7921  226.4504 H   0  0  0  0  0  0  0  0  0  0  0  0
  139.5128   67.9026  228.7271 H   0  0  0  0  0  0  0  0  0  0  0  0
  141.1638   69.6913  229.2768 H   0  0  0  0  0  0  0  0  0  0  0  0
  141.8244   71.3599  227.5461 H   0  0  0  0  0  0  0  0  0  0  0  0
  140.8021   72.5311  225.3597 H   0  0  0  0  0  0  0  0  0  0  0  0
  142.0792   71.3542  224.8080 H   0  0  0  0  0  0  0  0  0  0  0  0
  140.9751   79.9246  220.3354 H   0  0  0  0  0  0  0  0  0  0  0  0
  1  2  2  0
  2  3  1  0
  3  4  2  0
  4  5  1  0
  5  6  1  0
  6  7  1  0
  7  8  1  0
  8  9  1  0
  9 10  1  0
 10 11  2  0
 11 12  1  0
 12 13  1  0
 13 14  1  0
 14 15  1  0
 15 16  1  0
 16 17  1  0
 17 18  1  0
 12 19  2  0
 19 20  1  0
 20 21  1  0
 21 22  1  0
 22 23  1  0
 23 24  1  0
 24 25  2  0
 25 26  1  0
 26 27  2  0
 27 28  1  0
 28 29  2  0
 29 30  1  0
 20 31  2  0
  5 32  2  0
 32  1  1  0
 31 10  1  0
 18 13  1  0
 30 21  1  0
 29 24  1  0
  1 33  1  0
  2 34  1  0
  4 35  1  0
  6 36  1  0
  6 37  1  0
  7 38  1  0
  7 39  1  0
  8 40  1  0
  8 41  1  0
  9 42  1  0
 14 43  1  0
 14 44  1  0
 15 45  1  0
 15 46  1  0
 16 47  1  0
 16 48  1  0
 17 49  1  0
 17 50  1  0
 18 51  1  0
 18 52  1  0
 22 53  1  0
 22 54  1  0
 23 55  1  0
 23 56  1  0
 25 57  1  0
 26 58  1  0
 27 59  1  0
 28 60  1  0
 30 61  1  0
 30 62  1  0
 32 63  1  0
M  CHG  1  16   1
M  END
>  <UniqueID>  (37) 
626

>  <SMILES>  (37) 
c1cncc(CCCNc2nc(N3CC[NH2+]CC3)nc(N3CCc4ccccc4C3)n2)c1

>  <Energy>  (37) 
68.14760511218654

>  <Genealogy>  (37) 
c1cncc(CCCNc2nc(N3CC[NH2+]CC3)nc(N3CCc4ccccc4C3)n2)c1 (protonated)
c1cncc(CCCNc2nc(N3CC[NH2+]CC3)nc(N3CCc4ccccc4C3)n2)c1 (3D coordinates assigned)
c1cncc(CCCNc2nc(N3CC[NH2+]CC3)nc(N3CCc4ccccc4C3)n2)c1 (nonaromatic ring conformer: 68.14760511218654 kcal/mol)

>  <smiles>  (37) 
c1cncc(CCCNc2nc(N3CCNCC3)nc(N3CCc4ccccc4C3)n2)c1

>  <score_type>  (37) 
oracle

>  <origin>  (37) 
autodockgpu

>  <m_score__min__energy>  (37) 
-9.4199999999999999

>  <m_primary>  (37) 
energy

>  <meeko>  (37) 
{"free_energy": -7.64, "intermolecular_energy": -9.73, "internal_energy": -2.19, "cluster_size": 1, "cluster_id": 6, "rank_in_cluster": 1}

>  <energy>  (37) 
-8.12

>  <cluster_rmsd>  (37) 
0.46

>  <rmsd>  (37) 
269.87

>  <cluster>  (37) 
4

$$$$
JSIQCYHYJBEBBC-RBVFQDFSNA-O
     RDKit          3D

 63 67  0  0  0  0  0  0  0  0999 V2000
  145.0020   73.7780  220.9690 C   0  0  0  0  0  0  0  0  0  0  0  0
  146.1780   73.3970  220.3180 C   0  0  0  0  0  0  0  0  0  0  0  0
  146.1340   72.9740  219.0270 N   0  0  0  0  0  0  0  0  0  0  0  0
  144.9640   72.9080  218.3340 C   0  0  0  0  0  0  0  0  0  0  0  0
  143.7550   73.2740  218.9490 C   0  0  0  0  0  0  0  0  0  0  0  0
  142.4490   73.1530  218.2030 C   0  0  0  0  0  0  0  0  0  0  0  0
  141.9540   71.6990  218.0920 C   0  0  0  0  0  0  0  0  0  0  0  0
  140.5090   71.5710  217.5750 C   0  0  0  0  0  0  0  0  0  0  0  0
  139.5390   71.4780  218.6660 N   0  0  0  0  0  0  0  0  0  0  0  0
  139.6980   72.1620  219.9150 C   0  0  0  0  0  0  0  0  0  0  0  0
  139.8210   73.5140  219.9510 N   0  0  0  0  0  0  0  0  0  0  0  0
  139.9990   74.1610  221.1310 C   0  0  0  0  0  0  0  0  0  0  0  0
  140.1790   75.5890  221.1540 N   0  0  0  0  0  0  0  0  0  0  0  0
  139.7800   76.3750  222.3300 C   0  0  0  0  0  0  0  0  0  0  0  0
  140.8140   77.4770  222.6610 C   0  0  0  0  0  0  0  0  0  0  0  0
  141.7280   77.7830  221.5440 N   0  0  0  0  0  0  0  0  0  0  0  0
  141.0440   77.7240  220.2480 C   0  0  0  0  0  0  0  0  0  0  0  0
  140.6320   76.2810  219.9400 C   0  0  0  0  0  0  0  0  0  0  0  0
  140.0390   73.4420  222.2830 N   0  0  0  0  0  0  0  0  0  0  0  0
  139.9140   72.0890  222.2600 C   0  0  0  0  0  0  0  0  0  0  0  0
  139.9610   71.3390  223.4850 N   0  0  0  0  0  0  0  0  0  0  0  0
  139.5700   69.9230  223.4840 C   0  0  0  0  0  0  0  0  0  0  0  0
  138.8120   69.5950  224.7660 C   0  0  0  0  0  0  0  0  0  0  0  0
  139.5790   70.0420  225.9790 C   0  0  0  0  0  0  0  0  0  0  0  0
  139.3700   69.3940  227.2060 C   0  0  0  0  0  0  0  0  0  0  0  0
  140.0230   69.8380  228.3590 C   0  0  0  0  0  0  0  0  0  0  0  0
  140.8770   70.9420  228.3000 C   0  0  0  0  0  0  0  0  0  0  0  0
  141.0840   71.6030  227.0870 C   0  0  0  0  0  0  0  0  0  0  0  0
  140.4420   71.1620  225.9180 C   0  0  0  0  0  0  0  0  0  0  0  0
  140.7240   71.8830  224.6190 C   0  0  0  0  0  0  0  0  0  0  0  0
  139.7460   71.4540  221.0710 N   0  0  0  0  0  0  0  0  0  0  0  0
  143.7890   73.7290  220.2790 C   0  0  0  0  0  0  0  0  0  0  0  0
  145.0314   74.1137  222.0161 H   0  0  0  0  0  0  0  0  0  0  0  0
  147.1397   73.4394  220.8503 H   0  0  0  0  0  0  0  0  0  0  0  0
  144.9653   72.5667  217.2883 H   0  0  0  0  0  0  0  0  0  0  0  0
  141.6867   73.7437  218.7321 H   0  0  0  0  0  0  0  0  0  0  0  0
  142.6175   73.5230  217.1809 H   0  0  0  0  0  0  0  0  0  0  0  0
  142.6183   71.1585  217.4017 H   0  0  0  0  0  0  0  0  0  0  0  0
  141.9688   71.2776  219.1080 H   0  0  0  0  0  0  0  0  0  0  0  0
  140.2716   72.4544  216.9640 H   0  0  0  0  0  0  0  0  0  0  0  0
  140.4422   70.6460  216.9834 H   0  0  0  0  0  0  0  0  0  0  0  0
  138.6460   70.9590  218.4930 H   0  0  0  0  0  0  0  0  0  0  0  0
  138.8074   76.8479  222.1291 H   0  0  0  0  0  0  0  0  0  0  0  0
  139.7176   75.6942  223.1917 H   0  0  0  0  0  0  0  0  0  0  0  0
  140.2704   78.3955  222.9273 H   0  0  0  0  0  0  0  0  0  0  0  0
  141.4317   77.1016  223.4902 H   0  0  0  0  0  0  0  0  0  0  0  0
  142.5270   77.1050  221.5480 H   0  0  0  0  0  0  0  0  0  0  0  0
  142.1230   78.7420  221.6790 H   0  0  0  0  0  0  0  0  0  0  0  0
  140.1473   78.3603  220.2798 H   0  0  0  0  0  0  0  0  0  0  0  0
  141.7262   78.0810  219.4624 H   0  0  0  0  0  0  0  0  0  0  0  0
  139.8134   76.2903  219.2053 H   0  0  0  0  0  0  0  0  0  0  0  0
  141.5058   75.7465  219.5390 H   0  0  0  0  0  0  0  0  0  0  0  0
  138.9238   69.7233  222.6165 H   0  0  0  0  0  0  0  0  0  0  0  0
  140.4728   69.2972  223.4258 H   0  0  0  0  0  0  0  0  0  0  0  0
  137.8383   70.1065  224.7483 H   0  0  0  0  0  0  0  0  0  0  0  0
  138.6758   68.5049  224.8216 H   0  0  0  0  0  0  0  0  0  0  0  0
  138.6887   68.5321  227.2605 H   0  0  0  0  0  0  0  0  0  0  0  0
  139.8643   69.3172  229.3148 H   0  0  0  0  0  0  0  0  0  0  0  0
  141.3871   71.2912  229.2099 H   0  0  0  0  0  0  0  0  0  0  0  0
  141.7540   72.4745  227.0469 H   0  0  0  0  0  0  0  0  0  0  0  0
  140.4611   72.9440  224.7422 H   0  0  0  0  0  0  0  0  0  0  0  0
  141.7921   71.7496  224.3925 H   0  0  0  0  0  0  0  0  0  0  0  0
  142.8603   74.0463  220.7758 H   0  0  0  0  0  0  0  0  0  0  0  0
  1  2  2  0
  2  3  1  0
  3  4  2  0
  4  5  1  0
  5  6  1  0
  6  7  1  0
  7  8  1  0
  8  9  1  0
  9 10  1  0
 10 11  2  0
 11 12  1  0
 12 13  1  0
 13 14  1  0
 14 15  1  0
 15 16  1  0
 16 17  1  0
 17 18  1  0
 12 19  2  0
 19 20  1  0
 20 21  1  0
 21 22  1  0
 22 23  1  0
 23 24  1  0
 24 25  2  0
 25 26  1  0
 26 27  2  0
 27 28  1  0
 28 29  2  0
 29 30  1  0
 20 31  2  0
  5 32  2  0
 32  1  1  0
 31 10  1  0
 18 13  1  0
 30 21  1  0
 29 24  1  0
  1 33  1  0
  2 34  1  0
  4 35  1  0
  6 36  1  0
  6 37  1  0
  7 38  1  0
  7 39  1  0
  8 40  1  0
  8 41  1  0
  9 42  1  0
 14 43  1  0
 14 44  1  0
 15 45  1  0
 15 46  1  0
 16 47  1  0
 16 48  1  0
 17 49  1  0
 17 50  1  0
 18 51  1  0
 18 52  1  0
 22 53  1  0
 22 54  1  0
 23 55  1  0
 23 56  1  0
 25 57  1  0
 26 58  1  0
 27 59  1  0
 28 60  1  0
 30 61  1  0
 30 62  1  0
 32 63  1  0
M  CHG  1  16   1
M  END
>  <UniqueID>  (38) 
626

>  <SMILES>  (38) 
c1cncc(CCCNc2nc(N3CC[NH2+]CC3)nc(N3CCc4ccccc4C3)n2)c1

>  <Energy>  (38) 
68.14760511218654

>  <Genealogy>  (38) 
c1cncc(CCCNc2nc(N3CC[NH2+]CC3)nc(N3CCc4ccccc4C3)n2)c1 (protonated)
c1cncc(CCCNc2nc(N3CC[NH2+]CC3)nc(N3CCc4ccccc4C3)n2)c1 (3D coordinates assigned)
c1cncc(CCCNc2nc(N3CC[NH2+]CC3)nc(N3CCc4ccccc4C3)n2)c1 (nonaromatic ring conformer: 68.14760511218654 kcal/mol)

>  <smiles>  (38) 
c1cncc(CCCNc2nc(N3CCNCC3)nc(N3CCc4ccccc4C3)n2)c1

>  <score_type>  (38) 
oracle

>  <origin>  (38) 
autodockgpu

>  <m_score__min__energy>  (38) 
-9.4199999999999999

>  <m_primary>  (38) 
energy

>  <meeko>  (38) 
{"free_energy": -8.26, "intermolecular_energy": -10.35, "internal_energy": -1.39, "cluster_size": 3, "cluster_id": 4, "rank_in_cluster": 1}

>  <energy>  (38) 
-6.72

>  <cluster_rmsd>  (38) 
0.79

>  <rmsd>  (38) 
269.66

>  <cluster>  (38) 
4

$$$$
JSIQCYHYJBEBBC-RBVFQDFSNA-O
     RDKit          3D

 63 67  0  0  0  0  0  0  0  0999 V2000
  141.4210   72.2860  227.1790 C   0  0  0  0  0  0  0  0  0  0  0  0
  141.0770   71.6510  228.3750 C   0  0  0  0  0  0  0  0  0  0  0  0
  140.3700   70.4900  228.3500 N   0  0  0  0  0  0  0  0  0  0  0  0
  139.9790   69.9140  227.1790 C   0  0  0  0  0  0  0  0  0  0  0  0
  140.2940   70.5200  225.9520 C   0  0  0  0  0  0  0  0  0  0  0  0
  139.8180   69.9150  224.6550 C   0  0  0  0  0  0  0  0  0  0  0  0
  138.5860   70.6340  224.0730 C   0  0  0  0  0  0  0  0  0  0  0  0
  138.7840   71.1390  222.6310 C   0  0  0  0  0  0  0  0  0  0  0  0
  138.6020   72.5870  222.5250 N   0  0  0  0  0  0  0  0  0  0  0  0
  139.6430   73.4780  222.1100 C   0  0  0  0  0  0  0  0  0  0  0  0
  140.7700   72.9990  221.5220 N   0  0  0  0  0  0  0  0  0  0  0  0
  141.7690   73.8390  221.1530 C   0  0  0  0  0  0  0  0  0  0  0  0
  142.9810   73.3160  220.5770 N   0  0  0  0  0  0  0  0  0  0  0  0
  144.0360   74.2220  220.1040 C   0  0  0  0  0  0  0  0  0  0  0  0
  145.4450   73.7020  220.4710 C   0  0  0  0  0  0  0  0  0  0  0  0
  145.4720   72.2700  220.8280 N   0  0  0  0  0  0  0  0  0  0  0  0
  144.5460   71.4860  220.0040 C   0  0  0  0  0  0  0  0  0  0  0  0
  143.1000   71.8720  220.3320 C   0  0  0  0  0  0  0  0  0  0  0  0
  141.6270   75.1740  221.3640 N   0  0  0  0  0  0  0  0  0  0  0  0
  140.5030   75.6670  221.9480 C   0  0  0  0  0  0  0  0  0  0  0  0
  140.3650   77.0800  222.1700 N   0  0  0  0  0  0  0  0  0  0  0  0
  139.0550   77.7180  221.9850 C   0  0  0  0  0  0  0  0  0  0  0  0
  139.2340   79.0950  221.3540 C   0  0  0  0  0  0  0  0  0  0  0  0
  140.2390   79.9130  222.1160 C   0  0  0  0  0  0  0  0  0  0  0  0
  140.1660   81.3140  222.0690 C   0  0  0  0  0  0  0  0  0  0  0  0
  141.1300   82.0930  222.7150 C   0  0  0  0  0  0  0  0  0  0  0  0
  142.1840   81.4800  223.3980 C   0  0  0  0  0  0  0  0  0  0  0  0
  142.2740   80.0860  223.4410 C   0  0  0  0  0  0  0  0  0  0  0  0
  141.3070   79.2910  222.8050 C   0  0  0  0  0  0  0  0  0  0  0  0
  141.4220   77.7870  222.9090 C   0  0  0  0  0  0  0  0  0  0  0  0
  139.5140   74.8120  222.3220 N   0  0  0  0  0  0  0  0  0  0  0  0
  141.0390   71.7120  225.9630 C   0  0  0  0  0  0  0  0  0  0  0  0
  141.9872   73.2290  227.1941 H   0  0  0  0  0  0  0  0  0  0  0  0
  141.3783   72.0906  229.3373 H   0  0  0  0  0  0  0  0  0  0  0  0
  139.4142   68.9702  227.1947 H   0  0  0  0  0  0  0  0  0  0  0  0
  140.6356   69.9705  223.9212 H   0  0  0  0  0  0  0  0  0  0  0  0
  139.5246   68.8757  224.8643 H   0  0  0  0  0  0  0  0  0  0  0  0
  137.7389   69.9323  224.0814 H   0  0  0  0  0  0  0  0  0  0  0  0
  138.4058   71.5193  224.7005 H   0  0  0  0  0  0  0  0  0  0  0  0
  139.8026   70.8846  222.3028 H   0  0  0  0  0  0  0  0  0  0  0  0
  138.0275   70.6551  221.9958 H   0  0  0  0  0  0  0  0  0  0  0  0
  137.6410   72.9780  222.6750 H   0  0  0  0  0  0  0  0  0  0  0  0
  143.9635   74.3129  219.0102 H   0  0  0  0  0  0  0  0  0  0  0  0
  143.8934   75.1977  220.5916 H   0  0  0  0  0  0  0  0  0  0  0  0
  146.1089   73.8578  219.6079 H   0  0  0  0  0  0  0  0  0  0  0  0
  145.7744   74.2620  221.3586 H   0  0  0  0  0  0  0  0  0  0  0  0
  145.2220   72.1550  221.8390 H   0  0  0  0  0  0  0  0  0  0  0  0
  146.4430   71.9030  220.6950 H   0  0  0  0  0  0  0  0  0  0  0  0
  144.7447   71.6867  218.9409 H   0  0  0  0  0  0  0  0  0  0  0  0
  144.6915   70.4162  220.2144 H   0  0  0  0  0  0  0  0  0  0  0  0
  142.4537   71.5967  219.4855 H   0  0  0  0  0  0  0  0  0  0  0  0
  142.7932   71.3365  221.2425 H   0  0  0  0  0  0  0  0  0  0  0  0
  138.4343   77.0927  221.3265 H   0  0  0  0  0  0  0  0  0  0  0  0
  138.5640   77.8284  222.9631 H   0  0  0  0  0  0  0  0  0  0  0  0
  139.5819   78.9728  220.3176 H   0  0  0  0  0  0  0  0  0  0  0  0
  138.2670   79.6187  221.3780 H   0  0  0  0  0  0  0  0  0  0  0  0
  139.3460   81.8012  221.5210 H   0  0  0  0  0  0  0  0  0  0  0  0
  141.0590   83.1903  222.6858 H   0  0  0  0  0  0  0  0  0  0  0  0
  142.9436   82.0954  223.9023 H   0  0  0  0  0  0  0  0  0  0  0  0
  143.1078   79.6085  223.9766 H   0  0  0  0  0  0  0  0  0  0  0  0
  142.3980   77.4808  222.5046 H   0  0  0  0  0  0  0  0  0  0  0  0
  141.3172   77.5205  223.9711 H   0  0  0  0  0  0  0  0  0  0  0  0
  141.3213   72.1930  225.0149 H   0  0  0  0  0  0  0  0  0  0  0  0
  1  2  2  0
  2  3  1  0
  3  4  2  0
  4  5  1  0
  5  6  1  0
  6  7  1  0
  7  8  1  0
  8  9  1  0
  9 10  1  0
 10 11  2  0
 11 12  1  0
 12 13  1  0
 13 14  1  0
 14 15  1  0
 15 16  1  0
 16 17  1  0
 17 18  1  0
 12 19  2  0
 19 20  1  0
 20 21  1  0
 21 22  1  0
 22 23  1  0
 23 24  1  0
 24 25  2  0
 25 26  1  0
 26 27  2  0
 27 28  1  0
 28 29  2  0
 29 30  1  0
 20 31  2  0
  5 32  2  0
 32  1  1  0
 31 10  1  0
 18 13  1  0
 30 21  1  0
 29 24  1  0
  1 33  1  0
  2 34  1  0
  4 35  1  0
  6 36  1  0
  6 37  1  0
  7 38  1  0
  7 39  1  0
  8 40  1  0
  8 41  1  0
  9 42  1  0
 14 43  1  0
 14 44  1  0
 15 45  1  0
 15 46  1  0
 16 47  1  0
 16 48  1  0
 17 49  1  0
 17 50  1  0
 18 51  1  0
 18 52  1  0
 22 53  1  0
 22 54  1  0
 23 55  1  0
 23 56  1  0
 25 57  1  0
 26 58  1  0
 27 59  1  0
 28 60  1  0
 30 61  1  0
 30 62  1  0
 32 63  1  0
M  CHG  1  16   1
M  END
>  <UniqueID>  (39) 
626

>  <SMILES>  (39) 
c1cncc(CCCNc2nc(N3CC[NH2+]CC3)nc(N3CCc4ccccc4C3)n2)c1

>  <Energy>  (39) 
68.14760511218654

>  <Genealogy>  (39) 
c1cncc(CCCNc2nc(N3CC[NH2+]CC3)nc(N3CCc4ccccc4C3)n2)c1 (protonated)
c1cncc(CCCNc2nc(N3CC[NH2+]CC3)nc(N3CCc4ccccc4C3)n2)c1 (3D coordinates assigned)
c1cncc(CCCNc2nc(N3CC[NH2+]CC3)nc(N3CCc4ccccc4C3)n2)c1 (nonaromatic ring conformer: 68.14760511218654 kcal/mol)

>  <smiles>  (39) 
c1cncc(CCCNc2nc(N3CCNCC3)nc(N3CCc4ccccc4C3)n2)c1

>  <score_type>  (39) 
oracle

>  <origin>  (39) 
autodockgpu

>  <m_score__min__energy>  (39) 
-9.4199999999999999

>  <m_primary>  (39) 
energy

>  <meeko>  (39) 
{"free_energy": -9.29, "intermolecular_energy": -11.38, "internal_energy": -0.91, "cluster_size": 4, "cluster_id": 1, "rank_in_cluster": 2}

>  <energy>  (39) 
-7.95

>  <cluster_rmsd>  (39) 
0.0

>  <rmsd>  (39) 
269.45

>  <cluster>  (39) 
5

$$$$
JSIQCYHYJBEBBC-RBVFQDFSNA-O
     RDKit          3D

 63 67  0  0  0  0  0  0  0  0999 V2000
  141.1060   79.4630  223.4320 C   0  0  0  0  0  0  0  0  0  0  0  0
  141.8460   78.6180  222.6020 C   0  0  0  0  0  0  0  0  0  0  0  0
  141.2120   77.6890  221.8380 N   0  0  0  0  0  0  0  0  0  0  0  0
  139.8580   77.5510  221.8550 C   0  0  0  0  0  0  0  0  0  0  0  0
  139.0720   78.3720  222.6800 C   0  0  0  0  0  0  0  0  0  0  0  0
  137.5760   78.1880  222.7420 C   0  0  0  0  0  0  0  0  0  0  0  0
  137.0420   77.2460  221.6470 C   0  0  0  0  0  0  0  0  0  0  0  0
  136.4020   75.9560  222.1930 C   0  0  0  0  0  0  0  0  0  0  0  0
  136.8490   74.7680  221.4650 N   0  0  0  0  0  0  0  0  0  0  0  0
  138.1600   74.2090  221.6080 C   0  0  0  0  0  0  0  0  0  0  0  0
  139.2200   74.7570  220.9610 N   0  0  0  0  0  0  0  0  0  0  0  0
  140.4580   74.2120  221.0740 C   0  0  0  0  0  0  0  0  0  0  0  0
  141.5650   74.7700  220.3420 N   0  0  0  0  0  0  0  0  0  0  0  0
  141.3420   75.4970  219.0850 C   0  0  0  0  0  0  0  0  0  0  0  0
  142.2350   76.7550  218.9830 C   0  0  0  0  0  0  0  0  0  0  0  0
  143.3770   76.7450  219.9170 N   0  0  0  0  0  0  0  0  0  0  0  0
  143.9440   75.4000  220.0720 C   0  0  0  0  0  0  0  0  0  0  0  0
  142.9380   74.4890  220.7830 C   0  0  0  0  0  0  0  0  0  0  0  0
  140.6310   73.1150  221.8570 N   0  0  0  0  0  0  0  0  0  0  0  0
  139.5790   72.5590  222.5120 C   0  0  0  0  0  0  0  0  0  0  0  0
  139.7740   71.3970  223.3350 N   0  0  0  0  0  0  0  0  0  0  0  0
  139.5480   70.0600  222.7690 C   0  0  0  0  0  0  0  0  0  0  0  0
  138.8990   69.1580  223.8140 C   0  0  0  0  0  0  0  0  0  0  0  0
  139.6720   69.1810  225.1040 C   0  0  0  0  0  0  0  0  0  0  0  0
  139.6010   68.0780  225.9700 C   0  0  0  0  0  0  0  0  0  0  0  0
  140.2560   68.1070  227.2030 C   0  0  0  0  0  0  0  0  0  0  0  0
  140.9740   69.2420  227.5890 C   0  0  0  0  0  0  0  0  0  0  0  0
  141.0420   70.3500  226.7410 C   0  0  0  0  0  0  0  0  0  0  0  0
  140.3960   70.3320  225.4940 C   0  0  0  0  0  0  0  0  0  0  0  0
  140.5270   71.5370  224.5910 C   0  0  0  0  0  0  0  0  0  0  0  0
  138.3440   73.1090  222.3820 N   0  0  0  0  0  0  0  0  0  0  0  0
  139.7130   79.3490  223.4620 C   0  0  0  0  0  0  0  0  0  0  0  0
  141.6149   80.2118  224.0568 H   0  0  0  0  0  0  0  0  0  0  0  0
  142.9420   78.7041  222.5664 H   0  0  0  0  0  0  0  0  0  0  0  0
  139.3771   76.7928  221.2195 H   0  0  0  0  0  0  0  0  0  0  0  0
  137.3145   77.7680  223.7244 H   0  0  0  0  0  0  0  0  0  0  0  0
  137.1153   79.1741  222.5825 H   0  0  0  0  0  0  0  0  0  0  0  0
  136.2842   77.7884  221.0626 H   0  0  0  0  0  0  0  0  0  0  0  0
  137.9059   76.9415  221.0379 H   0  0  0  0  0  0  0  0  0  0  0  0
  136.6750   75.8459  223.2529 H   0  0  0  0  0  0  0  0  0  0  0  0
  135.3124   76.0396  222.0676 H   0  0  0  0  0  0  0  0  0  0  0  0
  136.1490   74.2540  220.8780 H   0  0  0  0  0  0  0  0  0  0  0  0
  141.5707   74.8287  218.2418 H   0  0  0  0  0  0  0  0  0  0  0  0
  140.2910   75.8208  219.0592 H   0  0  0  0  0  0  0  0  0  0  0  0
  142.6254   76.8222  217.9568 H   0  0  0  0  0  0  0  0  0  0  0  0
  141.6078   77.6187  219.2490 H   0  0  0  0  0  0  0  0  0  0  0  0
  143.0690   77.1030  220.8530 H   0  0  0  0  0  0  0  0  0  0  0  0
  144.1190   77.3890  219.5570 H   0  0  0  0  0  0  0  0  0  0  0  0
  144.1744   74.9847  219.0798 H   0  0  0  0  0  0  0  0  0  0  0  0
  144.8639   75.4616  220.6720 H   0  0  0  0  0  0  0  0  0  0  0  0
  143.1805   73.4403  220.5562 H   0  0  0  0  0  0  0  0  0  0  0  0
  143.0021   74.6758  221.8651 H   0  0  0  0  0  0  0  0  0  0  0  0
  138.8854   70.1411  221.8947 H   0  0  0  0  0  0  0  0  0  0  0  0
  140.5125   69.6271  222.4650 H   0  0  0  0  0  0  0  0  0  0  0  0
  137.8734   69.5077  224.0034 H   0  0  0  0  0  0  0  0  0  0  0  0
  138.8911   68.1274  223.4296 H   0  0  0  0  0  0  0  0  0  0  0  0
  139.0268   67.1870  225.6759 H   0  0  0  0  0  0  0  0  0  0  0  0
  140.2067   67.2349  227.8716 H   0  0  0  0  0  0  0  0  0  0  0  0
  141.4864   69.2630  228.5621 H   0  0  0  0  0  0  0  0  0  0  0  0
  141.6051   71.2423  227.0519 H   0  0  0  0  0  0  0  0  0  0  0  0
  140.1518   72.4205  225.1283 H   0  0  0  0  0  0  0  0  0  0  0  0
  141.5904   71.6380  224.3283 H   0  0  0  0  0  0  0  0  0  0  0  0
  139.1190   80.0230  224.0968 H   0  0  0  0  0  0  0  0  0  0  0  0
  1  2  2  0
  2  3  1  0
  3  4  2  0
  4  5  1  0
  5  6  1  0
  6  7  1  0
  7  8  1  0
  8  9  1  0
  9 10  1  0
 10 11  2  0
 11 12  1  0
 12 13  1  0
 13 14  1  0
 14 15  1  0
 15 16  1  0
 16 17  1  0
 17 18  1  0
 12 19  2  0
 19 20  1  0
 20 21  1  0
 21 22  1  0
 22 23  1  0
 23 24  1  0
 24 25  2  0
 25 26  1  0
 26 27  2  0
 27 28  1  0
 28 29  2  0
 29 30  1  0
 20 31  2  0
  5 32  2  0
 32  1  1  0
 31 10  1  0
 18 13  1  0
 30 21  1  0
 29 24  1  0
  1 33  1  0
  2 34  1  0
  4 35  1  0
  6 36  1  0
  6 37  1  0
  7 38  1  0
  7 39  1  0
  8 40  1  0
  8 41  1  0
  9 42  1  0
 14 43  1  0
 14 44  1  0
 15 45  1  0
 15 46  1  0
 16 47  1  0
 16 48  1  0
 17 49  1  0
 17 50  1  0
 18 51  1  0
 18 52  1  0
 22 53  1  0
 22 54  1  0
 23 55  1  0
 23 56  1  0
 25 57  1  0
 26 58  1  0
 27 59  1  0
 28 60  1  0
 30 61  1  0
 30 62  1  0
 32 63  1  0
M  CHG  1  16   1
M  END
>  <UniqueID>  (40) 
626

>  <SMILES>  (40) 
c1cncc(CCCNc2nc(N3CC[NH2+]CC3)nc(N3CCc4ccccc4C3)n2)c1

>  <Energy>  (40) 
68.14760511218654

>  <Genealogy>  (40) 
c1cncc(CCCNc2nc(N3CC[NH2+]CC3)nc(N3CCc4ccccc4C3)n2)c1 (protonated)
c1cncc(CCCNc2nc(N3CC[NH2+]CC3)nc(N3CCc4ccccc4C3)n2)c1 (3D coordinates assigned)
c1cncc(CCCNc2nc(N3CC[NH2+]CC3)nc(N3CCc4ccccc4C3)n2)c1 (nonaromatic ring conformer: 68.14760511218654 kcal/mol)

>  <smiles>  (40) 
c1cncc(CCCNc2nc(N3CCNCC3)nc(N3CCc4ccccc4C3)n2)c1

>  <score_type>  (40) 
oracle

>  <origin>  (40) 
autodockgpu

>  <m_score__min__energy>  (40) 
-9.4199999999999999

>  <m_primary>  (40) 
energy

>  <meeko>  (40) 
{"free_energy": -8.11, "intermolecular_energy": -10.2, "internal_energy": -2.19, "cluster_size": 10, "cluster_id": 2, "rank_in_cluster": 7}

>  <energy>  (40) 
-7.64

>  <cluster_rmsd>  (40) 
0.0

>  <rmsd>  (40) 
270.12

>  <cluster>  (40) 
6

$$$$
JSIQCYHYJBEBBC-RBVFQDFSNA-O
     RDKit          3D

 63 67  0  0  0  0  0  0  0  0999 V2000
  140.7120   68.4520  227.3700 C   0  0  0  0  0  0  0  0  0  0  0  0
  141.0270   69.2530  228.4700 C   0  0  0  0  0  0  0  0  0  0  0  0
  141.0530   70.6070  228.3410 N   0  0  0  0  0  0  0  0  0  0  0  0
  140.7760   71.2190  227.1560 C   0  0  0  0  0  0  0  0  0  0  0  0
  140.4620   70.4540  226.0200 C   0  0  0  0  0  0  0  0  0  0  0  0
  140.2070   71.1240  224.6930 C   0  0  0  0  0  0  0  0  0  0  0  0
  139.1770   70.3730  223.8300 C   0  0  0  0  0  0  0  0  0  0  0  0
  138.9120   71.0310  222.4620 C   0  0  0  0  0  0  0  0  0  0  0  0
  138.7400   72.4790  222.5720 N   0  0  0  0  0  0  0  0  0  0  0  0
  139.7360   73.4200  222.1520 C   0  0  0  0  0  0  0  0  0  0  0  0
  140.8900   72.9930  221.5770 N   0  0  0  0  0  0  0  0  0  0  0  0
  141.8470   73.8810  221.2050 C   0  0  0  0  0  0  0  0  0  0  0  0
  143.0880   73.4160  220.6420 N   0  0  0  0  0  0  0  0  0  0  0  0
  144.1960   74.3490  220.4000 C   0  0  0  0  0  0  0  0  0  0  0  0
  145.5610   73.7310  220.7820 C   0  0  0  0  0  0  0  0  0  0  0  0
  145.5290   72.2610  220.9040 N   0  0  0  0  0  0  0  0  0  0  0  0
  144.6530   71.6490  219.8980 C   0  0  0  0  0  0  0  0  0  0  0  0
  143.1950   72.0270  220.1770 C   0  0  0  0  0  0  0  0  0  0  0  0
  141.6320   75.2090  221.3990 N   0  0  0  0  0  0  0  0  0  0  0  0
  140.4800   75.6480  221.9700 C   0  0  0  0  0  0  0  0  0  0  0  0
  140.2660   77.0550  222.1730 N   0  0  0  0  0  0  0  0  0  0  0  0
  138.8950   77.5700  222.2890 C   0  0  0  0  0  0  0  0  0  0  0  0
  138.7890   78.9220  221.5900 C   0  0  0  0  0  0  0  0  0  0  0  0
  139.8650   79.8610  222.0610 C   0  0  0  0  0  0  0  0  0  0  0  0
  139.6520   81.2460  221.9890 C   0  0  0  0  0  0  0  0  0  0  0  0
  140.6640   82.1360  222.3580 C   0  0  0  0  0  0  0  0  0  0  0  0
  141.9020   81.6510  222.7860 C   0  0  0  0  0  0  0  0  0  0  0  0
  142.1310   80.2740  222.8510 C   0  0  0  0  0  0  0  0  0  0  0  0
  141.1200   79.3680  222.4920 C   0  0  0  0  0  0  0  0  0  0  0  0
  141.3970   77.8870  222.6130 C   0  0  0  0  0  0  0  0  0  0  0  0
  139.5350   74.7470  222.3480 N   0  0  0  0  0  0  0  0  0  0  0  0
  140.4160   69.0540  226.1450 C   0  0  0  0  0  0  0  0  0  0  0  0
  140.6972   67.3564  227.4676 H   0  0  0  0  0  0  0  0  0  0  0  0
  141.2541   68.7888  229.4410 H   0  0  0  0  0  0  0  0  0  0  0  0
  140.7982   72.3167  227.0881 H   0  0  0  0  0  0  0  0  0  0  0  0
  139.8330   72.1414  224.8798 H   0  0  0  0  0  0  0  0  0  0  0  0
  141.1576   71.1321  224.1396 H   0  0  0  0  0  0  0  0  0  0  0  0
  139.5481   69.3520  223.6574 H   0  0  0  0  0  0  0  0  0  0  0  0
  138.2256   70.3882  224.3819 H   0  0  0  0  0  0  0  0  0  0  0  0
  139.7644   70.8245  221.7981 H   0  0  0  0  0  0  0  0  0  0  0  0
  137.9800   70.6090  222.0581 H   0  0  0  0  0  0  0  0  0  0  0  0
  137.8120   72.8460  222.8910 H   0  0  0  0  0  0  0  0  0  0  0  0
  144.2115   74.6142  219.3326 H   0  0  0  0  0  0  0  0  0  0  0  0
  144.0364   75.2391  221.0263 H   0  0  0  0  0  0  0  0  0  0  0  0
  146.2939   74.0000  220.0071 H   0  0  0  0  0  0  0  0  0  0  0  0
  145.8319   74.1315  221.7701 H   0  0  0  0  0  0  0  0  0  0  0  0
  145.1990   71.9940  221.8620 H   0  0  0  0  0  0  0  0  0  0  0  0
  146.4990   71.8870  220.7850 H   0  0  0  0  0  0  0  0  0  0  0  0
  144.9383   72.0090  218.8985 H   0  0  0  0  0  0  0  0  0  0  0  0
  144.7585   70.5550  219.9433 H   0  0  0  0  0  0  0  0  0  0  0  0
  142.6108   71.9119  219.2521 H   0  0  0  0  0  0  0  0  0  0  0  0
  142.8071   71.3643  220.9646 H   0  0  0  0  0  0  0  0  0  0  0  0
  138.1977   76.8606  221.8194 H   0  0  0  0  0  0  0  0  0  0  0  0
  138.6415   77.6906  223.3526 H   0  0  0  0  0  0  0  0  0  0  0  0
  138.8909   78.7743  220.5047 H   0  0  0  0  0  0  0  0  0  0  0  0
  137.8105   79.3635  221.8299 H   0  0  0  0  0  0  0  0  0  0  0  0
  138.6832   81.6332  221.6402 H   0  0  0  0  0  0  0  0  0  0  0  0
  140.4855   83.2204  222.3114 H   0  0  0  0  0  0  0  0  0  0  0  0
  142.6980   82.3541  223.0724 H   0  0  0  0  0  0  0  0  0  0  0  0
  143.1090   79.8976  223.1854 H   0  0  0  0  0  0  0  0  0  0  0  0
  142.2738   77.6423  221.9955 H   0  0  0  0  0  0  0  0  0  0  0  0
  141.5722   77.6699  223.6770 H   0  0  0  0  0  0  0  0  0  0  0  0
  140.1468   68.4330  225.2779 H   0  0  0  0  0  0  0  0  0  0  0  0
  1  2  2  0
  2  3  1  0
  3  4  2  0
  4  5  1  0
  5  6  1  0
  6  7  1  0
  7  8  1  0
  8  9  1  0
  9 10  1  0
 10 11  2  0
 11 12  1  0
 12 13  1  0
 13 14  1  0
 14 15  1  0
 15 16  1  0
 16 17  1  0
 17 18  1  0
 12 19  2  0
 19 20  1  0
 20 21  1  0
 21 22  1  0
 22 23  1  0
 23 24  1  0
 24 25  2  0
 25 26  1  0
 26 27  2  0
 27 28  1  0
 28 29  2  0
 29 30  1  0
 20 31  2  0
  5 32  2  0
 32  1  1  0
 31 10  1  0
 18 13  1  0
 30 21  1  0
 29 24  1  0
  1 33  1  0
  2 34  1  0
  4 35  1  0
  6 36  1  0
  6 37  1  0
  7 38  1  0
  7 39  1  0
  8 40  1  0
  8 41  1  0
  9 42  1  0
 14 43  1  0
 14 44  1  0
 15 45  1  0
 15 46  1  0
 16 47  1  0
 16 48  1  0
 17 49  1  0
 17 50  1  0
 18 51  1  0
 18 52  1  0
 22 53  1  0
 22 54  1  0
 23 55  1  0
 23 56  1  0
 25 57  1  0
 26 58  1  0
 27 59  1  0
 28 60  1  0
 30 61  1  0
 30 62  1  0
 32 63  1  0
M  CHG  1  16   1
M  END
>  <UniqueID>  (41) 
627

>  <SMILES>  (41) 
c1cncc(CCCNc2nc(N3CC[NH2+]CC3)nc(N3CCc4ccccc4C3)n2)c1

>  <Energy>  (41) 
68.37971912434385

>  <Genealogy>  (41) 
c1cncc(CCCNc2nc(N3CC[NH2+]CC3)nc(N3CCc4ccccc4C3)n2)c1 (protonated)
c1cncc(CCCNc2nc(N3CC[NH2+]CC3)nc(N3CCc4ccccc4C3)n2)c1 (3D coordinates assigned)
c1cncc(CCCNc2nc(N3CC[NH2+]CC3)nc(N3CCc4ccccc4C3)n2)c1 (nonaromatic ring conformer: 68.37971912434385 kcal/mol)

>  <smiles>  (41) 
c1cncc(CCCNc2nc(N3CCNCC3)nc(N3CCc4ccccc4C3)n2)c1

>  <score_type>  (41) 
oracle

>  <origin>  (41) 
autodockgpu

>  <m_score__min__energy>  (41) 
-9.4199999999999999

>  <m_primary>  (41) 
energy

>  <meeko>  (41) 
{"free_energy": -9.22, "intermolecular_energy": -11.31, "internal_energy": -0.85, "cluster_size": 4, "cluster_id": 1, "rank_in_cluster": 3}

>  <energy>  (41) 
-9.42

>  <cluster_rmsd>  (41) 
0.0

>  <rmsd>  (41) 
271.08

>  <cluster>  (41) 
1

$$$$
JSIQCYHYJBEBBC-RBVFQDFSNA-O
     RDKit          3D

 63 67  0  0  0  0  0  0  0  0999 V2000
  142.2120   80.6220  222.6130 C   0  0  0  0  0  0  0  0  0  0  0  0
  142.4840   79.8870  223.7690 C   0  0  0  0  0  0  0  0  0  0  0  0
  141.8650   78.6940  223.9780 N   0  0  0  0  0  0  0  0  0  0  0  0
  140.9740   78.1830  223.0840 C   0  0  0  0  0  0  0  0  0  0  0  0
  140.6630   78.8900  221.9110 C   0  0  0  0  0  0  0  0  0  0  0  0
  139.6370   78.3540  220.9430 C   0  0  0  0  0  0  0  0  0  0  0  0
  138.3540   77.8640  221.6390 C   0  0  0  0  0  0  0  0  0  0  0  0
  137.5650   76.8190  220.8270 C   0  0  0  0  0  0  0  0  0  0  0  0
  137.5950   75.4970  221.4540 N   0  0  0  0  0  0  0  0  0  0  0  0
  138.8010   74.7470  221.6420 C   0  0  0  0  0  0  0  0  0  0  0  0
  139.9720   75.1760  221.1050 N   0  0  0  0  0  0  0  0  0  0  0  0
  141.1100   74.4520  221.2580 C   0  0  0  0  0  0  0  0  0  0  0  0
  142.3360   74.8900  220.6420 N   0  0  0  0  0  0  0  0  0  0  0  0
  143.5490   74.0640  220.7210 C   0  0  0  0  0  0  0  0  0  0  0  0
  144.3220   74.0530  219.3820 C   0  0  0  0  0  0  0  0  0  0  0  0
  143.9430   75.1500  218.4720 N   0  0  0  0  0  0  0  0  0  0  0  0
  143.6720   76.3940  219.2000 C   0  0  0  0  0  0  0  0  0  0  0  0
  142.4110   76.2340  220.0540 C   0  0  0  0  0  0  0  0  0  0  0  0
  141.0700   73.2950  221.9700 N   0  0  0  0  0  0  0  0  0  0  0  0
  139.9060   72.8570  222.5150 C   0  0  0  0  0  0  0  0  0  0  0  0
  139.8750   71.6310  223.2640 N   0  0  0  0  0  0  0  0  0  0  0  0
  139.3190   70.4190  222.6480 C   0  0  0  0  0  0  0  0  0  0  0  0
  138.5390   69.6210  223.6880 C   0  0  0  0  0  0  0  0  0  0  0  0
  139.3670   69.3860  224.9210 C   0  0  0  0  0  0  0  0  0  0  0  0
  139.0940   68.2740  225.7340 C   0  0  0  0  0  0  0  0  0  0  0  0
  139.8060   68.0750  226.9200 C   0  0  0  0  0  0  0  0  0  0  0  0
  140.7840   68.9930  227.3120 C   0  0  0  0  0  0  0  0  0  0  0  0
  141.0560   70.1100  226.5180 C   0  0  0  0  0  0  0  0  0  0  0  0
  140.3550   70.3170  225.3190 C   0  0  0  0  0  0  0  0  0  0  0  0
  140.7080   71.5180  224.4710 C   0  0  0  0  0  0  0  0  0  0  0  0
  138.7720   73.5870  222.3450 N   0  0  0  0  0  0  0  0  0  0  0  0
  141.3080   80.1160  221.6750 C   0  0  0  0  0  0  0  0  0  0  0  0
  142.7049   81.5905  222.4424 H   0  0  0  0  0  0  0  0  0  0  0  0
  143.1989   80.2730  224.5106 H   0  0  0  0  0  0  0  0  0  0  0  0
  140.4958   77.2123  223.2814 H   0  0  0  0  0  0  0  0  0  0  0  0
  139.3695   79.1538  220.2368 H   0  0  0  0  0  0  0  0  0  0  0  0
  140.0858   77.4894  220.4320 H   0  0  0  0  0  0  0  0  0  0  0  0
  138.6329   77.4149  222.6036 H   0  0  0  0  0  0  0  0  0  0  0  0
  137.6988   78.7399  221.7554 H   0  0  0  0  0  0  0  0  0  0  0  0
  136.5189   77.1492  220.7456 H   0  0  0  0  0  0  0  0  0  0  0  0
  138.0353   76.7346  219.8362 H   0  0  0  0  0  0  0  0  0  0  0  0
  136.7060   75.1220  221.8620 H   0  0  0  0  0  0  0  0  0  0  0  0
  144.2041   74.4670  221.5074 H   0  0  0  0  0  0  0  0  0  0  0  0
  143.2463   73.0317  220.9505 H   0  0  0  0  0  0  0  0  0  0  0  0
  145.3968   74.1380  219.6003 H   0  0  0  0  0  0  0  0  0  0  0  0
  144.0715   73.1106  218.8729 H   0  0  0  0  0  0  0  0  0  0  0  0
  143.0930   74.8740  217.9230 H   0  0  0  0  0  0  0  0  0  0  0  0
  144.7220   75.3150  217.7920 H   0  0  0  0  0  0  0  0  0  0  0  0
  144.5265   76.6288  219.8517 H   0  0  0  0  0  0  0  0  0  0  0  0
  143.5195   77.2101  218.4783 H   0  0  0  0  0  0  0  0  0  0  0  0
  142.4282   76.9793  220.8629 H   0  0  0  0  0  0  0  0  0  0  0  0
  141.5321   76.3823  219.4094 H   0  0  0  0  0  0  0  0  0  0  0  0
  138.6458   70.7033  221.8258 H   0  0  0  0  0  0  0  0  0  0  0  0
  140.1408   69.8007  222.2577 H   0  0  0  0  0  0  0  0  0  0  0  0
  137.6329   70.1800  223.9646 H   0  0  0  0  0  0  0  0  0  0  0  0
  138.2735   68.6458  223.2538 H   0  0  0  0  0  0  0  0  0  0  0  0
  138.3158   67.5560  225.4358 H   0  0  0  0  0  0  0  0  0  0  0  0
  139.5964   67.1948  227.5456 H   0  0  0  0  0  0  0  0  0  0  0  0
  141.3408   68.8359  228.2476 H   0  0  0  0  0  0  0  0  0  0  0  0
  141.8238   70.8315  226.8340 H   0  0  0  0  0  0  0  0  0  0  0  0
  140.5740   72.4267  225.0763 H   0  0  0  0  0  0  0  0  0  0  0  0
  141.7505   71.3952  224.1423 H   0  0  0  0  0  0  0  0  0  0  0  0
  141.1013   80.6774  220.7519 H   0  0  0  0  0  0  0  0  0  0  0  0
  1  2  2  0
  2  3  1  0
  3  4  2  0
  4  5  1  0
  5  6  1  0
  6  7  1  0
  7  8  1  0
  8  9  1  0
  9 10  1  0
 10 11  2  0
 11 12  1  0
 12 13  1  0
 13 14  1  0
 14 15  1  0
 15 16  1  0
 16 17  1  0
 17 18  1  0
 12 19  2  0
 19 20  1  0
 20 21  1  0
 21 22  1  0
 22 23  1  0
 23 24  1  0
 24 25  2  0
 25 26  1  0
 26 27  2  0
 27 28  1  0
 28 29  2  0
 29 30  1  0
 20 31  2  0
  5 32  2  0
 32  1  1  0
 31 10  1  0
 18 13  1  0
 30 21  1  0
 29 24  1  0
  1 33  1  0
  2 34  1  0
  4 35  1  0
  6 36  1  0
  6 37  1  0
  7 38  1  0
  7 39  1  0
  8 40  1  0
  8 41  1  0
  9 42  1  0
 14 43  1  0
 14 44  1  0
 15 45  1  0
 15 46  1  0
 16 47  1  0
 16 48  1  0
 17 49  1  0
 17 50  1  0
 18 51  1  0
 18 52  1  0
 22 53  1  0
 22 54  1  0
 23 55  1  0
 23 56  1  0
 25 57  1  0
 26 58  1  0
 27 59  1  0
 28 60  1  0
 30 61  1  0
 30 62  1  0
 32 63  1  0
M  CHG  1  16   1
M  END
>  <UniqueID>  (42) 
627

>  <SMILES>  (42) 
c1cncc(CCCNc2nc(N3CC[NH2+]CC3)nc(N3CCc4ccccc4C3)n2)c1

>  <Energy>  (42) 
68.37971912434385

>  <Genealogy>  (42) 
c1cncc(CCCNc2nc(N3CC[NH2+]CC3)nc(N3CCc4ccccc4C3)n2)c1 (protonated)
c1cncc(CCCNc2nc(N3CC[NH2+]CC3)nc(N3CCc4ccccc4C3)n2)c1 (3D coordinates assigned)
c1cncc(CCCNc2nc(N3CC[NH2+]CC3)nc(N3CCc4ccccc4C3)n2)c1 (nonaromatic ring conformer: 68.37971912434385 kcal/mol)

>  <smiles>  (42) 
c1cncc(CCCNc2nc(N3CCNCC3)nc(N3CCc4ccccc4C3)n2)c1

>  <score_type>  (42) 
oracle

>  <origin>  (42) 
autodockgpu

>  <m_score__min__energy>  (42) 
-9.4199999999999999

>  <m_primary>  (42) 
energy

>  <meeko>  (42) 
{"free_energy": -8.14, "intermolecular_energy": -10.23, "internal_energy": -1.3, "cluster_size": 10, "cluster_id": 2, "rank_in_cluster": 6}

>  <energy>  (42) 
-9.29

>  <cluster_rmsd>  (42) 
0.32

>  <rmsd>  (42) 
271.15

>  <cluster>  (42) 
1

$$$$
JSIQCYHYJBEBBC-RBVFQDFSNA-O
     RDKit          3D

 63 67  0  0  0  0  0  0  0  0999 V2000
  144.5210   74.1230  220.5980 C   0  0  0  0  0  0  0  0  0  0  0  0
  145.8600   73.7480  220.4730 C   0  0  0  0  0  0  0  0  0  0  0  0
  146.1900   72.6220  219.7850 N   0  0  0  0  0  0  0  0  0  0  0  0
  145.2440   71.8340  219.2050 C   0  0  0  0  0  0  0  0  0  0  0  0
  143.8830   72.1660  219.3110 C   0  0  0  0  0  0  0  0  0  0  0  0
  142.8270   71.2690  218.7150 C   0  0  0  0  0  0  0  0  0  0  0  0
  141.6990   72.0510  218.0160 C   0  0  0  0  0  0  0  0  0  0  0  0
  140.4520   71.2020  217.7050 C   0  0  0  0  0  0  0  0  0  0  0  0
  139.3990   71.3840  218.7040 N   0  0  0  0  0  0  0  0  0  0  0  0
  139.6020   72.0830  219.9380 C   0  0  0  0  0  0  0  0  0  0  0  0
  139.7580   73.4320  219.9500 N   0  0  0  0  0  0  0  0  0  0  0  0
  139.9780   74.0930  221.1150 C   0  0  0  0  0  0  0  0  0  0  0  0
  140.1930   75.5170  221.1110 N   0  0  0  0  0  0  0  0  0  0  0  0
  139.9660   76.3110  222.3260 C   0  0  0  0  0  0  0  0  0  0  0  0
  141.0580   77.3880  222.5190 C   0  0  0  0  0  0  0  0  0  0  0  0
  141.8290   77.6730  221.2940 N   0  0  0  0  0  0  0  0  0  0  0  0
  140.9840   77.6310  220.0950 C   0  0  0  0  0  0  0  0  0  0  0  0
  140.5030   76.1980  219.8470 C   0  0  0  0  0  0  0  0  0  0  0  0
  140.0270   73.3910  222.2770 N   0  0  0  0  0  0  0  0  0  0  0  0
  139.8700   72.0420  222.2790 C   0  0  0  0  0  0  0  0  0  0  0  0
  139.9260   71.3100  223.5140 N   0  0  0  0  0  0  0  0  0  0  0  0
  139.5440   69.8920  223.5360 C   0  0  0  0  0  0  0  0  0  0  0  0
  138.7930   69.5770  224.8250 C   0  0  0  0  0  0  0  0  0  0  0  0
  139.5630   70.0470  226.0280 C   0  0  0  0  0  0  0  0  0  0  0  0
  139.3630   69.4150  227.2660 C   0  0  0  0  0  0  0  0  0  0  0  0
  140.0180   69.8800  228.4090 C   0  0  0  0  0  0  0  0  0  0  0  0
  140.8650   70.9890  228.3300 C   0  0  0  0  0  0  0  0  0  0  0  0
  141.0630   71.6330  227.1060 C   0  0  0  0  0  0  0  0  0  0  0  0
  140.4190   71.1710  225.9470 C   0  0  0  0  0  0  0  0  0  0  0  0
  140.6910   71.8750  224.6370 C   0  0  0  0  0  0  0  0  0  0  0  0
  139.6600   71.3920  221.1040 N   0  0  0  0  0  0  0  0  0  0  0  0
  143.5290   73.3370  220.0050 C   0  0  0  0  0  0  0  0  0  0  0  0
  144.2490   75.0295  221.1585 H   0  0  0  0  0  0  0  0  0  0  0  0
  146.6484   74.3633  220.9311 H   0  0  0  0  0  0  0  0  0  0  0  0
  145.5464   70.9332  218.6508 H   0  0  0  0  0  0  0  0  0  0  0  0
  143.3045   70.6074  217.9772 H   0  0  0  0  0  0  0  0  0  0  0  0
  142.3722   70.7019  219.5406 H   0  0  0  0  0  0  0  0  0  0  0  0
  141.3976   72.8829  218.6695 H   0  0  0  0  0  0  0  0  0  0  0  0
  142.0995   72.3960  217.0514 H   0  0  0  0  0  0  0  0  0  0  0  0
  140.0604   71.4947  216.7196 H   0  0  0  0  0  0  0  0  0  0  0  0
  140.7512   70.1436  217.7174 H   0  0  0  0  0  0  0  0  0  0  0  0
  138.4300   71.0650  218.4660 H   0  0  0  0  0  0  0  0  0  0  0  0
  138.9867   76.8062  222.2502 H   0  0  0  0  0  0  0  0  0  0  0  0
  139.9989   75.6313  223.1903 H   0  0  0  0  0  0  0  0  0  0  0  0
  140.5739   78.3188  222.8497 H   0  0  0  0  0  0  0  0  0  0  0  0
  141.7677   76.9982  223.2636 H   0  0  0  0  0  0  0  0  0  0  0  0
  142.6060   76.9770  221.1970 H   0  0  0  0  0  0  0  0  0  0  0  0
  142.2600   78.6230  221.3740 H   0  0  0  0  0  0  0  0  0  0  0  0
  140.1137   78.2882  220.2387 H   0  0  0  0  0  0  0  0  0  0  0  0
  141.5682   77.9725  219.2277 H   0  0  0  0  0  0  0  0  0  0  0  0
  139.5977   76.2261  219.2228 H   0  0  0  0  0  0  0  0  0  0  0  0
  141.3060   75.6433  219.3396 H   0  0  0  0  0  0  0  0  0  0  0  0
  138.8959   69.6754  222.6740 H   0  0  0  0  0  0  0  0  0  0  0  0
  140.4510   69.2717  223.4843 H   0  0  0  0  0  0  0  0  0  0  0  0
  137.8158   70.0817  224.8041 H   0  0  0  0  0  0  0  0  0  0  0  0
  138.6634   68.4870  224.8967 H   0  0  0  0  0  0  0  0  0  0  0  0
  138.6874   68.5497  227.3361 H   0  0  0  0  0  0  0  0  0  0  0  0
  139.8668   69.3723  229.3731 H   0  0  0  0  0  0  0  0  0  0  0  0
  141.3763   71.3552  229.2325 H   0  0  0  0  0  0  0  0  0  0  0  0
  141.7277   72.5076  227.0500 H   0  0  0  0  0  0  0  0  0  0  0  0
  140.4222   72.9360  224.7463 H   0  0  0  0  0  0  0  0  0  0  0  0
  141.7589   71.7449  224.4077 H   0  0  0  0  0  0  0  0  0  0  0  0
  142.4726   73.6339  220.0810 H   0  0  0  0  0  0  0  0  0  0  0  0
  1  2  2  0
  2  3  1  0
  3  4  2  0
  4  5  1  0
  5  6  1  0
  6  7  1  0
  7  8  1  0
  8  9  1  0
  9 10  1  0
 10 11  2  0
 11 12  1  0
 12 13  1  0
 13 14  1  0
 14 15  1  0
 15 16  1  0
 16 17  1  0
 17 18  1  0
 12 19  2  0
 19 20  1  0
 20 21  1  0
 21 22  1  0
 22 23  1  0
 23 24  1  0
 24 25  2  0
 25 26  1  0
 26 27  2  0
 27 28  1  0
 28 29  2  0
 29 30  1  0
 20 31  2  0
  5 32  2  0
 32  1  1  0
 31 10  1  0
 18 13  1  0
 30 21  1  0
 29 24  1  0
  1 33  1  0
  2 34  1  0
  4 35  1  0
  6 36  1  0
  6 37  1  0
  7 38  1  0
  7 39  1  0
  8 40  1  0
  8 41  1  0
  9 42  1  0
 14 43  1  0
 14 44  1  0
 15 45  1  0
 15 46  1  0
 16 47  1  0
 16 48  1  0
 17 49  1  0
 17 50  1  0
 18 51  1  0
 18 52  1  0
 22 53  1  0
 22 54  1  0
 23 55  1  0
 23 56  1  0
 25 57  1  0
 26 58  1  0
 27 59  1  0
 28 60  1  0
 30 61  1  0
 30 62  1  0
 32 63  1  0
M  CHG  1  16   1
M  END
>  <UniqueID>  (43) 
627

>  <SMILES>  (43) 
c1cncc(CCCNc2nc(N3CC[NH2+]CC3)nc(N3CCc4ccccc4C3)n2)c1

>  <Energy>  (43) 
68.37971912434385

>  <Genealogy>  (43) 
c1cncc(CCCNc2nc(N3CC[NH2+]CC3)nc(N3CCc4ccccc4C3)n2)c1 (protonated)
c1cncc(CCCNc2nc(N3CC[NH2+]CC3)nc(N3CCc4ccccc4C3)n2)c1 (3D coordinates assigned)
c1cncc(CCCNc2nc(N3CC[NH2+]CC3)nc(N3CCc4ccccc4C3)n2)c1 (nonaromatic ring conformer: 68.37971912434385 kcal/mol)

>  <smiles>  (43) 
c1cncc(CCCNc2nc(N3CCNCC3)nc(N3CCc4ccccc4C3)n2)c1

>  <score_type>  (43) 
oracle

>  <origin>  (43) 
autodockgpu

>  <m_score__min__energy>  (43) 
-9.4199999999999999

>  <m_primary>  (43) 
energy

>  <meeko>  (43) 
{"free_energy": -8.12, "intermolecular_energy": -10.21, "internal_energy": -1.42, "cluster_size": 3, "cluster_id": 4, "rank_in_cluster": 2}

>  <energy>  (43) 
-9.22

>  <cluster_rmsd>  (43) 
0.79

>  <rmsd>  (43) 
271.09

>  <cluster>  (43) 
1

$$$$
JSIQCYHYJBEBBC-RBVFQDFSNA-O
     RDKit          3D

 63 67  0  0  0  0  0  0  0  0999 V2000
  140.4520   80.8730  223.6810 C   0  0  0  0  0  0  0  0  0  0  0  0
  141.8110   80.9660  223.3710 C   0  0  0  0  0  0  0  0  0  0  0  0
  142.4600   79.9000  222.8320 N   0  0  0  0  0  0  0  0  0  0  0  0
  141.8210   78.7240  222.5800 C   0  0  0  0  0  0  0  0  0  0  0  0
  140.4570   78.5800  222.8840 C   0  0  0  0  0  0  0  0  0  0  0  0
  139.7570   77.2630  222.6560 C   0  0  0  0  0  0  0  0  0  0  0  0
  138.2270   77.4070  222.5540 C   0  0  0  0  0  0  0  0  0  0  0  0
  137.6200   76.7370  221.3070 C   0  0  0  0  0  0  0  0  0  0  0  0
  137.6650   75.2770  221.3900 N   0  0  0  0  0  0  0  0  0  0  0  0
  138.8760   74.5410  221.5940 C   0  0  0  0  0  0  0  0  0  0  0  0
  140.0400   74.9550  221.0290 N   0  0  0  0  0  0  0  0  0  0  0  0
  141.1830   74.2430  221.1990 C   0  0  0  0  0  0  0  0  0  0  0  0
  142.4000   74.6630  220.5540 N   0  0  0  0  0  0  0  0  0  0  0  0
  143.6440   73.9020  220.7370 C   0  0  0  0  0  0  0  0  0  0  0  0
  144.4390   73.7790  219.4160 C   0  0  0  0  0  0  0  0  0  0  0  0
  144.0310   74.7550  218.3880 N   0  0  0  0  0  0  0  0  0  0  0  0
  143.6980   76.0580  218.9750 C   0  0  0  0  0  0  0  0  0  0  0  0
  142.4300   75.9380  219.8260 C   0  0  0  0  0  0  0  0  0  0  0  0
  141.1570   73.1150  221.9550 N   0  0  0  0  0  0  0  0  0  0  0  0
  140.0000   72.6920  222.5280 C   0  0  0  0  0  0  0  0  0  0  0  0
  139.9840   71.4950  223.3240 N   0  0  0  0  0  0  0  0  0  0  0  0
  139.5660   70.2250  222.7150 C   0  0  0  0  0  0  0  0  0  0  0  0
  138.7510   69.4140  223.7170 C   0  0  0  0  0  0  0  0  0  0  0  0
  139.4780   69.2840  225.0270 C   0  0  0  0  0  0  0  0  0  0  0  0
  139.2080   68.1870  225.8600 C   0  0  0  0  0  0  0  0  0  0  0  0
  139.8220   68.0830  227.1110 C   0  0  0  0  0  0  0  0  0  0  0  0
  140.6980   69.0800  227.5470 C   0  0  0  0  0  0  0  0  0  0  0  0
  140.9660   70.1830  226.7320 C   0  0  0  0  0  0  0  0  0  0  0  0
  140.3630   70.2960  225.4690 C   0  0  0  0  0  0  0  0  0  0  0  0
  140.7110   71.4850  224.6030 C   0  0  0  0  0  0  0  0  0  0  0  0
  138.8600   73.4090  222.3420 N   0  0  0  0  0  0  0  0  0  0  0  0
  139.7700   79.6810  223.4250 C   0  0  0  0  0  0  0  0  0  0  0  0
  139.9236   81.7307  224.1227 H   0  0  0  0  0  0  0  0  0  0  0  0
  142.3560   81.9020  223.5631 H   0  0  0  0  0  0  0  0  0  0  0  0
  142.3751   77.8835  222.1367 H   0  0  0  0  0  0  0  0  0  0  0  0
  140.1314   76.8241  221.7194 H   0  0  0  0  0  0  0  0  0  0  0  0
  139.9710   76.6211  223.5233 H   0  0  0  0  0  0  0  0  0  0  0  0
  137.7756   76.9503  223.4471 H   0  0  0  0  0  0  0  0  0  0  0  0
  138.0116   78.4829  222.4758 H   0  0  0  0  0  0  0  0  0  0  0  0
  136.5714   77.0546  221.2087 H   0  0  0  0  0  0  0  0  0  0  0  0
  138.2138   77.0452  220.4339 H   0  0  0  0  0  0  0  0  0  0  0  0
  136.7580   74.7520  221.3870 H   0  0  0  0  0  0  0  0  0  0  0  0
  144.2691   74.4148  221.4828 H   0  0  0  0  0  0  0  0  0  0  0  0
  143.3797   72.8887  221.0738 H   0  0  0  0  0  0  0  0  0  0  0  0
  145.5058   73.9318  219.6366 H   0  0  0  0  0  0  0  0  0  0  0  0
  144.2351   72.7776  219.0089 H   0  0  0  0  0  0  0  0  0  0  0  0
  143.2030   74.3870  217.8620 H   0  0  0  0  0  0  0  0  0  0  0  0
  144.8140   74.8790  217.7040 H   0  0  0  0  0  0  0  0  0  0  0  0
  144.5314   76.3965  219.6081 H   0  0  0  0  0  0  0  0  0  0  0  0
  143.5249   76.7851  218.1679 H   0  0  0  0  0  0  0  0  0  0  0  0
  142.4037   76.7657  220.5500 H   0  0  0  0  0  0  0  0  0  0  0  0
  141.5564   75.9797  219.1588 H   0  0  0  0  0  0  0  0  0  0  0  0
  138.9513   70.4312  221.8264 H   0  0  0  0  0  0  0  0  0  0  0  0
  140.4582   69.6512  222.4241 H   0  0  0  0  0  0  0  0  0  0  0  0
  137.7884   69.9179  223.8888 H   0  0  0  0  0  0  0  0  0  0  0  0
  138.5919   68.4069  223.3042 H   0  0  0  0  0  0  0  0  0  0  0  0
  138.5096   67.4053  225.5264 H   0  0  0  0  0  0  0  0  0  0  0  0
  139.6152   67.2145  227.7536 H   0  0  0  0  0  0  0  0  0  0  0  0
  141.1776   68.9967  228.5334 H   0  0  0  0  0  0  0  0  0  0  0  0
  141.6534   70.9673  227.0819 H   0  0  0  0  0  0  0  0  0  0  0  0
  140.4643   72.4045  225.1540 H   0  0  0  0  0  0  0  0  0  0  0  0
  141.7845   71.4215  224.3716 H   0  0  0  0  0  0  0  0  0  0  0  0
  138.6954   79.6038  223.6467 H   0  0  0  0  0  0  0  0  0  0  0  0
  1  2  2  0
  2  3  1  0
  3  4  2  0
  4  5  1  0
  5  6  1  0
  6  7  1  0
  7  8  1  0
  8  9  1  0
  9 10  1  0
 10 11  2  0
 11 12  1  0
 12 13  1  0
 13 14  1  0
 14 15  1  0
 15 16  1  0
 16 17  1  0
 17 18  1  0
 12 19  2  0
 19 20  1  0
 20 21  1  0
 21 22  1  0
 22 23  1  0
 23 24  1  0
 24 25  2  0
 25 26  1  0
 26 27  2  0
 27 28  1  0
 28 29  2  0
 29 30  1  0
 20 31  2  0
  5 32  2  0
 32  1  1  0
 31 10  1  0
 18 13  1  0
 30 21  1  0
 29 24  1  0
  1 33  1  0
  2 34  1  0
  4 35  1  0
  6 36  1  0
  6 37  1  0
  7 38  1  0
  7 39  1  0
  8 40  1  0
  8 41  1  0
  9 42  1  0
 14 43  1  0
 14 44  1  0
 15 45  1  0
 15 46  1  0
 16 47  1  0
 16 48  1  0
 17 49  1  0
 17 50  1  0
 18 51  1  0
 18 52  1  0
 22 53  1  0
 22 54  1  0
 23 55  1  0
 23 56  1  0
 25 57  1  0
 26 58  1  0
 27 59  1  0
 28 60  1  0
 30 61  1  0
 30 62  1  0
 32 63  1  0
M  CHG  1  16   1
M  END
>  <UniqueID>  (44) 
627

>  <SMILES>  (44) 
c1cncc(CCCNc2nc(N3CC[NH2+]CC3)nc(N3CCc4ccccc4C3)n2)c1

>  <Energy>  (44) 
68.37971912434385

>  <Genealogy>  (44) 
c1cncc(CCCNc2nc(N3CC[NH2+]CC3)nc(N3CCc4ccccc4C3)n2)c1 (protonated)
c1cncc(CCCNc2nc(N3CC[NH2+]CC3)nc(N3CCc4ccccc4C3)n2)c1 (3D coordinates assigned)
c1cncc(CCCNc2nc(N3CC[NH2+]CC3)nc(N3CCc4ccccc4C3)n2)c1 (nonaromatic ring conformer: 68.37971912434385 kcal/mol)

>  <smiles>  (44) 
c1cncc(CCCNc2nc(N3CCNCC3)nc(N3CCc4ccccc4C3)n2)c1

>  <score_type>  (44) 
oracle

>  <origin>  (44) 
autodockgpu

>  <m_score__min__energy>  (44) 
-9.4199999999999999

>  <m_primary>  (44) 
energy

>  <meeko>  (44) 
{"free_energy": -8.35, "intermolecular_energy": -10.44, "internal_energy": -0.98, "cluster_size": 10, "cluster_id": 2, "rank_in_cluster": 4}

>  <energy>  (44) 
-9.18

>  <cluster_rmsd>  (44) 
0.83

>  <rmsd>  (44) 
270.98

>  <cluster>  (44) 
1

$$$$
JSIQCYHYJBEBBC-RBVFQDFSNA-O
     RDKit          3D

 63 67  0  0  0  0  0  0  0  0999 V2000
  141.8330   78.7170  223.1030 C   0  0  0  0  0  0  0  0  0  0  0  0
  141.6090   79.9830  223.6490 C   0  0  0  0  0  0  0  0  0  0  0  0
  140.3380   80.4310  223.8290 N   0  0  0  0  0  0  0  0  0  0  0  0
  139.2570   79.6760  223.4890 C   0  0  0  0  0  0  0  0  0  0  0  0
  139.4330   78.4000  222.9290 C   0  0  0  0  0  0  0  0  0  0  0  0
  138.2400   77.5810  222.5020 C   0  0  0  0  0  0  0  0  0  0  0  0
  138.1950   77.3320  220.9830 C   0  0  0  0  0  0  0  0  0  0  0  0
  137.1640   76.2700  220.5560 C   0  0  0  0  0  0  0  0  0  0  0  0
  137.3090   75.0260  221.3120 N   0  0  0  0  0  0  0  0  0  0  0  0
  138.5770   74.4150  221.5780 C   0  0  0  0  0  0  0  0  0  0  0  0
  139.7180   74.9350  221.0570 N   0  0  0  0  0  0  0  0  0  0  0  0
  140.9170   74.3410  221.2860 C   0  0  0  0  0  0  0  0  0  0  0  0
  142.1140   74.8720  220.6870 N   0  0  0  0  0  0  0  0  0  0  0  0
  143.3920   74.1570  220.8100 C   0  0  0  0  0  0  0  0  0  0  0  0
  144.1940   74.1860  219.4880 C   0  0  0  0  0  0  0  0  0  0  0  0
  143.7430   75.2290  218.5470 N   0  0  0  0  0  0  0  0  0  0  0  0
  143.3480   76.4580  219.2430 C   0  0  0  0  0  0  0  0  0  0  0  0
  142.0860   76.2060  220.0730 C   0  0  0  0  0  0  0  0  0  0  0  0
  140.9680   73.2240  222.0570 N   0  0  0  0  0  0  0  0  0  0  0  0
  139.8340   72.6950  222.5870 C   0  0  0  0  0  0  0  0  0  0  0  0
  139.9000   71.5110  223.3990 N   0  0  0  0  0  0  0  0  0  0  0  0
  139.5530   70.2100  222.8120 C   0  0  0  0  0  0  0  0  0  0  0  0
  138.8010   69.3650  223.8360 C   0  0  0  0  0  0  0  0  0  0  0  0
  139.5500   69.2980  225.1380 C   0  0  0  0  0  0  0  0  0  0  0  0
  139.3570   68.1980  225.9890 C   0  0  0  0  0  0  0  0  0  0  0  0
  139.9910   68.1490  227.2330 C   0  0  0  0  0  0  0  0  0  0  0  0
  140.8110   69.2040  227.6430 C   0  0  0  0  0  0  0  0  0  0  0  0
  141.0010   70.3090  226.8100 C   0  0  0  0  0  0  0  0  0  0  0  0
  140.3770   70.3670  225.5540 C   0  0  0  0  0  0  0  0  0  0  0  0
  140.6410   71.5640  224.6680 C   0  0  0  0  0  0  0  0  0  0  0  0
  138.6390   73.2950  222.3410 N   0  0  0  0  0  0  0  0  0  0  0  0
  140.7420   77.9180  222.7530 C   0  0  0  0  0  0  0  0  0  0  0  0
  142.8595   78.3524  222.9500 H   0  0  0  0  0  0  0  0  0  0  0  0
  142.4612   80.6177  223.9335 H   0  0  0  0  0  0  0  0  0  0  0  0
  138.2421   80.0669  223.6535 H   0  0  0  0  0  0  0  0  0  0  0  0
  138.2798   76.6091  223.0157 H   0  0  0  0  0  0  0  0  0  0  0  0
  137.3372   78.1496  222.7696 H   0  0  0  0  0  0  0  0  0  0  0  0
  137.9437   78.2794  220.4838 H   0  0  0  0  0  0  0  0  0  0  0  0
  139.1852   76.9517  220.6918 H   0  0  0  0  0  0  0  0  0  0  0  0
  136.1530   76.6702  220.7224 H   0  0  0  0  0  0  0  0  0  0  0  0
  137.3334   76.0419  219.4933 H   0  0  0  0  0  0  0  0  0  0  0  0
  136.4540   74.6120  221.7530 H   0  0  0  0  0  0  0  0  0  0  0  0
  143.9913   74.6318  221.6008 H   0  0  0  0  0  0  0  0  0  0  0  0
  143.1749   73.1071  221.0560 H   0  0  0  0  0  0  0  0  0  0  0  0
  145.2523   74.3672  219.7271 H   0  0  0  0  0  0  0  0  0  0  0  0
  144.0372   73.2158  218.9939 H   0  0  0  0  0  0  0  0  0  0  0  0
  142.9330   74.8700  217.9870 H   0  0  0  0  0  0  0  0  0  0  0  0
  144.5200   75.4470  217.8810 H   0  0  0  0  0  0  0  0  0  0  0  0
  144.1636   76.7785  219.9079 H   0  0  0  0  0  0  0  0  0  0  0  0
  143.1419   77.2434  218.5010 H   0  0  0  0  0  0  0  0  0  0  0  0
  142.0203   76.9652  220.8663 H   0  0  0  0  0  0  0  0  0  0  0  0
  141.2125   76.2656  219.4071 H   0  0  0  0  0  0  0  0  0  0  0  0
  138.9160   70.3661  221.9289 H   0  0  0  0  0  0  0  0  0  0  0  0
  140.4747   69.6874  222.5165 H   0  0  0  0  0  0  0  0  0  0  0  0
  137.8116   69.8119  224.0134 H   0  0  0  0  0  0  0  0  0  0  0  0
  138.6989   68.3442  223.4390 H   0  0  0  0  0  0  0  0  0  0  0  0
  138.7035   67.3709  225.6747 H   0  0  0  0  0  0  0  0  0  0  0  0
  139.8447   67.2793  227.8904 H   0  0  0  0  0  0  0  0  0  0  0  0
  141.3077   69.1640  228.6237 H   0  0  0  0  0  0  0  0  0  0  0  0
  141.6434   71.1386  227.1402 H   0  0  0  0  0  0  0  0  0  0  0  0
  140.3443   72.4741  225.2100 H   0  0  0  0  0  0  0  0  0  0  0  0
  141.7137   71.5641  224.4242 H   0  0  0  0  0  0  0  0  0  0  0  0
  140.9069   76.9120  222.3398 H   0  0  0  0  0  0  0  0  0  0  0  0
  1  2  2  0
  2  3  1  0
  3  4  2  0
  4  5  1  0
  5  6  1  0
  6  7  1  0
  7  8  1  0
  8  9  1  0
  9 10  1  0
 10 11  2  0
 11 12  1  0
 12 13  1  0
 13 14  1  0
 14 15  1  0
 15 16  1  0
 16 17  1  0
 17 18  1  0
 12 19  2  0
 19 20  1  0
 20 21  1  0
 21 22  1  0
 22 23  1  0
 23 24  1  0
 24 25  2  0
 25 26  1  0
 26 27  2  0
 27 28  1  0
 28 29  2  0
 29 30  1  0
 20 31  2  0
  5 32  2  0
 32  1  1  0
 31 10  1  0
 18 13  1  0
 30 21  1  0
 29 24  1  0
  1 33  1  0
  2 34  1  0
  4 35  1  0
  6 36  1  0
  6 37  1  0
  7 38  1  0
  7 39  1  0
  8 40  1  0
  8 41  1  0
  9 42  1  0
 14 43  1  0
 14 44  1  0
 15 45  1  0
 15 46  1  0
 16 47  1  0
 16 48  1  0
 17 49  1  0
 17 50  1  0
 18 51  1  0
 18 52  1  0
 22 53  1  0
 22 54  1  0
 23 55  1  0
 23 56  1  0
 25 57  1  0
 26 58  1  0
 27 59  1  0
 28 60  1  0
 30 61  1  0
 30 62  1  0
 32 63  1  0
M  CHG  1  16   1
M  END
>  <UniqueID>  (45) 
627

>  <SMILES>  (45) 
c1cncc(CCCNc2nc(N3CC[NH2+]CC3)nc(N3CCc4ccccc4C3)n2)c1

>  <Energy>  (45) 
68.37971912434385

>  <Genealogy>  (45) 
c1cncc(CCCNc2nc(N3CC[NH2+]CC3)nc(N3CCc4ccccc4C3)n2)c1 (protonated)
c1cncc(CCCNc2nc(N3CC[NH2+]CC3)nc(N3CCc4ccccc4C3)n2)c1 (3D coordinates assigned)
c1cncc(CCCNc2nc(N3CC[NH2+]CC3)nc(N3CCc4ccccc4C3)n2)c1 (nonaromatic ring conformer: 68.37971912434385 kcal/mol)

>  <smiles>  (45) 
c1cncc(CCCNc2nc(N3CCNCC3)nc(N3CCc4ccccc4C3)n2)c1

>  <score_type>  (45) 
oracle

>  <origin>  (45) 
autodockgpu

>  <m_score__min__energy>  (45) 
-9.4199999999999999

>  <m_primary>  (45) 
energy

>  <meeko>  (45) 
{"free_energy": -8.24, "intermolecular_energy": -10.33, "internal_energy": -1.21, "cluster_size": 10, "cluster_id": 2, "rank_in_cluster": 5}

>  <energy>  (45) 
-8.39

>  <cluster_rmsd>  (45) 
0.0

>  <rmsd>  (45) 
270.3

>  <cluster>  (45) 
2

$$$$
JSIQCYHYJBEBBC-RBVFQDFSNA-O
     RDKit          3D

 63 67  0  0  0  0  0  0  0  0999 V2000
  140.4640   68.5350  227.2890 C   0  0  0  0  0  0  0  0  0  0  0  0
  140.7240   69.4220  228.3360 C   0  0  0  0  0  0  0  0  0  0  0  0
  140.8410   70.7540  228.0850 N   0  0  0  0  0  0  0  0  0  0  0  0
  140.7100   71.2600  226.8280 C   0  0  0  0  0  0  0  0  0  0  0  0
  140.4560   70.4060  225.7430 C   0  0  0  0  0  0  0  0  0  0  0  0
  140.3630   70.9560  224.3410 C   0  0  0  0  0  0  0  0  0  0  0  0
  139.2120   70.3350  223.5280 C   0  0  0  0  0  0  0  0  0  0  0  0
  138.8030   71.1630  222.2960 C   0  0  0  0  0  0  0  0  0  0  0  0
  138.7370   72.5940  222.5910 N   0  0  0  0  0  0  0  0  0  0  0  0
  139.7280   73.5310  222.1520 C   0  0  0  0  0  0  0  0  0  0  0  0
  140.8770   73.0990  221.5710 N   0  0  0  0  0  0  0  0  0  0  0  0
  141.8290   73.9840  221.1800 C   0  0  0  0  0  0  0  0  0  0  0  0
  143.0650   73.5130  220.6110 N   0  0  0  0  0  0  0  0  0  0  0  0
  144.2070   74.4230  220.4440 C   0  0  0  0  0  0  0  0  0  0  0  0
  145.5440   73.7390  220.8110 C   0  0  0  0  0  0  0  0  0  0  0  0
  145.4640   72.2660  220.8430 N   0  0  0  0  0  0  0  0  0  0  0  0
  144.5890   71.7440  219.7870 C   0  0  0  0  0  0  0  0  0  0  0  0
  143.1380   72.1510  220.0640 C   0  0  0  0  0  0  0  0  0  0  0  0
  141.6150   75.3130  221.3610 N   0  0  0  0  0  0  0  0  0  0  0  0
  140.4690   75.7580  221.9380 C   0  0  0  0  0  0  0  0  0  0  0  0
  140.2550   77.1660  222.1280 N   0  0  0  0  0  0  0  0  0  0  0  0
  138.9410   77.6470  222.5760 C   0  0  0  0  0  0  0  0  0  0  0  0
  138.6000   78.9550  221.8700 C   0  0  0  0  0  0  0  0  0  0  0  0
  139.7210   79.9490  222.0010 C   0  0  0  0  0  0  0  0  0  0  0  0
  139.4380   81.3220  221.9270 C   0  0  0  0  0  0  0  0  0  0  0  0
  140.4720   82.2600  221.9790 C   0  0  0  0  0  0  0  0  0  0  0  0
  141.7980   81.8340  222.0900 C   0  0  0  0  0  0  0  0  0  0  0  0
  142.0940   80.4700  222.1530 C   0  0  0  0  0  0  0  0  0  0  0  0
  141.0640   79.5170  222.1100 C   0  0  0  0  0  0  0  0  0  0  0  0
  141.4250   78.0530  222.2200 C   0  0  0  0  0  0  0  0  0  0  0  0
  139.5280   74.8600  222.3350 N   0  0  0  0  0  0  0  0  0  0  0  0
  140.3170   69.0290  225.9900 C   0  0  0  0  0  0  0  0  0  0  0  0
  140.3757   67.4563  227.4852 H   0  0  0  0  0  0  0  0  0  0  0  0
  140.8341   69.0438  229.3631 H   0  0  0  0  0  0  0  0  0  0  0  0
  140.8036   72.3433  226.6616 H   0  0  0  0  0  0  0  0  0  0  0  0
  140.2041   72.0429  224.4003 H   0  0  0  0  0  0  0  0  0  0  0  0
  141.3025   70.7067  223.8260 H   0  0  0  0  0  0  0  0  0  0  0  0
  139.5273   69.3380  223.1865 H   0  0  0  0  0  0  0  0  0  0  0  0
  138.3360   70.2955  224.1922 H   0  0  0  0  0  0  0  0  0  0  0  0
  139.5418   70.9993  221.4976 H   0  0  0  0  0  0  0  0  0  0  0  0
  137.8000   70.8349  221.9856 H   0  0  0  0  0  0  0  0  0  0  0  0
  137.8810   72.9630  223.0700 H   0  0  0  0  0  0  0  0  0  0  0  0
  144.2508   74.7507  219.3949 H   0  0  0  0  0  0  0  0  0  0  0  0
  144.0639   75.2791  221.1197 H   0  0  0  0  0  0  0  0  0  0  0  0
  146.2996   74.0303  220.0665 H   0  0  0  0  0  0  0  0  0  0  0  0
  145.8080   74.0701  221.8262 H   0  0  0  0  0  0  0  0  0  0  0  0
  145.1080   71.9530  221.7780 H   0  0  0  0  0  0  0  0  0  0  0  0
  146.4240   71.8680  220.7180 H   0  0  0  0  0  0  0  0  0  0  0  0
  144.9040   72.1543  218.8162 H   0  0  0  0  0  0  0  0  0  0  0  0
  144.6600   70.6465  219.7672 H   0  0  0  0  0  0  0  0  0  0  0  0
  142.5680   72.1105  219.1241 H   0  0  0  0  0  0  0  0  0  0  0  0
  142.7153   71.4548  220.8033 H   0  0  0  0  0  0  0  0  0  0  0  0
  138.1759   76.8935  222.3378 H   0  0  0  0  0  0  0  0  0  0  0  0
  138.9684   77.8177  223.6623 H   0  0  0  0  0  0  0  0  0  0  0  0
  138.4226   78.7520  220.8035 H   0  0  0  0  0  0  0  0  0  0  0  0
  137.6996   79.3801  222.3376 H   0  0  0  0  0  0  0  0  0  0  0  0
  138.3963   81.6612  221.8275 H   0  0  0  0  0  0  0  0  0  0  0  0
  140.2420   83.3347  221.9325 H   0  0  0  0  0  0  0  0  0  0  0  0
  142.6108   82.5742  222.1279 H   0  0  0  0  0  0  0  0  0  0  0  0
  143.1403   80.1409  222.2368 H   0  0  0  0  0  0  0  0  0  0  0  0
  142.1211   77.8011  221.4064 H   0  0  0  0  0  0  0  0  0  0  0  0
  141.8790   77.8986  223.2100 H   0  0  0  0  0  0  0  0  0  0  0  0
  140.0927   68.3410  225.1615 H   0  0  0  0  0  0  0  0  0  0  0  0
  1  2  2  0
  2  3  1  0
  3  4  2  0
  4  5  1  0
  5  6  1  0
  6  7  1  0
  7  8  1  0
  8  9  1  0
  9 10  1  0
 10 11  2  0
 11 12  1  0
 12 13  1  0
 13 14  1  0
 14 15  1  0
 15 16  1  0
 16 17  1  0
 17 18  1  0
 12 19  2  0
 19 20  1  0
 20 21  1  0
 21 22  1  0
 22 23  1  0
 23 24  1  0
 24 25  2  0
 25 26  1  0
 26 27  2  0
 27 28  1  0
 28 29  2  0
 29 30  1  0
 20 31  2  0
  5 32  2  0
 32  1  1  0
 31 10  1  0
 18 13  1  0
 30 21  1  0
 29 24  1  0
  1 33  1  0
  2 34  1  0
  4 35  1  0
  6 36  1  0
  6 37  1  0
  7 38  1  0
  7 39  1  0
  8 40  1  0
  8 41  1  0
  9 42  1  0
 14 43  1  0
 14 44  1  0
 15 45  1  0
 15 46  1  0
 16 47  1  0
 16 48  1  0
 17 49  1  0
 17 50  1  0
 18 51  1  0
 18 52  1  0
 22 53  1  0
 22 54  1  0
 23 55  1  0
 23 56  1  0
 25 57  1  0
 26 58  1  0
 27 59  1  0
 28 60  1  0
 30 61  1  0
 30 62  1  0
 32 63  1  0
M  CHG  1  16   1
M  END
>  <UniqueID>  (46) 
627

>  <SMILES>  (46) 
c1cncc(CCCNc2nc(N3CC[NH2+]CC3)nc(N3CCc4ccccc4C3)n2)c1

>  <Energy>  (46) 
68.37971912434385

>  <Genealogy>  (46) 
c1cncc(CCCNc2nc(N3CC[NH2+]CC3)nc(N3CCc4ccccc4C3)n2)c1 (protonated)
c1cncc(CCCNc2nc(N3CC[NH2+]CC3)nc(N3CCc4ccccc4C3)n2)c1 (3D coordinates assigned)
c1cncc(CCCNc2nc(N3CC[NH2+]CC3)nc(N3CCc4ccccc4C3)n2)c1 (nonaromatic ring conformer: 68.37971912434385 kcal/mol)

>  <smiles>  (46) 
c1cncc(CCCNc2nc(N3CCNCC3)nc(N3CCc4ccccc4C3)n2)c1

>  <score_type>  (46) 
oracle

>  <origin>  (46) 
autodockgpu

>  <m_score__min__energy>  (46) 
-9.4199999999999999

>  <m_primary>  (46) 
energy

>  <meeko>  (46) 
{"free_energy": -9.18, "intermolecular_energy": -11.27, "internal_energy": -0.88, "cluster_size": 4, "cluster_id": 1, "rank_in_cluster": 4}

>  <energy>  (46) 
-8.38

>  <cluster_rmsd>  (46) 
0.22

>  <rmsd>  (46) 
270.26

>  <cluster>  (46) 
2

$$$$
JSIQCYHYJBEBBC-RBVFQDFSNA-O
     RDKit          3D

 63 67  0  0  0  0  0  0  0  0999 V2000
  141.3110   72.2840  227.2010 C   0  0  0  0  0  0  0  0  0  0  0  0
  140.8680   71.6000  228.3350 C   0  0  0  0  0  0  0  0  0  0  0  0
  140.1790   70.4350  228.2000 N   0  0  0  0  0  0  0  0  0  0  0  0
  139.9030   69.9040  226.9780 C   0  0  0  0  0  0  0  0  0  0  0  0
  140.3210   70.5600  225.8090 C   0  0  0  0  0  0  0  0  0  0  0  0
  139.9720   70.0030  224.4510 C   0  0  0  0  0  0  0  0  0  0  0  0
  138.5860   70.4550  223.9550 C   0  0  0  0  0  0  0  0  0  0  0  0
  138.6130   71.1530  222.5830 C   0  0  0  0  0  0  0  0  0  0  0  0
  138.5870   72.6110  222.7060 N   0  0  0  0  0  0  0  0  0  0  0  0
  139.6230   73.4580  222.1940 C   0  0  0  0  0  0  0  0  0  0  0  0
  140.6810   72.9300  221.5260 N   0  0  0  0  0  0  0  0  0  0  0  0
  141.6770   73.7280  221.0650 C   0  0  0  0  0  0  0  0  0  0  0  0
  142.8180   73.1530  220.4030 N   0  0  0  0  0  0  0  0  0  0  0  0
  143.8880   74.0110  219.8760 C   0  0  0  0  0  0  0  0  0  0  0  0
  145.2880   73.4110  220.1420 C   0  0  0  0  0  0  0  0  0  0  0  0
  145.2600   71.9730  220.4720 N   0  0  0  0  0  0  0  0  0  0  0  0
  144.2420   71.2550  219.6980 C   0  0  0  0  0  0  0  0  0  0  0  0
  142.8440   71.7100  220.1260 C   0  0  0  0  0  0  0  0  0  0  0  0
  141.5990   75.0700  221.2660 N   0  0  0  0  0  0  0  0  0  0  0  0
  140.5440   75.6110  221.9300 C   0  0  0  0  0  0  0  0  0  0  0  0
  140.4750   77.0310  222.1390 N   0  0  0  0  0  0  0  0  0  0  0  0
  139.2750   77.7680  221.7190 C   0  0  0  0  0  0  0  0  0  0  0  0
  139.6750   79.1260  221.1500 C   0  0  0  0  0  0  0  0  0  0  0  0
  140.5780   79.8650  222.0980 C   0  0  0  0  0  0  0  0  0  0  0  0
  140.6210   81.2680  222.0570 C   0  0  0  0  0  0  0  0  0  0  0  0
  141.5020   81.9710  222.8820 C   0  0  0  0  0  0  0  0  0  0  0  0
  142.3580   81.2800  223.7430 C   0  0  0  0  0  0  0  0  0  0  0  0
  142.3330   79.8840  223.7850 C   0  0  0  0  0  0  0  0  0  0  0  0
  141.4460   79.1640  222.9680 C   0  0  0  0  0  0  0  0  0  0  0  0
  141.4240   77.6560  223.0730 C   0  0  0  0  0  0  0  0  0  0  0  0
  139.5590   74.7980  222.3950 N   0  0  0  0  0  0  0  0  0  0  0  0
  141.0490   71.7560  225.9340 C   0  0  0  0  0  0  0  0  0  0  0  0
  141.8617   73.2306  227.3042 H   0  0  0  0  0  0  0  0  0  0  0  0
  141.0761   72.0032  229.3371 H   0  0  0  0  0  0  0  0  0  0  0  0
  139.3496   68.9561  226.9055 H   0  0  0  0  0  0  0  0  0  0  0  0
  140.7301   70.3395  223.7284 H   0  0  0  0  0  0  0  0  0  0  0  0
  139.9489   68.9069  224.5403 H   0  0  0  0  0  0  0  0  0  0  0  0
  137.9386   69.5688  223.8803 H   0  0  0  0  0  0  0  0  0  0  0  0
  138.2108   71.1912  224.6811 H   0  0  0  0  0  0  0  0  0  0  0  0
  139.5308   70.8581  222.0531 H   0  0  0  0  0  0  0  0  0  0  0  0
  137.7148   70.8440  222.0282 H   0  0  0  0  0  0  0  0  0  0  0  0
  137.7300   73.0590  223.1080 H   0  0  0  0  0  0  0  0  0  0  0  0
  143.7502   74.1261  218.7908 H   0  0  0  0  0  0  0  0  0  0  0  0
  143.8298   74.9833  220.3871 H   0  0  0  0  0  0  0  0  0  0  0  0
  145.9029   73.5493  219.2405 H   0  0  0  0  0  0  0  0  0  0  0  0
  145.7036   73.9350  221.0154 H   0  0  0  0  0  0  0  0  0  0  0  0
  145.0710   71.8510  221.4960 H   0  0  0  0  0  0  0  0  0  0  0  0
  146.2000   71.5580  220.2700 H   0  0  0  0  0  0  0  0  0  0  0  0
  144.3821   71.4655  218.6275 H   0  0  0  0  0  0  0  0  0  0  0  0
  144.3430   70.1751  219.8812 H   0  0  0  0  0  0  0  0  0  0  0  0
  142.1308   71.4864  219.3189 H   0  0  0  0  0  0  0  0  0  0  0  0
  142.5686   71.1731  221.0457 H   0  0  0  0  0  0  0  0  0  0  0  0
  138.7435   77.1912  220.9478 H   0  0  0  0  0  0  0  0  0  0  0  0
  138.6180   77.9178  222.5885 H   0  0  0  0  0  0  0  0  0  0  0  0
  140.2018   78.9749  220.1962 H   0  0  0  0  0  0  0  0  0  0  0  0
  138.7639   79.7233  220.9979 H   0  0  0  0  0  0  0  0  0  0  0  0
  139.9576   81.8161  221.3718 H   0  0  0  0  0  0  0  0  0  0  0  0
  141.5218   83.0705  222.8537 H   0  0  0  0  0  0  0  0  0  0  0  0
  143.0531   81.8363  224.3891 H   0  0  0  0  0  0  0  0  0  0  0  0
  143.0122   79.3453  224.4621 H   0  0  0  0  0  0  0  0  0  0  0  0
  142.4326   77.2743  222.8563 H   0  0  0  0  0  0  0  0  0  0  0  0
  141.1001   77.4008  224.0928 H   0  0  0  0  0  0  0  0  0  0  0  0
  141.4121   72.2759  225.0352 H   0  0  0  0  0  0  0  0  0  0  0  0
  1  2  2  0
  2  3  1  0
  3  4  2  0
  4  5  1  0
  5  6  1  0
  6  7  1  0
  7  8  1  0
  8  9  1  0
  9 10  1  0
 10 11  2  0
 11 12  1  0
 12 13  1  0
 13 14  1  0
 14 15  1  0
 15 16  1  0
 16 17  1  0
 17 18  1  0
 12 19  2  0
 19 20  1  0
 20 21  1  0
 21 22  1  0
 22 23  1  0
 23 24  1  0
 24 25  2  0
 25 26  1  0
 26 27  2  0
 27 28  1  0
 28 29  2  0
 29 30  1  0
 20 31  2  0
  5 32  2  0
 32  1  1  0
 31 10  1  0
 18 13  1  0
 30 21  1  0
 29 24  1  0
  1 33  1  0
  2 34  1  0
  4 35  1  0
  6 36  1  0
  6 37  1  0
  7 38  1  0
  7 39  1  0
  8 40  1  0
  8 41  1  0
  9 42  1  0
 14 43  1  0
 14 44  1  0
 15 45  1  0
 15 46  1  0
 16 47  1  0
 16 48  1  0
 17 49  1  0
 17 50  1  0
 18 51  1  0
 18 52  1  0
 22 53  1  0
 22 54  1  0
 23 55  1  0
 23 56  1  0
 25 57  1  0
 26 58  1  0
 27 59  1  0
 28 60  1  0
 30 61  1  0
 30 62  1  0
 32 63  1  0
M  CHG  1  16   1
M  END
>  <UniqueID>  (47) 
627

>  <SMILES>  (47) 
c1cncc(CCCNc2nc(N3CC[NH2+]CC3)nc(N3CCc4ccccc4C3)n2)c1

>  <Energy>  (47) 
68.37971912434385

>  <Genealogy>  (47) 
c1cncc(CCCNc2nc(N3CC[NH2+]CC3)nc(N3CCc4ccccc4C3)n2)c1 (protonated)
c1cncc(CCCNc2nc(N3CC[NH2+]CC3)nc(N3CCc4ccccc4C3)n2)c1 (3D coordinates assigned)
c1cncc(CCCNc2nc(N3CC[NH2+]CC3)nc(N3CCc4ccccc4C3)n2)c1 (nonaromatic ring conformer: 68.37971912434385 kcal/mol)

>  <smiles>  (47) 
c1cncc(CCCNc2nc(N3CCNCC3)nc(N3CCc4ccccc4C3)n2)c1

>  <score_type>  (47) 
oracle

>  <origin>  (47) 
autodockgpu

>  <m_score__min__energy>  (47) 
-9.4199999999999999

>  <m_primary>  (47) 
energy

>  <meeko>  (47) 
{"free_energy": -9.42, "intermolecular_energy": -11.51, "internal_energy": -0.95, "cluster_size": 4, "cluster_id": 1, "rank_in_cluster": 1}

>  <energy>  (47) 
-8.38

>  <cluster_rmsd>  (47) 
0.07

>  <rmsd>  (47) 
270.29

>  <cluster>  (47) 
2

$$$$
JSIQCYHYJBEBBC-RBVFQDFSNA-O
     RDKit          3D

 63 67  0  0  0  0  0  0  0  0999 V2000
  140.8410   79.3920  223.7070 C   0  0  0  0  0  0  0  0  0  0  0  0
  141.7910   78.6500  223.0010 C   0  0  0  0  0  0  0  0  0  0  0  0
  141.3890   77.7020  222.1120 N   0  0  0  0  0  0  0  0  0  0  0  0
  140.0720   77.4470  221.8830 C   0  0  0  0  0  0  0  0  0  0  0  0
  139.0810   78.1620  222.5760 C   0  0  0  0  0  0  0  0  0  0  0  0
  137.6200   77.8460  222.3650 C   0  0  0  0  0  0  0  0  0  0  0  0
  137.2300   76.4450  222.8690 C   0  0  0  0  0  0  0  0  0  0  0  0
  136.1960   75.7290  221.9790 C   0  0  0  0  0  0  0  0  0  0  0  0
  136.7780   74.5950  221.2610 N   0  0  0  0  0  0  0  0  0  0  0  0
  138.1100   74.1210  221.4940 C   0  0  0  0  0  0  0  0  0  0  0  0
  139.1660   74.6860  220.8540 N   0  0  0  0  0  0  0  0  0  0  0  0
  140.4250   74.2190  221.0530 C   0  0  0  0  0  0  0  0  0  0  0  0
  141.5320   74.7910  220.3310 N   0  0  0  0  0  0  0  0  0  0  0  0
  141.3050   75.5590  219.0990 C   0  0  0  0  0  0  0  0  0  0  0  0
  142.2090   76.8120  219.0300 C   0  0  0  0  0  0  0  0  0  0  0  0
  143.3570   76.7630  219.9550 N   0  0  0  0  0  0  0  0  0  0  0  0
  143.9130   75.4100  220.0630 C   0  0  0  0  0  0  0  0  0  0  0  0
  142.9060   74.4850  220.7520 C   0  0  0  0  0  0  0  0  0  0  0  0
  140.6230   73.1860  221.9130 N   0  0  0  0  0  0  0  0  0  0  0  0
  139.5750   72.6150  222.5620 C   0  0  0  0  0  0  0  0  0  0  0  0
  139.7950   71.5210  223.4670 N   0  0  0  0  0  0  0  0  0  0  0  0
  139.5980   70.1420  223.0010 C   0  0  0  0  0  0  0  0  0  0  0  0
  138.9690   69.3050  224.1100 C   0  0  0  0  0  0  0  0  0  0  0  0
  139.7420   69.4390  225.3930 C   0  0  0  0  0  0  0  0  0  0  0  0
  139.6960   68.4020  226.3380 C   0  0  0  0  0  0  0  0  0  0  0  0
  140.3520   68.5350  227.5650 C   0  0  0  0  0  0  0  0  0  0  0  0
  141.0450   69.7110  227.8640 C   0  0  0  0  0  0  0  0  0  0  0  0
  141.0880   70.7550  226.9370 C   0  0  0  0  0  0  0  0  0  0  0  0
  140.4410   70.6310  225.6970 C   0  0  0  0  0  0  0  0  0  0  0  0
  140.5460   71.7690  224.7080 C   0  0  0  0  0  0  0  0  0  0  0  0
  138.3180   73.0850  222.3460 N   0  0  0  0  0  0  0  0  0  0  0  0
  139.4820   79.1560  223.4850 C   0  0  0  0  0  0  0  0  0  0  0  0
  141.1603   80.1556  224.4316 H   0  0  0  0  0  0  0  0  0  0  0  0
  142.8635   78.8322  223.1638 H   0  0  0  0  0  0  0  0  0  0  0  0
  139.7822   76.6777  221.1521 H   0  0  0  0  0  0  0  0  0  0  0  0
  137.0183   78.5927  222.9039 H   0  0  0  0  0  0  0  0  0  0  0  0
  137.4305   77.8710  221.2817 H   0  0  0  0  0  0  0  0  0  0  0  0
  138.1386   75.8264  222.9113 H   0  0  0  0  0  0  0  0  0  0  0  0
  136.7646   76.5782  223.8568 H   0  0  0  0  0  0  0  0  0  0  0  0
  135.3750   75.3634  222.6132 H   0  0  0  0  0  0  0  0  0  0  0  0
  135.8334   76.4516  221.2332 H   0  0  0  0  0  0  0  0  0  0  0  0
  136.1630   74.0520  220.6100 H   0  0  0  0  0  0  0  0  0  0  0  0
  141.5210   74.9157  218.2332 H   0  0  0  0  0  0  0  0  0  0  0  0
  140.2567   75.8922  219.0914 H   0  0  0  0  0  0  0  0  0  0  0  0
  142.5931   76.9077  218.0037 H   0  0  0  0  0  0  0  0  0  0  0  0
  141.5914   77.6724  219.3273 H   0  0  0  0  0  0  0  0  0  0  0  0
  143.0590   77.0950  220.9030 H   0  0  0  0  0  0  0  0  0  0  0  0
  144.1020   77.4120  219.6090 H   0  0  0  0  0  0  0  0  0  0  0  0
  144.1325   75.0247  219.0564 H   0  0  0  0  0  0  0  0  0  0  0  0
  144.8375   75.4453  220.6580 H   0  0  0  0  0  0  0  0  0  0  0  0
  143.1382   73.4423  220.4897 H   0  0  0  0  0  0  0  0  0  0  0  0
  142.9800   74.6361  221.8391 H   0  0  0  0  0  0  0  0  0  0  0  0
  138.9337   70.1445  222.1243 H   0  0  0  0  0  0  0  0  0  0  0  0
  140.5717   69.7091  222.7280 H   0  0  0  0  0  0  0  0  0  0  0  0
  137.9362   69.6455  224.2754 H   0  0  0  0  0  0  0  0  0  0  0  0
  138.9829   68.2491  223.8020 H   0  0  0  0  0  0  0  0  0  0  0  0
  139.1407   67.4798  226.1116 H   0  0  0  0  0  0  0  0  0  0  0  0
  140.3227   67.7134  228.2958 H   0  0  0  0  0  0  0  0  0  0  0  0
  141.5578   69.8148  228.8316 H   0  0  0  0  0  0  0  0  0  0  0  0
  141.6319   71.6797  227.1798 H   0  0  0  0  0  0  0  0  0  0  0  0
  140.1525   72.6814  225.1799 H   0  0  0  0  0  0  0  0  0  0  0  0
  141.6068   71.8731  224.4364 H   0  0  0  0  0  0  0  0  0  0  0  0
  138.7260   79.7481  224.0216 H   0  0  0  0  0  0  0  0  0  0  0  0
  1  2  2  0
  2  3  1  0
  3  4  2  0
  4  5  1  0
  5  6  1  0
  6  7  1  0
  7  8  1  0
  8  9  1  0
  9 10  1  0
 10 11  2  0
 11 12  1  0
 12 13  1  0
 13 14  1  0
 14 15  1  0
 15 16  1  0
 16 17  1  0
 17 18  1  0
 12 19  2  0
 19 20  1  0
 20 21  1  0
 21 22  1  0
 22 23  1  0
 23 24  1  0
 24 25  2  0
 25 26  1  0
 26 27  2  0
 27 28  1  0
 28 29  2  0
 29 30  1  0
 20 31  2  0
  5 32  2  0
 32  1  1  0
 31 10  1  0
 18 13  1  0
 30 21  1  0
 29 24  1  0
  1 33  1  0
  2 34  1  0
  4 35  1  0
  6 36  1  0
  6 37  1  0
  7 38  1  0
  7 39  1  0
  8 40  1  0
  8 41  1  0
  9 42  1  0
 14 43  1  0
 14 44  1  0
 15 45  1  0
 15 46  1  0
 16 47  1  0
 16 48  1  0
 17 49  1  0
 17 50  1  0
 18 51  1  0
 18 52  1  0
 22 53  1  0
 22 54  1  0
 23 55  1  0
 23 56  1  0
 25 57  1  0
 26 58  1  0
 27 59  1  0
 28 60  1  0
 30 61  1  0
 30 62  1  0
 32 63  1  0
M  CHG  1  16   1
M  END
>  <UniqueID>  (48) 
627

>  <SMILES>  (48) 
c1cncc(CCCNc2nc(N3CC[NH2+]CC3)nc(N3CCc4ccccc4C3)n2)c1

>  <Energy>  (48) 
68.37971912434385

>  <Genealogy>  (48) 
c1cncc(CCCNc2nc(N3CC[NH2+]CC3)nc(N3CCc4ccccc4C3)n2)c1 (protonated)
c1cncc(CCCNc2nc(N3CC[NH2+]CC3)nc(N3CCc4ccccc4C3)n2)c1 (3D coordinates assigned)
c1cncc(CCCNc2nc(N3CC[NH2+]CC3)nc(N3CCc4ccccc4C3)n2)c1 (nonaromatic ring conformer: 68.37971912434385 kcal/mol)

>  <smiles>  (48) 
c1cncc(CCCNc2nc(N3CCNCC3)nc(N3CCc4ccccc4C3)n2)c1

>  <score_type>  (48) 
oracle

>  <origin>  (48) 
autodockgpu

>  <m_score__min__energy>  (48) 
-9.4199999999999999

>  <m_primary>  (48) 
energy

>  <meeko>  (48) 
{"free_energy": -8.38, "intermolecular_energy": -10.46, "internal_energy": -2.3, "cluster_size": 10, "cluster_id": 2, "rank_in_cluster": 3}

>  <energy>  (48) 
-8.35

>  <cluster_rmsd>  (48) 
1.43

>  <rmsd>  (48) 
270.41

>  <cluster>  (48) 
2

$$$$
JSIQCYHYJBEBBC-RBVFQDFSNA-O
     RDKit          3D

 63 67  0  0  0  0  0  0  0  0999 V2000
  145.7540   73.6600  221.2000 C   0  0  0  0  0  0  0  0  0  0  0  0
  146.6550   73.4010  220.1640 C   0  0  0  0  0  0  0  0  0  0  0  0
  146.1940   73.0210  218.9420 N   0  0  0  0  0  0  0  0  0  0  0  0
  144.8640   72.8820  218.6890 C   0  0  0  0  0  0  0  0  0  0  0  0
  143.9210   73.1230  219.7020 C   0  0  0  0  0  0  0  0  0  0  0  0
  142.4490   72.9190  219.4420 C   0  0  0  0  0  0  0  0  0  0  0  0
  141.7400   74.2020  218.9700 C   0  0  0  0  0  0  0  0  0  0  0  0
  142.0420   75.4370  219.8390 C   0  0  0  0  0  0  0  0  0  0  0  0
  141.5910   75.2620  221.2200 N   0  0  0  0  0  0  0  0  0  0  0  0
  140.4690   74.4470  221.5800 C   0  0  0  0  0  0  0  0  0  0  0  0
  139.2160   74.7800  221.1770 N   0  0  0  0  0  0  0  0  0  0  0  0
  138.1490   74.0240  221.5400 C   0  0  0  0  0  0  0  0  0  0  0  0
  136.8180   74.4130  221.1500 N   0  0  0  0  0  0  0  0  0  0  0  0
  135.8670   74.9270  222.1450 C   0  0  0  0  0  0  0  0  0  0  0  0
  135.0490   76.1170  221.5950 C   0  0  0  0  0  0  0  0  0  0  0  0
  135.0780   76.2240  220.1240 N   0  0  0  0  0  0  0  0  0  0  0  0
  135.0590   74.9060  219.4810 C   0  0  0  0  0  0  0  0  0  0  0  0
  136.3650   74.1620  219.7760 C   0  0  0  0  0  0  0  0  0  0  0  0
  138.3480   72.9170  222.3030 N   0  0  0  0  0  0  0  0  0  0  0  0
  139.5970   72.5720  222.7100 C   0  0  0  0  0  0  0  0  0  0  0  0
  139.7950   71.4000  223.5180 N   0  0  0  0  0  0  0  0  0  0  0  0
  139.5570   70.0710  222.9400 C   0  0  0  0  0  0  0  0  0  0  0  0
  138.9150   69.1610  223.9820 C   0  0  0  0  0  0  0  0  0  0  0  0
  139.7000   69.1670  225.2640 C   0  0  0  0  0  0  0  0  0  0  0  0
  139.6330   68.0550  226.1190 C   0  0  0  0  0  0  0  0  0  0  0  0
  140.3000   68.0680  227.3470 C   0  0  0  0  0  0  0  0  0  0  0  0
  141.0270   69.1960  227.7370 C   0  0  0  0  0  0  0  0  0  0  0  0
  141.0910   70.3130  226.9000 C   0  0  0  0  0  0  0  0  0  0  0  0
  140.4330   70.3100  225.6600 C   0  0  0  0  0  0  0  0  0  0  0  0
  140.5600   71.5240  224.7680 C   0  0  0  0  0  0  0  0  0  0  0  0
  140.6550   73.3430  222.3470 N   0  0  0  0  0  0  0  0  0  0  0  0
  144.3820   73.5330  220.9650 C   0  0  0  0  0  0  0  0  0  0  0  0
  146.1213   73.9613  222.1921 H   0  0  0  0  0  0  0  0  0  0  0  0
  147.7365   73.5043  220.3365 H   0  0  0  0  0  0  0  0  0  0  0  0
  144.5259   72.5796  217.6869 H   0  0  0  0  0  0  0  0  0  0  0  0
  142.3333   72.1483  218.6657 H   0  0  0  0  0  0  0  0  0  0  0  0
  141.9850   72.6161  220.3922 H   0  0  0  0  0  0  0  0  0  0  0  0
  142.0611   74.4163  217.9400 H   0  0  0  0  0  0  0  0  0  0  0  0
  140.6585   74.0154  219.0448 H   0  0  0  0  0  0  0  0  0  0  0  0
  143.1278   75.6130  219.8401 H   0  0  0  0  0  0  0  0  0  0  0  0
  141.4994   76.2930  219.4114 H   0  0  0  0  0  0  0  0  0  0  0  0
  142.1680   75.6830  221.9870 H   0  0  0  0  0  0  0  0  0  0  0  0
  135.1754   74.1195  222.4270 H   0  0  0  0  0  0  0  0  0  0  0  0
  136.4397   75.2788  223.0158 H   0  0  0  0  0  0  0  0  0  0  0  0
  134.0032   75.9973  221.9144 H   0  0  0  0  0  0  0  0  0  0  0  0
  135.5060   77.0345  221.9942 H   0  0  0  0  0  0  0  0  0  0  0  0
  135.9370   76.7450  219.8260 H   0  0  0  0  0  0  0  0  0  0  0  0
  134.2460   76.7730  219.8040 H   0  0  0  0  0  0  0  0  0  0  0  0
  134.2113   74.3228  219.8700 H   0  0  0  0  0  0  0  0  0  0  0  0
  134.9541   75.0355  218.3937 H   0  0  0  0  0  0  0  0  0  0  0  0
  136.2012   73.0824  219.6434 H   0  0  0  0  0  0  0  0  0  0  0  0
  137.1377   74.5241  219.0819 H   0  0  0  0  0  0  0  0  0  0  0  0
  138.8856   70.1646  222.0737 H   0  0  0  0  0  0  0  0  0  0  0  0
  140.5161   69.6371  222.6209 H   0  0  0  0  0  0  0  0  0  0  0  0
  137.8928   69.5129  224.1851 H   0  0  0  0  0  0  0  0  0  0  0  0
  138.8995   68.1345  223.5869 H   0  0  0  0  0  0  0  0  0  0  0  0
  139.0527   67.1694  225.8207 H   0  0  0  0  0  0  0  0  0  0  0  0
  140.2527   67.1895  228.0073 H   0  0  0  0  0  0  0  0  0  0  0  0
  141.5498   69.2045  228.7048 H   0  0  0  0  0  0  0  0  0  0  0  0
  141.6604   71.2000  227.2146 H   0  0  0  0  0  0  0  0  0  0  0  0
  140.1932   72.4032  225.3179 H   0  0  0  0  0  0  0  0  0  0  0  0
  141.6212   71.6237  224.4963 H   0  0  0  0  0  0  0  0  0  0  0  0
  143.6634   73.7538  221.7680 H   0  0  0  0  0  0  0  0  0  0  0  0
  1  2  2  0
  2  3  1  0
  3  4  2  0
  4  5  1  0
  5  6  1  0
  6  7  1  0
  7  8  1  0
  8  9  1  0
  9 10  1  0
 10 11  2  0
 11 12  1  0
 12 13  1  0
 13 14  1  0
 14 15  1  0
 15 16  1  0
 16 17  1  0
 17 18  1  0
 12 19  2  0
 19 20  1  0
 20 21  1  0
 21 22  1  0
 22 23  1  0
 23 24  1  0
 24 25  2  0
 25 26  1  0
 26 27  2  0
 27 28  1  0
 28 29  2  0
 29 30  1  0
 20 31  2  0
  5 32  2  0
 32  1  1  0
 31 10  1  0
 18 13  1  0
 30 21  1  0
 29 24  1  0
  1 33  1  0
  2 34  1  0
  4 35  1  0
  6 36  1  0
  6 37  1  0
  7 38  1  0
  7 39  1  0
  8 40  1  0
  8 41  1  0
  9 42  1  0
 14 43  1  0
 14 44  1  0
 15 45  1  0
 15 46  1  0
 16 47  1  0
 16 48  1  0
 17 49  1  0
 17 50  1  0
 18 51  1  0
 18 52  1  0
 22 53  1  0
 22 54  1  0
 23 55  1  0
 23 56  1  0
 25 57  1  0
 26 58  1  0
 27 59  1  0
 28 60  1  0
 30 61  1  0
 30 62  1  0
 32 63  1  0
M  CHG  1  16   1
M  END
>  <UniqueID>  (49) 
627

>  <SMILES>  (49) 
c1cncc(CCCNc2nc(N3CC[NH2+]CC3)nc(N3CCc4ccccc4C3)n2)c1

>  <Energy>  (49) 
68.37971912434385

>  <Genealogy>  (49) 
c1cncc(CCCNc2nc(N3CC[NH2+]CC3)nc(N3CCc4ccccc4C3)n2)c1 (protonated)
c1cncc(CCCNc2nc(N3CC[NH2+]CC3)nc(N3CCc4ccccc4C3)n2)c1 (3D coordinates assigned)
c1cncc(CCCNc2nc(N3CC[NH2+]CC3)nc(N3CCc4ccccc4C3)n2)c1 (nonaromatic ring conformer: 68.37971912434385 kcal/mol)

>  <smiles>  (49) 
c1cncc(CCCNc2nc(N3CCNCC3)nc(N3CCc4ccccc4C3)n2)c1

>  <score_type>  (49) 
oracle

>  <origin>  (49) 
autodockgpu

>  <m_score__min__energy>  (49) 
-9.4199999999999999

>  <m_primary>  (49) 
energy

>  <meeko>  (49) 
{"free_energy": -7.95, "intermolecular_energy": -10.04, "internal_energy": -1.14, "cluster_size": 1, "cluster_id": 5, "rank_in_cluster": 1}

>  <energy>  (49) 
-8.24

>  <cluster_rmsd>  (49) 
1.25

>  <rmsd>  (49) 
270.29

>  <cluster>  (49) 
2

$$$$
JSIQCYHYJBEBBC-RBVFQDFSNA-O
     RDKit          3D

 63 67  0  0  0  0  0  0  0  0999 V2000
  134.3110   72.1810  225.5080 C   0  0  0  0  0  0  0  0  0  0  0  0
  133.5630   72.7690  226.5310 C   0  0  0  0  0  0  0  0  0  0  0  0
  133.5790   74.1190  226.6950 N   0  0  0  0  0  0  0  0  0  0  0  0
  134.3100   74.9310  225.8830 C   0  0  0  0  0  0  0  0  0  0  0  0
  135.0840   74.3850  224.8460 C   0  0  0  0  0  0  0  0  0  0  0  0
  135.9380   75.2750  223.9770 C   0  0  0  0  0  0  0  0  0  0  0  0
  135.4950   75.2760  222.5020 C   0  0  0  0  0  0  0  0  0  0  0  0
  135.9890   74.0560  221.7020 C   0  0  0  0  0  0  0  0  0  0  0  0
  137.2340   74.3340  220.9860 N   0  0  0  0  0  0  0  0  0  0  0  0
  138.5170   73.8950  221.4460 C   0  0  0  0  0  0  0  0  0  0  0  0
  139.6540   74.4700  220.9750 N   0  0  0  0  0  0  0  0  0  0  0  0
  140.8710   74.0370  221.3890 C   0  0  0  0  0  0  0  0  0  0  0  0
  142.0710   74.6190  220.8460 N   0  0  0  0  0  0  0  0  0  0  0  0
  143.3320   73.8650  220.8390 C   0  0  0  0  0  0  0  0  0  0  0  0
  144.1110   74.0620  219.5180 C   0  0  0  0  0  0  0  0  0  0  0  0
  143.6690   75.2370  218.7420 N   0  0  0  0  0  0  0  0  0  0  0  0
  143.3190   76.3650  219.6130 C   0  0  0  0  0  0  0  0  0  0  0  0
  142.0660   76.0270  220.4250 C   0  0  0  0  0  0  0  0  0  0  0  0
  140.9440   73.0270  222.2960 N   0  0  0  0  0  0  0  0  0  0  0  0
  139.8140   72.4460  222.7770 C   0  0  0  0  0  0  0  0  0  0  0  0
  139.9040   71.3770  223.7330 N   0  0  0  0  0  0  0  0  0  0  0  0
  139.5580   70.0080  223.3260 C   0  0  0  0  0  0  0  0  0  0  0  0
  138.8300   69.2980  224.4620 C   0  0  0  0  0  0  0  0  0  0  0  0
  139.6010   69.4040  225.7490 C   0  0  0  0  0  0  0  0  0  0  0  0
  139.4310   68.4220  226.7380 C   0  0  0  0  0  0  0  0  0  0  0  0
  140.0870   68.5380  227.9660 C   0  0  0  0  0  0  0  0  0  0  0  0
  140.9040   69.6410  228.2230 C   0  0  0  0  0  0  0  0  0  0  0  0
  141.0720   70.6310  227.2510 C   0  0  0  0  0  0  0  0  0  0  0  0
  140.4260   70.5230  226.0090 C   0  0  0  0  0  0  0  0  0  0  0  0
  140.6660   71.5970  224.9720 C   0  0  0  0  0  0  0  0  0  0  0  0
  138.6020   72.8830  222.3460 N   0  0  0  0  0  0  0  0  0  0  0  0
  135.0640   72.9920  224.6550 C   0  0  0  0  0  0  0  0  0  0  0  0
  134.3072   71.0891  225.3752 H   0  0  0  0  0  0  0  0  0  0  0  0
  132.9613   72.1402  227.2037 H   0  0  0  0  0  0  0  0  0  0  0  0
  134.2944   76.0197  226.0397 H   0  0  0  0  0  0  0  0  0  0  0  0
  135.8781   76.3036  224.3622 H   0  0  0  0  0  0  0  0  0  0  0  0
  136.9654   74.8837  224.0128 H   0  0  0  0  0  0  0  0  0  0  0  0
  134.3955   75.2890  222.4704 H   0  0  0  0  0  0  0  0  0  0  0  0
  135.9410   76.1665  222.0349 H   0  0  0  0  0  0  0  0  0  0  0  0
  136.1589   73.2210  222.3976 H   0  0  0  0  0  0  0  0  0  0  0  0
  135.2191   73.8053  220.9574 H   0  0  0  0  0  0  0  0  0  0  0  0
  137.1730   74.7990  220.0490 H   0  0  0  0  0  0  0  0  0  0  0  0
  143.9574   74.2091  221.6759 H   0  0  0  0  0  0  0  0  0  0  0  0
  143.0920   72.7961  220.9385 H   0  0  0  0  0  0  0  0  0  0  0  0
  145.1775   74.1846  219.7580 H   0  0  0  0  0  0  0  0  0  0  0  0
  143.9219   73.1746  218.8962 H   0  0  0  0  0  0  0  0  0  0  0  0
  142.8410   74.9790  218.1540 H   0  0  0  0  0  0  0  0  0  0  0  0
  144.4400   75.5290  218.0970 H   0  0  0  0  0  0  0  0  0  0  0  0
  144.1543   76.5689  220.2991 H   0  0  0  0  0  0  0  0  0  0  0  0
  143.1210   77.2526  218.9942 H   0  0  0  0  0  0  0  0  0  0  0  0
  142.0328   76.6686  221.3179 H   0  0  0  0  0  0  0  0  0  0  0  0
  141.1830   76.1987  219.7918 H   0  0  0  0  0  0  0  0  0  0  0  0
  138.9057   70.0443  222.4410 H   0  0  0  0  0  0  0  0  0  0  0  0
  140.4795   69.4574  223.0860 H   0  0  0  0  0  0  0  0  0  0  0  0
  137.8400   69.7581  224.5973 H   0  0  0  0  0  0  0  0  0  0  0  0
  138.7295   68.2340  224.2015 H   0  0  0  0  0  0  0  0  0  0  0  0
  138.7785   67.5577  226.5451 H   0  0  0  0  0  0  0  0  0  0  0  0
  139.9597   67.7589  228.7320 H   0  0  0  0  0  0  0  0  0  0  0  0
  141.4163   69.7308  229.1923 H   0  0  0  0  0  0  0  0  0  0  0  0
  141.7138   71.4995  227.4601 H   0  0  0  0  0  0  0  0  0  0  0  0
  140.3716   72.5677  225.3974 H   0  0  0  0  0  0  0  0  0  0  0  0
  141.7344   71.5714  224.7114 H   0  0  0  0  0  0  0  0  0  0  0  0
  135.6410   72.5409  223.8343 H   0  0  0  0  0  0  0  0  0  0  0  0
  1  2  2  0
  2  3  1  0
  3  4  2  0
  4  5  1  0
  5  6  1  0
  6  7  1  0
  7  8  1  0
  8  9  1  0
  9 10  1  0
 10 11  2  0
 11 12  1  0
 12 13  1  0
 13 14  1  0
 14 15  1  0
 15 16  1  0
 16 17  1  0
 17 18  1  0
 12 19  2  0
 19 20  1  0
 20 21  1  0
 21 22  1  0
 22 23  1  0
 23 24  1  0
 24 25  2  0
 25 26  1  0
 26 27  2  0
 27 28  1  0
 28 29  2  0
 29 30  1  0
 20 31  2  0
  5 32  2  0
 32  1  1  0
 31 10  1  0
 18 13  1  0
 30 21  1  0
 29 24  1  0
  1 33  1  0
  2 34  1  0
  4 35  1  0
  6 36  1  0
  6 37  1  0
  7 38  1  0
  7 39  1  0
  8 40  1  0
  8 41  1  0
  9 42  1  0
 14 43  1  0
 14 44  1  0
 15 45  1  0
 15 46  1  0
 16 47  1  0
 16 48  1  0
 17 49  1  0
 17 50  1  0
 18 51  1  0
 18 52  1  0
 22 53  1  0
 22 54  1  0
 23 55  1  0
 23 56  1  0
 25 57  1  0
 26 58  1  0
 27 59  1  0
 28 60  1  0
 30 61  1  0
 30 62  1  0
 32 63  1  0
M  CHG  1  16   1
M  END
>  <UniqueID>  (50) 
627

>  <SMILES>  (50) 
c1cncc(CCCNc2nc(N3CC[NH2+]CC3)nc(N3CCc4ccccc4C3)n2)c1

>  <Energy>  (50) 
68.37971912434385

>  <Genealogy>  (50) 
c1cncc(CCCNc2nc(N3CC[NH2+]CC3)nc(N3CCc4ccccc4C3)n2)c1 (protonated)
c1cncc(CCCNc2nc(N3CC[NH2+]CC3)nc(N3CCc4ccccc4C3)n2)c1 (3D coordinates assigned)
c1cncc(CCCNc2nc(N3CC[NH2+]CC3)nc(N3CCc4ccccc4C3)n2)c1 (nonaromatic ring conformer: 68.37971912434385 kcal/mol)

>  <smiles>  (50) 
c1cncc(CCCNc2nc(N3CCNCC3)nc(N3CCc4ccccc4C3)n2)c1

>  <score_type>  (50) 
oracle

>  <origin>  (50) 
autodockgpu

>  <m_score__min__energy>  (50) 
-9.4199999999999999

>  <m_primary>  (50) 
energy

>  <meeko>  (50) 
{"free_energy": -8.33, "intermolecular_energy": -10.42, "internal_energy": -1.08, "cluster_size": 1, "cluster_id": 3, "rank_in_cluster": 1}

>  <energy>  (50) 
-8.14

>  <cluster_rmsd>  (50) 
1.44

>  <rmsd>  (50) 
270.34

>  <cluster>  (50) 
2

$$$$
JSIQCYHYJBEBBC-RBVFQDFSNA-O
     RDKit          3D

 63 67  0  0  0  0  0  0  0  0999 V2000
  140.7780   79.3890  223.7760 C   0  0  0  0  0  0  0  0  0  0  0  0
  141.7560   78.6490  223.1080 C   0  0  0  0  0  0  0  0  0  0  0  0
  141.3920   77.7090  222.1950 N   0  0  0  0  0  0  0  0  0  0  0  0
  140.0860   77.4610  221.9050 C   0  0  0  0  0  0  0  0  0  0  0  0
  139.0670   78.1740  222.5570 C   0  0  0  0  0  0  0  0  0  0  0  0
  137.6160   77.8670  222.2780 C   0  0  0  0  0  0  0  0  0  0  0  0
  137.1890   76.4770  222.7860 C   0  0  0  0  0  0  0  0  0  0  0  0
  136.1710   75.7660  221.8750 C   0  0  0  0  0  0  0  0  0  0  0  0
  136.7300   74.5640  221.2570 N   0  0  0  0  0  0  0  0  0  0  0  0
  138.0650   74.1070  221.5010 C   0  0  0  0  0  0  0  0  0  0  0  0
  139.1190   74.6760  220.8600 N   0  0  0  0  0  0  0  0  0  0  0  0
  140.3820   74.2260  221.0690 C   0  0  0  0  0  0  0  0  0  0  0  0
  141.4860   74.8020  220.3470 N   0  0  0  0  0  0  0  0  0  0  0  0
  141.2530   75.5900  219.1290 C   0  0  0  0  0  0  0  0  0  0  0  0
  142.1640   76.8380  219.0710 C   0  0  0  0  0  0  0  0  0  0  0  0
  143.3200   76.7690  219.9850 N   0  0  0  0  0  0  0  0  0  0  0  0
  143.8690   75.4110  220.0670 C   0  0  0  0  0  0  0  0  0  0  0  0
  142.8610   74.4820  220.7510 C   0  0  0  0  0  0  0  0  0  0  0  0
  140.5860   73.2040  221.9420 N   0  0  0  0  0  0  0  0  0  0  0  0
  139.5410   72.6280  222.5920 C   0  0  0  0  0  0  0  0  0  0  0  0
  139.7700   71.5460  223.5100 N   0  0  0  0  0  0  0  0  0  0  0  0
  139.5820   70.1610  223.0590 C   0  0  0  0  0  0  0  0  0  0  0  0
  138.9590   69.3330  224.1780 C   0  0  0  0  0  0  0  0  0  0  0  0
  139.7310   69.4870  225.4600 C   0  0  0  0  0  0  0  0  0  0  0  0
  139.6920   68.4600  226.4160 C   0  0  0  0  0  0  0  0  0  0  0  0
  140.3460   68.6120  227.6420 C   0  0  0  0  0  0  0  0  0  0  0  0
  141.0310   69.7960  227.9270 C   0  0  0  0  0  0  0  0  0  0  0  0
  141.0680   70.8300  226.9880 C   0  0  0  0  0  0  0  0  0  0  0  0
  140.4220   70.6870  225.7500 C   0  0  0  0  0  0  0  0  0  0  0  0
  140.5180   71.8150  224.7470 C   0  0  0  0  0  0  0  0  0  0  0  0
  138.2810   73.0830  222.3650 N   0  0  0  0  0  0  0  0  0  0  0  0
  139.4300   79.1610  223.4910 C   0  0  0  0  0  0  0  0  0  0  0  0
  141.0671   80.1453  224.5206 H   0  0  0  0  0  0  0  0  0  0  0  0
  142.8206   78.8264  223.3203 H   0  0  0  0  0  0  0  0  0  0  0  0
  139.8271   76.6981  221.1560 H   0  0  0  0  0  0  0  0  0  0  0  0
  136.9948   78.6278  222.7733 H   0  0  0  0  0  0  0  0  0  0  0  0
  137.4808   77.8754  221.1864 H   0  0  0  0  0  0  0  0  0  0  0  0
  138.0863   75.8452  222.8621 H   0  0  0  0  0  0  0  0  0  0  0  0
  136.6965   76.6293  223.7577 H   0  0  0  0  0  0  0  0  0  0  0  0
  135.2954   75.4809  222.4767 H   0  0  0  0  0  0  0  0  0  0  0  0
  135.8931   76.4623  221.0701 H   0  0  0  0  0  0  0  0  0  0  0  0
  136.0960   73.9640  220.6780 H   0  0  0  0  0  0  0  0  0  0  0  0
  141.4573   74.9587  218.2517 H   0  0  0  0  0  0  0  0  0  0  0  0
  140.2068   75.9297  219.1358 H   0  0  0  0  0  0  0  0  0  0  0  0
  142.5397   76.9467  218.0429 H   0  0  0  0  0  0  0  0  0  0  0  0
  141.5541   77.6972  219.3869 H   0  0  0  0  0  0  0  0  0  0  0  0
  143.0320   77.0880  220.9400 H   0  0  0  0  0  0  0  0  0  0  0  0
  144.0660   77.4180  219.6420 H   0  0  0  0  0  0  0  0  0  0  0  0
  144.0772   75.0398  219.0527 H   0  0  0  0  0  0  0  0  0  0  0  0
  144.7993   75.4311  220.6537 H   0  0  0  0  0  0  0  0  0  0  0  0
  143.0844   73.4418  220.4714 H   0  0  0  0  0  0  0  0  0  0  0  0
  142.9450   74.6173  221.8394 H   0  0  0  0  0  0  0  0  0  0  0  0
  138.9172   70.1494  222.1827 H   0  0  0  0  0  0  0  0  0  0  0  0
  140.5581   69.7312  222.7897 H   0  0  0  0  0  0  0  0  0  0  0  0
  137.9239   69.6684  224.3395 H   0  0  0  0  0  0  0  0  0  0  0  0
  138.9806   68.2737  223.8823 H   0  0  0  0  0  0  0  0  0  0  0  0
  139.1441   67.5311  226.1994 H   0  0  0  0  0  0  0  0  0  0  0  0
  140.3214   67.7992  228.3827 H   0  0  0  0  0  0  0  0  0  0  0  0
  141.5427   69.9144  228.8935 H   0  0  0  0  0  0  0  0  0  0  0  0
  141.6061   71.7609  227.2201 H   0  0  0  0  0  0  0  0  0  0  0  0
  140.1168   72.7296  225.2079 H   0  0  0  0  0  0  0  0  0  0  0  0
  141.5780   71.9250  224.4745 H   0  0  0  0  0  0  0  0  0  0  0  0
  138.6527   79.7529  223.9966 H   0  0  0  0  0  0  0  0  0  0  0  0
  1  2  2  0
  2  3  1  0
  3  4  2  0
  4  5  1  0
  5  6  1  0
  6  7  1  0
  7  8  1  0
  8  9  1  0
  9 10  1  0
 10 11  2  0
 11 12  1  0
 12 13  1  0
 13 14  1  0
 14 15  1  0
 15 16  1  0
 16 17  1  0
 17 18  1  0
 12 19  2  0
 19 20  1  0
 20 21  1  0
 21 22  1  0
 22 23  1  0
 23 24  1  0
 24 25  2  0
 25 26  1  0
 26 27  2  0
 27 28  1  0
 28 29  2  0
 29 30  1  0
 20 31  2  0
  5 32  2  0
 32  1  1  0
 31 10  1  0
 18 13  1  0
 30 21  1  0
 29 24  1  0
  1 33  1  0
  2 34  1  0
  4 35  1  0
  6 36  1  0
  6 37  1  0
  7 38  1  0
  7 39  1  0
  8 40  1  0
  8 41  1  0
  9 42  1  0
 14 43  1  0
 14 44  1  0
 15 45  1  0
 15 46  1  0
 16 47  1  0
 16 48  1  0
 17 49  1  0
 17 50  1  0
 18 51  1  0
 18 52  1  0
 22 53  1  0
 22 54  1  0
 23 55  1  0
 23 56  1  0
 25 57  1  0
 26 58  1  0
 27 59  1  0
 28 60  1  0
 30 61  1  0
 30 62  1  0
 32 63  1  0
M  CHG  1  16   1
M  END
>  <UniqueID>  (51) 
627

>  <SMILES>  (51) 
c1cncc(CCCNc2nc(N3CC[NH2+]CC3)nc(N3CCc4ccccc4C3)n2)c1

>  <Energy>  (51) 
68.37971912434385

>  <Genealogy>  (51) 
c1cncc(CCCNc2nc(N3CC[NH2+]CC3)nc(N3CCc4ccccc4C3)n2)c1 (protonated)
c1cncc(CCCNc2nc(N3CC[NH2+]CC3)nc(N3CCc4ccccc4C3)n2)c1 (3D coordinates assigned)
c1cncc(CCCNc2nc(N3CC[NH2+]CC3)nc(N3CCc4ccccc4C3)n2)c1 (nonaromatic ring conformer: 68.37971912434385 kcal/mol)

>  <smiles>  (51) 
c1cncc(CCCNc2nc(N3CCNCC3)nc(N3CCc4ccccc4C3)n2)c1

>  <score_type>  (51) 
oracle

>  <origin>  (51) 
autodockgpu

>  <m_score__min__energy>  (51) 
-9.4199999999999999

>  <m_primary>  (51) 
energy

>  <meeko>  (51) 
{"free_energy": -8.39, "intermolecular_energy": -10.48, "internal_energy": -2.3, "cluster_size": 10, "cluster_id": 2, "rank_in_cluster": 1}

>  <energy>  (51) 
-8.11

>  <cluster_rmsd>  (51) 
0.39

>  <rmsd>  (51) 
270.2

>  <cluster>  (51) 
2

$$$$
JSIQCYHYJBEBBC-RBVFQDFSNA-O
     RDKit          3D

 63 67  0  0  0  0  0  0  0  0999 V2000
  140.6870   79.4060  223.8030 C   0  0  0  0  0  0  0  0  0  0  0  0
  141.6940   78.6340  223.2190 C   0  0  0  0  0  0  0  0  0  0  0  0
  141.3690   77.6180  222.3750 N   0  0  0  0  0  0  0  0  0  0  0  0
  140.0750   77.3220  222.0750 C   0  0  0  0  0  0  0  0  0  0  0  0
  139.0280   78.0650  222.6460 C   0  0  0  0  0  0  0  0  0  0  0  0
  137.5900   77.7070  222.3590 C   0  0  0  0  0  0  0  0  0  0  0  0
  137.1580   76.3840  223.0180 C   0  0  0  0  0  0  0  0  0  0  0  0
  136.0870   75.6130  222.2220 C   0  0  0  0  0  0  0  0  0  0  0  0
  136.6650   74.5310  221.4260 N   0  0  0  0  0  0  0  0  0  0  0  0
  138.0010   74.0490  221.6120 C   0  0  0  0  0  0  0  0  0  0  0  0
  139.0440   74.6380  220.9720 N   0  0  0  0  0  0  0  0  0  0  0  0
  140.3070   74.1650  221.1260 C   0  0  0  0  0  0  0  0  0  0  0  0
  141.3980   74.7650  220.4030 N   0  0  0  0  0  0  0  0  0  0  0  0
  141.1440   75.5940  219.2170 C   0  0  0  0  0  0  0  0  0  0  0  0
  142.0560   76.8420  219.1850 C   0  0  0  0  0  0  0  0  0  0  0  0
  143.2290   76.7400  220.0740 N   0  0  0  0  0  0  0  0  0  0  0  0
  143.7760   75.3790  220.0990 C   0  0  0  0  0  0  0  0  0  0  0  0
  142.7800   74.4280  220.7700 C   0  0  0  0  0  0  0  0  0  0  0  0
  140.5220   73.1000  221.9420 N   0  0  0  0  0  0  0  0  0  0  0  0
  139.4880   72.5040  222.5900 C   0  0  0  0  0  0  0  0  0  0  0  0
  139.7280   71.3770  223.4490 N   0  0  0  0  0  0  0  0  0  0  0  0
  139.5580   70.0160  222.9230 C   0  0  0  0  0  0  0  0  0  0  0  0
  138.9430   69.1200  223.9940 C   0  0  0  0  0  0  0  0  0  0  0  0
  139.7100   69.2140  225.2840 C   0  0  0  0  0  0  0  0  0  0  0  0
  139.6820   68.1360  226.1830 C   0  0  0  0  0  0  0  0  0  0  0  0
  140.3320   68.2290  227.4160 C   0  0  0  0  0  0  0  0  0  0  0  0
  141.0020   69.4030  227.7680 C   0  0  0  0  0  0  0  0  0  0  0  0
  141.0270   70.4870  226.8870 C   0  0  0  0  0  0  0  0  0  0  0  0
  140.3860   70.4040  225.6410 C   0  0  0  0  0  0  0  0  0  0  0  0
  140.4700   71.5860  224.7010 C   0  0  0  0  0  0  0  0  0  0  0  0
  138.2270   72.9820  222.4190 N   0  0  0  0  0  0  0  0  0  0  0  0
  139.3500   79.1280  223.5060 C   0  0  0  0  0  0  0  0  0  0  0  0
  140.9440   80.2254  224.4904 H   0  0  0  0  0  0  0  0  0  0  0  0
  142.7498   78.8477  223.4416 H   0  0  0  0  0  0  0  0  0  0  0  0
  139.8478   76.4978  221.3828 H   0  0  0  0  0  0  0  0  0  0  0  0
  136.9453   78.5142  222.7370 H   0  0  0  0  0  0  0  0  0  0  0  0
  137.4926   77.5805  221.2706 H   0  0  0  0  0  0  0  0  0  0  0  0
  138.0448   75.7411  223.1189 H   0  0  0  0  0  0  0  0  0  0  0  0
  136.7115   76.6411  223.9899 H   0  0  0  0  0  0  0  0  0  0  0  0
  135.3604   75.1846  222.9281 H   0  0  0  0  0  0  0  0  0  0  0  0
  135.6040   76.3202  221.5317 H   0  0  0  0  0  0  0  0  0  0  0  0
  136.0440   74.0280  220.7480 H   0  0  0  0  0  0  0  0  0  0  0  0
  141.3311   74.9927  218.3151 H   0  0  0  0  0  0  0  0  0  0  0  0
  140.0986   75.9344  219.2543 H   0  0  0  0  0  0  0  0  0  0  0  0
  142.4124   76.9858  218.1543 H   0  0  0  0  0  0  0  0  0  0  0  0
  141.4538   77.6905  219.5420 H   0  0  0  0  0  0  0  0  0  0  0  0
  142.9590   77.0260  221.0450 H   0  0  0  0  0  0  0  0  0  0  0  0
  143.9690   77.4000  219.7400 H   0  0  0  0  0  0  0  0  0  0  0  0
  143.9638   75.0426  219.0687 H   0  0  0  0  0  0  0  0  0  0  0  0
  144.7172   75.3778  220.6684 H   0  0  0  0  0  0  0  0  0  0  0  0
  142.9956   73.3978  220.4503 H   0  0  0  0  0  0  0  0  0  0  0  0
  142.8854   74.5242  221.8607 H   0  0  0  0  0  0  0  0  0  0  0  0
  138.8951   70.0439  222.0457 H   0  0  0  0  0  0  0  0  0  0  0  0
  140.5400   69.6137  222.6335 H   0  0  0  0  0  0  0  0  0  0  0  0
  137.9033   69.4328  224.1706 H   0  0  0  0  0  0  0  0  0  0  0  0
  138.9787   68.0787  223.6413 H   0  0  0  0  0  0  0  0  0  0  0  0
  139.1457   67.2137  225.9152 H   0  0  0  0  0  0  0  0  0  0  0  0
  140.3162   67.3763  228.1108 H   0  0  0  0  0  0  0  0  0  0  0  0
  141.5109   69.4742  228.7406 H   0  0  0  0  0  0  0  0  0  0  0  0
  141.5520   71.4108  227.1714 H   0  0  0  0  0  0  0  0  0  0  0  0
  140.0569   72.4692  225.2103 H   0  0  0  0  0  0  0  0  0  0  0  0
  141.5292   71.7227  224.4374 H   0  0  0  0  0  0  0  0  0  0  0  0
  138.5498   79.7415  223.9456 H   0  0  0  0  0  0  0  0  0  0  0  0
  1  2  2  0
  2  3  1  0
  3  4  2  0
  4  5  1  0
  5  6  1  0
  6  7  1  0
  7  8  1  0
  8  9  1  0
  9 10  1  0
 10 11  2  0
 11 12  1  0
 12 13  1  0
 13 14  1  0
 14 15  1  0
 15 16  1  0
 16 17  1  0
 17 18  1  0
 12 19  2  0
 19 20  1  0
 20 21  1  0
 21 22  1  0
 22 23  1  0
 23 24  1  0
 24 25  2  0
 25 26  1  0
 26 27  2  0
 27 28  1  0
 28 29  2  0
 29 30  1  0
 20 31  2  0
  5 32  2  0
 32  1  1  0
 31 10  1  0
 18 13  1  0
 30 21  1  0
 29 24  1  0
  1 33  1  0
  2 34  1  0
  4 35  1  0
  6 36  1  0
  6 37  1  0
  7 38  1  0
  7 39  1  0
  8 40  1  0
  8 41  1  0
  9 42  1  0
 14 43  1  0
 14 44  1  0
 15 45  1  0
 15 46  1  0
 16 47  1  0
 16 48  1  0
 17 49  1  0
 17 50  1  0
 18 51  1  0
 18 52  1  0
 22 53  1  0
 22 54  1  0
 23 55  1  0
 23 56  1  0
 25 57  1  0
 26 58  1  0
 27 59  1  0
 28 60  1  0
 30 61  1  0
 30 62  1  0
 32 63  1  0
M  CHG  1  16   1
M  END
>  <UniqueID>  (52) 
627

>  <SMILES>  (52) 
c1cncc(CCCNc2nc(N3CC[NH2+]CC3)nc(N3CCc4ccccc4C3)n2)c1

>  <Energy>  (52) 
68.37971912434385

>  <Genealogy>  (52) 
c1cncc(CCCNc2nc(N3CC[NH2+]CC3)nc(N3CCc4ccccc4C3)n2)c1 (protonated)
c1cncc(CCCNc2nc(N3CC[NH2+]CC3)nc(N3CCc4ccccc4C3)n2)c1 (3D coordinates assigned)
c1cncc(CCCNc2nc(N3CC[NH2+]CC3)nc(N3CCc4ccccc4C3)n2)c1 (nonaromatic ring conformer: 68.37971912434385 kcal/mol)

>  <smiles>  (52) 
c1cncc(CCCNc2nc(N3CCNCC3)nc(N3CCc4ccccc4C3)n2)c1

>  <score_type>  (52) 
oracle

>  <origin>  (52) 
autodockgpu

>  <m_score__min__energy>  (52) 
-9.4199999999999999

>  <m_primary>  (52) 
energy

>  <meeko>  (52) 
{"free_energy": -8.38, "intermolecular_energy": -10.47, "internal_energy": -2.28, "cluster_size": 10, "cluster_id": 2, "rank_in_cluster": 2}

>  <energy>  (52) 
-6.99

>  <cluster_rmsd>  (52) 
1.53

>  <rmsd>  (52) 
269.92

>  <cluster>  (52) 
2

$$$$
JSIQCYHYJBEBBC-RBVFQDFSNA-O
     RDKit          3D

 63 67  0  0  0  0  0  0  0  0999 V2000
  141.1000   78.9170  223.2710 C   0  0  0  0  0  0  0  0  0  0  0  0
  139.7040   78.9410  223.2150 C   0  0  0  0  0  0  0  0  0  0  0  0
  139.0660   78.6710  222.0450 N   0  0  0  0  0  0  0  0  0  0  0  0
  139.7510   78.3710  220.9080 C   0  0  0  0  0  0  0  0  0  0  0  0
  141.1560   78.3420  220.9140 C   0  0  0  0  0  0  0  0  0  0  0  0
  141.9210   78.0630  219.6440 C   0  0  0  0  0  0  0  0  0  0  0  0
  141.5660   76.7020  219.0170 C   0  0  0  0  0  0  0  0  0  0  0  0
  142.4910   75.5520  219.4600 C   0  0  0  0  0  0  0  0  0  0  0  0
  142.2880   75.1910  220.8630 N   0  0  0  0  0  0  0  0  0  0  0  0
  141.0620   74.6420  221.3610 C   0  0  0  0  0  0  0  0  0  0  0  0
  139.8900   75.3080  221.1960 N   0  0  0  0  0  0  0  0  0  0  0  0
  138.7310   74.8020  221.6920 C   0  0  0  0  0  0  0  0  0  0  0  0
  137.5020   75.5400  221.5570 N   0  0  0  0  0  0  0  0  0  0  0  0
  136.6180   75.7380  222.7130 C   0  0  0  0  0  0  0  0  0  0  0  0
  136.0350   77.1700  222.7510 C   0  0  0  0  0  0  0  0  0  0  0  0
  136.1360   77.8830  221.4640 N   0  0  0  0  0  0  0  0  0  0  0  0
  135.9140   76.9850  220.3250 C   0  0  0  0  0  0  0  0  0  0  0  0
  137.0630   75.9760  220.2250 C   0  0  0  0  0  0  0  0  0  0  0  0
  138.7520   73.6100  222.3440 N   0  0  0  0  0  0  0  0  0  0  0  0
  139.9180   72.9330  222.5110 C   0  0  0  0  0  0  0  0  0  0  0  0
  139.9280   71.6740  223.2050 N   0  0  0  0  0  0  0  0  0  0  0  0
  139.5290   70.4520  222.4960 C   0  0  0  0  0  0  0  0  0  0  0  0
  138.7350   69.5460  223.4320 C   0  0  0  0  0  0  0  0  0  0  0  0
  139.4740   69.3210  224.7220 C   0  0  0  0  0  0  0  0  0  0  0  0
  139.2280   68.1550  225.4640 C   0  0  0  0  0  0  0  0  0  0  0  0
  139.8530   67.9580  226.6980 C   0  0  0  0  0  0  0  0  0  0  0  0
  140.7150   68.9320  227.2090 C   0  0  0  0  0  0  0  0  0  0  0  0
  140.9580   70.1030  226.4870 C   0  0  0  0  0  0  0  0  0  0  0  0
  140.3440   70.3090  225.2410 C   0  0  0  0  0  0  0  0  0  0  0  0
  140.6640   71.5720  224.4750 C   0  0  0  0  0  0  0  0  0  0  0  0
  141.0720   73.4560  222.0190 N   0  0  0  0  0  0  0  0  0  0  0  0
  141.8280   78.6030  222.1200 C   0  0  0  0  0  0  0  0  0  0  0  0
  141.6214   79.1433  224.2128 H   0  0  0  0  0  0  0  0  0  0  0  0
  139.1213   79.1783  224.1173 H   0  0  0  0  0  0  0  0  0  0  0  0
  139.2026   78.1503  219.9803 H   0  0  0  0  0  0  0  0  0  0  0  0
  141.6929   78.8551  218.9157 H   0  0  0  0  0  0  0  0  0  0  0  0
  142.9902   78.0389  219.9013 H   0  0  0  0  0  0  0  0  0  0  0  0
  140.5348   76.4471  219.3027 H   0  0  0  0  0  0  0  0  0  0  0  0
  141.6875   76.8094  217.9290 H   0  0  0  0  0  0  0  0  0  0  0  0
  142.2862   74.6710  218.8340 H   0  0  0  0  0  0  0  0  0  0  0  0
  143.5312   75.8908  219.3448 H   0  0  0  0  0  0  0  0  0  0  0  0
  143.1050   75.2560  221.5150 H   0  0  0  0  0  0  0  0  0  0  0  0
  135.7889   75.0174  222.6549 H   0  0  0  0  0  0  0  0  0  0  0  0
  137.2107   75.5856  223.6270 H   0  0  0  0  0  0  0  0  0  0  0  0
  134.9731   77.1058  223.0306 H   0  0  0  0  0  0  0  0  0  0  0  0
  136.6266   77.7398  223.4827 H   0  0  0  0  0  0  0  0  0  0  0  0
  137.0820   78.3260  221.3800 H   0  0  0  0  0  0  0  0  0  0  0  0
  135.4220   78.6480  221.4400 H   0  0  0  0  0  0  0  0  0  0  0  0
  134.9658   76.4453  220.4653 H   0  0  0  0  0  0  0  0  0  0  0  0
  135.8708   77.5778  219.3994 H   0  0  0  0  0  0  0  0  0  0  0  0
  136.7226   75.0994  219.6543 H   0  0  0  0  0  0  0  0  0  0  0  0
  137.9109   76.4614  219.7195 H   0  0  0  0  0  0  0  0  0  0  0  0
  138.9049   70.7194  221.6306 H   0  0  0  0  0  0  0  0  0  0  0  0
  140.4294   69.9206  222.1542 H   0  0  0  0  0  0  0  0  0  0  0  0
  137.7652   70.0167  223.6508 H   0  0  0  0  0  0  0  0  0  0  0  0
  138.5898   68.5740  222.9380 H   0  0  0  0  0  0  0  0  0  0  0  0
  138.5393   67.3922  225.0717 H   0  0  0  0  0  0  0  0  0  0  0  0
  139.6664   67.0357  227.2676 H   0  0  0  0  0  0  0  0  0  0  0  0
  141.2034   68.7762  228.1822 H   0  0  0  0  0  0  0  0  0  0  0  0
  141.6340   70.8679  226.8968 H   0  0  0  0  0  0  0  0  0  0  0  0
  140.4041   72.4378  225.1017 H   0  0  0  0  0  0  0  0  0  0  0  0
  141.7369   71.5485  224.2335 H   0  0  0  0  0  0  0  0  0  0  0  0
  142.9265   78.5602  222.1583 H   0  0  0  0  0  0  0  0  0  0  0  0
  1  2  2  0
  2  3  1  0
  3  4  2  0
  4  5  1  0
  5  6  1  0
  6  7  1  0
  7  8  1  0
  8  9  1  0
  9 10  1  0
 10 11  2  0
 11 12  1  0
 12 13  1  0
 13 14  1  0
 14 15  1  0
 15 16  1  0
 16 17  1  0
 17 18  1  0
 12 19  2  0
 19 20  1  0
 20 21  1  0
 21 22  1  0
 22 23  1  0
 23 24  1  0
 24 25  2  0
 25 26  1  0
 26 27  2  0
 27 28  1  0
 28 29  2  0
 29 30  1  0
 20 31  2  0
  5 32  2  0
 32  1  1  0
 31 10  1  0
 18 13  1  0
 30 21  1  0
 29 24  1  0
  1 33  1  0
  2 34  1  0
  4 35  1  0
  6 36  1  0
  6 37  1  0
  7 38  1  0
  7 39  1  0
  8 40  1  0
  8 41  1  0
  9 42  1  0
 14 43  1  0
 14 44  1  0
 15 45  1  0
 15 46  1  0
 16 47  1  0
 16 48  1  0
 17 49  1  0
 17 50  1  0
 18 51  1  0
 18 52  1  0
 22 53  1  0
 22 54  1  0
 23 55  1  0
 23 56  1  0
 25 57  1  0
 26 58  1  0
 27 59  1  0
 28 60  1  0
 30 61  1  0
 30 62  1  0
 32 63  1  0
M  CHG  1  16   1
M  END
>  <UniqueID>  (53) 
627

>  <SMILES>  (53) 
c1cncc(CCCNc2nc(N3CC[NH2+]CC3)nc(N3CCc4ccccc4C3)n2)c1

>  <Energy>  (53) 
68.37971912434385

>  <Genealogy>  (53) 
c1cncc(CCCNc2nc(N3CC[NH2+]CC3)nc(N3CCc4ccccc4C3)n2)c1 (protonated)
c1cncc(CCCNc2nc(N3CC[NH2+]CC3)nc(N3CCc4ccccc4C3)n2)c1 (3D coordinates assigned)
c1cncc(CCCNc2nc(N3CC[NH2+]CC3)nc(N3CCc4ccccc4C3)n2)c1 (nonaromatic ring conformer: 68.37971912434385 kcal/mol)

>  <smiles>  (53) 
c1cncc(CCCNc2nc(N3CCNCC3)nc(N3CCc4ccccc4C3)n2)c1

>  <score_type>  (53) 
oracle

>  <origin>  (53) 
autodockgpu

>  <m_score__min__energy>  (53) 
-9.4199999999999999

>  <m_primary>  (53) 
energy

>  <meeko>  (53) 
{"free_energy": -6.92, "intermolecular_energy": -9.0, "internal_energy": -2.44, "cluster_size": 10, "cluster_id": 2, "rank_in_cluster": 9}

>  <energy>  (53) 
-6.92

>  <cluster_rmsd>  (53) 
1.67

>  <rmsd>  (53) 
269.93

>  <cluster>  (53) 
2

$$$$
JSIQCYHYJBEBBC-RBVFQDFSNA-O
     RDKit          3D

 63 67  0  0  0  0  0  0  0  0999 V2000
  140.6540   78.2600  222.8650 C   0  0  0  0  0  0  0  0  0  0  0  0
  139.2640   78.2620  222.7270 C   0  0  0  0  0  0  0  0  0  0  0  0
  138.7020   78.0690  221.5030 N   0  0  0  0  0  0  0  0  0  0  0  0
  139.4600   77.8710  220.3900 C   0  0  0  0  0  0  0  0  0  0  0  0
  140.8620   77.8690  220.4780 C   0  0  0  0  0  0  0  0  0  0  0  0
  141.7070   77.7030  219.2390 C   0  0  0  0  0  0  0  0  0  0  0  0
  142.8990   76.7510  219.4500 C   0  0  0  0  0  0  0  0  0  0  0  0
  142.4930   75.2740  219.6190 C   0  0  0  0  0  0  0  0  0  0  0  0
  142.2340   74.9310  221.0170 N   0  0  0  0  0  0  0  0  0  0  0  0
  141.0100   74.3370  221.4630 C   0  0  0  0  0  0  0  0  0  0  0  0
  139.8140   74.8890  221.1330 N   0  0  0  0  0  0  0  0  0  0  0  0
  138.6530   74.3440  221.5790 C   0  0  0  0  0  0  0  0  0  0  0  0
  137.3930   74.9670  221.2650 N   0  0  0  0  0  0  0  0  0  0  0  0
  136.3800   75.1710  222.3090 C   0  0  0  0  0  0  0  0  0  0  0  0
  135.6900   76.5490  222.1770 C   0  0  0  0  0  0  0  0  0  0  0  0
  135.8720   77.1750  220.8530 N   0  0  0  0  0  0  0  0  0  0  0  0
  135.8390   76.1840  219.7720 C   0  0  0  0  0  0  0  0  0  0  0  0
  137.0640   75.2690  219.8660 C   0  0  0  0  0  0  0  0  0  0  0  0
  138.6980   73.2260  222.3500 N   0  0  0  0  0  0  0  0  0  0  0  0
  139.8880   72.6620  222.6840 C   0  0  0  0  0  0  0  0  0  0  0  0
  139.9220   71.4820  223.5030 N   0  0  0  0  0  0  0  0  0  0  0  0
  139.5360   70.1870  222.9260 C   0  0  0  0  0  0  0  0  0  0  0  0
  138.7630   69.3710  223.9560 C   0  0  0  0  0  0  0  0  0  0  0  0
  139.5150   69.2900  225.2560 C   0  0  0  0  0  0  0  0  0  0  0  0
  139.2930   68.2010  226.1150 C   0  0  0  0  0  0  0  0  0  0  0  0
  139.9300   68.1410  227.3570 C   0  0  0  0  0  0  0  0  0  0  0  0
  140.7800   69.1740  227.7590 C   0  0  0  0  0  0  0  0  0  0  0  0
  141.0000   70.2690  226.9180 C   0  0  0  0  0  0  0  0  0  0  0  0
  140.3740   70.3380  225.6630 C   0  0  0  0  0  0  0  0  0  0  0  0
  140.6690   71.5200  224.7690 C   0  0  0  0  0  0  0  0  0  0  0  0
  141.0420   73.2250  222.2390 N   0  0  0  0  0  0  0  0  0  0  0  0
  141.4550   78.0500  221.7400 C   0  0  0  0  0  0  0  0  0  0  0  0
  141.1139   78.4224  223.8510 H   0  0  0  0  0  0  0  0  0  0  0  0
  138.6239   78.4196  223.6076 H   0  0  0  0  0  0  0  0  0  0  0  0
  138.9724   77.7118  219.4169 H   0  0  0  0  0  0  0  0  0  0  0  0
  141.0745   77.3005  218.4341 H   0  0  0  0  0  0  0  0  0  0  0  0
  142.1154   78.6918  218.9829 H   0  0  0  0  0  0  0  0  0  0  0  0
  143.5646   76.8301  218.5778 H   0  0  0  0  0  0  0  0  0  0  0  0
  143.3917   77.0568  220.3847 H   0  0  0  0  0  0  0  0  0  0  0  0
  141.5808   75.0877  219.0332 H   0  0  0  0  0  0  0  0  0  0  0  0
  143.3280   74.6507  219.2665 H   0  0  0  0  0  0  0  0  0  0  0  0
  143.0140   75.0430  221.7070 H   0  0  0  0  0  0  0  0  0  0  0  0
  135.6184   74.3818  222.2254 H   0  0  0  0  0  0  0  0  0  0  0  0
  136.8831   75.1323  223.2864 H   0  0  0  0  0  0  0  0  0  0  0  0
  134.6125   76.4171  222.3544 H   0  0  0  0  0  0  0  0  0  0  0  0
  136.1565   77.2162  222.9168 H   0  0  0  0  0  0  0  0  0  0  0  0
  136.7850   77.6880  220.8290 H   0  0  0  0  0  0  0  0  0  0  0  0
  135.1090   77.8750  220.6990 H   0  0  0  0  0  0  0  0  0  0  0  0
  134.9244   75.5792  219.8595 H   0  0  0  0  0  0  0  0  0  0  0  0
  135.8493   76.7046  218.8030 H   0  0  0  0  0  0  0  0  0  0  0  0
  136.8515   74.3288  219.3360 H   0  0  0  0  0  0  0  0  0  0  0  0
  137.9213   75.7853  219.4094 H   0  0  0  0  0  0  0  0  0  0  0  0
  138.9017   70.3553  222.0432 H   0  0  0  0  0  0  0  0  0  0  0  0
  140.4419   69.6362  222.6327 H   0  0  0  0  0  0  0  0  0  0  0  0
  137.7878   69.8478  224.1339 H   0  0  0  0  0  0  0  0  0  0  0  0
  138.6287   68.3515  223.5654 H   0  0  0  0  0  0  0  0  0  0  0  0
  138.6143   67.3915  225.8083 H   0  0  0  0  0  0  0  0  0  0  0  0
  139.7619   67.2790  228.0193 H   0  0  0  0  0  0  0  0  0  0  0  0
  141.2772   69.1259  228.7391 H   0  0  0  0  0  0  0  0  0  0  0  0
  141.6675   71.0813  227.2414 H   0  0  0  0  0  0  0  0  0  0  0  0
  140.4016   72.4417  225.3065 H   0  0  0  0  0  0  0  0  0  0  0  0
  141.7401   71.4862  224.5208 H   0  0  0  0  0  0  0  0  0  0  0  0
  142.5501   78.0262  221.8414 H   0  0  0  0  0  0  0  0  0  0  0  0
  1  2  2  0
  2  3  1  0
  3  4  2  0
  4  5  1  0
  5  6  1  0
  6  7  1  0
  7  8  1  0
  8  9  1  0
  9 10  1  0
 10 11  2  0
 11 12  1  0
 12 13  1  0
 13 14  1  0
 14 15  1  0
 15 16  1  0
 16 17  1  0
 17 18  1  0
 12 19  2  0
 19 20  1  0
 20 21  1  0
 21 22  1  0
 22 23  1  0
 23 24  1  0
 24 25  2  0
 25 26  1  0
 26 27  2  0
 27 28  1  0
 28 29  2  0
 29 30  1  0
 20 31  2  0
  5 32  2  0
 32  1  1  0
 31 10  1  0
 18 13  1  0
 30 21  1  0
 29 24  1  0
  1 33  1  0
  2 34  1  0
  4 35  1  0
  6 36  1  0
  6 37  1  0
  7 38  1  0
  7 39  1  0
  8 40  1  0
  8 41  1  0
  9 42  1  0
 14 43  1  0
 14 44  1  0
 15 45  1  0
 15 46  1  0
 16 47  1  0
 16 48  1  0
 17 49  1  0
 17 50  1  0
 18 51  1  0
 18 52  1  0
 22 53  1  0
 22 54  1  0
 23 55  1  0
 23 56  1  0
 25 57  1  0
 26 58  1  0
 27 59  1  0
 28 60  1  0
 30 61  1  0
 30 62  1  0
 32 63  1  0
M  CHG  1  16   1
M  END
>  <UniqueID>  (54) 
627

>  <SMILES>  (54) 
c1cncc(CCCNc2nc(N3CC[NH2+]CC3)nc(N3CCc4ccccc4C3)n2)c1

>  <Energy>  (54) 
68.37971912434385

>  <Genealogy>  (54) 
c1cncc(CCCNc2nc(N3CC[NH2+]CC3)nc(N3CCc4ccccc4C3)n2)c1 (protonated)
c1cncc(CCCNc2nc(N3CC[NH2+]CC3)nc(N3CCc4ccccc4C3)n2)c1 (3D coordinates assigned)
c1cncc(CCCNc2nc(N3CC[NH2+]CC3)nc(N3CCc4ccccc4C3)n2)c1 (nonaromatic ring conformer: 68.37971912434385 kcal/mol)

>  <smiles>  (54) 
c1cncc(CCCNc2nc(N3CCNCC3)nc(N3CCc4ccccc4C3)n2)c1

>  <score_type>  (54) 
oracle

>  <origin>  (54) 
autodockgpu

>  <m_score__min__energy>  (54) 
-9.4199999999999999

>  <m_primary>  (54) 
energy

>  <meeko>  (54) 
{"free_energy": -6.86, "intermolecular_energy": -8.94, "internal_energy": -2.51, "cluster_size": 10, "cluster_id": 2, "rank_in_cluster": 10}

>  <energy>  (54) 
-6.86

>  <cluster_rmsd>  (54) 
1.52

>  <rmsd>  (54) 
269.77

>  <cluster>  (54) 
2

$$$$
JSIQCYHYJBEBBC-RBVFQDFSNA-O
     RDKit          3D

 63 67  0  0  0  0  0  0  0  0999 V2000
  140.5600   78.9730  223.4730 C   0  0  0  0  0  0  0  0  0  0  0  0
  139.2100   78.8050  223.1550 C   0  0  0  0  0  0  0  0  0  0  0  0
  138.8540   78.3310  221.9310 N   0  0  0  0  0  0  0  0  0  0  0  0
  139.7830   78.0070  220.9900 C   0  0  0  0  0  0  0  0  0  0  0  0
  141.1520   78.1670  221.2610 C   0  0  0  0  0  0  0  0  0  0  0  0
  142.1830   77.8600  220.2030 C   0  0  0  0  0  0  0  0  0  0  0  0
  141.7680   76.7010  219.2790 C   0  0  0  0  0  0  0  0  0  0  0  0
  142.4990   75.3770  219.5740 C   0  0  0  0  0  0  0  0  0  0  0  0
  142.2960   74.9300  220.9520 N   0  0  0  0  0  0  0  0  0  0  0  0
  141.0630   74.3710  221.4200 C   0  0  0  0  0  0  0  0  0  0  0  0
  139.8800   74.9780  221.1430 N   0  0  0  0  0  0  0  0  0  0  0  0
  138.7140   74.4640  221.6090 C   0  0  0  0  0  0  0  0  0  0  0  0
  137.4700   75.1420  221.3520 N   0  0  0  0  0  0  0  0  0  0  0  0
  136.4800   75.3200  222.4230 C   0  0  0  0  0  0  0  0  0  0  0  0
  135.8330   76.7240  222.3790 C   0  0  0  0  0  0  0  0  0  0  0  0
  136.0140   77.4170  221.0890 N   0  0  0  0  0  0  0  0  0  0  0  0
  135.9330   76.4890  219.9560 C   0  0  0  0  0  0  0  0  0  0  0  0
  137.1290   75.5330  219.9780 C   0  0  0  0  0  0  0  0  0  0  0  0
  138.7380   73.3240  222.3480 N   0  0  0  0  0  0  0  0  0  0  0  0
  139.9150   72.7060  222.6290 C   0  0  0  0  0  0  0  0  0  0  0  0
  139.9280   71.5020  223.4140 N   0  0  0  0  0  0  0  0  0  0  0  0
  139.5070   70.2340  222.8050 C   0  0  0  0  0  0  0  0  0  0  0  0
  138.7240   69.4070  223.8190 C   0  0  0  0  0  0  0  0  0  0  0  0
  139.4840   69.2720  225.1090 C   0  0  0  0  0  0  0  0  0  0  0  0
  139.2440   68.1650  225.9390 C   0  0  0  0  0  0  0  0  0  0  0  0
  139.8900   68.0550  227.1730 C   0  0  0  0  0  0  0  0  0  0  0  0
  140.7680   69.0560  227.5960 C   0  0  0  0  0  0  0  0  0  0  0  0
  141.0060   70.1680  226.7840 C   0  0  0  0  0  0  0  0  0  0  0  0
  140.3710   70.2880  225.5380 C   0  0  0  0  0  0  0  0  0  0  0  0
  140.6870   71.4880  224.6750 C   0  0  0  0  0  0  0  0  0  0  0  0
  141.0760   73.2370  222.1640 N   0  0  0  0  0  0  0  0  0  0  0  0
  141.5350   78.6400  222.5280 C   0  0  0  0  0  0  0  0  0  0  0  0
  140.8533   79.3639  224.4585 H   0  0  0  0  0  0  0  0  0  0  0  0
  138.4352   79.0560  223.8944 H   0  0  0  0  0  0  0  0  0  0  0  0
  139.4601   77.6181  220.0130 H   0  0  0  0  0  0  0  0  0  0  0  0
  142.3350   78.7604  219.5897 H   0  0  0  0  0  0  0  0  0  0  0  0
  143.1050   77.5555  220.7198 H   0  0  0  0  0  0  0  0  0  0  0  0
  140.6872   76.5339  219.3966 H   0  0  0  0  0  0  0  0  0  0  0  0
  142.0400   76.9953  218.2546 H   0  0  0  0  0  0  0  0  0  0  0  0
  142.1197   74.6029  218.8908 H   0  0  0  0  0  0  0  0  0  0  0  0
  143.5762   75.5458  219.4285 H   0  0  0  0  0  0  0  0  0  0  0  0
  143.1180   74.9400  221.6020 H   0  0  0  0  0  0  0  0  0  0  0  0
  135.6920   74.5610  222.3093 H   0  0  0  0  0  0  0  0  0  0  0  0
  136.9968   75.2116  223.3880 H   0  0  0  0  0  0  0  0  0  0  0  0
  134.7547   76.6162  222.5677 H   0  0  0  0  0  0  0  0  0  0  0  0
  136.3326   77.3339  223.1460 H   0  0  0  0  0  0  0  0  0  0  0  0
  136.9430   77.9020  221.0780 H   0  0  0  0  0  0  0  0  0  0  0  0
  135.2720   78.1480  220.9870 H   0  0  0  0  0  0  0  0  0  0  0  0
  135.0011   75.9088  220.0258 H   0  0  0  0  0  0  0  0  0  0  0  0
  135.9451   77.0621  219.0172 H   0  0  0  0  0  0  0  0  0  0  0  0
  136.8785   74.6313  219.3999 H   0  0  0  0  0  0  0  0  0  0  0  0
  137.9952   76.0479  219.5368 H   0  0  0  0  0  0  0  0  0  0  0  0
  138.8691   70.4419  221.9333 H   0  0  0  0  0  0  0  0  0  0  0  0
  140.3972   69.6709  222.4880 H   0  0  0  0  0  0  0  0  0  0  0  0
  137.7616   69.9008  224.0189 H   0  0  0  0  0  0  0  0  0  0  0  0
  138.5633   68.4022  223.4011 H   0  0  0  0  0  0  0  0  0  0  0  0
  138.5439   67.3805  225.6160 H   0  0  0  0  0  0  0  0  0  0  0  0
  139.7070   67.1789  227.8125 H   0  0  0  0  0  0  0  0  0  0  0  0
  141.2726   68.9686  228.5695 H   0  0  0  0  0  0  0  0  0  0  0  0
  141.6957   70.9547  227.1236 H   0  0  0  0  0  0  0  0  0  0  0  0
  140.4455   72.4003  225.2402 H   0  0  0  0  0  0  0  0  0  0  0  0
  141.7551   71.4372  224.4170 H   0  0  0  0  0  0  0  0  0  0  0  0
  142.6013   78.7481  222.7758 H   0  0  0  0  0  0  0  0  0  0  0  0
  1  2  2  0
  2  3  1  0
  3  4  2  0
  4  5  1  0
  5  6  1  0
  6  7  1  0
  7  8  1  0
  8  9  1  0
  9 10  1  0
 10 11  2  0
 11 12  1  0
 12 13  1  0
 13 14  1  0
 14 15  1  0
 15 16  1  0
 16 17  1  0
 17 18  1  0
 12 19  2  0
 19 20  1  0
 20 21  1  0
 21 22  1  0
 22 23  1  0
 23 24  1  0
 24 25  2  0
 25 26  1  0
 26 27  2  0
 27 28  1  0
 28 29  2  0
 29 30  1  0
 20 31  2  0
  5 32  2  0
 32  1  1  0
 31 10  1  0
 18 13  1  0
 30 21  1  0
 29 24  1  0
  1 33  1  0
  2 34  1  0
  4 35  1  0
  6 36  1  0
  6 37  1  0
  7 38  1  0
  7 39  1  0
  8 40  1  0
  8 41  1  0
  9 42  1  0
 14 43  1  0
 14 44  1  0
 15 45  1  0
 15 46  1  0
 16 47  1  0
 16 48  1  0
 17 49  1  0
 17 50  1  0
 18 51  1  0
 18 52  1  0
 22 53  1  0
 22 54  1  0
 23 55  1  0
 23 56  1  0
 25 57  1  0
 26 58  1  0
 27 59  1  0
 28 60  1  0
 30 61  1  0
 30 62  1  0
 32 63  1  0
M  CHG  1  16   1
M  END
>  <UniqueID>  (55) 
627

>  <SMILES>  (55) 
c1cncc(CCCNc2nc(N3CC[NH2+]CC3)nc(N3CCc4ccccc4C3)n2)c1

>  <Energy>  (55) 
68.37971912434385

>  <Genealogy>  (55) 
c1cncc(CCCNc2nc(N3CC[NH2+]CC3)nc(N3CCc4ccccc4C3)n2)c1 (protonated)
c1cncc(CCCNc2nc(N3CC[NH2+]CC3)nc(N3CCc4ccccc4C3)n2)c1 (3D coordinates assigned)
c1cncc(CCCNc2nc(N3CC[NH2+]CC3)nc(N3CCc4ccccc4C3)n2)c1 (nonaromatic ring conformer: 68.37971912434385 kcal/mol)

>  <smiles>  (55) 
c1cncc(CCCNc2nc(N3CCNCC3)nc(N3CCc4ccccc4C3)n2)c1

>  <score_type>  (55) 
oracle

>  <origin>  (55) 
autodockgpu

>  <m_score__min__energy>  (55) 
-9.4199999999999999

>  <m_primary>  (55) 
energy

>  <meeko>  (55) 
{"free_energy": -6.99, "intermolecular_energy": -9.08, "internal_energy": -2.37, "cluster_size": 10, "cluster_id": 2, "rank_in_cluster": 8}

>  <energy>  (55) 
-8.33

>  <cluster_rmsd>  (55) 
0.0

>  <rmsd>  (55) 
269.87

>  <cluster>  (55) 
3

$$$$
JSIQCYHYJBEBBC-RBVFQDFSNA-O
     RDKit          3D

 63 67  0  0  0  0  0  0  0  0999 V2000
  144.2660   73.0990  220.6160 C   0  0  0  0  0  0  0  0  0  0  0  0
  144.3110   74.4850  220.7880 C   0  0  0  0  0  0  0  0  0  0  0  0
  143.7020   75.3020  219.8870 N   0  0  0  0  0  0  0  0  0  0  0  0
  143.0380   74.8080  218.8060 C   0  0  0  0  0  0  0  0  0  0  0  0
  142.9720   73.4220  218.5880 C   0  0  0  0  0  0  0  0  0  0  0  0
  142.2830   72.8720  217.3630 C   0  0  0  0  0  0  0  0  0  0  0  0
  141.5390   71.5520  217.6360 C   0  0  0  0  0  0  0  0  0  0  0  0
  140.0190   71.6340  217.4000 C   0  0  0  0  0  0  0  0  0  0  0  0
  139.2570   71.3930  218.6250 N   0  0  0  0  0  0  0  0  0  0  0  0
  139.4990   72.0970  219.8490 C   0  0  0  0  0  0  0  0  0  0  0  0
  139.6860   73.4420  219.8460 N   0  0  0  0  0  0  0  0  0  0  0  0
  139.9440   74.1070  221.0010 C   0  0  0  0  0  0  0  0  0  0  0  0
  140.1910   75.5250  220.9820 N   0  0  0  0  0  0  0  0  0  0  0  0
  140.0470   76.3270  222.2040 C   0  0  0  0  0  0  0  0  0  0  0  0
  141.1730   77.3790  222.3360 C   0  0  0  0  0  0  0  0  0  0  0  0
  141.8850   77.6430  221.0710 N   0  0  0  0  0  0  0  0  0  0  0  0
  140.9770   77.6180  219.9190 C   0  0  0  0  0  0  0  0  0  0  0  0
  140.4500   76.1960  219.7010 C   0  0  0  0  0  0  0  0  0  0  0  0
  139.9980   73.4130  222.1690 N   0  0  0  0  0  0  0  0  0  0  0  0
  139.8090   72.0680  222.1850 C   0  0  0  0  0  0  0  0  0  0  0  0
  139.8720   71.3450  223.4250 N   0  0  0  0  0  0  0  0  0  0  0  0
  139.4220   69.9470  223.4730 C   0  0  0  0  0  0  0  0  0  0  0  0
  138.7010   69.6800  224.7900 C   0  0  0  0  0  0  0  0  0  0  0  0
  139.5320   70.1230  225.9620 C   0  0  0  0  0  0  0  0  0  0  0  0
  139.3430   69.5120  227.2120 C   0  0  0  0  0  0  0  0  0  0  0  0
  140.0570   69.9550  228.3290 C   0  0  0  0  0  0  0  0  0  0  0  0
  140.9530   71.0200  228.2100 C   0  0  0  0  0  0  0  0  0  0  0  0
  141.1410   71.6440  226.9740 C   0  0  0  0  0  0  0  0  0  0  0  0
  140.4370   71.2040  225.8420 C   0  0  0  0  0  0  0  0  0  0  0  0
  140.6990   71.8820  224.5160 C   0  0  0  0  0  0  0  0  0  0  0  0
  139.5620   71.4140  221.0190 N   0  0  0  0  0  0  0  0  0  0  0  0
  143.5830   72.5650  219.5200 C   0  0  0  0  0  0  0  0  0  0  0  0
  144.7639   72.4340  221.3371 H   0  0  0  0  0  0  0  0  0  0  0  0
  144.8388   74.9153  221.6519 H   0  0  0  0  0  0  0  0  0  0  0  0
  142.5511   75.4972  218.1003 H   0  0  0  0  0  0  0  0  0  0  0  0
  141.5569   73.6166  217.0047 H   0  0  0  0  0  0  0  0  0  0  0  0
  143.0600   72.6639  216.6127 H   0  0  0  0  0  0  0  0  0  0  0  0
  141.9516   70.7778  216.9724 H   0  0  0  0  0  0  0  0  0  0  0  0
  141.6854   71.3163  218.7004 H   0  0  0  0  0  0  0  0  0  0  0  0
  139.7727   72.6368  217.0209 H   0  0  0  0  0  0  0  0  0  0  0  0
  139.7470   70.8541  216.6735 H   0  0  0  0  0  0  0  0  0  0  0  0
  138.4390   70.7390  218.5800 H   0  0  0  0  0  0  0  0  0  0  0  0
  139.0769   76.8450  222.1778 H   0  0  0  0  0  0  0  0  0  0  0  0
  140.1095   75.6487  223.0677 H   0  0  0  0  0  0  0  0  0  0  0  0
  140.7289   78.3216  222.6885 H   0  0  0  0  0  0  0  0  0  0  0  0
  141.9115   76.9745  223.0438 H   0  0  0  0  0  0  0  0  0  0  0  0
  142.6390   76.9280  220.9370 H   0  0  0  0  0  0  0  0  0  0  0  0
  142.3420   78.5830  221.1260 H   0  0  0  0  0  0  0  0  0  0  0  0
  140.1311   78.2957  220.1066 H   0  0  0  0  0  0  0  0  0  0  0  0
  141.5224   77.9437  219.0210 H   0  0  0  0  0  0  0  0  0  0  0  0
  139.5140   76.2442  219.1252 H   0  0  0  0  0  0  0  0  0  0  0  0
  141.2119   75.6215  219.1538 H   0  0  0  0  0  0  0  0  0  0  0  0
  138.7349   69.7558  222.6355 H   0  0  0  0  0  0  0  0  0  0  0  0
  140.2950   69.2822  223.3962 H   0  0  0  0  0  0  0  0  0  0  0  0
  137.7488   70.2307  224.7962 H   0  0  0  0  0  0  0  0  0  0  0  0
  138.5228   68.5981  224.8774 H   0  0  0  0  0  0  0  0  0  0  0  0
  138.6296   68.6808  227.3127 H   0  0  0  0  0  0  0  0  0  0  0  0
  139.9131   69.4644  229.3029 H   0  0  0  0  0  0  0  0  0  0  0  0
  141.5118   71.3682  229.0912 H   0  0  0  0  0  0  0  0  0  0  0  0
  141.8448   72.4849  226.8875 H   0  0  0  0  0  0  0  0  0  0  0  0
  140.4852   72.9557  224.6226 H   0  0  0  0  0  0  0  0  0  0  0  0
  141.7513   71.6980  224.2536 H   0  0  0  0  0  0  0  0  0  0  0  0
  143.5235   71.4747  219.3866 H   0  0  0  0  0  0  0  0  0  0  0  0
  1  2  2  0
  2  3  1  0
  3  4  2  0
  4  5  1  0
  5  6  1  0
  6  7  1  0
  7  8  1  0
  8  9  1  0
  9 10  1  0
 10 11  2  0
 11 12  1  0
 12 13  1  0
 13 14  1  0
 14 15  1  0
 15 16  1  0
 16 17  1  0
 17 18  1  0
 12 19  2  0
 19 20  1  0
 20 21  1  0
 21 22  1  0
 22 23  1  0
 23 24  1  0
 24 25  2  0
 25 26  1  0
 26 27  2  0
 27 28  1  0
 28 29  2  0
 29 30  1  0
 20 31  2  0
  5 32  2  0
 32  1  1  0
 31 10  1  0
 18 13  1  0
 30 21  1  0
 29 24  1  0
  1 33  1  0
  2 34  1  0
  4 35  1  0
  6 36  1  0
  6 37  1  0
  7 38  1  0
  7 39  1  0
  8 40  1  0
  8 41  1  0
  9 42  1  0
 14 43  1  0
 14 44  1  0
 15 45  1  0
 15 46  1  0
 16 47  1  0
 16 48  1  0
 17 49  1  0
 17 50  1  0
 18 51  1  0
 18 52  1  0
 22 53  1  0
 22 54  1  0
 23 55  1  0
 23 56  1  0
 25 57  1  0
 26 58  1  0
 27 59  1  0
 28 60  1  0
 30 61  1  0
 30 62  1  0
 32 63  1  0
M  CHG  1  16   1
M  END
>  <UniqueID>  (56) 
627

>  <SMILES>  (56) 
c1cncc(CCCNc2nc(N3CC[NH2+]CC3)nc(N3CCc4ccccc4C3)n2)c1

>  <Energy>  (56) 
68.37971912434385

>  <Genealogy>  (56) 
c1cncc(CCCNc2nc(N3CC[NH2+]CC3)nc(N3CCc4ccccc4C3)n2)c1 (protonated)
c1cncc(CCCNc2nc(N3CC[NH2+]CC3)nc(N3CCc4ccccc4C3)n2)c1 (3D coordinates assigned)
c1cncc(CCCNc2nc(N3CC[NH2+]CC3)nc(N3CCc4ccccc4C3)n2)c1 (nonaromatic ring conformer: 68.37971912434385 kcal/mol)

>  <smiles>  (56) 
c1cncc(CCCNc2nc(N3CCNCC3)nc(N3CCc4ccccc4C3)n2)c1

>  <score_type>  (56) 
oracle

>  <origin>  (56) 
autodockgpu

>  <m_score__min__energy>  (56) 
-9.4199999999999999

>  <m_primary>  (56) 
energy

>  <meeko>  (56) 
{"free_energy": -6.72, "intermolecular_energy": -8.81, "internal_energy": -2.55, "cluster_size": 3, "cluster_id": 4, "rank_in_cluster": 3}

>  <energy>  (56) 
-8.26

>  <cluster_rmsd>  (56) 
0.0

>  <rmsd>  (56) 
269.9

>  <cluster>  (56) 
4

$$$$
JSIQCYHYJBEBBC-RBVFQDFSNA-O
     RDKit          3D

 63 67  0  0  0  0  0  0  0  0999 V2000
  142.1680   79.1890  218.6810 C   0  0  0  0  0  0  0  0  0  0  0  0
  142.8680   78.0960  218.1630 C   0  0  0  0  0  0  0  0  0  0  0  0
  142.9450   76.9390  218.8740 N   0  0  0  0  0  0  0  0  0  0  0  0
  142.3540   76.8070  220.0930 C   0  0  0  0  0  0  0  0  0  0  0  0
  141.6470   77.8810  220.6580 C   0  0  0  0  0  0  0  0  0  0  0  0
  141.0360   77.7570  222.0320 C   0  0  0  0  0  0  0  0  0  0  0  0
  139.4990   77.8540  222.0160 C   0  0  0  0  0  0  0  0  0  0  0  0
  138.7920   76.6410  222.6500 C   0  0  0  0  0  0  0  0  0  0  0  0
  138.7340   75.4990  221.7370 N   0  0  0  0  0  0  0  0  0  0  0  0
  139.6850   74.4280  221.7610 C   0  0  0  0  0  0  0  0  0  0  0  0
  140.6980   74.3840  220.8570 N   0  0  0  0  0  0  0  0  0  0  0  0
  141.5840   73.3550  220.8610 C   0  0  0  0  0  0  0  0  0  0  0  0
  142.6230   73.2900  219.8670 N   0  0  0  0  0  0  0  0  0  0  0  0
  142.2880   73.1880  218.4400 C   0  0  0  0  0  0  0  0  0  0  0  0
  143.2100   74.0720  217.5690 C   0  0  0  0  0  0  0  0  0  0  0  0
  144.4480   74.4890  218.2560 N   0  0  0  0  0  0  0  0  0  0  0  0
  144.9780   73.4270  219.1180 C   0  0  0  0  0  0  0  0  0  0  0  0
  144.0250   73.1830  220.2920 C   0  0  0  0  0  0  0  0  0  0  0  0
  141.4570   72.3730  221.7920 N   0  0  0  0  0  0  0  0  0  0  0  0
  140.4510   72.4090  222.7040 C   0  0  0  0  0  0  0  0  0  0  0  0
  140.3250   71.3630  223.6820 N   0  0  0  0  0  0  0  0  0  0  0  0
  139.8440   70.0380  223.2690 C   0  0  0  0  0  0  0  0  0  0  0  0
  138.9410   69.4550  224.3510 C   0  0  0  0  0  0  0  0  0  0  0  0
  139.6120   69.4990  225.6970 C   0  0  0  0  0  0  0  0  0  0  0  0
  139.2380   68.5730  226.6840 C   0  0  0  0  0  0  0  0  0  0  0  0
  139.8000   68.6390  227.9620 C   0  0  0  0  0  0  0  0  0  0  0  0
  140.7260   69.6390  228.2690 C   0  0  0  0  0  0  0  0  0  0  0  0
  141.0970   70.5730  227.2980 C   0  0  0  0  0  0  0  0  0  0  0  0
  140.5470   70.5130  226.0080 C   0  0  0  0  0  0  0  0  0  0  0  0
  141.0050   71.5200  224.9770 C   0  0  0  0  0  0  0  0  0  0  0  0
  139.5650   73.4390  222.6820 N   0  0  0  0  0  0  0  0  0  0  0  0
  141.5450   79.0770  219.9270 C   0  0  0  0  0  0  0  0  0  0  0  0
  142.1079   80.1291  218.1131 H   0  0  0  0  0  0  0  0  0  0  0  0
  143.3566   78.1713  217.1804 H   0  0  0  0  0  0  0  0  0  0  0  0
  142.4305   75.8547  220.6382 H   0  0  0  0  0  0  0  0  0  0  0  0
  141.3217   76.7833  222.4565 H   0  0  0  0  0  0  0  0  0  0  0  0
  141.4131   78.5944  222.6375 H   0  0  0  0  0  0  0  0  0  0  0  0
  139.2028   78.7567  222.5705 H   0  0  0  0  0  0  0  0  0  0  0  0
  139.1915   77.8879  220.9604 H   0  0  0  0  0  0  0  0  0  0  0  0
  139.3412   76.3437  223.5555 H   0  0  0  0  0  0  0  0  0  0  0  0
  137.7598   76.9369  222.8885 H   0  0  0  0  0  0  0  0  0  0  0  0
  137.9090   75.4180  221.0960 H   0  0  0  0  0  0  0  0  0  0  0  0
  142.3961   72.1402  218.1229 H   0  0  0  0  0  0  0  0  0  0  0  0
  141.2535   73.5371  218.3059 H   0  0  0  0  0  0  0  0  0  0  0  0
  143.4862   73.5047  216.6680 H   0  0  0  0  0  0  0  0  0  0  0  0
  142.6488   74.9875  217.3305 H   0  0  0  0  0  0  0  0  0  0  0  0
  144.2590   75.3440  218.8320 H   0  0  0  0  0  0  0  0  0  0  0  0
  145.1680   74.7400  217.5400 H   0  0  0  0  0  0  0  0  0  0  0  0
  145.0813   72.5008  218.5337 H   0  0  0  0  0  0  0  0  0  0  0  0
  145.9603   73.7333  219.5070 H   0  0  0  0  0  0  0  0  0  0  0  0
  144.2022   72.1749  220.6949 H   0  0  0  0  0  0  0  0  0  0  0  0
  144.2159   73.9461  221.0610 H   0  0  0  0  0  0  0  0  0  0  0  0
  139.2766   70.1316  222.3313 H   0  0  0  0  0  0  0  0  0  0  0  0
  140.7051   69.3707  223.1165 H   0  0  0  0  0  0  0  0  0  0  0  0
  138.0095   70.0384  224.3945 H   0  0  0  0  0  0  0  0  0  0  0  0
  138.7279   68.4053  224.1006 H   0  0  0  0  0  0  0  0  0  0  0  0
  138.4994   67.7921  226.4504 H   0  0  0  0  0  0  0  0  0  0  0  0
  139.5128   67.9026  228.7271 H   0  0  0  0  0  0  0  0  0  0  0  0
  141.1638   69.6913  229.2768 H   0  0  0  0  0  0  0  0  0  0  0  0
  141.8244   71.3599  227.5461 H   0  0  0  0  0  0  0  0  0  0  0  0
  140.8021   72.5311  225.3597 H   0  0  0  0  0  0  0  0  0  0  0  0
  142.0792   71.3542  224.8080 H   0  0  0  0  0  0  0  0  0  0  0  0
  140.9751   79.9246  220.3354 H   0  0  0  0  0  0  0  0  0  0  0  0
  1  2  2  0
  2  3  1  0
  3  4  2  0
  4  5  1  0
  5  6  1  0
  6  7  1  0
  7  8  1  0
  8  9  1  0
  9 10  1  0
 10 11  2  0
 11 12  1  0
 12 13  1  0
 13 14  1  0
 14 15  1  0
 15 16  1  0
 16 17  1  0
 17 18  1  0
 12 19  2  0
 19 20  1  0
 20 21  1  0
 21 22  1  0
 22 23  1  0
 23 24  1  0
 24 25  2  0
 25 26  1  0
 26 27  2  0
 27 28  1  0
 28 29  2  0
 29 30  1  0
 20 31  2  0
  5 32  2  0
 32  1  1  0
 31 10  1  0
 18 13  1  0
 30 21  1  0
 29 24  1  0
  1 33  1  0
  2 34  1  0
  4 35  1  0
  6 36  1  0
  6 37  1  0
  7 38  1  0
  7 39  1  0
  8 40  1  0
  8 41  1  0
  9 42  1  0
 14 43  1  0
 14 44  1  0
 15 45  1  0
 15 46  1  0
 16 47  1  0
 16 48  1  0
 17 49  1  0
 17 50  1  0
 18 51  1  0
 18 52  1  0
 22 53  1  0
 22 54  1  0
 23 55  1  0
 23 56  1  0
 25 57  1  0
 26 58  1  0
 27 59  1  0
 28 60  1  0
 30 61  1  0
 30 62  1  0
 32 63  1  0
M  CHG  1  16   1
M  END
>  <UniqueID>  (57) 
627

>  <SMILES>  (57) 
c1cncc(CCCNc2nc(N3CC[NH2+]CC3)nc(N3CCc4ccccc4C3)n2)c1

>  <Energy>  (57) 
68.37971912434385

>  <Genealogy>  (57) 
c1cncc(CCCNc2nc(N3CC[NH2+]CC3)nc(N3CCc4ccccc4C3)n2)c1 (protonated)
c1cncc(CCCNc2nc(N3CC[NH2+]CC3)nc(N3CCc4ccccc4C3)n2)c1 (3D coordinates assigned)
c1cncc(CCCNc2nc(N3CC[NH2+]CC3)nc(N3CCc4ccccc4C3)n2)c1 (nonaromatic ring conformer: 68.37971912434385 kcal/mol)

>  <smiles>  (57) 
c1cncc(CCCNc2nc(N3CCNCC3)nc(N3CCc4ccccc4C3)n2)c1

>  <score_type>  (57) 
oracle

>  <origin>  (57) 
autodockgpu

>  <m_score__min__energy>  (57) 
-9.4199999999999999

>  <m_primary>  (57) 
energy

>  <meeko>  (57) 
{"free_energy": -7.64, "intermolecular_energy": -9.73, "internal_energy": -2.19, "cluster_size": 1, "cluster_id": 6, "rank_in_cluster": 1}

>  <energy>  (57) 
-8.12

>  <cluster_rmsd>  (57) 
0.46

>  <rmsd>  (57) 
269.87

>  <cluster>  (57) 
4

$$$$
JSIQCYHYJBEBBC-RBVFQDFSNA-O
     RDKit          3D

 63 67  0  0  0  0  0  0  0  0999 V2000
  145.0020   73.7780  220.9690 C   0  0  0  0  0  0  0  0  0  0  0  0
  146.1780   73.3970  220.3180 C   0  0  0  0  0  0  0  0  0  0  0  0
  146.1340   72.9740  219.0270 N   0  0  0  0  0  0  0  0  0  0  0  0
  144.9640   72.9080  218.3340 C   0  0  0  0  0  0  0  0  0  0  0  0
  143.7550   73.2740  218.9490 C   0  0  0  0  0  0  0  0  0  0  0  0
  142.4490   73.1530  218.2030 C   0  0  0  0  0  0  0  0  0  0  0  0
  141.9540   71.6990  218.0920 C   0  0  0  0  0  0  0  0  0  0  0  0
  140.5090   71.5710  217.5750 C   0  0  0  0  0  0  0  0  0  0  0  0
  139.5390   71.4780  218.6660 N   0  0  0  0  0  0  0  0  0  0  0  0
  139.6980   72.1620  219.9150 C   0  0  0  0  0  0  0  0  0  0  0  0
  139.8210   73.5140  219.9510 N   0  0  0  0  0  0  0  0  0  0  0  0
  139.9990   74.1610  221.1310 C   0  0  0  0  0  0  0  0  0  0  0  0
  140.1790   75.5890  221.1540 N   0  0  0  0  0  0  0  0  0  0  0  0
  139.7800   76.3750  222.3300 C   0  0  0  0  0  0  0  0  0  0  0  0
  140.8140   77.4770  222.6610 C   0  0  0  0  0  0  0  0  0  0  0  0
  141.7280   77.7830  221.5440 N   0  0  0  0  0  0  0  0  0  0  0  0
  141.0440   77.7240  220.2480 C   0  0  0  0  0  0  0  0  0  0  0  0
  140.6320   76.2810  219.9400 C   0  0  0  0  0  0  0  0  0  0  0  0
  140.0390   73.4420  222.2830 N   0  0  0  0  0  0  0  0  0  0  0  0
  139.9140   72.0890  222.2600 C   0  0  0  0  0  0  0  0  0  0  0  0
  139.9610   71.3390  223.4850 N   0  0  0  0  0  0  0  0  0  0  0  0
  139.5700   69.9230  223.4840 C   0  0  0  0  0  0  0  0  0  0  0  0
  138.8120   69.5950  224.7660 C   0  0  0  0  0  0  0  0  0  0  0  0
  139.5790   70.0420  225.9790 C   0  0  0  0  0  0  0  0  0  0  0  0
  139.3700   69.3940  227.2060 C   0  0  0  0  0  0  0  0  0  0  0  0
  140.0230   69.8380  228.3590 C   0  0  0  0  0  0  0  0  0  0  0  0
  140.8770   70.9420  228.3000 C   0  0  0  0  0  0  0  0  0  0  0  0
  141.0840   71.6030  227.0870 C   0  0  0  0  0  0  0  0  0  0  0  0
  140.4420   71.1620  225.9180 C   0  0  0  0  0  0  0  0  0  0  0  0
  140.7240   71.8830  224.6190 C   0  0  0  0  0  0  0  0  0  0  0  0
  139.7460   71.4540  221.0710 N   0  0  0  0  0  0  0  0  0  0  0  0
  143.7890   73.7290  220.2790 C   0  0  0  0  0  0  0  0  0  0  0  0
  145.0314   74.1137  222.0161 H   0  0  0  0  0  0  0  0  0  0  0  0
  147.1397   73.4394  220.8503 H   0  0  0  0  0  0  0  0  0  0  0  0
  144.9653   72.5667  217.2883 H   0  0  0  0  0  0  0  0  0  0  0  0
  141.6867   73.7437  218.7321 H   0  0  0  0  0  0  0  0  0  0  0  0
  142.6175   73.5230  217.1809 H   0  0  0  0  0  0  0  0  0  0  0  0
  142.6183   71.1585  217.4017 H   0  0  0  0  0  0  0  0  0  0  0  0
  141.9688   71.2776  219.1080 H   0  0  0  0  0  0  0  0  0  0  0  0
  140.2716   72.4544  216.9640 H   0  0  0  0  0  0  0  0  0  0  0  0
  140.4422   70.6460  216.9834 H   0  0  0  0  0  0  0  0  0  0  0  0
  138.6460   70.9590  218.4930 H   0  0  0  0  0  0  0  0  0  0  0  0
  138.8074   76.8479  222.1291 H   0  0  0  0  0  0  0  0  0  0  0  0
  139.7176   75.6942  223.1917 H   0  0  0  0  0  0  0  0  0  0  0  0
  140.2704   78.3955  222.9273 H   0  0  0  0  0  0  0  0  0  0  0  0
  141.4317   77.1016  223.4902 H   0  0  0  0  0  0  0  0  0  0  0  0
  142.5270   77.1050  221.5480 H   0  0  0  0  0  0  0  0  0  0  0  0
  142.1230   78.7420  221.6790 H   0  0  0  0  0  0  0  0  0  0  0  0
  140.1473   78.3603  220.2798 H   0  0  0  0  0  0  0  0  0  0  0  0
  141.7262   78.0810  219.4624 H   0  0  0  0  0  0  0  0  0  0  0  0
  139.8134   76.2903  219.2053 H   0  0  0  0  0  0  0  0  0  0  0  0
  141.5058   75.7465  219.5390 H   0  0  0  0  0  0  0  0  0  0  0  0
  138.9238   69.7233  222.6165 H   0  0  0  0  0  0  0  0  0  0  0  0
  140.4728   69.2972  223.4258 H   0  0  0  0  0  0  0  0  0  0  0  0
  137.8383   70.1065  224.7483 H   0  0  0  0  0  0  0  0  0  0  0  0
  138.6758   68.5049  224.8216 H   0  0  0  0  0  0  0  0  0  0  0  0
  138.6887   68.5321  227.2605 H   0  0  0  0  0  0  0  0  0  0  0  0
  139.8643   69.3172  229.3148 H   0  0  0  0  0  0  0  0  0  0  0  0
  141.3871   71.2912  229.2099 H   0  0  0  0  0  0  0  0  0  0  0  0
  141.7540   72.4745  227.0469 H   0  0  0  0  0  0  0  0  0  0  0  0
  140.4611   72.9440  224.7422 H   0  0  0  0  0  0  0  0  0  0  0  0
  141.7921   71.7496  224.3925 H   0  0  0  0  0  0  0  0  0  0  0  0
  142.8603   74.0463  220.7758 H   0  0  0  0  0  0  0  0  0  0  0  0
  1  2  2  0
  2  3  1  0
  3  4  2  0
  4  5  1  0
  5  6  1  0
  6  7  1  0
  7  8  1  0
  8  9  1  0
  9 10  1  0
 10 11  2  0
 11 12  1  0
 12 13  1  0
 13 14  1  0
 14 15  1  0
 15 16  1  0
 16 17  1  0
 17 18  1  0
 12 19  2  0
 19 20  1  0
 20 21  1  0
 21 22  1  0
 22 23  1  0
 23 24  1  0
 24 25  2  0
 25 26  1  0
 26 27  2  0
 27 28  1  0
 28 29  2  0
 29 30  1  0
 20 31  2  0
  5 32  2  0
 32  1  1  0
 31 10  1  0
 18 13  1  0
 30 21  1  0
 29 24  1  0
  1 33  1  0
  2 34  1  0
  4 35  1  0
  6 36  1  0
  6 37  1  0
  7 38  1  0
  7 39  1  0
  8 40  1  0
  8 41  1  0
  9 42  1  0
 14 43  1  0
 14 44  1  0
 15 45  1  0
 15 46  1  0
 16 47  1  0
 16 48  1  0
 17 49  1  0
 17 50  1  0
 18 51  1  0
 18 52  1  0
 22 53  1  0
 22 54  1  0
 23 55  1  0
 23 56  1  0
 25 57  1  0
 26 58  1  0
 27 59  1  0
 28 60  1  0
 30 61  1  0
 30 62  1  0
 32 63  1  0
M  CHG  1  16   1
M  END
>  <UniqueID>  (58) 
627

>  <SMILES>  (58) 
c1cncc(CCCNc2nc(N3CC[NH2+]CC3)nc(N3CCc4ccccc4C3)n2)c1

>  <Energy>  (58) 
68.37971912434385

>  <Genealogy>  (58) 
c1cncc(CCCNc2nc(N3CC[NH2+]CC3)nc(N3CCc4ccccc4C3)n2)c1 (protonated)
c1cncc(CCCNc2nc(N3CC[NH2+]CC3)nc(N3CCc4ccccc4C3)n2)c1 (3D coordinates assigned)
c1cncc(CCCNc2nc(N3CC[NH2+]CC3)nc(N3CCc4ccccc4C3)n2)c1 (nonaromatic ring conformer: 68.37971912434385 kcal/mol)

>  <smiles>  (58) 
c1cncc(CCCNc2nc(N3CCNCC3)nc(N3CCc4ccccc4C3)n2)c1

>  <score_type>  (58) 
oracle

>  <origin>  (58) 
autodockgpu

>  <m_score__min__energy>  (58) 
-9.4199999999999999

>  <m_primary>  (58) 
energy

>  <meeko>  (58) 
{"free_energy": -8.26, "intermolecular_energy": -10.35, "internal_energy": -1.39, "cluster_size": 3, "cluster_id": 4, "rank_in_cluster": 1}

>  <energy>  (58) 
-6.72

>  <cluster_rmsd>  (58) 
0.79

>  <rmsd>  (58) 
269.66

>  <cluster>  (58) 
4

$$$$
JSIQCYHYJBEBBC-RBVFQDFSNA-O
     RDKit          3D

 63 67  0  0  0  0  0  0  0  0999 V2000
  141.4210   72.2860  227.1790 C   0  0  0  0  0  0  0  0  0  0  0  0
  141.0770   71.6510  228.3750 C   0  0  0  0  0  0  0  0  0  0  0  0
  140.3700   70.4900  228.3500 N   0  0  0  0  0  0  0  0  0  0  0  0
  139.9790   69.9140  227.1790 C   0  0  0  0  0  0  0  0  0  0  0  0
  140.2940   70.5200  225.9520 C   0  0  0  0  0  0  0  0  0  0  0  0
  139.8180   69.9150  224.6550 C   0  0  0  0  0  0  0  0  0  0  0  0
  138.5860   70.6340  224.0730 C   0  0  0  0  0  0  0  0  0  0  0  0
  138.7840   71.1390  222.6310 C   0  0  0  0  0  0  0  0  0  0  0  0
  138.6020   72.5870  222.5250 N   0  0  0  0  0  0  0  0  0  0  0  0
  139.6430   73.4780  222.1100 C   0  0  0  0  0  0  0  0  0  0  0  0
  140.7700   72.9990  221.5220 N   0  0  0  0  0  0  0  0  0  0  0  0
  141.7690   73.8390  221.1530 C   0  0  0  0  0  0  0  0  0  0  0  0
  142.9810   73.3160  220.5770 N   0  0  0  0  0  0  0  0  0  0  0  0
  144.0360   74.2220  220.1040 C   0  0  0  0  0  0  0  0  0  0  0  0
  145.4450   73.7020  220.4710 C   0  0  0  0  0  0  0  0  0  0  0  0
  145.4720   72.2700  220.8280 N   0  0  0  0  0  0  0  0  0  0  0  0
  144.5460   71.4860  220.0040 C   0  0  0  0  0  0  0  0  0  0  0  0
  143.1000   71.8720  220.3320 C   0  0  0  0  0  0  0  0  0  0  0  0
  141.6270   75.1740  221.3640 N   0  0  0  0  0  0  0  0  0  0  0  0
  140.5030   75.6670  221.9480 C   0  0  0  0  0  0  0  0  0  0  0  0
  140.3650   77.0800  222.1700 N   0  0  0  0  0  0  0  0  0  0  0  0
  139.0550   77.7180  221.9850 C   0  0  0  0  0  0  0  0  0  0  0  0
  139.2340   79.0950  221.3540 C   0  0  0  0  0  0  0  0  0  0  0  0
  140.2390   79.9130  222.1160 C   0  0  0  0  0  0  0  0  0  0  0  0
  140.1660   81.3140  222.0690 C   0  0  0  0  0  0  0  0  0  0  0  0
  141.1300   82.0930  222.7150 C   0  0  0  0  0  0  0  0  0  0  0  0
  142.1840   81.4800  223.3980 C   0  0  0  0  0  0  0  0  0  0  0  0
  142.2740   80.0860  223.4410 C   0  0  0  0  0  0  0  0  0  0  0  0
  141.3070   79.2910  222.8050 C   0  0  0  0  0  0  0  0  0  0  0  0
  141.4220   77.7870  222.9090 C   0  0  0  0  0  0  0  0  0  0  0  0
  139.5140   74.8120  222.3220 N   0  0  0  0  0  0  0  0  0  0  0  0
  141.0390   71.7120  225.9630 C   0  0  0  0  0  0  0  0  0  0  0  0
  141.9872   73.2290  227.1941 H   0  0  0  0  0  0  0  0  0  0  0  0
  141.3783   72.0906  229.3373 H   0  0  0  0  0  0  0  0  0  0  0  0
  139.4142   68.9702  227.1947 H   0  0  0  0  0  0  0  0  0  0  0  0
  140.6356   69.9705  223.9212 H   0  0  0  0  0  0  0  0  0  0  0  0
  139.5246   68.8757  224.8643 H   0  0  0  0  0  0  0  0  0  0  0  0
  137.7389   69.9323  224.0814 H   0  0  0  0  0  0  0  0  0  0  0  0
  138.4058   71.5193  224.7005 H   0  0  0  0  0  0  0  0  0  0  0  0
  139.8026   70.8846  222.3028 H   0  0  0  0  0  0  0  0  0  0  0  0
  138.0275   70.6551  221.9958 H   0  0  0  0  0  0  0  0  0  0  0  0
  137.6410   72.9780  222.6750 H   0  0  0  0  0  0  0  0  0  0  0  0
  143.9635   74.3129  219.0102 H   0  0  0  0  0  0  0  0  0  0  0  0
  143.8934   75.1977  220.5916 H   0  0  0  0  0  0  0  0  0  0  0  0
  146.1089   73.8578  219.6079 H   0  0  0  0  0  0  0  0  0  0  0  0
  145.7744   74.2620  221.3586 H   0  0  0  0  0  0  0  0  0  0  0  0
  145.2220   72.1550  221.8390 H   0  0  0  0  0  0  0  0  0  0  0  0
  146.4430   71.9030  220.6950 H   0  0  0  0  0  0  0  0  0  0  0  0
  144.7447   71.6867  218.9409 H   0  0  0  0  0  0  0  0  0  0  0  0
  144.6915   70.4162  220.2144 H   0  0  0  0  0  0  0  0  0  0  0  0
  142.4537   71.5967  219.4855 H   0  0  0  0  0  0  0  0  0  0  0  0
  142.7932   71.3365  221.2425 H   0  0  0  0  0  0  0  0  0  0  0  0
  138.4343   77.0927  221.3265 H   0  0  0  0  0  0  0  0  0  0  0  0
  138.5640   77.8284  222.9631 H   0  0  0  0  0  0  0  0  0  0  0  0
  139.5819   78.9728  220.3176 H   0  0  0  0  0  0  0  0  0  0  0  0
  138.2670   79.6187  221.3780 H   0  0  0  0  0  0  0  0  0  0  0  0
  139.3460   81.8012  221.5210 H   0  0  0  0  0  0  0  0  0  0  0  0
  141.0590   83.1903  222.6858 H   0  0  0  0  0  0  0  0  0  0  0  0
  142.9436   82.0954  223.9023 H   0  0  0  0  0  0  0  0  0  0  0  0
  143.1078   79.6085  223.9766 H   0  0  0  0  0  0  0  0  0  0  0  0
  142.3980   77.4808  222.5046 H   0  0  0  0  0  0  0  0  0  0  0  0
  141.3172   77.5205  223.9711 H   0  0  0  0  0  0  0  0  0  0  0  0
  141.3213   72.1930  225.0149 H   0  0  0  0  0  0  0  0  0  0  0  0
  1  2  2  0
  2  3  1  0
  3  4  2  0
  4  5  1  0
  5  6  1  0
  6  7  1  0
  7  8  1  0
  8  9  1  0
  9 10  1  0
 10 11  2  0
 11 12  1  0
 12 13  1  0
 13 14  1  0
 14 15  1  0
 15 16  1  0
 16 17  1  0
 17 18  1  0
 12 19  2  0
 19 20  1  0
 20 21  1  0
 21 22  1  0
 22 23  1  0
 23 24  1  0
 24 25  2  0
 25 26  1  0
 26 27  2  0
 27 28  1  0
 28 29  2  0
 29 30  1  0
 20 31  2  0
  5 32  2  0
 32  1  1  0
 31 10  1  0
 18 13  1  0
 30 21  1  0
 29 24  1  0
  1 33  1  0
  2 34  1  0
  4 35  1  0
  6 36  1  0
  6 37  1  0
  7 38  1  0
  7 39  1  0
  8 40  1  0
  8 41  1  0
  9 42  1  0
 14 43  1  0
 14 44  1  0
 15 45  1  0
 15 46  1  0
 16 47  1  0
 16 48  1  0
 17 49  1  0
 17 50  1  0
 18 51  1  0
 18 52  1  0
 22 53  1  0
 22 54  1  0
 23 55  1  0
 23 56  1  0
 25 57  1  0
 26 58  1  0
 27 59  1  0
 28 60  1  0
 30 61  1  0
 30 62  1  0
 32 63  1  0
M  CHG  1  16   1
M  END
>  <UniqueID>  (59) 
627

>  <SMILES>  (59) 
c1cncc(CCCNc2nc(N3CC[NH2+]CC3)nc(N3CCc4ccccc4C3)n2)c1

>  <Energy>  (59) 
68.37971912434385

>  <Genealogy>  (59) 
c1cncc(CCCNc2nc(N3CC[NH2+]CC3)nc(N3CCc4ccccc4C3)n2)c1 (protonated)
c1cncc(CCCNc2nc(N3CC[NH2+]CC3)nc(N3CCc4ccccc4C3)n2)c1 (3D coordinates assigned)
c1cncc(CCCNc2nc(N3CC[NH2+]CC3)nc(N3CCc4ccccc4C3)n2)c1 (nonaromatic ring conformer: 68.37971912434385 kcal/mol)

>  <smiles>  (59) 
c1cncc(CCCNc2nc(N3CCNCC3)nc(N3CCc4ccccc4C3)n2)c1

>  <score_type>  (59) 
oracle

>  <origin>  (59) 
autodockgpu

>  <m_score__min__energy>  (59) 
-9.4199999999999999

>  <m_primary>  (59) 
energy

>  <meeko>  (59) 
{"free_energy": -9.29, "intermolecular_energy": -11.38, "internal_energy": -0.91, "cluster_size": 4, "cluster_id": 1, "rank_in_cluster": 2}

>  <energy>  (59) 
-7.95

>  <cluster_rmsd>  (59) 
0.0

>  <rmsd>  (59) 
269.45

>  <cluster>  (59) 
5

$$$$
JSIQCYHYJBEBBC-RBVFQDFSNA-O
     RDKit          3D

 63 67  0  0  0  0  0  0  0  0999 V2000
  141.1060   79.4630  223.4320 C   0  0  0  0  0  0  0  0  0  0  0  0
  141.8460   78.6180  222.6020 C   0  0  0  0  0  0  0  0  0  0  0  0
  141.2120   77.6890  221.8380 N   0  0  0  0  0  0  0  0  0  0  0  0
  139.8580   77.5510  221.8550 C   0  0  0  0  0  0  0  0  0  0  0  0
  139.0720   78.3720  222.6800 C   0  0  0  0  0  0  0  0  0  0  0  0
  137.5760   78.1880  222.7420 C   0  0  0  0  0  0  0  0  0  0  0  0
  137.0420   77.2460  221.6470 C   0  0  0  0  0  0  0  0  0  0  0  0
  136.4020   75.9560  222.1930 C   0  0  0  0  0  0  0  0  0  0  0  0
  136.8490   74.7680  221.4650 N   0  0  0  0  0  0  0  0  0  0  0  0
  138.1600   74.2090  221.6080 C   0  0  0  0  0  0  0  0  0  0  0  0
  139.2200   74.7570  220.9610 N   0  0  0  0  0  0  0  0  0  0  0  0
  140.4580   74.2120  221.0740 C   0  0  0  0  0  0  0  0  0  0  0  0
  141.5650   74.7700  220.3420 N   0  0  0  0  0  0  0  0  0  0  0  0
  141.3420   75.4970  219.0850 C   0  0  0  0  0  0  0  0  0  0  0  0
  142.2350   76.7550  218.9830 C   0  0  0  0  0  0  0  0  0  0  0  0
  143.3770   76.7450  219.9170 N   0  0  0  0  0  0  0  0  0  0  0  0
  143.9440   75.4000  220.0720 C   0  0  0  0  0  0  0  0  0  0  0  0
  142.9380   74.4890  220.7830 C   0  0  0  0  0  0  0  0  0  0  0  0
  140.6310   73.1150  221.8570 N   0  0  0  0  0  0  0  0  0  0  0  0
  139.5790   72.5590  222.5120 C   0  0  0  0  0  0  0  0  0  0  0  0
  139.7740   71.3970  223.3350 N   0  0  0  0  0  0  0  0  0  0  0  0
  139.5480   70.0600  222.7690 C   0  0  0  0  0  0  0  0  0  0  0  0
  138.8990   69.1580  223.8140 C   0  0  0  0  0  0  0  0  0  0  0  0
  139.6720   69.1810  225.1040 C   0  0  0  0  0  0  0  0  0  0  0  0
  139.6010   68.0780  225.9700 C   0  0  0  0  0  0  0  0  0  0  0  0
  140.2560   68.1070  227.2030 C   0  0  0  0  0  0  0  0  0  0  0  0
  140.9740   69.2420  227.5890 C   0  0  0  0  0  0  0  0  0  0  0  0
  141.0420   70.3500  226.7410 C   0  0  0  0  0  0  0  0  0  0  0  0
  140.3960   70.3320  225.4940 C   0  0  0  0  0  0  0  0  0  0  0  0
  140.5270   71.5370  224.5910 C   0  0  0  0  0  0  0  0  0  0  0  0
  138.3440   73.1090  222.3820 N   0  0  0  0  0  0  0  0  0  0  0  0
  139.7130   79.3490  223.4620 C   0  0  0  0  0  0  0  0  0  0  0  0
  141.6149   80.2118  224.0568 H   0  0  0  0  0  0  0  0  0  0  0  0
  142.9420   78.7041  222.5664 H   0  0  0  0  0  0  0  0  0  0  0  0
  139.3771   76.7928  221.2195 H   0  0  0  0  0  0  0  0  0  0  0  0
  137.3145   77.7680  223.7244 H   0  0  0  0  0  0  0  0  0  0  0  0
  137.1153   79.1741  222.5825 H   0  0  0  0  0  0  0  0  0  0  0  0
  136.2842   77.7884  221.0626 H   0  0  0  0  0  0  0  0  0  0  0  0
  137.9059   76.9415  221.0379 H   0  0  0  0  0  0  0  0  0  0  0  0
  136.6750   75.8459  223.2529 H   0  0  0  0  0  0  0  0  0  0  0  0
  135.3124   76.0396  222.0676 H   0  0  0  0  0  0  0  0  0  0  0  0
  136.1490   74.2540  220.8780 H   0  0  0  0  0  0  0  0  0  0  0  0
  141.5707   74.8287  218.2418 H   0  0  0  0  0  0  0  0  0  0  0  0
  140.2910   75.8208  219.0592 H   0  0  0  0  0  0  0  0  0  0  0  0
  142.6254   76.8222  217.9568 H   0  0  0  0  0  0  0  0  0  0  0  0
  141.6078   77.6187  219.2490 H   0  0  0  0  0  0  0  0  0  0  0  0
  143.0690   77.1030  220.8530 H   0  0  0  0  0  0  0  0  0  0  0  0
  144.1190   77.3890  219.5570 H   0  0  0  0  0  0  0  0  0  0  0  0
  144.1744   74.9847  219.0798 H   0  0  0  0  0  0  0  0  0  0  0  0
  144.8639   75.4616  220.6720 H   0  0  0  0  0  0  0  0  0  0  0  0
  143.1805   73.4403  220.5562 H   0  0  0  0  0  0  0  0  0  0  0  0
  143.0021   74.6758  221.8651 H   0  0  0  0  0  0  0  0  0  0  0  0
  138.8854   70.1411  221.8947 H   0  0  0  0  0  0  0  0  0  0  0  0
  140.5125   69.6271  222.4650 H   0  0  0  0  0  0  0  0  0  0  0  0
  137.8734   69.5077  224.0034 H   0  0  0  0  0  0  0  0  0  0  0  0
  138.8911   68.1274  223.4296 H   0  0  0  0  0  0  0  0  0  0  0  0
  139.0268   67.1870  225.6759 H   0  0  0  0  0  0  0  0  0  0  0  0
  140.2067   67.2349  227.8716 H   0  0  0  0  0  0  0  0  0  0  0  0
  141.4864   69.2630  228.5621 H   0  0  0  0  0  0  0  0  0  0  0  0
  141.6051   71.2423  227.0519 H   0  0  0  0  0  0  0  0  0  0  0  0
  140.1518   72.4205  225.1283 H   0  0  0  0  0  0  0  0  0  0  0  0
  141.5904   71.6380  224.3283 H   0  0  0  0  0  0  0  0  0  0  0  0
  139.1190   80.0230  224.0968 H   0  0  0  0  0  0  0  0  0  0  0  0
  1  2  2  0
  2  3  1  0
  3  4  2  0
  4  5  1  0
  5  6  1  0
  6  7  1  0
  7  8  1  0
  8  9  1  0
  9 10  1  0
 10 11  2  0
 11 12  1  0
 12 13  1  0
 13 14  1  0
 14 15  1  0
 15 16  1  0
 16 17  1  0
 17 18  1  0
 12 19  2  0
 19 20  1  0
 20 21  1  0
 21 22  1  0
 22 23  1  0
 23 24  1  0
 24 25  2  0
 25 26  1  0
 26 27  2  0
 27 28  1  0
 28 29  2  0
 29 30  1  0
 20 31  2  0
  5 32  2  0
 32  1  1  0
 31 10  1  0
 18 13  1  0
 30 21  1  0
 29 24  1  0
  1 33  1  0
  2 34  1  0
  4 35  1  0
  6 36  1  0
  6 37  1  0
  7 38  1  0
  7 39  1  0
  8 40  1  0
  8 41  1  0
  9 42  1  0
 14 43  1  0
 14 44  1  0
 15 45  1  0
 15 46  1  0
 16 47  1  0
 16 48  1  0
 17 49  1  0
 17 50  1  0
 18 51  1  0
 18 52  1  0
 22 53  1  0
 22 54  1  0
 23 55  1  0
 23 56  1  0
 25 57  1  0
 26 58  1  0
 27 59  1  0
 28 60  1  0
 30 61  1  0
 30 62  1  0
 32 63  1  0
M  CHG  1  16   1
M  END
>  <UniqueID>  (60) 
627

>  <SMILES>  (60) 
c1cncc(CCCNc2nc(N3CC[NH2+]CC3)nc(N3CCc4ccccc4C3)n2)c1

>  <Energy>  (60) 
68.37971912434385

>  <Genealogy>  (60) 
c1cncc(CCCNc2nc(N3CC[NH2+]CC3)nc(N3CCc4ccccc4C3)n2)c1 (protonated)
c1cncc(CCCNc2nc(N3CC[NH2+]CC3)nc(N3CCc4ccccc4C3)n2)c1 (3D coordinates assigned)
c1cncc(CCCNc2nc(N3CC[NH2+]CC3)nc(N3CCc4ccccc4C3)n2)c1 (nonaromatic ring conformer: 68.37971912434385 kcal/mol)

>  <smiles>  (60) 
c1cncc(CCCNc2nc(N3CCNCC3)nc(N3CCc4ccccc4C3)n2)c1

>  <score_type>  (60) 
oracle

>  <origin>  (60) 
autodockgpu

>  <m_score__min__energy>  (60) 
-9.4199999999999999

>  <m_primary>  (60) 
energy

>  <meeko>  (60) 
{"free_energy": -8.11, "intermolecular_energy": -10.2, "internal_energy": -2.19, "cluster_size": 10, "cluster_id": 2, "rank_in_cluster": 7}

>  <energy>  (60) 
-7.64

>  <cluster_rmsd>  (60) 
0.0

>  <rmsd>  (60) 
270.12

>  <cluster>  (60) 
6

$$$$
JSIQCYHYJBEBBC-ILSJVODNNA-P
     RDKit          3D

 64 68  0  0  0  0  0  0  0  0999 V2000
  143.7035   77.0283  216.8940 H   0  0  0  0  0  0  0  0  0  0  0  0
  143.1220   77.3320  217.7770 C   0  0  0  0  0  0  0  0  0  0  0  0
  143.2680   76.6610  218.9500 N   0  0  0  0  0  0  0  0  0  0  0  0
  142.5760   77.0140  220.0640 C   0  0  0  0  0  0  0  0  0  0  0  0
  142.7239   76.4554  221.0000 H   0  0  0  0  0  0  0  0  0  0  0  0
  141.6730   78.0880  220.0270 C   0  0  0  0  0  0  0  0  0  0  0  0
  140.8770   78.4650  221.2510 C   0  0  0  0  0  0  0  0  0  0  0  0
  141.5464   78.9587  221.9708 H   0  0  0  0  0  0  0  0  0  0  0  0
  140.0660   79.1367  220.9330 H   0  0  0  0  0  0  0  0  0  0  0  0
  140.2390   77.2420  221.9270 C   0  0  0  0  0  0  0  0  0  0  0  0
  140.8839   76.3676  221.7550 H   0  0  0  0  0  0  0  0  0  0  0  0
  140.1396   77.4670  222.9991 H   0  0  0  0  0  0  0  0  0  0  0  0
  138.8330   76.9330  221.3820 C   0  0  0  0  0  0  0  0  0  0  0  0
  138.0942   77.5444  221.9209 H   0  0  0  0  0  0  0  0  0  0  0  0
  138.8105   77.1671  220.3074 H   0  0  0  0  0  0  0  0  0  0  0  0
  138.5080   75.5140  221.5630 N   0  0  0  0  0  0  0  0  0  0  0  0
  137.4930   75.2720  221.6480 H   0  0  0  0  0  0  0  0  0  0  0  0
  139.3850   74.5420  221.5950 C   0  0  0  0  0  0  0  0  0  0  0  0
  140.4580   74.5950  220.7610 N   0  0  0  0  0  0  0  0  0  0  0  0
  141.3920   73.6060  220.7540 C   0  0  0  0  0  0  0  0  0  0  0  0
  142.5570   73.7010  219.9040 N   0  0  0  0  0  0  0  0  0  0  0  0
  142.3650   73.8820  218.4550 C   0  0  0  0  0  0  0  0  0  0  0  0
  141.5288   73.2491  218.1231 H   0  0  0  0  0  0  0  0  0  0  0  0
  142.1508   74.9440  218.2644 H   0  0  0  0  0  0  0  0  0  0  0  0
  143.6240   73.4960  217.6710 C   0  0  0  0  0  0  0  0  0  0  0  0
  143.7513   72.4041  217.7094 H   0  0  0  0  0  0  0  0  0  0  0  0
  143.5069   73.8333  216.6306 H   0  0  0  0  0  0  0  0  0  0  0  0
  144.8130   74.1380  218.2400 N   0  0  0  0  0  0  0  0  0  0  0  0
  144.7050   75.1780  218.2170 H   0  0  0  0  0  0  0  0  0  0  0  0
  145.6460   73.8760  217.6640 H   0  0  0  0  0  0  0  0  0  0  0  0
  145.0260   73.6900  219.6200 C   0  0  0  0  0  0  0  0  0  0  0  0
  145.1350   72.5955  219.6311 H   0  0  0  0  0  0  0  0  0  0  0  0
  145.9361   74.1693  220.0099 H   0  0  0  0  0  0  0  0  0  0  0  0
  143.8430   74.0860  220.5090 C   0  0  0  0  0  0  0  0  0  0  0  0
  143.9441   73.5836  221.4823 H   0  0  0  0  0  0  0  0  0  0  0  0
  143.8533   75.1795  220.6281 H   0  0  0  0  0  0  0  0  0  0  0  0
  141.2400   72.5510  221.5970 N   0  0  0  0  0  0  0  0  0  0  0  0
  140.1840   72.4860  222.4440 C   0  0  0  0  0  0  0  0  0  0  0  0
  140.0580   71.3760  223.3420 N   0  0  0  0  0  0  0  0  0  0  0  0
  140.5980   71.5050  224.7030 C   0  0  0  0  0  0  0  0  0  0  0  0
  140.1084   72.3590  225.1938 H   0  0  0  0  0  0  0  0  0  0  0  0
  141.6847   71.6484  224.6111 H   0  0  0  0  0  0  0  0  0  0  0  0
  140.3780   70.2740  225.5500 C   0  0  0  0  0  0  0  0  0  0  0  0
  141.0700   70.1430  226.7670 C   0  0  0  0  0  0  0  0  0  0  0  0
  141.7795   70.9237  227.0785 H   0  0  0  0  0  0  0  0  0  0  0  0
  140.8630   69.0290  227.5830 C   0  0  0  0  0  0  0  0  0  0  0  0
  141.4197   68.9275  228.5263 H   0  0  0  0  0  0  0  0  0  0  0  0
  139.9490   68.0430  227.2020 C   0  0  0  0  0  0  0  0  0  0  0  0
  139.7842   67.1677  227.8475 H   0  0  0  0  0  0  0  0  0  0  0  0
  139.2430   68.1680  226.0000 C   0  0  0  0  0  0  0  0  0  0  0  0
  138.5156   67.3957  225.7095 H   0  0  0  0  0  0  0  0  0  0  0  0
  139.4590   69.2750  225.1630 C   0  0  0  0  0  0  0  0  0  0  0  0
  138.6910   69.4160  223.8770 C   0  0  0  0  0  0  0  0  0  0  0  0
  137.7919   70.0246  224.0535 H   0  0  0  0  0  0  0  0  0  0  0  0
  138.3987   68.4184  223.5174 H   0  0  0  0  0  0  0  0  0  0  0  0
  139.5640   70.0950  222.8250 C   0  0  0  0  0  0  0  0  0  0  0  0
  138.9699   70.2724  221.9164 H   0  0  0  0  0  0  0  0  0  0  0  0
  140.4189   69.4449  222.5873 H   0  0  0  0  0  0  0  0  0  0  0  0
  139.2560   73.4790  222.4460 N   0  0  0  0  0  0  0  0  0  0  0  0
  138.4420   73.3860  223.0920 H   0  0  0  0  0  0  0  0  0  0  0  0
  141.5100   78.7860  218.8210 C   0  0  0  0  0  0  0  0  0  0  0  0
  140.8103   79.6330  218.7664 H   0  0  0  0  0  0  0  0  0  0  0  0
  142.2340   78.4070  217.6920 C   0  0  0  0  0  0  0  0  0  0  0  0
  142.1074   78.9491  216.7433 H   0  0  0  0  0  0  0  0  0  0  0  0
  1  2  1  0
  2  3  2  0
  3  4  1  0
  4  5  1  0
  4  6  2  0
  6  7  1  0
  7  8  1  0
  7  9  1  0
  7 10  1  0
 10 11  1  0
 10 12  1  0
 10 13  1  0
 13 14  1  0
 13 15  1  0
 13 16  1  0
 16 17  1  0
 16 18  2  0
 18 19  1  0
 19 20  2  0
 20 21  1  0
 21 22  1  0
 22 23  1  0
 22 24  1  0
 22 25  1  0
 25 26  1  0
 25 27  1  0
 25 28  1  0
 28 29  1  0
 28 30  1  0
 28 31  1  0
 31 32  1  0
 31 33  1  0
 31 34  1  0
 34 35  1  0
 34 36  1  0
 20 37  1  0
 37 38  2  0
 38 39  1  0
 39 40  1  0
 40 41  1  0
 40 42  1  0
 40 43  1  0
 43 44  2  0
 44 45  1  0
 44 46  1  0
 46 47  1  0
 46 48  2  0
 48 49  1  0
 48 50  1  0
 50 51  1  0
 50 52  2  0
 52 53  1  0
 53 54  1  0
 53 55  1  0
 53 56  1  0
 56 57  1  0
 56 58  1  0
 38 59  1  0
 59 60  1  0
  6 61  1  0
 61 62  1  0
 61 63  2  0
 63 64  1  0
 63  2  1  0
 59 18  1  0
 34 21  1  0
 56 39  1  0
 52 43  1  0
M  CHG  2  16   1  28   1
M  END
>  <UniqueID>  (61) 
628

>  <SMILES>  (61) 
c1cncc(CCC/[NH+]=c2/nc(N3CC[NH2+]CC3)nc(N3CCc4ccccc4C3)[nH]2)c1

>  <Energy>  (61) 
68.7484789067263

>  <Genealogy>  (61) 
c1cncc(CCC[NH2+]c2nc(N3CC[NH2+]CC3)nc(N3CCc4ccccc4C3)n2)c1 (protonated)
c1cncc(CCC[NH+]=c2nc(N3CC[NH2+]CC3)nc(N3CCc4ccccc4C3)[nH]2)c1 (tautomer)
c1cncc(CCC/[NH+]=c2/nc(N3CC[NH2+]CC3)nc(N3CCc4ccccc4C3)[nH]2)c1 (cis-trans isomerization)
c1cncc(CCC/[NH+]=c2/nc(N3CC[NH2+]CC3)nc(N3CCc4ccccc4C3)[nH]2)c1 (3D coordinates assigned)
c1cncc(CCC/[NH+]=c2/nc(N3CC[NH2+]CC3)nc(N3CCc4ccccc4C3)[nH]2)c1 (nonaromatic ring conformer: 68.7484789067263 kcal/mol)

>  <smiles>  (61) 
c1cncc(CCCNc2nc(N3CCNCC3)nc(N3CCc4ccccc4C3)n2)c1

>  <score_type>  (61) 
oracle

>  <origin>  (61) 
autodockgpu

>  <m_score__min__energy>  (61) 
-9.0700000000000003

>  <m_primary>  (61) 
energy

>  <meeko>  (61) 
{"free_energy": -7.66, "intermolecular_energy": -9.75, "internal_energy": -1.45, "cluster_size": 12, "cluster_id": 1, "rank_in_cluster": 12}

>  <energy>  (61) 
-9.07

>  <cluster_rmsd>  (61) 
0.0

>  <rmsd>  (61) 
270.11

>  <cluster>  (61) 
1

$$$$
JSIQCYHYJBEBBC-ILSJVODNNA-P
     RDKit          3D

 64 68  0  0  0  0  0  0  0  0999 V2000
  133.5497   71.7923  226.9918 H   0  0  0  0  0  0  0  0  0  0  0  0
  133.8830   72.6760  226.4280 C   0  0  0  0  0  0  0  0  0  0  0  0
  133.5010   73.9180  226.8250 N   0  0  0  0  0  0  0  0  0  0  0  0
  133.9010   75.0340  226.1610 C   0  0  0  0  0  0  0  0  0  0  0  0
  133.5797   76.0254  226.5130 H   0  0  0  0  0  0  0  0  0  0  0  0
  134.7230   74.9270  225.0270 C   0  0  0  0  0  0  0  0  0  0  0  0
  135.1450   76.1590  224.2660 C   0  0  0  0  0  0  0  0  0  0  0  0
  134.2472   76.6554  223.8691 H   0  0  0  0  0  0  0  0  0  0  0  0
  135.6905   76.8152  224.9602 H   0  0  0  0  0  0  0  0  0  0  0  0
  136.0830   75.8240  223.0970 C   0  0  0  0  0  0  0  0  0  0  0  0
  136.5637   76.7519  222.7535 H   0  0  0  0  0  0  0  0  0  0  0  0
  136.8227   75.0955  223.4605 H   0  0  0  0  0  0  0  0  0  0  0  0
  135.3410   75.1840  221.9100 C   0  0  0  0  0  0  0  0  0  0  0  0
  134.3297   74.8931  222.2305 H   0  0  0  0  0  0  0  0  0  0  0  0
  135.2854   75.9161  221.0909 H   0  0  0  0  0  0  0  0  0  0  0  0
  136.0560   73.9950  221.4330 N   0  0  0  0  0  0  0  0  0  0  0  0
  135.5210   73.3420  220.8140 H   0  0  0  0  0  0  0  0  0  0  0  0
  137.3080   73.7160  221.6980 C   0  0  0  0  0  0  0  0  0  0  0  0
  138.2840   74.5200  221.1970 N   0  0  0  0  0  0  0  0  0  0  0  0
  139.5970   74.2670  221.4410 C   0  0  0  0  0  0  0  0  0  0  0  0
  140.6220   75.1600  220.9490 N   0  0  0  0  0  0  0  0  0  0  0  0
  140.3560   76.6090  220.9380 C   0  0  0  0  0  0  0  0  0  0  0  0
  139.3188   76.7801  220.6142 H   0  0  0  0  0  0  0  0  0  0  0  0
  140.5168   76.9984  221.9541 H   0  0  0  0  0  0  0  0  0  0  0  0
  141.3040   77.3440  219.9840 C   0  0  0  0  0  0  0  0  0  0  0  0
  141.0354   77.0945  218.9469 H   0  0  0  0  0  0  0  0  0  0  0  0
  141.2066   78.4258  220.1576 H   0  0  0  0  0  0  0  0  0  0  0  0
  142.6960   76.9560  220.2250 N   0  0  0  0  0  0  0  0  0  0  0  0
  142.9660   77.1800  221.2110 H   0  0  0  0  0  0  0  0  0  0  0  0
  143.3150   77.4960  219.5790 H   0  0  0  0  0  0  0  0  0  0  0  0
  142.8800   75.5220  219.9740 C   0  0  0  0  0  0  0  0  0  0  0  0
  142.5917   75.2975  218.9365 H   0  0  0  0  0  0  0  0  0  0  0  0
  143.9370   75.2674  220.1411 H   0  0  0  0  0  0  0  0  0  0  0  0
  142.0170   74.6880  220.9270 C   0  0  0  0  0  0  0  0  0  0  0  0
  142.0336   73.6386  220.5976 H   0  0  0  0  0  0  0  0  0  0  0  0
  142.4300   74.7880  221.9416 H   0  0  0  0  0  0  0  0  0  0  0  0
  139.9310   73.1890  222.1980 N   0  0  0  0  0  0  0  0  0  0  0  0
  138.9720   72.3830  222.7170 C   0  0  0  0  0  0  0  0  0  0  0  0
  139.3470   71.2660  223.5350 N   0  0  0  0  0  0  0  0  0  0  0  0
  139.7630   71.5160  224.9220 C   0  0  0  0  0  0  0  0  0  0  0  0
  138.9410   72.0242  225.4474 H   0  0  0  0  0  0  0  0  0  0  0  0
  140.6730   72.1329  224.8844 H   0  0  0  0  0  0  0  0  0  0  0  0
  140.1070   70.2540  225.6760 C   0  0  0  0  0  0  0  0  0  0  0  0
  140.7760   70.3500  226.9090 C   0  0  0  0  0  0  0  0  0  0  0  0
  141.0622   71.3377  227.2996 H   0  0  0  0  0  0  0  0  0  0  0  0
  141.0800   69.1990  227.6420 C   0  0  0  0  0  0  0  0  0  0  0  0
  141.6170   69.2819  228.5984 H   0  0  0  0  0  0  0  0  0  0  0  0
  140.7020   67.9440  227.1600 C   0  0  0  0  0  0  0  0  0  0  0  0
  140.9380   67.0394  227.7397 H   0  0  0  0  0  0  0  0  0  0  0  0
  140.0230   67.8350  225.9400 C   0  0  0  0  0  0  0  0  0  0  0  0
  139.7171   66.8453  225.5700 H   0  0  0  0  0  0  0  0  0  0  0  0
  139.7310   68.9840  225.1870 C   0  0  0  0  0  0  0  0  0  0  0  0
  138.9900   68.8690  223.8840 C   0  0  0  0  0  0  0  0  0  0  0  0
  137.9129   69.0010  224.0638 H   0  0  0  0  0  0  0  0  0  0  0  0
  139.1747   67.8761  223.4482 H   0  0  0  0  0  0  0  0  0  0  0  0
  139.4770   69.9430  222.9140 C   0  0  0  0  0  0  0  0  0  0  0  0
  138.8714   69.9087  221.9964 H   0  0  0  0  0  0  0  0  0  0  0  0
  140.5329   69.7588  222.6668 H   0  0  0  0  0  0  0  0  0  0  0  0
  137.6620   72.6440  222.4700 N   0  0  0  0  0  0  0  0  0  0  0  0
  136.9510   71.9890  222.8630 H   0  0  0  0  0  0  0  0  0  0  0  0
  135.1210   73.6500  224.6050 C   0  0  0  0  0  0  0  0  0  0  0  0
  135.7669   73.5399  223.7214 H   0  0  0  0  0  0  0  0  0  0  0  0
  134.6990   72.5200  225.3040 C   0  0  0  0  0  0  0  0  0  0  0  0
  135.0050   71.5161  224.9744 H   0  0  0  0  0  0  0  0  0  0  0  0
  1  2  1  0
  2  3  2  0
  3  4  1  0
  4  5  1  0
  4  6  2  0
  6  7  1  0
  7  8  1  0
  7  9  1  0
  7 10  1  0
 10 11  1  0
 10 12  1  0
 10 13  1  0
 13 14  1  0
 13 15  1  0
 13 16  1  0
 16 17  1  0
 16 18  2  0
 18 19  1  0
 19 20  2  0
 20 21  1  0
 21 22  1  0
 22 23  1  0
 22 24  1  0
 22 25  1  0
 25 26  1  0
 25 27  1  0
 25 28  1  0
 28 29  1  0
 28 30  1  0
 28 31  1  0
 31 32  1  0
 31 33  1  0
 31 34  1  0
 34 35  1  0
 34 36  1  0
 20 37  1  0
 37 38  2  0
 38 39  1  0
 39 40  1  0
 40 41  1  0
 40 42  1  0
 40 43  1  0
 43 44  2  0
 44 45  1  0
 44 46  1  0
 46 47  1  0
 46 48  2  0
 48 49  1  0
 48 50  1  0
 50 51  1  0
 50 52  2  0
 52 53  1  0
 53 54  1  0
 53 55  1  0
 53 56  1  0
 56 57  1  0
 56 58  1  0
 38 59  1  0
 59 60  1  0
  6 61  1  0
 61 62  1  0
 61 63  2  0
 63 64  1  0
 63  2  1  0
 59 18  1  0
 34 21  1  0
 56 39  1  0
 52 43  1  0
M  CHG  2  16   1  28   1
M  END
>  <UniqueID>  (62) 
628

>  <SMILES>  (62) 
c1cncc(CCC/[NH+]=c2/nc(N3CC[NH2+]CC3)nc(N3CCc4ccccc4C3)[nH]2)c1

>  <Energy>  (62) 
68.7484789067263

>  <Genealogy>  (62) 
c1cncc(CCC[NH2+]c2nc(N3CC[NH2+]CC3)nc(N3CCc4ccccc4C3)n2)c1 (protonated)
c1cncc(CCC[NH+]=c2nc(N3CC[NH2+]CC3)nc(N3CCc4ccccc4C3)[nH]2)c1 (tautomer)
c1cncc(CCC/[NH+]=c2/nc(N3CC[NH2+]CC3)nc(N3CCc4ccccc4C3)[nH]2)c1 (cis-trans isomerization)
c1cncc(CCC/[NH+]=c2/nc(N3CC[NH2+]CC3)nc(N3CCc4ccccc4C3)[nH]2)c1 (3D coordinates assigned)
c1cncc(CCC/[NH+]=c2/nc(N3CC[NH2+]CC3)nc(N3CCc4ccccc4C3)[nH]2)c1 (nonaromatic ring conformer: 68.7484789067263 kcal/mol)

>  <smiles>  (62) 
c1cncc(CCCNc2nc(N3CCNCC3)nc(N3CCc4ccccc4C3)n2)c1

>  <score_type>  (62) 
oracle

>  <origin>  (62) 
autodockgpu

>  <m_score__min__energy>  (62) 
-9.0700000000000003

>  <m_primary>  (62) 
energy

>  <meeko>  (62) 
{"free_energy": -8.52, "intermolecular_energy": -10.61, "internal_energy": -0.47, "cluster_size": 3, "cluster_id": 3, "rank_in_cluster": 3}

>  <energy>  (62) 
-8.97

>  <cluster_rmsd>  (62) 
0.97

>  <rmsd>  (62) 
270.17

>  <cluster>  (62) 
1

$$$$
JSIQCYHYJBEBBC-ILSJVODNNA-P
     RDKit          3D

 64 68  0  0  0  0  0  0  0  0999 V2000
  141.1724   68.3233  229.3122 H   0  0  0  0  0  0  0  0  0  0  0  0
  140.9720   68.8650  228.3760 C   0  0  0  0  0  0  0  0  0  0  0  0
  141.0620   70.2210  228.3430 N   0  0  0  0  0  0  0  0  0  0  0  0
  140.8320   70.9230  227.2030 C   0  0  0  0  0  0  0  0  0  0  0  0
  140.9204   72.0194  227.2082 H   0  0  0  0  0  0  0  0  0  0  0  0
  140.4820   70.2560  226.0180 C   0  0  0  0  0  0  0  0  0  0  0  0
  140.1940   71.0320  224.7570 C   0  0  0  0  0  0  0  0  0  0  0  0
  140.2570   72.1073  224.9802 H   0  0  0  0  0  0  0  0  0  0  0  0
  140.9365   70.7368  224.0010 H   0  0  0  0  0  0  0  0  0  0  0  0
  138.7980   70.7240  224.1940 C   0  0  0  0  0  0  0  0  0  0  0  0
  138.6371   69.6363  224.2262 H   0  0  0  0  0  0  0  0  0  0  0  0
  138.0632   71.2609  224.8119 H   0  0  0  0  0  0  0  0  0  0  0  0
  138.6270   71.2050  222.7420 C   0  0  0  0  0  0  0  0  0  0  0  0
  139.2922   70.6224  222.0878 H   0  0  0  0  0  0  0  0  0  0  0  0
  137.5779   71.0627  222.4433 H   0  0  0  0  0  0  0  0  0  0  0  0
  138.9620   72.6280  222.6250 N   0  0  0  0  0  0  0  0  0  0  0  0
  138.3080   73.3030  223.0840 H   0  0  0  0  0  0  0  0  0  0  0  0
  140.0240   73.1010  222.0210 C   0  0  0  0  0  0  0  0  0  0  0  0
  140.1350   74.4450  221.8400 N   0  0  0  0  0  0  0  0  0  0  0  0
  141.2160   74.9830  221.2150 C   0  0  0  0  0  0  0  0  0  0  0  0
  141.3480   76.4160  221.0780 N   0  0  0  0  0  0  0  0  0  0  0  0
  141.0690   77.2700  222.2440 C   0  0  0  0  0  0  0  0  0  0  0  0
  140.1870   76.8780  222.7717 H   0  0  0  0  0  0  0  0  0  0  0  0
  141.9526   77.2603  222.8990 H   0  0  0  0  0  0  0  0  0  0  0  0
  140.7960   78.7180  221.8250 C   0  0  0  0  0  0  0  0  0  0  0  0
  139.8213   78.7681  221.3175 H   0  0  0  0  0  0  0  0  0  0  0  0
  140.7940   79.3494  222.7257 H   0  0  0  0  0  0  0  0  0  0  0  0
  141.8370   79.2060  220.9140 N   0  0  0  0  0  0  0  0  0  0  0  0
  142.7720   79.1590  221.3800 H   0  0  0  0  0  0  0  0  0  0  0  0
  141.6350   80.2030  220.6730 H   0  0  0  0  0  0  0  0  0  0  0  0
  141.8540   78.4100  219.6820 C   0  0  0  0  0  0  0  0  0  0  0  0
  140.8652   78.4652  219.2032 H   0  0  0  0  0  0  0  0  0  0  0  0
  142.6269   78.8140  219.0116 H   0  0  0  0  0  0  0  0  0  0  0  0
  142.1840   76.9450  219.9860 C   0  0  0  0  0  0  0  0  0  0  0  0
  142.0105   76.3447  219.0807 H   0  0  0  0  0  0  0  0  0  0  0  0
  143.2367   76.8874  220.2998 H   0  0  0  0  0  0  0  0  0  0  0  0
  142.1960   74.1560  220.7650 N   0  0  0  0  0  0  0  0  0  0  0  0
  142.1100   72.8150  220.9480 C   0  0  0  0  0  0  0  0  0  0  0  0
  143.1680   71.9640  220.4880 N   0  0  0  0  0  0  0  0  0  0  0  0
  142.8460   70.5850  220.0970 C   0  0  0  0  0  0  0  0  0  0  0  0
  142.0993   70.6158  219.2899 H   0  0  0  0  0  0  0  0  0  0  0  0
  142.4656   70.0717  220.9925 H   0  0  0  0  0  0  0  0  0  0  0  0
  144.0460   69.8090  219.6110 C   0  0  0  0  0  0  0  0  0  0  0  0
  143.9490   68.4130  219.4640 C   0  0  0  0  0  0  0  0  0  0  0  0
  143.0118   67.9000  219.7256 H   0  0  0  0  0  0  0  0  0  0  0  0
  145.0350   67.6740  218.9880 C   0  0  0  0  0  0  0  0  0  0  0  0
  144.9554   66.5813  218.8895 H   0  0  0  0  0  0  0  0  0  0  0  0
  146.2220   68.3220  218.6370 C   0  0  0  0  0  0  0  0  0  0  0  0
  147.0756   67.7392  218.2605 H   0  0  0  0  0  0  0  0  0  0  0  0
  146.3260   69.7130  218.7640 C   0  0  0  0  0  0  0  0  0  0  0  0
  147.2575   70.2210  218.4738 H   0  0  0  0  0  0  0  0  0  0  0  0
  145.2470   70.4620  219.2600 C   0  0  0  0  0  0  0  0  0  0  0  0
  145.3550   71.9570  219.3850 C   0  0  0  0  0  0  0  0  0  0  0  0
  144.9574   72.4293  218.4746 H   0  0  0  0  0  0  0  0  0  0  0  0
  146.4111   72.2353  219.5158 H   0  0  0  0  0  0  0  0  0  0  0  0
  144.5540   72.4340  220.5950 C   0  0  0  0  0  0  0  0  0  0  0  0
  144.5654   73.5334  220.6306 H   0  0  0  0  0  0  0  0  0  0  0  0
  145.0056   72.0296  221.5129 H   0  0  0  0  0  0  0  0  0  0  0  0
  141.0280   72.2860  221.5750 N   0  0  0  0  0  0  0  0  0  0  0  0
  140.9800   71.2490  221.6760 H   0  0  0  0  0  0  0  0  0  0  0  0
  140.3820   68.8570  226.0400 C   0  0  0  0  0  0  0  0  0  0  0  0
  140.1116   68.3108  225.1243 H   0  0  0  0  0  0  0  0  0  0  0  0
  140.6250   68.1590  227.2210 C   0  0  0  0  0  0  0  0  0  0  0  0
  140.5445   67.0622  227.2441 H   0  0  0  0  0  0  0  0  0  0  0  0
  1  2  1  0
  2  3  2  0
  3  4  1  0
  4  5  1  0
  4  6  2  0
  6  7  1  0
  7  8  1  0
  7  9  1  0
  7 10  1  0
 10 11  1  0
 10 12  1  0
 10 13  1  0
 13 14  1  0
 13 15  1  0
 13 16  1  0
 16 17  1  0
 16 18  2  0
 18 19  1  0
 19 20  2  0
 20 21  1  0
 21 22  1  0
 22 23  1  0
 22 24  1  0
 22 25  1  0
 25 26  1  0
 25 27  1  0
 25 28  1  0
 28 29  1  0
 28 30  1  0
 28 31  1  0
 31 32  1  0
 31 33  1  0
 31 34  1  0
 34 35  1  0
 34 36  1  0
 20 37  1  0
 37 38  2  0
 38 39  1  0
 39 40  1  0
 40 41  1  0
 40 42  1  0
 40 43  1  0
 43 44  2  0
 44 45  1  0
 44 46  1  0
 46 47  1  0
 46 48  2  0
 48 49  1  0
 48 50  1  0
 50 51  1  0
 50 52  2  0
 52 53  1  0
 53 54  1  0
 53 55  1  0
 53 56  1  0
 56 57  1  0
 56 58  1  0
 38 59  1  0
 59 60  1  0
  6 61  1  0
 61 62  1  0
 61 63  2  0
 63 64  1  0
 63  2  1  0
 59 18  1  0
 34 21  1  0
 56 39  1  0
 52 43  1  0
M  CHG  2  16   1  28   1
M  END
>  <UniqueID>  (63) 
628

>  <SMILES>  (63) 
c1cncc(CCC/[NH+]=c2/nc(N3CC[NH2+]CC3)nc(N3CCc4ccccc4C3)[nH]2)c1

>  <Energy>  (63) 
68.7484789067263

>  <Genealogy>  (63) 
c1cncc(CCC[NH2+]c2nc(N3CC[NH2+]CC3)nc(N3CCc4ccccc4C3)n2)c1 (protonated)
c1cncc(CCC[NH+]=c2nc(N3CC[NH2+]CC3)nc(N3CCc4ccccc4C3)[nH]2)c1 (tautomer)
c1cncc(CCC/[NH+]=c2/nc(N3CC[NH2+]CC3)nc(N3CCc4ccccc4C3)[nH]2)c1 (cis-trans isomerization)
c1cncc(CCC/[NH+]=c2/nc(N3CC[NH2+]CC3)nc(N3CCc4ccccc4C3)[nH]2)c1 (3D coordinates assigned)
c1cncc(CCC/[NH+]=c2/nc(N3CC[NH2+]CC3)nc(N3CCc4ccccc4C3)[nH]2)c1 (nonaromatic ring conformer: 68.7484789067263 kcal/mol)

>  <smiles>  (63) 
c1cncc(CCCNc2nc(N3CCNCC3)nc(N3CCc4ccccc4C3)n2)c1

>  <score_type>  (63) 
oracle

>  <origin>  (63) 
autodockgpu

>  <m_score__min__energy>  (63) 
-9.0700000000000003

>  <m_primary>  (63) 
energy

>  <meeko>  (63) 
{"free_energy": -8.95, "intermolecular_energy": -11.04, "internal_energy": -0.17, "cluster_size": 3, "cluster_id": 2, "rank_in_cluster": 1}

>  <energy>  (63) 
-8.94

>  <cluster_rmsd>  (63) 
0.68

>  <rmsd>  (63) 
270.05

>  <cluster>  (63) 
1

$$$$
JSIQCYHYJBEBBC-ILSJVODNNA-P
     RDKit          3D

 64 68  0  0  0  0  0  0  0  0999 V2000
  141.8993   81.8834  224.2606 H   0  0  0  0  0  0  0  0  0  0  0  0
  141.5940   80.9270  223.8110 C   0  0  0  0  0  0  0  0  0  0  0  0
  140.2830   80.5680  223.8040 N   0  0  0  0  0  0  0  0  0  0  0  0
  139.8660   79.4010  223.2470 C   0  0  0  0  0  0  0  0  0  0  0  0
  138.7965   79.1439  223.2506 H   0  0  0  0  0  0  0  0  0  0  0  0
  140.7940   78.5220  222.6670 C   0  0  0  0  0  0  0  0  0  0  0  0
  140.3430   77.2100  222.0750 C   0  0  0  0  0  0  0  0  0  0  0  0
  140.2560   77.3245  220.9844 H   0  0  0  0  0  0  0  0  0  0  0  0
  141.0891   76.4458  222.3385 H   0  0  0  0  0  0  0  0  0  0  0  0
  138.9860   76.7580  222.6350 C   0  0  0  0  0  0  0  0  0  0  0  0
  139.1464   75.8872  223.2876 H   0  0  0  0  0  0  0  0  0  0  0  0
  138.5547   77.6052  223.1884 H   0  0  0  0  0  0  0  0  0  0  0  0
  137.9900   76.3680  221.5280 C   0  0  0  0  0  0  0  0  0  0  0  0
  136.9870   76.7276  221.8013 H   0  0  0  0  0  0  0  0  0  0  0  0
  138.3144   76.8263  220.5821 H   0  0  0  0  0  0  0  0  0  0  0  0
  137.9500   74.9120  221.3580 N   0  0  0  0  0  0  0  0  0  0  0  0
  137.0450   74.5030  221.0260 H   0  0  0  0  0  0  0  0  0  0  0  0
  138.9610   74.1040  221.5600 C   0  0  0  0  0  0  0  0  0  0  0  0
  140.0810   74.2490  220.8030 N   0  0  0  0  0  0  0  0  0  0  0  0
  141.1540   73.4310  220.9730 C   0  0  0  0  0  0  0  0  0  0  0  0
  142.3600   73.6300  220.2000 N   0  0  0  0  0  0  0  0  0  0  0  0
  142.6510   74.9720  219.6690 C   0  0  0  0  0  0  0  0  0  0  0  0
  141.7172   75.4203  219.2988 H   0  0  0  0  0  0  0  0  0  0  0  0
  143.0815   75.5785  220.4795 H   0  0  0  0  0  0  0  0  0  0  0  0
  143.6640   74.9130  218.5220 C   0  0  0  0  0  0  0  0  0  0  0  0
  143.1842   74.4616  217.6411 H   0  0  0  0  0  0  0  0  0  0  0  0
  143.9983   75.9364  218.2964 H   0  0  0  0  0  0  0  0  0  0  0  0
  144.8330   74.1110  218.8950 N   0  0  0  0  0  0  0  0  0  0  0  0
  145.2970   74.5230  219.7370 H   0  0  0  0  0  0  0  0  0  0  0  0
  145.5140   74.1160  218.1020 H   0  0  0  0  0  0  0  0  0  0  0  0
  144.4360   72.7260  219.1750 C   0  0  0  0  0  0  0  0  0  0  0  0
  143.9460   72.3042  218.2851 H   0  0  0  0  0  0  0  0  0  0  0  0
  145.3354   72.1453  219.4278 H   0  0  0  0  0  0  0  0  0  0  0  0
  143.4650   72.6680  220.3580 C   0  0  0  0  0  0  0  0  0  0  0  0
  143.0473   71.6528  220.4276 H   0  0  0  0  0  0  0  0  0  0  0  0
  144.0197   72.9279  221.2717 H   0  0  0  0  0  0  0  0  0  0  0  0
  141.0960   72.4550  221.9160 N   0  0  0  0  0  0  0  0  0  0  0  0
  139.9920   72.3030  222.6890 C   0  0  0  0  0  0  0  0  0  0  0  0
  139.9630   71.2820  223.6960 N   0  0  0  0  0  0  0  0  0  0  0  0
  140.4900   71.5940  225.0310 C   0  0  0  0  0  0  0  0  0  0  0  0
  139.9294   72.4488  225.4372 H   0  0  0  0  0  0  0  0  0  0  0  0
  141.5605   71.8193  224.9155 H   0  0  0  0  0  0  0  0  0  0  0  0
  140.3760   70.4410  226.0000 C   0  0  0  0  0  0  0  0  0  0  0  0
  141.0770   70.4930  227.2180 C   0  0  0  0  0  0  0  0  0  0  0  0
  141.7167   71.3591  227.4432 H   0  0  0  0  0  0  0  0  0  0  0  0
  140.9670   69.4530  228.1440 C   0  0  0  0  0  0  0  0  0  0  0  0
  141.5309   69.4948  229.0875 H   0  0  0  0  0  0  0  0  0  0  0  0
  140.1410   68.3600  227.8720 C   0  0  0  0  0  0  0  0  0  0  0  0
  140.0513   67.5437  228.6039 H   0  0  0  0  0  0  0  0  0  0  0  0
  139.4270   68.3020  226.6690 C   0  0  0  0  0  0  0  0  0  0  0  0
  138.7689   67.4448  226.4639 H   0  0  0  0  0  0  0  0  0  0  0  0
  139.5470   69.3330  225.7230 C   0  0  0  0  0  0  0  0  0  0  0  0
  138.7700   69.2760  224.4370 C   0  0  0  0  0  0  0  0  0  0  0  0
  137.8214   69.8194  224.5591 H   0  0  0  0  0  0  0  0  0  0  0  0
  138.5653   68.2256  224.1825 H   0  0  0  0  0  0  0  0  0  0  0  0
  139.5810   69.9180  223.3140 C   0  0  0  0  0  0  0  0  0  0  0  0
  138.9734   69.9517  222.3976 H   0  0  0  0  0  0  0  0  0  0  0  0
  140.4885   69.3228  223.1344 H   0  0  0  0  0  0  0  0  0  0  0  0
  138.9250   73.1250  222.5140 N   0  0  0  0  0  0  0  0  0  0  0  0
  138.0820   72.9650  223.1080 H   0  0  0  0  0  0  0  0  0  0  0  0
  142.1510   78.8790  222.6720 C   0  0  0  0  0  0  0  0  0  0  0  0
  142.8974   78.2084  222.2211 H   0  0  0  0  0  0  0  0  0  0  0  0
  142.5540   80.0830  223.2480 C   0  0  0  0  0  0  0  0  0  0  0  0
  143.6171   80.3654  223.2590 H   0  0  0  0  0  0  0  0  0  0  0  0
  1  2  1  0
  2  3  2  0
  3  4  1  0
  4  5  1  0
  4  6  2  0
  6  7  1  0
  7  8  1  0
  7  9  1  0
  7 10  1  0
 10 11  1  0
 10 12  1  0
 10 13  1  0
 13 14  1  0
 13 15  1  0
 13 16  1  0
 16 17  1  0
 16 18  2  0
 18 19  1  0
 19 20  2  0
 20 21  1  0
 21 22  1  0
 22 23  1  0
 22 24  1  0
 22 25  1  0
 25 26  1  0
 25 27  1  0
 25 28  1  0
 28 29  1  0
 28 30  1  0
 28 31  1  0
 31 32  1  0
 31 33  1  0
 31 34  1  0
 34 35  1  0
 34 36  1  0
 20 37  1  0
 37 38  2  0
 38 39  1  0
 39 40  1  0
 40 41  1  0
 40 42  1  0
 40 43  1  0
 43 44  2  0
 44 45  1  0
 44 46  1  0
 46 47  1  0
 46 48  2  0
 48 49  1  0
 48 50  1  0
 50 51  1  0
 50 52  2  0
 52 53  1  0
 53 54  1  0
 53 55  1  0
 53 56  1  0
 56 57  1  0
 56 58  1  0
 38 59  1  0
 59 60  1  0
  6 61  1  0
 61 62  1  0
 61 63  2  0
 63 64  1  0
 63  2  1  0
 59 18  1  0
 34 21  1  0
 56 39  1  0
 52 43  1  0
M  CHG  2  16   1  28   1
M  END
>  <UniqueID>  (64) 
628

>  <SMILES>  (64) 
c1cncc(CCC/[NH+]=c2/nc(N3CC[NH2+]CC3)nc(N3CCc4ccccc4C3)[nH]2)c1

>  <Energy>  (64) 
68.7484789067263

>  <Genealogy>  (64) 
c1cncc(CCC[NH2+]c2nc(N3CC[NH2+]CC3)nc(N3CCc4ccccc4C3)n2)c1 (protonated)
c1cncc(CCC[NH+]=c2nc(N3CC[NH2+]CC3)nc(N3CCc4ccccc4C3)[nH]2)c1 (tautomer)
c1cncc(CCC/[NH+]=c2/nc(N3CC[NH2+]CC3)nc(N3CCc4ccccc4C3)[nH]2)c1 (cis-trans isomerization)
c1cncc(CCC/[NH+]=c2/nc(N3CC[NH2+]CC3)nc(N3CCc4ccccc4C3)[nH]2)c1 (3D coordinates assigned)
c1cncc(CCC/[NH+]=c2/nc(N3CC[NH2+]CC3)nc(N3CCc4ccccc4C3)[nH]2)c1 (nonaromatic ring conformer: 68.7484789067263 kcal/mol)

>  <smiles>  (64) 
c1cncc(CCCNc2nc(N3CCNCC3)nc(N3CCc4ccccc4C3)n2)c1

>  <score_type>  (64) 
oracle

>  <origin>  (64) 
autodockgpu

>  <m_score__min__energy>  (64) 
-9.0700000000000003

>  <m_primary>  (64) 
energy

>  <meeko>  (64) 
{"free_energy": -8.89, "intermolecular_energy": -10.98, "internal_energy": -0.33, "cluster_size": 12, "cluster_id": 1, "rank_in_cluster": 4}

>  <energy>  (64) 
-8.89

>  <cluster_rmsd>  (64) 
0.8

>  <rmsd>  (64) 
270.16

>  <cluster>  (64) 
1

$$$$
JSIQCYHYJBEBBC-ILSJVODNNA-P
     RDKit          3D

 64 68  0  0  0  0  0  0  0  0999 V2000
  142.1717   82.0067  224.2110 H   0  0  0  0  0  0  0  0  0  0  0  0
  141.8030   81.0790  223.7490 C   0  0  0  0  0  0  0  0  0  0  0  0
  140.4850   80.7590  223.8270 N   0  0  0  0  0  0  0  0  0  0  0  0
  139.9900   79.6280  223.2590 C   0  0  0  0  0  0  0  0  0  0  0  0
  138.9160   79.4024  223.3337 H   0  0  0  0  0  0  0  0  0  0  0  0
  140.8440   78.7460  222.5770 C   0  0  0  0  0  0  0  0  0  0  0  0
  140.3080   77.4730  221.9710 C   0  0  0  0  0  0  0  0  0  0  0  0
  140.0448   77.6641  220.9202 H   0  0  0  0  0  0  0  0  0  0  0  0
  141.0899   76.7037  222.0537 H   0  0  0  0  0  0  0  0  0  0  0  0
  139.0620   76.9610  222.7080 C   0  0  0  0  0  0  0  0  0  0  0  0
  139.3117   76.0124  223.2057 H   0  0  0  0  0  0  0  0  0  0  0  0
  138.7626   77.7322  223.4330 H   0  0  0  0  0  0  0  0  0  0  0  0
  137.8720   76.7230  221.7610 C   0  0  0  0  0  0  0  0  0  0  0  0
  136.9371   76.9652  222.2877 H   0  0  0  0  0  0  0  0  0  0  0  0
  137.9891   77.3666  220.8766 H   0  0  0  0  0  0  0  0  0  0  0  0
  137.8300   75.3230  221.3240 N   0  0  0  0  0  0  0  0  0  0  0  0
  136.9420   74.9970  220.8770 H   0  0  0  0  0  0  0  0  0  0  0  0
  138.8230   74.4760  221.4250 C   0  0  0  0  0  0  0  0  0  0  0  0
  139.8990   74.6200  220.6050 N   0  0  0  0  0  0  0  0  0  0  0  0
  140.9520   73.7620  220.6700 C   0  0  0  0  0  0  0  0  0  0  0  0
  142.1130   73.9580  219.8310 N   0  0  0  0  0  0  0  0  0  0  0  0
  141.9800   74.7760  218.6140 C   0  0  0  0  0  0  0  0  0  0  0  0
  141.0217   74.5409  218.1277 H   0  0  0  0  0  0  0  0  0  0  0  0
  142.0211   75.8364  218.9035 H   0  0  0  0  0  0  0  0  0  0  0  0
  143.1200   74.5010  217.6280 C   0  0  0  0  0  0  0  0  0  0  0  0
  142.9891   73.4973  217.1974 H   0  0  0  0  0  0  0  0  0  0  0  0
  143.0924   75.2655  216.8375 H   0  0  0  0  0  0  0  0  0  0  0  0
  144.4210   74.5690  218.2990 N   0  0  0  0  0  0  0  0  0  0  0  0
  144.5590   75.5160  218.7210 H   0  0  0  0  0  0  0  0  0  0  0  0
  145.1750   74.4050  217.5920 H   0  0  0  0  0  0  0  0  0  0  0  0
  144.5140   73.5410  219.3420 C   0  0  0  0  0  0  0  0  0  0  0  0
  144.3651   72.5507  218.8869 H   0  0  0  0  0  0  0  0  0  0  0  0
  145.5079   73.6012  219.8096 H   0  0  0  0  0  0  0  0  0  0  0  0
  143.4490   73.7640  220.4200 C   0  0  0  0  0  0  0  0  0  0  0  0
  143.4228   72.8865  221.0828 H   0  0  0  0  0  0  0  0  0  0  0  0
  143.7127   74.6727  220.9811 H   0  0  0  0  0  0  0  0  0  0  0  0
  140.9190   72.7450  221.5700 N   0  0  0  0  0  0  0  0  0  0  0  0
  139.8610   72.5920  222.4040 C   0  0  0  0  0  0  0  0  0  0  0  0
  139.8600   71.5270  223.3650 N   0  0  0  0  0  0  0  0  0  0  0  0
  140.3850   71.7910  224.7110 C   0  0  0  0  0  0  0  0  0  0  0  0
  139.8056   72.6127  225.1573 H   0  0  0  0  0  0  0  0  0  0  0  0
  141.4492   72.0473  224.6024 H   0  0  0  0  0  0  0  0  0  0  0  0
  140.3030   70.5930  225.6270 C   0  0  0  0  0  0  0  0  0  0  0  0
  141.0070   70.6080  226.8440 C   0  0  0  0  0  0  0  0  0  0  0  0
  141.6266   71.4783  227.1059 H   0  0  0  0  0  0  0  0  0  0  0  0
  140.9250   69.5250  227.7230 C   0  0  0  0  0  0  0  0  0  0  0  0
  141.4915   69.5380  228.6658 H   0  0  0  0  0  0  0  0  0  0  0  0
  140.1240   68.4260  227.4050 C   0  0  0  0  0  0  0  0  0  0  0  0
  140.0574   67.5757  228.0996 H   0  0  0  0  0  0  0  0  0  0  0  0
  139.4060   68.4050  226.2040 C   0  0  0  0  0  0  0  0  0  0  0  0
  138.7666   67.5428  225.9634 H   0  0  0  0  0  0  0  0  0  0  0  0
  139.4980   69.4800  225.3040 C   0  0  0  0  0  0  0  0  0  0  0  0
  138.7170   69.4630  224.0190 C   0  0  0  0  0  0  0  0  0  0  0  0
  137.7568   69.9785  224.1685 H   0  0  0  0  0  0  0  0  0  0  0  0
  138.5355   68.4206  223.7183 H   0  0  0  0  0  0  0  0  0  0  0  0
  139.5080   70.1730  222.9230 C   0  0  0  0  0  0  0  0  0  0  0  0
  138.8958   70.2337  222.0111 H   0  0  0  0  0  0  0  0  0  0  0  0
  140.4280   69.6076  222.7134 H   0  0  0  0  0  0  0  0  0  0  0  0
  138.8140   73.4550  222.3360 N   0  0  0  0  0  0  0  0  0  0  0  0
  138.0050   73.2930  222.9740 H   0  0  0  0  0  0  0  0  0  0  0  0
  142.2080   79.0630  222.4930 C   0  0  0  0  0  0  0  0  0  0  0  0
  142.8969   78.3898  221.9617 H   0  0  0  0  0  0  0  0  0  0  0  0
  142.6910   80.2300  223.0820 C   0  0  0  0  0  0  0  0  0  0  0  0
  143.7604   80.4806  223.0227 H   0  0  0  0  0  0  0  0  0  0  0  0
  1  2  1  0
  2  3  2  0
  3  4  1  0
  4  5  1  0
  4  6  2  0
  6  7  1  0
  7  8  1  0
  7  9  1  0
  7 10  1  0
 10 11  1  0
 10 12  1  0
 10 13  1  0
 13 14  1  0
 13 15  1  0
 13 16  1  0
 16 17  1  0
 16 18  2  0
 18 19  1  0
 19 20  2  0
 20 21  1  0
 21 22  1  0
 22 23  1  0
 22 24  1  0
 22 25  1  0
 25 26  1  0
 25 27  1  0
 25 28  1  0
 28 29  1  0
 28 30  1  0
 28 31  1  0
 31 32  1  0
 31 33  1  0
 31 34  1  0
 34 35  1  0
 34 36  1  0
 20 37  1  0
 37 38  2  0
 38 39  1  0
 39 40  1  0
 40 41  1  0
 40 42  1  0
 40 43  1  0
 43 44  2  0
 44 45  1  0
 44 46  1  0
 46 47  1  0
 46 48  2  0
 48 49  1  0
 48 50  1  0
 50 51  1  0
 50 52  2  0
 52 53  1  0
 53 54  1  0
 53 55  1  0
 53 56  1  0
 56 57  1  0
 56 58  1  0
 38 59  1  0
 59 60  1  0
  6 61  1  0
 61 62  1  0
 61 63  2  0
 63 64  1  0
 63  2  1  0
 59 18  1  0
 34 21  1  0
 56 39  1  0
 52 43  1  0
M  CHG  2  16   1  28   1
M  END
>  <UniqueID>  (65) 
628

>  <SMILES>  (65) 
c1cncc(CCC/[NH+]=c2/nc(N3CC[NH2+]CC3)nc(N3CCc4ccccc4C3)[nH]2)c1

>  <Energy>  (65) 
68.7484789067263

>  <Genealogy>  (65) 
c1cncc(CCC[NH2+]c2nc(N3CC[NH2+]CC3)nc(N3CCc4ccccc4C3)n2)c1 (protonated)
c1cncc(CCC[NH+]=c2nc(N3CC[NH2+]CC3)nc(N3CCc4ccccc4C3)[nH]2)c1 (tautomer)
c1cncc(CCC/[NH+]=c2/nc(N3CC[NH2+]CC3)nc(N3CCc4ccccc4C3)[nH]2)c1 (cis-trans isomerization)
c1cncc(CCC/[NH+]=c2/nc(N3CC[NH2+]CC3)nc(N3CCc4ccccc4C3)[nH]2)c1 (3D coordinates assigned)
c1cncc(CCC/[NH+]=c2/nc(N3CC[NH2+]CC3)nc(N3CCc4ccccc4C3)[nH]2)c1 (nonaromatic ring conformer: 68.7484789067263 kcal/mol)

>  <smiles>  (65) 
c1cncc(CCCNc2nc(N3CCNCC3)nc(N3CCc4ccccc4C3)n2)c1

>  <score_type>  (65) 
oracle

>  <origin>  (65) 
autodockgpu

>  <m_score__min__energy>  (65) 
-9.0700000000000003

>  <m_primary>  (65) 
energy

>  <meeko>  (65) 
{"free_energy": -8.77, "intermolecular_energy": -10.85, "internal_energy": -0.32, "cluster_size": 12, "cluster_id": 1, "rank_in_cluster": 6}

>  <energy>  (65) 
-8.85

>  <cluster_rmsd>  (65) 
0.68

>  <rmsd>  (65) 
270.13

>  <cluster>  (65) 
1

$$$$
JSIQCYHYJBEBBC-ILSJVODNNA-P
     RDKit          3D

 64 68  0  0  0  0  0  0  0  0999 V2000
  143.4476   81.6909  223.4320 H   0  0  0  0  0  0  0  0  0  0  0  0
  142.7910   80.8380  223.2050 C   0  0  0  0  0  0  0  0  0  0  0  0
  142.5280   79.9110  224.1630 N   0  0  0  0  0  0  0  0  0  0  0  0
  141.7130   78.8510  223.9230 C   0  0  0  0  0  0  0  0  0  0  0  0
  141.5134   78.1225  224.7227 H   0  0  0  0  0  0  0  0  0  0  0  0
  141.1240   78.6800  222.6600 C   0  0  0  0  0  0  0  0  0  0  0  0
  140.2440   77.4880  222.3770 C   0  0  0  0  0  0  0  0  0  0  0  0
  140.6775   76.6031  222.8658 H   0  0  0  0  0  0  0  0  0  0  0  0
  139.2396   77.7082  222.7679 H   0  0  0  0  0  0  0  0  0  0  0  0
  140.1150   77.2090  220.8720 C   0  0  0  0  0  0  0  0  0  0  0  0
  140.1200   78.1683  220.3338 H   0  0  0  0  0  0  0  0  0  0  0  0
  140.9634   76.5744  220.5760 H   0  0  0  0  0  0  0  0  0  0  0  0
  138.8210   76.4530  220.5210 C   0  0  0  0  0  0  0  0  0  0  0  0
  137.9614   77.1257  220.6573 H   0  0  0  0  0  0  0  0  0  0  0  0
  138.8802   76.1167  219.4753 H   0  0  0  0  0  0  0  0  0  0  0  0
  138.6560   75.2800  221.3850 N   0  0  0  0  0  0  0  0  0  0  0  0
  137.7480   75.1990  221.8990 H   0  0  0  0  0  0  0  0  0  0  0  0
  139.5410   74.3260  221.5320 C   0  0  0  0  0  0  0  0  0  0  0  0
  140.6570   74.3360  220.7540 N   0  0  0  0  0  0  0  0  0  0  0  0
  141.6010   73.3640  220.8670 C   0  0  0  0  0  0  0  0  0  0  0  0
  142.8080   73.4160  220.0740 N   0  0  0  0  0  0  0  0  0  0  0  0
  142.6920   73.5340  218.6100 C   0  0  0  0  0  0  0  0  0  0  0  0
  141.8696   72.8910  218.2632 H   0  0  0  0  0  0  0  0  0  0  0  0
  142.4951   74.5875  218.3623 H   0  0  0  0  0  0  0  0  0  0  0  0
  143.9870   73.1080  217.9100 C   0  0  0  0  0  0  0  0  0  0  0  0
  144.1052   72.0184  218.0037 H   0  0  0  0  0  0  0  0  0  0  0  0
  143.9255   73.3985  216.8508 H   0  0  0  0  0  0  0  0  0  0  0  0
  145.1490   73.7700  218.5100 N   0  0  0  0  0  0  0  0  0  0  0  0
  145.0490   74.8090  218.4360 H   0  0  0  0  0  0  0  0  0  0  0  0
  146.0090   73.4810  217.9900 H   0  0  0  0  0  0  0  0  0  0  0  0
  145.2890   73.3840  219.9180 C   0  0  0  0  0  0  0  0  0  0  0  0
  145.3910   72.2907  219.9838 H   0  0  0  0  0  0  0  0  0  0  0  0
  146.1808   73.8773  220.3320 H   0  0  0  0  0  0  0  0  0  0  0  0
  144.0640   73.8240  220.7270 C   0  0  0  0  0  0  0  0  0  0  0  0
  144.1124   73.3657  221.7258 H   0  0  0  0  0  0  0  0  0  0  0  0
  144.0744   74.9217  220.7977 H   0  0  0  0  0  0  0  0  0  0  0  0
  141.4170   72.3690  221.7730 N   0  0  0  0  0  0  0  0  0  0  0  0
  140.3180   72.3480  222.5660 C   0  0  0  0  0  0  0  0  0  0  0  0
  140.1580   71.3020  223.5340 N   0  0  0  0  0  0  0  0  0  0  0  0
  140.6910   71.5060  224.8880 C   0  0  0  0  0  0  0  0  0  0  0  0
  140.2200   72.4024  225.3177 H   0  0  0  0  0  0  0  0  0  0  0  0
  141.7817   71.6157  224.7968 H   0  0  0  0  0  0  0  0  0  0  0  0
  140.4330   70.3390  225.8110 C   0  0  0  0  0  0  0  0  0  0  0  0
  141.1130   70.2710  227.0400 C   0  0  0  0  0  0  0  0  0  0  0  0
  141.8402   71.0523  227.3060 H   0  0  0  0  0  0  0  0  0  0  0  0
  140.8710   69.2170  227.9260 C   0  0  0  0  0  0  0  0  0  0  0  0
  141.4172   69.1636  228.8793 H   0  0  0  0  0  0  0  0  0  0  0  0
  139.9360   68.2320  227.6010 C   0  0  0  0  0  0  0  0  0  0  0  0
  139.7446   67.4045  228.3000 H   0  0  0  0  0  0  0  0  0  0  0  0
  139.2420   68.2960  226.3870 C   0  0  0  0  0  0  0  0  0  0  0  0
  138.4973   67.5248  226.1409 H   0  0  0  0  0  0  0  0  0  0  0  0
  139.4920   69.3400  225.4820 C   0  0  0  0  0  0  0  0  0  0  0  0
  138.7370   69.4150  224.1830 C   0  0  0  0  0  0  0  0  0  0  0  0
  137.8519   70.0554  224.3115 H   0  0  0  0  0  0  0  0  0  0  0  0
  138.4226   68.4034  223.8866 H   0  0  0  0  0  0  0  0  0  0  0  0
  139.6350   70.0030  223.0960 C   0  0  0  0  0  0  0  0  0  0  0  0
  139.0519   70.1363  222.1728 H   0  0  0  0  0  0  0  0  0  0  0  0
  140.4745   69.3176  222.9076 H   0  0  0  0  0  0  0  0  0  0  0  0
  139.3800   73.3240  222.4490 N   0  0  0  0  0  0  0  0  0  0  0  0
  138.5340   73.2630  223.0560 H   0  0  0  0  0  0  0  0  0  0  0  0
  141.3920   79.6290  221.6620 C   0  0  0  0  0  0  0  0  0  0  0  0
  140.9407   79.5196  220.6648 H   0  0  0  0  0  0  0  0  0  0  0  0
  142.2290   80.7100  221.9320 C   0  0  0  0  0  0  0  0  0  0  0  0
  142.4450   81.4545  221.1515 H   0  0  0  0  0  0  0  0  0  0  0  0
  1  2  1  0
  2  3  2  0
  3  4  1  0
  4  5  1  0
  4  6  2  0
  6  7  1  0
  7  8  1  0
  7  9  1  0
  7 10  1  0
 10 11  1  0
 10 12  1  0
 10 13  1  0
 13 14  1  0
 13 15  1  0
 13 16  1  0
 16 17  1  0
 16 18  2  0
 18 19  1  0
 19 20  2  0
 20 21  1  0
 21 22  1  0
 22 23  1  0
 22 24  1  0
 22 25  1  0
 25 26  1  0
 25 27  1  0
 25 28  1  0
 28 29  1  0
 28 30  1  0
 28 31  1  0
 31 32  1  0
 31 33  1  0
 31 34  1  0
 34 35  1  0
 34 36  1  0
 20 37  1  0
 37 38  2  0
 38 39  1  0
 39 40  1  0
 40 41  1  0
 40 42  1  0
 40 43  1  0
 43 44  2  0
 44 45  1  0
 44 46  1  0
 46 47  1  0
 46 48  2  0
 48 49  1  0
 48 50  1  0
 50 51  1  0
 50 52  2  0
 52 53  1  0
 53 54  1  0
 53 55  1  0
 53 56  1  0
 56 57  1  0
 56 58  1  0
 38 59  1  0
 59 60  1  0
  6 61  1  0
 61 62  1  0
 61 63  2  0
 63 64  1  0
 63  2  1  0
 59 18  1  0
 34 21  1  0
 56 39  1  0
 52 43  1  0
M  CHG  2  16   1  28   1
M  END
>  <UniqueID>  (66) 
628

>  <SMILES>  (66) 
c1cncc(CCC/[NH+]=c2/nc(N3CC[NH2+]CC3)nc(N3CCc4ccccc4C3)[nH]2)c1

>  <Energy>  (66) 
68.7484789067263

>  <Genealogy>  (66) 
c1cncc(CCC[NH2+]c2nc(N3CC[NH2+]CC3)nc(N3CCc4ccccc4C3)n2)c1 (protonated)
c1cncc(CCC[NH+]=c2nc(N3CC[NH2+]CC3)nc(N3CCc4ccccc4C3)[nH]2)c1 (tautomer)
c1cncc(CCC/[NH+]=c2/nc(N3CC[NH2+]CC3)nc(N3CCc4ccccc4C3)[nH]2)c1 (cis-trans isomerization)
c1cncc(CCC/[NH+]=c2/nc(N3CC[NH2+]CC3)nc(N3CCc4ccccc4C3)[nH]2)c1 (3D coordinates assigned)
c1cncc(CCC/[NH+]=c2/nc(N3CC[NH2+]CC3)nc(N3CCc4ccccc4C3)[nH]2)c1 (nonaromatic ring conformer: 68.7484789067263 kcal/mol)

>  <smiles>  (66) 
c1cncc(CCCNc2nc(N3CCNCC3)nc(N3CCc4ccccc4C3)n2)c1

>  <score_type>  (66) 
oracle

>  <origin>  (66) 
autodockgpu

>  <m_score__min__energy>  (66) 
-9.0700000000000003

>  <m_primary>  (66) 
energy

>  <meeko>  (66) 
{"free_energy": -8.66, "intermolecular_energy": -10.74, "internal_energy": -0.13, "cluster_size": 12, "cluster_id": 1, "rank_in_cluster": 9}

>  <energy>  (66) 
-8.77

>  <cluster_rmsd>  (66) 
0.55

>  <rmsd>  (66) 
269.95

>  <cluster>  (66) 
1

$$$$
JSIQCYHYJBEBBC-ILSJVODNNA-P
     RDKit          3D

 64 68  0  0  0  0  0  0  0  0999 V2000
  142.9940   81.6721  223.3437 H   0  0  0  0  0  0  0  0  0  0  0  0
  142.4950   80.7500  223.0110 C   0  0  0  0  0  0  0  0  0  0  0  0
  142.2070   80.5710  221.6950 N   0  0  0  0  0  0  0  0  0  0  0  0
  141.6030   79.4410  221.2450 C   0  0  0  0  0  0  0  0  0  0  0  0
  141.3907   79.3240  220.1720 H   0  0  0  0  0  0  0  0  0  0  0  0
  141.2480   78.4210  222.1430 C   0  0  0  0  0  0  0  0  0  0  0  0
  140.5480   77.1770  221.6550 C   0  0  0  0  0  0  0  0  0  0  0  0
  140.3713   77.2710  220.5734 H   0  0  0  0  0  0  0  0  0  0  0  0
  141.1931   76.3153  221.8815 H   0  0  0  0  0  0  0  0  0  0  0  0
  139.2010   76.9560  222.3590 C   0  0  0  0  0  0  0  0  0  0  0  0
  139.3494   76.2519  223.1910 H   0  0  0  0  0  0  0  0  0  0  0  0
  138.8459   77.9344  222.7148 H   0  0  0  0  0  0  0  0  0  0  0  0
  138.1280   76.3850  221.4150 C   0  0  0  0  0  0  0  0  0  0  0  0
  137.1620   76.8631  221.6346 H   0  0  0  0  0  0  0  0  0  0  0  0
  138.4259   76.5882  220.3758 H   0  0  0  0  0  0  0  0  0  0  0  0
  138.0000   74.9350  221.5950 N   0  0  0  0  0  0  0  0  0  0  0  0
  137.0300   74.5430  221.5720 H   0  0  0  0  0  0  0  0  0  0  0  0
  139.0030   74.1060  221.7500 C   0  0  0  0  0  0  0  0  0  0  0  0
  140.1090   74.2600  220.9750 N   0  0  0  0  0  0  0  0  0  0  0  0
  141.1730   73.4210  221.0950 C   0  0  0  0  0  0  0  0  0  0  0  0
  142.3650   73.6280  220.3040 N   0  0  0  0  0  0  0  0  0  0  0  0
  142.6200   74.9630  219.7370 C   0  0  0  0  0  0  0  0  0  0  0  0
  141.6723   75.3816  219.3674 H   0  0  0  0  0  0  0  0  0  0  0  0
  143.0464   75.5985  220.5272 H   0  0  0  0  0  0  0  0  0  0  0  0
  143.6210   74.8980  218.5790 C   0  0  0  0  0  0  0  0  0  0  0  0
  143.1417   74.4137  217.7155 H   0  0  0  0  0  0  0  0  0  0  0  0
  143.9291   75.9225  218.3230 H   0  0  0  0  0  0  0  0  0  0  0  0
  144.8120   74.1320  218.9590 N   0  0  0  0  0  0  0  0  0  0  0  0
  145.2760   74.5760  219.7850 H   0  0  0  0  0  0  0  0  0  0  0  0
  145.4850   74.1330  218.1580 H   0  0  0  0  0  0  0  0  0  0  0  0
  144.4510   72.7460  219.2770 C   0  0  0  0  0  0  0  0  0  0  0  0
  143.9622   72.2908  218.4030 H   0  0  0  0  0  0  0  0  0  0  0  0
  145.3663   72.1929  219.5343 H   0  0  0  0  0  0  0  0  0  0  0  0
  143.4930   72.6950  220.4720 C   0  0  0  0  0  0  0  0  0  0  0  0
  143.0989   71.6727  220.5701 H   0  0  0  0  0  0  0  0  0  0  0  0
  144.0513   72.9893  221.3729 H   0  0  0  0  0  0  0  0  0  0  0  0
  141.1190   72.4150  222.0060 N   0  0  0  0  0  0  0  0  0  0  0  0
  140.0300   72.2540  222.7970 C   0  0  0  0  0  0  0  0  0  0  0  0
  140.0060   71.2010  223.7700 N   0  0  0  0  0  0  0  0  0  0  0  0
  140.5260   71.4740  225.1170 C   0  0  0  0  0  0  0  0  0  0  0  0
  139.9564   72.3101  225.5489 H   0  0  0  0  0  0  0  0  0  0  0  0
  141.5948   71.7126  225.0129 H   0  0  0  0  0  0  0  0  0  0  0  0
  140.4190   70.2890  226.0470 C   0  0  0  0  0  0  0  0  0  0  0  0
  141.1160   70.3080  227.2690 C   0  0  0  0  0  0  0  0  0  0  0  0
  141.7481   71.1715  227.5238 H   0  0  0  0  0  0  0  0  0  0  0  0
  141.0110   69.2380  228.1610 C   0  0  0  0  0  0  0  0  0  0  0  0
  141.5705   69.2548  229.1079 H   0  0  0  0  0  0  0  0  0  0  0  0
  140.1960   68.1470  227.8510 C   0  0  0  0  0  0  0  0  0  0  0  0
  140.1125   67.3062  228.5553 H   0  0  0  0  0  0  0  0  0  0  0  0
  139.4850   68.1220  226.6450 C   0  0  0  0  0  0  0  0  0  0  0  0
  138.8336   67.2671  226.4108 H   0  0  0  0  0  0  0  0  0  0  0  0
  139.6000   69.1840  225.7330 C   0  0  0  0  0  0  0  0  0  0  0  0
  138.8270   69.1630  224.4430 C   0  0  0  0  0  0  0  0  0  0  0  0
  137.8740   69.6951  224.5798 H   0  0  0  0  0  0  0  0  0  0  0  0
  138.6313   68.1198  224.1542 H   0  0  0  0  0  0  0  0  0  0  0  0
  139.6360   69.8470  223.3430 C   0  0  0  0  0  0  0  0  0  0  0  0
  139.0306   69.9054  222.4265 H   0  0  0  0  0  0  0  0  0  0  0  0
  140.5485   69.2650  223.1467 H   0  0  0  0  0  0  0  0  0  0  0  0
  138.9720   73.0970  222.6720 N   0  0  0  0  0  0  0  0  0  0  0  0
  138.1390   72.9290  223.2780 H   0  0  0  0  0  0  0  0  0  0  0  0
  141.5360   78.5960  223.5040 C   0  0  0  0  0  0  0  0  0  0  0  0
  141.2707   77.8106  224.2270 H   0  0  0  0  0  0  0  0  0  0  0  0
  142.1580   79.7640  223.9420 C   0  0  0  0  0  0  0  0  0  0  0  0
  142.3813   79.9080  225.0094 H   0  0  0  0  0  0  0  0  0  0  0  0
  1  2  1  0
  2  3  2  0
  3  4  1  0
  4  5  1  0
  4  6  2  0
  6  7  1  0
  7  8  1  0
  7  9  1  0
  7 10  1  0
 10 11  1  0
 10 12  1  0
 10 13  1  0
 13 14  1  0
 13 15  1  0
 13 16  1  0
 16 17  1  0
 16 18  2  0
 18 19  1  0
 19 20  2  0
 20 21  1  0
 21 22  1  0
 22 23  1  0
 22 24  1  0
 22 25  1  0
 25 26  1  0
 25 27  1  0
 25 28  1  0
 28 29  1  0
 28 30  1  0
 28 31  1  0
 31 32  1  0
 31 33  1  0
 31 34  1  0
 34 35  1  0
 34 36  1  0
 20 37  1  0
 37 38  2  0
 38 39  1  0
 39 40  1  0
 40 41  1  0
 40 42  1  0
 40 43  1  0
 43 44  2  0
 44 45  1  0
 44 46  1  0
 46 47  1  0
 46 48  2  0
 48 49  1  0
 48 50  1  0
 50 51  1  0
 50 52  2  0
 52 53  1  0
 53 54  1  0
 53 55  1  0
 53 56  1  0
 56 57  1  0
 56 58  1  0
 38 59  1  0
 59 60  1  0
  6 61  1  0
 61 62  1  0
 61 63  2  0
 63 64  1  0
 63  2  1  0
 59 18  1  0
 34 21  1  0
 56 39  1  0
 52 43  1  0
M  CHG  2  16   1  28   1
M  END
>  <UniqueID>  (67) 
628

>  <SMILES>  (67) 
c1cncc(CCC/[NH+]=c2/nc(N3CC[NH2+]CC3)nc(N3CCc4ccccc4C3)[nH]2)c1

>  <Energy>  (67) 
68.7484789067263

>  <Genealogy>  (67) 
c1cncc(CCC[NH2+]c2nc(N3CC[NH2+]CC3)nc(N3CCc4ccccc4C3)n2)c1 (protonated)
c1cncc(CCC[NH+]=c2nc(N3CC[NH2+]CC3)nc(N3CCc4ccccc4C3)[nH]2)c1 (tautomer)
c1cncc(CCC/[NH+]=c2/nc(N3CC[NH2+]CC3)nc(N3CCc4ccccc4C3)[nH]2)c1 (cis-trans isomerization)
c1cncc(CCC/[NH+]=c2/nc(N3CC[NH2+]CC3)nc(N3CCc4ccccc4C3)[nH]2)c1 (3D coordinates assigned)
c1cncc(CCC/[NH+]=c2/nc(N3CC[NH2+]CC3)nc(N3CCc4ccccc4C3)[nH]2)c1 (nonaromatic ring conformer: 68.7484789067263 kcal/mol)

>  <smiles>  (67) 
c1cncc(CCCNc2nc(N3CCNCC3)nc(N3CCc4ccccc4C3)n2)c1

>  <score_type>  (67) 
oracle

>  <origin>  (67) 
autodockgpu

>  <m_score__min__energy>  (67) 
-9.0700000000000003

>  <m_primary>  (67) 
energy

>  <meeko>  (67) 
{"free_energy": -8.97, "intermolecular_energy": -11.06, "internal_energy": -0.33, "cluster_size": 12, "cluster_id": 1, "rank_in_cluster": 2}

>  <energy>  (67) 
-8.76

>  <cluster_rmsd>  (67) 
0.51

>  <rmsd>  (67) 
270.22

>  <cluster>  (67) 
1

$$$$
JSIQCYHYJBEBBC-ILSJVODNNA-P
     RDKit          3D

 64 68  0  0  0  0  0  0  0  0999 V2000
  146.0900   74.4340  220.6077 H   0  0  0  0  0  0  0  0  0  0  0  0
  145.5950   73.5280  220.2280 C   0  0  0  0  0  0  0  0  0  0  0  0
  146.0250   72.9520  219.0750 N   0  0  0  0  0  0  0  0  0  0  0  0
  145.4470   71.8260  218.5810 C   0  0  0  0  0  0  0  0  0  0  0  0
  145.8246   71.3803  217.6489 H   0  0  0  0  0  0  0  0  0  0  0  0
  144.3700   71.2290  219.2550 C   0  0  0  0  0  0  0  0  0  0  0  0
  143.7020   69.9970  218.6960 C   0  0  0  0  0  0  0  0  0  0  0  0
  143.5634   70.1295  217.6128 H   0  0  0  0  0  0  0  0  0  0  0  0
  144.3481   69.1338  218.9137 H   0  0  0  0  0  0  0  0  0  0  0  0
  142.3330   69.7370  219.3420 C   0  0  0  0  0  0  0  0  0  0  0  0
  142.3115   68.7038  219.7188 H   0  0  0  0  0  0  0  0  0  0  0  0
  142.2033   70.4673  220.1543 H   0  0  0  0  0  0  0  0  0  0  0  0
  141.1680   69.9260  218.3540 C   0  0  0  0  0  0  0  0  0  0  0  0
  141.5731   70.0826  217.3434 H   0  0  0  0  0  0  0  0  0  0  0  0
  140.5356   69.0262  218.3759 H   0  0  0  0  0  0  0  0  0  0  0  0
  140.3530   71.0850  218.7310 N   0  0  0  0  0  0  0  0  0  0  0  0
  139.6240   71.3890  218.0450 H   0  0  0  0  0  0  0  0  0  0  0  0
  140.4530   71.7370  219.8630 C   0  0  0  0  0  0  0  0  0  0  0  0
  140.7400   73.0660  219.8350 N   0  0  0  0  0  0  0  0  0  0  0  0
  140.8590   73.7840  220.9830 C   0  0  0  0  0  0  0  0  0  0  0  0
  141.1100   75.2070  220.9390 N   0  0  0  0  0  0  0  0  0  0  0  0
  140.6170   76.0500  222.0420 C   0  0  0  0  0  0  0  0  0  0  0  0
  139.6126   75.7081  222.3324 H   0  0  0  0  0  0  0  0  0  0  0  0
  141.3181   75.9621  222.8850 H   0  0  0  0  0  0  0  0  0  0  0  0
  140.5420   77.5230  221.6290 C   0  0  0  0  0  0  0  0  0  0  0  0
  139.7205   77.6534  220.9092 H   0  0  0  0  0  0  0  0  0  0  0  0
  140.3661   78.1308  222.5288 H   0  0  0  0  0  0  0  0  0  0  0  0
  141.7960   77.9590  221.0090 N   0  0  0  0  0  0  0  0  0  0  0  0
  142.5910   77.8340  221.6780 H   0  0  0  0  0  0  0  0  0  0  0  0
  141.7200   78.9740  220.7670 H   0  0  0  0  0  0  0  0  0  0  0  0
  142.0540   77.1950  219.7830 C   0  0  0  0  0  0  0  0  0  0  0  0
  141.2117   77.3314  219.0888 H   0  0  0  0  0  0  0  0  0  0  0  0
  142.9868   77.5606  219.3288 H   0  0  0  0  0  0  0  0  0  0  0  0
  142.2110   75.7030  220.0960 C   0  0  0  0  0  0  0  0  0  0  0  0
  142.2194   75.1391  219.1516 H   0  0  0  0  0  0  0  0  0  0  0  0
  143.1540   75.5641  220.6449 H   0  0  0  0  0  0  0  0  0  0  0  0
  140.6890   73.1530  222.1750 N   0  0  0  0  0  0  0  0  0  0  0  0
  140.3900   71.8310  222.2230 C   0  0  0  0  0  0  0  0  0  0  0  0
  140.1890   71.1920  223.4910 N   0  0  0  0  0  0  0  0  0  0  0  0
  140.7180   71.8400  224.6990 C   0  0  0  0  0  0  0  0  0  0  0  0
  140.2729   72.8426  224.7812 H   0  0  0  0  0  0  0  0  0  0  0  0
  141.8123   71.8806  224.5952 H   0  0  0  0  0  0  0  0  0  0  0  0
  140.4160   71.0760  225.9650 C   0  0  0  0  0  0  0  0  0  0  0  0
  141.0840   71.4210  227.1540 C   0  0  0  0  0  0  0  0  0  0  0  0
  141.8335   72.2261  227.1455 H   0  0  0  0  0  0  0  0  0  0  0  0
  140.8020   70.7480  228.3460 C   0  0  0  0  0  0  0  0  0  0  0  0
  141.3397   71.0141  229.2680 H   0  0  0  0  0  0  0  0  0  0  0  0
  139.8380   69.7380  228.3670 C   0  0  0  0  0  0  0  0  0  0  0  0
  139.6147   69.2116  229.3067 H   0  0  0  0  0  0  0  0  0  0  0  0
  139.1550   69.3940  227.1940 C   0  0  0  0  0  0  0  0  0  0  0  0
  138.3872   68.6067  227.2183 H   0  0  0  0  0  0  0  0  0  0  0  0
  139.4460   70.0500  225.9860 C   0  0  0  0  0  0  0  0  0  0  0  0
  138.7040   69.6900  224.7290 C   0  0  0  0  0  0  0  0  0  0  0  0
  137.8398   70.3601  224.6103 H   0  0  0  0  0  0  0  0  0  0  0  0
  138.3581   68.6480  224.7969 H   0  0  0  0  0  0  0  0  0  0  0  0
  139.6290   69.8370  223.5230 C   0  0  0  0  0  0  0  0  0  0  0  0
  139.0583   69.6555  222.6003 H   0  0  0  0  0  0  0  0  0  0  0  0
  140.4477   69.1065  223.6011 H   0  0  0  0  0  0  0  0  0  0  0  0
  140.2710   71.1220  221.0710 N   0  0  0  0  0  0  0  0  0  0  0  0
  140.0660   70.1020  221.1440 H   0  0  0  0  0  0  0  0  0  0  0  0
  143.9130   71.8160  220.4440 C   0  0  0  0  0  0  0  0  0  0  0  0
  143.0721   71.3656  220.9917 H   0  0  0  0  0  0  0  0  0  0  0  0
  144.5240   72.9700  220.9320 C   0  0  0  0  0  0  0  0  0  0  0  0
  144.1669   73.4369  221.8618 H   0  0  0  0  0  0  0  0  0  0  0  0
  1  2  1  0
  2  3  2  0
  3  4  1  0
  4  5  1  0
  4  6  2  0
  6  7  1  0
  7  8  1  0
  7  9  1  0
  7 10  1  0
 10 11  1  0
 10 12  1  0
 10 13  1  0
 13 14  1  0
 13 15  1  0
 13 16  1  0
 16 17  1  0
 16 18  2  0
 18 19  1  0
 19 20  2  0
 20 21  1  0
 21 22  1  0
 22 23  1  0
 22 24  1  0
 22 25  1  0
 25 26  1  0
 25 27  1  0
 25 28  1  0
 28 29  1  0
 28 30  1  0
 28 31  1  0
 31 32  1  0
 31 33  1  0
 31 34  1  0
 34 35  1  0
 34 36  1  0
 20 37  1  0
 37 38  2  0
 38 39  1  0
 39 40  1  0
 40 41  1  0
 40 42  1  0
 40 43  1  0
 43 44  2  0
 44 45  1  0
 44 46  1  0
 46 47  1  0
 46 48  2  0
 48 49  1  0
 48 50  1  0
 50 51  1  0
 50 52  2  0
 52 53  1  0
 53 54  1  0
 53 55  1  0
 53 56  1  0
 56 57  1  0
 56 58  1  0
 38 59  1  0
 59 60  1  0
  6 61  1  0
 61 62  1  0
 61 63  2  0
 63 64  1  0
 63  2  1  0
 59 18  1  0
 34 21  1  0
 56 39  1  0
 52 43  1  0
M  CHG  2  16   1  28   1
M  END
>  <UniqueID>  (68) 
628

>  <SMILES>  (68) 
c1cncc(CCC/[NH+]=c2/nc(N3CC[NH2+]CC3)nc(N3CCc4ccccc4C3)[nH]2)c1

>  <Energy>  (68) 
68.7484789067263

>  <Genealogy>  (68) 
c1cncc(CCC[NH2+]c2nc(N3CC[NH2+]CC3)nc(N3CCc4ccccc4C3)n2)c1 (protonated)
c1cncc(CCC[NH+]=c2nc(N3CC[NH2+]CC3)nc(N3CCc4ccccc4C3)[nH]2)c1 (tautomer)
c1cncc(CCC/[NH+]=c2/nc(N3CC[NH2+]CC3)nc(N3CCc4ccccc4C3)[nH]2)c1 (cis-trans isomerization)
c1cncc(CCC/[NH+]=c2/nc(N3CC[NH2+]CC3)nc(N3CCc4ccccc4C3)[nH]2)c1 (3D coordinates assigned)
c1cncc(CCC/[NH+]=c2/nc(N3CC[NH2+]CC3)nc(N3CCc4ccccc4C3)[nH]2)c1 (nonaromatic ring conformer: 68.7484789067263 kcal/mol)

>  <smiles>  (68) 
c1cncc(CCCNc2nc(N3CCNCC3)nc(N3CCc4ccccc4C3)n2)c1

>  <score_type>  (68) 
oracle

>  <origin>  (68) 
autodockgpu

>  <m_score__min__energy>  (68) 
-9.0700000000000003

>  <m_primary>  (68) 
energy

>  <meeko>  (68) 
{"free_energy": -8.22, "intermolecular_energy": -10.3, "internal_energy": -0.87, "cluster_size": 3, "cluster_id": 2, "rank_in_cluster": 3}

>  <energy>  (68) 
-8.68

>  <cluster_rmsd>  (68) 
1.22

>  <rmsd>  (68) 
270.1

>  <cluster>  (68) 
1

$$$$
JSIQCYHYJBEBBC-ILSJVODNNA-P
     RDKit          3D

 64 68  0  0  0  0  0  0  0  0999 V2000
  132.4721   75.7531  227.9593 H   0  0  0  0  0  0  0  0  0  0  0  0
  133.0990   75.2550  227.2050 C   0  0  0  0  0  0  0  0  0  0  0  0
  133.0430   73.9050  227.0600 N   0  0  0  0  0  0  0  0  0  0  0  0
  133.7930   73.2560  226.1320 C   0  0  0  0  0  0  0  0  0  0  0  0
  133.7182   72.1628  226.0352 H   0  0  0  0  0  0  0  0  0  0  0  0
  134.6630   73.9730  225.2960 C   0  0  0  0  0  0  0  0  0  0  0  0
  135.5220   73.2560  224.2850 C   0  0  0  0  0  0  0  0  0  0  0  0
  136.5646   73.5836  224.4099 H   0  0  0  0  0  0  0  0  0  0  0  0
  135.4188   72.1749  224.4598 H   0  0  0  0  0  0  0  0  0  0  0  0
  135.0820   73.5450  222.8420 C   0  0  0  0  0  0  0  0  0  0  0  0
  135.4449   72.7338  222.1937 H   0  0  0  0  0  0  0  0  0  0  0  0
  133.9839   73.6092  222.8348 H   0  0  0  0  0  0  0  0  0  0  0  0
  135.6310   74.8820  222.3130 C   0  0  0  0  0  0  0  0  0  0  0  0
  134.8081   75.4587  221.8655 H   0  0  0  0  0  0  0  0  0  0  0  0
  136.0750   75.4389  223.1513 H   0  0  0  0  0  0  0  0  0  0  0  0
  136.6650   74.6520  221.2990 N   0  0  0  0  0  0  0  0  0  0  0  0
  136.4080   74.8680  220.3080 H   0  0  0  0  0  0  0  0  0  0  0  0
  137.8800   74.2290  221.5480 C   0  0  0  0  0  0  0  0  0  0  0  0
  138.9330   74.8930  221.0020 N   0  0  0  0  0  0  0  0  0  0  0  0
  140.2120   74.4890  221.2280 C   0  0  0  0  0  0  0  0  0  0  0  0
  141.3250   75.2360  220.6870 N   0  0  0  0  0  0  0  0  0  0  0  0
  141.1880   76.6910  220.5130 C   0  0  0  0  0  0  0  0  0  0  0  0
  140.1803   76.9122  220.1314 H   0  0  0  0  0  0  0  0  0  0  0  0
  141.3514   77.1724  221.4885 H   0  0  0  0  0  0  0  0  0  0  0  0
  142.2250   77.2380  219.5270 C   0  0  0  0  0  0  0  0  0  0  0  0
  141.9681   76.9023  218.5115 H   0  0  0  0  0  0  0  0  0  0  0  0
  142.2169   78.3365  219.5830 H   0  0  0  0  0  0  0  0  0  0  0  0
  143.5700   76.7630  219.8630 N   0  0  0  0  0  0  0  0  0  0  0  0
  143.8280   77.0690  220.8300 H   0  0  0  0  0  0  0  0  0  0  0  0
  144.2540   77.1780  219.1890 H   0  0  0  0  0  0  0  0  0  0  0  0
  143.6350   75.3010  219.7700 C   0  0  0  0  0  0  0  0  0  0  0  0
  143.3595   74.9918  218.7509 H   0  0  0  0  0  0  0  0  0  0  0  0
  144.6601   74.9780  220.0041 H   0  0  0  0  0  0  0  0  0  0  0  0
  142.6740   74.6490  220.7700 C   0  0  0  0  0  0  0  0  0  0  0  0
  142.6090   73.5726  220.5529 H   0  0  0  0  0  0  0  0  0  0  0  0
  143.0630   74.8222  221.7843 H   0  0  0  0  0  0  0  0  0  0  0  0
  140.4300   73.4010  222.0120 N   0  0  0  0  0  0  0  0  0  0  0  0
  139.3930   72.7340  222.5750 C   0  0  0  0  0  0  0  0  0  0  0  0
  139.6490   71.6040  223.4210 N   0  0  0  0  0  0  0  0  0  0  0  0
  140.1420   71.8410  224.7850 C   0  0  0  0  0  0  0  0  0  0  0  0
  139.4118   72.4689  225.3166 H   0  0  0  0  0  0  0  0  0  0  0  0
  141.1226   72.3318  224.6977 H   0  0  0  0  0  0  0  0  0  0  0  0
  140.3450   70.5690  225.5730 C   0  0  0  0  0  0  0  0  0  0  0  0
  141.0630   70.6160  226.7810 C   0  0  0  0  0  0  0  0  0  0  0  0
  141.4869   71.5701  227.1274 H   0  0  0  0  0  0  0  0  0  0  0  0
  141.2420   69.4590  227.5450 C   0  0  0  0  0  0  0  0  0  0  0  0
  141.8180   69.5014  228.4811 H   0  0  0  0  0  0  0  0  0  0  0  0
  140.6890   68.2490  227.1190 C   0  0  0  0  0  0  0  0  0  0  0  0
  140.8265   67.3399  227.7228 H   0  0  0  0  0  0  0  0  0  0  0  0
  139.9600   68.1910  225.9250 C   0  0  0  0  0  0  0  0  0  0  0  0
  139.5163   67.2384  225.5998 H   0  0  0  0  0  0  0  0  0  0  0  0
  139.7930   69.3440  225.1410 C   0  0  0  0  0  0  0  0  0  0  0  0
  138.9990   69.2850  223.8650 C   0  0  0  0  0  0  0  0  0  0  0  0
  137.9545   69.5610  224.0719 H   0  0  0  0  0  0  0  0  0  0  0  0
  139.0393   68.2633  223.4593 H   0  0  0  0  0  0  0  0  0  0  0  0
  139.5870   70.2560  222.8440 C   0  0  0  0  0  0  0  0  0  0  0  0
  138.9516   70.2715  221.9462 H   0  0  0  0  0  0  0  0  0  0  0  0
  140.6017   69.9290  222.5731 H   0  0  0  0  0  0  0  0  0  0  0  0
  138.1190   73.1450  222.3470 N   0  0  0  0  0  0  0  0  0  0  0  0
  137.3440   72.5930  222.7740 H   0  0  0  0  0  0  0  0  0  0  0  0
  134.7330   75.3670  225.4380 C   0  0  0  0  0  0  0  0  0  0  0  0
  135.4044   75.9523  224.7925 H   0  0  0  0  0  0  0  0  0  0  0  0
  133.9520   76.0110  226.3970 C   0  0  0  0  0  0  0  0  0  0  0  0
  134.0069   77.1031  226.5162 H   0  0  0  0  0  0  0  0  0  0  0  0
  1  2  1  0
  2  3  2  0
  3  4  1  0
  4  5  1  0
  4  6  2  0
  6  7  1  0
  7  8  1  0
  7  9  1  0
  7 10  1  0
 10 11  1  0
 10 12  1  0
 10 13  1  0
 13 14  1  0
 13 15  1  0
 13 16  1  0
 16 17  1  0
 16 18  2  0
 18 19  1  0
 19 20  2  0
 20 21  1  0
 21 22  1  0
 22 23  1  0
 22 24  1  0
 22 25  1  0
 25 26  1  0
 25 27  1  0
 25 28  1  0
 28 29  1  0
 28 30  1  0
 28 31  1  0
 31 32  1  0
 31 33  1  0
 31 34  1  0
 34 35  1  0
 34 36  1  0
 20 37  1  0
 37 38  2  0
 38 39  1  0
 39 40  1  0
 40 41  1  0
 40 42  1  0
 40 43  1  0
 43 44  2  0
 44 45  1  0
 44 46  1  0
 46 47  1  0
 46 48  2  0
 48 49  1  0
 48 50  1  0
 50 51  1  0
 50 52  2  0
 52 53  1  0
 53 54  1  0
 53 55  1  0
 53 56  1  0
 56 57  1  0
 56 58  1  0
 38 59  1  0
 59 60  1  0
  6 61  1  0
 61 62  1  0
 61 63  2  0
 63 64  1  0
 63  2  1  0
 59 18  1  0
 34 21  1  0
 56 39  1  0
 52 43  1  0
M  CHG  2  16   1  28   1
M  END
>  <UniqueID>  (69) 
628

>  <SMILES>  (69) 
c1cncc(CCC/[NH+]=c2/nc(N3CC[NH2+]CC3)nc(N3CCc4ccccc4C3)[nH]2)c1

>  <Energy>  (69) 
68.7484789067263

>  <Genealogy>  (69) 
c1cncc(CCC[NH2+]c2nc(N3CC[NH2+]CC3)nc(N3CCc4ccccc4C3)n2)c1 (protonated)
c1cncc(CCC[NH+]=c2nc(N3CC[NH2+]CC3)nc(N3CCc4ccccc4C3)[nH]2)c1 (tautomer)
c1cncc(CCC/[NH+]=c2/nc(N3CC[NH2+]CC3)nc(N3CCc4ccccc4C3)[nH]2)c1 (cis-trans isomerization)
c1cncc(CCC/[NH+]=c2/nc(N3CC[NH2+]CC3)nc(N3CCc4ccccc4C3)[nH]2)c1 (3D coordinates assigned)
c1cncc(CCC/[NH+]=c2/nc(N3CC[NH2+]CC3)nc(N3CCc4ccccc4C3)[nH]2)c1 (nonaromatic ring conformer: 68.7484789067263 kcal/mol)

>  <smiles>  (69) 
c1cncc(CCCNc2nc(N3CCNCC3)nc(N3CCc4ccccc4C3)n2)c1

>  <score_type>  (69) 
oracle

>  <origin>  (69) 
autodockgpu

>  <m_score__min__energy>  (69) 
-9.0700000000000003

>  <m_primary>  (69) 
energy

>  <meeko>  (69) 
{"free_energy": -8.64, "intermolecular_energy": -10.73, "internal_energy": -0.28, "cluster_size": 3, "cluster_id": 3, "rank_in_cluster": 1}

>  <energy>  (69) 
-8.66

>  <cluster_rmsd>  (69) 
0.71

>  <rmsd>  (69) 
270.16

>  <cluster>  (69) 
1

$$$$
JSIQCYHYJBEBBC-ILSJVODNNA-P
     RDKit          3D

 64 68  0  0  0  0  0  0  0  0999 V2000
  143.0311   81.8474  223.0063 H   0  0  0  0  0  0  0  0  0  0  0  0
  142.5630   80.8650  222.8460 C   0  0  0  0  0  0  0  0  0  0  0  0
  142.2190   80.4740  221.5910 N   0  0  0  0  0  0  0  0  0  0  0  0
  141.6510   79.2640  221.3520 C   0  0  0  0  0  0  0  0  0  0  0  0
  141.3926   78.9744  220.3228 H   0  0  0  0  0  0  0  0  0  0  0  0
  141.3920   78.3810  222.4120 C   0  0  0  0  0  0  0  0  0  0  0  0
  140.7320   77.0480  222.1580 C   0  0  0  0  0  0  0  0  0  0  0  0
  140.9053   76.7603  221.1105 H   0  0  0  0  0  0  0  0  0  0  0  0
  141.1710   76.3153  222.8512 H   0  0  0  0  0  0  0  0  0  0  0  0
  139.2180   77.0940  222.4150 C   0  0  0  0  0  0  0  0  0  0  0  0
  138.9918   76.4812  223.3000 H   0  0  0  0  0  0  0  0  0  0  0  0
  138.9374   78.1464  222.5687 H   0  0  0  0  0  0  0  0  0  0  0  0
  138.4010   76.5620  221.2250 C   0  0  0  0  0  0  0  0  0  0  0  0
  137.4198   77.0591  221.2095 H   0  0  0  0  0  0  0  0  0  0  0  0
  138.9504   76.7734  220.2958 H   0  0  0  0  0  0  0  0  0  0  0  0
  138.2050   75.1130  221.3380 N   0  0  0  0  0  0  0  0  0  0  0  0
  137.2210   74.7640  221.2590 H   0  0  0  0  0  0  0  0  0  0  0  0
  139.1650   74.2360  221.4960 C   0  0  0  0  0  0  0  0  0  0  0  0
  140.2830   74.3360  220.7280 N   0  0  0  0  0  0  0  0  0  0  0  0
  141.3040   73.4470  220.8530 C   0  0  0  0  0  0  0  0  0  0  0  0
  142.5100   73.5970  220.0700 N   0  0  0  0  0  0  0  0  0  0  0  0
  142.3970   73.7050  218.6060 C   0  0  0  0  0  0  0  0  0  0  0  0
  141.6322   72.9976  218.2530 H   0  0  0  0  0  0  0  0  0  0  0  0
  142.1177   74.7391  218.3558 H   0  0  0  0  0  0  0  0  0  0  0  0
  143.7280   73.3850  217.9170 C   0  0  0  0  0  0  0  0  0  0  0  0
  143.9332   72.3085  218.0126 H   0  0  0  0  0  0  0  0  0  0  0  0
  143.6519   73.6695  216.8572 H   0  0  0  0  0  0  0  0  0  0  0  0
  144.8280   74.1390  218.5260 N   0  0  0  0  0  0  0  0  0  0  0  0
  144.6450   75.1660  218.4510 H   0  0  0  0  0  0  0  0  0  0  0  0
  145.7130   73.9190  218.0140 H   0  0  0  0  0  0  0  0  0  0  0  0
  144.9860   73.7640  219.9360 C   0  0  0  0  0  0  0  0  0  0  0  0
  145.1751   72.6824  220.0025 H   0  0  0  0  0  0  0  0  0  0  0  0
  145.8314   74.3272  220.3580 H   0  0  0  0  0  0  0  0  0  0  0  0
  143.7230   74.1030  220.7340 C   0  0  0  0  0  0  0  0  0  0  0  0
  143.7992   73.6485  221.7328 H   0  0  0  0  0  0  0  0  0  0  0  0
  143.6448   75.1979  220.8054 H   0  0  0  0  0  0  0  0  0  0  0  0
  141.1950   72.4430  221.7620 N   0  0  0  0  0  0  0  0  0  0  0  0
  140.0940   72.3340  222.5460 C   0  0  0  0  0  0  0  0  0  0  0  0
  140.0130   71.2810  223.5170 N   0  0  0  0  0  0  0  0  0  0  0  0
  140.5400   71.5250  224.8660 C   0  0  0  0  0  0  0  0  0  0  0  0
  140.0111   72.3878  225.2971 H   0  0  0  0  0  0  0  0  0  0  0  0
  141.6198   71.7096  224.7666 H   0  0  0  0  0  0  0  0  0  0  0  0
  140.3700   70.3450  225.7940 C   0  0  0  0  0  0  0  0  0  0  0  0
  141.0610   70.3260  227.0180 C   0  0  0  0  0  0  0  0  0  0  0  0
  141.7344   71.1561  227.2776 H   0  0  0  0  0  0  0  0  0  0  0  0
  140.8990   69.2610  227.9070 C   0  0  0  0  0  0  0  0  0  0  0  0
  141.4549   69.2474  228.8561 H   0  0  0  0  0  0  0  0  0  0  0  0
  140.0310   68.2130  227.5910 C   0  0  0  0  0  0  0  0  0  0  0  0
  139.9021   67.3758  228.2928 H   0  0  0  0  0  0  0  0  0  0  0  0
  139.3250   68.2270  226.3820 C   0  0  0  0  0  0  0  0  0  0  0  0
  138.6322   67.4066  226.1432 H   0  0  0  0  0  0  0  0  0  0  0  0
  139.4970   69.2830  225.4730 C   0  0  0  0  0  0  0  0  0  0  0  0
  138.7300   69.3040  224.1800 C   0  0  0  0  0  0  0  0  0  0  0  0
  137.8044   69.8830  224.3141 H   0  0  0  0  0  0  0  0  0  0  0  0
  138.4836   68.2726  223.8877 H   0  0  0  0  0  0  0  0  0  0  0  0
  139.5770   69.9490  223.0850 C   0  0  0  0  0  0  0  0  0  0  0  0
  138.9790   70.0402  222.1663 H   0  0  0  0  0  0  0  0  0  0  0  0
  140.4598   69.3221  222.8907 H   0  0  0  0  0  0  0  0  0  0  0  0
  139.0800   73.2270  222.4160 N   0  0  0  0  0  0  0  0  0  0  0  0
  138.2360   73.0990  223.0160 H   0  0  0  0  0  0  0  0  0  0  0  0
  141.7380   78.7740  223.7140 C   0  0  0  0  0  0  0  0  0  0  0  0
  141.5479   78.0989  224.5614 H   0  0  0  0  0  0  0  0  0  0  0  0
  142.3230   80.0210  223.9330 C   0  0  0  0  0  0  0  0  0  0  0  0
  142.5927   80.3368  224.9516 H   0  0  0  0  0  0  0  0  0  0  0  0
  1  2  1  0
  2  3  2  0
  3  4  1  0
  4  5  1  0
  4  6  2  0
  6  7  1  0
  7  8  1  0
  7  9  1  0
  7 10  1  0
 10 11  1  0
 10 12  1  0
 10 13  1  0
 13 14  1  0
 13 15  1  0
 13 16  1  0
 16 17  1  0
 16 18  2  0
 18 19  1  0
 19 20  2  0
 20 21  1  0
 21 22  1  0
 22 23  1  0
 22 24  1  0
 22 25  1  0
 25 26  1  0
 25 27  1  0
 25 28  1  0
 28 29  1  0
 28 30  1  0
 28 31  1  0
 31 32  1  0
 31 33  1  0
 31 34  1  0
 34 35  1  0
 34 36  1  0
 20 37  1  0
 37 38  2  0
 38 39  1  0
 39 40  1  0
 40 41  1  0
 40 42  1  0
 40 43  1  0
 43 44  2  0
 44 45  1  0
 44 46  1  0
 46 47  1  0
 46 48  2  0
 48 49  1  0
 48 50  1  0
 50 51  1  0
 50 52  2  0
 52 53  1  0
 53 54  1  0
 53 55  1  0
 53 56  1  0
 56 57  1  0
 56 58  1  0
 38 59  1  0
 59 60  1  0
  6 61  1  0
 61 62  1  0
 61 63  2  0
 63 64  1  0
 63  2  1  0
 59 18  1  0
 34 21  1  0
 56 39  1  0
 52 43  1  0
M  CHG  2  16   1  28   1
M  END
>  <UniqueID>  (70) 
628

>  <SMILES>  (70) 
c1cncc(CCC/[NH+]=c2/nc(N3CC[NH2+]CC3)nc(N3CCc4ccccc4C3)[nH]2)c1

>  <Energy>  (70) 
68.7484789067263

>  <Genealogy>  (70) 
c1cncc(CCC[NH2+]c2nc(N3CC[NH2+]CC3)nc(N3CCc4ccccc4C3)n2)c1 (protonated)
c1cncc(CCC[NH+]=c2nc(N3CC[NH2+]CC3)nc(N3CCc4ccccc4C3)[nH]2)c1 (tautomer)
c1cncc(CCC/[NH+]=c2/nc(N3CC[NH2+]CC3)nc(N3CCc4ccccc4C3)[nH]2)c1 (cis-trans isomerization)
c1cncc(CCC/[NH+]=c2/nc(N3CC[NH2+]CC3)nc(N3CCc4ccccc4C3)[nH]2)c1 (3D coordinates assigned)
c1cncc(CCC/[NH+]=c2/nc(N3CC[NH2+]CC3)nc(N3CCc4ccccc4C3)[nH]2)c1 (nonaromatic ring conformer: 68.7484789067263 kcal/mol)

>  <smiles>  (70) 
c1cncc(CCCNc2nc(N3CCNCC3)nc(N3CCc4ccccc4C3)n2)c1

>  <score_type>  (70) 
oracle

>  <origin>  (70) 
autodockgpu

>  <m_score__min__energy>  (70) 
-9.0700000000000003

>  <m_primary>  (70) 
energy

>  <meeko>  (70) 
{"free_energy": -8.94, "intermolecular_energy": -11.03, "internal_energy": -0.29, "cluster_size": 12, "cluster_id": 1, "rank_in_cluster": 3}

>  <energy>  (70) 
-8.39

>  <cluster_rmsd>  (70) 
1.51

>  <rmsd>  (70) 
269.94

>  <cluster>  (70) 
1

$$$$
JSIQCYHYJBEBBC-ILSJVODNNA-P
     RDKit          3D

 64 68  0  0  0  0  0  0  0  0999 V2000
  142.5151   82.3989  224.0970 H   0  0  0  0  0  0  0  0  0  0  0  0
  142.1500   81.4080  223.7890 C   0  0  0  0  0  0  0  0  0  0  0  0
  140.8210   81.1290  223.8380 N   0  0  0  0  0  0  0  0  0  0  0  0
  140.3310   79.9210  223.4540 C   0  0  0  0  0  0  0  0  0  0  0  0
  139.2485   79.7302  223.4973 H   0  0  0  0  0  0  0  0  0  0  0  0
  141.2010   78.9150  223.0020 C   0  0  0  0  0  0  0  0  0  0  0  0
  140.6690   77.5610  222.6050 C   0  0  0  0  0  0  0  0  0  0  0  0
  141.1303   77.2645  221.6514 H   0  0  0  0  0  0  0  0  0  0  0  0
  140.9184   76.8509  223.4073 H   0  0  0  0  0  0  0  0  0  0  0  0
  139.1420   77.5660  222.4360 C   0  0  0  0  0  0  0  0  0  0  0  0
  138.6893   77.0681  223.3061 H   0  0  0  0  0  0  0  0  0  0  0  0
  138.8183   78.6142  222.3557 H   0  0  0  0  0  0  0  0  0  0  0  0
  138.6870   76.8370  221.1580 C   0  0  0  0  0  0  0  0  0  0  0  0
  137.7747   77.3167  220.7739 H   0  0  0  0  0  0  0  0  0  0  0  0
  139.4924   76.8961  220.4111 H   0  0  0  0  0  0  0  0  0  0  0  0
  138.4070   75.4260  221.4390 N   0  0  0  0  0  0  0  0  0  0  0  0
  137.4030   75.1620  221.5680 H   0  0  0  0  0  0  0  0  0  0  0  0
  139.3120   74.4810  221.5090 C   0  0  0  0  0  0  0  0  0  0  0  0
  140.3970   74.5460  220.6910 N   0  0  0  0  0  0  0  0  0  0  0  0
  141.3600   73.5860  220.7230 C   0  0  0  0  0  0  0  0  0  0  0  0
  142.5340   73.6940  219.8880 N   0  0  0  0  0  0  0  0  0  0  0  0
  142.3610   73.8850  218.4380 C   0  0  0  0  0  0  0  0  0  0  0  0
  141.5332   73.2497  218.0899 H   0  0  0  0  0  0  0  0  0  0  0  0
  142.1434   74.9473  218.2530 H   0  0  0  0  0  0  0  0  0  0  0  0
  143.6320   73.5130  217.6680 C   0  0  0  0  0  0  0  0  0  0  0  0
  143.7662   72.4217  217.7004 H   0  0  0  0  0  0  0  0  0  0  0  0
  143.5261   73.8566  216.6284 H   0  0  0  0  0  0  0  0  0  0  0  0
  144.8090   74.1590  218.2570 N   0  0  0  0  0  0  0  0  0  0  0  0
  144.6950   75.1980  218.2400 H   0  0  0  0  0  0  0  0  0  0  0  0
  145.6510   73.9070  217.6900 H   0  0  0  0  0  0  0  0  0  0  0  0
  145.0070   73.7020  219.6370 C   0  0  0  0  0  0  0  0  0  0  0  0
  145.1229   72.6081  219.6416 H   0  0  0  0  0  0  0  0  0  0  0  0
  145.9089   74.1841  220.0423 H   0  0  0  0  0  0  0  0  0  0  0  0
  143.8100   74.0840  220.5130 C   0  0  0  0  0  0  0  0  0  0  0  0
  143.9018   73.5758  221.4842 H   0  0  0  0  0  0  0  0  0  0  0  0
  143.8112   75.1767  220.6397 H   0  0  0  0  0  0  0  0  0  0  0  0
  141.2260   72.5480  221.5890 N   0  0  0  0  0  0  0  0  0  0  0  0
  140.1580   72.4720  222.4220 C   0  0  0  0  0  0  0  0  0  0  0  0
  140.0510   71.3810  223.3460 N   0  0  0  0  0  0  0  0  0  0  0  0
  140.5960   71.5480  224.7000 C   0  0  0  0  0  0  0  0  0  0  0  0
  140.0980   72.4068  225.1738 H   0  0  0  0  0  0  0  0  0  0  0  0
  141.6803   71.7030  224.5990 H   0  0  0  0  0  0  0  0  0  0  0  0
  140.3960   70.3340  225.5760 C   0  0  0  0  0  0  0  0  0  0  0  0
  141.0960   70.2400  226.7920 C   0  0  0  0  0  0  0  0  0  0  0  0
  141.7972   71.0365  227.0815 H   0  0  0  0  0  0  0  0  0  0  0  0
  140.9070   69.1420  227.6350 C   0  0  0  0  0  0  0  0  0  0  0  0
  141.4692   69.0694  228.5777 H   0  0  0  0  0  0  0  0  0  0  0  0
  140.0040   68.1360  227.2810 C   0  0  0  0  0  0  0  0  0  0  0  0
  139.8540   67.2732  227.9467 H   0  0  0  0  0  0  0  0  0  0  0  0
  139.2900   68.2250  226.0800 C   0  0  0  0  0  0  0  0  0  0  0  0
  138.5704   67.4376  225.8115 H   0  0  0  0  0  0  0  0  0  0  0  0
  139.4880   69.3150  225.2160 C   0  0  0  0  0  0  0  0  0  0  0  0
  138.7120   69.4170  223.9320 C   0  0  0  0  0  0  0  0  0  0  0  0
  137.8061   70.0181  224.0996 H   0  0  0  0  0  0  0  0  0  0  0  0
  138.4305   68.4079  223.5967 H   0  0  0  0  0  0  0  0  0  0  0  0
  139.5710   70.0830  222.8600 C   0  0  0  0  0  0  0  0  0  0  0  0
  138.9701   70.2326  221.9509 H   0  0  0  0  0  0  0  0  0  0  0  0
  140.4327   69.4385  222.6318 H   0  0  0  0  0  0  0  0  0  0  0  0
  139.2020   73.4360  222.3850 N   0  0  0  0  0  0  0  0  0  0  0  0
  138.3810   73.3340  223.0200 H   0  0  0  0  0  0  0  0  0  0  0  0
  142.5760   79.1900  222.9510 C   0  0  0  0  0  0  0  0  0  0  0  0
  143.2778   78.4203  222.5975 H   0  0  0  0  0  0  0  0  0  0  0  0
  143.0530   80.4380  223.3480 C   0  0  0  0  0  0  0  0  0  0  0  0
  144.1305   80.6569  223.3143 H   0  0  0  0  0  0  0  0  0  0  0  0
  1  2  1  0
  2  3  2  0
  3  4  1  0
  4  5  1  0
  4  6  2  0
  6  7  1  0
  7  8  1  0
  7  9  1  0
  7 10  1  0
 10 11  1  0
 10 12  1  0
 10 13  1  0
 13 14  1  0
 13 15  1  0
 13 16  1  0
 16 17  1  0
 16 18  2  0
 18 19  1  0
 19 20  2  0
 20 21  1  0
 21 22  1  0
 22 23  1  0
 22 24  1  0
 22 25  1  0
 25 26  1  0
 25 27  1  0
 25 28  1  0
 28 29  1  0
 28 30  1  0
 28 31  1  0
 31 32  1  0
 31 33  1  0
 31 34  1  0
 34 35  1  0
 34 36  1  0
 20 37  1  0
 37 38  2  0
 38 39  1  0
 39 40  1  0
 40 41  1  0
 40 42  1  0
 40 43  1  0
 43 44  2  0
 44 45  1  0
 44 46  1  0
 46 47  1  0
 46 48  2  0
 48 49  1  0
 48 50  1  0
 50 51  1  0
 50 52  2  0
 52 53  1  0
 53 54  1  0
 53 55  1  0
 53 56  1  0
 56 57  1  0
 56 58  1  0
 38 59  1  0
 59 60  1  0
  6 61  1  0
 61 62  1  0
 61 63  2  0
 63 64  1  0
 63  2  1  0
 59 18  1  0
 34 21  1  0
 56 39  1  0
 52 43  1  0
M  CHG  2  16   1  28   1
M  END
>  <UniqueID>  (71) 
628

>  <SMILES>  (71) 
c1cncc(CCC/[NH+]=c2/nc(N3CC[NH2+]CC3)nc(N3CCc4ccccc4C3)[nH]2)c1

>  <Energy>  (71) 
68.7484789067263

>  <Genealogy>  (71) 
c1cncc(CCC[NH2+]c2nc(N3CC[NH2+]CC3)nc(N3CCc4ccccc4C3)n2)c1 (protonated)
c1cncc(CCC[NH+]=c2nc(N3CC[NH2+]CC3)nc(N3CCc4ccccc4C3)[nH]2)c1 (tautomer)
c1cncc(CCC/[NH+]=c2/nc(N3CC[NH2+]CC3)nc(N3CCc4ccccc4C3)[nH]2)c1 (cis-trans isomerization)
c1cncc(CCC/[NH+]=c2/nc(N3CC[NH2+]CC3)nc(N3CCc4ccccc4C3)[nH]2)c1 (3D coordinates assigned)
c1cncc(CCC/[NH+]=c2/nc(N3CC[NH2+]CC3)nc(N3CCc4ccccc4C3)[nH]2)c1 (nonaromatic ring conformer: 68.7484789067263 kcal/mol)

>  <smiles>  (71) 
c1cncc(CCCNc2nc(N3CCNCC3)nc(N3CCc4ccccc4C3)n2)c1

>  <score_type>  (71) 
oracle

>  <origin>  (71) 
autodockgpu

>  <m_score__min__energy>  (71) 
-9.0700000000000003

>  <m_primary>  (71) 
energy

>  <meeko>  (71) 
{"free_energy": -9.07, "intermolecular_energy": -11.16, "internal_energy": -0.19, "cluster_size": 12, "cluster_id": 1, "rank_in_cluster": 1}

>  <energy>  (71) 
-8.17

>  <cluster_rmsd>  (71) 
1.31

>  <rmsd>  (71) 
269.76

>  <cluster>  (71) 
1

$$$$
JSIQCYHYJBEBBC-ILSJVODNNA-P
     RDKit          3D

 64 68  0  0  0  0  0  0  0  0999 V2000
  142.9321   79.1543  223.4613 H   0  0  0  0  0  0  0  0  0  0  0  0
  141.8590   78.9620  223.3150 C   0  0  0  0  0  0  0  0  0  0  0  0
  141.4440   77.7600  222.8360 N   0  0  0  0  0  0  0  0  0  0  0  0
  140.1270   77.4820  222.6530 C   0  0  0  0  0  0  0  0  0  0  0  0
  139.8237   76.4960  222.2710 H   0  0  0  0  0  0  0  0  0  0  0  0
  139.1510   78.4470  222.9490 C   0  0  0  0  0  0  0  0  0  0  0  0
  137.6890   78.1570  222.7190 C   0  0  0  0  0  0  0  0  0  0  0  0
  137.0991   78.6774  223.4879 H   0  0  0  0  0  0  0  0  0  0  0  0
  137.4289   78.5088  221.7098 H   0  0  0  0  0  0  0  0  0  0  0  0
  137.3790   76.6540  222.7900 C   0  0  0  0  0  0  0  0  0  0  0  0
  138.3268   76.1023  222.8750 H   0  0  0  0  0  0  0  0  0  0  0  0
  136.7332   76.4877  223.6648 H   0  0  0  0  0  0  0  0  0  0  0  0
  136.6230   76.1470  221.5490 C   0  0  0  0  0  0  0  0  0  0  0  0
  135.5413   76.1802  221.7463 H   0  0  0  0  0  0  0  0  0  0  0  0
  136.8742   76.7912  220.6935 H   0  0  0  0  0  0  0  0  0  0  0  0
  137.0130   74.7690  221.2330 N   0  0  0  0  0  0  0  0  0  0  0  0
  136.2990   74.1800  220.7440 H   0  0  0  0  0  0  0  0  0  0  0  0
  138.1850   74.2430  221.4880 C   0  0  0  0  0  0  0  0  0  0  0  0
  139.2870   74.7670  220.8890 N   0  0  0  0  0  0  0  0  0  0  0  0
  140.5240   74.2520  221.1190 C   0  0  0  0  0  0  0  0  0  0  0  0
  141.6940   74.8520  220.5190 N   0  0  0  0  0  0  0  0  0  0  0  0
  141.6030   76.2310  220.0080 C   0  0  0  0  0  0  0  0  0  0  0  0
  140.6349   76.3621  219.5023 H   0  0  0  0  0  0  0  0  0  0  0  0
  141.6960   76.9221  220.8587 H   0  0  0  0  0  0  0  0  0  0  0  0
  142.7290   76.5350  219.0150 C   0  0  0  0  0  0  0  0  0  0  0  0
  142.5491   75.9762  218.0848 H   0  0  0  0  0  0  0  0  0  0  0  0
  142.7403   77.6171  218.8179 H   0  0  0  0  0  0  0  0  0  0  0  0
  144.0320   76.1460  219.5640 N   0  0  0  0  0  0  0  0  0  0  0  0
  144.2160   76.6640  220.4540 H   0  0  0  0  0  0  0  0  0  0  0  0
  144.7770   76.3950  218.8740 H   0  0  0  0  0  0  0  0  0  0  0  0
  144.0730   74.7010  219.8120 C   0  0  0  0  0  0  0  0  0  0  0  0
  143.8761   74.1677  218.8703 H   0  0  0  0  0  0  0  0  0  0  0  0
  145.0681   74.4378  220.2001 H   0  0  0  0  0  0  0  0  0  0  0  0
  143.0190   74.2970  220.8480 C   0  0  0  0  0  0  0  0  0  0  0  0
  142.9492   73.1996  220.8769 H   0  0  0  0  0  0  0  0  0  0  0  0
  143.3264   74.6970  221.8255 H   0  0  0  0  0  0  0  0  0  0  0  0
  140.6510   73.1940  221.9620 N   0  0  0  0  0  0  0  0  0  0  0  0
  139.5650   72.6650  222.5790 C   0  0  0  0  0  0  0  0  0  0  0  0
  139.7260   71.5660  223.4850 N   0  0  0  0  0  0  0  0  0  0  0  0
  140.2160   71.8370  224.8430 C   0  0  0  0  0  0  0  0  0  0  0  0
  139.5259   72.5421  225.3295 H   0  0  0  0  0  0  0  0  0  0  0  0
  141.2306   72.2511  224.7479 H   0  0  0  0  0  0  0  0  0  0  0  0
  140.3160   70.5960  225.6980 C   0  0  0  0  0  0  0  0  0  0  0  0
  141.0190   70.6540  226.9150 C   0  0  0  0  0  0  0  0  0  0  0  0
  141.5067   71.5916  227.2199 H   0  0  0  0  0  0  0  0  0  0  0  0
  141.1020   69.5290  227.7390 C   0  0  0  0  0  0  0  0  0  0  0  0
  141.6666   69.5784  228.6817 H   0  0  0  0  0  0  0  0  0  0  0  0
  140.4680   68.3410  227.3660 C   0  0  0  0  0  0  0  0  0  0  0  0
  140.5316   67.4566  228.0169 H   0  0  0  0  0  0  0  0  0  0  0  0
  139.7520   68.2750  226.1650 C   0  0  0  0  0  0  0  0  0  0  0  0
  139.2432   67.3418  225.8818 H   0  0  0  0  0  0  0  0  0  0  0  0
  139.6800   69.3940  225.3200 C   0  0  0  0  0  0  0  0  0  0  0  0
  138.9010   69.3270  224.0360 C   0  0  0  0  0  0  0  0  0  0  0  0
  137.8771   69.6888  224.2110 H   0  0  0  0  0  0  0  0  0  0  0  0
  138.8714   68.2854  223.6835 H   0  0  0  0  0  0  0  0  0  0  0  0
  139.5720   70.1980  222.9770 C   0  0  0  0  0  0  0  0  0  0  0  0
  138.9510   70.2131  222.0692 H   0  0  0  0  0  0  0  0  0  0  0  0
  140.5633   69.7841  222.7404 H   0  0  0  0  0  0  0  0  0  0  0  0
  138.3330   73.1870  222.3450 N   0  0  0  0  0  0  0  0  0  0  0  0
  137.5160   72.7410  222.8150 H   0  0  0  0  0  0  0  0  0  0  0  0
  139.5670   79.6930  223.4410 C   0  0  0  0  0  0  0  0  0  0  0  0
  138.8217   80.4646  223.6841 H   0  0  0  0  0  0  0  0  0  0  0  0
  140.9240   79.9540  223.6220 C   0  0  0  0  0  0  0  0  0  0  0  0
  141.2557   80.9312  224.0027 H   0  0  0  0  0  0  0  0  0  0  0  0
  1  2  1  0
  2  3  2  0
  3  4  1  0
  4  5  1  0
  4  6  2  0
  6  7  1  0
  7  8  1  0
  7  9  1  0
  7 10  1  0
 10 11  1  0
 10 12  1  0
 10 13  1  0
 13 14  1  0
 13 15  1  0
 13 16  1  0
 16 17  1  0
 16 18  2  0
 18 19  1  0
 19 20  2  0
 20 21  1  0
 21 22  1  0
 22 23  1  0
 22 24  1  0
 22 25  1  0
 25 26  1  0
 25 27  1  0
 25 28  1  0
 28 29  1  0
 28 30  1  0
 28 31  1  0
 31 32  1  0
 31 33  1  0
 31 34  1  0
 34 35  1  0
 34 36  1  0
 20 37  1  0
 37 38  2  0
 38 39  1  0
 39 40  1  0
 40 41  1  0
 40 42  1  0
 40 43  1  0
 43 44  2  0
 44 45  1  0
 44 46  1  0
 46 47  1  0
 46 48  2  0
 48 49  1  0
 48 50  1  0
 50 51  1  0
 50 52  2  0
 52 53  1  0
 53 54  1  0
 53 55  1  0
 53 56  1  0
 56 57  1  0
 56 58  1  0
 38 59  1  0
 59 60  1  0
  6 61  1  0
 61 62  1  0
 61 63  2  0
 63 64  1  0
 63  2  1  0
 59 18  1  0
 34 21  1  0
 56 39  1  0
 52 43  1  0
M  CHG  2  16   1  28   1
M  END
>  <UniqueID>  (72) 
628

>  <SMILES>  (72) 
c1cncc(CCC/[NH+]=c2/nc(N3CC[NH2+]CC3)nc(N3CCc4ccccc4C3)[nH]2)c1

>  <Energy>  (72) 
68.7484789067263

>  <Genealogy>  (72) 
c1cncc(CCC[NH2+]c2nc(N3CC[NH2+]CC3)nc(N3CCc4ccccc4C3)n2)c1 (protonated)
c1cncc(CCC[NH+]=c2nc(N3CC[NH2+]CC3)nc(N3CCc4ccccc4C3)[nH]2)c1 (tautomer)
c1cncc(CCC/[NH+]=c2/nc(N3CC[NH2+]CC3)nc(N3CCc4ccccc4C3)[nH]2)c1 (cis-trans isomerization)
c1cncc(CCC/[NH+]=c2/nc(N3CC[NH2+]CC3)nc(N3CCc4ccccc4C3)[nH]2)c1 (3D coordinates assigned)
c1cncc(CCC/[NH+]=c2/nc(N3CC[NH2+]CC3)nc(N3CCc4ccccc4C3)[nH]2)c1 (nonaromatic ring conformer: 68.7484789067263 kcal/mol)

>  <smiles>  (72) 
c1cncc(CCCNc2nc(N3CCNCC3)nc(N3CCc4ccccc4C3)n2)c1

>  <score_type>  (72) 
oracle

>  <origin>  (72) 
autodockgpu

>  <m_score__min__energy>  (72) 
-9.0700000000000003

>  <m_primary>  (72) 
energy

>  <meeko>  (72) 
{"free_energy": -8.39, "intermolecular_energy": -10.48, "internal_energy": -0.76, "cluster_size": 12, "cluster_id": 1, "rank_in_cluster": 10}

>  <energy>  (72) 
-7.66

>  <cluster_rmsd>  (72) 
1.78

>  <rmsd>  (72) 
269.44

>  <cluster>  (72) 
1

$$$$
JSIQCYHYJBEBBC-ILSJVODNNA-P
     RDKit          3D

 64 68  0  0  0  0  0  0  0  0999 V2000
  141.0824   68.2525  229.2635 H   0  0  0  0  0  0  0  0  0  0  0  0
  140.8650   68.8270  228.3510 C   0  0  0  0  0  0  0  0  0  0  0  0
  140.4040   68.1910  227.2420 N   0  0  0  0  0  0  0  0  0  0  0  0
  140.1140   68.8680  226.1010 C   0  0  0  0  0  0  0  0  0  0  0  0
  139.7346   68.3241  225.2233 H   0  0  0  0  0  0  0  0  0  0  0  0
  140.2960   70.2590  226.0360 C   0  0  0  0  0  0  0  0  0  0  0  0
  140.0060   71.0130  224.7620 C   0  0  0  0  0  0  0  0  0  0  0  0
  139.5859   71.9964  225.0198 H   0  0  0  0  0  0  0  0  0  0  0  0
  140.9501   71.1149  224.2068 H   0  0  0  0  0  0  0  0  0  0  0  0
  139.0070   70.2680  223.8630 C   0  0  0  0  0  0  0  0  0  0  0  0
  139.5383   69.9043  222.9711 H   0  0  0  0  0  0  0  0  0  0  0  0
  138.5847   69.4382  224.4488 H   0  0  0  0  0  0  0  0  0  0  0  0
  137.8390   71.1630  223.4110 C   0  0  0  0  0  0  0  0  0  0  0  0
  136.9373   70.5452  223.2881 H   0  0  0  0  0  0  0  0  0  0  0  0
  137.6703   71.9367  224.1745 H   0  0  0  0  0  0  0  0  0  0  0  0
  138.1510   71.8180  222.1370 N   0  0  0  0  0  0  0  0  0  0  0  0
  137.5300   71.5880  221.3260 H   0  0  0  0  0  0  0  0  0  0  0  0
  139.1200   72.6810  221.9540 C   0  0  0  0  0  0  0  0  0  0  0  0
  140.3020   72.2460  221.4420 N   0  0  0  0  0  0  0  0  0  0  0  0
  141.3380   73.1030  221.2390 C   0  0  0  0  0  0  0  0  0  0  0  0
  142.5700   72.6390  220.6420 N   0  0  0  0  0  0  0  0  0  0  0  0
  143.7440   73.5280  220.6550 C   0  0  0  0  0  0  0  0  0  0  0  0
  143.4169   74.5559  220.4396 H   0  0  0  0  0  0  0  0  0  0  0  0
  144.2130   73.4676  221.6482 H   0  0  0  0  0  0  0  0  0  0  0  0
  144.7780   73.1040  219.6070 C   0  0  0  0  0  0  0  0  0  0  0  0
  144.3844   73.3240  218.6037 H   0  0  0  0  0  0  0  0  0  0  0  0
  145.7086   73.6624  219.7866 H   0  0  0  0  0  0  0  0  0  0  0  0
  145.0670   71.6700  219.7050 N   0  0  0  0  0  0  0  0  0  0  0  0
  145.4350   71.4420  220.6580 H   0  0  0  0  0  0  0  0  0  0  0  0
  145.7960   71.4220  218.9980 H   0  0  0  0  0  0  0  0  0  0  0  0
  143.8560   70.8840  219.4400 C   0  0  0  0  0  0  0  0  0  0  0  0
  143.4763   71.1332  218.4381 H   0  0  0  0  0  0  0  0  0  0  0  0
  144.1095   69.8152  219.4984 H   0  0  0  0  0  0  0  0  0  0  0  0
  142.7720   71.1890  220.4780 C   0  0  0  0  0  0  0  0  0  0  0  0
  141.8264   70.7317  220.1514 H   0  0  0  0  0  0  0  0  0  0  0  0
  143.0955   70.7755  221.4446 H   0  0  0  0  0  0  0  0  0  0  0  0
  141.1800   74.4140  221.5590 N   0  0  0  0  0  0  0  0  0  0  0  0
  140.0050   74.8690  222.0590 C   0  0  0  0  0  0  0  0  0  0  0  0
  139.8530   76.2620  222.3650 N   0  0  0  0  0  0  0  0  0  0  0  0
  141.0600   77.0880  222.5090 C   0  0  0  0  0  0  0  0  0  0  0  0
  141.6334   77.0359  221.5717 H   0  0  0  0  0  0  0  0  0  0  0  0
  141.6283   76.6910  223.3631 H   0  0  0  0  0  0  0  0  0  0  0  0
  140.7560   78.5370  222.8060 C   0  0  0  0  0  0  0  0  0  0  0  0
  141.7940   79.3830  223.2370 C   0  0  0  0  0  0  0  0  0  0  0  0
  142.8073   78.9777  223.3749 H   0  0  0  0  0  0  0  0  0  0  0  0
  141.5470   80.7340  223.4910 C   0  0  0  0  0  0  0  0  0  0  0  0
  142.3613   81.3852  223.8416 H   0  0  0  0  0  0  0  0  0  0  0  0
  140.2660   81.2590  223.3000 C   0  0  0  0  0  0  0  0  0  0  0  0
  140.0738   82.3240  223.4971 H   0  0  0  0  0  0  0  0  0  0  0  0
  139.2270   80.4310  222.8580 C   0  0  0  0  0  0  0  0  0  0  0  0
  138.2231   80.8508  222.6971 H   0  0  0  0  0  0  0  0  0  0  0  0
  139.4610   79.0660  222.6190 C   0  0  0  0  0  0  0  0  0  0  0  0
  138.3490   78.1790  222.1330 C   0  0  0  0  0  0  0  0  0  0  0  0
  138.3726   78.1328  221.0342 H   0  0  0  0  0  0  0  0  0  0  0  0
  137.3848   78.5902  222.4665 H   0  0  0  0  0  0  0  0  0  0  0  0
  138.5210   76.7730  222.7030 C   0  0  0  0  0  0  0  0  0  0  0  0
  137.7553   76.1090  222.2754 H   0  0  0  0  0  0  0  0  0  0  0  0
  138.4110   76.8076  223.7969 H   0  0  0  0  0  0  0  0  0  0  0  0
  138.9740   74.0070  222.2570 N   0  0  0  0  0  0  0  0  0  0  0  0
  138.0930   74.3850  222.6680 H   0  0  0  0  0  0  0  0  0  0  0  0
  140.7750   70.9270  227.1730 C   0  0  0  0  0  0  0  0  0  0  0  0
  140.9232   72.0167  227.1490 H   0  0  0  0  0  0  0  0  0  0  0  0
  141.0630   70.2100  228.3330 C   0  0  0  0  0  0  0  0  0  0  0  0
  141.4426   70.7281  229.2260 H   0  0  0  0  0  0  0  0  0  0  0  0
  1  2  1  0
  2  3  2  0
  3  4  1  0
  4  5  1  0
  4  6  2  0
  6  7  1  0
  7  8  1  0
  7  9  1  0
  7 10  1  0
 10 11  1  0
 10 12  1  0
 10 13  1  0
 13 14  1  0
 13 15  1  0
 13 16  1  0
 16 17  1  0
 16 18  2  0
 18 19  1  0
 19 20  2  0
 20 21  1  0
 21 22  1  0
 22 23  1  0
 22 24  1  0
 22 25  1  0
 25 26  1  0
 25 27  1  0
 25 28  1  0
 28 29  1  0
 28 30  1  0
 28 31  1  0
 31 32  1  0
 31 33  1  0
 31 34  1  0
 34 35  1  0
 34 36  1  0
 20 37  1  0
 37 38  2  0
 38 39  1  0
 39 40  1  0
 40 41  1  0
 40 42  1  0
 40 43  1  0
 43 44  2  0
 44 45  1  0
 44 46  1  0
 46 47  1  0
 46 48  2  0
 48 49  1  0
 48 50  1  0
 50 51  1  0
 50 52  2  0
 52 53  1  0
 53 54  1  0
 53 55  1  0
 53 56  1  0
 56 57  1  0
 56 58  1  0
 38 59  1  0
 59 60  1  0
  6 61  1  0
 61 62  1  0
 61 63  2  0
 63 64  1  0
 63  2  1  0
 59 18  1  0
 34 21  1  0
 56 39  1  0
 52 43  1  0
M  CHG  2  16   1  28   1
M  END
>  <UniqueID>  (73) 
628

>  <SMILES>  (73) 
c1cncc(CCC/[NH+]=c2/nc(N3CC[NH2+]CC3)nc(N3CCc4ccccc4C3)[nH]2)c1

>  <Energy>  (73) 
68.7484789067263

>  <Genealogy>  (73) 
c1cncc(CCC[NH2+]c2nc(N3CC[NH2+]CC3)nc(N3CCc4ccccc4C3)n2)c1 (protonated)
c1cncc(CCC[NH+]=c2nc(N3CC[NH2+]CC3)nc(N3CCc4ccccc4C3)[nH]2)c1 (tautomer)
c1cncc(CCC/[NH+]=c2/nc(N3CC[NH2+]CC3)nc(N3CCc4ccccc4C3)[nH]2)c1 (cis-trans isomerization)
c1cncc(CCC/[NH+]=c2/nc(N3CC[NH2+]CC3)nc(N3CCc4ccccc4C3)[nH]2)c1 (3D coordinates assigned)
c1cncc(CCC/[NH+]=c2/nc(N3CC[NH2+]CC3)nc(N3CCc4ccccc4C3)[nH]2)c1 (nonaromatic ring conformer: 68.7484789067263 kcal/mol)

>  <smiles>  (73) 
c1cncc(CCCNc2nc(N3CCNCC3)nc(N3CCc4ccccc4C3)n2)c1

>  <score_type>  (73) 
oracle

>  <origin>  (73) 
autodockgpu

>  <m_score__min__energy>  (73) 
-9.0700000000000003

>  <m_primary>  (73) 
energy

>  <meeko>  (73) 
{"free_energy": -8.11, "intermolecular_energy": -10.2, "internal_energy": -0.25, "cluster_size": 1, "cluster_id": 4, "rank_in_cluster": 1}

>  <energy>  (73) 
-8.95

>  <cluster_rmsd>  (73) 
0.0

>  <rmsd>  (73) 
269.88

>  <cluster>  (73) 
2

$$$$
JSIQCYHYJBEBBC-ILSJVODNNA-P
     RDKit          3D

 64 68  0  0  0  0  0  0  0  0999 V2000
  143.8816   79.9562  222.5592 H   0  0  0  0  0  0  0  0  0  0  0  0
  142.8120   79.7700  222.7360 C   0  0  0  0  0  0  0  0  0  0  0  0
  142.1960   78.7230  222.1280 N   0  0  0  0  0  0  0  0  0  0  0  0
  140.8800   78.4540  222.3310 C   0  0  0  0  0  0  0  0  0  0  0  0
  140.4138   77.5927  221.8301 H   0  0  0  0  0  0  0  0  0  0  0  0
  140.1120   79.2700  223.1770 C   0  0  0  0  0  0  0  0  0  0  0  0
  138.6430   78.9970  223.3820 C   0  0  0  0  0  0  0  0  0  0  0  0
  138.5192   78.3836  224.2866 H   0  0  0  0  0  0  0  0  0  0  0  0
  138.1296   79.9647  223.4823 H   0  0  0  0  0  0  0  0  0  0  0  0
  138.0210   78.2530  222.1900 C   0  0  0  0  0  0  0  0  0  0  0  0
  137.3105   78.9251  221.6865 H   0  0  0  0  0  0  0  0  0  0  0  0
  138.8397   77.9535  221.5191 H   0  0  0  0  0  0  0  0  0  0  0  0
  137.2750   76.9760  222.6160 C   0  0  0  0  0  0  0  0  0  0  0  0
  137.6718   76.6309  223.5822 H   0  0  0  0  0  0  0  0  0  0  0  0
  136.2027   77.2049  222.7045 H   0  0  0  0  0  0  0  0  0  0  0  0
  137.4510   75.9170  221.6170 N   0  0  0  0  0  0  0  0  0  0  0  0
  136.7270   75.8560  220.8640 H   0  0  0  0  0  0  0  0  0  0  0  0
  138.4540   75.0740  221.5860 C   0  0  0  0  0  0  0  0  0  0  0  0
  139.5200   75.3490  220.7870 N   0  0  0  0  0  0  0  0  0  0  0  0
  140.5820   74.5020  220.7170 C   0  0  0  0  0  0  0  0  0  0  0  0
  141.7330   74.8310  219.9080 N   0  0  0  0  0  0  0  0  0  0  0  0
  142.1940   73.8610  218.9000 C   0  0  0  0  0  0  0  0  0  0  0  0
  142.1296   72.8476  219.3229 H   0  0  0  0  0  0  0  0  0  0  0  0
  141.5529   73.9548  218.0110 H   0  0  0  0  0  0  0  0  0  0  0  0
  143.6420   74.1350  218.4810 C   0  0  0  0  0  0  0  0  0  0  0  0
  144.3126   73.8753  219.3134 H   0  0  0  0  0  0  0  0  0  0  0  0
  143.8721   73.5242  217.5956 H   0  0  0  0  0  0  0  0  0  0  0  0
  143.8310   75.5470  218.1360 N   0  0  0  0  0  0  0  0  0  0  0  0
  143.1940   75.8120  217.3490 H   0  0  0  0  0  0  0  0  0  0  0  0
  144.8190   75.6910  217.8280 H   0  0  0  0  0  0  0  0  0  0  0  0
  143.5640   76.3990  219.3000 C   0  0  0  0  0  0  0  0  0  0  0  0
  144.2363   76.1090  220.1209 H   0  0  0  0  0  0  0  0  0  0  0  0
  143.7363   77.4477  219.0162 H   0  0  0  0  0  0  0  0  0  0  0  0
  142.1120   76.2480  219.7630 C   0  0  0  0  0  0  0  0  0  0  0  0
  141.9930   76.7505  220.7343 H   0  0  0  0  0  0  0  0  0  0  0  0
  141.4596   76.7025  219.0028 H   0  0  0  0  0  0  0  0  0  0  0  0
  140.5670   73.3640  221.4600 N   0  0  0  0  0  0  0  0  0  0  0  0
  139.5190   73.0790  222.2710 C   0  0  0  0  0  0  0  0  0  0  0  0
  139.5370   71.8860  223.0660 N   0  0  0  0  0  0  0  0  0  0  0  0
  140.3220   71.8770  224.3080 C   0  0  0  0  0  0  0  0  0  0  0  0
  139.9512   72.6801  224.9619 H   0  0  0  0  0  0  0  0  0  0  0  0
  141.3760   72.0245  224.0299 H   0  0  0  0  0  0  0  0  0  0  0  0
  140.2340   70.5690  225.0570 C   0  0  0  0  0  0  0  0  0  0  0  0
  141.1370   70.3150  226.1060 C   0  0  0  0  0  0  0  0  0  0  0  0
  141.9096   71.0579  226.3536 H   0  0  0  0  0  0  0  0  0  0  0  0
  141.0590   69.1260  226.8350 C   0  0  0  0  0  0  0  0  0  0  0  0
  141.7777   68.9292  227.6442 H   0  0  0  0  0  0  0  0  0  0  0  0
  140.0690   68.1870  226.5370 C   0  0  0  0  0  0  0  0  0  0  0  0
  140.0071   67.2525  227.1140 H   0  0  0  0  0  0  0  0  0  0  0  0
  139.1550   68.4330  225.5050 C   0  0  0  0  0  0  0  0  0  0  0  0
  138.3690   67.6964  225.2822 H   0  0  0  0  0  0  0  0  0  0  0  0
  139.2380   69.6170  224.7530 C   0  0  0  0  0  0  0  0  0  0  0  0
  138.2490   69.8880  223.6530 C   0  0  0  0  0  0  0  0  0  0  0  0
  137.4119   70.4796  224.0522 H   0  0  0  0  0  0  0  0  0  0  0  0
  137.8731   68.9321  223.2592 H   0  0  0  0  0  0  0  0  0  0  0  0
  138.9270   70.6650  222.5270 C   0  0  0  0  0  0  0  0  0  0  0  0
  138.1790   70.9348  221.7670 H   0  0  0  0  0  0  0  0  0  0  0  0
  139.7077   70.0385  222.0709 H   0  0  0  0  0  0  0  0  0  0  0  0
  138.4630   73.9310  222.3370 N   0  0  0  0  0  0  0  0  0  0  0  0
  137.6610   73.6700  222.9510 H   0  0  0  0  0  0  0  0  0  0  0  0
  140.7360   80.3570  223.8080 C   0  0  0  0  0  0  0  0  0  0  0  0
  140.1573   81.0093  224.4786 H   0  0  0  0  0  0  0  0  0  0  0  0
  142.0880   80.6110  223.5860 C   0  0  0  0  0  0  0  0  0  0  0  0
  142.5805   81.4646  224.0747 H   0  0  0  0  0  0  0  0  0  0  0  0
  1  2  1  0
  2  3  2  0
  3  4  1  0
  4  5  1  0
  4  6  2  0
  6  7  1  0
  7  8  1  0
  7  9  1  0
  7 10  1  0
 10 11  1  0
 10 12  1  0
 10 13  1  0
 13 14  1  0
 13 15  1  0
 13 16  1  0
 16 17  1  0
 16 18  2  0
 18 19  1  0
 19 20  2  0
 20 21  1  0
 21 22  1  0
 22 23  1  0
 22 24  1  0
 22 25  1  0
 25 26  1  0
 25 27  1  0
 25 28  1  0
 28 29  1  0
 28 30  1  0
 28 31  1  0
 31 32  1  0
 31 33  1  0
 31 34  1  0
 34 35  1  0
 34 36  1  0
 20 37  1  0
 37 38  2  0
 38 39  1  0
 39 40  1  0
 40 41  1  0
 40 42  1  0
 40 43  1  0
 43 44  2  0
 44 45  1  0
 44 46  1  0
 46 47  1  0
 46 48  2  0
 48 49  1  0
 48 50  1  0
 50 51  1  0
 50 52  2  0
 52 53  1  0
 53 54  1  0
 53 55  1  0
 53 56  1  0
 56 57  1  0
 56 58  1  0
 38 59  1  0
 59 60  1  0
  6 61  1  0
 61 62  1  0
 61 63  2  0
 63 64  1  0
 63  2  1  0
 59 18  1  0
 34 21  1  0
 56 39  1  0
 52 43  1  0
M  CHG  2  16   1  28   1
M  END
>  <UniqueID>  (74) 
628

>  <SMILES>  (74) 
c1cncc(CCC/[NH+]=c2/nc(N3CC[NH2+]CC3)nc(N3CCc4ccccc4C3)[nH]2)c1

>  <Energy>  (74) 
68.7484789067263

>  <Genealogy>  (74) 
c1cncc(CCC[NH2+]c2nc(N3CC[NH2+]CC3)nc(N3CCc4ccccc4C3)n2)c1 (protonated)
c1cncc(CCC[NH+]=c2nc(N3CC[NH2+]CC3)nc(N3CCc4ccccc4C3)[nH]2)c1 (tautomer)
c1cncc(CCC/[NH+]=c2/nc(N3CC[NH2+]CC3)nc(N3CCc4ccccc4C3)[nH]2)c1 (cis-trans isomerization)
c1cncc(CCC/[NH+]=c2/nc(N3CC[NH2+]CC3)nc(N3CCc4ccccc4C3)[nH]2)c1 (3D coordinates assigned)
c1cncc(CCC/[NH+]=c2/nc(N3CC[NH2+]CC3)nc(N3CCc4ccccc4C3)[nH]2)c1 (nonaromatic ring conformer: 68.7484789067263 kcal/mol)

>  <smiles>  (74) 
c1cncc(CCCNc2nc(N3CCNCC3)nc(N3CCc4ccccc4C3)n2)c1

>  <score_type>  (74) 
oracle

>  <origin>  (74) 
autodockgpu

>  <m_score__min__energy>  (74) 
-9.0700000000000003

>  <m_primary>  (74) 
energy

>  <meeko>  (74) 
{"free_energy": -8.17, "intermolecular_energy": -10.26, "internal_energy": -0.51, "cluster_size": 12, "cluster_id": 1, "rank_in_cluster": 11}

>  <energy>  (74) 
-8.77

>  <cluster_rmsd>  (74) 
1.43

>  <rmsd>  (74) 
269.4

>  <cluster>  (74) 
2

$$$$
JSIQCYHYJBEBBC-ILSJVODNNA-P
     RDKit          3D

 64 68  0  0  0  0  0  0  0  0999 V2000
  143.6276   79.8331  222.6853 H   0  0  0  0  0  0  0  0  0  0  0  0
  142.5860   79.4800  222.7030 C   0  0  0  0  0  0  0  0  0  0  0  0
  142.1200   78.6900  221.7000 N   0  0  0  0  0  0  0  0  0  0  0  0
  140.8440   78.2250  221.6930 C   0  0  0  0  0  0  0  0  0  0  0  0
  140.5007   77.5806  220.8703 H   0  0  0  0  0  0  0  0  0  0  0  0
  139.9610   78.5630  222.7310 C   0  0  0  0  0  0  0  0  0  0  0  0
  138.5330   78.0780  222.7140 C   0  0  0  0  0  0  0  0  0  0  0  0
  138.0193   78.4563  223.6101 H   0  0  0  0  0  0  0  0  0  0  0  0
  138.0594   78.4521  221.7943 H   0  0  0  0  0  0  0  0  0  0  0  0
  138.4430   76.5440  222.7020 C   0  0  0  0  0  0  0  0  0  0  0  0
  139.3902   76.1383  222.3170 H   0  0  0  0  0  0  0  0  0  0  0  0
  138.2499   76.2129  223.7331 H   0  0  0  0  0  0  0  0  0  0  0  0
  137.2910   76.0270  221.8220 C   0  0  0  0  0  0  0  0  0  0  0  0
  136.3369   76.1863  222.3458 H   0  0  0  0  0  0  0  0  0  0  0  0
  137.2995   76.5766  220.8692 H   0  0  0  0  0  0  0  0  0  0  0  0
  137.4540   74.5970  221.5430 N   0  0  0  0  0  0  0  0  0  0  0  0
  136.6360   74.1050  221.1140 H   0  0  0  0  0  0  0  0  0  0  0  0
  138.5480   73.9100  221.7620 C   0  0  0  0  0  0  0  0  0  0  0  0
  139.6600   74.1910  221.0310 N   0  0  0  0  0  0  0  0  0  0  0  0
  140.8170   73.5020  221.2190 C   0  0  0  0  0  0  0  0  0  0  0  0
  142.0080   73.8460  220.4750 N   0  0  0  0  0  0  0  0  0  0  0  0
  142.2640   75.2620  220.1610 C   0  0  0  0  0  0  0  0  0  0  0  0
  141.3162   75.7424  219.8768 H   0  0  0  0  0  0  0  0  0  0  0  0
  142.6933   75.7419  221.0529 H   0  0  0  0  0  0  0  0  0  0  0  0
  143.2620   75.4080  219.0080 C   0  0  0  0  0  0  0  0  0  0  0  0
  142.7794   75.0909  218.0717 H   0  0  0  0  0  0  0  0  0  0  0  0
  143.5720   76.4614  218.9430 H   0  0  0  0  0  0  0  0  0  0  0  0
  144.4520   74.5830  219.2380 N   0  0  0  0  0  0  0  0  0  0  0  0
  144.9200   74.8680  220.1290 H   0  0  0  0  0  0  0  0  0  0  0  0
  145.1230   74.7290  218.4490 H   0  0  0  0  0  0  0  0  0  0  0  0
  144.0880   73.1630  219.2990 C   0  0  0  0  0  0  0  0  0  0  0  0
  143.5954   72.8760  218.3582 H   0  0  0  0  0  0  0  0  0  0  0  0
  145.0025   72.5702  219.4481 H   0  0  0  0  0  0  0  0  0  0  0  0
  143.1340   72.8970  220.4670 C   0  0  0  0  0  0  0  0  0  0  0  0
  142.7383   71.8745  220.3788 H   0  0  0  0  0  0  0  0  0  0  0  0
  143.6954   73.0218  221.4047 H   0  0  0  0  0  0  0  0  0  0  0  0
  140.8520   72.5150  222.1530 N   0  0  0  0  0  0  0  0  0  0  0  0
  139.7570   72.2280  222.8990 C   0  0  0  0  0  0  0  0  0  0  0  0
  139.8250   71.2010  223.8970 N   0  0  0  0  0  0  0  0  0  0  0  0
  140.3450   71.5430  225.2280 C   0  0  0  0  0  0  0  0  0  0  0  0
  139.7235   72.3465  225.6500 H   0  0  0  0  0  0  0  0  0  0  0  0
  141.3922   71.8539  225.0990 H   0  0  0  0  0  0  0  0  0  0  0  0
  140.3390   70.3780  226.1880 C   0  0  0  0  0  0  0  0  0  0  0  0
  141.0510   70.4770  227.3960 C   0  0  0  0  0  0  0  0  0  0  0  0
  141.6218   71.3902  227.6201 H   0  0  0  0  0  0  0  0  0  0  0  0
  141.0390   69.4240  228.3140 C   0  0  0  0  0  0  0  0  0  0  0  0
  141.6117   69.5038  229.2497 H   0  0  0  0  0  0  0  0  0  0  0  0
  140.3000   68.2700  228.0440 C   0  0  0  0  0  0  0  0  0  0  0  0
  140.2885   67.4431  228.7693 H   0  0  0  0  0  0  0  0  0  0  0  0
  139.5740   68.1640  226.8520 C   0  0  0  0  0  0  0  0  0  0  0  0
  138.9827   67.2588  226.6498 H   0  0  0  0  0  0  0  0  0  0  0  0
  139.5970   69.2080  225.9130 C   0  0  0  0  0  0  0  0  0  0  0  0
  138.8080   69.1000  224.6380 C   0  0  0  0  0  0  0  0  0  0  0  0
  137.8211   69.5649  224.7789 H   0  0  0  0  0  0  0  0  0  0  0  0
  138.6842   68.0387  224.3766 H   0  0  0  0  0  0  0  0  0  0  0  0
  139.5480   69.8140  223.5090 C   0  0  0  0  0  0  0  0  0  0  0  0
  138.9259   69.8057  222.6018 H   0  0  0  0  0  0  0  0  0  0  0  0
  140.4976   69.2951  223.3115 H   0  0  0  0  0  0  0  0  0  0  0  0
  138.6060   72.9230  222.7070 N   0  0  0  0  0  0  0  0  0  0  0  0
  137.7750   72.6600  223.2800 H   0  0  0  0  0  0  0  0  0  0  0  0
  140.4290   79.3820  223.7700 C   0  0  0  0  0  0  0  0  0  0  0  0
  139.7577   79.6596  224.5960 H   0  0  0  0  0  0  0  0  0  0  0  0
  141.7440   79.8440  223.7560 C   0  0  0  0  0  0  0  0  0  0  0  0
  142.1149   80.4889  224.5663 H   0  0  0  0  0  0  0  0  0  0  0  0
  1  2  1  0
  2  3  2  0
  3  4  1  0
  4  5  1  0
  4  6  2  0
  6  7  1  0
  7  8  1  0
  7  9  1  0
  7 10  1  0
 10 11  1  0
 10 12  1  0
 10 13  1  0
 13 14  1  0
 13 15  1  0
 13 16  1  0
 16 17  1  0
 16 18  2  0
 18 19  1  0
 19 20  2  0
 20 21  1  0
 21 22  1  0
 22 23  1  0
 22 24  1  0
 22 25  1  0
 25 26  1  0
 25 27  1  0
 25 28  1  0
 28 29  1  0
 28 30  1  0
 28 31  1  0
 31 32  1  0
 31 33  1  0
 31 34  1  0
 34 35  1  0
 34 36  1  0
 20 37  1  0
 37 38  2  0
 38 39  1  0
 39 40  1  0
 40 41  1  0
 40 42  1  0
 40 43  1  0
 43 44  2  0
 44 45  1  0
 44 46  1  0
 46 47  1  0
 46 48  2  0
 48 49  1  0
 48 50  1  0
 50 51  1  0
 50 52  2  0
 52 53  1  0
 53 54  1  0
 53 55  1  0
 53 56  1  0
 56 57  1  0
 56 58  1  0
 38 59  1  0
 59 60  1  0
  6 61  1  0
 61 62  1  0
 61 63  2  0
 63 64  1  0
 63  2  1  0
 59 18  1  0
 34 21  1  0
 56 39  1  0
 52 43  1  0
M  CHG  2  16   1  28   1
M  END
>  <UniqueID>  (75) 
628

>  <SMILES>  (75) 
c1cncc(CCC/[NH+]=c2/nc(N3CC[NH2+]CC3)nc(N3CCc4ccccc4C3)[nH]2)c1

>  <Energy>  (75) 
68.7484789067263

>  <Genealogy>  (75) 
c1cncc(CCC[NH2+]c2nc(N3CC[NH2+]CC3)nc(N3CCc4ccccc4C3)n2)c1 (protonated)
c1cncc(CCC[NH+]=c2nc(N3CC[NH2+]CC3)nc(N3CCc4ccccc4C3)[nH]2)c1 (tautomer)
c1cncc(CCC/[NH+]=c2/nc(N3CC[NH2+]CC3)nc(N3CCc4ccccc4C3)[nH]2)c1 (cis-trans isomerization)
c1cncc(CCC/[NH+]=c2/nc(N3CC[NH2+]CC3)nc(N3CCc4ccccc4C3)[nH]2)c1 (3D coordinates assigned)
c1cncc(CCC/[NH+]=c2/nc(N3CC[NH2+]CC3)nc(N3CCc4ccccc4C3)[nH]2)c1 (nonaromatic ring conformer: 68.7484789067263 kcal/mol)

>  <smiles>  (75) 
c1cncc(CCCNc2nc(N3CCNCC3)nc(N3CCc4ccccc4C3)n2)c1

>  <score_type>  (75) 
oracle

>  <origin>  (75) 
autodockgpu

>  <m_score__min__energy>  (75) 
-9.0700000000000003

>  <m_primary>  (75) 
energy

>  <meeko>  (75) 
{"free_energy": -8.68, "intermolecular_energy": -10.76, "internal_energy": -0.46, "cluster_size": 12, "cluster_id": 1, "rank_in_cluster": 8}

>  <energy>  (75) 
-8.22

>  <cluster_rmsd>  (75) 
1.88

>  <rmsd>  (75) 
269.48

>  <cluster>  (75) 
2

$$$$
JSIQCYHYJBEBBC-ILSJVODNNA-P
     RDKit          3D

 64 68  0  0  0  0  0  0  0  0999 V2000
  143.6143   80.9902  223.7129 H   0  0  0  0  0  0  0  0  0  0  0  0
  142.7150   80.4990  223.3130 C   0  0  0  0  0  0  0  0  0  0  0  0
  142.5500   79.1590  223.4630 N   0  0  0  0  0  0  0  0  0  0  0  0
  141.4480   78.5190  222.9930 C   0  0  0  0  0  0  0  0  0  0  0  0
  141.3417   77.4338  223.1380 H   0  0  0  0  0  0  0  0  0  0  0  0
  140.4440   79.2360  222.3230 C   0  0  0  0  0  0  0  0  0  0  0  0
  139.2320   78.5270  221.7700 C   0  0  0  0  0  0  0  0  0  0  0  0
  138.4358   79.2665  221.5995 H   0  0  0  0  0  0  0  0  0  0  0  0
  139.5271   78.0341  220.8320 H   0  0  0  0  0  0  0  0  0  0  0  0
  138.7070   77.4460  222.7270 C   0  0  0  0  0  0  0  0  0  0  0  0
  139.4622   77.2688  223.5069 H   0  0  0  0  0  0  0  0  0  0  0  0
  137.7608   77.8097  223.1542 H   0  0  0  0  0  0  0  0  0  0  0  0
  138.4150   76.1150  222.0120 C   0  0  0  0  0  0  0  0  0  0  0  0
  137.5653   75.6193  222.5042 H   0  0  0  0  0  0  0  0  0  0  0  0
  138.1765   76.3238  220.9587 H   0  0  0  0  0  0  0  0  0  0  0  0
  139.5840   75.2320  222.0650 N   0  0  0  0  0  0  0  0  0  0  0  0
  139.6100   74.5330  222.8440 H   0  0  0  0  0  0  0  0  0  0  0  0
  140.5680   75.2360  221.2000 C   0  0  0  0  0  0  0  0  0  0  0  0
  140.7360   76.3220  220.3990 N   0  0  0  0  0  0  0  0  0  0  0  0
  141.7400   76.3700  219.4830 C   0  0  0  0  0  0  0  0  0  0  0  0
  141.9420   77.5520  218.6750 N   0  0  0  0  0  0  0  0  0  0  0  0
  142.1300   78.8480  219.3470 C   0  0  0  0  0  0  0  0  0  0  0  0
  141.4369   78.9133  220.1987 H   0  0  0  0  0  0  0  0  0  0  0  0
  143.1741   78.9130  219.6871 H   0  0  0  0  0  0  0  0  0  0  0  0
  141.8600   80.0170  218.3940 C   0  0  0  0  0  0  0  0  0  0  0  0
  140.7815   80.0681  218.1836 H   0  0  0  0  0  0  0  0  0  0  0  0
  142.2032   80.9462  218.8723 H   0  0  0  0  0  0  0  0  0  0  0  0
  142.5870   79.8440  217.1330 N   0  0  0  0  0  0  0  0  0  0  0  0
  143.6150   79.7870  217.3160 H   0  0  0  0  0  0  0  0  0  0  0  0
  142.4030   80.6720  216.5200 H   0  0  0  0  0  0  0  0  0  0  0  0
  142.1360   78.6300  216.4440 C   0  0  0  0  0  0  0  0  0  0  0  0
  141.0538   78.7007  216.2599 H   0  0  0  0  0  0  0  0  0  0  0  0
  142.6811   78.5412  215.4927 H   0  0  0  0  0  0  0  0  0  0  0  0
  142.4210   77.3870  217.2910 C   0  0  0  0  0  0  0  0  0  0  0  0
  141.9134   76.5225  216.8383 H   0  0  0  0  0  0  0  0  0  0  0  0
  143.5097   77.2326  217.3199 H   0  0  0  0  0  0  0  0  0  0  0  0
  142.5830   75.3100  219.3720 N   0  0  0  0  0  0  0  0  0  0  0  0
  142.4390   74.2240  220.1710 C   0  0  0  0  0  0  0  0  0  0  0  0
  143.3560   73.1280  220.0550 N   0  0  0  0  0  0  0  0  0  0  0  0
  142.8220   71.7870  219.7820 C   0  0  0  0  0  0  0  0  0  0  0  0
  142.2568   71.8211  218.8389 H   0  0  0  0  0  0  0  0  0  0  0  0
  142.1860   71.5087  220.6352 H   0  0  0  0  0  0  0  0  0  0  0  0
  143.8960   70.7320  219.6600 C   0  0  0  0  0  0  0  0  0  0  0  0
  143.5310   69.3740  219.6730 C   0  0  0  0  0  0  0  0  0  0  0  0
  142.4742   69.0938  219.7943 H   0  0  0  0  0  0  0  0  0  0  0  0
  144.5010   68.3780  219.5330 C   0  0  0  0  0  0  0  0  0  0  0  0
  144.2087   67.3179  219.5590 H   0  0  0  0  0  0  0  0  0  0  0  0
  145.8420   68.7290  219.3600 C   0  0  0  0  0  0  0  0  0  0  0  0
  146.6047   67.9445  219.2471 H   0  0  0  0  0  0  0  0  0  0  0  0
  146.2170   70.0780  219.3300 C   0  0  0  0  0  0  0  0  0  0  0  0
  147.2723   70.3498  219.1804 H   0  0  0  0  0  0  0  0  0  0  0  0
  145.2520   71.0850  219.4900 C   0  0  0  0  0  0  0  0  0  0  0  0
  145.6530   72.5340  219.4460 C   0  0  0  0  0  0  0  0  0  0  0  0
  145.5365   72.9141  218.4204 H   0  0  0  0  0  0  0  0  0  0  0  0
  146.7029   72.6299  219.7599 H   0  0  0  0  0  0  0  0  0  0  0  0
  144.7680   73.3450  220.3910 C   0  0  0  0  0  0  0  0  0  0  0  0
  145.0079   74.4137  220.2895 H   0  0  0  0  0  0  0  0  0  0  0  0
  144.9496   73.0222  221.4268 H   0  0  0  0  0  0  0  0  0  0  0  0
  141.4350   74.1840  221.0850 N   0  0  0  0  0  0  0  0  0  0  0  0
  141.3370   73.3230  221.6660 H   0  0  0  0  0  0  0  0  0  0  0  0
  140.6040   80.6200  222.1580 C   0  0  0  0  0  0  0  0  0  0  0  0
  139.8302   81.2050  221.6393 H   0  0  0  0  0  0  0  0  0  0  0  0
  141.7430   81.2540  222.6510 C   0  0  0  0  0  0  0  0  0  0  0  0
  141.8756   82.3381  222.5203 H   0  0  0  0  0  0  0  0  0  0  0  0
  1  2  1  0
  2  3  2  0
  3  4  1  0
  4  5  1  0
  4  6  2  0
  6  7  1  0
  7  8  1  0
  7  9  1  0
  7 10  1  0
 10 11  1  0
 10 12  1  0
 10 13  1  0
 13 14  1  0
 13 15  1  0
 13 16  1  0
 16 17  1  0
 16 18  2  0
 18 19  1  0
 19 20  2  0
 20 21  1  0
 21 22  1  0
 22 23  1  0
 22 24  1  0
 22 25  1  0
 25 26  1  0
 25 27  1  0
 25 28  1  0
 28 29  1  0
 28 30  1  0
 28 31  1  0
 31 32  1  0
 31 33  1  0
 31 34  1  0
 34 35  1  0
 34 36  1  0
 20 37  1  0
 37 38  2  0
 38 39  1  0
 39 40  1  0
 40 41  1  0
 40 42  1  0
 40 43  1  0
 43 44  2  0
 44 45  1  0
 44 46  1  0
 46 47  1  0
 46 48  2  0
 48 49  1  0
 48 50  1  0
 50 51  1  0
 50 52  2  0
 52 53  1  0
 53 54  1  0
 53 55  1  0
 53 56  1  0
 56 57  1  0
 56 58  1  0
 38 59  1  0
 59 60  1  0
  6 61  1  0
 61 62  1  0
 61 63  2  0
 63 64  1  0
 63  2  1  0
 59 18  1  0
 34 21  1  0
 56 39  1  0
 52 43  1  0
M  CHG  2  16   1  28   1
M  END
>  <UniqueID>  (76) 
628

>  <SMILES>  (76) 
c1cncc(CCC/[NH+]=c2/nc(N3CC[NH2+]CC3)nc(N3CCc4ccccc4C3)[nH]2)c1

>  <Energy>  (76) 
68.7484789067263

>  <Genealogy>  (76) 
c1cncc(CCC[NH2+]c2nc(N3CC[NH2+]CC3)nc(N3CCc4ccccc4C3)n2)c1 (protonated)
c1cncc(CCC[NH+]=c2nc(N3CC[NH2+]CC3)nc(N3CCc4ccccc4C3)[nH]2)c1 (tautomer)
c1cncc(CCC/[NH+]=c2/nc(N3CC[NH2+]CC3)nc(N3CCc4ccccc4C3)[nH]2)c1 (cis-trans isomerization)
c1cncc(CCC/[NH+]=c2/nc(N3CC[NH2+]CC3)nc(N3CCc4ccccc4C3)[nH]2)c1 (3D coordinates assigned)
c1cncc(CCC/[NH+]=c2/nc(N3CC[NH2+]CC3)nc(N3CCc4ccccc4C3)[nH]2)c1 (nonaromatic ring conformer: 68.7484789067263 kcal/mol)

>  <smiles>  (76) 
c1cncc(CCCNc2nc(N3CCNCC3)nc(N3CCc4ccccc4C3)n2)c1

>  <score_type>  (76) 
oracle

>  <origin>  (76) 
autodockgpu

>  <m_score__min__energy>  (76) 
-9.0700000000000003

>  <m_primary>  (76) 
energy

>  <meeko>  (76) 
{"free_energy": -7.98, "intermolecular_energy": -10.07, "internal_energy": -0.68, "cluster_size": 1, "cluster_id": 5, "rank_in_cluster": 1}

>  <energy>  (76) 
-8.64

>  <cluster_rmsd>  (76) 
0.0

>  <rmsd>  (76) 
269.51

>  <cluster>  (76) 
3

$$$$
JSIQCYHYJBEBBC-ILSJVODNNA-P
     RDKit          3D

 64 68  0  0  0  0  0  0  0  0999 V2000
  132.9870   72.1872  227.0780 H   0  0  0  0  0  0  0  0  0  0  0  0
  133.5850   72.8640  226.4500 C   0  0  0  0  0  0  0  0  0  0  0  0
  133.5820   74.2000  226.6980 N   0  0  0  0  0  0  0  0  0  0  0  0
  134.3160   75.0650  225.9510 C   0  0  0  0  0  0  0  0  0  0  0  0
  134.2977   76.1401  226.1831 H   0  0  0  0  0  0  0  0  0  0  0  0
  135.0980   74.5940  224.8840 C   0  0  0  0  0  0  0  0  0  0  0  0
  135.8900   75.5530  224.0310 C   0  0  0  0  0  0  0  0  0  0  0  0
  136.0476   76.4832  224.5965 H   0  0  0  0  0  0  0  0  0  0  0  0
  136.8463   75.0712  223.7794 H   0  0  0  0  0  0  0  0  0  0  0  0
  135.1700   75.8890  222.7160 C   0  0  0  0  0  0  0  0  0  0  0  0
  134.3882   75.1355  222.5396 H   0  0  0  0  0  0  0  0  0  0  0  0
  134.7443   76.8983  222.8170 H   0  0  0  0  0  0  0  0  0  0  0  0
  136.1230   75.9030  221.5080 C   0  0  0  0  0  0  0  0  0  0  0  0
  135.5789   76.2642  220.6228 H   0  0  0  0  0  0  0  0  0  0  0  0
  136.9697   76.5683  221.7327 H   0  0  0  0  0  0  0  0  0  0  0  0
  136.6390   74.5560  221.2400 N   0  0  0  0  0  0  0  0  0  0  0  0
  135.9830   73.8850  220.7780 H   0  0  0  0  0  0  0  0  0  0  0  0
  137.8560   74.1530  221.5070 C   0  0  0  0  0  0  0  0  0  0  0  0
  138.9070   74.8250  220.9660 N   0  0  0  0  0  0  0  0  0  0  0  0
  140.1880   74.4400  221.2100 C   0  0  0  0  0  0  0  0  0  0  0  0
  141.2980   75.1950  220.6730 N   0  0  0  0  0  0  0  0  0  0  0  0
  141.1450   76.6480  220.4870 C   0  0  0  0  0  0  0  0  0  0  0  0
  140.1383   76.8545  220.0946 H   0  0  0  0  0  0  0  0  0  0  0  0
  141.2931   77.1389  221.4602 H   0  0  0  0  0  0  0  0  0  0  0  0
  142.1850   77.1990  219.5060 C   0  0  0  0  0  0  0  0  0  0  0  0
  141.9419   76.8515  218.4910 H   0  0  0  0  0  0  0  0  0  0  0  0
  142.1633   78.2978  219.5522 H   0  0  0  0  0  0  0  0  0  0  0  0
  143.5320   76.7430  219.8590 N   0  0  0  0  0  0  0  0  0  0  0  0
  143.7770   77.0600  220.8260 H   0  0  0  0  0  0  0  0  0  0  0  0
  144.2170   77.1610  219.1880 H   0  0  0  0  0  0  0  0  0  0  0  0
  143.6160   75.2810  219.7790 C   0  0  0  0  0  0  0  0  0  0  0  0
  143.3551   74.9599  218.7598 H   0  0  0  0  0  0  0  0  0  0  0  0
  144.6425   74.9726  220.0264 H   0  0  0  0  0  0  0  0  0  0  0  0
  142.6530   74.6260  220.7740 C   0  0  0  0  0  0  0  0  0  0  0  0
  142.6035   73.5471  220.5652 H   0  0  0  0  0  0  0  0  0  0  0  0
  143.0294   74.8129  221.7906 H   0  0  0  0  0  0  0  0  0  0  0  0
  140.4120   73.3630  222.0080 N   0  0  0  0  0  0  0  0  0  0  0  0
  139.3780   72.6880  222.5670 C   0  0  0  0  0  0  0  0  0  0  0  0
  139.6390   71.5700  223.4270 N   0  0  0  0  0  0  0  0  0  0  0  0
  140.1340   71.8270  224.7860 C   0  0  0  0  0  0  0  0  0  0  0  0
  139.4029   72.4598  225.3105 H   0  0  0  0  0  0  0  0  0  0  0  0
  141.1129   72.3195  224.6897 H   0  0  0  0  0  0  0  0  0  0  0  0
  140.3430   70.5670  225.5910 C   0  0  0  0  0  0  0  0  0  0  0  0
  141.0640   70.6320  226.7970 C   0  0  0  0  0  0  0  0  0  0  0  0
  141.4859   71.5917  227.1300 H   0  0  0  0  0  0  0  0  0  0  0  0
  141.2480   69.4860  227.5750 C   0  0  0  0  0  0  0  0  0  0  0  0
  141.8262   69.5425  228.5091 H   0  0  0  0  0  0  0  0  0  0  0  0
  140.6980   68.2690  227.1670 C   0  0  0  0  0  0  0  0  0  0  0  0
  140.8401   67.3685  227.7825 H   0  0  0  0  0  0  0  0  0  0  0  0
  139.9660   68.1930  225.9760 C   0  0  0  0  0  0  0  0  0  0  0  0
  139.5245   67.2348  225.6647 H   0  0  0  0  0  0  0  0  0  0  0  0
  139.7930   69.3350  225.1770 C   0  0  0  0  0  0  0  0  0  0  0  0
  138.9960   69.2560  223.9040 C   0  0  0  0  0  0  0  0  0  0  0  0
  137.9512   69.5318  224.1096 H   0  0  0  0  0  0  0  0  0  0  0  0
  139.0382   68.2289  223.5124 H   0  0  0  0  0  0  0  0  0  0  0  0
  139.5790   70.2150  222.8680 C   0  0  0  0  0  0  0  0  0  0  0  0
  138.9410   70.2171  221.9719 H   0  0  0  0  0  0  0  0  0  0  0  0
  140.5937   69.8869  222.5983 H   0  0  0  0  0  0  0  0  0  0  0  0
  138.1010   73.0800  222.3200 N   0  0  0  0  0  0  0  0  0  0  0  0
  137.3280   72.5230  222.7440 H   0  0  0  0  0  0  0  0  0  0  0  0
  135.1060   73.2170  224.6160 C   0  0  0  0  0  0  0  0  0  0  0  0
  135.7123   72.8221  223.7874 H   0  0  0  0  0  0  0  0  0  0  0  0
  134.3470   72.3490  225.3980 C   0  0  0  0  0  0  0  0  0  0  0  0
  134.3476   71.2690  225.1893 H   0  0  0  0  0  0  0  0  0  0  0  0
  1  2  1  0
  2  3  2  0
  3  4  1  0
  4  5  1  0
  4  6  2  0
  6  7  1  0
  7  8  1  0
  7  9  1  0
  7 10  1  0
 10 11  1  0
 10 12  1  0
 10 13  1  0
 13 14  1  0
 13 15  1  0
 13 16  1  0
 16 17  1  0
 16 18  2  0
 18 19  1  0
 19 20  2  0
 20 21  1  0
 21 22  1  0
 22 23  1  0
 22 24  1  0
 22 25  1  0
 25 26  1  0
 25 27  1  0
 25 28  1  0
 28 29  1  0
 28 30  1  0
 28 31  1  0
 31 32  1  0
 31 33  1  0
 31 34  1  0
 34 35  1  0
 34 36  1  0
 20 37  1  0
 37 38  2  0
 38 39  1  0
 39 40  1  0
 40 41  1  0
 40 42  1  0
 40 43  1  0
 43 44  2  0
 44 45  1  0
 44 46  1  0
 46 47  1  0
 46 48  2  0
 48 49  1  0
 48 50  1  0
 50 51  1  0
 50 52  2  0
 52 53  1  0
 53 54  1  0
 53 55  1  0
 53 56  1  0
 56 57  1  0
 56 58  1  0
 38 59  1  0
 59 60  1  0
  6 61  1  0
 61 62  1  0
 61 63  2  0
 63 64  1  0
 63  2  1  0
 59 18  1  0
 34 21  1  0
 56 39  1  0
 52 43  1  0
M  CHG  2  16   1  28   1
M  END
>  <UniqueID>  (77) 
628

>  <SMILES>  (77) 
c1cncc(CCC/[NH+]=c2/nc(N3CC[NH2+]CC3)nc(N3CCc4ccccc4C3)[nH]2)c1

>  <Energy>  (77) 
68.7484789067263

>  <Genealogy>  (77) 
c1cncc(CCC[NH2+]c2nc(N3CC[NH2+]CC3)nc(N3CCc4ccccc4C3)n2)c1 (protonated)
c1cncc(CCC[NH+]=c2nc(N3CC[NH2+]CC3)nc(N3CCc4ccccc4C3)[nH]2)c1 (tautomer)
c1cncc(CCC/[NH+]=c2/nc(N3CC[NH2+]CC3)nc(N3CCc4ccccc4C3)[nH]2)c1 (cis-trans isomerization)
c1cncc(CCC/[NH+]=c2/nc(N3CC[NH2+]CC3)nc(N3CCc4ccccc4C3)[nH]2)c1 (3D coordinates assigned)
c1cncc(CCC/[NH+]=c2/nc(N3CC[NH2+]CC3)nc(N3CCc4ccccc4C3)[nH]2)c1 (nonaromatic ring conformer: 68.7484789067263 kcal/mol)

>  <smiles>  (77) 
c1cncc(CCCNc2nc(N3CCNCC3)nc(N3CCc4ccccc4C3)n2)c1

>  <score_type>  (77) 
oracle

>  <origin>  (77) 
autodockgpu

>  <m_score__min__energy>  (77) 
-9.0700000000000003

>  <m_primary>  (77) 
energy

>  <meeko>  (77) 
{"free_energy": -8.59, "intermolecular_energy": -10.67, "internal_energy": -0.45, "cluster_size": 3, "cluster_id": 3, "rank_in_cluster": 2}

>  <energy>  (77) 
-8.59

>  <cluster_rmsd>  (77) 
0.61

>  <rmsd>  (77) 
269.44

>  <cluster>  (77) 
3

$$$$
JSIQCYHYJBEBBC-ILSJVODNNA-P
     RDKit          3D

 64 68  0  0  0  0  0  0  0  0999 V2000
  142.6367   82.3616  224.1494 H   0  0  0  0  0  0  0  0  0  0  0  0
  142.2030   81.3960  223.8500 C   0  0  0  0  0  0  0  0  0  0  0  0
  140.8540   81.2280  223.8500 N   0  0  0  0  0  0  0  0  0  0  0  0
  140.2820   80.0540  223.4750 C   0  0  0  0  0  0  0  0  0  0  0  0
  139.1866   79.9534  223.4779 H   0  0  0  0  0  0  0  0  0  0  0  0
  141.0820   78.9690  223.0840 C   0  0  0  0  0  0  0  0  0  0  0  0
  140.4550   77.6520  222.6970 C   0  0  0  0  0  0  0  0  0  0  0  0
  141.1200   76.8356  223.0152 H   0  0  0  0  0  0  0  0  0  0  0  0
  139.4751   77.5850  223.1924 H   0  0  0  0  0  0  0  0  0  0  0  0
  140.2270   77.5430  221.1810 C   0  0  0  0  0  0  0  0  0  0  0  0
  140.2346   78.5548  220.7495 H   0  0  0  0  0  0  0  0  0  0  0  0
  141.0330   76.9201  220.7658 H   0  0  0  0  0  0  0  0  0  0  0  0
  138.8880   76.8680  220.8330 C   0  0  0  0  0  0  0  0  0  0  0  0
  138.0642   77.5586  221.0661 H   0  0  0  0  0  0  0  0  0  0  0  0
  138.8856   76.6188  219.7616 H   0  0  0  0  0  0  0  0  0  0  0  0
  138.7140   75.6340  221.6040 N   0  0  0  0  0  0  0  0  0  0  0  0
  137.8160   75.5320  222.1320 H   0  0  0  0  0  0  0  0  0  0  0  0
  139.5790   74.6510  221.6530 C   0  0  0  0  0  0  0  0  0  0  0  0
  140.6850   74.7070  220.8640 N   0  0  0  0  0  0  0  0  0  0  0  0
  141.6080   73.7090  220.8760 C   0  0  0  0  0  0  0  0  0  0  0  0
  142.8070   73.8060  220.0740 N   0  0  0  0  0  0  0  0  0  0  0  0
  144.0330   73.1390  220.5450 C   0  0  0  0  0  0  0  0  0  0  0  0
  144.1222   73.2805  221.6322 H   0  0  0  0  0  0  0  0  0  0  0  0
  143.9633   72.0701  220.2946 H   0  0  0  0  0  0  0  0  0  0  0  0
  145.2790   73.7130  219.8640 C   0  0  0  0  0  0  0  0  0  0  0  0
  145.4595   74.7301  220.2421 H   0  0  0  0  0  0  0  0  0  0  0  0
  146.1350   73.0605  220.0910 H   0  0  0  0  0  0  0  0  0  0  0  0
  145.1040   73.7660  218.4090 N   0  0  0  0  0  0  0  0  0  0  0  0
  144.9240   72.8060  218.0340 H   0  0  0  0  0  0  0  0  0  0  0  0
  145.9820   74.1340  217.9760 H   0  0  0  0  0  0  0  0  0  0  0  0
  143.9900   74.6540  218.0590 C   0  0  0  0  0  0  0  0  0  0  0  0
  144.1892   75.6583  218.4611 H   0  0  0  0  0  0  0  0  0  0  0  0
  143.8995   74.6915  216.9634 H   0  0  0  0  0  0  0  0  0  0  0  0
  142.6740   74.1310  218.6430 C   0  0  0  0  0  0  0  0  0  0  0  0
  141.8986   74.9019  218.5226 H   0  0  0  0  0  0  0  0  0  0  0  0
  142.4003   73.2113  218.1052 H   0  0  0  0  0  0  0  0  0  0  0  0
  141.4120   72.6400  221.6920 N   0  0  0  0  0  0  0  0  0  0  0  0
  140.3210   72.5720  222.4940 C   0  0  0  0  0  0  0  0  0  0  0  0
  140.1480   71.4460  223.3660 N   0  0  0  0  0  0  0  0  0  0  0  0
  140.6850   71.5230  224.7320 C   0  0  0  0  0  0  0  0  0  0  0  0
  140.2260   72.3840  225.2400 H   0  0  0  0  0  0  0  0  0  0  0  0
  141.7769   71.6263  224.6485 H   0  0  0  0  0  0  0  0  0  0  0  0
  140.4130   70.2830  225.5490 C   0  0  0  0  0  0  0  0  0  0  0  0
  141.0930   70.0970  226.7660 C   0  0  0  0  0  0  0  0  0  0  0  0
  141.8308   70.8419  227.0988 H   0  0  0  0  0  0  0  0  0  0  0  0
  140.8380   68.9730  227.5550 C   0  0  0  0  0  0  0  0  0  0  0  0
  141.3844   68.8288  228.4987 H   0  0  0  0  0  0  0  0  0  0  0  0
  139.8900   68.0320  227.1470 C   0  0  0  0  0  0  0  0  0  0  0  0
  139.6886   67.1487  227.7709 H   0  0  0  0  0  0  0  0  0  0  0  0
  139.1960   68.2120  225.9450 C   0  0  0  0  0  0  0  0  0  0  0  0
  138.4408   67.4753  225.6336 H   0  0  0  0  0  0  0  0  0  0  0  0
  139.4590   69.3290  225.1340 C   0  0  0  0  0  0  0  0  0  0  0  0
  138.7040   69.5280  223.8490 C   0  0  0  0  0  0  0  0  0  0  0  0
  137.8274   70.1659  224.0353 H   0  0  0  0  0  0  0  0  0  0  0  0
  138.3757   68.5509  223.4650 H   0  0  0  0  0  0  0  0  0  0  0  0
  139.6090   70.1980  222.8170 C   0  0  0  0  0  0  0  0  0  0  0  0
  139.0274   70.4191  221.9098 H   0  0  0  0  0  0  0  0  0  0  0  0
  140.4399   69.5214  222.5684 H   0  0  0  0  0  0  0  0  0  0  0  0
  139.4050   73.5740  222.4780 N   0  0  0  0  0  0  0  0  0  0  0  0
  138.5650   73.4780  223.0890 H   0  0  0  0  0  0  0  0  0  0  0  0
  142.4760   79.1280  223.0830 C   0  0  0  0  0  0  0  0  0  0  0  0
  143.1245   78.2939  222.7768 H   0  0  0  0  0  0  0  0  0  0  0  0
  143.0390   80.3430  223.4700 C   0  0  0  0  0  0  0  0  0  0  0  0
  144.1314   80.4716  223.4762 H   0  0  0  0  0  0  0  0  0  0  0  0
  1  2  1  0
  2  3  2  0
  3  4  1  0
  4  5  1  0
  4  6  2  0
  6  7  1  0
  7  8  1  0
  7  9  1  0
  7 10  1  0
 10 11  1  0
 10 12  1  0
 10 13  1  0
 13 14  1  0
 13 15  1  0
 13 16  1  0
 16 17  1  0
 16 18  2  0
 18 19  1  0
 19 20  2  0
 20 21  1  0
 21 22  1  0
 22 23  1  0
 22 24  1  0
 22 25  1  0
 25 26  1  0
 25 27  1  0
 25 28  1  0
 28 29  1  0
 28 30  1  0
 28 31  1  0
 31 32  1  0
 31 33  1  0
 31 34  1  0
 34 35  1  0
 34 36  1  0
 20 37  1  0
 37 38  2  0
 38 39  1  0
 39 40  1  0
 40 41  1  0
 40 42  1  0
 40 43  1  0
 43 44  2  0
 44 45  1  0
 44 46  1  0
 46 47  1  0
 46 48  2  0
 48 49  1  0
 48 50  1  0
 50 51  1  0
 50 52  2  0
 52 53  1  0
 53 54  1  0
 53 55  1  0
 53 56  1  0
 56 57  1  0
 56 58  1  0
 38 59  1  0
 59 60  1  0
  6 61  1  0
 61 62  1  0
 61 63  2  0
 63 64  1  0
 63  2  1  0
 59 18  1  0
 34 21  1  0
 56 39  1  0
 52 43  1  0
M  CHG  2  16   1  28   1
M  END
>  <UniqueID>  (78) 
628

>  <SMILES>  (78) 
c1cncc(CCC/[NH+]=c2/nc(N3CC[NH2+]CC3)nc(N3CCc4ccccc4C3)[nH]2)c1

>  <Energy>  (78) 
68.7484789067263

>  <Genealogy>  (78) 
c1cncc(CCC[NH2+]c2nc(N3CC[NH2+]CC3)nc(N3CCc4ccccc4C3)n2)c1 (protonated)
c1cncc(CCC[NH+]=c2nc(N3CC[NH2+]CC3)nc(N3CCc4ccccc4C3)[nH]2)c1 (tautomer)
c1cncc(CCC/[NH+]=c2/nc(N3CC[NH2+]CC3)nc(N3CCc4ccccc4C3)[nH]2)c1 (cis-trans isomerization)
c1cncc(CCC/[NH+]=c2/nc(N3CC[NH2+]CC3)nc(N3CCc4ccccc4C3)[nH]2)c1 (3D coordinates assigned)
c1cncc(CCC/[NH+]=c2/nc(N3CC[NH2+]CC3)nc(N3CCc4ccccc4C3)[nH]2)c1 (nonaromatic ring conformer: 68.7484789067263 kcal/mol)

>  <smiles>  (78) 
c1cncc(CCCNc2nc(N3CCNCC3)nc(N3CCc4ccccc4C3)n2)c1

>  <score_type>  (78) 
oracle

>  <origin>  (78) 
autodockgpu

>  <m_score__min__energy>  (78) 
-9.0700000000000003

>  <m_primary>  (78) 
energy

>  <meeko>  (78) 
{"free_energy": -8.76, "intermolecular_energy": -10.84, "internal_energy": -0.13, "cluster_size": 12, "cluster_id": 1, "rank_in_cluster": 7}

>  <energy>  (78) 
-8.52

>  <cluster_rmsd>  (78) 
0.88

>  <rmsd>  (78) 
269.35

>  <cluster>  (78) 
3

$$$$
JSIQCYHYJBEBBC-ILSJVODNNA-P
     RDKit          3D

 64 68  0  0  0  0  0  0  0  0999 V2000
  141.9683   82.0945  224.0875 H   0  0  0  0  0  0  0  0  0  0  0  0
  141.6760   81.0990  223.7220 C   0  0  0  0  0  0  0  0  0  0  0  0
  140.3960   80.6690  223.8740 N   0  0  0  0  0  0  0  0  0  0  0  0
  139.9950   79.4500  223.4270 C   0  0  0  0  0  0  0  0  0  0  0  0
  138.9494   79.1348  223.5592 H   0  0  0  0  0  0  0  0  0  0  0  0
  140.9100   78.5910  222.7970 C   0  0  0  0  0  0  0  0  0  0  0  0
  140.4800   77.2240  222.3270 C   0  0  0  0  0  0  0  0  0  0  0  0
  140.5613   77.1844  221.2307 H   0  0  0  0  0  0  0  0  0  0  0  0
  141.1360   76.4808  222.8038 H   0  0  0  0  0  0  0  0  0  0  0  0
  139.0320   76.9020  222.7280 C   0  0  0  0  0  0  0  0  0  0  0  0
  139.0353   76.0153  223.3790 H   0  0  0  0  0  0  0  0  0  0  0  0
  138.6252   77.7831  223.2459 H   0  0  0  0  0  0  0  0  0  0  0  0
  138.1320   76.6180  221.5120 C   0  0  0  0  0  0  0  0  0  0  0  0
  137.1205   77.0000  221.7140 H   0  0  0  0  0  0  0  0  0  0  0  0
  138.5592   77.1184  220.6305 H   0  0  0  0  0  0  0  0  0  0  0  0
  138.0590   75.1770  221.2480 N   0  0  0  0  0  0  0  0  0  0  0  0
  137.1580   74.8160  220.8570 H   0  0  0  0  0  0  0  0  0  0  0  0
  139.0390   74.3290  221.4360 C   0  0  0  0  0  0  0  0  0  0  0  0
  140.1540   74.4290  220.6630 N   0  0  0  0  0  0  0  0  0  0  0  0
  141.1960   73.5690  220.8180 C   0  0  0  0  0  0  0  0  0  0  0  0
  142.3970   73.7190  220.0280 N   0  0  0  0  0  0  0  0  0  0  0  0
  142.6590   75.0110  219.3710 C   0  0  0  0  0  0  0  0  0  0  0  0
  141.7160   75.4014  218.9608 H   0  0  0  0  0  0  0  0  0  0  0  0
  143.0751   75.7014  220.1194 H   0  0  0  0  0  0  0  0  0  0  0  0
  143.6740   74.8650  218.2340 C   0  0  0  0  0  0  0  0  0  0  0  0
  143.2054   74.3205  217.4010 H   0  0  0  0  0  0  0  0  0  0  0  0
  143.9855   75.8692  217.9107 H   0  0  0  0  0  0  0  0  0  0  0  0
  144.8600   74.1290  218.6810 N   0  0  0  0  0  0  0  0  0  0  0  0
  145.3150   74.6300  219.4780 H   0  0  0  0  0  0  0  0  0  0  0  0
  145.5420   74.0730  217.8900 H   0  0  0  0  0  0  0  0  0  0  0  0
  144.4940   72.7690  219.0920 C   0  0  0  0  0  0  0  0  0  0  0  0
  144.0149   72.2535  218.2466 H   0  0  0  0  0  0  0  0  0  0  0  0
  145.4061   72.2360  219.3985 H   0  0  0  0  0  0  0  0  0  0  0  0
  143.5230   72.8010  220.2760 C   0  0  0  0  0  0  0  0  0  0  0  0
  143.1280   71.7878  220.4415 H   0  0  0  0  0  0  0  0  0  0  0  0
  144.0702   73.1581  221.1609 H   0  0  0  0  0  0  0  0  0  0  0  0
  141.1110   72.5940  221.7610 N   0  0  0  0  0  0  0  0  0  0  0  0
  140.0130   72.4860  222.5490 C   0  0  0  0  0  0  0  0  0  0  0  0
  139.9560   71.4660  223.5550 N   0  0  0  0  0  0  0  0  0  0  0  0
  140.5070   71.7570  224.8860 C   0  0  0  0  0  0  0  0  0  0  0  0
  139.9815   72.6309  225.2984 H   0  0  0  0  0  0  0  0  0  0  0  0
  141.5838   71.9434  224.7602 H   0  0  0  0  0  0  0  0  0  0  0  0
  140.3610   70.6080  225.8550 C   0  0  0  0  0  0  0  0  0  0  0  0
  141.0750   70.6340  227.0660 C   0  0  0  0  0  0  0  0  0  0  0  0
  141.7479   71.4761  227.2851 H   0  0  0  0  0  0  0  0  0  0  0  0
  140.9360   69.5980  227.9930 C   0  0  0  0  0  0  0  0  0  0  0  0
  141.5089   69.6196  228.9318 H   0  0  0  0  0  0  0  0  0  0  0  0
  140.0700   68.5350  227.7280 C   0  0  0  0  0  0  0  0  0  0  0  0
  139.9595   67.7210  228.4596 H   0  0  0  0  0  0  0  0  0  0  0  0
  139.3420   68.5040  226.5320 C   0  0  0  0  0  0  0  0  0  0  0  0
  138.6512   67.6714  226.3328 H   0  0  0  0  0  0  0  0  0  0  0  0
  139.4900   69.5310  225.5860 C   0  0  0  0  0  0  0  0  0  0  0  0
  138.6990   69.5040  224.3070 C   0  0  0  0  0  0  0  0  0  0  0  0
  137.7722   70.0817  224.4387 H   0  0  0  0  0  0  0  0  0  0  0  0
  138.4538   68.4620  224.0539 H   0  0  0  0  0  0  0  0  0  0  0  0
  139.5220   70.1170  223.1760 C   0  0  0  0  0  0  0  0  0  0  0  0
  138.9074   70.1730  222.2654 H   0  0  0  0  0  0  0  0  0  0  0  0
  140.4057   69.4897  222.9873 H   0  0  0  0  0  0  0  0  0  0  0  0
  138.9780   73.3510  222.3900 N   0  0  0  0  0  0  0  0  0  0  0  0
  138.1370   73.2240  222.9950 H   0  0  0  0  0  0  0  0  0  0  0  0
  142.2350   79.0220  222.6370 C   0  0  0  0  0  0  0  0  0  0  0  0
  142.9700   78.3685  222.1443 H   0  0  0  0  0  0  0  0  0  0  0  0
  142.6210   80.2780  223.1020 C   0  0  0  0  0  0  0  0  0  0  0  0
  143.6597   80.6195  222.9819 H   0  0  0  0  0  0  0  0  0  0  0  0
  1  2  1  0
  2  3  2  0
  3  4  1  0
  4  5  1  0
  4  6  2  0
  6  7  1  0
  7  8  1  0
  7  9  1  0
  7 10  1  0
 10 11  1  0
 10 12  1  0
 10 13  1  0
 13 14  1  0
 13 15  1  0
 13 16  1  0
 16 17  1  0
 16 18  2  0
 18 19  1  0
 19 20  2  0
 20 21  1  0
 21 22  1  0
 22 23  1  0
 22 24  1  0
 22 25  1  0
 25 26  1  0
 25 27  1  0
 25 28  1  0
 28 29  1  0
 28 30  1  0
 28 31  1  0
 31 32  1  0
 31 33  1  0
 31 34  1  0
 34 35  1  0
 34 36  1  0
 20 37  1  0
 37 38  2  0
 38 39  1  0
 39 40  1  0
 40 41  1  0
 40 42  1  0
 40 43  1  0
 43 44  2  0
 44 45  1  0
 44 46  1  0
 46 47  1  0
 46 48  2  0
 48 49  1  0
 48 50  1  0
 50 51  1  0
 50 52  2  0
 52 53  1  0
 53 54  1  0
 53 55  1  0
 53 56  1  0
 56 57  1  0
 56 58  1  0
 38 59  1  0
 59 60  1  0
  6 61  1  0
 61 62  1  0
 61 63  2  0
 63 64  1  0
 63  2  1  0
 59 18  1  0
 34 21  1  0
 56 39  1  0
 52 43  1  0
M  CHG  2  16   1  28   1
M  END
>  <UniqueID>  (79) 
628

>  <SMILES>  (79) 
c1cncc(CCC/[NH+]=c2/nc(N3CC[NH2+]CC3)nc(N3CCc4ccccc4C3)[nH]2)c1

>  <Energy>  (79) 
68.7484789067263

>  <Genealogy>  (79) 
c1cncc(CCC[NH2+]c2nc(N3CC[NH2+]CC3)nc(N3CCc4ccccc4C3)n2)c1 (protonated)
c1cncc(CCC[NH+]=c2nc(N3CC[NH2+]CC3)nc(N3CCc4ccccc4C3)[nH]2)c1 (tautomer)
c1cncc(CCC/[NH+]=c2/nc(N3CC[NH2+]CC3)nc(N3CCc4ccccc4C3)[nH]2)c1 (cis-trans isomerization)
c1cncc(CCC/[NH+]=c2/nc(N3CC[NH2+]CC3)nc(N3CCc4ccccc4C3)[nH]2)c1 (3D coordinates assigned)
c1cncc(CCC/[NH+]=c2/nc(N3CC[NH2+]CC3)nc(N3CCc4ccccc4C3)[nH]2)c1 (nonaromatic ring conformer: 68.7484789067263 kcal/mol)

>  <smiles>  (79) 
c1cncc(CCCNc2nc(N3CCNCC3)nc(N3CCc4ccccc4C3)n2)c1

>  <score_type>  (79) 
oracle

>  <origin>  (79) 
autodockgpu

>  <m_score__min__energy>  (79) 
-9.0700000000000003

>  <m_primary>  (79) 
energy

>  <meeko>  (79) 
{"free_energy": -8.85, "intermolecular_energy": -10.94, "internal_energy": -0.34, "cluster_size": 12, "cluster_id": 1, "rank_in_cluster": 5}

>  <energy>  (79) 
-8.11

>  <cluster_rmsd>  (79) 
0.0

>  <rmsd>  (79) 
270.22

>  <cluster>  (79) 
4

$$$$
JSIQCYHYJBEBBC-ILSJVODNNA-P
     RDKit          3D

 64 68  0  0  0  0  0  0  0  0999 V2000
  141.6035   72.5810  228.6122 H   0  0  0  0  0  0  0  0  0  0  0  0
  141.1260   71.8700  227.9220 C   0  0  0  0  0  0  0  0  0  0  0  0
  140.2520   70.9450  228.3980 N   0  0  0  0  0  0  0  0  0  0  0  0
  139.6340   70.0580  227.5760 C   0  0  0  0  0  0  0  0  0  0  0  0
  138.9250   69.3275  227.9928 H   0  0  0  0  0  0  0  0  0  0  0  0
  139.8960   70.0690  226.1960 C   0  0  0  0  0  0  0  0  0  0  0  0
  139.2380   69.0670  225.2810 C   0  0  0  0  0  0  0  0  0  0  0  0
  139.7144   68.0865  225.4281 H   0  0  0  0  0  0  0  0  0  0  0  0
  138.1673   69.0330  225.5311 H   0  0  0  0  0  0  0  0  0  0  0  0
  139.3650   69.4620  223.8020 C   0  0  0  0  0  0  0  0  0  0  0  0
  140.3852   69.8321  223.6224 H   0  0  0  0  0  0  0  0  0  0  0  0
  139.1457   68.5690  223.1982 H   0  0  0  0  0  0  0  0  0  0  0  0
  138.3640   70.5580  223.3950 C   0  0  0  0  0  0  0  0  0  0  0  0
  137.8604   70.2595  222.4637 H   0  0  0  0  0  0  0  0  0  0  0  0
  137.6282   70.6832  224.2031 H   0  0  0  0  0  0  0  0  0  0  0  0
  139.0530   71.8350  223.1820 N   0  0  0  0  0  0  0  0  0  0  0  0
  138.7910   72.6220  223.8190 H   0  0  0  0  0  0  0  0  0  0  0  0
  139.9820   72.0450  222.2820 C   0  0  0  0  0  0  0  0  0  0  0  0
  140.3160   73.3250  221.9670 N   0  0  0  0  0  0  0  0  0  0  0  0
  141.2700   73.5930  221.0360 C   0  0  0  0  0  0  0  0  0  0  0  0
  141.6560   74.9560  220.7490 N   0  0  0  0  0  0  0  0  0  0  0  0
  141.0720   76.0440  221.5520 C   0  0  0  0  0  0  0  0  0  0  0  0
  140.0066   75.8301  221.7229 H   0  0  0  0  0  0  0  0  0  0  0  0
  141.6174   76.1007  222.5056 H   0  0  0  0  0  0  0  0  0  0  0  0
  141.2010   77.3950  220.8430 C   0  0  0  0  0  0  0  0  0  0  0  0
  140.5215   77.4139  219.9782 H   0  0  0  0  0  0  0  0  0  0  0  0
  140.9397   78.1914  221.5554 H   0  0  0  0  0  0  0  0  0  0  0  0
  142.5740   77.6150  220.3790 N   0  0  0  0  0  0  0  0  0  0  0  0
  143.2350   77.5930  221.1900 H   0  0  0  0  0  0  0  0  0  0  0  0
  142.6320   78.5570  219.9270 H   0  0  0  0  0  0  0  0  0  0  0  0
  142.9550   76.5910  219.4000 C   0  0  0  0  0  0  0  0  0  0  0  0
  142.2527   76.6219  218.5539 H   0  0  0  0  0  0  0  0  0  0  0  0
  143.9791   76.7965  219.0551 H   0  0  0  0  0  0  0  0  0  0  0  0
  142.9200   75.1960  220.0310 C   0  0  0  0  0  0  0  0  0  0  0  0
  143.0279   74.4424  219.2370 H   0  0  0  0  0  0  0  0  0  0  0  0
  143.7452   75.1255  220.7550 H   0  0  0  0  0  0  0  0  0  0  0  0
  141.8930   72.5580  220.4140 N   0  0  0  0  0  0  0  0  0  0  0  0
  141.5830   71.2750  220.7240 C   0  0  0  0  0  0  0  0  0  0  0  0
  142.2720   70.1980  220.0740 N   0  0  0  0  0  0  0  0  0  0  0  0
  143.7410   70.1880  220.0930 C   0  0  0  0  0  0  0  0  0  0  0  0
  144.0770   70.1855  221.1404 H   0  0  0  0  0  0  0  0  0  0  0  0
  144.0809   71.0834  219.5520 H   0  0  0  0  0  0  0  0  0  0  0  0
  144.3370   68.9890  219.3950 C   0  0  0  0  0  0  0  0  0  0  0  0
  145.7110   68.9800  219.0940 C   0  0  0  0  0  0  0  0  0  0  0  0
  146.3315   69.8521  219.3477 H   0  0  0  0  0  0  0  0  0  0  0  0
  146.2930   67.8710  218.4750 C   0  0  0  0  0  0  0  0  0  0  0  0
  147.3655   67.8780  218.2307 H   0  0  0  0  0  0  0  0  0  0  0  0
  145.5140   66.7530  218.1660 C   0  0  0  0  0  0  0  0  0  0  0  0
  145.9742   65.8794  217.6812 H   0  0  0  0  0  0  0  0  0  0  0  0
  144.1480   66.7440  218.4730 C   0  0  0  0  0  0  0  0  0  0  0  0
  143.5407   65.8569  218.2401 H   0  0  0  0  0  0  0  0  0  0  0  0
  143.5490   67.8620  219.0770 C   0  0  0  0  0  0  0  0  0  0  0  0
  142.0840   67.8470  219.4180 C   0  0  0  0  0  0  0  0  0  0  0  0
  141.9545   67.5115  220.4575 H   0  0  0  0  0  0  0  0  0  0  0  0
  141.5600   67.1589  218.7383 H   0  0  0  0  0  0  0  0  0  0  0  0
  141.5020   69.2500  219.2620 C   0  0  0  0  0  0  0  0  0  0  0  0
  140.4538   69.2501  219.5955 H   0  0  0  0  0  0  0  0  0  0  0  0
  141.5535   69.5502  218.2050 H   0  0  0  0  0  0  0  0  0  0  0  0
  140.6300   71.0160  221.6570 N   0  0  0  0  0  0  0  0  0  0  0  0
  140.3970   70.0180  221.8530 H   0  0  0  0  0  0  0  0  0  0  0  0
  140.7990   71.0170  225.6930 C   0  0  0  0  0  0  0  0  0  0  0  0
  141.0183   71.0487  224.6155 H   0  0  0  0  0  0  0  0  0  0  0  0
  141.4190   71.9190  226.5560 C   0  0  0  0  0  0  0  0  0  0  0  0
  142.1311   72.6614  226.1664 H   0  0  0  0  0  0  0  0  0  0  0  0
  1  2  1  0
  2  3  2  0
  3  4  1  0
  4  5  1  0
  4  6  2  0
  6  7  1  0
  7  8  1  0
  7  9  1  0
  7 10  1  0
 10 11  1  0
 10 12  1  0
 10 13  1  0
 13 14  1  0
 13 15  1  0
 13 16  1  0
 16 17  1  0
 16 18  2  0
 18 19  1  0
 19 20  2  0
 20 21  1  0
 21 22  1  0
 22 23  1  0
 22 24  1  0
 22 25  1  0
 25 26  1  0
 25 27  1  0
 25 28  1  0
 28 29  1  0
 28 30  1  0
 28 31  1  0
 31 32  1  0
 31 33  1  0
 31 34  1  0
 34 35  1  0
 34 36  1  0
 20 37  1  0
 37 38  2  0
 38 39  1  0
 39 40  1  0
 40 41  1  0
 40 42  1  0
 40 43  1  0
 43 44  2  0
 44 45  1  0
 44 46  1  0
 46 47  1  0
 46 48  2  0
 48 49  1  0
 48 50  1  0
 50 51  1  0
 50 52  2  0
 52 53  1  0
 53 54  1  0
 53 55  1  0
 53 56  1  0
 56 57  1  0
 56 58  1  0
 38 59  1  0
 59 60  1  0
  6 61  1  0
 61 62  1  0
 61 63  2  0
 63 64  1  0
 63  2  1  0
 59 18  1  0
 34 21  1  0
 56 39  1  0
 52 43  1  0
M  CHG  2  16   1  28   1
M  END
>  <UniqueID>  (80) 
628

>  <SMILES>  (80) 
c1cncc(CCC/[NH+]=c2/nc(N3CC[NH2+]CC3)nc(N3CCc4ccccc4C3)[nH]2)c1

>  <Energy>  (80) 
68.7484789067263

>  <Genealogy>  (80) 
c1cncc(CCC[NH2+]c2nc(N3CC[NH2+]CC3)nc(N3CCc4ccccc4C3)n2)c1 (protonated)
c1cncc(CCC[NH+]=c2nc(N3CC[NH2+]CC3)nc(N3CCc4ccccc4C3)[nH]2)c1 (tautomer)
c1cncc(CCC/[NH+]=c2/nc(N3CC[NH2+]CC3)nc(N3CCc4ccccc4C3)[nH]2)c1 (cis-trans isomerization)
c1cncc(CCC/[NH+]=c2/nc(N3CC[NH2+]CC3)nc(N3CCc4ccccc4C3)[nH]2)c1 (3D coordinates assigned)
c1cncc(CCC/[NH+]=c2/nc(N3CC[NH2+]CC3)nc(N3CCc4ccccc4C3)[nH]2)c1 (nonaromatic ring conformer: 68.7484789067263 kcal/mol)

>  <smiles>  (80) 
c1cncc(CCCNc2nc(N3CCNCC3)nc(N3CCc4ccccc4C3)n2)c1

>  <score_type>  (80) 
oracle

>  <origin>  (80) 
autodockgpu

>  <m_score__min__energy>  (80) 
-9.0700000000000003

>  <m_primary>  (80) 
energy

>  <meeko>  (80) 
{"free_energy": -8.77, "intermolecular_energy": -10.86, "internal_energy": -0.29, "cluster_size": 3, "cluster_id": 2, "rank_in_cluster": 2}

>  <energy>  (80) 
-7.98

>  <cluster_rmsd>  (80) 
0.0

>  <rmsd>  (80) 
269.48

>  <cluster>  (80) 
5

$$$$
