
     RDKit          3D

 41 44  0  0  1  0  0  0  0  0999 V2000
  137.0240   68.5630  223.0690 C   0  0  0  0  0  0  0  0  0  0  0  0
  138.7190   68.1050  223.3040 S   0  0  0  0  0  0  0  0  0  0  0  0
  138.8310   66.6420  223.2200 O   0  0  0  0  0  0  0  0  0  0  0  0
  139.5160   68.7040  222.1630 O   0  0  0  0  0  0  0  0  0  0  0  0
  139.3870   68.7120  224.7690 N   0  0  0  0  0  0  0  0  0  0  0  0
  139.8910   67.6570  225.5860 C   0  0  0  0  0  0  0  0  0  0  0  0
  140.6610   68.1090  226.7710 C   0  0  0  0  0  0  0  0  0  0  0  0
  140.7170   69.5710  226.9790 C   0  0  0  0  0  0  0  0  0  0  0  0
  140.9470   70.0630  228.2260 C   0  0  0  0  0  0  0  0  0  0  0  0
  141.0060   71.4300  228.4200 C   0  0  0  0  0  0  0  0  0  0  0  0
  140.8280   72.2770  227.3280 C   0  0  0  0  0  0  0  0  0  0  0  0
  140.5960   71.7680  226.0710 C   0  0  0  0  0  0  0  0  0  0  0  0
  140.5430   70.4200  225.9120 C   0  0  0  0  0  0  0  0  0  0  0  0
  140.2880   69.7900  224.5870 C   0  0  2  0  0  0  0  0  0  0  0  0
  139.8980   70.8030  223.5810 C   0  0  0  0  0  0  0  0  0  0  0  0
  140.6940   71.3330  222.5640 C   0  0  0  0  0  0  0  0  0  0  0  0
  139.9450   72.2190  221.8770 N   0  0  0  0  0  0  0  0  0  0  0  0
  138.7020   72.2650  222.4300 C   0  0  0  0  0  0  0  0  0  0  0  0
  137.6130   73.0360  222.0500 C   0  0  0  0  0  0  0  0  0  0  0  0
  137.7470   74.1230  220.6940 Cl  0  0  0  0  0  0  0  0  0  0  0  0
  136.4260   72.9330  222.7550 C   0  0  0  0  0  0  0  0  0  0  0  0
  136.3670   72.0570  223.8230 C   0  0  0  0  0  0  0  0  0  0  0  0
  137.4610   71.2870  224.1990 C   0  0  0  0  0  0  0  0  0  0  0  0
  138.6450   71.3860  223.5020 C   0  0  0  0  0  0  0  0  0  0  0  0
  136.5403   68.6937  224.0483 H   0  0  0  0  0  0  0  0  0  0  0  0
  136.9738   69.5069  222.5064 H   0  0  0  0  0  0  0  0  0  0  0  0
  136.5053   67.7728  222.5064 H   0  0  0  0  0  0  0  0  0  0  0  0
  139.0381   67.0584  225.9386 H   0  0  0  0  0  0  0  0  0  0  0  0
  140.5901   67.0836  224.9595 H   0  0  0  0  0  0  0  0  0  0  0  0
  140.2033   67.6579  227.6637 H   0  0  0  0  0  0  0  0  0  0  0  0
  141.6990   67.7914  226.5932 H   0  0  0  0  0  0  0  0  0  0  0  0
  141.0852   69.3771  229.0748 H   0  0  0  0  0  0  0  0  0  0  0  0
  141.1909   71.8436  229.4224 H   0  0  0  0  0  0  0  0  0  0  0  0
  140.8736   73.3665  227.4728 H   0  0  0  0  0  0  0  0  0  0  0  0
  140.4561   72.4398  225.2113 H   0  0  0  0  0  0  0  0  0  0  0  0
  141.2039   69.3541  224.1613 H   0  0  0  0  0  0  0  0  0  0  0  0
  141.7435   71.0743  222.3598 H   0  0  0  0  0  0  0  0  0  0  0  0
  140.2910   72.7710  221.0540 H   0  0  0  0  0  0  0  0  0  0  0  0
  135.5496   73.5345  222.4719 H   0  0  0  0  0  0  0  0  0  0  0  0
  135.4289   71.9671  224.3903 H   0  0  0  0  0  0  0  0  0  0  0  0
  137.3815   70.5985  225.0532 H   0  0  0  0  0  0  0  0  0  0  0  0
  1  2  1  0
  2  3  2  0
  2  4  2  0
  2  5  1  0
  5  6  1  0
  6  7  1  0
  7  8  1  0
  8  9  2  0
  9 10  1  0
 10 11  2  0
 11 12  1  0
 12 13  2  0
 13 14  1  0
 14 15  1  0
 15 16  2  0
 16 17  1  0
 17 18  1  0
 18 19  2  0
 19 20  1  0
 19 21  1  0
 21 22  2  0
 22 23  1  0
 23 24  2  0
 14  5  1  0
 24 15  1  0
 13  8  1  0
 24 18  1  0
  1 25  1  0
  1 26  1  0
  1 27  1  0
  6 28  1  0
  6 29  1  0
  7 30  1  0
  7 31  1  0
  9 32  1  0
 10 33  1  0
 11 34  1  0
 12 35  1  0
 14 36  1  6
 16 37  1  0
 17 38  1  0
 21 39  1  0
 22 40  1  0
 23 41  1  0
M  END
>  <smiles>  (1) 
CS(=O)(=O)N1CCc2ccccc2C1c1c[nH]c2c(Cl)cccc12

>  <score_type>  (1) 
oracle

>  <origin>  (1) 
autodockgpu

>  <m_score__min__energy>  (1) 
-7.2400000000000002

>  <m_primary>  (1) 
energy

>  <meeko>  (1) 
{"free_energy": -7.11, "intermolecular_energy": -7.7, "internal_energy": -0.88, "cluster_size": 12, "cluster_id": 1, "rank_in_cluster": 9}

>  <energy>  (1) 
-7.24

>  <cluster_rmsd>  (1) 
0.0

>  <rmsd>  (1) 
271.55

>  <cluster>  (1) 
1

$$$$

     RDKit          3D

 41 44  0  0  1  0  0  0  0  0999 V2000
  136.7410   68.7940  223.1480 C   0  0  0  0  0  0  0  0  0  0  0  0
  138.4340   68.2830  223.2400 S   0  0  0  0  0  0  0  0  0  0  0  0
  138.4980   66.8220  223.0930 O   0  0  0  0  0  0  0  0  0  0  0  0
  139.1630   68.9060  222.0670 O   0  0  0  0  0  0  0  0  0  0  0  0
  139.2240   68.8150  224.6730 N   0  0  0  0  0  0  0  0  0  0  0  0
  139.8850   67.7370  225.3320 C   0  0  0  0  0  0  0  0  0  0  0  0
  140.7540   68.1440  226.4640 C   0  0  0  0  0  0  0  0  0  0  0  0
  140.7380   69.5850  226.7960 C   0  0  0  0  0  0  0  0  0  0  0  0
  141.0760   69.9870  228.0510 C   0  0  0  0  0  0  0  0  0  0  0  0
  141.0690   71.3330  228.3600 C   0  0  0  0  0  0  0  0  0  0  0  0
  140.7130   72.2530  227.3750 C   0  0  0  0  0  0  0  0  0  0  0  0
  140.3720   71.8340  226.1100 C   0  0  0  0  0  0  0  0  0  0  0  0
  140.3890   70.5030  225.8360 C   0  0  0  0  0  0  0  0  0  0  0  0
  140.0260   69.9690  224.4940 C   0  0  2  0  0  0  0  0  0  0  0  0
  139.4600   71.0300  223.6320 C   0  0  0  0  0  0  0  0  0  0  0  0
  138.1520   71.5170  223.6410 C   0  0  0  0  0  0  0  0  0  0  0  0
  138.0650   72.4780  222.7010 N   0  0  0  0  0  0  0  0  0  0  0  0
  139.2780   72.6120  222.0970 C   0  0  0  0  0  0  0  0  0  0  0  0
  139.6470   73.4760  221.0760 C   0  0  0  0  0  0  0  0  0  0  0  0
  138.4770   74.5810  220.4050 Cl  0  0  0  0  0  0  0  0  0  0  0  0
  140.9460   73.4510  220.5980 C   0  0  0  0  0  0  0  0  0  0  0  0
  141.8390   72.5580  221.1600 C   0  0  0  0  0  0  0  0  0  0  0  0
  141.4640   71.6950  222.1830 C   0  0  0  0  0  0  0  0  0  0  0  0
  140.1720   71.7140  222.6620 C   0  0  0  0  0  0  0  0  0  0  0  0
  136.3389   68.9154  224.1646 H   0  0  0  0  0  0  0  0  0  0  0  0
  136.6758   69.7519  222.6111 H   0  0  0  0  0  0  0  0  0  0  0  0
  136.1567   68.0322  222.6111 H   0  0  0  0  0  0  0  0  0  0  0  0
  139.1183   67.0493  225.7182 H   0  0  0  0  0  0  0  0  0  0  0  0
  140.5446   67.2723  224.5843 H   0  0  0  0  0  0  0  0  0  0  0  0
  140.4305   67.5876  227.3560 H   0  0  0  0  0  0  0  0  0  0  0  0
  141.7836   67.9193  226.1488 H   0  0  0  0  0  0  0  0  0  0  0  0
  141.3530   69.2450  228.8144 H   0  0  0  0  0  0  0  0  0  0  0  0
  141.3407   71.6745  229.3697 H   0  0  0  0  0  0  0  0  0  0  0  0
  140.7047   73.3271  227.6123 H   0  0  0  0  0  0  0  0  0  0  0  0
  140.0909   72.5623  225.3350 H   0  0  0  0  0  0  0  0  0  0  0  0
  140.9137   69.6402  223.9338 H   0  0  0  0  0  0  0  0  0  0  0  0
  137.3379   71.1770  224.2980 H   0  0  0  0  0  0  0  0  0  0  0  0
  137.1910   73.0180  222.4880 H   0  0  0  0  0  0  0  0  0  0  0  0
  141.2605   74.1267  219.7890 H   0  0  0  0  0  0  0  0  0  0  0  0
  142.8737   72.5296  220.7878 H   0  0  0  0  0  0  0  0  0  0  0  0
  142.1987   70.9967  222.6103 H   0  0  0  0  0  0  0  0  0  0  0  0
  1  2  1  0
  2  3  2  0
  2  4  2  0
  2  5  1  0
  5  6  1  0
  6  7  1  0
  7  8  1  0
  8  9  2  0
  9 10  1  0
 10 11  2  0
 11 12  1  0
 12 13  2  0
 13 14  1  0
 14 15  1  0
 15 16  2  0
 16 17  1  0
 17 18  1  0
 18 19  2  0
 19 20  1  0
 19 21  1  0
 21 22  2  0
 22 23  1  0
 23 24  2  0
 14  5  1  0
 24 15  1  0
 13  8  1  0
 24 18  1  0
  1 25  1  0
  1 26  1  0
  1 27  1  0
  6 28  1  0
  6 29  1  0
  7 30  1  0
  7 31  1  0
  9 32  1  0
 10 33  1  0
 11 34  1  0
 12 35  1  0
 14 36  1  6
 16 37  1  0
 17 38  1  0
 21 39  1  0
 22 40  1  0
 23 41  1  0
M  END
>  <smiles>  (2) 
CS(=O)(=O)N1CCc2ccccc2C1c1c[nH]c2c(Cl)cccc12

>  <score_type>  (2) 
oracle

>  <origin>  (2) 
autodockgpu

>  <m_score__min__energy>  (2) 
-7.2400000000000002

>  <m_primary>  (2) 
energy

>  <meeko>  (2) 
{"free_energy": -6.92, "intermolecular_energy": -7.52, "internal_energy": -0.95, "cluster_size": 12, "cluster_id": 1, "rank_in_cluster": 12}

>  <energy>  (2) 
-7.23

>  <cluster_rmsd>  (2) 
0.02

>  <rmsd>  (2) 
271.56

>  <cluster>  (2) 
1

$$$$

     RDKit          3D

 41 44  0  0  1  0  0  0  0  0999 V2000
  137.7520   75.9140  221.9790 C   0  0  0  0  0  0  0  0  0  0  0  0
  138.0610   77.3870  221.0440 S   0  0  0  0  0  0  0  0  0  0  0  0
  138.6670   77.0140  219.7580 O   0  0  0  0  0  0  0  0  0  0  0  0
  136.7220   78.0380  220.7620 O   0  0  0  0  0  0  0  0  0  0  0  0
  139.0200   78.5370  221.8920 N   0  0  0  0  0  0  0  0  0  0  0  0
  138.2250   79.3260  222.7740 C   0  0  0  0  0  0  0  0  0  0  0  0
  139.0000   80.2030  223.6860 C   0  0  0  0  0  0  0  0  0  0  0  0
  140.4650   80.1960  223.4880 C   0  0  0  0  0  0  0  0  0  0  0  0
  141.2010   81.2660  223.8930 C   0  0  0  0  0  0  0  0  0  0  0  0
  142.5710   81.2580  223.7150 C   0  0  0  0  0  0  0  0  0  0  0  0
  143.1710   80.1480  223.1210 C   0  0  0  0  0  0  0  0  0  0  0  0
  142.4160   79.0720  222.7160 C   0  0  0  0  0  0  0  0  0  0  0  0
  141.0710   79.1090  222.9050 C   0  0  0  0  0  0  0  0  0  0  0  0
  140.1830   77.9890  222.4870 C   0  0  2  0  0  0  0  0  0  0  0  0
  140.9230   76.9950  221.6780 C   0  0  0  0  0  0  0  0  0  0  0  0
  141.1070   75.6410  221.9660 C   0  0  0  0  0  0  0  0  0  0  0  0
  141.8350   75.1050  220.9670 N   0  0  0  0  0  0  0  0  0  0  0  0
  142.1160   76.0780  220.0570 C   0  0  0  0  0  0  0  0  0  0  0  0
  142.8390   75.9790  218.8760 C   0  0  0  0  0  0  0  0  0  0  0  0
  143.5200   74.4470  218.4000 Cl  0  0  0  0  0  0  0  0  0  0  0  0
  143.0130   77.1030  218.0870 C   0  0  0  0  0  0  0  0  0  0  0  0
  142.4540   78.2960  218.5060 C   0  0  0  0  0  0  0  0  0  0  0  0
  141.7310   78.3900  219.6890 C   0  0  0  0  0  0  0  0  0  0  0  0
  141.5550   77.2750  220.4800 C   0  0  0  0  0  0  0  0  0  0  0  0
  137.8004   76.1448  223.0534 H   0  0  0  0  0  0  0  0  0  0  0  0
  136.7529   75.5258  221.7320 H   0  0  0  0  0  0  0  0  0  0  0  0
  138.5109   75.1570  221.7320 H   0  0  0  0  0  0  0  0  0  0  0  0
  137.5651   79.9616  222.1653 H   0  0  0  0  0  0  0  0  0  0  0  0
  137.6744   78.6201  223.4133 H   0  0  0  0  0  0  0  0  0  0  0  0
  138.6447   81.2346  223.5463 H   0  0  0  0  0  0  0  0  0  0  0  0
  138.8316   79.8075  224.6985 H   0  0  0  0  0  0  0  0  0  0  0  0
  140.7085   82.1320  224.3592 H   0  0  0  0  0  0  0  0  0  0  0  0
  143.1802   82.1153  224.0373 H   0  0  0  0  0  0  0  0  0  0  0  0
  144.2611   80.1328  222.9746 H   0  0  0  0  0  0  0  0  0  0  0  0
  142.8922   78.1979  222.2479 H   0  0  0  0  0  0  0  0  0  0  0  0
  139.8366   77.4012  223.3499 H   0  0  0  0  0  0  0  0  0  0  0  0
  140.7261   75.1079  222.8496 H   0  0  0  0  0  0  0  0  0  0  0  0
  142.1250   74.0980  220.9220 H   0  0  0  0  0  0  0  0  0  0  0  0
  143.5831   77.0482  217.1479 H   0  0  0  0  0  0  0  0  0  0  0  0
  142.5851   79.1952  217.8861 H   0  0  0  0  0  0  0  0  0  0  0  0
  141.2990   79.3545  219.9943 H   0  0  0  0  0  0  0  0  0  0  0  0
  1  2  1  0
  2  3  2  0
  2  4  2  0
  2  5  1  0
  5  6  1  0
  6  7  1  0
  7  8  1  0
  8  9  2  0
  9 10  1  0
 10 11  2  0
 11 12  1  0
 12 13  2  0
 13 14  1  0
 14 15  1  0
 15 16  2  0
 16 17  1  0
 17 18  1  0
 18 19  2  0
 19 20  1  0
 19 21  1  0
 21 22  2  0
 22 23  1  0
 23 24  2  0
 14  5  1  0
 24 15  1  0
 13  8  1  0
 24 18  1  0
  1 25  1  0
  1 26  1  0
  1 27  1  0
  6 28  1  0
  6 29  1  0
  7 30  1  0
  7 31  1  0
  9 32  1  0
 10 33  1  0
 11 34  1  0
 12 35  1  0
 14 36  1  1
 16 37  1  0
 17 38  1  0
 21 39  1  0
 22 40  1  0
 23 41  1  0
M  END
>  <smiles>  (3) 
CS(=O)(=O)N1CCc2ccccc2C1c1c[nH]c2c(Cl)cccc12

>  <score_type>  (3) 
oracle

>  <origin>  (3) 
autodockgpu

>  <m_score__min__energy>  (3) 
-7.2400000000000002

>  <m_primary>  (3) 
energy

>  <meeko>  (3) 
{"free_energy": -6.64, "intermolecular_energy": -7.23, "internal_energy": -1.22, "cluster_size": 5, "cluster_id": 3, "rank_in_cluster": 2}

>  <energy>  (3) 
-7.22

>  <cluster_rmsd>  (3) 
0.01

>  <rmsd>  (3) 
271.55

>  <cluster>  (3) 
1

$$$$

     RDKit          3D

 41 44  0  0  1  0  0  0  0  0999 V2000
  137.0350   68.5830  223.0950 C   0  0  0  0  0  0  0  0  0  0  0  0
  138.7270   68.1130  223.3320 S   0  0  0  0  0  0  0  0  0  0  0  0
  138.8260   66.6480  223.2650 O   0  0  0  0  0  0  0  0  0  0  0  0
  139.5270   68.6920  222.1830 O   0  0  0  0  0  0  0  0  0  0  0  0
  139.4030   68.7310  224.7880 N   0  0  0  0  0  0  0  0  0  0  0  0
  139.9100   67.6820  225.6110 C   0  0  0  0  0  0  0  0  0  0  0  0
  140.6860   68.1420  226.7890 C   0  0  0  0  0  0  0  0  0  0  0  0
  140.7450   69.6060  226.9850 C   0  0  0  0  0  0  0  0  0  0  0  0
  140.9820   70.1080  228.2270 C   0  0  0  0  0  0  0  0  0  0  0  0
  141.0440   71.4760  228.4090 C   0  0  0  0  0  0  0  0  0  0  0  0
  140.8620   72.3150  227.3110 C   0  0  0  0  0  0  0  0  0  0  0  0
  140.6220   71.7960  226.0600 C   0  0  0  0  0  0  0  0  0  0  0  0
  140.5670   70.4460  225.9120 C   0  0  0  0  0  0  0  0  0  0  0  0
  140.3040   69.8060  224.5930 C   0  0  2  0  0  0  0  0  0  0  0  0
  139.9100   70.8110  223.5810 C   0  0  0  0  0  0  0  0  0  0  0  0
  140.7010   71.3300  222.5540 C   0  0  0  0  0  0  0  0  0  0  0  0
  139.9500   72.2120  221.8650 N   0  0  0  0  0  0  0  0  0  0  0  0
  138.7100   72.2660  222.4250 C   0  0  0  0  0  0  0  0  0  0  0  0
  137.6210   73.0370  222.0450 C   0  0  0  0  0  0  0  0  0  0  0  0
  137.7490   74.1120  220.6800 Cl  0  0  0  0  0  0  0  0  0  0  0  0
  136.4380   72.9430  222.7590 C   0  0  0  0  0  0  0  0  0  0  0  0
  136.3840   72.0770  223.8350 C   0  0  0  0  0  0  0  0  0  0  0  0
  137.4780   71.3070  224.2100 C   0  0  0  0  0  0  0  0  0  0  0  0
  138.6580   71.3970  223.5050 C   0  0  0  0  0  0  0  0  0  0  0  0
  136.5512   68.7174  224.0737 H   0  0  0  0  0  0  0  0  0  0  0  0
  136.9921   69.5271  222.5321 H   0  0  0  0  0  0  0  0  0  0  0  0
  136.5113   67.7963  222.5321 H   0  0  0  0  0  0  0  0  0  0  0  0
  139.0582   67.0870  225.9722 H   0  0  0  0  0  0  0  0  0  0  0  0
  140.6058   67.1034  224.9856 H   0  0  0  0  0  0  0  0  0  0  0  0
  140.2316   67.6987  227.6873 H   0  0  0  0  0  0  0  0  0  0  0  0
  141.7227   67.8212  226.6094 H   0  0  0  0  0  0  0  0  0  0  0  0
  141.1233   69.4290  229.0808 H   0  0  0  0  0  0  0  0  0  0  0  0
  141.2345   71.8975  229.4070 H   0  0  0  0  0  0  0  0  0  0  0  0
  140.9109   73.4055  227.4466 H   0  0  0  0  0  0  0  0  0  0  0  0
  140.4773   72.4609  225.1957 H   0  0  0  0  0  0  0  0  0  0  0  0
  141.2173   69.3659  224.1661 H   0  0  0  0  0  0  0  0  0  0  0  0
  141.7483   71.0665  222.3449 H   0  0  0  0  0  0  0  0  0  0  0  0
  140.2920   72.7560  221.0350 H   0  0  0  0  0  0  0  0  0  0  0  0
  135.5611   73.5440  222.4762 H   0  0  0  0  0  0  0  0  0  0  0  0
  135.4497   71.9953  224.4099 H   0  0  0  0  0  0  0  0  0  0  0  0
  137.4018   70.6254  225.0700 H   0  0  0  0  0  0  0  0  0  0  0  0
  1  2  1  0
  2  3  2  0
  2  4  2  0
  2  5  1  0
  5  6  1  0
  6  7  1  0
  7  8  1  0
  8  9  2  0
  9 10  1  0
 10 11  2  0
 11 12  1  0
 12 13  2  0
 13 14  1  0
 14 15  1  0
 15 16  2  0
 16 17  1  0
 17 18  1  0
 18 19  2  0
 19 20  1  0
 19 21  1  0
 21 22  2  0
 22 23  1  0
 23 24  2  0
 14  5  1  0
 24 15  1  0
 13  8  1  0
 24 18  1  0
  1 25  1  0
  1 26  1  0
  1 27  1  0
  6 28  1  0
  6 29  1  0
  7 30  1  0
  7 31  1  0
  9 32  1  0
 10 33  1  0
 11 34  1  0
 12 35  1  0
 14 36  1  6
 16 37  1  0
 17 38  1  0
 21 39  1  0
 22 40  1  0
 23 41  1  0
M  END
>  <smiles>  (4) 
CS(=O)(=O)N1CCc2ccccc2C1c1c[nH]c2c(Cl)cccc12

>  <score_type>  (4) 
oracle

>  <origin>  (4) 
autodockgpu

>  <m_score__min__energy>  (4) 
-7.2400000000000002

>  <m_primary>  (4) 
energy

>  <meeko>  (4) 
{"free_energy": -7.12, "intermolecular_energy": -7.71, "internal_energy": -0.9, "cluster_size": 12, "cluster_id": 1, "rank_in_cluster": 7}

>  <energy>  (4) 
-7.12

>  <cluster_rmsd>  (4) 
0.76

>  <rmsd>  (4) 
271.48

>  <cluster>  (4) 
1

$$$$

     RDKit          3D

 41 44  0  0  1  0  0  0  0  0999 V2000
  139.5770   68.7190  221.7090 C   0  0  0  0  0  0  0  0  0  0  0  0
  138.6170   68.2870  223.1330 S   0  0  0  0  0  0  0  0  0  0  0  0
  137.2520   68.8020  222.9590 O   0  0  0  0  0  0  0  0  0  0  0  0
  138.5450   66.7740  223.1920 O   0  0  0  0  0  0  0  0  0  0  0  0
  139.3170   68.8240  224.6090 N   0  0  0  0  0  0  0  0  0  0  0  0
  139.7930   67.7270  225.3870 C   0  0  0  0  0  0  0  0  0  0  0  0
  140.5870   68.1140  226.5790 C   0  0  0  0  0  0  0  0  0  0  0  0
  140.6940   69.5670  226.8330 C   0  0  0  0  0  0  0  0  0  0  0  0
  140.9510   70.0100  228.0930 C   0  0  0  0  0  0  0  0  0  0  0  0
  141.0580   71.3670  228.3300 C   0  0  0  0  0  0  0  0  0  0  0  0
  140.8990   72.2550  227.2670 C   0  0  0  0  0  0  0  0  0  0  0  0
  140.6390   71.7950  225.9970 C   0  0  0  0  0  0  0  0  0  0  0  0
  140.5390   70.4550  225.7950 C   0  0  0  0  0  0  0  0  0  0  0  0
  140.2520   69.8770  224.4540 C   0  0  2  0  0  0  0  0  0  0  0  0
  139.8880   70.9340  223.4840 C   0  0  0  0  0  0  0  0  0  0  0  0
  140.7160   71.5260  222.5290 C   0  0  0  0  0  0  0  0  0  0  0  0
  139.9830   72.4350  221.8570 N   0  0  0  0  0  0  0  0  0  0  0  0
  138.7170   72.4360  222.3590 C   0  0  0  0  0  0  0  0  0  0  0  0
  137.6320   73.2100  221.9720 C   0  0  0  0  0  0  0  0  0  0  0  0
  137.8050   74.3670  220.6800 Cl  0  0  0  0  0  0  0  0  0  0  0  0
  136.4190   73.0550  222.6220 C   0  0  0  0  0  0  0  0  0  0  0  0
  136.3300   72.1250  223.6400 C   0  0  0  0  0  0  0  0  0  0  0  0
  137.4200   71.3520  224.0230 C   0  0  0  0  0  0  0  0  0  0  0  0
  138.6300   71.5030  223.3820 C   0  0  0  0  0  0  0  0  0  0  0  0
  140.5363   69.1507  222.0307 H   0  0  0  0  0  0  0  0  0  0  0  0
  139.7641   67.8183  221.1059 H   0  0  0  0  0  0  0  0  0  0  0  0
  139.0270   69.4564  221.1059 H   0  0  0  0  0  0  0  0  0  0  0  0
  138.9238   67.1453  225.7277 H   0  0  0  0  0  0  0  0  0  0  0  0
  140.4681   67.1525  224.7357 H   0  0  0  0  0  0  0  0  0  0  0  0
  140.1211   67.6500  227.4608 H   0  0  0  0  0  0  0  0  0  0  0  0
  141.6122   67.7672  226.3824 H   0  0  0  0  0  0  0  0  0  0  0  0
  141.0729   69.2926  228.9179 H   0  0  0  0  0  0  0  0  0  0  0  0
  141.2657   71.7415  229.3432 H   0  0  0  0  0  0  0  0  0  0  0  0
  140.9825   73.3371  227.4462 H   0  0  0  0  0  0  0  0  0  0  0  0
  140.5144   72.4986  225.1607 H   0  0  0  0  0  0  0  0  0  0  0  0
  141.1496   69.4248  224.0070 H   0  0  0  0  0  0  0  0  0  0  0  0
  141.7769   71.2923  222.3560 H   0  0  0  0  0  0  0  0  0  0  0  0
  140.3530   73.0330  221.0780 H   0  0  0  0  0  0  0  0  0  0  0  0
  135.5458   73.6589  222.3342 H   0  0  0  0  0  0  0  0  0  0  0  0
  135.3706   71.9927  224.1615 H   0  0  0  0  0  0  0  0  0  0  0  0
  137.3164   70.6200  224.8376 H   0  0  0  0  0  0  0  0  0  0  0  0
  1  2  1  0
  2  3  2  0
  2  4  2  0
  2  5  1  0
  5  6  1  0
  6  7  1  0
  7  8  1  0
  8  9  2  0
  9 10  1  0
 10 11  2  0
 11 12  1  0
 12 13  2  0
 13 14  1  0
 14 15  1  0
 15 16  2  0
 16 17  1  0
 17 18  1  0
 18 19  2  0
 19 20  1  0
 19 21  1  0
 21 22  2  0
 22 23  1  0
 23 24  2  0
 14  5  1  0
 24 15  1  0
 13  8  1  0
 24 18  1  0
  1 25  1  0
  1 26  1  0
  1 27  1  0
  6 28  1  0
  6 29  1  0
  7 30  1  0
  7 31  1  0
  9 32  1  0
 10 33  1  0
 11 34  1  0
 12 35  1  0
 14 36  1  6
 16 37  1  0
 17 38  1  0
 21 39  1  0
 22 40  1  0
 23 41  1  0
M  END
>  <smiles>  (5) 
CS(=O)(=O)N1CCc2ccccc2C1c1c[nH]c2c(Cl)cccc12

>  <score_type>  (5) 
oracle

>  <origin>  (5) 
autodockgpu

>  <m_score__min__energy>  (5) 
-7.2400000000000002

>  <m_primary>  (5) 
energy

>  <meeko>  (5) 
{"free_energy": -6.99, "intermolecular_energy": -7.59, "internal_energy": -0.93, "cluster_size": 12, "cluster_id": 1, "rank_in_cluster": 11}

>  <energy>  (5) 
-7.12

>  <cluster_rmsd>  (5) 
0.76

>  <rmsd>  (5) 
271.48

>  <cluster>  (5) 
1

$$$$

     RDKit          3D

 41 44  0  0  1  0  0  0  0  0999 V2000
  139.5600   68.7200  221.9440 C   0  0  0  0  0  0  0  0  0  0  0  0
  138.7250   68.1680  223.4050 S   0  0  0  0  0  0  0  0  0  0  0  0
  137.3040   68.5290  223.3040 O   0  0  0  0  0  0  0  0  0  0  0  0
  138.8250   66.6560  223.4450 O   0  0  0  0  0  0  0  0  0  0  0  0
  139.4330   68.7650  224.8550 N   0  0  0  0  0  0  0  0  0  0  0  0
  139.9660   67.7060  225.6470 C   0  0  0  0  0  0  0  0  0  0  0  0
  140.7680   68.1510  226.8140 C   0  0  0  0  0  0  0  0  0  0  0  0
  140.8220   69.6120  227.0330 C   0  0  0  0  0  0  0  0  0  0  0  0
  141.0860   70.0940  228.2770 C   0  0  0  0  0  0  0  0  0  0  0  0
  141.1450   71.4590  228.4820 C   0  0  0  0  0  0  0  0  0  0  0  0
  140.9300   72.3150  227.4030 C   0  0  0  0  0  0  0  0  0  0  0  0
  140.6630   71.8170  226.1500 C   0  0  0  0  0  0  0  0  0  0  0  0
  140.6130   70.4690  225.9800 C   0  0  0  0  0  0  0  0  0  0  0  0
  140.3220   69.8500  224.6570 C   0  0  2  0  0  0  0  0  0  0  0  0
  139.8970   70.8700  223.6720 C   0  0  0  0  0  0  0  0  0  0  0  0
  140.6880   71.4890  222.7030 C   0  0  0  0  0  0  0  0  0  0  0  0
  139.9040   72.3460  222.0200 N   0  0  0  0  0  0  0  0  0  0  0  0
  138.6420   72.2880  222.5280 C   0  0  0  0  0  0  0  0  0  0  0  0
  137.5160   72.9960  222.1350 C   0  0  0  0  0  0  0  0  0  0  0  0
  137.6200   74.1390  220.8230 Cl  0  0  0  0  0  0  0  0  0  0  0  0
  136.3160   72.7870  222.7930 C   0  0  0  0  0  0  0  0  0  0  0  0
  136.2810   71.8710  223.8280 C   0  0  0  0  0  0  0  0  0  0  0  0
  137.4130   71.1640  224.2170 C   0  0  0  0  0  0  0  0  0  0  0  0
  138.6100   71.3680  223.5670 C   0  0  0  0  0  0  0  0  0  0  0  0
  140.4466   69.3061  222.2277 H   0  0  0  0  0  0  0  0  0  0  0  0
  139.8713   67.8492  221.3484 H   0  0  0  0  0  0  0  0  0  0  0  0
  138.8807   69.3476  221.3484 H   0  0  0  0  0  0  0  0  0  0  0  0
  139.1269   67.0995  226.0185 H   0  0  0  0  0  0  0  0  0  0  0  0
  140.6499   67.1427  224.9951 H   0  0  0  0  0  0  0  0  0  0  0  0
  140.3386   67.6894  227.7154 H   0  0  0  0  0  0  0  0  0  0  0  0
  141.8021   67.8401  226.6042 H   0  0  0  0  0  0  0  0  0  0  0  0
  141.2516   69.4011  229.1151 H   0  0  0  0  0  0  0  0  0  0  0  0
  141.3585   71.8644  229.4820 H   0  0  0  0  0  0  0  0  0  0  0  0
  140.9746   73.4034  227.5563 H   0  0  0  0  0  0  0  0  0  0  0  0
  140.4931   72.4959  225.3013 H   0  0  0  0  0  0  0  0  0  0  0  0
  141.2274   69.4236  224.2005 H   0  0  0  0  0  0  0  0  0  0  0  0
  141.7591   71.3095  222.5282 H   0  0  0  0  0  0  0  0  0  0  0  0
  140.2380   72.9500  221.2300 H   0  0  0  0  0  0  0  0  0  0  0  0
  135.4103   73.3376  222.4988 H   0  0  0  0  0  0  0  0  0  0  0  0
  135.3327   71.6971  224.3575 H   0  0  0  0  0  0  0  0  0  0  0  0
  137.3527   70.4414  225.0442 H   0  0  0  0  0  0  0  0  0  0  0  0
  1  2  1  0
  2  3  2  0
  2  4  2  0
  2  5  1  0
  5  6  1  0
  6  7  1  0
  7  8  1  0
  8  9  2  0
  9 10  1  0
 10 11  2  0
 11 12  1  0
 12 13  2  0
 13 14  1  0
 14 15  1  0
 15 16  2  0
 16 17  1  0
 17 18  1  0
 18 19  2  0
 19 20  1  0
 19 21  1  0
 21 22  2  0
 22 23  1  0
 23 24  2  0
 14  5  1  0
 24 15  1  0
 13  8  1  0
 24 18  1  0
  1 25  1  0
  1 26  1  0
  1 27  1  0
  6 28  1  0
  6 29  1  0
  7 30  1  0
  7 31  1  0
  9 32  1  0
 10 33  1  0
 11 34  1  0
 12 35  1  0
 14 36  1  6
 16 37  1  0
 17 38  1  0
 21 39  1  0
 22 40  1  0
 23 41  1  0
M  END
>  <smiles>  (6) 
CS(=O)(=O)N1CCc2ccccc2C1c1c[nH]c2c(Cl)cccc12

>  <score_type>  (6) 
oracle

>  <origin>  (6) 
autodockgpu

>  <m_score__min__energy>  (6) 
-7.2400000000000002

>  <m_primary>  (6) 
energy

>  <meeko>  (6) 
{"free_energy": -7.24, "intermolecular_energy": -7.84, "internal_energy": -0.74, "cluster_size": 12, "cluster_id": 1, "rank_in_cluster": 1}

>  <energy>  (6) 
-7.12

>  <cluster_rmsd>  (6) 
0.76

>  <rmsd>  (6) 
271.47

>  <cluster>  (6) 
1

$$$$

     RDKit          3D

 41 44  0  0  1  0  0  0  0  0999 V2000
  137.0300   68.5840  223.1080 C   0  0  0  0  0  0  0  0  0  0  0  0
  138.7230   68.1160  223.3350 S   0  0  0  0  0  0  0  0  0  0  0  0
  138.8240   66.6510  223.2660 O   0  0  0  0  0  0  0  0  0  0  0  0
  139.5160   68.6970  222.1820 O   0  0  0  0  0  0  0  0  0  0  0  0
  139.4070   68.7340  224.7880 N   0  0  0  0  0  0  0  0  0  0  0  0
  139.9150   67.6850  225.6090 C   0  0  0  0  0  0  0  0  0  0  0  0
  140.6970   68.1440  226.7840 C   0  0  0  0  0  0  0  0  0  0  0  0
  140.7600   69.6080  226.9780 C   0  0  0  0  0  0  0  0  0  0  0  0
  141.0030   70.1100  228.2190 C   0  0  0  0  0  0  0  0  0  0  0  0
  141.0680   71.4780  228.4000 C   0  0  0  0  0  0  0  0  0  0  0  0
  140.8830   72.3170  227.3020 C   0  0  0  0  0  0  0  0  0  0  0  0
  140.6370   71.7980  226.0530 C   0  0  0  0  0  0  0  0  0  0  0  0
  140.5780   70.4480  225.9060 C   0  0  0  0  0  0  0  0  0  0  0  0
  140.3090   69.8080  224.5890 C   0  0  2  0  0  0  0  0  0  0  0  0
  139.9130   70.8130  223.5770 C   0  0  0  0  0  0  0  0  0  0  0  0
  140.7010   71.3320  222.5490 C   0  0  0  0  0  0  0  0  0  0  0  0
  139.9500   72.2140  221.8610 N   0  0  0  0  0  0  0  0  0  0  0  0
  138.7110   72.2680  222.4240 C   0  0  0  0  0  0  0  0  0  0  0  0
  137.6200   73.0390  222.0470 C   0  0  0  0  0  0  0  0  0  0  0  0
  137.7450   74.1140  220.6810 Cl  0  0  0  0  0  0  0  0  0  0  0  0
  136.4390   72.9440  222.7630 C   0  0  0  0  0  0  0  0  0  0  0  0
  136.3870   72.0780  223.8390 C   0  0  0  0  0  0  0  0  0  0  0  0
  137.4820   71.3080  224.2120 C   0  0  0  0  0  0  0  0  0  0  0  0
  138.6610   71.3980  223.5040 C   0  0  0  0  0  0  0  0  0  0  0  0
  136.5514   68.7163  224.0895 H   0  0  0  0  0  0  0  0  0  0  0  0
  136.9829   69.5289  222.5467 H   0  0  0  0  0  0  0  0  0  0  0  0
  136.5043   67.7975  222.5467 H   0  0  0  0  0  0  0  0  0  0  0  0
  139.0635   67.0919  225.9739 H   0  0  0  0  0  0  0  0  0  0  0  0
  140.6071   67.1048  224.9810 H   0  0  0  0  0  0  0  0  0  0  0  0
  140.2450   67.7026  227.6845 H   0  0  0  0  0  0  0  0  0  0  0  0
  141.7323   67.8203  226.6010 H   0  0  0  0  0  0  0  0  0  0  0  0
  141.1468   69.4311  229.0725 H   0  0  0  0  0  0  0  0  0  0  0  0
  141.2631   71.8997  229.3971 H   0  0  0  0  0  0  0  0  0  0  0  0
  140.9345   73.4075  227.4367 H   0  0  0  0  0  0  0  0  0  0  0  0
  140.4907   72.4627  225.1888 H   0  0  0  0  0  0  0  0  0  0  0  0
  141.2202   69.3664  224.1591 H   0  0  0  0  0  0  0  0  0  0  0  0
  141.7479   71.0683  222.3381 H   0  0  0  0  0  0  0  0  0  0  0  0
  140.2890   72.7580  221.0310 H   0  0  0  0  0  0  0  0  0  0  0  0
  135.5613   73.5445  222.4818 H   0  0  0  0  0  0  0  0  0  0  0  0
  135.4538   71.9961  224.4155 H   0  0  0  0  0  0  0  0  0  0  0  0
  137.4078   70.6266  225.0724 H   0  0  0  0  0  0  0  0  0  0  0  0
  1  2  1  0
  2  3  2  0
  2  4  2  0
  2  5  1  0
  5  6  1  0
  6  7  1  0
  7  8  1  0
  8  9  2  0
  9 10  1  0
 10 11  2  0
 11 12  1  0
 12 13  2  0
 13 14  1  0
 14 15  1  0
 15 16  2  0
 16 17  1  0
 17 18  1  0
 18 19  2  0
 19 20  1  0
 19 21  1  0
 21 22  2  0
 22 23  1  0
 23 24  2  0
 14  5  1  0
 24 15  1  0
 13  8  1  0
 24 18  1  0
  1 25  1  0
  1 26  1  0
  1 27  1  0
  6 28  1  0
  6 29  1  0
  7 30  1  0
  7 31  1  0
  9 32  1  0
 10 33  1  0
 11 34  1  0
 12 35  1  0
 14 36  1  6
 16 37  1  0
 17 38  1  0
 21 39  1  0
 22 40  1  0
 23 41  1  0
M  END
>  <smiles>  (7) 
CS(=O)(=O)N1CCc2ccccc2C1c1c[nH]c2c(Cl)cccc12

>  <score_type>  (7) 
oracle

>  <origin>  (7) 
autodockgpu

>  <m_score__min__energy>  (7) 
-7.2400000000000002

>  <m_primary>  (7) 
energy

>  <meeko>  (7) 
{"free_energy": -7.12, "intermolecular_energy": -7.72, "internal_energy": -0.89, "cluster_size": 12, "cluster_id": 1, "rank_in_cluster": 4}

>  <energy>  (7) 
-7.12

>  <cluster_rmsd>  (7) 
0.76

>  <rmsd>  (7) 
271.48

>  <cluster>  (7) 
1

$$$$

     RDKit          3D

 41 44  0  0  1  0  0  0  0  0999 V2000
  137.0290   68.5580  223.1050 C   0  0  0  0  0  0  0  0  0  0  0  0
  138.7250   68.1000  223.3320 S   0  0  0  0  0  0  0  0  0  0  0  0
  138.8360   66.6370  223.2520 O   0  0  0  0  0  0  0  0  0  0  0  0
  139.5160   68.6950  222.1840 O   0  0  0  0  0  0  0  0  0  0  0  0
  139.4020   68.7130  224.7900 N   0  0  0  0  0  0  0  0  0  0  0  0
  139.9080   67.6610  225.6090 C   0  0  0  0  0  0  0  0  0  0  0  0
  140.6850   68.1160  226.7890 C   0  0  0  0  0  0  0  0  0  0  0  0
  140.7440   69.5800  226.9900 C   0  0  0  0  0  0  0  0  0  0  0  0
  140.9820   70.0760  228.2330 C   0  0  0  0  0  0  0  0  0  0  0  0
  141.0450   71.4440  228.4210 C   0  0  0  0  0  0  0  0  0  0  0  0
  140.8620   72.2870  227.3260 C   0  0  0  0  0  0  0  0  0  0  0  0
  140.6230   71.7730  226.0730 C   0  0  0  0  0  0  0  0  0  0  0  0
  140.5660   70.4230  225.9200 C   0  0  0  0  0  0  0  0  0  0  0  0
  140.3040   69.7890  224.5990 C   0  0  2  0  0  0  0  0  0  0  0  0
  139.9100   70.7970  223.5900 C   0  0  0  0  0  0  0  0  0  0  0  0
  140.7020   71.3220  222.5670 C   0  0  0  0  0  0  0  0  0  0  0  0
  139.9510   72.2060  221.8800 N   0  0  0  0  0  0  0  0  0  0  0  0
  138.7110   72.2560  222.4390 C   0  0  0  0  0  0  0  0  0  0  0  0
  137.6210   73.0270  222.0600 C   0  0  0  0  0  0  0  0  0  0  0  0
  137.7500   74.1080  220.7000 Cl  0  0  0  0  0  0  0  0  0  0  0  0
  136.4370   72.9290  222.7720 C   0  0  0  0  0  0  0  0  0  0  0  0
  136.3820   72.0580  223.8440 C   0  0  0  0  0  0  0  0  0  0  0  0
  137.4770   71.2880  224.2180 C   0  0  0  0  0  0  0  0  0  0  0  0
  138.6580   71.3820  223.5150 C   0  0  0  0  0  0  0  0  0  0  0  0
  136.5496   68.6875  224.0865 H   0  0  0  0  0  0  0  0  0  0  0  0
  136.9762   69.5026  222.5437 H   0  0  0  0  0  0  0  0  0  0  0  0
  136.5079   67.7684  222.5437 H   0  0  0  0  0  0  0  0  0  0  0  0
  139.0557   67.0656  225.9682 H   0  0  0  0  0  0  0  0  0  0  0  0
  140.6033   67.0842  224.9814 H   0  0  0  0  0  0  0  0  0  0  0  0
  140.2309   67.6694  227.6858 H   0  0  0  0  0  0  0  0  0  0  0  0
  141.7216   67.7953  226.6084 H   0  0  0  0  0  0  0  0  0  0  0  0
  141.1235   69.3932  229.0837 H   0  0  0  0  0  0  0  0  0  0  0  0
  141.2368   71.8615  229.4205 H   0  0  0  0  0  0  0  0  0  0  0  0
  140.9094   73.3770  227.4659 H   0  0  0  0  0  0  0  0  0  0  0  0
  140.4807   72.4412  225.2109 H   0  0  0  0  0  0  0  0  0  0  0  0
  141.2181   69.3516  224.1710 H   0  0  0  0  0  0  0  0  0  0  0  0
  141.7502   71.0612  222.3590 H   0  0  0  0  0  0  0  0  0  0  0  0
  140.2940   72.7540  221.0530 H   0  0  0  0  0  0  0  0  0  0  0  0
  135.5602   73.5307  222.4908 H   0  0  0  0  0  0  0  0  0  0  0  0
  135.4466   71.9720  224.4164 H   0  0  0  0  0  0  0  0  0  0  0  0
  137.4006   70.6034  225.0756 H   0  0  0  0  0  0  0  0  0  0  0  0
  1  2  1  0
  2  3  2  0
  2  4  2  0
  2  5  1  0
  5  6  1  0
  6  7  1  0
  7  8  1  0
  8  9  2  0
  9 10  1  0
 10 11  2  0
 11 12  1  0
 12 13  2  0
 13 14  1  0
 14 15  1  0
 15 16  2  0
 16 17  1  0
 17 18  1  0
 18 19  2  0
 19 20  1  0
 19 21  1  0
 21 22  2  0
 22 23  1  0
 23 24  2  0
 14  5  1  0
 24 15  1  0
 13  8  1  0
 24 18  1  0
  1 25  1  0
  1 26  1  0
  1 27  1  0
  6 28  1  0
  6 29  1  0
  7 30  1  0
  7 31  1  0
  9 32  1  0
 10 33  1  0
 11 34  1  0
 12 35  1  0
 14 36  1  6
 16 37  1  0
 17 38  1  0
 21 39  1  0
 22 40  1  0
 23 41  1  0
M  END
>  <smiles>  (8) 
CS(=O)(=O)N1CCc2ccccc2C1c1c[nH]c2c(Cl)cccc12

>  <score_type>  (8) 
oracle

>  <origin>  (8) 
autodockgpu

>  <m_score__min__energy>  (8) 
-7.2400000000000002

>  <m_primary>  (8) 
energy

>  <meeko>  (8) 
{"free_energy": -7.12, "intermolecular_energy": -7.71, "internal_energy": -0.88, "cluster_size": 12, "cluster_id": 1, "rank_in_cluster": 5}

>  <energy>  (8) 
-7.11

>  <cluster_rmsd>  (8) 
0.76

>  <rmsd>  (8) 
271.47

>  <cluster>  (8) 
1

$$$$

     RDKit          3D

 41 44  0  0  1  0  0  0  0  0999 V2000
  137.7560   75.9340  221.9430 C   0  0  0  0  0  0  0  0  0  0  0  0
  138.0830   77.4040  221.0110 S   0  0  0  0  0  0  0  0  0  0  0  0
  138.6980   77.0260  219.7300 O   0  0  0  0  0  0  0  0  0  0  0  0
  136.7510   78.0630  220.7170 O   0  0  0  0  0  0  0  0  0  0  0  0
  139.0430   78.5470  221.8650 N   0  0  0  0  0  0  0  0  0  0  0  0
  138.2460   79.3410  222.7430 C   0  0  0  0  0  0  0  0  0  0  0  0
  139.0200   80.2130  223.6610 C   0  0  0  0  0  0  0  0  0  0  0  0
  140.4860   80.1980  223.4730 C   0  0  0  0  0  0  0  0  0  0  0  0
  141.2250   81.2630  223.8830 C   0  0  0  0  0  0  0  0  0  0  0  0
  142.5960   81.2470  223.7150 C   0  0  0  0  0  0  0  0  0  0  0  0
  143.1940   80.1340  223.1260 C   0  0  0  0  0  0  0  0  0  0  0  0
  142.4360   79.0630  222.7150 C   0  0  0  0  0  0  0  0  0  0  0  0
  141.0890   79.1080  222.8930 C   0  0  0  0  0  0  0  0  0  0  0  0
  140.1980   77.9930  222.4690 C   0  0  2  0  0  0  0  0  0  0  0  0
  140.9380   76.9950  221.6650 C   0  0  0  0  0  0  0  0  0  0  0  0
  141.1150   75.6410  221.9540 C   0  0  0  0  0  0  0  0  0  0  0  0
  141.8460   75.1010  220.9590 N   0  0  0  0  0  0  0  0  0  0  0  0
  142.1360   76.0720  220.0500 C   0  0  0  0  0  0  0  0  0  0  0  0
  142.8660   75.9690  218.8740 C   0  0  0  0  0  0  0  0  0  0  0  0
  143.5430   74.4340  218.4020 Cl  0  0  0  0  0  0  0  0  0  0  0  0
  143.0480   77.0920  218.0850 C   0  0  0  0  0  0  0  0  0  0  0  0
  142.4920   78.2870  218.5000 C   0  0  0  0  0  0  0  0  0  0  0  0
  141.7630   78.3850  219.6790 C   0  0  0  0  0  0  0  0  0  0  0  0
  141.5790   77.2720  220.4690 C   0  0  0  0  0  0  0  0  0  0  0  0
  137.8068   76.1624  223.0178 H   0  0  0  0  0  0  0  0  0  0  0  0
  136.7523   75.5583  221.6950 H   0  0  0  0  0  0  0  0  0  0  0  0
  138.5058   75.1683  221.6950 H   0  0  0  0  0  0  0  0  0  0  0  0
  137.5941   79.9809  222.1302 H   0  0  0  0  0  0  0  0  0  0  0  0
  137.6870   78.6380  223.3781 H   0  0  0  0  0  0  0  0  0  0  0  0
  138.6714   81.2467  223.5198 H   0  0  0  0  0  0  0  0  0  0  0  0
  138.8426   79.8175  224.6720 H   0  0  0  0  0  0  0  0  0  0  0  0
  140.7342   82.1320  224.3456 H   0  0  0  0  0  0  0  0  0  0  0  0
  143.2076   82.1010  224.0416 H   0  0  0  0  0  0  0  0  0  0  0  0
  144.2851   80.1123  222.9884 H   0  0  0  0  0  0  0  0  0  0  0  0
  142.9107   78.1860  222.2507 H   0  0  0  0  0  0  0  0  0  0  0  0
  139.8424   77.4078  223.3299 H   0  0  0  0  0  0  0  0  0  0  0  0
  140.7273   75.1099  222.8358 H   0  0  0  0  0  0  0  0  0  0  0  0
  142.1330   74.0920  220.9170 H   0  0  0  0  0  0  0  0  0  0  0  0
  143.6224   77.0343  217.1487 H   0  0  0  0  0  0  0  0  0  0  0  0
  142.6302   79.1852  217.8802 H   0  0  0  0  0  0  0  0  0  0  0  0
  141.3330   79.3513  219.9812 H   0  0  0  0  0  0  0  0  0  0  0  0
  1  2  1  0
  2  3  2  0
  2  4  2  0
  2  5  1  0
  5  6  1  0
  6  7  1  0
  7  8  1  0
  8  9  2  0
  9 10  1  0
 10 11  2  0
 11 12  1  0
 12 13  2  0
 13 14  1  0
 14 15  1  0
 15 16  2  0
 16 17  1  0
 17 18  1  0
 18 19  2  0
 19 20  1  0
 19 21  1  0
 21 22  2  0
 22 23  1  0
 23 24  2  0
 14  5  1  0
 24 15  1  0
 13  8  1  0
 24 18  1  0
  1 25  1  0
  1 26  1  0
  1 27  1  0
  6 28  1  0
  6 29  1  0
  7 30  1  0
  7 31  1  0
  9 32  1  0
 10 33  1  0
 11 34  1  0
 12 35  1  0
 14 36  1  1
 16 37  1  0
 17 38  1  0
 21 39  1  0
 22 40  1  0
 23 41  1  0
M  END
>  <smiles>  (9) 
CS(=O)(=O)N1CCc2ccccc2C1c1c[nH]c2c(Cl)cccc12

>  <score_type>  (9) 
oracle

>  <origin>  (9) 
autodockgpu

>  <m_score__min__energy>  (9) 
-7.2400000000000002

>  <m_primary>  (9) 
energy

>  <meeko>  (9) 
{"free_energy": -6.63, "intermolecular_energy": -7.23, "internal_energy": -1.22, "cluster_size": 5, "cluster_id": 3, "rank_in_cluster": 3}

>  <energy>  (9) 
-7.11

>  <cluster_rmsd>  (9) 
0.76

>  <rmsd>  (9) 
271.47

>  <cluster>  (9) 
1

$$$$

     RDKit          3D

 41 44  0  0  1  0  0  0  0  0999 V2000
  137.7420   75.9450  221.9630 C   0  0  0  0  0  0  0  0  0  0  0  0
  138.0750   77.4070  221.0200 S   0  0  0  0  0  0  0  0  0  0  0  0
  138.6900   77.0190  219.7430 O   0  0  0  0  0  0  0  0  0  0  0  0
  136.7460   78.0700  220.7200 O   0  0  0  0  0  0  0  0  0  0  0  0
  139.0370   78.5540  221.8680 N   0  0  0  0  0  0  0  0  0  0  0  0
  138.2430   79.3550  222.7400 C   0  0  0  0  0  0  0  0  0  0  0  0
  139.0190   80.2310  223.6520 C   0  0  0  0  0  0  0  0  0  0  0  0
  140.4850   80.2110  223.4650 C   0  0  0  0  0  0  0  0  0  0  0  0
  141.2270   81.2770  223.8680 C   0  0  0  0  0  0  0  0  0  0  0  0
  142.5980   81.2570  223.7000 C   0  0  0  0  0  0  0  0  0  0  0  0
  143.1930   80.1380  223.1180 C   0  0  0  0  0  0  0  0  0  0  0  0
  142.4320   79.0660  222.7140 C   0  0  0  0  0  0  0  0  0  0  0  0
  141.0860   79.1160  222.8920 C   0  0  0  0  0  0  0  0  0  0  0  0
  140.1920   78.0010  222.4750 C   0  0  2  0  0  0  0  0  0  0  0  0
  140.9290   76.9950  221.6770 C   0  0  0  0  0  0  0  0  0  0  0  0
  141.0990   75.6420  221.9730 C   0  0  0  0  0  0  0  0  0  0  0  0
  141.8300   75.0940  220.9820 N   0  0  0  0  0  0  0  0  0  0  0  0
  142.1280   76.0600  220.0700 C   0  0  0  0  0  0  0  0  0  0  0  0
  142.8600   75.9480  218.8960 C   0  0  0  0  0  0  0  0  0  0  0  0
  143.5310   74.4080  218.4330 Cl  0  0  0  0  0  0  0  0  0  0  0  0
  143.0500   77.0670  218.1030 C   0  0  0  0  0  0  0  0  0  0  0  0
  142.4990   78.2670  218.5110 C   0  0  0  0  0  0  0  0  0  0  0  0
  141.7660   78.3730  219.6880 C   0  0  0  0  0  0  0  0  0  0  0  0
  141.5740   77.2650  220.4820 C   0  0  0  0  0  0  0  0  0  0  0  0
  137.7957   76.1807  223.0361 H   0  0  0  0  0  0  0  0  0  0  0  0
  136.7361   75.5727  221.7192 H   0  0  0  0  0  0  0  0  0  0  0  0
  138.4875   75.1737  221.7192 H   0  0  0  0  0  0  0  0  0  0  0  0
  137.5925   79.9924  222.1231 H   0  0  0  0  0  0  0  0  0  0  0  0
  137.6825   78.6575  223.3798 H   0  0  0  0  0  0  0  0  0  0  0  0
  138.6732   81.2646  223.5035 H   0  0  0  0  0  0  0  0  0  0  0  0
  138.8403   79.8427  224.6655 H   0  0  0  0  0  0  0  0  0  0  0  0
  140.7383   82.1501  224.3251 H   0  0  0  0  0  0  0  0  0  0  0  0
  143.2118   82.1116  224.0208 H   0  0  0  0  0  0  0  0  0  0  0  0
  144.2841   80.1125  222.9804 H   0  0  0  0  0  0  0  0  0  0  0  0
  142.9042   78.1847  222.2554 H   0  0  0  0  0  0  0  0  0  0  0  0
  139.8355   77.4224  223.3400 H   0  0  0  0  0  0  0  0  0  0  0  0
  140.7069   75.1169  222.8565 H   0  0  0  0  0  0  0  0  0  0  0  0
  142.1120   74.0840  220.9450 H   0  0  0  0  0  0  0  0  0  0  0  0
  143.6269   77.0023  217.1687 H   0  0  0  0  0  0  0  0  0  0  0  0
  142.6441   79.1620  217.8882 H   0  0  0  0  0  0  0  0  0  0  0  0
  141.3395   79.3426  219.9847 H   0  0  0  0  0  0  0  0  0  0  0  0
  1  2  1  0
  2  3  2  0
  2  4  2  0
  2  5  1  0
  5  6  1  0
  6  7  1  0
  7  8  1  0
  8  9  2  0
  9 10  1  0
 10 11  2  0
 11 12  1  0
 12 13  2  0
 13 14  1  0
 14 15  1  0
 15 16  2  0
 16 17  1  0
 17 18  1  0
 18 19  2  0
 19 20  1  0
 19 21  1  0
 21 22  2  0
 22 23  1  0
 23 24  2  0
 14  5  1  0
 24 15  1  0
 13  8  1  0
 24 18  1  0
  1 25  1  0
  1 26  1  0
  1 27  1  0
  6 28  1  0
  6 29  1  0
  7 30  1  0
  7 31  1  0
  9 32  1  0
 10 33  1  0
 11 34  1  0
 12 35  1  0
 14 36  1  1
 16 37  1  0
 17 38  1  0
 21 39  1  0
 22 40  1  0
 23 41  1  0
M  END
>  <smiles>  (10) 
CS(=O)(=O)N1CCc2ccccc2C1c1c[nH]c2c(Cl)cccc12

>  <score_type>  (10) 
oracle

>  <origin>  (10) 
autodockgpu

>  <m_score__min__energy>  (10) 
-7.2400000000000002

>  <m_primary>  (10) 
energy

>  <meeko>  (10) 
{"free_energy": -6.64, "intermolecular_energy": -7.23, "internal_energy": -1.21, "cluster_size": 5, "cluster_id": 3, "rank_in_cluster": 1}

>  <energy>  (10) 
-7.02

>  <cluster_rmsd>  (10) 
0.73

>  <rmsd>  (10) 
271.39

>  <cluster>  (10) 
1

$$$$

     RDKit          3D

 41 44  0  0  1  0  0  0  0  0999 V2000
  139.3800   70.9120  221.1460 C   0  0  0  0  0  0  0  0  0  0  0  0
  139.3050   71.8860  222.6230 S   0  0  0  0  0  0  0  0  0  0  0  0
  140.0550   73.1310  222.4090 O   0  0  0  0  0  0  0  0  0  0  0  0
  137.8520   72.2460  222.8590 O   0  0  0  0  0  0  0  0  0  0  0  0
  139.8560   71.0430  224.0180 N   0  0  0  0  0  0  0  0  0  0  0  0
  140.7010   71.8640  224.8210 C   0  0  0  0  0  0  0  0  0  0  0  0
  141.0570   71.2820  226.1390 C   0  0  0  0  0  0  0  0  0  0  0  0
  140.5600   69.9120  226.3890 C   0  0  0  0  0  0  0  0  0  0  0  0
  141.1990   69.1220  227.2920 C   0  0  0  0  0  0  0  0  0  0  0  0
  140.7310   67.8440  227.5310 C   0  0  0  0  0  0  0  0  0  0  0  0
  139.6090   67.3930  226.8380 C   0  0  0  0  0  0  0  0  0  0  0  0
  138.9710   68.2010  225.9270 C   0  0  0  0  0  0  0  0  0  0  0  0
  139.4550   69.4530  225.7130 C   0  0  0  0  0  0  0  0  0  0  0  0
  138.8270   70.3870  224.7380 C   0  0  2  0  0  0  0  0  0  0  0  0
  137.7990   69.6990  223.9250 C   0  0  0  0  0  0  0  0  0  0  0  0
  136.4290   69.9630  223.8950 C   0  0  0  0  0  0  0  0  0  0  0  0
  135.8660   69.1090  223.0180 N   0  0  0  0  0  0  0  0  0  0  0  0
  136.8380   68.3120  222.4940 C   0  0  0  0  0  0  0  0  0  0  0  0
  136.7140   67.2940  221.5600 C   0  0  0  0  0  0  0  0  0  0  0  0
  135.1480   66.9010  220.9030 Cl  0  0  0  0  0  0  0  0  0  0  0  0
  137.8410   66.5970  221.1580 C   0  0  0  0  0  0  0  0  0  0  0  0
  139.0610   66.9430  221.7070 C   0  0  0  0  0  0  0  0  0  0  0  0
  139.1800   67.9640  222.6420 C   0  0  0  0  0  0  0  0  0  0  0  0
  138.0620   68.6610  223.0470 C   0  0  0  0  0  0  0  0  0  0  0  0
  139.4620   69.8479  221.4123 H   0  0  0  0  0  0  0  0  0  0  0  0
  138.4668   71.0726  220.5541 H   0  0  0  0  0  0  0  0  0  0  0  0
  140.2578   71.2105  220.5541 H   0  0  0  0  0  0  0  0  0  0  0  0
  141.6318   72.0466  224.2639 H   0  0  0  0  0  0  0  0  0  0  0  0
  140.1350   72.7840  225.0292 H   0  0  0  0  0  0  0  0  0  0  0  0
  142.1542   71.2628  226.2150 H   0  0  0  0  0  0  0  0  0  0  0  0
  140.5695   71.9202  226.8907 H   0  0  0  0  0  0  0  0  0  0  0  0
  142.0826   69.4975  227.8288 H   0  0  0  0  0  0  0  0  0  0  0  0
  141.2369   67.1917  228.2580 H   0  0  0  0  0  0  0  0  0  0  0  0
  139.2290   66.3773  227.0224 H   0  0  0  0  0  0  0  0  0  0  0  0
  138.0859   67.8413  225.3818 H   0  0  0  0  0  0  0  0  0  0  0  0
  138.2561   71.1789  225.2449 H   0  0  0  0  0  0  0  0  0  0  0  0
  135.9032   70.7305  224.4819 H   0  0  0  0  0  0  0  0  0  0  0  0
  134.8410   69.0820  222.7960 H   0  0  0  0  0  0  0  0  0  0  0  0
  137.7668   65.7862  220.4183 H   0  0  0  0  0  0  0  0  0  0  0  0
  139.9626   66.3952  221.3953 H   0  0  0  0  0  0  0  0  0  0  0  0
  140.1663   68.2159  223.0589 H   0  0  0  0  0  0  0  0  0  0  0  0
  1  2  1  0
  2  3  2  0
  2  4  2  0
  2  5  1  0
  5  6  1  0
  6  7  1  0
  7  8  1  0
  8  9  2  0
  9 10  1  0
 10 11  2  0
 11 12  1  0
 12 13  2  0
 13 14  1  0
 14 15  1  0
 15 16  2  0
 16 17  1  0
 17 18  1  0
 18 19  2  0
 19 20  1  0
 19 21  1  0
 21 22  2  0
 22 23  1  0
 23 24  2  0
 14  5  1  0
 24 15  1  0
 13  8  1  0
 24 18  1  0
  1 25  1  0
  1 26  1  0
  1 27  1  0
  6 28  1  0
  6 29  1  0
  7 30  1  0
  7 31  1  0
  9 32  1  0
 10 33  1  0
 11 34  1  0
 12 35  1  0
 14 36  1  1
 16 37  1  0
 17 38  1  0
 21 39  1  0
 22 40  1  0
 23 41  1  0
M  END
>  <smiles>  (11) 
CS(=O)(=O)N1CCc2ccccc2C1c1c[nH]c2c(Cl)cccc12

>  <score_type>  (11) 
oracle

>  <origin>  (11) 
autodockgpu

>  <m_score__min__energy>  (11) 
-7.2400000000000002

>  <m_primary>  (11) 
energy

>  <meeko>  (11) 
{"free_energy": -6.78, "intermolecular_energy": -7.37, "internal_energy": -1.15, "cluster_size": 3, "cluster_id": 2, "rank_in_cluster": 3}

>  <energy>  (11) 
-6.99

>  <cluster_rmsd>  (11) 
0.27

>  <rmsd>  (11) 
271.39

>  <cluster>  (11) 
1

$$$$

     RDKit          3D

 41 44  0  0  1  0  0  0  0  0999 V2000
  137.7480   75.9320  221.9750 C   0  0  0  0  0  0  0  0  0  0  0  0
  138.0600   77.4050  221.0430 S   0  0  0  0  0  0  0  0  0  0  0  0
  138.6650   77.0340  219.7570 O   0  0  0  0  0  0  0  0  0  0  0  0
  136.7230   78.0600  220.7620 O   0  0  0  0  0  0  0  0  0  0  0  0
  139.0220   78.5510  221.8930 N   0  0  0  0  0  0  0  0  0  0  0  0
  138.2280   79.3440  222.7730 C   0  0  0  0  0  0  0  0  0  0  0  0
  139.0040   80.2180  223.6870 C   0  0  0  0  0  0  0  0  0  0  0  0
  140.4700   80.2050  223.4920 C   0  0  0  0  0  0  0  0  0  0  0  0
  141.2090   81.2720  223.8990 C   0  0  0  0  0  0  0  0  0  0  0  0
  142.5800   81.2590  223.7240 C   0  0  0  0  0  0  0  0  0  0  0  0
  143.1760   80.1460  223.1320 C   0  0  0  0  0  0  0  0  0  0  0  0
  142.4180   79.0730  222.7260 C   0  0  0  0  0  0  0  0  0  0  0  0
  141.0720   79.1160  222.9110 C   0  0  0  0  0  0  0  0  0  0  0  0
  140.1810   77.9990  222.4910 C   0  0  2  0  0  0  0  0  0  0  0  0
  140.9190   77.0020  221.6840 C   0  0  0  0  0  0  0  0  0  0  0  0
  141.1010   75.6490  221.9750 C   0  0  0  0  0  0  0  0  0  0  0  0
  141.8270   75.1090  220.9760 N   0  0  0  0  0  0  0  0  0  0  0  0
  142.1100   76.0800  220.0650 C   0  0  0  0  0  0  0  0  0  0  0  0
  142.8330   75.9760  218.8840 C   0  0  0  0  0  0  0  0  0  0  0  0
  143.5110   74.4430  218.4110 Cl  0  0  0  0  0  0  0  0  0  0  0  0
  143.0090   77.0990  218.0930 C   0  0  0  0  0  0  0  0  0  0  0  0
  142.4530   78.2940  218.5090 C   0  0  0  0  0  0  0  0  0  0  0  0
  141.7300   78.3910  219.6920 C   0  0  0  0  0  0  0  0  0  0  0  0
  141.5520   77.2790  220.4850 C   0  0  0  0  0  0  0  0  0  0  0  0
  137.7965   76.1610  223.0498 H   0  0  0  0  0  0  0  0  0  0  0  0
  136.7482   75.5461  221.7271 H   0  0  0  0  0  0  0  0  0  0  0  0
  138.5055   75.1739  221.7271 H   0  0  0  0  0  0  0  0  0  0  0  0
  137.5725   79.9823  222.1623 H   0  0  0  0  0  0  0  0  0  0  0  0
  137.6729   78.6406  223.4110 H   0  0  0  0  0  0  0  0  0  0  0  0
  138.6530   81.2510  223.5466 H   0  0  0  0  0  0  0  0  0  0  0  0
  138.8315   79.8235  224.6992 H   0  0  0  0  0  0  0  0  0  0  0  0
  140.7186   82.1397  224.3645 H   0  0  0  0  0  0  0  0  0  0  0  0
  143.1920   82.1141  224.0470 H   0  0  0  0  0  0  0  0  0  0  0  0
  144.2663   80.1261  222.9880 H   0  0  0  0  0  0  0  0  0  0  0  0
  142.8919   78.1963  222.2603 H   0  0  0  0  0  0  0  0  0  0  0  0
  139.8306   77.4128  223.3533 H   0  0  0  0  0  0  0  0  0  0  0  0
  140.7204   75.1188  222.8604 H   0  0  0  0  0  0  0  0  0  0  0  0
  142.1160   74.1010  220.9340 H   0  0  0  0  0  0  0  0  0  0  0  0
  143.5790   77.0412  217.1540 H   0  0  0  0  0  0  0  0  0  0  0  0
  142.5862   79.1918  217.8875 H   0  0  0  0  0  0  0  0  0  0  0  0
  141.2995   79.3568  219.9953 H   0  0  0  0  0  0  0  0  0  0  0  0
  1  2  1  0
  2  3  2  0
  2  4  2  0
  2  5  1  0
  5  6  1  0
  6  7  1  0
  7  8  1  0
  8  9  2  0
  9 10  1  0
 10 11  2  0
 11 12  1  0
 12 13  2  0
 13 14  1  0
 14 15  1  0
 15 16  2  0
 16 17  1  0
 17 18  1  0
 18 19  2  0
 19 20  1  0
 19 21  1  0
 21 22  2  0
 22 23  1  0
 23 24  2  0
 14  5  1  0
 24 15  1  0
 13  8  1  0
 24 18  1  0
  1 25  1  0
  1 26  1  0
  1 27  1  0
  6 28  1  0
  6 29  1  0
  7 30  1  0
  7 31  1  0
  9 32  1  0
 10 33  1  0
 11 34  1  0
 12 35  1  0
 14 36  1  1
 16 37  1  0
 17 38  1  0
 21 39  1  0
 22 40  1  0
 23 41  1  0
M  END
>  <smiles>  (12) 
CS(=O)(=O)N1CCc2ccccc2C1c1c[nH]c2c(Cl)cccc12

>  <score_type>  (12) 
oracle

>  <origin>  (12) 
autodockgpu

>  <m_score__min__energy>  (12) 
-7.2400000000000002

>  <m_primary>  (12) 
energy

>  <meeko>  (12) 
{"free_energy": -6.63, "intermolecular_energy": -7.22, "internal_energy": -1.22, "cluster_size": 5, "cluster_id": 3, "rank_in_cluster": 4}

>  <energy>  (12) 
-6.92

>  <cluster_rmsd>  (12) 
1.44

>  <rmsd>  (12) 
271.46

>  <cluster>  (12) 
1

$$$$

     RDKit          3D

 41 44  0  0  1  0  0  0  0  0999 V2000
  139.5610   68.7190  221.9590 C   0  0  0  0  0  0  0  0  0  0  0  0
  138.7160   68.1750  223.4180 S   0  0  0  0  0  0  0  0  0  0  0  0
  137.2970   68.5410  223.3090 O   0  0  0  0  0  0  0  0  0  0  0  0
  138.8100   66.6630  223.4620 O   0  0  0  0  0  0  0  0  0  0  0  0
  139.4190   68.7730  224.8700 N   0  0  0  0  0  0  0  0  0  0  0  0
  139.9480   67.7140  225.6650 C   0  0  0  0  0  0  0  0  0  0  0  0
  140.7460   68.1590  226.8340 C   0  0  0  0  0  0  0  0  0  0  0  0
  140.8010   69.6200  227.0520 C   0  0  0  0  0  0  0  0  0  0  0  0
  141.0610   70.1030  228.2970 C   0  0  0  0  0  0  0  0  0  0  0  0
  141.1200   71.4680  228.5010 C   0  0  0  0  0  0  0  0  0  0  0  0
  140.9100   72.3240  227.4200 C   0  0  0  0  0  0  0  0  0  0  0  0
  140.6480   71.8240  226.1660 C   0  0  0  0  0  0  0  0  0  0  0  0
  140.5960   70.4760  225.9970 C   0  0  0  0  0  0  0  0  0  0  0  0
  140.3100   69.8570  224.6740 C   0  0  2  0  0  0  0  0  0  0  0  0
  139.8900   70.8760  223.6870 C   0  0  0  0  0  0  0  0  0  0  0  0
  140.6860   71.4940  222.7210 C   0  0  0  0  0  0  0  0  0  0  0  0
  139.9050   72.3510  222.0340 N   0  0  0  0  0  0  0  0  0  0  0  0
  138.6410   72.2930  222.5360 C   0  0  0  0  0  0  0  0  0  0  0  0
  137.5160   73.0010  222.1370 C   0  0  0  0  0  0  0  0  0  0  0  0
  137.6270   74.1430  220.8250 Cl  0  0  0  0  0  0  0  0  0  0  0  0
  136.3130   72.7930  222.7900 C   0  0  0  0  0  0  0  0  0  0  0  0
  136.2730   71.8770  223.8250 C   0  0  0  0  0  0  0  0  0  0  0  0
  137.4030   71.1710  224.2200 C   0  0  0  0  0  0  0  0  0  0  0  0
  138.6030   71.3740  223.5760 C   0  0  0  0  0  0  0  0  0  0  0  0
  140.4540   69.2939  222.2453 H   0  0  0  0  0  0  0  0  0  0  0  0
  139.8630   67.8452  221.3629 H   0  0  0  0  0  0  0  0  0  0  0  0
  138.8907   69.3556  221.3629 H   0  0  0  0  0  0  0  0  0  0  0  0
  139.1068   67.1088  226.0340 H   0  0  0  0  0  0  0  0  0  0  0  0
  140.6336   67.1493  225.0161 H   0  0  0  0  0  0  0  0  0  0  0  0
  140.3128   67.6987  227.7343 H   0  0  0  0  0  0  0  0  0  0  0  0
  141.7805   67.8467  226.6281 H   0  0  0  0  0  0  0  0  0  0  0  0
  141.2233   69.4107  229.1362 H   0  0  0  0  0  0  0  0  0  0  0  0
  141.3296   71.8740  229.5016 H   0  0  0  0  0  0  0  0  0  0  0  0
  140.9545   73.4125  227.5724 H   0  0  0  0  0  0  0  0  0  0  0  0
  140.4836   72.5020  225.3156 H   0  0  0  0  0  0  0  0  0  0  0  0
  141.2167   69.4298  224.2209 H   0  0  0  0  0  0  0  0  0  0  0  0
  141.7578   71.3139  222.5511 H   0  0  0  0  0  0  0  0  0  0  0  0
  140.2430   72.9550  221.2450 H   0  0  0  0  0  0  0  0  0  0  0  0
  135.4090   73.3443  222.4920 H   0  0  0  0  0  0  0  0  0  0  0  0
  135.3219   71.7025  224.3494 H   0  0  0  0  0  0  0  0  0  0  0  0
  137.3387   70.4494  225.0478 H   0  0  0  0  0  0  0  0  0  0  0  0
  1  2  1  0
  2  3  2  0
  2  4  2  0
  2  5  1  0
  5  6  1  0
  6  7  1  0
  7  8  1  0
  8  9  2  0
  9 10  1  0
 10 11  2  0
 11 12  1  0
 12 13  2  0
 13 14  1  0
 14 15  1  0
 15 16  2  0
 16 17  1  0
 17 18  1  0
 18 19  2  0
 19 20  1  0
 19 21  1  0
 21 22  2  0
 22 23  1  0
 23 24  2  0
 14  5  1  0
 24 15  1  0
 13  8  1  0
 24 18  1  0
  1 25  1  0
  1 26  1  0
  1 27  1  0
  6 28  1  0
  6 29  1  0
  7 30  1  0
  7 31  1  0
  9 32  1  0
 10 33  1  0
 11 34  1  0
 12 35  1  0
 14 36  1  6
 16 37  1  0
 17 38  1  0
 21 39  1  0
 22 40  1  0
 23 41  1  0
M  END
>  <smiles>  (13) 
CS(=O)(=O)N1CCc2ccccc2C1c1c[nH]c2c(Cl)cccc12

>  <score_type>  (13) 
oracle

>  <origin>  (13) 
autodockgpu

>  <m_score__min__energy>  (13) 
-7.2400000000000002

>  <m_primary>  (13) 
energy

>  <meeko>  (13) 
{"free_energy": -7.23, "intermolecular_energy": -7.83, "internal_energy": -0.74, "cluster_size": 12, "cluster_id": 1, "rank_in_cluster": 2}

>  <energy>  (13) 
-6.78

>  <cluster_rmsd>  (13) 
0.0

>  <rmsd>  (13) 
270.47

>  <cluster>  (13) 
2

$$$$

     RDKit          3D

 41 44  0  0  1  0  0  0  0  0999 V2000
  137.0280   68.5710  223.0940 C   0  0  0  0  0  0  0  0  0  0  0  0
  138.7220   68.1070  223.3210 S   0  0  0  0  0  0  0  0  0  0  0  0
  138.8270   66.6430  223.2460 O   0  0  0  0  0  0  0  0  0  0  0  0
  139.5140   68.6950  222.1700 O   0  0  0  0  0  0  0  0  0  0  0  0
  139.4030   68.7210  224.7770 N   0  0  0  0  0  0  0  0  0  0  0  0
  139.9130   67.6700  225.5940 C   0  0  0  0  0  0  0  0  0  0  0  0
  140.6930   68.1270  226.7710 C   0  0  0  0  0  0  0  0  0  0  0  0
  140.7520   69.5900  226.9710 C   0  0  0  0  0  0  0  0  0  0  0  0
  140.9930   70.0880  228.2140 C   0  0  0  0  0  0  0  0  0  0  0  0
  141.0550   71.4550  228.4000 C   0  0  0  0  0  0  0  0  0  0  0  0
  140.8680   72.2980  227.3050 C   0  0  0  0  0  0  0  0  0  0  0  0
  140.6250   71.7830  226.0540 C   0  0  0  0  0  0  0  0  0  0  0  0
  140.5700   70.4330  225.9020 C   0  0  0  0  0  0  0  0  0  0  0  0
  140.3030   69.7980  224.5820 C   0  0  2  0  0  0  0  0  0  0  0  0
  139.9050   70.8050  223.5740 C   0  0  0  0  0  0  0  0  0  0  0  0
  140.6930   71.3290  222.5470 C   0  0  0  0  0  0  0  0  0  0  0  0
  139.9390   72.2120  221.8630 N   0  0  0  0  0  0  0  0  0  0  0  0
  138.7010   72.2620  222.4260 C   0  0  0  0  0  0  0  0  0  0  0  0
  137.6090   73.0330  222.0510 C   0  0  0  0  0  0  0  0  0  0  0  0
  137.7320   74.1130  220.6890 Cl  0  0  0  0  0  0  0  0  0  0  0  0
  136.4280   72.9350  222.7680 C   0  0  0  0  0  0  0  0  0  0  0  0
  136.3770   72.0640  223.8400 C   0  0  0  0  0  0  0  0  0  0  0  0
  137.4740   71.2950  224.2110 C   0  0  0  0  0  0  0  0  0  0  0  0
  138.6520   71.3890  223.5030 C   0  0  0  0  0  0  0  0  0  0  0  0
  136.5491   68.7022  224.0755 H   0  0  0  0  0  0  0  0  0  0  0  0
  136.9786   69.5157  222.5327 H   0  0  0  0  0  0  0  0  0  0  0  0
  136.5041   67.7833  222.5327 H   0  0  0  0  0  0  0  0  0  0  0  0
  139.0628   67.0733  225.9562 H   0  0  0  0  0  0  0  0  0  0  0  0
  140.6067   67.0936  224.9643 H   0  0  0  0  0  0  0  0  0  0  0  0
  140.2418   67.6808  227.6695 H   0  0  0  0  0  0  0  0  0  0  0  0
  141.7293   67.8072  226.5869 H   0  0  0  0  0  0  0  0  0  0  0  0
  141.1375   69.4063  229.0651 H   0  0  0  0  0  0  0  0  0  0  0  0
  141.2493   71.8733  229.3986 H   0  0  0  0  0  0  0  0  0  0  0  0
  140.9155   73.3881  227.4441 H   0  0  0  0  0  0  0  0  0  0  0  0
  140.4778   72.4504  225.1921 H   0  0  0  0  0  0  0  0  0  0  0  0
  141.2155   69.3610  224.1505 H   0  0  0  0  0  0  0  0  0  0  0  0
  141.7403   71.0680  222.3347 H   0  0  0  0  0  0  0  0  0  0  0  0
  140.2780   72.7600  221.0340 H   0  0  0  0  0  0  0  0  0  0  0  0
  135.5502   73.5370  222.4905 H   0  0  0  0  0  0  0  0  0  0  0  0
  135.4433   71.9770  224.4150 H   0  0  0  0  0  0  0  0  0  0  0  0
  137.4014   70.6115  225.0698 H   0  0  0  0  0  0  0  0  0  0  0  0
  1  2  1  0
  2  3  2  0
  2  4  2  0
  2  5  1  0
  5  6  1  0
  6  7  1  0
  7  8  1  0
  8  9  2  0
  9 10  1  0
 10 11  2  0
 11 12  1  0
 12 13  2  0
 13 14  1  0
 14 15  1  0
 15 16  2  0
 16 17  1  0
 17 18  1  0
 18 19  2  0
 19 20  1  0
 19 21  1  0
 21 22  2  0
 22 23  1  0
 23 24  2  0
 14  5  1  0
 24 15  1  0
 13  8  1  0
 24 18  1  0
  1 25  1  0
  1 26  1  0
  1 27  1  0
  6 28  1  0
  6 29  1  0
  7 30  1  0
  7 31  1  0
  9 32  1  0
 10 33  1  0
 11 34  1  0
 12 35  1  0
 14 36  1  6
 16 37  1  0
 17 38  1  0
 21 39  1  0
 22 40  1  0
 23 41  1  0
M  END
>  <smiles>  (14) 
CS(=O)(=O)N1CCc2ccccc2C1c1c[nH]c2c(Cl)cccc12

>  <score_type>  (14) 
oracle

>  <origin>  (14) 
autodockgpu

>  <m_score__min__energy>  (14) 
-7.2400000000000002

>  <m_primary>  (14) 
energy

>  <meeko>  (14) 
{"free_energy": -7.12, "intermolecular_energy": -7.71, "internal_energy": -0.88, "cluster_size": 12, "cluster_id": 1, "rank_in_cluster": 6}

>  <energy>  (14) 
-6.78

>  <cluster_rmsd>  (14) 
0.02

>  <rmsd>  (14) 
270.47

>  <cluster>  (14) 
2

$$$$

     RDKit          3D

 41 44  0  0  1  0  0  0  0  0999 V2000
  139.3830   70.9090  221.1350 C   0  0  0  0  0  0  0  0  0  0  0  0
  139.3040   71.8830  222.6120 S   0  0  0  0  0  0  0  0  0  0  0  0
  140.0550   73.1280  222.4000 O   0  0  0  0  0  0  0  0  0  0  0  0
  137.8510   72.2440  222.8440 O   0  0  0  0  0  0  0  0  0  0  0  0
  139.8500   71.0400  224.0090 N   0  0  0  0  0  0  0  0  0  0  0  0
  140.7000   71.8580  224.8100 C   0  0  0  0  0  0  0  0  0  0  0  0
  141.0520   71.2770  226.1290 C   0  0  0  0  0  0  0  0  0  0  0  0
  140.5480   69.9100  226.3820 C   0  0  0  0  0  0  0  0  0  0  0  0
  141.1830   69.1180  227.2860 C   0  0  0  0  0  0  0  0  0  0  0  0
  140.7080   67.8430  227.5280 C   0  0  0  0  0  0  0  0  0  0  0  0
  139.5840   67.3960  226.8350 C   0  0  0  0  0  0  0  0  0  0  0  0
  138.9500   68.2060  225.9230 C   0  0  0  0  0  0  0  0  0  0  0  0
  139.4410   69.4550  225.7060 C   0  0  0  0  0  0  0  0  0  0  0  0
  138.8180   70.3900  224.7300 C   0  0  2  0  0  0  0  0  0  0  0  0
  137.7870   69.7060  223.9180 C   0  0  0  0  0  0  0  0  0  0  0  0
  136.4190   69.9790  223.8840 C   0  0  0  0  0  0  0  0  0  0  0  0
  135.8510   69.1250  223.0100 N   0  0  0  0  0  0  0  0  0  0  0  0
  136.8190   68.3200  222.4910 C   0  0  0  0  0  0  0  0  0  0  0  0
  136.6890   67.2990  221.5600 C   0  0  0  0  0  0  0  0  0  0  0  0
  135.1220   66.9150  220.9020 Cl  0  0  0  0  0  0  0  0  0  0  0  0
  137.8120   66.5930  221.1630 C   0  0  0  0  0  0  0  0  0  0  0  0
  139.0340   66.9340  221.7120 C   0  0  0  0  0  0  0  0  0  0  0  0
  139.1580   67.9580  222.6430 C   0  0  0  0  0  0  0  0  0  0  0  0
  138.0440   68.6630  223.0440 C   0  0  0  0  0  0  0  0  0  0  0  0
  139.4693   69.8452  221.4014 H   0  0  0  0  0  0  0  0  0  0  0  0
  138.4692   71.0658  220.5431 H   0  0  0  0  0  0  0  0  0  0  0  0
  140.2596   71.2110  220.5431 H   0  0  0  0  0  0  0  0  0  0  0  0
  141.6320   72.0335  224.2526 H   0  0  0  0  0  0  0  0  0  0  0  0
  140.1399   72.7821  225.0158 H   0  0  0  0  0  0  0  0  0  0  0  0
  142.1491   71.2524  226.2057 H   0  0  0  0  0  0  0  0  0  0  0  0
  140.5670   71.9192  226.8789 H   0  0  0  0  0  0  0  0  0  0  0  0
  142.0692   69.4895  227.8214 H   0  0  0  0  0  0  0  0  0  0  0  0
  141.2098   67.1900  228.2572 H   0  0  0  0  0  0  0  0  0  0  0  0
  139.1995   66.3822  227.0203 H   0  0  0  0  0  0  0  0  0  0  0  0
  138.0624   67.8503  225.3792 H   0  0  0  0  0  0  0  0  0  0  0  0
  138.2509   71.1853  225.2359 H   0  0  0  0  0  0  0  0  0  0  0  0
  135.8976   70.7529  224.4664 H   0  0  0  0  0  0  0  0  0  0  0  0
  134.8260   69.1040  222.7860 H   0  0  0  0  0  0  0  0  0  0  0  0
  137.7335   65.7791  220.4272 H   0  0  0  0  0  0  0  0  0  0  0  0
  139.9326   66.3796  221.4035 H   0  0  0  0  0  0  0  0  0  0  0  0
  140.1453   68.2058  223.0599 H   0  0  0  0  0  0  0  0  0  0  0  0
  1  2  1  0
  2  3  2  0
  2  4  2  0
  2  5  1  0
  5  6  1  0
  6  7  1  0
  7  8  1  0
  8  9  2  0
  9 10  1  0
 10 11  2  0
 11 12  1  0
 12 13  2  0
 13 14  1  0
 14 15  1  0
 15 16  2  0
 16 17  1  0
 17 18  1  0
 18 19  2  0
 19 20  1  0
 19 21  1  0
 21 22  2  0
 22 23  1  0
 23 24  2  0
 14  5  1  0
 24 15  1  0
 13  8  1  0
 24 18  1  0
  1 25  1  0
  1 26  1  0
  1 27  1  0
  6 28  1  0
  6 29  1  0
  7 30  1  0
  7 31  1  0
  9 32  1  0
 10 33  1  0
 11 34  1  0
 12 35  1  0
 14 36  1  1
 16 37  1  0
 17 38  1  0
 21 39  1  0
 22 40  1  0
 23 41  1  0
M  END
>  <smiles>  (15) 
CS(=O)(=O)N1CCc2ccccc2C1c1c[nH]c2c(Cl)cccc12

>  <score_type>  (15) 
oracle

>  <origin>  (15) 
autodockgpu

>  <m_score__min__energy>  (15) 
-7.2400000000000002

>  <m_primary>  (15) 
energy

>  <meeko>  (15) 
{"free_energy": -6.78, "intermolecular_energy": -7.38, "internal_energy": -1.15, "cluster_size": 3, "cluster_id": 2, "rank_in_cluster": 1}

>  <energy>  (15) 
-6.78

>  <cluster_rmsd>  (15) 
0.02

>  <rmsd>  (15) 
270.48

>  <cluster>  (15) 
2

$$$$

     RDKit          3D

 41 44  0  0  1  0  0  0  0  0999 V2000
  139.5760   68.7070  221.9500 C   0  0  0  0  0  0  0  0  0  0  0  0
  138.7310   68.1660  223.4100 S   0  0  0  0  0  0  0  0  0  0  0  0
  137.3130   68.5350  223.3010 O   0  0  0  0  0  0  0  0  0  0  0  0
  138.8230   66.6550  223.4570 O   0  0  0  0  0  0  0  0  0  0  0  0
  139.4360   68.7660  224.8600 N   0  0  0  0  0  0  0  0  0  0  0  0
  139.9710   67.7090  225.6530 C   0  0  0  0  0  0  0  0  0  0  0  0
  140.7700   68.1560  226.8210 C   0  0  0  0  0  0  0  0  0  0  0  0
  140.8200   69.6180  227.0400 C   0  0  0  0  0  0  0  0  0  0  0  0
  141.0820   70.1010  228.2840 C   0  0  0  0  0  0  0  0  0  0  0  0
  141.1360   71.4660  228.4880 C   0  0  0  0  0  0  0  0  0  0  0  0
  140.9210   72.3210  227.4090 C   0  0  0  0  0  0  0  0  0  0  0  0
  140.6580   71.8210  226.1550 C   0  0  0  0  0  0  0  0  0  0  0  0
  140.6100   70.4740  225.9860 C   0  0  0  0  0  0  0  0  0  0  0  0
  140.3230   69.8530  224.6630 C   0  0  2  0  0  0  0  0  0  0  0  0
  139.8970   70.8710  223.6770 C   0  0  0  0  0  0  0  0  0  0  0  0
  140.6870   71.4900  222.7060 C   0  0  0  0  0  0  0  0  0  0  0  0
  139.9020   72.3460  222.0230 N   0  0  0  0  0  0  0  0  0  0  0  0
  138.6410   72.2870  222.5320 C   0  0  0  0  0  0  0  0  0  0  0  0
  137.5140   72.9950  222.1380 C   0  0  0  0  0  0  0  0  0  0  0  0
  137.6170   74.1350  220.8250 Cl  0  0  0  0  0  0  0  0  0  0  0  0
  136.3140   72.7860  222.7970 C   0  0  0  0  0  0  0  0  0  0  0  0
  136.2810   71.8710  223.8330 C   0  0  0  0  0  0  0  0  0  0  0  0
  137.4130   71.1660  224.2230 C   0  0  0  0  0  0  0  0  0  0  0  0
  138.6100   71.3690  223.5720 C   0  0  0  0  0  0  0  0  0  0  0  0
  140.4707   69.2798  222.2352 H   0  0  0  0  0  0  0  0  0  0  0  0
  139.8753   67.8321  221.3541 H   0  0  0  0  0  0  0  0  0  0  0  0
  138.9067   69.3449  221.3541 H   0  0  0  0  0  0  0  0  0  0  0  0
  139.1331   67.1001  226.0234 H   0  0  0  0  0  0  0  0  0  0  0  0
  140.6577   67.1479  225.0021 H   0  0  0  0  0  0  0  0  0  0  0  0
  140.3403   67.6935  227.7218 H   0  0  0  0  0  0  0  0  0  0  0  0
  141.8052   67.8476  226.6129 H   0  0  0  0  0  0  0  0  0  0  0  0
  141.2498   69.4090  229.1224 H   0  0  0  0  0  0  0  0  0  0  0  0
  141.3458   71.8725  229.4884 H   0  0  0  0  0  0  0  0  0  0  0  0
  140.9621   73.4095  227.5620 H   0  0  0  0  0  0  0  0  0  0  0  0
  140.4898   72.4989  225.3052 H   0  0  0  0  0  0  0  0  0  0  0  0
  141.2304   69.4283  224.2088 H   0  0  0  0  0  0  0  0  0  0  0  0
  141.7580   71.3109  222.5303 H   0  0  0  0  0  0  0  0  0  0  0  0
  140.2360   72.9490  221.2310 H   0  0  0  0  0  0  0  0  0  0  0  0
  135.4076   73.3355  222.5028 H   0  0  0  0  0  0  0  0  0  0  0  0
  135.3329   71.6964  224.3628 H   0  0  0  0  0  0  0  0  0  0  0  0
  137.3534   70.4454  225.0520 H   0  0  0  0  0  0  0  0  0  0  0  0
  1  2  1  0
  2  3  2  0
  2  4  2  0
  2  5  1  0
  5  6  1  0
  6  7  1  0
  7  8  1  0
  8  9  2  0
  9 10  1  0
 10 11  2  0
 11 12  1  0
 12 13  2  0
 13 14  1  0
 14 15  1  0
 15 16  2  0
 16 17  1  0
 17 18  1  0
 18 19  2  0
 19 20  1  0
 19 21  1  0
 21 22  2  0
 22 23  1  0
 23 24  2  0
 14  5  1  0
 24 15  1  0
 13  8  1  0
 24 18  1  0
  1 25  1  0
  1 26  1  0
  1 27  1  0
  6 28  1  0
  6 29  1  0
  7 30  1  0
  7 31  1  0
  9 32  1  0
 10 33  1  0
 11 34  1  0
 12 35  1  0
 14 36  1  6
 16 37  1  0
 17 38  1  0
 21 39  1  0
 22 40  1  0
 23 41  1  0
M  END
>  <smiles>  (16) 
CS(=O)(=O)N1CCc2ccccc2C1c1c[nH]c2c(Cl)cccc12

>  <score_type>  (16) 
oracle

>  <origin>  (16) 
autodockgpu

>  <m_score__min__energy>  (16) 
-7.2400000000000002

>  <m_primary>  (16) 
energy

>  <meeko>  (16) 
{"free_energy": -7.22, "intermolecular_energy": -7.82, "internal_energy": -0.76, "cluster_size": 12, "cluster_id": 1, "rank_in_cluster": 3}

>  <energy>  (16) 
-6.64

>  <cluster_rmsd>  (16) 
0.0

>  <rmsd>  (16) 
271.85

>  <cluster>  (16) 
3

$$$$

     RDKit          3D

 41 44  0  0  1  0  0  0  0  0999 V2000
  139.3960   70.9040  221.1320 C   0  0  0  0  0  0  0  0  0  0  0  0
  139.3090   71.8830  222.6060 S   0  0  0  0  0  0  0  0  0  0  0  0
  140.0580   73.1290  222.3930 O   0  0  0  0  0  0  0  0  0  0  0  0
  137.8530   72.2410  222.8300 O   0  0  0  0  0  0  0  0  0  0  0  0
  139.8500   71.0450  224.0080 N   0  0  0  0  0  0  0  0  0  0  0  0
  140.6950   71.8670  224.8100 C   0  0  0  0  0  0  0  0  0  0  0  0
  141.0430   71.2910  226.1320 C   0  0  0  0  0  0  0  0  0  0  0  0
  140.5400   69.9240  226.3870 C   0  0  0  0  0  0  0  0  0  0  0  0
  141.1730   69.1360  227.2970 C   0  0  0  0  0  0  0  0  0  0  0  0
  140.6990   67.8610  227.5410 C   0  0  0  0  0  0  0  0  0  0  0  0
  139.5780   67.4100  226.8450 C   0  0  0  0  0  0  0  0  0  0  0  0
  138.9470   68.2160  225.9270 C   0  0  0  0  0  0  0  0  0  0  0  0
  139.4360   69.4660  225.7090 C   0  0  0  0  0  0  0  0  0  0  0  0
  138.8160   70.3960  224.7260 C   0  0  2  0  0  0  0  0  0  0  0  0
  137.7900   69.7070  223.9120 C   0  0  0  0  0  0  0  0  0  0  0  0
  136.4200   69.9740  223.8780 C   0  0  0  0  0  0  0  0  0  0  0  0
  135.8570   69.1180  223.0020 N   0  0  0  0  0  0  0  0  0  0  0  0
  136.8300   68.3190  222.4830 C   0  0  0  0  0  0  0  0  0  0  0  0
  136.7070   67.2980  221.5500 C   0  0  0  0  0  0  0  0  0  0  0  0
  135.1420   66.9060  220.8910 Cl  0  0  0  0  0  0  0  0  0  0  0  0
  137.8340   66.5990  221.1530 C   0  0  0  0  0  0  0  0  0  0  0  0
  139.0530   66.9450  221.7040 C   0  0  0  0  0  0  0  0  0  0  0  0
  139.1710   67.9690  222.6370 C   0  0  0  0  0  0  0  0  0  0  0  0
  138.0530   68.6680  223.0370 C   0  0  0  0  0  0  0  0  0  0  0  0
  139.4904   69.8419  221.4023 H   0  0  0  0  0  0  0  0  0  0  0  0
  138.4812   71.0516  220.5393 H   0  0  0  0  0  0  0  0  0  0  0  0
  140.2704   71.2106  220.5393 H   0  0  0  0  0  0  0  0  0  0  0  0
  141.6288   72.0428  224.2558 H   0  0  0  0  0  0  0  0  0  0  0  0
  140.1320   72.7904  225.0108 H   0  0  0  0  0  0  0  0  0  0  0  0
  142.1398   71.2684  226.2129 H   0  0  0  0  0  0  0  0  0  0  0  0
  140.5545   71.9349  226.8782 H   0  0  0  0  0  0  0  0  0  0  0  0
  142.0561   69.5109  227.8350 H   0  0  0  0  0  0  0  0  0  0  0  0
  141.1991   67.2110  228.2741 H   0  0  0  0  0  0  0  0  0  0  0  0
  139.1936   66.3966  227.0328 H   0  0  0  0  0  0  0  0  0  0  0  0
  138.0634   67.8565  225.3793 H   0  0  0  0  0  0  0  0  0  0  0  0
  138.2449   71.1924  225.2256 H   0  0  0  0  0  0  0  0  0  0  0  0
  135.8945   70.7445  224.4613 H   0  0  0  0  0  0  0  0  0  0  0  0
  134.8330   69.0920  222.7770 H   0  0  0  0  0  0  0  0  0  0  0  0
  137.7607   65.7863  220.4154 H   0  0  0  0  0  0  0  0  0  0  0  0
  139.9546   66.3953  221.3961 H   0  0  0  0  0  0  0  0  0  0  0  0
  140.1565   68.2210  223.0557 H   0  0  0  0  0  0  0  0  0  0  0  0
  1  2  1  0
  2  3  2  0
  2  4  2  0
  2  5  1  0
  5  6  1  0
  6  7  1  0
  7  8  1  0
  8  9  2  0
  9 10  1  0
 10 11  2  0
 11 12  1  0
 12 13  2  0
 13 14  1  0
 14 15  1  0
 15 16  2  0
 16 17  1  0
 17 18  1  0
 18 19  2  0
 19 20  1  0
 19 21  1  0
 21 22  2  0
 22 23  1  0
 23 24  2  0
 14  5  1  0
 24 15  1  0
 13  8  1  0
 24 18  1  0
  1 25  1  0
  1 26  1  0
  1 27  1  0
  6 28  1  0
  6 29  1  0
  7 30  1  0
  7 31  1  0
  9 32  1  0
 10 33  1  0
 11 34  1  0
 12 35  1  0
 14 36  1  1
 16 37  1  0
 17 38  1  0
 21 39  1  0
 22 40  1  0
 23 41  1  0
M  END
>  <smiles>  (17) 
CS(=O)(=O)N1CCc2ccccc2C1c1c[nH]c2c(Cl)cccc12

>  <score_type>  (17) 
oracle

>  <origin>  (17) 
autodockgpu

>  <m_score__min__energy>  (17) 
-7.2400000000000002

>  <m_primary>  (17) 
energy

>  <meeko>  (17) 
{"free_energy": -6.78, "intermolecular_energy": -7.37, "internal_energy": -1.16, "cluster_size": 3, "cluster_id": 2, "rank_in_cluster": 2}

>  <energy>  (17) 
-6.64

>  <cluster_rmsd>  (17) 
0.04

>  <rmsd>  (17) 
271.85

>  <cluster>  (17) 
3

$$$$

     RDKit          3D

 41 44  0  0  1  0  0  0  0  0999 V2000
  137.7410   75.9620  221.9340 C   0  0  0  0  0  0  0  0  0  0  0  0
  138.0650   77.4360  221.0070 S   0  0  0  0  0  0  0  0  0  0  0  0
  138.6760   77.0640  219.7230 O   0  0  0  0  0  0  0  0  0  0  0  0
  136.7320   78.0970  220.7200 O   0  0  0  0  0  0  0  0  0  0  0  0
  139.0280   78.5760  221.8630 N   0  0  0  0  0  0  0  0  0  0  0  0
  138.2330   79.3730  222.7380 C   0  0  0  0  0  0  0  0  0  0  0  0
  139.0080   80.2420  223.6570 C   0  0  0  0  0  0  0  0  0  0  0  0
  140.4750   80.2210  223.4740 C   0  0  0  0  0  0  0  0  0  0  0  0
  141.2180   81.2830  223.8850 C   0  0  0  0  0  0  0  0  0  0  0  0
  142.5890   81.2610  223.7200 C   0  0  0  0  0  0  0  0  0  0  0  0
  143.1830   80.1440  223.1330 C   0  0  0  0  0  0  0  0  0  0  0  0
  142.4210   79.0760  222.7210 C   0  0  0  0  0  0  0  0  0  0  0  0
  141.0740   79.1270  222.8960 C   0  0  0  0  0  0  0  0  0  0  0  0
  140.1800   78.0160  222.4700 C   0  0  2  0  0  0  0  0  0  0  0  0
  140.9170   77.0140  221.6690 C   0  0  0  0  0  0  0  0  0  0  0  0
  141.0920   75.6610  221.9620 C   0  0  0  0  0  0  0  0  0  0  0  0
  141.8210   75.1170  220.9680 N   0  0  0  0  0  0  0  0  0  0  0  0
  142.1120   76.0850  220.0560 C   0  0  0  0  0  0  0  0  0  0  0  0
  142.8400   75.9760  218.8790 C   0  0  0  0  0  0  0  0  0  0  0  0
  143.5140   74.4380  218.4120 Cl  0  0  0  0  0  0  0  0  0  0  0  0
  143.0240   77.0960  218.0870 C   0  0  0  0  0  0  0  0  0  0  0  0
  142.4710   78.2940  218.4980 C   0  0  0  0  0  0  0  0  0  0  0  0
  141.7430   78.3970  219.6770 C   0  0  0  0  0  0  0  0  0  0  0  0
  141.5570   77.2870  220.4710 C   0  0  0  0  0  0  0  0  0  0  0  0
  137.7905   76.1870  223.0096 H   0  0  0  0  0  0  0  0  0  0  0  0
  136.7385   75.5846  221.6841 H   0  0  0  0  0  0  0  0  0  0  0  0
  138.4929   75.1990  221.6841 H   0  0  0  0  0  0  0  0  0  0  0  0
  137.5851   80.0152  222.1234 H   0  0  0  0  0  0  0  0  0  0  0  0
  137.6698   78.6726  223.3722 H   0  0  0  0  0  0  0  0  0  0  0  0
  138.6643   81.2770  223.5138 H   0  0  0  0  0  0  0  0  0  0  0  0
  138.8261   79.8476  224.6676 H   0  0  0  0  0  0  0  0  0  0  0  0
  140.7301   82.1544  224.3461 H   0  0  0  0  0  0  0  0  0  0  0  0
  143.2038   82.1125  224.0470 H   0  0  0  0  0  0  0  0  0  0  0  0
  144.2743   80.1170  222.9979 H   0  0  0  0  0  0  0  0  0  0  0  0
  142.8928   78.1966  222.2583 H   0  0  0  0  0  0  0  0  0  0  0  0
  139.8200   77.4319  223.3298 H   0  0  0  0  0  0  0  0  0  0  0  0
  140.7044   75.1332  222.8459 H   0  0  0  0  0  0  0  0  0  0  0  0
  142.1050   74.1070  220.9290 H   0  0  0  0  0  0  0  0  0  0  0  0
  143.5980   77.0340  217.1507 H   0  0  0  0  0  0  0  0  0  0  0  0
  142.6109   79.1898  217.8752 H   0  0  0  0  0  0  0  0  0  0  0  0
  141.3151   79.3652  219.9763 H   0  0  0  0  0  0  0  0  0  0  0  0
  1  2  1  0
  2  3  2  0
  2  4  2  0
  2  5  1  0
  5  6  1  0
  6  7  1  0
  7  8  1  0
  8  9  2  0
  9 10  1  0
 10 11  2  0
 11 12  1  0
 12 13  2  0
 13 14  1  0
 14 15  1  0
 15 16  2  0
 16 17  1  0
 17 18  1  0
 18 19  2  0
 19 20  1  0
 19 21  1  0
 21 22  2  0
 22 23  1  0
 23 24  2  0
 14  5  1  0
 24 15  1  0
 13  8  1  0
 24 18  1  0
  1 25  1  0
  1 26  1  0
  1 27  1  0
  6 28  1  0
  6 29  1  0
  7 30  1  0
  7 31  1  0
  9 32  1  0
 10 33  1  0
 11 34  1  0
 12 35  1  0
 14 36  1  1
 16 37  1  0
 17 38  1  0
 21 39  1  0
 22 40  1  0
 23 41  1  0
M  END
>  <smiles>  (18) 
CS(=O)(=O)N1CCc2ccccc2C1c1c[nH]c2c(Cl)cccc12

>  <score_type>  (18) 
oracle

>  <origin>  (18) 
autodockgpu

>  <m_score__min__energy>  (18) 
-7.2400000000000002

>  <m_primary>  (18) 
energy

>  <meeko>  (18) 
{"free_energy": -6.62, "intermolecular_energy": -7.21, "internal_energy": -1.22, "cluster_size": 5, "cluster_id": 3, "rank_in_cluster": 5}

>  <energy>  (18) 
-6.63

>  <cluster_rmsd>  (18) 
0.02

>  <rmsd>  (18) 
271.85

>  <cluster>  (18) 
3

$$$$

     RDKit          3D

 41 44  0  0  1  0  0  0  0  0999 V2000
  138.8290   66.5730  222.8100 C   0  0  0  0  0  0  0  0  0  0  0  0
  138.6220   68.3070  223.1040 S   0  0  0  0  0  0  0  0  0  0  0  0
  139.1670   69.0500  221.9590 O   0  0  0  0  0  0  0  0  0  0  0  0
  137.1340   68.5830  223.1800 O   0  0  0  0  0  0  0  0  0  0  0  0
  139.3150   68.8280  224.5900 N   0  0  0  0  0  0  0  0  0  0  0  0
  139.7710   67.7220  225.3670 C   0  0  0  0  0  0  0  0  0  0  0  0
  140.5580   68.0940  226.5680 C   0  0  0  0  0  0  0  0  0  0  0  0
  140.6790   69.5440  226.8310 C   0  0  0  0  0  0  0  0  0  0  0  0
  140.9290   69.9770  228.0950 C   0  0  0  0  0  0  0  0  0  0  0  0
  141.0490   71.3320  228.3400 C   0  0  0  0  0  0  0  0  0  0  0  0
  140.9110   72.2270  227.2810 C   0  0  0  0  0  0  0  0  0  0  0  0
  140.6570   71.7770  226.0060 C   0  0  0  0  0  0  0  0  0  0  0  0
  140.5440   70.4390  225.7970 C   0  0  0  0  0  0  0  0  0  0  0  0
  140.2630   69.8720  224.4490 C   0  0  2  0  0  0  0  0  0  0  0  0
  139.9200   70.9380  223.4820 C   0  0  0  0  0  0  0  0  0  0  0  0
  140.7700   71.5430  222.5550 C   0  0  0  0  0  0  0  0  0  0  0  0
  140.0510   72.4570  221.8740 N   0  0  0  0  0  0  0  0  0  0  0  0
  138.7720   72.4470  222.3430 C   0  0  0  0  0  0  0  0  0  0  0  0
  137.6950   73.2220  221.9370 C   0  0  0  0  0  0  0  0  0  0  0  0
  137.8960   74.3930  220.6620 Cl  0  0  0  0  0  0  0  0  0  0  0  0
  136.4660   73.0560  222.5530 C   0  0  0  0  0  0  0  0  0  0  0  0
  136.3550   72.1150  223.5600 C   0  0  0  0  0  0  0  0  0  0  0  0
  137.4370   71.3420  223.9620 C   0  0  0  0  0  0  0  0  0  0  0  0
  138.6630   71.5030  223.3540 C   0  0  0  0  0  0  0  0  0  0  0  0
  138.8923   66.0430  223.7718 H   0  0  0  0  0  0  0  0  0  0  0  0
  137.9698   66.1930  222.2378 H   0  0  0  0  0  0  0  0  0  0  0  0
  139.7535   66.4059  222.2378 H   0  0  0  0  0  0  0  0  0  0  0  0
  138.8920   67.1487  225.6968 H   0  0  0  0  0  0  0  0  0  0  0  0
  140.4455   67.1429  224.7193 H   0  0  0  0  0  0  0  0  0  0  0  0
  140.0789   67.6306  227.4430 H   0  0  0  0  0  0  0  0  0  0  0  0
  141.5811   67.7370  226.3787 H   0  0  0  0  0  0  0  0  0  0  0  0
  141.0351   69.2540  228.9172 H   0  0  0  0  0  0  0  0  0  0  0  0
  141.2507   71.6988  229.3572 H   0  0  0  0  0  0  0  0  0  0  0  0
  141.0063   73.3070  227.4668 H   0  0  0  0  0  0  0  0  0  0  0  0
  140.5475   72.4862  225.1723 H   0  0  0  0  0  0  0  0  0  0  0  0
  141.1595   69.4129  224.0069 H   0  0  0  0  0  0  0  0  0  0  0  0
  141.8358   71.3147  222.4068 H   0  0  0  0  0  0  0  0  0  0  0  0
  140.4380   73.0640  221.1110 H   0  0  0  0  0  0  0  0  0  0  0  0
  135.5979   73.6589  222.2482 H   0  0  0  0  0  0  0  0  0  0  0  0
  135.3834   71.9746  224.0563 H   0  0  0  0  0  0  0  0  0  0  0  0
  137.3150   70.6012  224.7659 H   0  0  0  0  0  0  0  0  0  0  0  0
  1  2  1  0
  2  3  2  0
  2  4  2  0
  2  5  1  0
  5  6  1  0
  6  7  1  0
  7  8  1  0
  8  9  2  0
  9 10  1  0
 10 11  2  0
 11 12  1  0
 12 13  2  0
 13 14  1  0
 14 15  1  0
 15 16  2  0
 16 17  1  0
 17 18  1  0
 18 19  2  0
 19 20  1  0
 19 21  1  0
 21 22  2  0
 22 23  1  0
 23 24  2  0
 14  5  1  0
 24 15  1  0
 13  8  1  0
 24 18  1  0
  1 25  1  0
  1 26  1  0
  1 27  1  0
  6 28  1  0
  6 29  1  0
  7 30  1  0
  7 31  1  0
  9 32  1  0
 10 33  1  0
 11 34  1  0
 12 35  1  0
 14 36  1  6
 16 37  1  0
 17 38  1  0
 21 39  1  0
 22 40  1  0
 23 41  1  0
M  END
>  <smiles>  (19) 
CS(=O)(=O)N1CCc2ccccc2C1c1c[nH]c2c(Cl)cccc12

>  <score_type>  (19) 
oracle

>  <origin>  (19) 
autodockgpu

>  <m_score__min__energy>  (19) 
-7.2400000000000002

>  <m_primary>  (19) 
energy

>  <meeko>  (19) 
{"free_energy": -7.02, "intermolecular_energy": -7.62, "internal_energy": -0.94, "cluster_size": 12, "cluster_id": 1, "rank_in_cluster": 10}

>  <energy>  (19) 
-6.63

>  <cluster_rmsd>  (19) 
0.03

>  <rmsd>  (19) 
271.85

>  <cluster>  (19) 
3

$$$$

     RDKit          3D

 41 44  0  0  1  0  0  0  0  0999 V2000
  137.0360   68.5950  223.0850 C   0  0  0  0  0  0  0  0  0  0  0  0
  138.7300   68.1290  223.3130 S   0  0  0  0  0  0  0  0  0  0  0  0
  138.8330   66.6650  223.2420 O   0  0  0  0  0  0  0  0  0  0  0  0
  139.5230   68.7140  222.1620 O   0  0  0  0  0  0  0  0  0  0  0  0
  139.4100   68.7450  224.7680 N   0  0  0  0  0  0  0  0  0  0  0  0
  139.9210   67.6960  225.5870 C   0  0  0  0  0  0  0  0  0  0  0  0
  140.7010   68.1550  226.7640 C   0  0  0  0  0  0  0  0  0  0  0  0
  140.7590   69.6190  226.9620 C   0  0  0  0  0  0  0  0  0  0  0  0
  141.0000   70.1180  228.2040 C   0  0  0  0  0  0  0  0  0  0  0  0
  141.0610   71.4860  228.3880 C   0  0  0  0  0  0  0  0  0  0  0  0
  140.8740   72.3270  227.2920 C   0  0  0  0  0  0  0  0  0  0  0  0
  140.6310   71.8100  226.0410 C   0  0  0  0  0  0  0  0  0  0  0  0
  140.5760   70.4600  225.8910 C   0  0  0  0  0  0  0  0  0  0  0  0
  140.3100   69.8230  224.5720 C   0  0  2  0  0  0  0  0  0  0  0  0
  139.9110   70.8290  223.5630 C   0  0  0  0  0  0  0  0  0  0  0  0
  140.6980   71.3520  222.5350 C   0  0  0  0  0  0  0  0  0  0  0  0
  139.9440   72.2330  221.8500 N   0  0  0  0  0  0  0  0  0  0  0  0
  138.7060   72.2830  222.4130 C   0  0  0  0  0  0  0  0  0  0  0  0
  137.6130   73.0530  222.0370 C   0  0  0  0  0  0  0  0  0  0  0  0
  137.7360   74.1310  220.6730 Cl  0  0  0  0  0  0  0  0  0  0  0  0
  136.4330   72.9540  222.7540 C   0  0  0  0  0  0  0  0  0  0  0  0
  136.3830   72.0860  223.8270 C   0  0  0  0  0  0  0  0  0  0  0  0
  137.4800   71.3180  224.1990 C   0  0  0  0  0  0  0  0  0  0  0  0
  138.6580   71.4110  223.4910 C   0  0  0  0  0  0  0  0  0  0  0  0
  136.5567   68.7268  224.0663 H   0  0  0  0  0  0  0  0  0  0  0  0
  136.9880   69.5397  222.5236 H   0  0  0  0  0  0  0  0  0  0  0  0
  136.5115   67.8078  222.5236 H   0  0  0  0  0  0  0  0  0  0  0  0
  139.0713   67.0992  225.9500 H   0  0  0  0  0  0  0  0  0  0  0  0
  140.6156   67.1197  224.9582 H   0  0  0  0  0  0  0  0  0  0  0  0
  140.2500   67.7097  227.6631 H   0  0  0  0  0  0  0  0  0  0  0  0
  141.7375   67.8354  226.5806 H   0  0  0  0  0  0  0  0  0  0  0  0
  141.1453   69.4374  229.0559 H   0  0  0  0  0  0  0  0  0  0  0  0
  141.2546   71.9060  229.3861 H   0  0  0  0  0  0  0  0  0  0  0  0
  140.9214   73.4173  227.4295 H   0  0  0  0  0  0  0  0  0  0  0  0
  140.4839   72.4762  225.1781 H   0  0  0  0  0  0  0  0  0  0  0  0
  141.2229   69.3858  224.1414 H   0  0  0  0  0  0  0  0  0  0  0  0
  141.7454   71.0913  222.3228 H   0  0  0  0  0  0  0  0  0  0  0  0
  140.2830   72.7800  221.0200 H   0  0  0  0  0  0  0  0  0  0  0  0
  135.5541   73.5538  222.4751 H   0  0  0  0  0  0  0  0  0  0  0  0
  135.4497   72.0001  224.4028 H   0  0  0  0  0  0  0  0  0  0  0  0
  137.4076   70.6358  225.0589 H   0  0  0  0  0  0  0  0  0  0  0  0
  1  2  1  0
  2  3  2  0
  2  4  2  0
  2  5  1  0
  5  6  1  0
  6  7  1  0
  7  8  1  0
  8  9  2  0
  9 10  1  0
 10 11  2  0
 11 12  1  0
 12 13  2  0
 13 14  1  0
 14 15  1  0
 15 16  2  0
 16 17  1  0
 17 18  1  0
 18 19  2  0
 19 20  1  0
 19 21  1  0
 21 22  2  0
 22 23  1  0
 23 24  2  0
 14  5  1  0
 24 15  1  0
 13  8  1  0
 24 18  1  0
  1 25  1  0
  1 26  1  0
  1 27  1  0
  6 28  1  0
  6 29  1  0
  7 30  1  0
  7 31  1  0
  9 32  1  0
 10 33  1  0
 11 34  1  0
 12 35  1  0
 14 36  1  6
 16 37  1  0
 17 38  1  0
 21 39  1  0
 22 40  1  0
 23 41  1  0
M  END
>  <smiles>  (20) 
CS(=O)(=O)N1CCc2ccccc2C1c1c[nH]c2c(Cl)cccc12

>  <score_type>  (20) 
oracle

>  <origin>  (20) 
autodockgpu

>  <m_score__min__energy>  (20) 
-7.2400000000000002

>  <m_primary>  (20) 
energy

>  <meeko>  (20) 
{"free_energy": -7.11, "intermolecular_energy": -7.71, "internal_energy": -0.9, "cluster_size": 12, "cluster_id": 1, "rank_in_cluster": 8}

>  <energy>  (20) 
-6.62

>  <cluster_rmsd>  (20) 
0.03

>  <rmsd>  (20) 
271.84

>  <cluster>  (20) 
3

$$$$

     RDKit          3D

 41 44  0  0  1  0  0  0  0  0999 V2000
  142.1270   77.1800  217.7780 C   0  0  0  0  0  0  0  0  0  0  0  0
  140.4740   77.5540  218.2760 S   0  0  0  0  0  0  0  0  0  0  0  0
  139.8580   78.3780  217.1870 O   0  0  0  0  0  0  0  0  0  0  0  0
  139.7380   76.2430  218.4480 O   0  0  0  0  0  0  0  0  0  0  0  0
  140.4280   78.3940  219.7920 N   0  0  0  0  0  0  0  0  0  0  0  0
  140.6420   79.7800  219.5360 C   0  0  0  0  0  0  0  0  0  0  0  0
  141.8860   80.3650  220.1310 C   0  0  0  0  0  0  0  0  0  0  0  0
  141.8820   80.0450  221.5910 C   0  0  0  0  0  0  0  0  0  0  0  0
  142.1360   80.9830  222.5640 C   0  0  0  0  0  0  0  0  0  0  0  0
  142.0980   80.5390  223.8790 C   0  0  0  0  0  0  0  0  0  0  0  0
  141.8200   79.2180  224.1890 C   0  0  0  0  0  0  0  0  0  0  0  0
  141.5680   78.2930  223.2050 C   0  0  0  0  0  0  0  0  0  0  0  0
  141.6000   78.7090  221.9000 C   0  0  0  0  0  0  0  0  0  0  0  0
  141.3490   77.8220  220.7390 C   0  0  1  0  0  0  0  0  0  0  0  0
  140.8890   76.4910  221.2110 C   0  0  0  0  0  0  0  0  0  0  0  0
  139.7190   76.2420  221.9310 C   0  0  0  0  0  0  0  0  0  0  0  0
  139.6120   74.9290  222.1950 N   0  0  0  0  0  0  0  0  0  0  0  0
  140.6980   74.3380  221.6550 C   0  0  0  0  0  0  0  0  0  0  0  0
  141.0030   72.9760  221.6870 C   0  0  0  0  0  0  0  0  0  0  0  0
  139.9530   71.8240  222.4760 Cl  0  0  0  0  0  0  0  0  0  0  0  0
  142.1670   72.5960  221.0690 C   0  0  0  0  0  0  0  0  0  0  0  0
  142.9810   73.5340  220.4510 C   0  0  0  0  0  0  0  0  0  0  0  0
  142.6700   74.8830  220.4250 C   0  0  0  0  0  0  0  0  0  0  0  0
  141.4980   75.2660  221.0470 C   0  0  0  0  0  0  0  0  0  0  0  0
  142.7553   77.0378  218.6697 H   0  0  0  0  0  0  0  0  0  0  0  0
  142.1293   76.2586  217.1771 H   0  0  0  0  0  0  0  0  0  0  0  0
  142.5257   78.0106  217.1771 H   0  0  0  0  0  0  0  0  0  0  0  0
  140.6909   79.9189  218.4459 H   0  0  0  0  0  0  0  0  0  0  0  0
  139.8036   80.3068  220.0151 H   0  0  0  0  0  0  0  0  0  0  0  0
  142.7734   79.9247  219.6529 H   0  0  0  0  0  0  0  0  0  0  0  0
  141.9146   81.4534  219.9740 H   0  0  0  0  0  0  0  0  0  0  0  0
  142.3578   82.0309  222.3134 H   0  0  0  0  0  0  0  0  0  0  0  0
  142.2931   81.2526  224.6931 H   0  0  0  0  0  0  0  0  0  0  0  0
  141.8006   78.9036  225.2429 H   0  0  0  0  0  0  0  0  0  0  0  0
  141.3463   77.2458  223.4583 H   0  0  0  0  0  0  0  0  0  0  0  0
  142.2997   77.7007  220.1991 H   0  0  0  0  0  0  0  0  0  0  0  0
  138.9916   77.0083  222.2371 H   0  0  0  0  0  0  0  0  0  0  0  0
  138.8150   74.5210  222.7220 H   0  0  0  0  0  0  0  0  0  0  0  0
  142.4584   71.5353  221.0634 H   0  0  0  0  0  0  0  0  0  0  0  0
  143.9069   73.1939  219.9641 H   0  0  0  0  0  0  0  0  0  0  0  0
  143.3259   75.6155  219.9319 H   0  0  0  0  0  0  0  0  0  0  0  0
  1  2  1  0
  2  3  2  0
  2  4  2  0
  2  5  1  0
  5  6  1  0
  6  7  1  0
  7  8  1  0
  8  9  2  0
  9 10  1  0
 10 11  2  0
 11 12  1  0
 12 13  2  0
 13 14  1  0
 14 15  1  0
 15 16  2  0
 16 17  1  0
 17 18  1  0
 18 19  2  0
 19 20  1  0
 19 21  1  0
 21 22  2  0
 22 23  1  0
 23 24  2  0
 14  5  1  0
 24 15  1  0
 13  8  1  0
 24 18  1  0
  1 25  1  0
  1 26  1  0
  1 27  1  0
  6 28  1  0
  6 29  1  0
  7 30  1  0
  7 31  1  0
  9 32  1  0
 10 33  1  0
 11 34  1  0
 12 35  1  0
 14 36  1  6
 16 37  1  0
 17 38  1  0
 21 39  1  0
 22 40  1  0
 23 41  1  0
M  END
>  <smiles>  (21) 
CS(=O)(=O)N1CCc2ccccc2C1c1c[nH]c2c(Cl)cccc12

>  <score_type>  (21) 
oracle

>  <origin>  (21) 
autodockgpu

>  <m_score__min__energy>  (21) 
-7.1100000000000003

>  <m_primary>  (21) 
energy

>  <meeko>  (21) 
{"free_energy": -7.02, "intermolecular_energy": -7.62, "internal_energy": -1.16, "cluster_size": 12, "cluster_id": 2, "rank_in_cluster": 5}

>  <energy>  (21) 
-7.11

>  <cluster_rmsd>  (21) 
0.0

>  <rmsd>  (21) 
271.58

>  <cluster>  (21) 
1

$$$$

     RDKit          3D

 41 44  0  0  1  0  0  0  0  0999 V2000
  138.9630   68.6730  221.7560 C   0  0  0  0  0  0  0  0  0  0  0  0
  138.6690   68.1520  223.4180 S   0  0  0  0  0  0  0  0  0  0  0  0
  137.2650   68.5460  223.7650 O   0  0  0  0  0  0  0  0  0  0  0  0
  138.8390   66.6490  223.4660 O   0  0  0  0  0  0  0  0  0  0  0  0
  139.8020   68.8520  224.5280 N   0  0  0  0  0  0  0  0  0  0  0  0
  139.9790   67.9440  225.6120 C   0  0  0  0  0  0  0  0  0  0  0  0
  139.5360   68.4400  226.9540 C   0  0  0  0  0  0  0  0  0  0  0  0
  140.2050   69.7550  227.1930 C   0  0  0  0  0  0  0  0  0  0  0  0
  140.8510   70.0640  228.3670 C   0  0  0  0  0  0  0  0  0  0  0  0
  141.4270   71.3260  228.4440 C   0  0  0  0  0  0  0  0  0  0  0  0
  141.3500   72.2220  227.3900 C   0  0  0  0  0  0  0  0  0  0  0  0
  140.7020   71.8970  226.2240 C   0  0  0  0  0  0  0  0  0  0  0  0
  140.1270   70.6580  226.1250 C   0  0  0  0  0  0  0  0  0  0  0  0
  139.3970   70.1740  224.9290 C   0  0  1  0  0  0  0  0  0  0  0  0
  139.5440   71.1500  223.8200 C   0  0  0  0  0  0  0  0  0  0  0  0
  140.7500   71.5510  223.2410 C   0  0  0  0  0  0  0  0  0  0  0  0
  140.5180   72.4430  222.2650 N   0  0  0  0  0  0  0  0  0  0  0  0
  139.1820   72.6190  222.2140 C   0  0  0  0  0  0  0  0  0  0  0  0
  138.4900   73.4630  221.3430 C   0  0  0  0  0  0  0  0  0  0  0  0
  139.3260   74.4390  220.1600 Cl  0  0  0  0  0  0  0  0  0  0  0  0
  137.1240   73.4830  221.4690 C   0  0  0  0  0  0  0  0  0  0  0  0
  136.4870   72.6980  222.4180 C   0  0  0  0  0  0  0  0  0  0  0  0
  137.1830   71.8640  223.2770 C   0  0  0  0  0  0  0  0  0  0  0  0
  138.5580   71.8430  223.1510 C   0  0  0  0  0  0  0  0  0  0  0  0
  139.5036   69.6310  221.7622 H   0  0  0  0  0  0  0  0  0  0  0  0
  139.5665   67.9148  221.2354 H   0  0  0  0  0  0  0  0  0  0  0  0
  138.0020   68.7976  221.2354 H   0  0  0  0  0  0  0  0  0  0  0  0
  139.4095   67.0309  225.3844 H   0  0  0  0  0  0  0  0  0  0  0  0
  141.0642   67.7841  225.6948 H   0  0  0  0  0  0  0  0  0  0  0  0
  138.4435   68.5675  226.9649 H   0  0  0  0  0  0  0  0  0  0  0  0
  139.8066   67.7202  227.7406 H   0  0  0  0  0  0  0  0  0  0  0  0
  140.9087   69.3495  229.2014 H   0  0  0  0  0  0  0  0  0  0  0  0
  141.9561   71.6204  229.3624 H   0  0  0  0  0  0  0  0  0  0  0  0
  141.8171   73.2129  227.4893 H   0  0  0  0  0  0  0  0  0  0  0  0
  140.6461   72.6132  225.3910 H   0  0  0  0  0  0  0  0  0  0  0  0
  138.3328   70.0940  225.1957 H   0  0  0  0  0  0  0  0  0  0  0  0
  141.7445   71.1889  223.5408 H   0  0  0  0  0  0  0  0  0  0  0  0
  141.2770   72.8740  221.7000 H   0  0  0  0  0  0  0  0  0  0  0  0
  136.5269   74.1296  220.8092 H   0  0  0  0  0  0  0  0  0  0  0  0
  135.3902   72.7391  222.4911 H   0  0  0  0  0  0  0  0  0  0  0  0
  136.6644   71.2466  224.0253 H   0  0  0  0  0  0  0  0  0  0  0  0
  1  2  1  0
  2  3  2  0
  2  4  2  0
  2  5  1  0
  5  6  1  0
  6  7  1  0
  7  8  1  0
  8  9  2  0
  9 10  1  0
 10 11  2  0
 11 12  1  0
 12 13  2  0
 13 14  1  0
 14 15  1  0
 15 16  2  0
 16 17  1  0
 17 18  1  0
 18 19  2  0
 19 20  1  0
 19 21  1  0
 21 22  2  0
 22 23  1  0
 23 24  2  0
 14  5  1  0
 24 15  1  0
 13  8  1  0
 24 18  1  0
  1 25  1  0
  1 26  1  0
  1 27  1  0
  6 28  1  0
  6 29  1  0
  7 30  1  0
  7 31  1  0
  9 32  1  0
 10 33  1  0
 11 34  1  0
 12 35  1  0
 14 36  1  1
 16 37  1  0
 17 38  1  0
 21 39  1  0
 22 40  1  0
 23 41  1  0
M  END
>  <smiles>  (22) 
CS(=O)(=O)N1CCc2ccccc2C1c1c[nH]c2c(Cl)cccc12

>  <score_type>  (22) 
oracle

>  <origin>  (22) 
autodockgpu

>  <m_score__min__energy>  (22) 
-7.1100000000000003

>  <m_primary>  (22) 
energy

>  <meeko>  (22) 
{"free_energy": -7.11, "intermolecular_energy": -7.71, "internal_energy": -1.13, "cluster_size": 8, "cluster_id": 1, "rank_in_cluster": 1}

>  <energy>  (22) 
-7.11

>  <cluster_rmsd>  (22) 
0.05

>  <rmsd>  (22) 
271.56

>  <cluster>  (22) 
1

$$$$

     RDKit          3D

 41 44  0  0  1  0  0  0  0  0999 V2000
  142.1340   77.1900  217.7760 C   0  0  0  0  0  0  0  0  0  0  0  0
  140.4800   77.5570  218.2770 S   0  0  0  0  0  0  0  0  0  0  0  0
  139.8590   78.3800  217.1900 O   0  0  0  0  0  0  0  0  0  0  0  0
  139.7490   76.2430  218.4490 O   0  0  0  0  0  0  0  0  0  0  0  0
  140.4330   78.3970  219.7930 N   0  0  0  0  0  0  0  0  0  0  0  0
  140.6440   79.7830  219.5380 C   0  0  0  0  0  0  0  0  0  0  0  0
  141.8870   80.3710  220.1320 C   0  0  0  0  0  0  0  0  0  0  0  0
  141.8860   80.0500  221.5920 C   0  0  0  0  0  0  0  0  0  0  0  0
  142.1380   80.9880  222.5650 C   0  0  0  0  0  0  0  0  0  0  0  0
  142.1020   80.5430  223.8800 C   0  0  0  0  0  0  0  0  0  0  0  0
  141.8280   79.2210  224.1890 C   0  0  0  0  0  0  0  0  0  0  0  0
  141.5770   78.2960  223.2050 C   0  0  0  0  0  0  0  0  0  0  0  0
  141.6060   78.7130  221.9000 C   0  0  0  0  0  0  0  0  0  0  0  0
  141.3560   77.8260  220.7390 C   0  0  1  0  0  0  0  0  0  0  0  0
  140.9010   76.4940  221.2110 C   0  0  0  0  0  0  0  0  0  0  0  0
  139.7310   76.2410  221.9300 C   0  0  0  0  0  0  0  0  0  0  0  0
  139.6280   74.9280  222.1940 N   0  0  0  0  0  0  0  0  0  0  0  0
  140.7160   74.3400  221.6540 C   0  0  0  0  0  0  0  0  0  0  0  0
  141.0240   72.9790  221.6860 C   0  0  0  0  0  0  0  0  0  0  0  0
  139.9780   71.8240  222.4740 Cl  0  0  0  0  0  0  0  0  0  0  0  0
  142.1890   72.6020  221.0680 C   0  0  0  0  0  0  0  0  0  0  0  0
  143.0010   73.5420  220.4510 C   0  0  0  0  0  0  0  0  0  0  0  0
  142.6860   74.8910  220.4240 C   0  0  0  0  0  0  0  0  0  0  0  0
  141.5130   75.2700  221.0460 C   0  0  0  0  0  0  0  0  0  0  0  0
  142.7644   77.0501  218.6665 H   0  0  0  0  0  0  0  0  0  0  0  0
  142.1392   76.2689  217.1748 H   0  0  0  0  0  0  0  0  0  0  0  0
  142.5283   78.0225  217.1748 H   0  0  0  0  0  0  0  0  0  0  0  0
  140.6916   79.9226  218.4479 H   0  0  0  0  0  0  0  0  0  0  0  0
  139.8050   80.3074  220.0187 H   0  0  0  0  0  0  0  0  0  0  0  0
  142.7751   79.9336  219.6524 H   0  0  0  0  0  0  0  0  0  0  0  0
  141.9121   81.4596  219.9759 H   0  0  0  0  0  0  0  0  0  0  0  0
  142.3568   82.0366  222.3149 H   0  0  0  0  0  0  0  0  0  0  0  0
  142.2955   81.2565  224.6945 H   0  0  0  0  0  0  0  0  0  0  0  0
  141.8111   78.9057  225.2427 H   0  0  0  0  0  0  0  0  0  0  0  0
  141.3584   77.2480  223.4580 H   0  0  0  0  0  0  0  0  0  0  0  0
  142.3059   77.7067  220.1974 H   0  0  0  0  0  0  0  0  0  0  0  0
  139.0008   77.0049  222.2354 H   0  0  0  0  0  0  0  0  0  0  0  0
  138.8310   74.5170  222.7200 H   0  0  0  0  0  0  0  0  0  0  0  0
  142.4827   71.5419  221.0616 H   0  0  0  0  0  0  0  0  0  0  0  0
  143.9286   73.2044  219.9656 H   0  0  0  0  0  0  0  0  0  0  0  0
  143.3395   75.6253  219.9304 H   0  0  0  0  0  0  0  0  0  0  0  0
  1  2  1  0
  2  3  2  0
  2  4  2  0
  2  5  1  0
  5  6  1  0
  6  7  1  0
  7  8  1  0
  8  9  2  0
  9 10  1  0
 10 11  2  0
 11 12  1  0
 12 13  2  0
 13 14  1  0
 14 15  1  0
 15 16  2  0
 16 17  1  0
 17 18  1  0
 18 19  2  0
 19 20  1  0
 19 21  1  0
 21 22  2  0
 22 23  1  0
 23 24  2  0
 14  5  1  0
 24 15  1  0
 13  8  1  0
 24 18  1  0
  1 25  1  0
  1 26  1  0
  1 27  1  0
  6 28  1  0
  6 29  1  0
  7 30  1  0
  7 31  1  0
  9 32  1  0
 10 33  1  0
 11 34  1  0
 12 35  1  0
 14 36  1  6
 16 37  1  0
 17 38  1  0
 21 39  1  0
 22 40  1  0
 23 41  1  0
M  END
>  <smiles>  (23) 
CS(=O)(=O)N1CCc2ccccc2C1c1c[nH]c2c(Cl)cccc12

>  <score_type>  (23) 
oracle

>  <origin>  (23) 
autodockgpu

>  <m_score__min__energy>  (23) 
-7.1100000000000003

>  <m_primary>  (23) 
energy

>  <meeko>  (23) 
{"free_energy": -7.02, "intermolecular_energy": -7.62, "internal_energy": -1.16, "cluster_size": 12, "cluster_id": 2, "rank_in_cluster": 11}

>  <energy>  (23) 
-7.1

>  <cluster_rmsd>  (23) 
0.07

>  <rmsd>  (23) 
271.58

>  <cluster>  (23) 
1

$$$$

     RDKit          3D

 41 44  0  0  1  0  0  0  0  0999 V2000
  142.1520   77.2020  217.7750 C   0  0  0  0  0  0  0  0  0  0  0  0
  140.4960   77.5550  218.2770 S   0  0  0  0  0  0  0  0  0  0  0  0
  139.8670   78.3720  217.1910 O   0  0  0  0  0  0  0  0  0  0  0  0
  139.7760   76.2360  218.4520 O   0  0  0  0  0  0  0  0  0  0  0  0
  140.4440   78.3950  219.7940 N   0  0  0  0  0  0  0  0  0  0  0  0
  140.6560   79.7810  219.5390 C   0  0  0  0  0  0  0  0  0  0  0  0
  141.8970   80.3690  220.1360 C   0  0  0  0  0  0  0  0  0  0  0  0
  141.8910   80.0490  221.5970 C   0  0  0  0  0  0  0  0  0  0  0  0
  142.1400   80.9870  222.5700 C   0  0  0  0  0  0  0  0  0  0  0  0
  142.1000   80.5420  223.8850 C   0  0  0  0  0  0  0  0  0  0  0  0
  141.8240   79.2200  224.1940 C   0  0  0  0  0  0  0  0  0  0  0  0
  141.5770   78.2960  223.2090 C   0  0  0  0  0  0  0  0  0  0  0  0
  141.6100   78.7120  221.9050 C   0  0  0  0  0  0  0  0  0  0  0  0
  141.3640   77.8250  220.7430 C   0  0  1  0  0  0  0  0  0  0  0  0
  140.9060   76.4930  221.2130 C   0  0  0  0  0  0  0  0  0  0  0  0
  139.7390   76.2410  221.9370 C   0  0  0  0  0  0  0  0  0  0  0  0
  139.6330   74.9290  222.1980 N   0  0  0  0  0  0  0  0  0  0  0  0
  140.7170   74.3390  221.6520 C   0  0  0  0  0  0  0  0  0  0  0  0
  141.0210   72.9770  221.6800 C   0  0  0  0  0  0  0  0  0  0  0  0
  139.9750   71.8220  222.4700 Cl  0  0  0  0  0  0  0  0  0  0  0  0
  142.1830   72.5980  221.0570 C   0  0  0  0  0  0  0  0  0  0  0  0
  142.9950   73.5370  220.4380 C   0  0  0  0  0  0  0  0  0  0  0  0
  142.6830   74.8860  220.4160 C   0  0  0  0  0  0  0  0  0  0  0  0
  141.5150   75.2670  221.0430 C   0  0  0  0  0  0  0  0  0  0  0  0
  142.7841   77.0673  218.6651 H   0  0  0  0  0  0  0  0  0  0  0  0
  142.1644   76.2810  217.1736 H   0  0  0  0  0  0  0  0  0  0  0  0
  142.5389   78.0379  217.1736 H   0  0  0  0  0  0  0  0  0  0  0  0
  140.7067   79.9201  218.4490 H   0  0  0  0  0  0  0  0  0  0  0  0
  139.8158   80.3057  220.0172 H   0  0  0  0  0  0  0  0  0  0  0  0
  142.7864   79.9309  219.6596 H   0  0  0  0  0  0  0  0  0  0  0  0
  141.9232   81.4574  219.9789 H   0  0  0  0  0  0  0  0  0  0  0  0
  142.3595   82.0356  222.3203 H   0  0  0  0  0  0  0  0  0  0  0  0
  142.2919   81.2556  224.6999 H   0  0  0  0  0  0  0  0  0  0  0  0
  141.8024   78.9049  225.2477 H   0  0  0  0  0  0  0  0  0  0  0  0
  141.3581   77.2479  223.4611 H   0  0  0  0  0  0  0  0  0  0  0  0
  142.3164   77.7064  220.2055 H   0  0  0  0  0  0  0  0  0  0  0  0
  139.0126   77.0062  222.2480 H   0  0  0  0  0  0  0  0  0  0  0  0
  138.8380   74.5180  222.7270 H   0  0  0  0  0  0  0  0  0  0  0  0
  142.4742   71.5373  221.0482 H   0  0  0  0  0  0  0  0  0  0  0  0
  143.9193   73.1981  219.9473 H   0  0  0  0  0  0  0  0  0  0  0  0
  143.3364   75.6198  219.9214 H   0  0  0  0  0  0  0  0  0  0  0  0
  1  2  1  0
  2  3  2  0
  2  4  2  0
  2  5  1  0
  5  6  1  0
  6  7  1  0
  7  8  1  0
  8  9  2  0
  9 10  1  0
 10 11  2  0
 11 12  1  0
 12 13  2  0
 13 14  1  0
 14 15  1  0
 15 16  2  0
 16 17  1  0
 17 18  1  0
 18 19  2  0
 19 20  1  0
 19 21  1  0
 21 22  2  0
 22 23  1  0
 23 24  2  0
 14  5  1  0
 24 15  1  0
 13  8  1  0
 24 18  1  0
  1 25  1  0
  1 26  1  0
  1 27  1  0
  6 28  1  0
  6 29  1  0
  7 30  1  0
  7 31  1  0
  9 32  1  0
 10 33  1  0
 11 34  1  0
 12 35  1  0
 14 36  1  6
 16 37  1  0
 17 38  1  0
 21 39  1  0
 22 40  1  0
 23 41  1  0
M  END
>  <smiles>  (24) 
CS(=O)(=O)N1CCc2ccccc2C1c1c[nH]c2c(Cl)cccc12

>  <score_type>  (24) 
oracle

>  <origin>  (24) 
autodockgpu

>  <m_score__min__energy>  (24) 
-7.1100000000000003

>  <m_primary>  (24) 
energy

>  <meeko>  (24) 
{"free_energy": -7.02, "intermolecular_energy": -7.62, "internal_energy": -1.16, "cluster_size": 12, "cluster_id": 2, "rank_in_cluster": 3}

>  <energy>  (24) 
-7.1

>  <cluster_rmsd>  (24) 
0.03

>  <rmsd>  (24) 
271.6

>  <cluster>  (24) 
1

$$$$

     RDKit          3D

 41 44  0  0  1  0  0  0  0  0999 V2000
  142.1190   77.2220  217.7610 C   0  0  0  0  0  0  0  0  0  0  0  0
  140.4640   77.5520  218.2810 S   0  0  0  0  0  0  0  0  0  0  0  0
  139.8110   78.3600  217.2000 O   0  0  0  0  0  0  0  0  0  0  0  0
  139.7630   76.2230  218.4630 O   0  0  0  0  0  0  0  0  0  0  0  0
  140.4160   78.3930  219.7970 N   0  0  0  0  0  0  0  0  0  0  0  0
  140.6270   79.7790  219.5410 C   0  0  0  0  0  0  0  0  0  0  0  0
  141.8700   80.3670  220.1350 C   0  0  0  0  0  0  0  0  0  0  0  0
  141.8680   80.0470  221.5950 C   0  0  0  0  0  0  0  0  0  0  0  0
  142.1200   80.9850  222.5680 C   0  0  0  0  0  0  0  0  0  0  0  0
  142.0840   80.5400  223.8830 C   0  0  0  0  0  0  0  0  0  0  0  0
  141.8080   79.2180  224.1930 C   0  0  0  0  0  0  0  0  0  0  0  0
  141.5580   78.2940  223.2090 C   0  0  0  0  0  0  0  0  0  0  0  0
  141.5880   78.7090  221.9050 C   0  0  0  0  0  0  0  0  0  0  0  0
  141.3380   77.8230  220.7430 C   0  0  1  0  0  0  0  0  0  0  0  0
  140.8820   76.4900  221.2160 C   0  0  0  0  0  0  0  0  0  0  0  0
  139.7110   76.2380  221.9330 C   0  0  0  0  0  0  0  0  0  0  0  0
  139.6080   74.9250  222.1970 N   0  0  0  0  0  0  0  0  0  0  0  0
  140.6970   74.3370  221.6600 C   0  0  0  0  0  0  0  0  0  0  0  0
  141.0050   72.9760  221.6950 C   0  0  0  0  0  0  0  0  0  0  0  0
  139.9580   71.8210  222.4810 Cl  0  0  0  0  0  0  0  0  0  0  0  0
  142.1720   72.5990  221.0800 C   0  0  0  0  0  0  0  0  0  0  0  0
  142.9850   73.5390  220.4630 C   0  0  0  0  0  0  0  0  0  0  0  0
  142.6690   74.8870  220.4340 C   0  0  0  0  0  0  0  0  0  0  0  0
  141.4950   75.2670  221.0530 C   0  0  0  0  0  0  0  0  0  0  0  0
  142.7621   77.0938  218.6441 H   0  0  0  0  0  0  0  0  0  0  0  0
  142.1373   76.3025  217.1575 H   0  0  0  0  0  0  0  0  0  0  0  0
  142.4885   78.0641  217.1575 H   0  0  0  0  0  0  0  0  0  0  0  0
  140.6749   79.9179  218.4509 H   0  0  0  0  0  0  0  0  0  0  0  0
  139.7879   80.3039  220.0210 H   0  0  0  0  0  0  0  0  0  0  0  0
  142.7581   79.9289  219.6562 H   0  0  0  0  0  0  0  0  0  0  0  0
  141.8958   81.4554  219.9780 H   0  0  0  0  0  0  0  0  0  0  0  0
  142.3388   82.0336  222.3179 H   0  0  0  0  0  0  0  0  0  0  0  0
  142.2791   81.2534  224.6972 H   0  0  0  0  0  0  0  0  0  0  0  0
  141.7889   78.9032  225.2468 H   0  0  0  0  0  0  0  0  0  0  0  0
  141.3390   77.2462  223.4622 H   0  0  0  0  0  0  0  0  0  0  0  0
  142.2879   77.7049  220.2009 H   0  0  0  0  0  0  0  0  0  0  0  0
  138.9803   77.0020  222.2370 H   0  0  0  0  0  0  0  0  0  0  0  0
  138.8100   74.5150  222.7230 H   0  0  0  0  0  0  0  0  0  0  0  0
  142.4666   71.5392  221.0760 H   0  0  0  0  0  0  0  0  0  0  0  0
  143.9137   73.2014  219.9796 H   0  0  0  0  0  0  0  0  0  0  0  0
  143.3231   75.6209  219.9406 H   0  0  0  0  0  0  0  0  0  0  0  0
  1  2  1  0
  2  3  2  0
  2  4  2  0
  2  5  1  0
  5  6  1  0
  6  7  1  0
  7  8  1  0
  8  9  2  0
  9 10  1  0
 10 11  2  0
 11 12  1  0
 12 13  2  0
 13 14  1  0
 14 15  1  0
 15 16  2  0
 16 17  1  0
 17 18  1  0
 18 19  2  0
 19 20  1  0
 19 21  1  0
 21 22  2  0
 22 23  1  0
 23 24  2  0
 14  5  1  0
 24 15  1  0
 13  8  1  0
 24 18  1  0
  1 25  1  0
  1 26  1  0
  1 27  1  0
  6 28  1  0
  6 29  1  0
  7 30  1  0
  7 31  1  0
  9 32  1  0
 10 33  1  0
 11 34  1  0
 12 35  1  0
 14 36  1  6
 16 37  1  0
 17 38  1  0
 21 39  1  0
 22 40  1  0
 23 41  1  0
M  END
>  <smiles>  (25) 
CS(=O)(=O)N1CCc2ccccc2C1c1c[nH]c2c(Cl)cccc12

>  <score_type>  (25) 
oracle

>  <origin>  (25) 
autodockgpu

>  <m_score__min__energy>  (25) 
-7.1100000000000003

>  <m_primary>  (25) 
energy

>  <meeko>  (25) 
{"free_energy": -7.02, "intermolecular_energy": -7.62, "internal_energy": -1.16, "cluster_size": 12, "cluster_id": 2, "rank_in_cluster": 2}

>  <energy>  (25) 
-7.1

>  <cluster_rmsd>  (25) 
0.04

>  <rmsd>  (25) 
271.56

>  <cluster>  (25) 
1

$$$$

     RDKit          3D

 41 44  0  0  1  0  0  0  0  0999 V2000
  142.1440   77.1850  217.7850 C   0  0  0  0  0  0  0  0  0  0  0  0
  140.4900   77.5490  218.2830 S   0  0  0  0  0  0  0  0  0  0  0  0
  139.8680   78.3700  217.1950 O   0  0  0  0  0  0  0  0  0  0  0  0
  139.7600   76.2340  218.4560 O   0  0  0  0  0  0  0  0  0  0  0  0
  140.4390   78.3890  219.8000 N   0  0  0  0  0  0  0  0  0  0  0  0
  140.6510   79.7750  219.5440 C   0  0  0  0  0  0  0  0  0  0  0  0
  141.8920   80.3630  220.1400 C   0  0  0  0  0  0  0  0  0  0  0  0
  141.8880   80.0430  221.6000 C   0  0  0  0  0  0  0  0  0  0  0  0
  142.1380   80.9820  222.5740 C   0  0  0  0  0  0  0  0  0  0  0  0
  142.0990   80.5370  223.8890 C   0  0  0  0  0  0  0  0  0  0  0  0
  141.8230   79.2150  224.1980 C   0  0  0  0  0  0  0  0  0  0  0  0
  141.5750   78.2910  223.2130 C   0  0  0  0  0  0  0  0  0  0  0  0
  141.6070   78.7060  221.9090 C   0  0  0  0  0  0  0  0  0  0  0  0
  141.3600   77.8190  220.7480 C   0  0  1  0  0  0  0  0  0  0  0  0
  140.9030   76.4870  221.2190 C   0  0  0  0  0  0  0  0  0  0  0  0
  139.7310   76.2350  221.9360 C   0  0  0  0  0  0  0  0  0  0  0  0
  139.6270   74.9220  222.2000 N   0  0  0  0  0  0  0  0  0  0  0  0
  140.7160   74.3340  221.6630 C   0  0  0  0  0  0  0  0  0  0  0  0
  141.0240   72.9730  221.6960 C   0  0  0  0  0  0  0  0  0  0  0  0
  139.9760   71.8180  222.4820 Cl  0  0  0  0  0  0  0  0  0  0  0  0
  142.1910   72.5950  221.0810 C   0  0  0  0  0  0  0  0  0  0  0  0
  143.0040   73.5350  220.4650 C   0  0  0  0  0  0  0  0  0  0  0  0
  142.6890   74.8830  220.4370 C   0  0  0  0  0  0  0  0  0  0  0  0
  141.5150   75.2630  221.0560 C   0  0  0  0  0  0  0  0  0  0  0  0
  142.7733   77.0465  218.6765 H   0  0  0  0  0  0  0  0  0  0  0  0
  142.1516   76.2637  217.1841 H   0  0  0  0  0  0  0  0  0  0  0  0
  142.5377   78.0180  217.1841 H   0  0  0  0  0  0  0  0  0  0  0  0
  140.7013   79.9135  218.4539 H   0  0  0  0  0  0  0  0  0  0  0  0
  139.8110   80.3001  220.0222 H   0  0  0  0  0  0  0  0  0  0  0  0
  142.7811   79.9253  219.6626 H   0  0  0  0  0  0  0  0  0  0  0  0
  141.9174   81.4515  219.9833 H   0  0  0  0  0  0  0  0  0  0  0  0
  142.3573   82.0306  222.3242 H   0  0  0  0  0  0  0  0  0  0  0  0
  142.2916   81.2505  224.7038 H   0  0  0  0  0  0  0  0  0  0  0  0
  141.8021   78.8998  225.2517 H   0  0  0  0  0  0  0  0  0  0  0  0
  141.3560   77.2430  223.4656 H   0  0  0  0  0  0  0  0  0  0  0  0
  142.3116   77.7001  220.2093 H   0  0  0  0  0  0  0  0  0  0  0  0
  139.0006   76.9994  222.2398 H   0  0  0  0  0  0  0  0  0  0  0  0
  138.8300   74.5120  222.7250 H   0  0  0  0  0  0  0  0  0  0  0  0
  142.4849   71.5350  221.0764 H   0  0  0  0  0  0  0  0  0  0  0  0
  143.9325   73.1974  219.9813 H   0  0  0  0  0  0  0  0  0  0  0  0
  143.3437   75.6170  219.9444 H   0  0  0  0  0  0  0  0  0  0  0  0
  1  2  1  0
  2  3  2  0
  2  4  2  0
  2  5  1  0
  5  6  1  0
  6  7  1  0
  7  8  1  0
  8  9  2  0
  9 10  1  0
 10 11  2  0
 11 12  1  0
 12 13  2  0
 13 14  1  0
 14 15  1  0
 15 16  2  0
 16 17  1  0
 17 18  1  0
 18 19  2  0
 19 20  1  0
 19 21  1  0
 21 22  2  0
 22 23  1  0
 23 24  2  0
 14  5  1  0
 24 15  1  0
 13  8  1  0
 24 18  1  0
  1 25  1  0
  1 26  1  0
  1 27  1  0
  6 28  1  0
  6 29  1  0
  7 30  1  0
  7 31  1  0
  9 32  1  0
 10 33  1  0
 11 34  1  0
 12 35  1  0
 14 36  1  6
 16 37  1  0
 17 38  1  0
 21 39  1  0
 22 40  1  0
 23 41  1  0
M  END
>  <smiles>  (26) 
CS(=O)(=O)N1CCc2ccccc2C1c1c[nH]c2c(Cl)cccc12

>  <score_type>  (26) 
oracle

>  <origin>  (26) 
autodockgpu

>  <m_score__min__energy>  (26) 
-7.1100000000000003

>  <m_primary>  (26) 
energy

>  <meeko>  (26) 
{"free_energy": -7.02, "intermolecular_energy": -7.62, "internal_energy": -1.16, "cluster_size": 12, "cluster_id": 2, "rank_in_cluster": 6}

>  <energy>  (26) 
-7.09

>  <cluster_rmsd>  (26) 
0.06

>  <rmsd>  (26) 
271.58

>  <cluster>  (26) 
1

$$$$

     RDKit          3D

 41 44  0  0  1  0  0  0  0  0999 V2000
  138.9720   68.6930  221.7630 C   0  0  0  0  0  0  0  0  0  0  0  0
  138.6730   68.1720  223.4240 S   0  0  0  0  0  0  0  0  0  0  0  0
  137.2670   68.5610  223.7660 O   0  0  0  0  0  0  0  0  0  0  0  0
  138.8500   66.6700  223.4760 O   0  0  0  0  0  0  0  0  0  0  0  0
  139.8000   68.8800  224.5370 N   0  0  0  0  0  0  0  0  0  0  0  0
  139.9600   67.9830  225.6340 C   0  0  0  0  0  0  0  0  0  0  0  0
  139.5060   68.4980  226.9650 C   0  0  0  0  0  0  0  0  0  0  0  0
  140.1810   69.8110  227.1950 C   0  0  0  0  0  0  0  0  0  0  0  0
  140.8170   70.1310  228.3720 C   0  0  0  0  0  0  0  0  0  0  0  0
  141.4000   71.3900  228.4400 C   0  0  0  0  0  0  0  0  0  0  0  0
  141.3390   72.2740  227.3750 C   0  0  0  0  0  0  0  0  0  0  0  0
  140.7000   71.9390  226.2060 C   0  0  0  0  0  0  0  0  0  0  0  0
  140.1190   70.7020  226.1160 C   0  0  0  0  0  0  0  0  0  0  0  0
  139.3980   70.2080  224.9190 C   0  0  1  0  0  0  0  0  0  0  0  0
  139.5620   71.1700  223.7990 C   0  0  0  0  0  0  0  0  0  0  0  0
  140.7770   71.5570  223.2280 C   0  0  0  0  0  0  0  0  0  0  0  0
  140.5600   72.4390  222.2400 N   0  0  0  0  0  0  0  0  0  0  0  0
  139.2250   72.6220  222.1720 C   0  0  0  0  0  0  0  0  0  0  0  0
  138.5470   73.4590  221.2840 C   0  0  0  0  0  0  0  0  0  0  0  0
  139.4000   74.4160  220.0980 Cl  0  0  0  0  0  0  0  0  0  0  0  0
  137.1800   73.4880  221.3960 C   0  0  0  0  0  0  0  0  0  0  0  0
  136.5290   72.7180  222.3480 C   0  0  0  0  0  0  0  0  0  0  0  0
  137.2110   71.8900  223.2240 C   0  0  0  0  0  0  0  0  0  0  0  0
  138.5870   71.8610  223.1120 C   0  0  0  0  0  0  0  0  0  0  0  0
  139.5195   69.6470  221.7709 H   0  0  0  0  0  0  0  0  0  0  0  0
  139.5703   67.9312  221.2418 H   0  0  0  0  0  0  0  0  0  0  0  0
  138.0124   68.8253  221.2418 H   0  0  0  0  0  0  0  0  0  0  0  0
  139.3871   67.0708  225.4111 H   0  0  0  0  0  0  0  0  0  0  0  0
  141.0431   67.8168  225.7302 H   0  0  0  0  0  0  0  0  0  0  0  0
  138.4143   68.6327  226.9626 H   0  0  0  0  0  0  0  0  0  0  0  0
  139.7633   67.7861  227.7631 H   0  0  0  0  0  0  0  0  0  0  0  0
  140.8616   69.4265  229.2156 H   0  0  0  0  0  0  0  0  0  0  0  0
  141.9218   71.6919  229.3601 H   0  0  0  0  0  0  0  0  0  0  0  0
  141.8113   73.2631  227.4673 H   0  0  0  0  0  0  0  0  0  0  0  0
  140.6561   72.6458  225.3642 H   0  0  0  0  0  0  0  0  0  0  0  0
  138.3310   70.1372  225.1769 H   0  0  0  0  0  0  0  0  0  0  0  0
  141.7661   71.1923  223.5421 H   0  0  0  0  0  0  0  0  0  0  0  0
  141.3270   72.8590  221.6770 H   0  0  0  0  0  0  0  0  0  0  0  0
  136.5932   74.1298  220.7224 H   0  0  0  0  0  0  0  0  0  0  0  0
  135.4318   72.7666  222.4096 H   0  0  0  0  0  0  0  0  0  0  0  0
  136.6814   71.2839  223.9738 H   0  0  0  0  0  0  0  0  0  0  0  0
  1  2  1  0
  2  3  2  0
  2  4  2  0
  2  5  1  0
  5  6  1  0
  6  7  1  0
  7  8  1  0
  8  9  2  0
  9 10  1  0
 10 11  2  0
 11 12  1  0
 12 13  2  0
 13 14  1  0
 14 15  1  0
 15 16  2  0
 16 17  1  0
 17 18  1  0
 18 19  2  0
 19 20  1  0
 19 21  1  0
 21 22  2  0
 22 23  1  0
 23 24  2  0
 14  5  1  0
 24 15  1  0
 13  8  1  0
 24 18  1  0
  1 25  1  0
  1 26  1  0
  1 27  1  0
  6 28  1  0
  6 29  1  0
  7 30  1  0
  7 31  1  0
  9 32  1  0
 10 33  1  0
 11 34  1  0
 12 35  1  0
 14 36  1  1
 16 37  1  0
 17 38  1  0
 21 39  1  0
 22 40  1  0
 23 41  1  0
M  END
>  <smiles>  (27) 
CS(=O)(=O)N1CCc2ccccc2C1c1c[nH]c2c(Cl)cccc12

>  <score_type>  (27) 
oracle

>  <origin>  (27) 
autodockgpu

>  <m_score__min__energy>  (27) 
-7.1100000000000003

>  <m_primary>  (27) 
energy

>  <meeko>  (27) 
{"free_energy": -7.09, "intermolecular_energy": -7.69, "internal_energy": -1.12, "cluster_size": 8, "cluster_id": 1, "rank_in_cluster": 6}

>  <energy>  (27) 
-7.09

>  <cluster_rmsd>  (27) 
0.03

>  <rmsd>  (27) 
271.58

>  <cluster>  (27) 
1

$$$$

     RDKit          3D

 41 44  0  0  1  0  0  0  0  0999 V2000
  142.1070   77.1710  217.7670 C   0  0  0  0  0  0  0  0  0  0  0  0
  140.4550   77.5440  218.2680 S   0  0  0  0  0  0  0  0  0  0  0  0
  139.8340   78.3660  217.1800 O   0  0  0  0  0  0  0  0  0  0  0  0
  139.7190   76.2320  218.4440 O   0  0  0  0  0  0  0  0  0  0  0  0
  140.4110   78.3860  219.7840 N   0  0  0  0  0  0  0  0  0  0  0  0
  140.6200   79.7720  219.5250 C   0  0  0  0  0  0  0  0  0  0  0  0
  141.8650   80.3610  220.1150 C   0  0  0  0  0  0  0  0  0  0  0  0
  141.8670   80.0440  221.5750 C   0  0  0  0  0  0  0  0  0  0  0  0
  142.1210   80.9840  222.5460 C   0  0  0  0  0  0  0  0  0  0  0  0
  142.0890   80.5410  223.8620 C   0  0  0  0  0  0  0  0  0  0  0  0
  141.8150   79.2190  224.1750 C   0  0  0  0  0  0  0  0  0  0  0  0
  141.5630   78.2930  223.1920 C   0  0  0  0  0  0  0  0  0  0  0  0
  141.5880   78.7070  221.8870 C   0  0  0  0  0  0  0  0  0  0  0  0
  141.3360   77.8180  220.7280 C   0  0  1  0  0  0  0  0  0  0  0  0
  140.8820   76.4860  221.2040 C   0  0  0  0  0  0  0  0  0  0  0  0
  139.7130   76.2340  221.9260 C   0  0  0  0  0  0  0  0  0  0  0  0
  139.6110   74.9230  222.1920 N   0  0  0  0  0  0  0  0  0  0  0  0
  140.6980   74.3340  221.6520 C   0  0  0  0  0  0  0  0  0  0  0  0
  141.0070   72.9730  221.6860 C   0  0  0  0  0  0  0  0  0  0  0  0
  139.9630   71.8180  222.4790 Cl  0  0  0  0  0  0  0  0  0  0  0  0
  142.1710   72.5950  221.0670 C   0  0  0  0  0  0  0  0  0  0  0  0
  142.9820   73.5340  220.4460 C   0  0  0  0  0  0  0  0  0  0  0  0
  142.6660   74.8820  220.4170 C   0  0  0  0  0  0  0  0  0  0  0  0
  141.4940   75.2620  221.0400 C   0  0  0  0  0  0  0  0  0  0  0  0
  142.7369   77.0288  218.6575 H   0  0  0  0  0  0  0  0  0  0  0  0
  142.1087   76.2499  217.1657 H   0  0  0  0  0  0  0  0  0  0  0  0
  142.5043   78.0020  217.1657 H   0  0  0  0  0  0  0  0  0  0  0  0
  140.6646   79.9094  218.4345 H   0  0  0  0  0  0  0  0  0  0  0  0
  139.7817   80.2974  220.0059 H   0  0  0  0  0  0  0  0  0  0  0  0
  142.7518   79.9218  219.6346 H   0  0  0  0  0  0  0  0  0  0  0  0
  141.8904   81.4492  219.9560 H   0  0  0  0  0  0  0  0  0  0  0  0
  142.3382   82.0324  222.2936 H   0  0  0  0  0  0  0  0  0  0  0  0
  142.2857   81.2559  224.6745 H   0  0  0  0  0  0  0  0  0  0  0  0
  141.7990   78.9056  225.2293 H   0  0  0  0  0  0  0  0  0  0  0  0
  141.3465   77.2451  223.4469 H   0  0  0  0  0  0  0  0  0  0  0  0
  142.2848   77.6986  220.1844 H   0  0  0  0  0  0  0  0  0  0  0  0
  138.9832   76.9983  222.2316 H   0  0  0  0  0  0  0  0  0  0  0  0
  138.8160   74.5120  222.7210 H   0  0  0  0  0  0  0  0  0  0  0  0
  142.4651   71.5350  221.0628 H   0  0  0  0  0  0  0  0  0  0  0  0
  143.9087   73.1957  219.9595 H   0  0  0  0  0  0  0  0  0  0  0  0
  143.3183   75.6157  219.9208 H   0  0  0  0  0  0  0  0  0  0  0  0
  1  2  1  0
  2  3  2  0
  2  4  2  0
  2  5  1  0
  5  6  1  0
  6  7  1  0
  7  8  1  0
  8  9  2  0
  9 10  1  0
 10 11  2  0
 11 12  1  0
 12 13  2  0
 13 14  1  0
 14 15  1  0
 15 16  2  0
 16 17  1  0
 17 18  1  0
 18 19  2  0
 19 20  1  0
 19 21  1  0
 21 22  2  0
 22 23  1  0
 23 24  2  0
 14  5  1  0
 24 15  1  0
 13  8  1  0
 24 18  1  0
  1 25  1  0
  1 26  1  0
  1 27  1  0
  6 28  1  0
  6 29  1  0
  7 30  1  0
  7 31  1  0
  9 32  1  0
 10 33  1  0
 11 34  1  0
 12 35  1  0
 14 36  1  6
 16 37  1  0
 17 38  1  0
 21 39  1  0
 22 40  1  0
 23 41  1  0
M  END
>  <smiles>  (28) 
CS(=O)(=O)N1CCc2ccccc2C1c1c[nH]c2c(Cl)cccc12

>  <score_type>  (28) 
oracle

>  <origin>  (28) 
autodockgpu

>  <m_score__min__energy>  (28) 
-7.1100000000000003

>  <m_primary>  (28) 
energy

>  <meeko>  (28) 
{"free_energy": -7.02, "intermolecular_energy": -7.62, "internal_energy": -1.16, "cluster_size": 12, "cluster_id": 2, "rank_in_cluster": 12}

>  <energy>  (28) 
-7.08

>  <cluster_rmsd>  (28) 
0.07

>  <rmsd>  (28) 
271.56

>  <cluster>  (28) 
1

$$$$

     RDKit          3D

 41 44  0  0  1  0  0  0  0  0999 V2000
  138.9740   68.6460  221.7550 C   0  0  0  0  0  0  0  0  0  0  0  0
  138.6730   68.1270  223.4160 S   0  0  0  0  0  0  0  0  0  0  0  0
  137.2680   68.5230  223.7580 O   0  0  0  0  0  0  0  0  0  0  0  0
  138.8410   66.6240  223.4670 O   0  0  0  0  0  0  0  0  0  0  0  0
  139.8030   68.8280  224.5290 N   0  0  0  0  0  0  0  0  0  0  0  0
  139.9710   67.9230  225.6180 C   0  0  0  0  0  0  0  0  0  0  0  0
  139.5220   68.4260  226.9550 C   0  0  0  0  0  0  0  0  0  0  0  0
  140.1960   69.7390  227.1920 C   0  0  0  0  0  0  0  0  0  0  0  0
  140.8370   70.0510  228.3680 C   0  0  0  0  0  0  0  0  0  0  0  0
  141.4170   71.3110  228.4440 C   0  0  0  0  0  0  0  0  0  0  0  0
  141.3500   72.2030  227.3860 C   0  0  0  0  0  0  0  0  0  0  0  0
  140.7060   71.8750  226.2180 C   0  0  0  0  0  0  0  0  0  0  0  0
  140.1270   70.6390  226.1200 C   0  0  0  0  0  0  0  0  0  0  0  0
  139.4010   70.1520  224.9230 C   0  0  1  0  0  0  0  0  0  0  0  0
  139.5570   71.1240  223.8100 C   0  0  0  0  0  0  0  0  0  0  0  0
  140.7670   71.5110  223.2310 C   0  0  0  0  0  0  0  0  0  0  0  0
  140.5440   72.4030  222.2530 N   0  0  0  0  0  0  0  0  0  0  0  0
  139.2090   72.5910  222.1990 C   0  0  0  0  0  0  0  0  0  0  0  0
  138.5260   73.4380  221.3260 C   0  0  0  0  0  0  0  0  0  0  0  0
  139.3710   74.4020  220.1390 Cl  0  0  0  0  0  0  0  0  0  0  0  0
  137.1600   73.4710  221.4510 C   0  0  0  0  0  0  0  0  0  0  0  0
  136.5150   72.6940  222.4020 C   0  0  0  0  0  0  0  0  0  0  0  0
  137.2030   71.8570  223.2640 C   0  0  0  0  0  0  0  0  0  0  0  0
  138.5780   71.8230  223.1390 C   0  0  0  0  0  0  0  0  0  0  0  0
  139.5258   69.5975  221.7625 H   0  0  0  0  0  0  0  0  0  0  0  0
  139.5688   67.8813  221.2340 H   0  0  0  0  0  0  0  0  0  0  0  0
  138.0149   68.7825  221.2340 H   0  0  0  0  0  0  0  0  0  0  0  0
  139.3997   67.0109  225.3907 H   0  0  0  0  0  0  0  0  0  0  0  0
  141.0551   67.7594  225.7076 H   0  0  0  0  0  0  0  0  0  0  0  0
  138.4300   68.5586  226.9588 H   0  0  0  0  0  0  0  0  0  0  0  0
  139.7840   67.7082  227.7463 H   0  0  0  0  0  0  0  0  0  0  0  0
  140.8878   69.3395  229.2053 H   0  0  0  0  0  0  0  0  0  0  0  0
  141.9411   71.6071  229.3647 H   0  0  0  0  0  0  0  0  0  0  0  0
  141.8213   73.1922  227.4832 H   0  0  0  0  0  0  0  0  0  0  0  0
  140.6569   72.5883  225.3820 H   0  0  0  0  0  0  0  0  0  0  0  0
  138.3355   70.0759  225.1855 H   0  0  0  0  0  0  0  0  0  0  0  0
  141.7576   71.1395  223.5320 H   0  0  0  0  0  0  0  0  0  0  0  0
  141.3070   72.8250  221.6860 H   0  0  0  0  0  0  0  0  0  0  0  0
  136.5693   74.1214  220.7892 H   0  0  0  0  0  0  0  0  0  0  0  0
  135.4185   72.7446  222.4738 H   0  0  0  0  0  0  0  0  0  0  0  0
  136.6784   71.2470  224.0141 H   0  0  0  0  0  0  0  0  0  0  0  0
  1  2  1  0
  2  3  2  0
  2  4  2  0
  2  5  1  0
  5  6  1  0
  6  7  1  0
  7  8  1  0
  8  9  2  0
  9 10  1  0
 10 11  2  0
 11 12  1  0
 12 13  2  0
 13 14  1  0
 14 15  1  0
 15 16  2  0
 16 17  1  0
 17 18  1  0
 18 19  2  0
 19 20  1  0
 19 21  1  0
 21 22  2  0
 22 23  1  0
 23 24  2  0
 14  5  1  0
 24 15  1  0
 13  8  1  0
 24 18  1  0
  1 25  1  0
  1 26  1  0
  1 27  1  0
  6 28  1  0
  6 29  1  0
  7 30  1  0
  7 31  1  0
  9 32  1  0
 10 33  1  0
 11 34  1  0
 12 35  1  0
 14 36  1  1
 16 37  1  0
 17 38  1  0
 21 39  1  0
 22 40  1  0
 23 41  1  0
M  END
>  <smiles>  (29) 
CS(=O)(=O)N1CCc2ccccc2C1c1c[nH]c2c(Cl)cccc12

>  <score_type>  (29) 
oracle

>  <origin>  (29) 
autodockgpu

>  <m_score__min__energy>  (29) 
-7.1100000000000003

>  <m_primary>  (29) 
energy

>  <meeko>  (29) 
{"free_energy": -7.09, "intermolecular_energy": -7.69, "internal_energy": -1.13, "cluster_size": 8, "cluster_id": 1, "rank_in_cluster": 7}

>  <energy>  (29) 
-7.03

>  <cluster_rmsd>  (29) 
0.0

>  <rmsd>  (29) 
271.57

>  <cluster>  (29) 
2

$$$$

     RDKit          3D

 41 44  0  0  1  0  0  0  0  0999 V2000
  142.1310   77.1780  217.7780 C   0  0  0  0  0  0  0  0  0  0  0  0
  140.4770   77.5500  218.2740 S   0  0  0  0  0  0  0  0  0  0  0  0
  139.8600   78.3740  217.1850 O   0  0  0  0  0  0  0  0  0  0  0  0
  139.7410   76.2390  218.4460 O   0  0  0  0  0  0  0  0  0  0  0  0
  140.4290   78.3910  219.7910 N   0  0  0  0  0  0  0  0  0  0  0  0
  140.6390   79.7770  219.5350 C   0  0  0  0  0  0  0  0  0  0  0  0
  141.8820   80.3660  220.1280 C   0  0  0  0  0  0  0  0  0  0  0  0
  141.8800   80.0460  221.5880 C   0  0  0  0  0  0  0  0  0  0  0  0
  142.1310   80.9850  222.5610 C   0  0  0  0  0  0  0  0  0  0  0  0
  142.0950   80.5400  223.8760 C   0  0  0  0  0  0  0  0  0  0  0  0
  141.8210   79.2180  224.1860 C   0  0  0  0  0  0  0  0  0  0  0  0
  141.5720   78.2930  223.2020 C   0  0  0  0  0  0  0  0  0  0  0  0
  141.6010   78.7090  221.8980 C   0  0  0  0  0  0  0  0  0  0  0  0
  141.3520   77.8210  220.7370 C   0  0  1  0  0  0  0  0  0  0  0  0
  140.8970   76.4890  221.2100 C   0  0  0  0  0  0  0  0  0  0  0  0
  139.7270   76.2360  221.9300 C   0  0  0  0  0  0  0  0  0  0  0  0
  139.6240   74.9240  222.1940 N   0  0  0  0  0  0  0  0  0  0  0  0
  140.7120   74.3360  221.6540 C   0  0  0  0  0  0  0  0  0  0  0  0
  141.0200   72.9750  221.6860 C   0  0  0  0  0  0  0  0  0  0  0  0
  139.9740   71.8190  222.4750 Cl  0  0  0  0  0  0  0  0  0  0  0  0
  142.1850   72.5980  221.0670 C   0  0  0  0  0  0  0  0  0  0  0  0
  142.9960   73.5370  220.4490 C   0  0  0  0  0  0  0  0  0  0  0  0
  142.6810   74.8860  220.4220 C   0  0  0  0  0  0  0  0  0  0  0  0
  141.5090   75.2650  221.0450 C   0  0  0  0  0  0  0  0  0  0  0  0
  142.7584   77.0369  218.6704 H   0  0  0  0  0  0  0  0  0  0  0  0
  142.1352   76.2565  217.1774 H   0  0  0  0  0  0  0  0  0  0  0  0
  142.5294   78.0090  217.1774 H   0  0  0  0  0  0  0  0  0  0  0  0
  140.6860   79.9160  218.4448 H   0  0  0  0  0  0  0  0  0  0  0  0
  139.7999   80.3012  220.0158 H   0  0  0  0  0  0  0  0  0  0  0  0
  142.7702   79.9283  219.6490 H   0  0  0  0  0  0  0  0  0  0  0  0
  141.9077   81.4544  219.9705 H   0  0  0  0  0  0  0  0  0  0  0  0
  142.3489   82.0338  222.3107 H   0  0  0  0  0  0  0  0  0  0  0  0
  142.2885   81.2538  224.6903 H   0  0  0  0  0  0  0  0  0  0  0  0
  141.8025   78.9033  225.2399 H   0  0  0  0  0  0  0  0  0  0  0  0
  141.3548   77.2448  223.4550 H   0  0  0  0  0  0  0  0  0  0  0  0
  142.3021   77.7017  220.1956 H   0  0  0  0  0  0  0  0  0  0  0  0
  138.9971   77.0000  222.2358 H   0  0  0  0  0  0  0  0  0  0  0  0
  138.8280   74.5130  222.7210 H   0  0  0  0  0  0  0  0  0  0  0  0
  142.4789   71.5380  221.0611 H   0  0  0  0  0  0  0  0  0  0  0  0
  143.9229   73.1991  219.9626 H   0  0  0  0  0  0  0  0  0  0  0  0
  143.3340   75.6202  219.9275 H   0  0  0  0  0  0  0  0  0  0  0  0
  1  2  1  0
  2  3  2  0
  2  4  2  0
  2  5  1  0
  5  6  1  0
  6  7  1  0
  7  8  1  0
  8  9  2  0
  9 10  1  0
 10 11  2  0
 11 12  1  0
 12 13  2  0
 13 14  1  0
 14 15  1  0
 15 16  2  0
 16 17  1  0
 17 18  1  0
 18 19  2  0
 19 20  1  0
 19 21  1  0
 21 22  2  0
 22 23  1  0
 23 24  2  0
 14  5  1  0
 24 15  1  0
 13  8  1  0
 24 18  1  0
  1 25  1  0
  1 26  1  0
  1 27  1  0
  6 28  1  0
  6 29  1  0
  7 30  1  0
  7 31  1  0
  9 32  1  0
 10 33  1  0
 11 34  1  0
 12 35  1  0
 14 36  1  6
 16 37  1  0
 17 38  1  0
 21 39  1  0
 22 40  1  0
 23 41  1  0
M  END
>  <smiles>  (30) 
CS(=O)(=O)N1CCc2ccccc2C1c1c[nH]c2c(Cl)cccc12

>  <score_type>  (30) 
oracle

>  <origin>  (30) 
autodockgpu

>  <m_score__min__energy>  (30) 
-7.1100000000000003

>  <m_primary>  (30) 
energy

>  <meeko>  (30) 
{"free_energy": -7.02, "intermolecular_energy": -7.62, "internal_energy": -1.16, "cluster_size": 12, "cluster_id": 2, "rank_in_cluster": 7}

>  <energy>  (30) 
-7.02

>  <cluster_rmsd>  (30) 
0.02

>  <rmsd>  (30) 
271.57

>  <cluster>  (30) 
2

$$$$

     RDKit          3D

 41 44  0  0  1  0  0  0  0  0999 V2000
  142.1170   77.1850  217.7830 C   0  0  0  0  0  0  0  0  0  0  0  0
  140.4640   77.5580  218.2820 S   0  0  0  0  0  0  0  0  0  0  0  0
  139.8470   78.3850  217.1950 O   0  0  0  0  0  0  0  0  0  0  0  0
  139.7270   76.2470  218.4520 O   0  0  0  0  0  0  0  0  0  0  0  0
  140.4180   78.3960  219.8000 N   0  0  0  0  0  0  0  0  0  0  0  0
  140.6310   79.7820  219.5470 C   0  0  0  0  0  0  0  0  0  0  0  0
  141.8750   80.3670  220.1410 C   0  0  0  0  0  0  0  0  0  0  0  0
  141.8730   80.0450  221.6000 C   0  0  0  0  0  0  0  0  0  0  0  0
  142.1270   80.9810  222.5750 C   0  0  0  0  0  0  0  0  0  0  0  0
  142.0910   80.5350  223.8890 C   0  0  0  0  0  0  0  0  0  0  0  0
  141.8140   79.2130  224.1970 C   0  0  0  0  0  0  0  0  0  0  0  0
  141.5620   78.2900  223.2110 C   0  0  0  0  0  0  0  0  0  0  0  0
  141.5920   78.7070  221.9080 C   0  0  0  0  0  0  0  0  0  0  0  0
  141.3410   77.8230  220.7450 C   0  0  1  0  0  0  0  0  0  0  0  0
  140.8830   76.4910  221.2150 C   0  0  0  0  0  0  0  0  0  0  0  0
  139.7120   76.2380  221.9340 C   0  0  0  0  0  0  0  0  0  0  0  0
  139.6070   74.9260  222.1960 N   0  0  0  0  0  0  0  0  0  0  0  0
  140.6950   74.3370  221.6560 C   0  0  0  0  0  0  0  0  0  0  0  0
  141.0010   72.9750  221.6880 C   0  0  0  0  0  0  0  0  0  0  0  0
  139.9530   71.8200  222.4740 Cl  0  0  0  0  0  0  0  0  0  0  0  0
  142.1660   72.5980  221.0700 C   0  0  0  0  0  0  0  0  0  0  0  0
  142.9800   73.5370  220.4540 C   0  0  0  0  0  0  0  0  0  0  0  0
  142.6660   74.8860  220.4290 C   0  0  0  0  0  0  0  0  0  0  0  0
  141.4940   75.2660  221.0500 C   0  0  0  0  0  0  0  0  0  0  0  0
  142.7459   77.0431  218.6743 H   0  0  0  0  0  0  0  0  0  0  0  0
  142.1195   76.2637  217.1820 H   0  0  0  0  0  0  0  0  0  0  0  0
  142.5149   78.0159  217.1820 H   0  0  0  0  0  0  0  0  0  0  0  0
  140.6782   79.9232  218.4571 H   0  0  0  0  0  0  0  0  0  0  0  0
  139.7931   80.3069  220.0290 H   0  0  0  0  0  0  0  0  0  0  0  0
  142.7622   79.9281  219.6611 H   0  0  0  0  0  0  0  0  0  0  0  0
  141.9026   81.4556  219.9855 H   0  0  0  0  0  0  0  0  0  0  0  0
  142.3474   82.0296  222.3263 H   0  0  0  0  0  0  0  0  0  0  0  0
  142.2868   81.2473  224.7041 H   0  0  0  0  0  0  0  0  0  0  0  0
  141.7955   78.8965  225.2503 H   0  0  0  0  0  0  0  0  0  0  0  0
  141.3416   77.2421  223.4627 H   0  0  0  0  0  0  0  0  0  0  0  0
  142.2910   77.7045  220.2033 H   0  0  0  0  0  0  0  0  0  0  0  0
  138.9828   77.0024  222.2405 H   0  0  0  0  0  0  0  0  0  0  0  0
  138.8100   74.5150  222.7210 H   0  0  0  0  0  0  0  0  0  0  0  0
  142.4584   71.5376  221.0628 H   0  0  0  0  0  0  0  0  0  0  0  0
  143.9072   73.1987  219.9684 H   0  0  0  0  0  0  0  0  0  0  0  0
  143.3207   75.6202  219.9368 H   0  0  0  0  0  0  0  0  0  0  0  0
  1  2  1  0
  2  3  2  0
  2  4  2  0
  2  5  1  0
  5  6  1  0
  6  7  1  0
  7  8  1  0
  8  9  2  0
  9 10  1  0
 10 11  2  0
 11 12  1  0
 12 13  2  0
 13 14  1  0
 14 15  1  0
 15 16  2  0
 16 17  1  0
 17 18  1  0
 18 19  2  0
 19 20  1  0
 19 21  1  0
 21 22  2  0
 22 23  1  0
 23 24  2  0
 14  5  1  0
 24 15  1  0
 13  8  1  0
 24 18  1  0
  1 25  1  0
  1 26  1  0
  1 27  1  0
  6 28  1  0
  6 29  1  0
  7 30  1  0
  7 31  1  0
  9 32  1  0
 10 33  1  0
 11 34  1  0
 12 35  1  0
 14 36  1  6
 16 37  1  0
 17 38  1  0
 21 39  1  0
 22 40  1  0
 23 41  1  0
M  END
>  <smiles>  (31) 
CS(=O)(=O)N1CCc2ccccc2C1c1c[nH]c2c(Cl)cccc12

>  <score_type>  (31) 
oracle

>  <origin>  (31) 
autodockgpu

>  <m_score__min__energy>  (31) 
-7.1100000000000003

>  <m_primary>  (31) 
energy

>  <meeko>  (31) 
{"free_energy": -7.02, "intermolecular_energy": -7.62, "internal_energy": -1.16, "cluster_size": 12, "cluster_id": 2, "rank_in_cluster": 10}

>  <energy>  (31) 
-7.02

>  <cluster_rmsd>  (31) 
0.01

>  <rmsd>  (31) 
271.58

>  <cluster>  (31) 
2

$$$$

     RDKit          3D

 41 44  0  0  1  0  0  0  0  0999 V2000
  142.1340   77.2050  217.7950 C   0  0  0  0  0  0  0  0  0  0  0  0
  140.4810   77.5790  218.2920 S   0  0  0  0  0  0  0  0  0  0  0  0
  139.8690   78.4130  217.2090 O   0  0  0  0  0  0  0  0  0  0  0  0
  139.7410   76.2680  218.4540 O   0  0  0  0  0  0  0  0  0  0  0  0
  140.4340   78.4080  219.8150 N   0  0  0  0  0  0  0  0  0  0  0  0
  140.6450   79.7960  219.5690 C   0  0  0  0  0  0  0  0  0  0  0  0
  141.8880   80.3800  220.1660 C   0  0  0  0  0  0  0  0  0  0  0  0
  141.8860   80.0500  221.6240 C   0  0  0  0  0  0  0  0  0  0  0  0
  142.1380   80.9820  222.6040 C   0  0  0  0  0  0  0  0  0  0  0  0
  142.1020   80.5270  223.9160 C   0  0  0  0  0  0  0  0  0  0  0  0
  141.8270   79.2030  224.2160 C   0  0  0  0  0  0  0  0  0  0  0  0
  141.5770   78.2860  223.2250 C   0  0  0  0  0  0  0  0  0  0  0  0
  141.6060   78.7100  221.9240 C   0  0  0  0  0  0  0  0  0  0  0  0
  141.3570   77.8320  220.7570 C   0  0  1  0  0  0  0  0  0  0  0  0
  140.9010   76.4960  221.2200 C   0  0  0  0  0  0  0  0  0  0  0  0
  139.7340   76.2400  221.9440 C   0  0  0  0  0  0  0  0  0  0  0  0
  139.6300   74.9250  222.1960 N   0  0  0  0  0  0  0  0  0  0  0  0
  140.7130   74.3390  221.6460 C   0  0  0  0  0  0  0  0  0  0  0  0
  141.0180   72.9780  221.6640 C   0  0  0  0  0  0  0  0  0  0  0  0
  139.9740   71.8170  222.4480 Cl  0  0  0  0  0  0  0  0  0  0  0  0
  142.1800   72.6030  221.0370 C   0  0  0  0  0  0  0  0  0  0  0  0
  142.9900   73.5470  220.4230 C   0  0  0  0  0  0  0  0  0  0  0  0
  142.6770   74.8960  220.4100 C   0  0  0  0  0  0  0  0  0  0  0  0
  141.5090   75.2730  221.0410 C   0  0  0  0  0  0  0  0  0  0  0  0
  142.7618   77.0630  218.6870 H   0  0  0  0  0  0  0  0  0  0  0  0
  142.1367   76.2836  217.1942 H   0  0  0  0  0  0  0  0  0  0  0  0
  142.5331   78.0356  217.1942 H   0  0  0  0  0  0  0  0  0  0  0  0
  140.6921   79.9428  218.4799 H   0  0  0  0  0  0  0  0  0  0  0  0
  139.8063   80.3172  220.0537 H   0  0  0  0  0  0  0  0  0  0  0  0
  142.7760   79.9451  219.6840 H   0  0  0  0  0  0  0  0  0  0  0  0
  141.9141   81.4694  220.0161 H   0  0  0  0  0  0  0  0  0  0  0  0
  142.3565   82.0324  222.3614 H   0  0  0  0  0  0  0  0  0  0  0  0
  142.2964   81.2345  224.7356 H   0  0  0  0  0  0  0  0  0  0  0  0
  141.8085   78.8802  225.2674 H   0  0  0  0  0  0  0  0  0  0  0  0
  141.3587   77.2363  223.4708 H   0  0  0  0  0  0  0  0  0  0  0  0
  142.3075   77.7179  220.2151 H   0  0  0  0  0  0  0  0  0  0  0  0
  139.0076   77.0028  222.2609 H   0  0  0  0  0  0  0  0  0  0  0  0
  138.8350   74.5110  222.7240 H   0  0  0  0  0  0  0  0  0  0  0  0
  142.4720   71.5426  221.0212 H   0  0  0  0  0  0  0  0  0  0  0  0
  143.9139   73.2121  219.9288 H   0  0  0  0  0  0  0  0  0  0  0  0
  143.3295   75.6332  219.9192 H   0  0  0  0  0  0  0  0  0  0  0  0
  1  2  1  0
  2  3  2  0
  2  4  2  0
  2  5  1  0
  5  6  1  0
  6  7  1  0
  7  8  1  0
  8  9  2  0
  9 10  1  0
 10 11  2  0
 11 12  1  0
 12 13  2  0
 13 14  1  0
 14 15  1  0
 15 16  2  0
 16 17  1  0
 17 18  1  0
 18 19  2  0
 19 20  1  0
 19 21  1  0
 21 22  2  0
 22 23  1  0
 23 24  2  0
 14  5  1  0
 24 15  1  0
 13  8  1  0
 24 18  1  0
  1 25  1  0
  1 26  1  0
  1 27  1  0
  6 28  1  0
  6 29  1  0
  7 30  1  0
  7 31  1  0
  9 32  1  0
 10 33  1  0
 11 34  1  0
 12 35  1  0
 14 36  1  6
 16 37  1  0
 17 38  1  0
 21 39  1  0
 22 40  1  0
 23 41  1  0
M  END
>  <smiles>  (32) 
CS(=O)(=O)N1CCc2ccccc2C1c1c[nH]c2c(Cl)cccc12

>  <score_type>  (32) 
oracle

>  <origin>  (32) 
autodockgpu

>  <m_score__min__energy>  (32) 
-7.1100000000000003

>  <m_primary>  (32) 
energy

>  <meeko>  (32) 
{"free_energy": -7.02, "intermolecular_energy": -7.62, "internal_energy": -1.16, "cluster_size": 12, "cluster_id": 2, "rank_in_cluster": 9}

>  <energy>  (32) 
-7.02

>  <cluster_rmsd>  (32) 
0.02

>  <rmsd>  (32) 
271.59

>  <cluster>  (32) 
2

$$$$

     RDKit          3D

 41 44  0  0  1  0  0  0  0  0999 V2000
  142.1450   77.2130  217.7670 C   0  0  0  0  0  0  0  0  0  0  0  0
  140.4890   77.5590  218.2740 S   0  0  0  0  0  0  0  0  0  0  0  0
  139.8530   78.3730  217.1890 O   0  0  0  0  0  0  0  0  0  0  0  0
  139.7740   76.2360  218.4500 O   0  0  0  0  0  0  0  0  0  0  0  0
  140.4370   78.3990  219.7910 N   0  0  0  0  0  0  0  0  0  0  0  0
  140.6500   79.7850  219.5360 C   0  0  0  0  0  0  0  0  0  0  0  0
  141.8920   80.3710  220.1340 C   0  0  0  0  0  0  0  0  0  0  0  0
  141.8850   80.0510  221.5940 C   0  0  0  0  0  0  0  0  0  0  0  0
  142.1340   80.9890  222.5680 C   0  0  0  0  0  0  0  0  0  0  0  0
  142.0930   80.5430  223.8830 C   0  0  0  0  0  0  0  0  0  0  0  0
  141.8150   79.2220  224.1910 C   0  0  0  0  0  0  0  0  0  0  0  0
  141.5680   78.2980  223.2060 C   0  0  0  0  0  0  0  0  0  0  0  0
  141.6020   78.7140  221.9020 C   0  0  0  0  0  0  0  0  0  0  0  0
  141.3560   77.8270  220.7400 C   0  0  1  0  0  0  0  0  0  0  0  0
  140.8970   76.4960  221.2100 C   0  0  0  0  0  0  0  0  0  0  0  0
  139.7270   76.2450  221.9320 C   0  0  0  0  0  0  0  0  0  0  0  0
  139.6200   74.9330  222.1930 N   0  0  0  0  0  0  0  0  0  0  0  0
  140.7050   74.3420  221.6500 C   0  0  0  0  0  0  0  0  0  0  0  0
  141.0080   72.9800  221.6780 C   0  0  0  0  0  0  0  0  0  0  0  0
  139.9600   71.8260  222.4660 Cl  0  0  0  0  0  0  0  0  0  0  0  0
  142.1710   72.6000  221.0570 C   0  0  0  0  0  0  0  0  0  0  0  0
  142.9850   73.5380  220.4390 C   0  0  0  0  0  0  0  0  0  0  0  0
  142.6740   74.8880  220.4160 C   0  0  0  0  0  0  0  0  0  0  0  0
  141.5040   75.2700  221.0420 C   0  0  0  0  0  0  0  0  0  0  0  0
  142.7802   77.0803  218.6552 H   0  0  0  0  0  0  0  0  0  0  0  0
  142.1594   76.2924  217.1650 H   0  0  0  0  0  0  0  0  0  0  0  0
  142.5268   78.0508  217.1650 H   0  0  0  0  0  0  0  0  0  0  0  0
  140.7012   79.9244  218.4461 H   0  0  0  0  0  0  0  0  0  0  0  0
  139.8099   80.3108  220.0133 H   0  0  0  0  0  0  0  0  0  0  0  0
  142.7809   79.9315  219.6579 H   0  0  0  0  0  0  0  0  0  0  0  0
  141.9199   81.4594  219.9772 H   0  0  0  0  0  0  0  0  0  0  0  0
  142.3541   82.0376  222.3190 H   0  0  0  0  0  0  0  0  0  0  0  0
  142.2858   81.2557  224.6984 H   0  0  0  0  0  0  0  0  0  0  0  0
  141.7916   78.9069  225.2446 H   0  0  0  0  0  0  0  0  0  0  0  0
  141.3483   77.2500  223.4581 H   0  0  0  0  0  0  0  0  0  0  0  0
  142.3081   77.7064  220.2025 H   0  0  0  0  0  0  0  0  0  0  0  0
  139.0003   77.0107  222.2411 H   0  0  0  0  0  0  0  0  0  0  0  0
  138.8240   74.5230  222.7200 H   0  0  0  0  0  0  0  0  0  0  0  0
  142.4614   71.5390  221.0491 H   0  0  0  0  0  0  0  0  0  0  0  0
  143.9099   73.1981  219.9500 H   0  0  0  0  0  0  0  0  0  0  0  0
  143.3286   75.6212  219.9221 H   0  0  0  0  0  0  0  0  0  0  0  0
  1  2  1  0
  2  3  2  0
  2  4  2  0
  2  5  1  0
  5  6  1  0
  6  7  1  0
  7  8  1  0
  8  9  2  0
  9 10  1  0
 10 11  2  0
 11 12  1  0
 12 13  2  0
 13 14  1  0
 14 15  1  0
 15 16  2  0
 16 17  1  0
 17 18  1  0
 18 19  2  0
 19 20  1  0
 19 21  1  0
 21 22  2  0
 22 23  1  0
 23 24  2  0
 14  5  1  0
 24 15  1  0
 13  8  1  0
 24 18  1  0
  1 25  1  0
  1 26  1  0
  1 27  1  0
  6 28  1  0
  6 29  1  0
  7 30  1  0
  7 31  1  0
  9 32  1  0
 10 33  1  0
 11 34  1  0
 12 35  1  0
 14 36  1  6
 16 37  1  0
 17 38  1  0
 21 39  1  0
 22 40  1  0
 23 41  1  0
M  END
>  <smiles>  (33) 
CS(=O)(=O)N1CCc2ccccc2C1c1c[nH]c2c(Cl)cccc12

>  <score_type>  (33) 
oracle

>  <origin>  (33) 
autodockgpu

>  <m_score__min__energy>  (33) 
-7.1100000000000003

>  <m_primary>  (33) 
energy

>  <meeko>  (33) 
{"free_energy": -7.03, "intermolecular_energy": -7.62, "internal_energy": -1.16, "cluster_size": 12, "cluster_id": 2, "rank_in_cluster": 1}

>  <energy>  (33) 
-7.02

>  <cluster_rmsd>  (33) 
0.01

>  <rmsd>  (33) 
271.57

>  <cluster>  (33) 
2

$$$$

     RDKit          3D

 41 44  0  0  1  0  0  0  0  0999 V2000
  142.1480   77.1790  217.7920 C   0  0  0  0  0  0  0  0  0  0  0  0
  140.4940   77.5570  218.2830 S   0  0  0  0  0  0  0  0  0  0  0  0
  139.8840   78.3850  217.1930 O   0  0  0  0  0  0  0  0  0  0  0  0
  139.7520   76.2480  218.4500 O   0  0  0  0  0  0  0  0  0  0  0  0
  140.4430   78.3950  219.8000 N   0  0  0  0  0  0  0  0  0  0  0  0
  140.6550   79.7810  219.5470 C   0  0  0  0  0  0  0  0  0  0  0  0
  141.8960   80.3680  220.1440 C   0  0  0  0  0  0  0  0  0  0  0  0
  141.8910   80.0470  221.6030 C   0  0  0  0  0  0  0  0  0  0  0  0
  142.1410   80.9840  222.5780 C   0  0  0  0  0  0  0  0  0  0  0  0
  142.1020   80.5380  223.8930 C   0  0  0  0  0  0  0  0  0  0  0  0
  141.8260   79.2150  224.2000 C   0  0  0  0  0  0  0  0  0  0  0  0
  141.5780   78.2920  223.2140 C   0  0  0  0  0  0  0  0  0  0  0  0
  141.6110   78.7090  221.9100 C   0  0  0  0  0  0  0  0  0  0  0  0
  141.3630   77.8240  220.7480 C   0  0  1  0  0  0  0  0  0  0  0  0
  140.9060   76.4910  221.2170 C   0  0  0  0  0  0  0  0  0  0  0  0
  139.7350   76.2380  221.9350 C   0  0  0  0  0  0  0  0  0  0  0  0
  139.6310   74.9250  222.1960 N   0  0  0  0  0  0  0  0  0  0  0  0
  140.7190   74.3370  221.6580 C   0  0  0  0  0  0  0  0  0  0  0  0
  141.0260   72.9760  221.6890 C   0  0  0  0  0  0  0  0  0  0  0  0
  139.9780   71.8200  222.4740 Cl  0  0  0  0  0  0  0  0  0  0  0  0
  142.1930   72.5990  221.0730 C   0  0  0  0  0  0  0  0  0  0  0  0
  143.0060   73.5390  220.4580 C   0  0  0  0  0  0  0  0  0  0  0  0
  142.6910   74.8880  220.4320 C   0  0  0  0  0  0  0  0  0  0  0  0
  141.5180   75.2670  221.0520 C   0  0  0  0  0  0  0  0  0  0  0  0
  142.7724   77.0363  218.6863 H   0  0  0  0  0  0  0  0  0  0  0  0
  142.1507   76.2571  217.1920 H   0  0  0  0  0  0  0  0  0  0  0  0
  142.5509   78.0082  217.1920 H   0  0  0  0  0  0  0  0  0  0  0  0
  140.7052   79.9217  218.4572 H   0  0  0  0  0  0  0  0  0  0  0  0
  139.8151   80.3050  220.0265 H   0  0  0  0  0  0  0  0  0  0  0  0
  142.7851   79.9302  219.6667 H   0  0  0  0  0  0  0  0  0  0  0  0
  141.9220   81.4566  219.9881 H   0  0  0  0  0  0  0  0  0  0  0  0
  142.3606   82.0328  222.3294 H   0  0  0  0  0  0  0  0  0  0  0  0
  142.2944   81.2506  224.7086 H   0  0  0  0  0  0  0  0  0  0  0  0
  141.8052   78.8984  225.2532 H   0  0  0  0  0  0  0  0  0  0  0  0
  141.3583   77.2439  223.4653 H   0  0  0  0  0  0  0  0  0  0  0  0
  142.3147   77.7061  220.2092 H   0  0  0  0  0  0  0  0  0  0  0  0
  139.0053   77.0020  222.2415 H   0  0  0  0  0  0  0  0  0  0  0  0
  138.8330   74.5140  222.7210 H   0  0  0  0  0  0  0  0  0  0  0  0
  142.4868   71.5390  221.0671 H   0  0  0  0  0  0  0  0  0  0  0  0
  143.9341   73.2017  219.9735 H   0  0  0  0  0  0  0  0  0  0  0  0
  143.3455   75.6226  219.9401 H   0  0  0  0  0  0  0  0  0  0  0  0
  1  2  1  0
  2  3  2  0
  2  4  2  0
  2  5  1  0
  5  6  1  0
  6  7  1  0
  7  8  1  0
  8  9  2  0
  9 10  1  0
 10 11  2  0
 11 12  1  0
 12 13  2  0
 13 14  1  0
 14 15  1  0
 15 16  2  0
 16 17  1  0
 17 18  1  0
 18 19  2  0
 19 20  1  0
 19 21  1  0
 21 22  2  0
 22 23  1  0
 23 24  2  0
 14  5  1  0
 24 15  1  0
 13  8  1  0
 24 18  1  0
  1 25  1  0
  1 26  1  0
  1 27  1  0
  6 28  1  0
  6 29  1  0
  7 30  1  0
  7 31  1  0
  9 32  1  0
 10 33  1  0
 11 34  1  0
 12 35  1  0
 14 36  1  6
 16 37  1  0
 17 38  1  0
 21 39  1  0
 22 40  1  0
 23 41  1  0
M  END
>  <smiles>  (34) 
CS(=O)(=O)N1CCc2ccccc2C1c1c[nH]c2c(Cl)cccc12

>  <score_type>  (34) 
oracle

>  <origin>  (34) 
autodockgpu

>  <m_score__min__energy>  (34) 
-7.1100000000000003

>  <m_primary>  (34) 
energy

>  <meeko>  (34) 
{"free_energy": -7.02, "intermolecular_energy": -7.62, "internal_energy": -1.16, "cluster_size": 12, "cluster_id": 2, "rank_in_cluster": 8}

>  <energy>  (34) 
-7.02

>  <cluster_rmsd>  (34) 
0.02

>  <rmsd>  (34) 
271.58

>  <cluster>  (34) 
2

$$$$

     RDKit          3D

 41 44  0  0  1  0  0  0  0  0999 V2000
  138.9730   68.6850  221.7180 C   0  0  0  0  0  0  0  0  0  0  0  0
  138.6830   68.1550  223.3780 S   0  0  0  0  0  0  0  0  0  0  0  0
  137.2780   68.5410  223.7290 O   0  0  0  0  0  0  0  0  0  0  0  0
  138.8590   66.6520  223.4190 O   0  0  0  0  0  0  0  0  0  0  0  0
  139.8150   68.8550  224.4900 N   0  0  0  0  0  0  0  0  0  0  0  0
  139.9850   67.9480  225.5760 C   0  0  0  0  0  0  0  0  0  0  0  0
  139.5400   68.4490  226.9150 C   0  0  0  0  0  0  0  0  0  0  0  0
  140.2130   69.7620  227.1530 C   0  0  0  0  0  0  0  0  0  0  0  0
  140.8560   70.0730  228.3280 C   0  0  0  0  0  0  0  0  0  0  0  0
  141.4350   71.3330  228.4040 C   0  0  0  0  0  0  0  0  0  0  0  0
  141.3650   72.2270  227.3480 C   0  0  0  0  0  0  0  0  0  0  0  0
  140.7190   71.9000  226.1810 C   0  0  0  0  0  0  0  0  0  0  0  0
  140.1400   70.6630  226.0830 C   0  0  0  0  0  0  0  0  0  0  0  0
  139.4120   70.1780  224.8860 C   0  0  1  0  0  0  0  0  0  0  0  0
  139.5660   71.1510  223.7750 C   0  0  0  0  0  0  0  0  0  0  0  0
  140.7760   71.5500  223.2010 C   0  0  0  0  0  0  0  0  0  0  0  0
  140.5490   72.4390  222.2220 N   0  0  0  0  0  0  0  0  0  0  0  0
  139.2130   72.6160  222.1630 C   0  0  0  0  0  0  0  0  0  0  0  0
  138.5270   73.4580  221.2860 C   0  0  0  0  0  0  0  0  0  0  0  0
  139.3690   74.4300  220.1040 Cl  0  0  0  0  0  0  0  0  0  0  0  0
  137.1600   73.4790  221.4040 C   0  0  0  0  0  0  0  0  0  0  0  0
  136.5180   72.6970  222.3520 C   0  0  0  0  0  0  0  0  0  0  0  0
  137.2090   71.8640  223.2180 C   0  0  0  0  0  0  0  0  0  0  0  0
  138.5840   71.8430  223.0980 C   0  0  0  0  0  0  0  0  0  0  0  0
  139.5010   69.6499  221.7281 H   0  0  0  0  0  0  0  0  0  0  0  0
  139.5872   67.9364  221.1961 H   0  0  0  0  0  0  0  0  0  0  0  0
  138.0114   68.7987  221.1961 H   0  0  0  0  0  0  0  0  0  0  0  0
  139.4122   67.0369  225.3484 H   0  0  0  0  0  0  0  0  0  0  0  0
  141.0691   67.7829  225.6624 H   0  0  0  0  0  0  0  0  0  0  0  0
  138.4479   68.5806  226.9222 H   0  0  0  0  0  0  0  0  0  0  0  0
  139.8057   67.7302  227.7041 H   0  0  0  0  0  0  0  0  0  0  0  0
  140.9090   69.3606  229.1645 H   0  0  0  0  0  0  0  0  0  0  0  0
  141.9613   71.6280  229.3238 H   0  0  0  0  0  0  0  0  0  0  0  0
  141.8353   73.2165  227.4460 H   0  0  0  0  0  0  0  0  0  0  0  0
  140.6680   72.6140  225.3458 H   0  0  0  0  0  0  0  0  0  0  0  0
  138.3467   70.1016  225.1492 H   0  0  0  0  0  0  0  0  0  0  0  0
  141.7688   71.1884  223.5069 H   0  0  0  0  0  0  0  0  0  0  0  0
  141.3110   72.8690  221.6600 H   0  0  0  0  0  0  0  0  0  0  0  0
  136.5667   74.1237  220.7388 H   0  0  0  0  0  0  0  0  0  0  0  0
  135.4209   72.7392  222.4193 H   0  0  0  0  0  0  0  0  0  0  0  0
  136.6865   71.2489  223.9654 H   0  0  0  0  0  0  0  0  0  0  0  0
  1  2  1  0
  2  3  2  0
  2  4  2  0
  2  5  1  0
  5  6  1  0
  6  7  1  0
  7  8  1  0
  8  9  2  0
  9 10  1  0
 10 11  2  0
 11 12  1  0
 12 13  2  0
 13 14  1  0
 14 15  1  0
 15 16  2  0
 16 17  1  0
 17 18  1  0
 18 19  2  0
 19 20  1  0
 19 21  1  0
 21 22  2  0
 22 23  1  0
 23 24  2  0
 14  5  1  0
 24 15  1  0
 13  8  1  0
 24 18  1  0
  1 25  1  0
  1 26  1  0
  1 27  1  0
  6 28  1  0
  6 29  1  0
  7 30  1  0
  7 31  1  0
  9 32  1  0
 10 33  1  0
 11 34  1  0
 12 35  1  0
 14 36  1  1
 16 37  1  0
 17 38  1  0
 21 39  1  0
 22 40  1  0
 23 41  1  0
M  END
>  <smiles>  (35) 
CS(=O)(=O)N1CCc2ccccc2C1c1c[nH]c2c(Cl)cccc12

>  <score_type>  (35) 
oracle

>  <origin>  (35) 
autodockgpu

>  <m_score__min__energy>  (35) 
-7.1100000000000003

>  <m_primary>  (35) 
energy

>  <meeko>  (35) 
{"free_energy": -7.11, "intermolecular_energy": -7.71, "internal_energy": -1.12, "cluster_size": 8, "cluster_id": 1, "rank_in_cluster": 2}

>  <energy>  (35) 
-7.02

>  <cluster_rmsd>  (35) 
0.01

>  <rmsd>  (35) 
271.57

>  <cluster>  (35) 
2

$$$$

     RDKit          3D

 41 44  0  0  1  0  0  0  0  0999 V2000
  138.9210   68.6430  221.7530 C   0  0  0  0  0  0  0  0  0  0  0  0
  138.6360   68.1280  223.4180 S   0  0  0  0  0  0  0  0  0  0  0  0
  137.2360   68.5290  223.7740 O   0  0  0  0  0  0  0  0  0  0  0  0
  138.8000   66.6240  223.4700 O   0  0  0  0  0  0  0  0  0  0  0  0
  139.7800   68.8270  224.5180 N   0  0  0  0  0  0  0  0  0  0  0  0
  139.9650   67.9190  225.6000 C   0  0  0  0  0  0  0  0  0  0  0  0
  139.5350   68.4150  226.9460 C   0  0  0  0  0  0  0  0  0  0  0  0
  140.2080   69.7290  227.1790 C   0  0  0  0  0  0  0  0  0  0  0  0
  140.8650   70.0380  228.3470 C   0  0  0  0  0  0  0  0  0  0  0  0
  141.4420   71.2990  228.4190 C   0  0  0  0  0  0  0  0  0  0  0  0
  141.3570   72.1960  227.3660 C   0  0  0  0  0  0  0  0  0  0  0  0
  140.6980   71.8710  226.2060 C   0  0  0  0  0  0  0  0  0  0  0  0
  140.1210   70.6330  226.1110 C   0  0  0  0  0  0  0  0  0  0  0  0
  139.3790   70.1490  224.9230 C   0  0  1  0  0  0  0  0  0  0  0  0
  139.5170   71.1250  223.8120 C   0  0  0  0  0  0  0  0  0  0  0  0
  140.7190   71.5230  223.2210 C   0  0  0  0  0  0  0  0  0  0  0  0
  140.4790   72.4160  222.2480 N   0  0  0  0  0  0  0  0  0  0  0  0
  139.1420   72.5960  222.2100 C   0  0  0  0  0  0  0  0  0  0  0  0
  138.4440   73.4410  221.3460 C   0  0  0  0  0  0  0  0  0  0  0  0
  139.2690   74.4150  220.1540 Cl  0  0  0  0  0  0  0  0  0  0  0  0
  137.0790   73.4650  221.4860 C   0  0  0  0  0  0  0  0  0  0  0  0
  136.4500   72.6800  222.4420 C   0  0  0  0  0  0  0  0  0  0  0  0
  137.1530   71.8440  223.2940 C   0  0  0  0  0  0  0  0  0  0  0  0
  138.5260   71.8210  223.1530 C   0  0  0  0  0  0  0  0  0  0  0  0
  139.4536   69.6054  221.7530 H   0  0  0  0  0  0  0  0  0  0  0  0
  139.5293   67.8873  221.2345 H   0  0  0  0  0  0  0  0  0  0  0  0
  137.9576   68.7571  221.2345 H   0  0  0  0  0  0  0  0  0  0  0  0
  139.3919   67.0069  225.3773 H   0  0  0  0  0  0  0  0  0  0  0  0
  141.0506   67.7577  225.6732 H   0  0  0  0  0  0  0  0  0  0  0  0
  138.4428   68.5439  226.9670 H   0  0  0  0  0  0  0  0  0  0  0  0
  139.8117   67.6946  227.7299 H   0  0  0  0  0  0  0  0  0  0  0  0
  140.9301   69.3234  229.1808 H   0  0  0  0  0  0  0  0  0  0  0  0
  141.9790   71.5928  229.3330 H   0  0  0  0  0  0  0  0  0  0  0  0
  141.8260   73.1864  227.4612 H   0  0  0  0  0  0  0  0  0  0  0  0
  140.6352   72.5875  225.3737 H   0  0  0  0  0  0  0  0  0  0  0  0
  138.3175   70.0694  225.2002 H   0  0  0  0  0  0  0  0  0  0  0  0
  141.7155   71.1581  223.5106 H   0  0  0  0  0  0  0  0  0  0  0  0
  141.2320   72.8460  221.6750 H   0  0  0  0  0  0  0  0  0  0  0  0
  136.4767   74.1138  220.8331 H   0  0  0  0  0  0  0  0  0  0  0  0
  135.3541   72.7231  222.5263 H   0  0  0  0  0  0  0  0  0  0  0  0
  136.6411   71.2274  224.0476 H   0  0  0  0  0  0  0  0  0  0  0  0
  1  2  1  0
  2  3  2  0
  2  4  2  0
  2  5  1  0
  5  6  1  0
  6  7  1  0
  7  8  1  0
  8  9  2  0
  9 10  1  0
 10 11  2  0
 11 12  1  0
 12 13  2  0
 13 14  1  0
 14 15  1  0
 15 16  2  0
 16 17  1  0
 17 18  1  0
 18 19  2  0
 19 20  1  0
 19 21  1  0
 21 22  2  0
 22 23  1  0
 23 24  2  0
 14  5  1  0
 24 15  1  0
 13  8  1  0
 24 18  1  0
  1 25  1  0
  1 26  1  0
  1 27  1  0
  6 28  1  0
  6 29  1  0
  7 30  1  0
  7 31  1  0
  9 32  1  0
 10 33  1  0
 11 34  1  0
 12 35  1  0
 14 36  1  1
 16 37  1  0
 17 38  1  0
 21 39  1  0
 22 40  1  0
 23 41  1  0
M  END
>  <smiles>  (36) 
CS(=O)(=O)N1CCc2ccccc2C1c1c[nH]c2c(Cl)cccc12

>  <score_type>  (36) 
oracle

>  <origin>  (36) 
autodockgpu

>  <m_score__min__energy>  (36) 
-7.1100000000000003

>  <m_primary>  (36) 
energy

>  <meeko>  (36) 
{"free_energy": -7.1, "intermolecular_energy": -7.69, "internal_energy": -1.14, "cluster_size": 8, "cluster_id": 1, "rank_in_cluster": 5}

>  <energy>  (36) 
-7.02

>  <cluster_rmsd>  (36) 
0.02

>  <rmsd>  (36) 
271.59

>  <cluster>  (36) 
2

$$$$

     RDKit          3D

 41 44  0  0  1  0  0  0  0  0999 V2000
  142.1420   77.2060  217.7880 C   0  0  0  0  0  0  0  0  0  0  0  0
  140.4870   77.5670  218.2900 S   0  0  0  0  0  0  0  0  0  0  0  0
  139.8630   78.3920  217.2050 O   0  0  0  0  0  0  0  0  0  0  0  0
  139.7590   76.2510  218.4590 O   0  0  0  0  0  0  0  0  0  0  0  0
  140.4390   78.4020  219.8090 N   0  0  0  0  0  0  0  0  0  0  0  0
  140.6500   79.7890  219.5590 C   0  0  0  0  0  0  0  0  0  0  0  0
  141.8920   80.3740  220.1560 C   0  0  0  0  0  0  0  0  0  0  0  0
  141.8890   80.0490  221.6150 C   0  0  0  0  0  0  0  0  0  0  0  0
  142.1400   80.9840  222.5910 C   0  0  0  0  0  0  0  0  0  0  0  0
  142.1030   80.5340  223.9050 C   0  0  0  0  0  0  0  0  0  0  0  0
  141.8280   79.2110  224.2090 C   0  0  0  0  0  0  0  0  0  0  0  0
  141.5780   78.2900  223.2210 C   0  0  0  0  0  0  0  0  0  0  0  0
  141.6090   78.7110  221.9190 C   0  0  0  0  0  0  0  0  0  0  0  0
  141.3600   77.8280  220.7540 C   0  0  1  0  0  0  0  0  0  0  0  0
  140.9040   76.4940  221.2210 C   0  0  0  0  0  0  0  0  0  0  0  0
  139.7320   76.2390  221.9370 C   0  0  0  0  0  0  0  0  0  0  0  0
  139.6290   74.9260  222.1960 N   0  0  0  0  0  0  0  0  0  0  0  0
  140.7180   74.3400  221.6580 C   0  0  0  0  0  0  0  0  0  0  0  0
  141.0260   72.9790  221.6870 C   0  0  0  0  0  0  0  0  0  0  0  0
  139.9780   71.8210  222.4690 Cl  0  0  0  0  0  0  0  0  0  0  0  0
  142.1940   72.6040  221.0720 C   0  0  0  0  0  0  0  0  0  0  0  0
  143.0070   73.5450  220.4590 C   0  0  0  0  0  0  0  0  0  0  0  0
  142.6910   74.8940  220.4350 C   0  0  0  0  0  0  0  0  0  0  0  0
  141.5170   75.2710  221.0550 C   0  0  0  0  0  0  0  0  0  0  0  0
  142.7734   77.0683  218.6782 H   0  0  0  0  0  0  0  0  0  0  0  0
  142.1501   76.2850  217.1866 H   0  0  0  0  0  0  0  0  0  0  0  0
  142.5329   78.0400  217.1866 H   0  0  0  0  0  0  0  0  0  0  0  0
  140.6985   79.9326  218.4695 H   0  0  0  0  0  0  0  0  0  0  0  0
  139.8105   80.3119  220.0405 H   0  0  0  0  0  0  0  0  0  0  0  0
  142.7803   79.9372  219.6763 H   0  0  0  0  0  0  0  0  0  0  0  0
  141.9181   81.4630  220.0030 H   0  0  0  0  0  0  0  0  0  0  0  0
  142.3587   82.0335  222.3446 H   0  0  0  0  0  0  0  0  0  0  0  0
  142.2965   81.2444  224.7222 H   0  0  0  0  0  0  0  0  0  0  0  0
  141.8095   78.8918  225.2615 H   0  0  0  0  0  0  0  0  0  0  0  0
  141.3586   77.2412  223.4698 H   0  0  0  0  0  0  0  0  0  0  0  0
  142.3106   77.7108  220.2130 H   0  0  0  0  0  0  0  0  0  0  0  0
  139.0011   77.0019  222.2434 H   0  0  0  0  0  0  0  0  0  0  0  0
  138.8310   74.5130  222.7200 H   0  0  0  0  0  0  0  0  0  0  0  0
  142.4887   71.5442  221.0653 H   0  0  0  0  0  0  0  0  0  0  0  0
  143.9357   73.2089  219.9746 H   0  0  0  0  0  0  0  0  0  0  0  0
  143.3452   75.6299  219.9447 H   0  0  0  0  0  0  0  0  0  0  0  0
  1  2  1  0
  2  3  2  0
  2  4  2  0
  2  5  1  0
  5  6  1  0
  6  7  1  0
  7  8  1  0
  8  9  2  0
  9 10  1  0
 10 11  2  0
 11 12  1  0
 12 13  2  0
 13 14  1  0
 14 15  1  0
 15 16  2  0
 16 17  1  0
 17 18  1  0
 18 19  2  0
 19 20  1  0
 19 21  1  0
 21 22  2  0
 22 23  1  0
 23 24  2  0
 14  5  1  0
 24 15  1  0
 13  8  1  0
 24 18  1  0
  1 25  1  0
  1 26  1  0
  1 27  1  0
  6 28  1  0
  6 29  1  0
  7 30  1  0
  7 31  1  0
  9 32  1  0
 10 33  1  0
 11 34  1  0
 12 35  1  0
 14 36  1  6
 16 37  1  0
 17 38  1  0
 21 39  1  0
 22 40  1  0
 23 41  1  0
M  END
>  <smiles>  (37) 
CS(=O)(=O)N1CCc2ccccc2C1c1c[nH]c2c(Cl)cccc12

>  <score_type>  (37) 
oracle

>  <origin>  (37) 
autodockgpu

>  <m_score__min__energy>  (37) 
-7.1100000000000003

>  <m_primary>  (37) 
energy

>  <meeko>  (37) 
{"free_energy": -7.02, "intermolecular_energy": -7.62, "internal_energy": -1.16, "cluster_size": 12, "cluster_id": 2, "rank_in_cluster": 4}

>  <energy>  (37) 
-7.02

>  <cluster_rmsd>  (37) 
0.03

>  <rmsd>  (37) 
271.59

>  <cluster>  (37) 
2

$$$$

     RDKit          3D

 41 44  0  0  1  0  0  0  0  0999 V2000
  138.9770   68.6430  221.7650 C   0  0  0  0  0  0  0  0  0  0  0  0
  138.6690   68.1410  223.4300 S   0  0  0  0  0  0  0  0  0  0  0  0
  137.2670   68.5510  223.7660 O   0  0  0  0  0  0  0  0  0  0  0  0
  138.8250   66.6370  223.4940 O   0  0  0  0  0  0  0  0  0  0  0  0
  139.8020   68.8430  224.5390 N   0  0  0  0  0  0  0  0  0  0  0  0
  139.9590   67.9470  225.6370 C   0  0  0  0  0  0  0  0  0  0  0  0
  139.5120   68.4680  226.9680 C   0  0  0  0  0  0  0  0  0  0  0  0
  140.1970   69.7770  227.1940 C   0  0  0  0  0  0  0  0  0  0  0  0
  140.8370   70.0950  228.3680 C   0  0  0  0  0  0  0  0  0  0  0  0
  141.4290   71.3490  228.4320 C   0  0  0  0  0  0  0  0  0  0  0  0
  141.3740   72.2320  227.3660 C   0  0  0  0  0  0  0  0  0  0  0  0
  140.7300   71.8980  226.1990 C   0  0  0  0  0  0  0  0  0  0  0  0
  140.1390   70.6660  226.1130 C   0  0  0  0  0  0  0  0  0  0  0  0
  139.4120   70.1750  224.9180 C   0  0  1  0  0  0  0  0  0  0  0  0
  139.5800   71.1330  223.7960 C   0  0  0  0  0  0  0  0  0  0  0  0
  140.7960   71.5040  223.2170 C   0  0  0  0  0  0  0  0  0  0  0  0
  140.5840   72.3870  222.2290 N   0  0  0  0  0  0  0  0  0  0  0  0
  139.2510   72.5870  222.1690 C   0  0  0  0  0  0  0  0  0  0  0  0
  138.5780   73.4310  221.2840 C   0  0  0  0  0  0  0  0  0  0  0  0
  139.4360   74.3760  220.0910 Cl  0  0  0  0  0  0  0  0  0  0  0  0
  137.2120   73.4780  221.4050 C   0  0  0  0  0  0  0  0  0  0  0  0
  136.5580   72.7170  222.3620 C   0  0  0  0  0  0  0  0  0  0  0  0
  137.2350   71.8820  223.2350 C   0  0  0  0  0  0  0  0  0  0  0  0
  138.6100   71.8350  223.1140 C   0  0  0  0  0  0  0  0  0  0  0  0
  139.5523   69.5806  221.7652 H   0  0  0  0  0  0  0  0  0  0  0  0
  139.5508   67.8608  221.2464 H   0  0  0  0  0  0  0  0  0  0  0  0
  138.0198   68.8002  221.2464 H   0  0  0  0  0  0  0  0  0  0  0  0
  139.3793   67.0383  225.4175 H   0  0  0  0  0  0  0  0  0  0  0  0
  141.0412   67.7733  225.7305 H   0  0  0  0  0  0  0  0  0  0  0  0
  138.4213   68.6105  226.9680 H   0  0  0  0  0  0  0  0  0  0  0  0
  139.7663   67.7559  227.7669 H   0  0  0  0  0  0  0  0  0  0  0  0
  140.8780   69.3922  229.2132 H   0  0  0  0  0  0  0  0  0  0  0  0
  141.9542   71.6486  229.3509 H   0  0  0  0  0  0  0  0  0  0  0  0
  141.8542   73.2176  227.4553 H   0  0  0  0  0  0  0  0  0  0  0  0
  140.6903   72.6026  225.3552 H   0  0  0  0  0  0  0  0  0  0  0  0
  138.3449   70.1133  225.1778 H   0  0  0  0  0  0  0  0  0  0  0  0
  141.7824   71.1276  223.5256 H   0  0  0  0  0  0  0  0  0  0  0  0
  141.3520   72.7970  221.6610 H   0  0  0  0  0  0  0  0  0  0  0  0
  136.6290   74.1269  220.7350 H   0  0  0  0  0  0  0  0  0  0  0  0
  135.4619   72.7788  222.4302 H   0  0  0  0  0  0  0  0  0  0  0  0
  136.7026   71.2842  223.9894 H   0  0  0  0  0  0  0  0  0  0  0  0
  1  2  1  0
  2  3  2  0
  2  4  2  0
  2  5  1  0
  5  6  1  0
  6  7  1  0
  7  8  1  0
  8  9  2  0
  9 10  1  0
 10 11  2  0
 11 12  1  0
 12 13  2  0
 13 14  1  0
 14 15  1  0
 15 16  2  0
 16 17  1  0
 17 18  1  0
 18 19  2  0
 19 20  1  0
 19 21  1  0
 21 22  2  0
 22 23  1  0
 23 24  2  0
 14  5  1  0
 24 15  1  0
 13  8  1  0
 24 18  1  0
  1 25  1  0
  1 26  1  0
  1 27  1  0
  6 28  1  0
  6 29  1  0
  7 30  1  0
  7 31  1  0
  9 32  1  0
 10 33  1  0
 11 34  1  0
 12 35  1  0
 14 36  1  1
 16 37  1  0
 17 38  1  0
 21 39  1  0
 22 40  1  0
 23 41  1  0
M  END
>  <smiles>  (38) 
CS(=O)(=O)N1CCc2ccccc2C1c1c[nH]c2c(Cl)cccc12

>  <score_type>  (38) 
oracle

>  <origin>  (38) 
autodockgpu

>  <m_score__min__energy>  (38) 
-7.1100000000000003

>  <m_primary>  (38) 
energy

>  <meeko>  (38) 
{"free_energy": -7.1, "intermolecular_energy": -7.7, "internal_energy": -1.13, "cluster_size": 8, "cluster_id": 1, "rank_in_cluster": 3}

>  <energy>  (38) 
-7.02

>  <cluster_rmsd>  (38) 
0.02

>  <rmsd>  (38) 
271.57

>  <cluster>  (38) 
2

$$$$

     RDKit          3D

 41 44  0  0  1  0  0  0  0  0999 V2000
  138.9800   68.6620  221.7750 C   0  0  0  0  0  0  0  0  0  0  0  0
  138.6920   68.1470  223.4390 S   0  0  0  0  0  0  0  0  0  0  0  0
  137.2870   68.5350  223.7880 O   0  0  0  0  0  0  0  0  0  0  0  0
  138.8700   66.6450  223.4950 O   0  0  0  0  0  0  0  0  0  0  0  0
  139.8240   68.8600  224.5430 N   0  0  0  0  0  0  0  0  0  0  0  0
  140.0120   67.9550  225.6290 C   0  0  0  0  0  0  0  0  0  0  0  0
  139.5700   68.4510  226.9710 C   0  0  0  0  0  0  0  0  0  0  0  0
  140.2300   69.7720  227.2040 C   0  0  0  0  0  0  0  0  0  0  0  0
  140.8780   70.0900  228.3740 C   0  0  0  0  0  0  0  0  0  0  0  0
  141.4440   71.3560  228.4460 C   0  0  0  0  0  0  0  0  0  0  0  0
  141.3570   72.2490  227.3910 C   0  0  0  0  0  0  0  0  0  0  0  0
  140.7060   71.9150  226.2280 C   0  0  0  0  0  0  0  0  0  0  0  0
  140.1410   70.6720  226.1340 C   0  0  0  0  0  0  0  0  0  0  0  0
  139.4100   70.1790  224.9430 C   0  0  1  0  0  0  0  0  0  0  0  0
  139.5450   71.1530  223.8300 C   0  0  0  0  0  0  0  0  0  0  0  0
  140.7450   71.5560  223.2410 C   0  0  0  0  0  0  0  0  0  0  0  0
  140.5030   72.4460  222.2650 N   0  0  0  0  0  0  0  0  0  0  0  0
  139.1650   72.6180  222.2240 C   0  0  0  0  0  0  0  0  0  0  0  0
  138.4640   73.4580  221.3570 C   0  0  0  0  0  0  0  0  0  0  0  0
  139.2870   74.4340  220.1650 Cl  0  0  0  0  0  0  0  0  0  0  0  0
  137.0990   73.4740  221.4940 C   0  0  0  0  0  0  0  0  0  0  0  0
  136.4720   72.6880  222.4490 C   0  0  0  0  0  0  0  0  0  0  0  0
  137.1780   71.8580  223.3050 C   0  0  0  0  0  0  0  0  0  0  0  0
  138.5510   71.8420  223.1670 C   0  0  0  0  0  0  0  0  0  0  0  0
  139.5169   69.6221  221.7760 H   0  0  0  0  0  0  0  0  0  0  0  0
  139.5852   67.9040  221.2561 H   0  0  0  0  0  0  0  0  0  0  0  0
  138.0174   68.7808  221.2561 H   0  0  0  0  0  0  0  0  0  0  0  0
  139.4486   67.0371  225.4055 H   0  0  0  0  0  0  0  0  0  0  0  0
  141.0986   67.8030  225.7083 H   0  0  0  0  0  0  0  0  0  0  0  0
  138.4766   68.5702  226.9855 H   0  0  0  0  0  0  0  0  0  0  0  0
  139.8488   67.7354  227.7585 H   0  0  0  0  0  0  0  0  0  0  0  0
  140.9447   69.3783  229.2100 H   0  0  0  0  0  0  0  0  0  0  0  0
  141.9736   71.6565  229.3621 H   0  0  0  0  0  0  0  0  0  0  0  0
  141.8173   73.2435  227.4858 H   0  0  0  0  0  0  0  0  0  0  0  0
  140.6406   72.6287  225.3935 H   0  0  0  0  0  0  0  0  0  0  0  0
  138.3479   70.0913  225.2154 H   0  0  0  0  0  0  0  0  0  0  0  0
  141.7427   71.1970  223.5336 H   0  0  0  0  0  0  0  0  0  0  0  0
  141.2560   72.8790  221.6940 H   0  0  0  0  0  0  0  0  0  0  0  0
  136.4946   74.1181  220.8384 H   0  0  0  0  0  0  0  0  0  0  0  0
  135.3756   72.7247  222.5299 H   0  0  0  0  0  0  0  0  0  0  0  0
  136.6679   71.2408  224.0592 H   0  0  0  0  0  0  0  0  0  0  0  0
  1  2  1  0
  2  3  2  0
  2  4  2  0
  2  5  1  0
  5  6  1  0
  6  7  1  0
  7  8  1  0
  8  9  2  0
  9 10  1  0
 10 11  2  0
 11 12  1  0
 12 13  2  0
 13 14  1  0
 14 15  1  0
 15 16  2  0
 16 17  1  0
 17 18  1  0
 18 19  2  0
 19 20  1  0
 19 21  1  0
 21 22  2  0
 22 23  1  0
 23 24  2  0
 14  5  1  0
 24 15  1  0
 13  8  1  0
 24 18  1  0
  1 25  1  0
  1 26  1  0
  1 27  1  0
  6 28  1  0
  6 29  1  0
  7 30  1  0
  7 31  1  0
  9 32  1  0
 10 33  1  0
 11 34  1  0
 12 35  1  0
 14 36  1  1
 16 37  1  0
 17 38  1  0
 21 39  1  0
 22 40  1  0
 23 41  1  0
M  END
>  <smiles>  (39) 
CS(=O)(=O)N1CCc2ccccc2C1c1c[nH]c2c(Cl)cccc12

>  <score_type>  (39) 
oracle

>  <origin>  (39) 
autodockgpu

>  <m_score__min__energy>  (39) 
-7.1100000000000003

>  <m_primary>  (39) 
energy

>  <meeko>  (39) 
{"free_energy": -7.1, "intermolecular_energy": -7.7, "internal_energy": -1.14, "cluster_size": 8, "cluster_id": 1, "rank_in_cluster": 4}

>  <energy>  (39) 
-7.02

>  <cluster_rmsd>  (39) 
0.01

>  <rmsd>  (39) 
271.58

>  <cluster>  (39) 
2

$$$$

     RDKit          3D

 41 44  0  0  1  0  0  0  0  0999 V2000
  138.9650   68.7130  221.7130 C   0  0  0  0  0  0  0  0  0  0  0  0
  138.6830   68.1880  223.3750 S   0  0  0  0  0  0  0  0  0  0  0  0
  137.2790   68.5720  223.7300 O   0  0  0  0  0  0  0  0  0  0  0  0
  138.8640   66.6860  223.4220 O   0  0  0  0  0  0  0  0  0  0  0  0
  139.8170   68.8970  224.4800 N   0  0  0  0  0  0  0  0  0  0  0  0
  140.0090   67.9880  225.5610 C   0  0  0  0  0  0  0  0  0  0  0  0
  139.5700   68.4770  226.9060 C   0  0  0  0  0  0  0  0  0  0  0  0
  140.2290   69.7970  227.1440 C   0  0  0  0  0  0  0  0  0  0  0  0
  140.8800   70.1100  228.3140 C   0  0  0  0  0  0  0  0  0  0  0  0
  141.4450   71.3760  228.3900 C   0  0  0  0  0  0  0  0  0  0  0  0
  141.3540   72.2740  227.3390 C   0  0  0  0  0  0  0  0  0  0  0  0
  140.7010   71.9450  226.1770 C   0  0  0  0  0  0  0  0  0  0  0  0
  140.1370   70.7020  226.0780 C   0  0  0  0  0  0  0  0  0  0  0  0
  139.4030   70.2140  224.8860 C   0  0  1  0  0  0  0  0  0  0  0  0
  139.5340   71.1930  223.7780 C   0  0  0  0  0  0  0  0  0  0  0  0
  140.7340   71.6020  223.1900 C   0  0  0  0  0  0  0  0  0  0  0  0
  140.4880   72.4960  222.2180 N   0  0  0  0  0  0  0  0  0  0  0  0
  139.1500   72.6640  222.1780 C   0  0  0  0  0  0  0  0  0  0  0  0
  138.4460   73.5050  221.3150 C   0  0  0  0  0  0  0  0  0  0  0  0
  139.2650   74.4890  220.1270 Cl  0  0  0  0  0  0  0  0  0  0  0  0
  137.0810   73.5170  221.4530 C   0  0  0  0  0  0  0  0  0  0  0  0
  136.4570   72.7250  222.4060 C   0  0  0  0  0  0  0  0  0  0  0  0
  137.1650   71.8930  223.2570 C   0  0  0  0  0  0  0  0  0  0  0  0
  138.5390   71.8820  223.1190 C   0  0  0  0  0  0  0  0  0  0  0  0
  139.4855   69.6820  221.7179 H   0  0  0  0  0  0  0  0  0  0  0  0
  139.5838   67.9670  221.1928 H   0  0  0  0  0  0  0  0  0  0  0  0
  138.0014   68.8170  221.1928 H   0  0  0  0  0  0  0  0  0  0  0  0
  139.4463   67.0702  225.3349 H   0  0  0  0  0  0  0  0  0  0  0  0
  141.0960   67.8375  225.6368 H   0  0  0  0  0  0  0  0  0  0  0  0
  138.4765   68.5951  226.9237 H   0  0  0  0  0  0  0  0  0  0  0  0
  139.8515   67.7578  227.6893 H   0  0  0  0  0  0  0  0  0  0  0  0
  140.9496   69.3945  229.1466 H   0  0  0  0  0  0  0  0  0  0  0  0
  141.9772   71.6728  229.3058 H   0  0  0  0  0  0  0  0  0  0  0  0
  141.8133   73.2687  227.4373 H   0  0  0  0  0  0  0  0  0  0  0  0
  140.6328   72.6627  225.3462 H   0  0  0  0  0  0  0  0  0  0  0  0
  138.3414   70.1244  225.1597 H   0  0  0  0  0  0  0  0  0  0  0  0
  141.7329   71.2445  223.4804 H   0  0  0  0  0  0  0  0  0  0  0  0
  141.2390   72.9330  221.6480 H   0  0  0  0  0  0  0  0  0  0  0  0
  136.4743   74.1621  220.8005 H   0  0  0  0  0  0  0  0  0  0  0  0
  135.3606   72.7592  222.4886 H   0  0  0  0  0  0  0  0  0  0  0  0
  136.6567   71.2700  224.0077 H   0  0  0  0  0  0  0  0  0  0  0  0
  1  2  1  0
  2  3  2  0
  2  4  2  0
  2  5  1  0
  5  6  1  0
  6  7  1  0
  7  8  1  0
  8  9  2  0
  9 10  1  0
 10 11  2  0
 11 12  1  0
 12 13  2  0
 13 14  1  0
 14 15  1  0
 15 16  2  0
 16 17  1  0
 17 18  1  0
 18 19  2  0
 19 20  1  0
 19 21  1  0
 21 22  2  0
 22 23  1  0
 23 24  2  0
 14  5  1  0
 24 15  1  0
 13  8  1  0
 24 18  1  0
  1 25  1  0
  1 26  1  0
  1 27  1  0
  6 28  1  0
  6 29  1  0
  7 30  1  0
  7 31  1  0
  9 32  1  0
 10 33  1  0
 11 34  1  0
 12 35  1  0
 14 36  1  1
 16 37  1  0
 17 38  1  0
 21 39  1  0
 22 40  1  0
 23 41  1  0
M  END
>  <smiles>  (40) 
CS(=O)(=O)N1CCc2ccccc2C1c1c[nH]c2c(Cl)cccc12

>  <score_type>  (40) 
oracle

>  <origin>  (40) 
autodockgpu

>  <m_score__min__energy>  (40) 
-7.1100000000000003

>  <m_primary>  (40) 
energy

>  <meeko>  (40) 
{"free_energy": -7.08, "intermolecular_energy": -7.68, "internal_energy": -1.14, "cluster_size": 8, "cluster_id": 1, "rank_in_cluster": 8}

>  <energy>  (40) 
-7.02

>  <cluster_rmsd>  (40) 
0.03

>  <rmsd>  (40) 
271.56

>  <cluster>  (40) 
2

$$$$
